=
 OpenBabel11122410273D

 30 35  0  0  1  0  0  0  0  0999 V2000
  185.9270  178.4000  142.0140 C   0  0  0  0  0  0  0  0  0  0  0  0
  183.5120  178.9660  142.3390 C   0  0  0  0  0  0  0  0  0  0  0  0
  186.4640  177.9480  146.5590 S   0  0  0  0  0  0  0  0  0  0  0  0
  187.1950  178.0660  142.5770 C   0  0  0  0  0  0  0  0  0  0  0  0
  185.8150  178.5020  140.6230 C   0  0  0  0  0  3  0  0  0  0  0  0
  189.3190  177.8460  139.3880 C   0  0  0  0  0  1  0  0  0  0  0  0
  190.0850  178.6730  143.2900 N   0  0  1  0  0  0  0  0  0  0  0  0
  188.1550  178.0190  140.3170 C   0  0  0  0  0  0  0  0  0  0  0  0
  189.6730  178.2930  144.6530 C   0  0  2  0  0  3  0  0  0  0  0  0
  187.9900  177.1430  146.1130 C   0  0  0  0  0  0  0  0  0  0  0  0
  186.9010  178.3060  139.7730 C   0  0  0  0  0  0  0  0  0  0  0  0
  188.3230  177.9130  141.7140 C   0  0  0  0  0  0  0  0  0  0  0  0
  182.4390  179.1810  143.2050 C   0  0  0  0  0  3  0  0  0  0  0  0
  190.8880  177.7220  145.3490 C   0  0  0  0  0  2  0  0  0  0  0  0
  191.5410  178.7980  143.3120 C   0  0  0  0  0  2  0  0  0  0  0  0
  183.2730  179.1010  141.0100 F   0  0  0  0  0  0  0  0  0  0  0  0
  186.1840  178.1580  144.8000 C   0  0  0  0  0  0  0  0  0  0  0  0
  182.6040  179.0640  144.5820 C   0  0  0  0  0  3  0  0  0  0  0  0
  184.7950  178.6230  142.8500 C   0  0  0  0  0  0  0  0  0  0  0  0
  187.2830  177.9130  143.9820 C   0  0  0  0  0  0  0  0  0  0  0  0
  188.5610  176.3880  146.8830 O   0  0  0  0  0  0  0  0  0  0  0  0
  188.4640  177.3500  144.7110 C   0  0  1  0  0  3  0  0  0  0  0  0
  192.0370  178.4410  144.6990 C   0  0  0  0  0  2  0  0  0  0  0  0
  190.0790  176.2480  142.5080 C   0  0  0  0  0  1  0  0  0  0  0  0
  183.8500  178.7270  145.1030 C   0  0  0  0  0  3  0  0  0  0  0  0
  184.9440  178.5050  144.2570 C   0  0  0  0  0  0  0  0  0  0  0  0
  189.7280  177.7120  142.2300 C   0  0  2  0  0  3  0  0  0  0  0  0
  186.7520  178.4040  138.3830 O   0  0  0  0  0  0  0  0  0  0  0  0
  186.6900  176.3600  137.1320 C   0  0  0  0  0  1  0  0  0  0  0  0
  185.8980  177.5480  137.6370 C   0  0  0  0  0  2  0  0  0  0  0  0
  1  4  1  0  0  0  0
  1 19  1  0  0  0  0
  2 19  2  0  0  0  0
  2 13  1  0  0  0  0
  4 20  1  0  0  0  0
  5  1  2  0  0  0  0
  6  8  1  0  0  0  0
  7 15  1  1  0  0  0
  7  9  1  0  0  0  0
  8 12  1  0  0  0  0
  9 22  1  0  0  0  0
  9 14  1  6  0  0  0
 10  3  1  0  0  0  0
 10 21  2  0  0  0  0
 11  8  2  0  0  0  0
 11  5  1  0  0  0  0
 12 27  1  0  0  0  0
 12  4  2  0  0  0  0
 13 18  2  0  0  0  0
 15 23  1  0  0  0  0
 16  2  1  0  0  0  0
 17  3  1  0  0  0  0
 18 25  1  0  0  0  0
 19 26  1  0  0  0  0
 20 17  2  0  0  0  0
 22 20  1  6  0  0  0
 22 10  1  0  0  0  0
 23 14  1  0  0  0  0
 26 17  1  0  0  0  0
 26 25  2  0  0  0  0
 27 24  1  1  0  0  0
 27  7  1  0  0  0  0
 28 11  1  0  0  0  0
 29 30  1  0  0  0  0
 30 28  1  0  0  0  0
M  END
>  <MODEL>
1

>  <REMARK>
 VINA RESULT:      -9.8      0.000      0.000
  Name = 
  2 active torsions:
  status: ('A' for Active; 'I' for Inactive)
    1  A    between atoms: C_11  and  O_28
    2  A    between atoms: O_28  and  C_30
                            x       y       z     vdW  Elec       q    Type
                         _______ _______ _______ _____ _____    ______ ____

>  <TORSDO>
F 2

$$$$
=
 OpenBabel11122410273D

 30 35  0  0  1  0  0  0  0  0999 V2000
  189.4360  177.2170  143.7050 C   0  0  0  0  0  0  0  0  0  0  0  0
  191.4070  176.2020  144.8660 C   0  0  0  0  0  0  0  0  0  0  0  0
  187.3920  177.9560  147.7580 S   0  0  0  0  0  0  0  0  0  0  0  0
  188.1440  177.8170  143.7810 C   0  0  0  0  0  0  0  0  0  0  0  0
  190.0220  177.0360  142.4470 C   0  0  0  0  0  3  0  0  0  0  0  0
  187.4060  178.3130  140.0480 C   0  0  0  0  0  1  0  0  0  0  0  0
  185.1330  177.8180  143.3770 N   0  0  1  0  0  0  0  0  0  0  0  0
  188.0960  177.9550  141.3290 C   0  0  0  0  0  0  0  0  0  0  0  0
  185.0900  178.1680  144.8080 C   0  0  2  0  0  3  0  0  0  0  0  0
  186.3230  179.0260  146.8160 C   0  0  0  0  0  0  0  0  0  0  0  0
  189.3780  177.4050  141.2680 C   0  0  0  0  0  0  0  0  0  0  0  0
  187.4590  178.1510  142.5730 C   0  0  0  0  0  0  0  0  0  0  0  0
  192.0280  175.8170  146.0550 C   0  0  0  0  0  3  0  0  0  0  0  0
  183.8440  178.9950  145.0340 C   0  0  0  0  0  2  0  0  0  0  0  0
  183.7730  177.9830  142.8650 C   0  0  0  0  0  2  0  0  0  0  0  0
  192.0780  175.9670  143.7110 F   0  0  0  0  0  0  0  0  0  0  0  0
  188.2420  177.6210  146.2150 C   0  0  0  0  0  0  0  0  0  0  0  0
  191.4030  176.0230  147.2810 C   0  0  0  0  0  3  0  0  0  0  0  0
  190.1210  176.8120  144.8880 C   0  0  0  0  0  0  0  0  0  0  0  0
  187.5850  178.0430  145.0620 C   0  0  0  0  0  0  0  0  0  0  0  0
  185.6730  179.9100  147.3500 O   0  0  0  0  0  0  0  0  0  0  0  0
  186.3580  178.8560  145.3320 C   0  0  1  0  0  3  0  0  0  0  0  0
  182.8900  178.4890  143.9890 C   0  0  0  0  0  2  0  0  0  0  0  0
  185.9010  180.1600  142.7300 C   0  0  0  0  0  1  0  0  0  0  0  0
  190.1460  176.6190  147.3260 C   0  0  0  0  0  3  0  0  0  0  0  0
  189.5000  177.0150  146.1470 C   0  0  0  0  0  0  0  0  0  0  0  0
  186.0310  178.6450  142.5500 C   0  0  2  0  0  3  0  0  0  0  0  0
  189.9970  177.2210  140.0250 O   0  0  0  0  0  0  0  0  0  0  0  0
  191.7580  176.5040  138.5640 C   0  0  0  0  0  1  0  0  0  0  0  0
  191.4090  177.2030  139.8620 C   0  0  0  0  0  2  0  0  0  0  0  0
  1  4  1  0  0  0  0
  1 19  1  0  0  0  0
  2 19  2  0  0  0  0
  2 13  1  0  0  0  0
  4 20  1  0  0  0  0
  5  1  2  0  0  0  0
  6  8  1  0  0  0  0
  7 15  1  6  0  0  0
  7  9  1  0  0  0  0
  8 12  1  0  0  0  0
  9 14  1  6  0  0  0
  9 22  1  0  0  0  0
 10 21  2  0  0  0  0
 10  3  1  0  0  0  0
 11  8  2  0  0  0  0
 11  5  1  0  0  0  0
 12  4  2  0  0  0  0
 13 18  2  0  0  0  0
 15 23  1  0  0  0  0
 16  2  1  0  0  0  0
 17  3  1  0  0  0  0
 18 25  1  0  0  0  0
 19 26  1  0  0  0  0
 20 17  2  0  0  0  0
 22 20  1  1  0  0  0
 22 10  1  0  0  0  0
 23 14  1  0  0  0  0
 26 17  1  0  0  0  0
 26 25  2  0  0  0  0
 27 12  1  0  0  0  0
 27 24  1  1  0  0  0
 27  7  1  0  0  0  0
 28 11  1  0  0  0  0
 29 30  1  0  0  0  0
 30 28  1  0  0  0  0
M  END
>  <MODEL>
2

>  <REMARK>
 VINA RESULT:      -9.5      2.676      5.655
  Name = 
  2 active torsions:
  status: ('A' for Active; 'I' for Inactive)
    1  A    between atoms: C_11  and  O_28
    2  A    between atoms: O_28  and  C_30
                            x       y       z     vdW  Elec       q    Type
                         _______ _______ _______ _____ _____    ______ ____

>  <TORSDO>
F 2

$$$$
=
 OpenBabel11122410273D

 30 35  0  0  1  0  0  0  0  0999 V2000
  187.8880  177.8820  143.0690 C   0  0  0  0  0  0  0  0  0  0  0  0
  186.8440  177.9510  145.3420 C   0  0  0  0  0  0  0  0  0  0  0  0
  183.8520  178.9720  141.1510 S   0  0  0  0  0  0  0  0  0  0  0  0
  187.7530  178.0080  141.6540 C   0  0  0  0  0  0  0  0  0  0  0  0
  189.1440  177.5710  143.6020 C   0  0  0  0  0  3  0  0  0  0  0  0
  191.3370  177.1830  140.5570 C   0  0  0  0  0  1  0  0  0  0  0  0
  187.6720  176.8840  138.8330 N   0  0  1  0  0  0  0  0  0  0  0  0
  190.1320  177.4440  141.4080 C   0  0  0  0  0  0  0  0  0  0  0  0
  186.3740  177.5780  138.7540 C   0  0  2  0  0  3  0  0  0  0  0  0
  184.8400  179.3170  139.7080 C   0  0  0  0  0  0  0  0  0  0  0  0
  190.2610  177.3630  142.7960 C   0  0  0  0  0  0  0  0  0  0  0  0
  188.8840  177.7470  140.8210 C   0  0  0  0  0  0  0  0  0  0  0  0
  185.7100  178.1400  146.1340 C   0  0  0  0  0  3  0  0  0  0  0  0
  186.1560  177.9650  137.3080 C   0  0  0  0  0  2  0  0  0  0  0  0
  187.9900  176.4340  137.4790 C   0  0  0  0  0  2  0  0  0  0  0  0
  188.0020  177.6480  145.9800 F   0  0  0  0  0  0  0  0  0  0  0  0
  185.3870  178.5330  141.9680 C   0  0  0  0  0  0  0  0  0  0  0  0
  184.4840  178.4510  145.5540 C   0  0  0  0  0  3  0  0  0  0  0  0
  186.7650  178.0730  143.9270 C   0  0  0  0  0  0  0  0  0  0  0  0
  186.4900  178.3750  141.1320 C   0  0  0  0  0  0  0  0  0  0  0  0
  184.4330  180.0410  138.8140 O   0  0  0  0  0  0  0  0  0  0  0  0
  186.2300  178.7680  139.7110 C   0  0  1  0  0  3  0  0  0  0  0  0
  186.8910  176.9010  136.5430 C   0  0  0  0  0  2  0  0  0  0  0  0
  188.9610  179.0750  138.6490 C   0  0  0  0  0  1  0  0  0  0  0  0
  184.3840  178.5770  144.1710 C   0  0  0  0  0  3  0  0  0  0  0  0
  185.5070  178.3920  143.3530 C   0  0  0  0  0  0  0  0  0  0  0  0
  188.7990  177.7050  139.3140 C   0  0  2  0  0  3  0  0  0  0  0  0
  191.5080  177.0650  143.3610 O   0  0  0  0  0  0  0  0  0  0  0  0
  191.7270  176.4610  145.6710 C   0  0  0  0  0  1  0  0  0  0  0  0
  191.7130  175.9670  144.2400 C   0  0  0  0  0  2  0  0  0  0  0  0
  1  5  1  0  0  0  0
  1 19  1  0  0  0  0
  2 16  1  0  0  0  0
  2 13  1  0  0  0  0
  3 17  1  0  0  0  0
  4  1  2  0  0  0  0
  6  8  1  0  0  0  0
  7 15  1  6  0  0  0
  7 27  1  0  0  0  0
  8 11  1  0  0  0  0
  9 14  1  6  0  0  0
  9  7  1  0  0  0  0
  9 22  1  0  0  0  0
 10  3  1  0  0  0  0
 11 28  1  0  0  0  0
 11  5  2  0  0  0  0
 12  8  2  0  0  0  0
 12  4  1  0  0  0  0
 17 26  1  0  0  0  0
 18 13  2  0  0  0  0
 19  2  2  0  0  0  0
 20  4  1  0  0  0  0
 20 17  2  0  0  0  0
 21 10  2  0  0  0  0
 22 10  1  1  0  0  0
 22 20  1  0  0  0  0
 23 14  1  0  0  0  0
 23 15  1  0  0  0  0
 25 18  1  0  0  0  0
 26 19  1  0  0  0  0
 26 25  2  0  0  0  0
 27 24  1  1  0  0  0
 27 12  1  0  0  0  0
 28 30  1  0  0  0  0
 30 29  1  0  0  0  0
M  END
>  <MODEL>
3

>  <REMARK>
 VINA RESULT:      -9.1      2.483      5.695
  Name = 
  2 active torsions:
  status: ('A' for Active; 'I' for Inactive)
    1  A    between atoms: C_11  and  O_28
    2  A    between atoms: O_28  and  C_30
                            x       y       z     vdW  Elec       q    Type
                         _______ _______ _______ _____ _____    ______ ____

>  <TORSDO>
F 2

$$$$
=
 OpenBabel11122410273D

 30 35  0  0  1  0  0  0  0  0999 V2000
  187.0480  178.1510  142.4830 C   0  0  0  0  0  0  0  0  0  0  0  0
  188.2160  177.8780  144.6790 C   0  0  0  0  0  0  0  0  0  0  0  0
  183.0200  178.6280  144.6500 S   0  0  0  0  0  0  0  0  0  0  0  0
  185.8370  178.3470  141.7540 C   0  0  0  0  0  0  0  0  0  0  0  0
  188.2490  178.0350  141.7750 C   0  0  0  0  0  3  0  0  0  0  0  0
  187.1840  178.2530  138.1620 C   0  0  0  0  0  1  0  0  0  0  0  0
  183.6120  177.4200  139.9060 N   0  0  1  0  0  0  0  0  0  0  0  0
  187.1140  178.2360  139.6590 C   0  0  0  0  0  0  0  0  0  0  0  0
  182.7240  177.8730  140.9910 C   0  0  2  0  0  3  0  0  0  0  0  0
  182.4550  179.2410  143.0750 C   0  0  0  0  0  0  0  0  0  0  0  0
  188.2990  178.0860  140.3830 C   0  0  0  0  0  0  0  0  0  0  0  0
  185.8760  178.3490  140.3270 C   0  0  0  0  0  0  0  0  0  0  0  0
  188.1460  177.8060  146.0720 C   0  0  0  0  0  3  0  0  0  0  0  0
  181.4230  178.3120  140.3570 C   0  0  0  0  0  2  0  0  0  0  0  0
  182.7550  177.1270  138.7580 C   0  0  0  0  0  2  0  0  0  0  0  0
  189.4410  177.7450  144.1120 F   0  0  0  0  0  0  0  0  0  0  0  0
  184.6230  178.4170  143.8740 C   0  0  0  0  0  0  0  0  0  0  0  0
  186.9260  177.9320  146.7280 C   0  0  0  0  0  3  0  0  0  0  0  0
  187.0380  178.0790  143.9070 C   0  0  0  0  0  0  0  0  0  0  0  0
  184.6370  178.5160  142.4860 C   0  0  0  0  0  0  0  0  0  0  0  0
  181.4580  179.9390  142.9830 O   0  0  0  0  0  0  0  0  0  0  0  0
  183.3300  178.9520  141.8990 C   0  0  1  0  0  3  0  0  0  0  0  0
  181.3210  177.4520  139.1290 C   0  0  0  0  0  2  0  0  0  0  0  0
  184.1250  179.8130  139.1970 C   0  0  0  0  0  1  0  0  0  0  0  0
  185.7610  178.1310  145.9920 C   0  0  0  0  0  3  0  0  0  0  0  0
  185.8020  178.2060  144.5940 C   0  0  0  0  0  0  0  0  0  0  0  0
  184.6300  178.3950  139.4730 C   0  0  2  0  0  3  0  0  0  0  0  0
  189.5200  177.9780  139.7040 O   0  0  0  0  0  0  0  0  0  0  0  0
  191.6930  177.5020  140.5960 C   0  0  0  0  0  1  0  0  0  0  0  0
  190.4490  176.9310  139.9500 C   0  0  0  0  0  2  0  0  0  0  0  0
  1 19  1  0  0  0  0
  2 13  1  0  0  0  0
  4  1  2  0  0  0  0
  4 20  1  0  0  0  0
  5  1  1  0  0  0  0
  6  8  1  0  0  0  0
  7 15  1  6  0  0  0
  7  9  1  0  0  0  0
  8 12  2  0  0  0  0
  8 11  1  0  0  0  0
  9 14  1  6  0  0  0
  9 22  1  0  0  0  0
 10  3  1  0  0  0  0
 11  5  2  0  0  0  0
 12  4  1  0  0  0  0
 13 18  2  0  0  0  0
 15 23  1  0  0  0  0
 16  2  1  0  0  0  0
 17 26  1  0  0  0  0
 17  3  1  0  0  0  0
 19 26  1  0  0  0  0
 19  2  2  0  0  0  0
 20 17  2  0  0  0  0
 21 10  2  0  0  0  0
 22 20  1  1  0  0  0
 22 10  1  0  0  0  0
 23 14  1  0  0  0  0
 25 18  1  0  0  0  0
 26 25  2  0  0  0  0
 27 24  1  1  0  0  0
 27  7  1  0  0  0  0
 27 12  1  0  0  0  0
 28 30  1  0  0  0  0
 28 11  1  0  0  0  0
 30 29  1  0  0  0  0
M  END
>  <MODEL>
4

>  <REMARK>
 VINA RESULT:      -8.8      2.882      5.839
  Name = 
  2 active torsions:
  status: ('A' for Active; 'I' for Inactive)
    1  A    between atoms: C_11  and  O_28
    2  A    between atoms: O_28  and  C_30
                            x       y       z     vdW  Elec       q    Type
                         _______ _______ _______ _____ _____    ______ ____

>  <TORSDO>
F 2

$$$$
=
 OpenBabel11122410273D

 30 35  0  0  1  0  0  0  0  0999 V2000
  187.4690  178.1020  140.0050 C   0  0  0  0  0  0  0  0  0  0  0  0
  185.3150  178.8230  138.9550 C   0  0  0  0  0  0  0  0  0  0  0  0
  185.5480  178.3420  144.1780 S   0  0  0  0  0  0  0  0  0  0  0  0
  188.2190  177.8010  141.1810 C   0  0  0  0  0  0  0  0  0  0  0  0
  188.0960  177.9910  138.7590 C   0  0  0  0  0  3  0  0  0  0  0  0
  191.6290  176.9880  139.6200 C   0  0  0  0  0  1  0  0  0  0  0  0
  190.3880  178.3780  143.2290 N   0  0  1  0  0  0  0  0  0  0  0  0
  190.1850  177.3570  139.7770 C   0  0  0  0  0  0  0  0  0  0  0  0
  189.2950  178.2340  144.2070 C   0  0  2  0  0  3  0  0  0  0  0  0
  186.9770  177.4060  144.6860 C   0  0  0  0  0  0  0  0  0  0  0  0
  189.4310  177.6140  138.6300 C   0  0  0  0  0  0  0  0  0  0  0  0
  189.6010  177.4640  141.0580 C   0  0  0  0  0  0  0  0  0  0  0  0
  183.9850  179.2210  139.1020 C   0  0  0  0  0  3  0  0  0  0  0  0
  189.9040  177.7240  145.4930 C   0  0  0  0  0  2  0  0  0  0  0  0
  191.6310  178.4360  143.9950 C   0  0  0  0  0  2  0  0  0  0  0  0
  185.8070  178.7600  137.6930 F   0  0  0  0  0  0  0  0  0  0  0  0
  186.2340  178.2870  142.5210 C   0  0  0  0  0  0  0  0  0  0  0  0
  183.4080  179.3120  140.3650 C   0  0  0  0  0  3  0  0  0  0  0  0
  186.1040  178.5050  140.0950 C   0  0  0  0  0  0  0  0  0  0  0  0
  187.5580  177.8660  142.4310 C   0  0  0  0  0  0  0  0  0  0  0  0
  186.9790  176.7550  145.7190 O   0  0  0  0  0  0  0  0  0  0  0  0
  188.1220  177.3700  143.7270 C   0  0  1  0  0  3  0  0  0  0  0  0
  191.3010  178.2780  145.4670 C   0  0  0  0  0  2  0  0  0  0  0  0
  190.4880  175.8630  142.8300 C   0  0  0  0  0  1  0  0  0  0  0  0
  184.1610  179.0040  141.4950 C   0  0  0  0  0  3  0  0  0  0  0  0
  185.4980  178.6020  141.3760 C   0  0  0  0  0  0  0  0  0  0  0  0
  190.5100  177.2810  142.2510 C   0  0  2  0  0  3  0  0  0  0  0  0
  190.0260  177.5010  137.3680 O   0  0  0  0  0  0  0  0  0  0  0  0
  189.6760  175.1800  136.8790 C   0  0  0  0  0  1  0  0  0  0  0  0
  189.5560  176.6010  136.3720 C   0  0  0  0  0  2  0  0  0  0  0  0
  1 19  2  0  0  0  0
  1  4  1  0  0  0  0
  2 13  2  0  0  0  0
  2 19  1  0  0  0  0
  3 10  1  0  0  0  0
  4 20  2  0  0  0  0
  5  1  1  0  0  0  0
  6  8  1  0  0  0  0
  7 15  1  1  0  0  0
  7  9  1  0  0  0  0
  8 12  2  0  0  0  0
  9 14  1  1  0  0  0
 10 21  2  0  0  0  0
 11  5  2  0  0  0  0
 11  8  1  0  0  0  0
 12  4  1  0  0  0  0
 12 27  1  0  0  0  0
 13 18  1  0  0  0  0
 15 23  1  0  0  0  0
 16  2  1  0  0  0  0
 17  3  1  0  0  0  0
 18 25  2  0  0  0  0
 19 26  1  0  0  0  0
 20 17  1  0  0  0  0
 22 20  1  6  0  0  0
 22  9  1  0  0  0  0
 22 10  1  0  0  0  0
 23 14  1  0  0  0  0
 26 25  1  0  0  0  0
 26 17  2  0  0  0  0
 27 24  1  1  0  0  0
 27  7  1  0  0  0  0
 28 11  1  0  0  0  0
 30 29  1  0  0  0  0
 30 28  1  0  0  0  0
M  END
>  <MODEL>
5

>  <REMARK>
 VINA RESULT:      -8.4      1.845      2.626
  Name = 
  2 active torsions:
  status: ('A' for Active; 'I' for Inactive)
    1  A    between atoms: C_11  and  O_28
    2  A    between atoms: O_28  and  C_30
                            x       y       z     vdW  Elec       q    Type
                         _______ _______ _______ _____ _____    ______ ____

>  <TORSDO>
F 2

$$$$
=
 OpenBabel11122410273D

 30 35  0  0  1  0  0  0  0  0999 V2000
  187.3710  178.1180  141.5650 C   0  0  0  0  0  0  0  0  0  0  0  0
  188.9400  177.7750  143.4830 C   0  0  0  0  0  0  0  0  0  0  0  0
  183.8230  178.3960  144.4780 S   0  0  0  0  0  0  0  0  0  0  0  0
  186.0400  178.3160  141.0890 C   0  0  0  0  0  0  0  0  0  0  0  0
  188.4160  178.0640  140.6360 C   0  0  0  0  0  3  0  0  0  0  0  0
  186.6780  178.4170  137.3070 C   0  0  0  0  0  1  0  0  0  0  0  0
  183.5180  177.4180  139.6540 N   0  0  1  0  0  0  0  0  0  0  0  0
  186.8950  178.3310  138.7870 C   0  0  0  0  0  0  0  0  0  0  0  0
  182.8460  177.8000  140.9080 C   0  0  2  0  0  3  0  0  0  0  0  0
  182.9580  179.0650  143.0710 C   0  0  0  0  0  0  0  0  0  0  0  0
  188.1990  178.1790  139.2640 C   0  0  0  0  0  0  0  0  0  0  0  0
  185.8060  178.3830  139.6820 C   0  0  0  0  0  0  0  0  0  0  0  0
  189.1390  177.6390  144.8580 C   0  0  0  0  0  3  0  0  0  0  0  0
  181.4410  178.2340  140.5550 C   0  0  0  0  0  2  0  0  0  0  0  0
  182.4620  177.1560  138.6760 C   0  0  0  0  0  2  0  0  0  0  0  0
  190.0360  177.6990  142.6880 F   0  0  0  0  0  0  0  0  0  0  0  0
  185.2510  178.2600  143.4020 C   0  0  0  0  0  0  0  0  0  0  0  0
  188.0640  177.7040  145.7390 C   0  0  0  0  0  3  0  0  0  0  0  0
  187.6340  177.9820  142.9590 C   0  0  0  0  0  0  0  0  0  0  0  0
  184.9980  178.4220  142.0430 C   0  0  0  0  0  0  0  0  0  0  0  0
  181.9510  179.7410  143.2040 O   0  0  0  0  0  0  0  0  0  0  0  0
  183.5970  178.8510  141.7370 C   0  0  1  0  0  3  0  0  0  0  0  0
  181.1210  177.4270  139.3280 C   0  0  0  0  0  2  0  0  0  0  0  0
  183.8480  179.8530  138.9790 C   0  0  0  0  0  1  0  0  0  0  0  0
  186.7770  177.9080  145.2490 C   0  0  0  0  0  3  0  0  0  0  0  0
  186.5500  178.0470  143.8730 C   0  0  0  0  0  0  0  0  0  0  0  0
  184.4190  178.4360  139.0840 C   0  0  2  0  0  3  0  0  0  0  0  0
  189.2690  178.1320  138.3620 O   0  0  0  0  0  0  0  0  0  0  0  0
  190.3440  176.4380  137.0490 C   0  0  0  0  0  1  0  0  0  0  0  0
  190.2660  177.1190  138.3990 C   0  0  0  0  0  2  0  0  0  0  0  0
  1 19  1  0  0  0  0
  2 13  1  0  0  0  0
  4  1  1  0  0  0  0
  4 20  1  0  0  0  0
  5  1  2  0  0  0  0
  6  8  1  0  0  0  0
  7 15  1  6  0  0  0
  7  9  1  0  0  0  0
  8 11  2  0  0  0  0
  8 12  1  0  0  0  0
  9 14  1  6  0  0  0
  9 22  1  0  0  0  0
 10 21  2  0  0  0  0
 10  3  1  0  0  0  0
 11  5  1  0  0  0  0
 12  4  2  0  0  0  0
 13 18  2  0  0  0  0
 15 23  1  0  0  0  0
 16  2  1  0  0  0  0
 17 26  1  0  0  0  0
 17  3  1  0  0  0  0
 19  2  2  0  0  0  0
 19 26  1  0  0  0  0
 20 17  2  0  0  0  0
 22 20  1  1  0  0  0
 22 10  1  0  0  0  0
 23 14  1  0  0  0  0
 25 18  1  0  0  0  0
 26 25  2  0  0  0  0
 27 24  1  1  0  0  0
 27  7  1  0  0  0  0
 27 12  1  0  0  0  0
 28 30  1  0  0  0  0
 28 11  1  0  0  0  0
 29 30  1  0  0  0  0
M  END
>  <MODEL>
6

>  <REMARK>
 VINA RESULT:      -8.4      2.901      5.837
  Name = 
  2 active torsions:
  status: ('A' for Active; 'I' for Inactive)
    1  A    between atoms: C_11  and  O_28
    2  A    between atoms: O_28  and  C_30
                            x       y       z     vdW  Elec       q    Type
                         _______ _______ _______ _____ _____    ______ ____

>  <TORSDO>
F 2

$$$$
=
 OpenBabel11122410273D

 30 35  0  0  1  0  0  0  0  0999 V2000
  186.5060  178.2810  142.7390 C   0  0  0  0  0  0  0  0  0  0  0  0
  186.1090  178.3520  140.2700 C   0  0  0  0  0  0  0  0  0  0  0  0
  191.0270  177.8250  142.0290 S   0  0  0  0  0  0  0  0  0  0  0  0
  187.4160  178.1600  143.8320 C   0  0  0  0  0  0  0  0  0  0  0  0
  185.1430  178.4410  143.0120 C   0  0  0  0  0  3  0  0  0  0  0  0
  184.9610  178.3050  146.7780 C   0  0  0  0  0  1  0  0  0  0  0  0
  188.6360  176.6780  146.1860 N   0  0  1  0  0  0  0  0  0  0  0  0
  185.5210  178.3090  145.3880 C   0  0  0  0  0  0  0  0  0  0  0  0
  189.9110  176.9300  145.4940 C   0  0  2  0  0  3  0  0  0  0  0  0
  191.1540  178.2440  143.7560 C   0  0  0  0  0  0  0  0  0  0  0  0
  184.6440  178.4670  144.3130 C   0  0  0  0  0  0  0  0  0  0  0  0
  186.9040  178.1360  145.1650 C   0  0  0  0  0  0  0  0  0  0  0  0
  186.6220  178.3010  138.9730 C   0  0  0  0  0  3  0  0  0  0  0  0
  190.9880  177.0260  146.5510 C   0  0  0  0  0  2  0  0  0  0  0  0
  188.9730  176.1580  147.5110 C   0  0  0  0  0  2  0  0  0  0  0  0
  184.7680  178.5050  140.4010 F   0  0  0  0  0  0  0  0  0  0  0  0
  189.2520  177.9880  142.2280 C   0  0  0  0  0  0  0  0  0  0  0  0
  187.9870  178.1440  138.7560 C   0  0  0  0  0  3  0  0  0  0  0  0
  186.9750  178.2440  141.3940 C   0  0  0  0  0  0  0  0  0  0  0  0
  188.7980  178.0530  143.5430 C   0  0  0  0  0  0  0  0  0  0  0  0
  192.1900  178.6780  144.2330 O   0  0  0  0  0  0  0  0  0  0  0  0
  189.8960  178.1450  144.5560 C   0  0  1  0  0  3  0  0  0  0  0  0
  190.4830  176.1360  147.6510 C   0  0  0  0  0  2  0  0  0  0  0  0
  188.4540  179.1060  146.9380 C   0  0  0  0  0  1  0  0  0  0  0  0
  188.8530  178.0380  139.8410 C   0  0  0  0  0  3  0  0  0  0  0  0
  188.3650  178.0860  141.1530 C   0  0  0  0  0  0  0  0  0  0  0  0
  187.7710  177.8580  146.3710 C   0  0  2  0  0  3  0  0  0  0  0  0
  183.2750  178.6400  144.5530 O   0  0  0  0  0  0  0  0  0  0  0  0
  180.9560  178.6520  143.9450 C   0  0  0  0  0  1  0  0  0  0  0  0
  182.3610  179.0490  143.5440 C   0  0  0  0  0  2  0  0  0  0  0  0
  1  5  2  0  0  0  0
  1  4  1  0  0  0  0
  2 16  1  0  0  0  0
  2 19  1  0  0  0  0
  3 17  1  0  0  0  0
  3 10  1  0  0  0  0
  4 12  2  0  0  0  0
  5 11  1  0  0  0  0
  7 27  1  0  0  0  0
  7 15  1  1  0  0  0
  8  6  1  0  0  0  0
  9  7  1  0  0  0  0
  9 14  1  1  0  0  0
 10 21  2  0  0  0  0
 10 22  1  0  0  0  0
 11 28  1  0  0  0  0
 11  8  2  0  0  0  0
 12  8  1  0  0  0  0
 12 27  1  0  0  0  0
 13  2  2  0  0  0  0
 14 23  1  0  0  0  0
 15 23  1  0  0  0  0
 17 20  2  0  0  0  0
 18 13  1  0  0  0  0
 18 25  2  0  0  0  0
 19  1  1  0  0  0  0
 20  4  1  0  0  0  0
 22 20  1  6  0  0  0
 22  9  1  0  0  0  0
 25 26  1  0  0  0  0
 26 19  2  0  0  0  0
 26 17  1  0  0  0  0
 27 24  1  6  0  0  0
 30 29  1  0  0  0  0
 30 28  1  0  0  0  0
M  END
>  <MODEL>
7

>  <REMARK>
 VINA RESULT:      -8.1      2.349      5.028
  Name = 
  2 active torsions:
  status: ('A' for Active; 'I' for Inactive)
    1  A    between atoms: C_11  and  O_28
    2  A    between atoms: O_28  and  C_30
                            x       y       z     vdW  Elec       q    Type
                         _______ _______ _______ _____ _____    ______ ____

>  <TORSDO>
F 2

$$$$
=
 OpenBabel11122410273D

 30 35  0  0  1  0  0  0  0  0999 V2000
  187.6160  177.9610  142.1790 C   0  0  0  0  0  0  0  0  0  0  0  0
  186.8570  178.0810  144.5610 C   0  0  0  0  0  0  0  0  0  0  0  0
  183.3430  178.8720  140.7420 S   0  0  0  0  0  0  0  0  0  0  0  0
  187.3050  178.0330  140.7880 C   0  0  0  0  0  0  0  0  0  0  0  0
  188.9370  177.7030  142.5620 C   0  0  0  0  0  3  0  0  0  0  0  0
  190.7510  177.2680  139.2830 C   0  0  0  0  0  1  0  0  0  0  0  0
  186.9120  176.8090  138.0360 N   0  0  1  0  0  0  0  0  0  0  0  0
  189.6510  177.5260  140.2670 C   0  0  0  0  0  0  0  0  0  0  0  0
  185.5940  177.4630  138.0960 C   0  0  2  0  0  3  0  0  0  0  0  0
  184.1350  179.1920  139.1780 C   0  0  0  0  0  0  0  0  0  0  0  0
  189.9530  177.4980  141.6310 C   0  0  0  0  0  0  0  0  0  0  0  0
  188.3320  177.7730  139.8310 C   0  0  0  0  0  0  0  0  0  0  0  0
  185.8240  178.2670  145.4800 C   0  0  0  0  0  3  0  0  0  0  0  0
  185.1870  177.7920  136.6780 C   0  0  0  0  0  2  0  0  0  0  0  0
  187.0760  176.3200  136.6680 C   0  0  0  0  0  2  0  0  0  0  0  0
  188.0940  177.8330  145.0600 F   0  0  0  0  0  0  0  0  0  0  0  0
  184.9800  178.5040  141.3760 C   0  0  0  0  0  0  0  0  0  0  0  0
  184.5270  178.5240  145.0470 C   0  0  0  0  0  3  0  0  0  0  0  0
  186.6010  178.1510  143.1630 C   0  0  0  0  0  0  0  0  0  0  0  0
  185.9750  178.3470  140.4160 C   0  0  0  0  0  0  0  0  0  0  0  0
  183.5980  179.8730  138.3190 O   0  0  0  0  0  0  0  0  0  0  0  0
  185.5310  178.6820  139.0260 C   0  0  1  0  0  3  0  0  0  0  0  0
  185.8570  176.7230  135.8610 C   0  0  0  0  0  2  0  0  0  0  0  0
  188.0990  179.0250  137.6250 C   0  0  0  0  0  1  0  0  0  0  0  0
  184.2540  178.5980  143.6840 C   0  0  0  0  0  3  0  0  0  0  0  0
  185.2730  178.4150  142.7390 C   0  0  0  0  0  0  0  0  0  0  0  0
  188.0640  177.6760  138.3470 C   0  0  2  0  0  3  0  0  0  0  0  0
  191.2680  177.2540  142.0470 O   0  0  0  0  0  0  0  0  0  0  0  0
  191.6690  175.8750  143.9660 C   0  0  0  0  0  1  0  0  0  0  0  0
  191.6630  177.2840  143.4110 C   0  0  0  0  0  2  0  0  0  0  0  0
  1  5  1  0  0  0  0
  1 19  1  0  0  0  0
  2 16  1  0  0  0  0
  2 13  1  0  0  0  0
  3 17  1  0  0  0  0
  4  1  2  0  0  0  0
  6  8  1  0  0  0  0
  7 15  1  6  0  0  0
  7  9  1  0  0  0  0
  7 27  1  0  0  0  0
  8 11  1  0  0  0  0
  9 14  1  6  0  0  0
  9 22  1  0  0  0  0
 10  3  1  0  0  0  0
 11 28  1  0  0  0  0
 11  5  2  0  0  0  0
 12  8  2  0  0  0  0
 12  4  1  0  0  0  0
 17 26  1  0  0  0  0
 18 13  2  0  0  0  0
 19  2  2  0  0  0  0
 20  4  1  0  0  0  0
 20 17  2  0  0  0  0
 21 10  2  0  0  0  0
 22 10  1  1  0  0  0
 22 20  1  0  0  0  0
 23 15  1  0  0  0  0
 23 14  1  0  0  0  0
 25 18  1  0  0  0  0
 26 19  1  0  0  0  0
 26 25  2  0  0  0  0
 27 24  1  1  0  0  0
 27 12  1  0  0  0  0
 28 30  1  0  0  0  0
 30 29  1  0  0  0  0
M  END
>  <MODEL>
8

>  <REMARK>
 VINA RESULT:      -7.9      2.673      5.911
  Name = 
  2 active torsions:
  status: ('A' for Active; 'I' for Inactive)
    1  A    between atoms: C_11  and  O_28
    2  A    between atoms: O_28  and  C_30
                            x       y       z     vdW  Elec       q    Type
                         _______ _______ _______ _____ _____    ______ ____

>  <TORSDO>
F 2

$$$$
=
 OpenBabel11122410273D

 30 35  0  0  1  0  0  0  0  0999 V2000
  186.5840  178.0940  142.6290 C   0  0  0  0  0  0  0  0  0  0  0  0
  186.9720  178.0400  145.1000 C   0  0  0  0  0  0  0  0  0  0  0  0
  190.9570  176.8790  141.8850 S   0  0  0  0  0  0  0  0  0  0  0  0
  187.0920  177.9410  141.3040 C   0  0  0  0  0  0  0  0  0  0  0  0
  185.2390  178.4420  142.7980 C   0  0  0  0  0  3  0  0  0  0  0  0
  183.9610  178.8290  139.2700 C   0  0  0  0  0  1  0  0  0  0  0  0
  187.9630  179.0130  138.5990 N   0  0  1  0  0  0  0  0  0  0  0  0
  184.8840  178.5550  140.4180 C   0  0  0  0  0  0  0  0  0  0  0  0
  189.2150  178.2890  138.8810 C   0  0  2  0  0  3  0  0  0  0  0  0
  190.3860  176.5320  140.2330 C   0  0  0  0  0  0  0  0  0  0  0  0
  184.3860  178.6620  141.7180 C   0  0  0  0  0  0  0  0  0  0  0  0
  186.2360  178.2130  140.1940 C   0  0  0  0  0  0  0  0  0  0  0  0
  187.8450  177.8390  146.1710 C   0  0  0  0  0  3  0  0  0  0  0  0
  189.8050  177.8730  137.5520 C   0  0  0  0  0  2  0  0  0  0  0  0
  188.0340  179.4470  137.2040 C   0  0  0  0  0  2  0  0  0  0  0  0
  185.6930  178.3800  145.3980 F   0  0  0  0  0  0  0  0  0  0  0  0
  189.2700  177.3660  142.2510 C   0  0  0  0  0  0  0  0  0  0  0  0
  189.1730  177.4900  145.9470 C   0  0  0  0  0  3  0  0  0  0  0  0
  187.4270  177.8920  143.7600 C   0  0  0  0  0  0  0  0  0  0  0  0
  188.4390  177.5350  141.1470 C   0  0  0  0  0  0  0  0  0  0  0  0
  191.0000  175.7840  139.4900 O   0  0  0  0  0  0  0  0  0  0  0  0
  189.0630  177.1120  139.8530 C   0  0  1  0  0  3  0  0  0  0  0  0
  189.3320  178.9400  136.6060 C   0  0  0  0  0  2  0  0  0  0  0  0
  186.7130  176.8500  138.0960 C   0  0  0  0  0  1  0  0  0  0  0  0
  189.6390  177.3380  144.6440 C   0  0  0  0  0  3  0  0  0  0  0  0
  188.7850  177.5340  143.5510 C   0  0  0  0  0  0  0  0  0  0  0  0
  186.7260  178.2280  138.7650 C   0  0  2  0  0  3  0  0  0  0  0  0
  183.0420  178.9980  141.9220 O   0  0  0  0  0  0  0  0  0  0  0  0
  180.9300  179.0590  143.0540 C   0  0  0  0  0  1  0  0  0  0  0  0
  182.4350  179.0030  143.2070 C   0  0  0  0  0  2  0  0  0  0  0  0
  1  5  1  0  0  0  0
  1 19  1  0  0  0  0
  2 16  1  0  0  0  0
  2 13  1  0  0  0  0
  3 17  1  0  0  0  0
  4  1  2  0  0  0  0
  6  8  1  0  0  0  0
  7 15  1  6  0  0  0
  7 27  1  0  0  0  0
  7  9  1  0  0  0  0
  8 11  1  0  0  0  0
  9 14  1  6  0  0  0
  9 22  1  0  0  0  0
 10  3  1  0  0  0  0
 11 28  1  0  0  0  0
 11  5  2  0  0  0  0
 12  8  2  0  0  0  0
 12  4  1  0  0  0  0
 17 26  1  0  0  0  0
 18 13  2  0  0  0  0
 19  2  2  0  0  0  0
 20  4  1  0  0  0  0
 20 17  2  0  0  0  0
 21 10  2  0  0  0  0
 22 10  1  1  0  0  0
 22 20  1  0  0  0  0
 23 15  1  0  0  0  0
 23 14  1  0  0  0  0
 25 18  1  0  0  0  0
 26 19  1  0  0  0  0
 26 25  2  0  0  0  0
 27 24  1  1  0  0  0
 27 12  1  0  0  0  0
 28 30  1  0  0  0  0
 29 30  1  0  0  0  0
M  END
>  <MODEL>
9

>  <REMARK>
 VINA RESULT:      -7.8      2.728      5.474
  Name = 
  2 active torsions:
  status: ('A' for Active; 'I' for Inactive)
    1  A    between atoms: C_11  and  O_28
    2  A    between atoms: O_28  and  C_30
                            x       y       z     vdW  Elec       q    Type
                         _______ _______ _______ _____ _____    ______ ____

>  <TORSDO>
F 2

$$$$
