=
 OpenBabel11122412103D

 34 41  0  0  1  0  0  0  0  0999 V2000
  187.4160  178.1230  140.2920 C   0  0  0  0  0  0  0  0  0  0  0  0
  185.5360  179.0520  138.8620 C   0  0  0  0  0  2  0  0  0  0  0  0
  190.6390  178.0690  145.2980 C   0  0  2  0  0  3  0  0  0  0  0  0
  188.9490  176.8330  141.6860 C   0  0  0  0  0  0  0  0  0  0  0  0
  188.5960  176.7560  144.2330 C   0  0  1  0  0  3  0  0  0  0  0  0
  189.5330  179.0000  143.7490 O   0  0  0  0  0  0  0  0  0  0  0  0
  190.8520  179.1150  144.2280 C   0  0  0  0  0  2  0  0  0  0  0  0
  191.6720  176.4350  143.5930 C   0  0  0  0  0  2  0  0  0  0  0  0
  185.3400  179.2030  141.2700 C   0  0  2  0  0  3  0  0  0  0  0  0
  182.4770  178.0790  142.3680 C   0  0  0  0  0  2  0  0  0  0  0  0
  187.1130  176.9690  143.9310 C   0  0  0  0  0  2  0  0  0  0  0  0
  190.5960  175.4600  143.1670 C   0  0  0  0  0  2  0  0  0  0  0  0
  185.4470  178.1610  142.4040 C   0  0  1  0  0  3  0  0  0  0  0  0
  184.1540  179.5980  139.1780 C   0  0  0  0  0  2  0  0  0  0  0  0
  189.2330  176.1260  142.9890 C   0  0  2  0  0  3  0  0  0  0  0  0
  191.4850  176.8080  145.0590 C   0  0  0  0  0  2  0  0  0  0  0  0
  182.9710  178.1990  140.9150 C   0  0  1  0  0  3  0  0  0  0  0  0
  187.7670  177.5980  141.5520 C   0  0  0  0  0  0  0  0  0  0  0  0
  189.2250  178.0710  144.7580 C   0  0  2  0  0  3  0  0  0  0  0  0
  186.9240  177.9550  142.7660 C   0  0  2  0  0  3  0  0  0  0  0  0
  189.4010  177.1230  139.3190 C   0  0  0  0  0  3  0  0  0  0  0  0
  183.1950  178.9990  143.3590 C   0  0  0  0  0  2  0  0  0  0  0  0
  189.7470  176.5910  140.5600 C   0  0  0  0  0  3  0  0  0  0  0  0
  184.6380  178.5730  143.6440 C   0  0  0  0  0  2  0  0  0  0  0  0
  183.9350  179.3830  140.6720 C   0  0  1  0  0  3  0  0  0  0  0  0
  188.2380  177.8790  139.1830 C   0  0  0  0  0  3  0  0  0  0  0  0
  186.1870  178.8500  140.1430 N   0  0  0  0  0  0  0  0  0  0  0  0
  183.5400  176.9870  140.5050 O   0  0  0  0  0  0  0  0  0  0  0  0
  182.5410  176.3370  139.7780 C   0  0  0  0  0  2  0  0  0  0  0  0
  183.5040  176.1370  136.3700 C   0  0  0  0  0  3  0  0  0  0  0  0
  183.6050  174.8440  138.0850 N   0  0  0  0  0  0  0  0  0  0  0  0
  183.0500  176.0200  138.4160 C   0  0  0  0  0  0  0  0  0  0  0  0
  183.8920  174.9200  136.7980 N   0  0  0  0  0  2  0  0  0  0  0  0
  182.9620  176.8610  137.3690 N   0  0  0  0  0  0  0  0  0  0  0  0
  1 18  1  0  0  0  0
  2 14  1  0  0  0  0
  2 27  1  0  0  0  0
  3  7  1  6  0  0  0
  4 15  1  0  0  0  0
  5 11  1  6  0  0  0
  5 19  1  0  0  0  0
  6  7  1  0  0  0  0
  8 16  1  0  0  0  0
  9 27  1  6  0  0  0
  9 13  1  0  0  0  0
 10 22  1  0  0  0  0
 12  8  1  0  0  0  0
 13 20  1  0  0  0  0
 13 24  1  1  0  0  0
 15 12  1  1  0  0  0
 15  5  1  0  0  0  0
 16  3  1  0  0  0  0
 17 28  1  1  0  0  0
 17 10  1  0  0  0  0
 18  4  2  0  0  0  0
 18 20  1  0  0  0  0
 19  6  1  6  0  0  0
 19  3  1  0  0  0  0
 20 11  1  1  0  0  0
 21 23  2  0  0  0  0
 22 24  1  0  0  0  0
 23  4  1  0  0  0  0
 25 14  1  6  0  0  0
 25 17  1  0  0  0  0
 25  9  1  0  0  0  0
 26 21  1  0  0  0  0
 26  1  2  0  0  0  0
 27  1  1  0  0  0  0
 29 28  1  0  0  0  0
 30 33  1  0  0  0  0
 30 34  2  0  0  0  0
 31 32  2  0  0  0  0
 32 29  1  0  0  0  0
 33 31  1  0  0  0  0
 34 32  1  0  0  0  0
M  END
>  <MODEL>
1

>  <REMARK>
 VINA RESULT:      -8.3      0.000      0.000
  Name = 
  3 active torsions:
  status: ('A' for Active; 'I' for Inactive)
    1  A    between atoms: C_17  and  O_28
    2  A    between atoms: O_28  and  C_29
    3  A    between atoms: C_29  and  C_32
                            x       y       z     vdW  Elec       q    Type
                         _______ _______ _______ _____ _____    ______ ____

>  <TORSDO>
F 3

$$$$
=
 OpenBabel11122412103D

 34 41  0  0  1  0  0  0  0  0999 V2000
  186.1690  176.2330  135.2840 C   0  0  0  0  0  0  0  0  0  0  0  0
  188.2160  177.5680  134.6000 C   0  0  0  0  0  2  0  0  0  0  0  0
  183.2750  171.0720  135.9440 C   0  0  2  0  0  3  0  0  0  0  0  0
  184.3160  175.0900  136.3890 C   0  0  0  0  0  0  0  0  0  0  0  0
  184.6890  172.7630  137.4190 C   0  0  1  0  0  3  0  0  0  0  0  0
  184.5970  172.4080  134.9660 O   0  0  0  0  0  0  0  0  0  0  0  0
  183.4190  171.7350  134.5940 C   0  0  0  0  0  2  0  0  0  0  0  0
  181.6830  173.0250  136.4860 C   0  0  0  0  0  2  0  0  0  0  0  0
  188.5190  175.2810  135.3320 C   0  0  2  0  0  3  0  0  0  0  0  0
  190.8260  174.9920  137.6260 C   0  0  0  0  0  2  0  0  0  0  0  0
  186.1430  173.1940  137.6140 C   0  0  0  0  0  2  0  0  0  0  0  0
  182.3310  173.8740  137.5580 C   0  0  0  0  0  2  0  0  0  0  0  0
  188.0810  174.5110  136.5950 C   0  0  1  0  0  3  0  0  0  0  0  0
  189.7110  177.3030  134.6740 C   0  0  0  0  0  2  0  0  0  0  0  0
  183.8360  174.0350  137.3550 C   0  0  2  0  0  3  0  0  0  0  0  0
  182.0310  171.5570  136.7040 C   0  0  0  0  0  2  0  0  0  0  0  0
  190.3670  176.2560  136.8750 C   0  0  1  0  0  3  0  0  0  0  0  0
  185.6890  175.1540  136.0530 C   0  0  0  0  0  0  0  0  0  0  0  0
  184.5830  171.7810  136.2240 C   0  0  2  0  0  3  0  0  0  0  0  0
  186.6370  174.0220  136.4160 C   0  0  2  0  0  3  0  0  0  0  0  0
  183.9320  177.1700  135.1970 C   0  0  0  0  0  3  0  0  0  0  0  0
  190.5080  173.6780  136.9070 C   0  0  0  0  0  2  0  0  0  0  0  0
  183.4540  176.1110  135.9670 C   0  0  0  0  0  3  0  0  0  0  0  0
  189.0170  173.3330  136.9070 C   0  0  0  0  0  2  0  0  0  0  0  0
  189.8800  175.9910  135.4320 C   0  0  1  0  0  3  0  0  0  0  0  0
  185.2840  177.2350  134.8630 C   0  0  0  0  0  3  0  0  0  0  0  0
  187.5710  176.3300  134.9920 N   0  0  0  0  0  0  0  0  0  0  0  0
  189.3940  176.9270  137.6260 O   0  0  0  0  0  0  0  0  0  0  0  0
  190.0880  177.5300  138.6760 C   0  0  0  0  0  2  0  0  0  0  0  0
  188.1570  177.9150  141.6270 C   0  0  0  0  0  3  0  0  0  0  0  0
  188.0490  178.6310  139.6020 N   0  0  0  0  0  0  0  0  0  0  0  0
  189.1350  177.8620  139.7710 C   0  0  0  0  0  0  0  0  0  0  0  0
  187.4360  178.6650  140.7710 N   0  0  0  0  0  2  0  0  0  0  0  0
  189.2420  177.3870  141.0250 N   0  0  0  0  0  0  0  0  0  0  0  0
  1 18  1  0  0  0  0
  2 14  1  0  0  0  0
  2 27  1  0  0  0  0
  3  7  1  6  0  0  0
  3 19  1  0  0  0  0
  3 16  1  0  0  0  0
  4 15  1  0  0  0  0
  5 11  1  6  0  0  0
  7  6  1  0  0  0  0
  8 16  1  0  0  0  0
  8 12  1  0  0  0  0
  9 27  1  1  0  0  0
  9 25  1  0  0  0  0
  9 13  1  0  0  0  0
 13 24  1  6  0  0  0
 15  5  1  0  0  0  0
 15 12  1  6  0  0  0
 17 10  1  0  0  0  0
 17 28  1  1  0  0  0
 18  4  2  0  0  0  0
 18 20  1  0  0  0  0
 19  6  1  6  0  0  0
 19  5  1  0  0  0  0
 20 13  1  0  0  0  0
 20 11  1  1  0  0  0
 21 23  2  0  0  0  0
 22 24  1  0  0  0  0
 22 10  1  0  0  0  0
 23  4  1  0  0  0  0
 25 14  1  6  0  0  0
 25 17  1  0  0  0  0
 26 21  1  0  0  0  0
 26  1  2  0  0  0  0
 27  1  1  0  0  0  0
 28 29  1  0  0  0  0
 29 32  1  0  0  0  0
 31 32  2  0  0  0  0
 31 33  1  0  0  0  0
 32 34  1  0  0  0  0
 33 30  1  0  0  0  0
 34 30  2  0  0  0  0
M  END
>  <MODEL>
2

>  <REMARK>
 VINA RESULT:      -6.5      3.815      8.852
  Name = 
  3 active torsions:
  status: ('A' for Active; 'I' for Inactive)
    1  A    between atoms: C_17  and  O_28
    2  A    between atoms: O_28  and  C_29
    3  A    between atoms: C_29  and  C_32
                            x       y       z     vdW  Elec       q    Type
                         _______ _______ _______ _____ _____    ______ ____

>  <TORSDO>
F 3

$$$$
=
 OpenBabel11122412103D

 34 41  0  0  1  0  0  0  0  0999 V2000
  186.1770  178.4640  139.6850 C   0  0  0  0  0  0  0  0  0  0  0  0
  188.6280  178.3700  139.0330 C   0  0  0  0  0  2  0  0  0  0  0  0
  180.5150  179.9080  138.5400 C   0  0  2  0  0  3  0  0  0  0  0  0
  183.8410  178.0720  140.2730 C   0  0  0  0  0  0  0  0  0  0  0  0
  182.0900  177.7790  138.4110 C   0  0  1  0  0  3  0  0  0  0  0  0
  182.6130  180.2020  138.4690 O   0  0  0  0  0  0  0  0  0  0  0  0
  181.5270  180.9440  138.9720 C   0  0  0  0  0  2  0  0  0  0  0  0
  180.7080  179.0340  140.9570 C   0  0  0  0  0  2  0  0  0  0  0  0
  186.9640  178.3550  137.2760 C   0  0  2  0  0  3  0  0  0  0  0  0
  187.4300  175.9390  135.1270 C   0  0  0  0  0  2  0  0  0  0  0  0
  183.2380  177.2360  137.5580 C   0  0  0  0  0  2  0  0  0  0  0  0
  181.3470  177.6640  140.9100 C   0  0  0  0  0  2  0  0  0  0  0  0
  185.7210  177.4790  137.0080 C   0  0  1  0  0  3  0  0  0  0  0  0
  189.3530  178.1540  137.7150 C   0  0  0  0  0  2  0  0  0  0  0  0
  182.4720  177.5720  139.8810 C   0  0  2  0  0  3  0  0  0  0  0  0
  179.8200  179.2360  139.7340 C   0  0  0  0  0  2  0  0  0  0  0  0
  188.2840  176.3180  136.3510 C   0  0  1  0  0  3  0  0  0  0  0  0
  184.8580  178.1550  139.2940 C   0  0  0  0  0  0  0  0  0  0  0  0
  181.7380  179.2210  137.9690 C   0  0  2  0  0  3  0  0  0  0  0  0
  184.5340  178.0230  137.8140 C   0  0  2  0  0  3  0  0  0  0  0  0
  185.4640  178.5960  142.0000 C   0  0  0  0  0  3  0  0  0  0  0  0
  186.5510  177.0740  134.5940 C   0  0  0  0  0  2  0  0  0  0  0  0
  184.1600  178.2800  141.6210 C   0  0  0  0  0  3  0  0  0  0  0  0
  185.3740  177.4120  135.5130 C   0  0  0  0  0  2  0  0  0  0  0  0
  188.2810  177.8290  136.6810 C   0  0  1  0  0  3  0  0  0  0  0  0
  186.4690  178.6810  141.0380 C   0  0  0  0  0  3  0  0  0  0  0  0
  187.2220  178.4900  138.7000 N   0  0  0  0  0  0  0  0  0  0  0  0
  187.8920  175.5550  137.4580 O   0  0  0  0  0  0  0  0  0  0  0  0
  188.2950  174.2490  137.1680 C   0  0  0  0  0  2  0  0  0  0  0  0
  191.7600  173.6960  136.6510 C   0  0  0  0  0  3  0  0  0  0  0  0
  190.5580  174.7510  138.0900 N   0  0  0  0  0  0  0  0  0  0  0  0
  189.7810  174.1820  137.1550 C   0  0  0  0  0  0  0  0  0  0  0  0
  191.8030  174.4460  137.7690 N   0  0  0  0  0  0  0  0  0  0  0  0
  190.4920  173.5050  136.2340 N   0  0  0  0  0  2  0  0  0  0  0  0
  1 26  1  0  0  0  0
  3  7  1  1  0  0  0
  3 16  1  0  0  0  0
  4 23  2  0  0  0  0
  5 11  1  6  0  0  0
  5 15  1  0  0  0  0
  6  7  1  0  0  0  0
  9 27  1  1  0  0  0
 10 17  1  0  0  0  0
 12  8  1  0  0  0  0
 13 24  1  6  0  0  0
 13  9  1  0  0  0  0
 13 20  1  0  0  0  0
 14  2  1  0  0  0  0
 15  4  1  0  0  0  0
 15 12  1  1  0  0  0
 16  8  1  0  0  0  0
 17 25  1  0  0  0  0
 17 28  1  1  0  0  0
 18  1  2  0  0  0  0
 18  4  1  0  0  0  0
 19  5  1  0  0  0  0
 19  6  1  1  0  0  0
 19  3  1  0  0  0  0
 20 11  1  1  0  0  0
 20 18  1  0  0  0  0
 22 10  1  0  0  0  0
 22 24  1  0  0  0  0
 23 21  1  0  0  0  0
 25  9  1  0  0  0  0
 25 14  1  1  0  0  0
 26 21  2  0  0  0  0
 27  2  1  0  0  0  0
 27  1  1  0  0  0  0
 29 28  1  0  0  0  0
 30 33  2  0  0  0  0
 32 29  1  0  0  0  0
 32 31  2  0  0  0  0
 33 31  1  0  0  0  0
 34 30  1  0  0  0  0
 34 32  1  0  0  0  0
M  END
>  <MODEL>
3

>  <REMARK>
 VINA RESULT:      -6.5      3.611      7.648
  Name = 
  3 active torsions:
  status: ('A' for Active; 'I' for Inactive)
    1  A    between atoms: C_17  and  O_28
    2  A    between atoms: O_28  and  C_29
    3  A    between atoms: C_29  and  C_32
                            x       y       z     vdW  Elec       q    Type
                         _______ _______ _______ _____ _____    ______ ____

>  <TORSDO>
F 3

$$$$
=
 OpenBabel11122412103D

 34 41  0  0  1  0  0  0  0  0999 V2000
  185.9070  178.4360  139.6980 C   0  0  0  0  0  0  0  0  0  0  0  0
  188.3670  178.2140  139.1110 C   0  0  0  0  0  2  0  0  0  0  0  0
  180.3700  180.2190  138.4280 C   0  0  2  0  0  3  0  0  0  0  0  0
  183.5370  178.1680  140.2160 C   0  0  0  0  0  0  0  0  0  0  0  0
  181.8250  178.0060  138.3020 C   0  0  1  0  0  3  0  0  0  0  0  0
  182.4820  180.3940  138.4190 O   0  0  0  0  0  0  0  0  0  0  0  0
  181.4270  181.1880  138.9060 C   0  0  0  0  0  2  0  0  0  0  0  0
  180.4450  179.2950  140.8330 C   0  0  0  0  0  2  0  0  0  0  0  0
  186.7530  178.3230  137.3100 C   0  0  2  0  0  3  0  0  0  0  0  0
  187.1430  175.9210  135.1300 C   0  0  0  0  0  2  0  0  0  0  0  0
  182.9640  177.4130  137.4710 C   0  0  0  0  0  2  0  0  0  0  0  0
  181.0070  177.8920  140.7780 C   0  0  0  0  0  2  0  0  0  0  0  0
  185.4710  177.5240  136.9920 C   0  0  1  0  0  3  0  0  0  0  0  0
  189.1140  177.9790  137.8090 C   0  0  0  0  0  2  0  0  0  0  0  0
  182.1530  177.7530  139.7780 C   0  0  2  0  0  3  0  0  0  0  0  0
  179.6050  179.5680  139.5900 C   0  0  0  0  0  2  0  0  0  0  0  0
  187.9820  176.2300  136.3840 C   0  0  1  0  0  3  0  0  0  0  0  0
  184.5840  178.2090  139.2660 C   0  0  0  0  0  0  0  0  0  0  0  0
  181.5680  179.4740  137.8780 C   0  0  2  0  0  3  0  0  0  0  0  0
  184.2940  178.1210  137.7760 C   0  0  2  0  0  3  0  0  0  0  0  0
  185.1380  178.5700  141.9960 C   0  0  0  0  0  3  0  0  0  0  0  0
  186.3440  177.1120  134.5940 C   0  0  0  0  0  2  0  0  0  0  0  0
  183.8300  178.3350  141.5760 C   0  0  0  0  0  3  0  0  0  0  0  0
  185.1630  177.5010  135.4870 C   0  0  0  0  0  2  0  0  0  0  0  0
  188.0550  177.7330  136.7410 C   0  0  1  0  0  3  0  0  0  0  0  0
  186.1730  178.6140  141.0620 C   0  0  0  0  0  3  0  0  0  0  0  0
  186.9790  178.4200  138.7430 N   0  0  0  0  0  0  0  0  0  0  0  0
  187.5170  175.4720  137.4650 O   0  0  0  0  0  0  0  0  0  0  0  0
  187.4990  174.1510  137.0110 C   0  0  0  0  0  2  0  0  0  0  0  0
  184.4720  172.3050  137.1200 C   0  0  0  0  0  3  0  0  0  0  0  0
  185.0730  174.3200  137.5700 N   0  0  0  0  0  0  0  0  0  0  0  0
  186.1270  173.5960  137.1640 C   0  0  0  0  0  0  0  0  0  0  0  0
  184.0340  173.5060  137.5440 N   0  0  0  0  0  0  0  0  0  0  0  0
  185.7960  172.3250  136.8660 N   0  0  0  0  0  2  0  0  0  0  0  0
  1 26  1  0  0  0  0
  3  7  1  1  0  0  0
  3 16  1  0  0  0  0
  4 23  2  0  0  0  0
  5 11  1  6  0  0  0
  5 15  1  0  0  0  0
  6  7  1  0  0  0  0
  9 27  1  1  0  0  0
 10 17  1  0  0  0  0
 12  8  1  0  0  0  0
 13 24  1  6  0  0  0
 13  9  1  0  0  0  0
 13 20  1  0  0  0  0
 14  2  1  0  0  0  0
 15  4  1  0  0  0  0
 15 12  1  1  0  0  0
 16  8  1  0  0  0  0
 17 25  1  0  0  0  0
 17 28  1  1  0  0  0
 18  1  2  0  0  0  0
 18  4  1  0  0  0  0
 19  5  1  0  0  0  0
 19  6  1  1  0  0  0
 19  3  1  0  0  0  0
 20 11  1  1  0  0  0
 20 18  1  0  0  0  0
 22 10  1  0  0  0  0
 22 24  1  0  0  0  0
 23 21  1  0  0  0  0
 25  9  1  0  0  0  0
 25 14  1  1  0  0  0
 26 21  2  0  0  0  0
 27  2  1  0  0  0  0
 27  1  1  0  0  0  0
 29 32  1  0  0  0  0
 29 28  1  0  0  0  0
 30 33  2  0  0  0  0
 32 31  2  0  0  0  0
 33 31  1  0  0  0  0
 34 30  1  0  0  0  0
 34 32  1  0  0  0  0
M  END
>  <MODEL>
4

>  <REMARK>
 VINA RESULT:      -6.1      3.418      7.268
  Name = 
  3 active torsions:
  status: ('A' for Active; 'I' for Inactive)
    1  A    between atoms: C_17  and  O_28
    2  A    between atoms: O_28  and  C_29
    3  A    between atoms: C_29  and  C_32
                            x       y       z     vdW  Elec       q    Type
                         _______ _______ _______ _____ _____    ______ ____

>  <TORSDO>
F 3

$$$$
=
 OpenBabel11122412103D

 34 41  0  0  1  0  0  0  0  0999 V2000
  185.5390  177.8880  137.5790 C   0  0  0  0  0  0  0  0  0  0  0  0
  187.8350  178.8480  137.0780 C   0  0  0  0  0  2  0  0  0  0  0  0
  180.8790  174.4680  136.1530 C   0  0  2  0  0  3  0  0  0  0  0  0
  183.5600  176.7310  138.4170 C   0  0  0  0  0  0  0  0  0  0  0  0
  183.0680  174.3270  137.6430 C   0  0  1  0  0  3  0  0  0  0  0  0
  182.4820  175.7860  135.7250 O   0  0  0  0  0  0  0  0  0  0  0  0
  181.0890  175.8260  135.5240 C   0  0  0  0  0  2  0  0  0  0  0  0
  180.3490  175.7920  138.3010 C   0  0  0  0  0  2  0  0  0  0  0  0
  187.2540  176.6930  136.1420 C   0  0  2  0  0  3  0  0  0  0  0  0
  189.5330  174.4230  136.7100 C   0  0  0  0  0  2  0  0  0  0  0  0
  184.5800  174.1820  137.4700 C   0  0  0  0  0  2  0  0  0  0  0  0
  181.4400  175.5060  139.3090 C   0  0  0  0  0  2  0  0  0  0  0  0
  186.7220  175.3830  136.7620 C   0  0  1  0  0  3  0  0  0  0  0  0
  189.0740  178.2940  136.3940 C   0  0  0  0  0  2  0  0  0  0  0  0
  182.8270  175.4370  138.6730 C   0  0  2  0  0  3  0  0  0  0  0  0
  180.0770  174.5490  137.4620 C   0  0  0  0  0  2  0  0  0  0  0  0
  189.5420  175.9140  137.0930 C   0  0  1  0  0  3  0  0  0  0  0  0
  184.7690  176.7120  137.6810 C   0  0  0  0  0  0  0  0  0  0  0  0
  182.3890  174.4890  136.2600 C   0  0  2  0  0  3  0  0  0  0  0  0
  185.1960  175.4740  136.9090 C   0  0  2  0  0  3  0  0  0  0  0  0
  183.9150  179.0760  138.9350 C   0  0  0  0  0  3  0  0  0  0  0  0
  188.5930  174.0730  135.5530 C   0  0  0  0  0  2  0  0  0  0  0  0
  183.1540  177.9130  139.0490 C   0  0  0  0  0  3  0  0  0  0  0  0
  187.1120  174.1510  135.9310 C   0  0  0  0  0  2  0  0  0  0  0  0
  188.7850  176.8260  136.1000 C   0  0  1  0  0  3  0  0  0  0  0  0
  185.1050  179.0620  138.2090 C   0  0  0  0  0  3  0  0  0  0  0  0
  186.7950  177.8560  136.8830 N   0  0  0  0  0  0  0  0  0  0  0  0
  189.0600  176.0720  138.3980 O   0  0  0  0  0  0  0  0  0  0  0  0
  190.1700  176.4390  139.1620 C   0  0  0  0  0  2  0  0  0  0  0  0
  189.5830  177.8990  142.3410 C   0  0  0  0  0  3  0  0  0  0  0  0
  188.5630  177.8490  140.4470 N   0  0  0  0  0  0  0  0  0  0  0  0
  189.7140  177.1630  140.3790 C   0  0  0  0  0  0  0  0  0  0  0  0
  188.4830  178.3130  141.6820 N   0  0  0  0  0  0  0  0  0  0  0  0
  190.3860  177.1640  141.5450 N   0  0  0  0  0  2  0  0  0  0  0  0
  1 18  2  0  0  0  0
  1 26  1  0  0  0  0
  3  7  1  6  0  0  0
  3 19  1  0  0  0  0
  3 16  1  0  0  0  0
  4 15  1  0  0  0  0
  4 23  2  0  0  0  0
  5 11  1  6  0  0  0
  5 15  1  0  0  0  0
  7  6  1  0  0  0  0
  8 12  1  0  0  0  0
  9 13  1  0  0  0  0
  9 27  1  1  0  0  0
 10 17  1  0  0  0  0
 13 24  1  6  0  0  0
 13 20  1  0  0  0  0
 14  2  1  0  0  0  0
 15 12  1  6  0  0  0
 16  8  1  0  0  0  0
 17 28  1  1  0  0  0
 18  4  1  0  0  0  0
 19  6  1  1  0  0  0
 19  5  1  0  0  0  0
 20 11  1  1  0  0  0
 20 18  1  0  0  0  0
 21 23  1  0  0  0  0
 22 24  1  0  0  0  0
 22 10  1  0  0  0  0
 25  9  1  0  0  0  0
 25 14  1  1  0  0  0
 25 17  1  0  0  0  0
 26 21  2  0  0  0  0
 27  2  1  0  0  0  0
 27  1  1  0  0  0  0
 28 29  1  0  0  0  0
 29 32  1  0  0  0  0
 31 33  1  0  0  0  0
 32 31  2  0  0  0  0
 32 34  1  0  0  0  0
 33 30  2  0  0  0  0
 34 30  1  0  0  0  0
M  END
>  <MODEL>
5

>  <REMARK>
 VINA RESULT:      -5.8      3.013      8.428
  Name = 
  3 active torsions:
  status: ('A' for Active; 'I' for Inactive)
    1  A    between atoms: C_17  and  O_28
    2  A    between atoms: O_28  and  C_29
    3  A    between atoms: C_29  and  C_32
                            x       y       z     vdW  Elec       q    Type
                         _______ _______ _______ _____ _____    ______ ____

>  <TORSDO>
F 3

$$$$
=
 OpenBabel11122412103D

 34 41  0  0  1  0  0  0  0  0999 V2000
  183.2730  178.3680  139.0660 C   0  0  0  0  0  0  0  0  0  0  0  0
  181.2080  179.3410  140.1750 C   0  0  0  0  0  2  0  0  0  0  0  0
  185.9680  174.1980  135.7800 C   0  0  2  0  0  3  0  0  0  0  0  0
  185.2320  177.8240  137.7160 C   0  0  0  0  0  0  0  0  0  0  0  0
  184.9310  176.6190  135.4630 C   0  0  1  0  0  3  0  0  0  0  0  0
  184.5620  174.8930  137.2060 O   0  0  0  0  0  0  0  0  0  0  0  0
  185.6190  173.9630  137.2310 C   0  0  0  0  0  2  0  0  0  0  0  0
  187.7300  175.8390  136.7010 C   0  0  0  0  0  2  0  0  0  0  0  0
  180.9240  177.9840  138.1910 C   0  0  2  0  0  3  0  0  0  0  0  0
  179.0550  179.4320  135.9380 C   0  0  0  0  0  2  0  0  0  0  0  0
  183.5610  177.2930  135.4010 C   0  0  0  0  0  2  0  0  0  0  0  0
  187.3300  177.2380  136.2860 C   0  0  0  0  0  2  0  0  0  0  0  0
  181.5420  178.0400  136.7780 C   0  0  1  0  0  3  0  0  0  0  0  0
  179.7390  179.3940  139.7880 C   0  0  0  0  0  2  0  0  0  0  0  0
  185.8240  177.4710  136.3730 C   0  0  2  0  0  3  0  0  0  0  0  0
  187.3520  174.8440  135.6090 C   0  0  0  0  0  2  0  0  0  0  0  0
  179.4360  179.9360  137.3420 C   0  0  1  0  0  3  0  0  0  0  0  0
  183.8270  177.8830  137.8640 C   0  0  0  0  0  0  0  0  0  0  0  0
  184.7700  175.1230  135.8340 C   0  0  2  0  0  3  0  0  0  0  0  0
  182.9030  177.3300  136.7910 C   0  0  2  0  0  3  0  0  0  0  0  0
  185.5030  178.7350  139.9500 C   0  0  0  0  0  3  0  0  0  0  0  0
  179.1700  177.9160  135.7570 C   0  0  0  0  0  2  0  0  0  0  0  0
  186.0570  178.2660  138.7590 C   0  0  0  0  0  3  0  0  0  0  0  0
  180.6170  177.4190  135.7190 C   0  0  0  0  0  2  0  0  0  0  0  0
  179.6420  178.8120  138.3820 C   0  0  1  0  0  3  0  0  0  0  0  0
  184.1180  178.7930  140.1000 C   0  0  0  0  0  3  0  0  0  0  0  0
  181.8480  178.4840  139.1960 N   0  0  0  0  0  0  0  0  0  0  0  0
  180.5610  180.7650  137.2590 O   0  0  0  0  0  0  0  0  0  0  0  0
  180.3990  181.4920  136.0770 C   0  0  0  0  0  2  0  0  0  0  0  0
  181.4210  184.6880  137.2290 C   0  0  0  0  0  3  0  0  0  0  0  0
  180.7910  183.8470  135.3520 N   0  0  0  0  0  0  0  0  0  0  0  0
  180.8100  182.9040  136.3070 C   0  0  0  0  0  0  0  0  0  0  0  0
  181.1790  184.9680  135.9340 N   0  0  0  0  0  2  0  0  0  0  0  0
  181.1950  183.3870  137.5020 N   0  0  0  0  0  0  0  0  0  0  0  0
  1 27  1  0  0  0  0
  1 26  1  0  0  0  0
  3 16  1  1  0  0  0
  3 19  1  0  0  0  0
  3  7  1  0  0  0  0
  4 18  1  0  0  0  0
  4 23  2  0  0  0  0
  5 11  1  1  0  0  0
  5 19  1  0  0  0  0
  5 15  1  0  0  0  0
  6  7  1  0  0  0  0
  9 25  1  0  0  0  0
  9 27  1  1  0  0  0
 10 17  1  0  0  0  0
 12  8  1  0  0  0  0
 13 24  1  6  0  0  0
 13 20  1  0  0  0  0
 13  9  1  0  0  0  0
 14  2  1  0  0  0  0
 15 12  1  1  0  0  0
 15  4  1  0  0  0  0
 16  8  1  0  0  0  0
 17 28  1  6  0  0  0
 17 25  1  0  0  0  0
 18  1  2  0  0  0  0
 19  6  1  1  0  0  0
 20 11  1  6  0  0  0
 20 18  1  0  0  0  0
 21 26  2  0  0  0  0
 22 10  1  0  0  0  0
 23 21  1  0  0  0  0
 24 22  1  0  0  0  0
 25 14  1  1  0  0  0
 27  2  1  0  0  0  0
 29 32  1  0  0  0  0
 29 28  1  0  0  0  0
 30 34  2  0  0  0  0
 31 33  1  0  0  0  0
 31 32  2  0  0  0  0
 32 34  1  0  0  0  0
 33 30  1  0  0  0  0
M  END
>  <MODEL>
6

>  <REMARK>
 VINA RESULT:      -5.7      4.525      7.560
  Name = 
  3 active torsions:
  status: ('A' for Active; 'I' for Inactive)
    1  A    between atoms: C_17  and  O_28
    2  A    between atoms: O_28  and  C_29
    3  A    between atoms: C_29  and  C_32
                            x       y       z     vdW  Elec       q    Type
                         _______ _______ _______ _____ _____    ______ ____

>  <TORSDO>
F 3

$$$$
=
 OpenBabel11122412103D

 34 41  0  0  1  0  0  0  0  0999 V2000
  189.8460  177.7050  139.0910 C   0  0  0  0  0  0  0  0  0  0  0  0
  188.9690  178.3640  136.8020 C   0  0  0  0  0  2  0  0  0  0  0  0
  190.1670  178.4760  144.9860 C   0  0  2  0  0  3  0  0  0  0  0  0
  190.4200  176.6740  141.2280 C   0  0  0  0  0  0  0  0  0  0  0  0
  188.8510  176.9680  143.2460 C   0  0  1  0  0  3  0  0  0  0  0  0
  190.0200  179.1380  142.9790 O   0  0  0  0  0  0  0  0  0  0  0  0
  190.9340  179.3560  144.0270 C   0  0  0  0  0  2  0  0  0  0  0  0
  191.8200  176.6320  144.2690 C   0  0  0  0  0  2  0  0  0  0  0  0
  187.6170  178.8650  138.7460 C   0  0  2  0  0  3  0  0  0  0  0  0
  184.5300  177.8460  138.4250 C   0  0  0  0  0  2  0  0  0  0  0  0
  187.7240  177.0970  142.2210 C   0  0  0  0  0  2  0  0  0  0  0  0
  191.0460  175.5790  143.5080 C   0  0  0  0  0  2  0  0  0  0  0  0
  187.0950  178.0070  139.9180 C   0  0  1  0  0  3  0  0  0  0  0  0
  187.6410  178.9150  136.3100 C   0  0  0  0  0  2  0  0  0  0  0  0
  189.9860  176.1760  142.5850 C   0  0  2  0  0  3  0  0  0  0  0  0
  190.9530  177.2150  145.3790 C   0  0  0  0  0  2  0  0  0  0  0  0
  185.6840  177.7610  137.4080 C   0  0  1  0  0  3  0  0  0  0  0  0
  189.5000  177.3810  140.4190 C   0  0  0  0  0  0  0  0  0  0  0  0
  189.2060  178.3620  143.8220 C   0  0  2  0  0  3  0  0  0  0  0  0
  188.1870  177.8930  140.9900 C   0  0  2  0  0  3  0  0  0  0  0  0
  191.9970  176.6210  139.3840 C   0  0  0  0  0  3  0  0  0  0  0  0
  184.7130  178.9200  139.5010 C   0  0  0  0  0  2  0  0  0  0  0  0
  191.6560  176.2880  140.6940 C   0  0  0  0  0  3  0  0  0  0  0  0
  185.8020  178.5780  140.5210 C   0  0  0  0  0  2  0  0  0  0  0  0
  186.7020  178.9190  137.5110 C   0  0  1  0  0  3  0  0  0  0  0  0
  191.0940  177.3190  138.5840 C   0  0  0  0  0  3  0  0  0  0  0  0
  188.8910  178.3700  138.2510 N   0  0  0  0  0  0  0  0  0  0  0  0
  186.3160  176.5160  137.5110 O   0  0  0  0  0  0  0  0  0  0  0  0
  185.8990  175.7950  136.3910 C   0  0  0  0  0  2  0  0  0  0  0  0
  184.7320  172.6650  137.5850 C   0  0  0  0  0  3  0  0  0  0  0  0
  183.8510  174.3950  136.6580 N   0  0  0  0  0  0  0  0  0  0  0  0
  185.1690  174.5750  136.8330 C   0  0  0  0  0  0  0  0  0  0  0  0
  183.5770  173.1940  137.1350 N   0  0  0  0  0  2  0  0  0  0  0  0
  185.7640  173.5140  137.4060 N   0  0  0  0  0  0  0  0  0  0  0  0
  1 18  1  0  0  0  0
  2 27  1  0  0  0  0
  3  7  1  6  0  0  0
  3 16  1  0  0  0  0
  4 15  1  0  0  0  0
  5 11  1  6  0  0  0
  5 19  1  0  0  0  0
  6  7  1  0  0  0  0
  8 16  1  0  0  0  0
  9 27  1  6  0  0  0
  9 13  1  0  0  0  0
 10 22  1  0  0  0  0
 12  8  1  0  0  0  0
 13 24  1  1  0  0  0
 13 20  1  0  0  0  0
 14  2  1  0  0  0  0
 15  5  1  0  0  0  0
 15 12  1  1  0  0  0
 17 28  1  1  0  0  0
 17 25  1  0  0  0  0
 17 10  1  0  0  0  0
 18 20  1  0  0  0  0
 18  4  2  0  0  0  0
 19  6  1  6  0  0  0
 19  3  1  0  0  0  0
 20 11  1  1  0  0  0
 21 23  2  0  0  0  0
 22 24  1  0  0  0  0
 23  4  1  0  0  0  0
 25 14  1  6  0  0  0
 25  9  1  0  0  0  0
 26  1  2  0  0  0  0
 26 21  1  0  0  0  0
 27  1  1  0  0  0  0
 29 32  1  0  0  0  0
 29 28  1  0  0  0  0
 31 32  2  0  0  0  0
 31 33  1  0  0  0  0
 32 34  1  0  0  0  0
 33 30  1  0  0  0  0
 34 30  2  0  0  0  0
M  END
>  <MODEL>
7

>  <REMARK>
 VINA RESULT:      -5.7      1.940      2.926
  Name = 
  3 active torsions:
  status: ('A' for Active; 'I' for Inactive)
    1  A    between atoms: C_17  and  O_28
    2  A    between atoms: O_28  and  C_29
    3  A    between atoms: C_29  and  C_32
                            x       y       z     vdW  Elec       q    Type
                         _______ _______ _______ _____ _____    ______ ____

>  <TORSDO>
F 3

$$$$
