=
 OpenBabel11122411243D

 37 43  0  0  1  0  0  0  0  0999 V2000
  184.3970  175.0200  137.2810 C   0  0  0  0  0  2  0  0  0  0  0  0
  188.7340  176.8850  136.1290 C   0  0  0  0  0  0  0  0  0  0  0  0
  185.6770  178.0320  138.7480 C   0  0  0  0  0  0  0  0  0  0  0  0
  183.5150  173.8160  136.9580 C   0  0  2  0  0  3  0  0  0  0  0  0
  182.3860  178.6630  137.2210 O   0  0  0  0  0  0  0  0  0  0  0  0
  188.0490  177.7760  138.3500 C   0  0  0  0  0  0  0  0  0  0  0  0
  184.5700  177.9720  138.0090 C   0  0  0  0  0  0  0  0  0  0  0  0
  181.6000  175.3750  137.8270 C   0  0  2  0  0  3  0  0  0  0  0  0
  186.7310  177.6240  137.9810 C   0  0  0  0  0  0  0  0  0  0  0  0
  183.2500  178.5520  138.3150 C   0  0  0  0  0  0  0  0  0  0  0  0
  188.3250  178.2670  139.6300 C   0  0  0  0  0  3  0  0  0  0  0  0
  182.0650  173.9570  137.4610 C   0  0  0  0  0  2  0  0  0  0  0  0
  186.3590  177.2330  136.6910 N   0  0  0  0  0  0  0  0  0  0  0  0
  188.7880  175.3740  136.2660 C   0  0  0  0  0  1  0  0  0  0  0  0
  184.9580  178.8060  140.9220 C   0  0  0  0  0  3  0  0  0  0  0  0
  187.2520  178.6130  140.4800 C   0  0  0  0  0  3  0  0  0  0  0  0
  187.3340  177.2960  135.6060 C   0  0  0  0  0  2  0  0  0  0  0  0
  181.6540  176.3950  136.6750 C   0  0  1  0  0  3  0  0  0  0  0  0
  181.2520  177.8160  137.0660 C   0  0  0  0  0  2  0  0  0  0  0  0
  185.9110  178.5110  140.0450 C   0  0  0  0  0  0  0  0  0  0  0  0
  184.9220  177.4590  136.6110 C   0  0  1  0  0  3  0  0  0  0  0  0
  189.0430  177.4870  137.4040 O   0  0  0  0  0  0  0  0  0  0  0  0
  182.8340  178.9390  139.5450 C   0  0  0  0  0  0  0  0  0  0  0  0
  189.7780  177.3110  135.1190 C   0  0  0  0  0  1  0  0  0  0  0  0
  182.8090  176.3120  135.6640 C   0  0  0  0  0  2  0  0  0  0  0  0
  182.2510  175.8310  138.9750 O   0  0  0  0  0  1  0  0  0  0  0  0
  184.2200  176.1410  136.2500 C   0  0  2  0  0  3  0  0  0  0  0  0
  183.5750  178.7820  140.7250 O   0  0  0  0  0  0  0  0  0  0  0  0
  180.5320  178.8380  140.4900 C   0  0  0  0  0  3  0  0  0  0  0  0
  181.4890  179.5320  139.7350 C   0  0  0  0  0  0  0  0  0  0  0  0
  181.1730  180.8100  139.2420 C   0  0  0  0  0  3  0  0  0  0  0  0
  179.6150  182.5930  138.9820 F   0  0  0  0  0  0  0  0  0  0  0  0
  178.9600  180.6570  140.2090 C   0  0  0  0  0  3  0  0  0  0  0  0
  179.9120  181.3660  139.4710 C   0  0  0  0  0  0  0  0  0  0  0  0
  179.2720  179.3950  140.7210 C   0  0  0  0  0  3  0  0  0  0  0  0
  185.4280  172.9740  137.6790 C   0  0  0  0  0  1  0  0  0  0  0  0
  184.0800  172.6600  137.4970 O   0  0  0  0  0  0  0  0  0  0  0  0
  2 14  1  0  0  0  0
  2 22  1  0  0  0  0
  3 20  1  0  0  0  0
  4  1  1  0  0  0  0
  4 12  1  0  0  0  0
  4 37  1  1  0  0  0
  5 10  1  0  0  0  0
  6 11  1  0  0  0  0
  7 10  1  0  0  0  0
  7  3  2  0  0  0  0
  8 26  1  1  0  0  0
  9  6  2  0  0  0  0
  9  3  1  0  0  0  0
 10 23  2  0  0  0  0
 11 16  2  0  0  0  0
 12  8  1  0  0  0  0
 13  9  1  0  0  0  0
 17  2  1  0  0  0  0
 17 13  1  0  0  0  0
 18 25  1  1  0  0  0
 18 19  1  0  0  0  0
 18  8  1  0  0  0  0
 19  5  1  0  0  0  0
 20 16  1  0  0  0  0
 20 15  2  0  0  0  0
 21 13  1  0  0  0  0
 21  7  1  1  0  0  0
 22  6  1  0  0  0  0
 23 30  1  0  0  0  0
 23 28  1  0  0  0  0
 24  2  1  0  0  0  0
 27 25  1  1  0  0  0
 27 21  1  0  0  0  0
 27  1  1  0  0  0  0
 28 15  1  0  0  0  0
 29 35  1  0  0  0  0
 30 29  2  0  0  0  0
 31 34  2  0  0  0  0
 31 30  1  0  0  0  0
 32 34  1  0  0  0  0
 33 35  2  0  0  0  0
 34 33  1  0  0  0  0
 37 36  1  0  0  0  0
M  END
>  <MODEL>
1

>  <REMARK>
 VINA RESULT:      -6.4      0.000      0.000
  Name = 
  2 active torsions:
  status: ('A' for Active; 'I' for Inactive)
    1  A    between atoms: C_4  and  O_37
    2  A    between atoms: C_23  and  C_30
                            x       y       z     vdW  Elec       q    Type
                         _______ _______ _______ _____ _____    ______ ____

>  <TORSDO>
F 2

$$$$
=
 OpenBabel11122411243D

 37 43  0  0  1  0  0  0  0  0999 V2000
  187.4120  177.5040  138.7410 C   0  0  0  0  0  2  0  0  0  0  0  0
  183.1140  177.1040  136.5090 C   0  0  0  0  0  0  0  0  0  0  0  0
  186.4100  174.5620  136.9490 C   0  0  0  0  0  0  0  0  0  0  0  0
  188.2000  178.4910  139.6000 C   0  0  2  0  0  3  0  0  0  0  0  0
  189.6130  175.8200  135.6370 O   0  0  0  0  0  0  0  0  0  0  0  0
  184.0050  174.8200  136.9340 C   0  0  0  0  0  0  0  0  0  0  0  0
  187.4560  175.3190  136.6190 C   0  0  0  0  0  0  0  0  0  0  0  0
  190.2560  177.1090  138.7550 C   0  0  2  0  0  3  0  0  0  0  0  0
  185.2830  175.3310  136.8800 C   0  0  0  0  0  0  0  0  0  0  0  0
  188.8250  174.8750  136.3010 C   0  0  0  0  0  0  0  0  0  0  0  0
  183.8500  173.4530  137.1920 C   0  0  0  0  0  3  0  0  0  0  0  0
  189.6870  178.1220  139.7600 C   0  0  0  0  0  2  0  0  0  0  0  0
  185.5390  176.6600  136.5320 N   0  0  0  0  0  0  0  0  0  0  0  0
  182.9860  177.7780  137.8630 C   0  0  0  0  0  1  0  0  0  0  0  0
  187.3260  172.3830  137.4490 C   0  0  0  0  0  3  0  0  0  0  0  0
  184.9990  172.6500  137.3580 C   0  0  0  0  0  3  0  0  0  0  0  0
  184.4940  177.4570  135.8960 C   0  0  0  0  0  2  0  0  0  0  0  0
  190.1770  177.5410  137.2790 C   0  0  1  0  0  3  0  0  0  0  0  0
  190.6840  176.5000  136.2840 C   0  0  0  0  0  2  0  0  0  0  0  0
  186.2980  173.1930  137.2270 C   0  0  0  0  0  0  0  0  0  0  0  0
  186.9770  176.7400  136.3120 C   0  0  1  0  0  3  0  0  0  0  0  0
  182.9320  175.6810  136.6700 O   0  0  0  0  0  0  0  0  0  0  0  0
  189.3500  173.6690  136.6280 C   0  0  0  0  0  0  0  0  0  0  0  0
  182.0260  177.6390  135.6030 C   0  0  0  0  0  1  0  0  0  0  0  0
  188.9480  178.3350  136.8050 C   0  0  0  0  0  2  0  0  0  0  0  0
  189.7160  175.8390  138.9690 O   0  0  0  0  0  1  0  0  0  0  0  0
  187.5760  177.8020  137.2460 C   0  0  2  0  0  3  0  0  0  0  0  0
  188.6880  172.6870  137.3790 O   0  0  0  0  0  0  0  0  0  0  0  0
  190.9640  172.6900  135.0040 C   0  0  0  0  0  3  0  0  0  0  0  0
  190.7360  173.3180  136.2380 C   0  0  0  0  0  0  0  0  0  0  0  0
  191.8360  173.6680  137.0390 C   0  0  0  0  0  3  0  0  0  0  0  0
  194.1890  173.6960  137.4140 F   0  0  0  0  0  0  0  0  0  0  0  0
  193.3510  172.7220  135.4060 C   0  0  0  0  0  3  0  0  0  0  0  0
  193.1360  173.3640  136.6290 C   0  0  0  0  0  0  0  0  0  0  0  0
  192.2650  172.3880  134.5940 C   0  0  0  0  0  3  0  0  0  0  0  0
  188.5200  177.9860  141.7290 C   0  0  0  0  0  1  0  0  0  0  0  0
  187.6110  178.5920  140.8600 O   0  0  0  0  0  0  0  0  0  0  0  0
  1  4  1  0  0  0  0
  2 22  1  0  0  0  0
  2 14  1  0  0  0  0
  3 20  1  0  0  0  0
  4 12  1  0  0  0  0
  4 37  1  1  0  0  0
  5 19  1  0  0  0  0
  5 10  1  0  0  0  0
  6 11  1  0  0  0  0
  7  3  2  0  0  0  0
  8 26  1  6  0  0  0
  8 12  1  0  0  0  0
  9  6  2  0  0  0  0
  9  3  1  0  0  0  0
 10  7  1  0  0  0  0
 10 23  2  0  0  0  0
 11 16  2  0  0  0  0
 13  9  1  0  0  0  0
 17  2  1  0  0  0  0
 17 13  1  0  0  0  0
 18 19  1  6  0  0  0
 18  8  1  0  0  0  0
 20 16  1  0  0  0  0
 20 15  2  0  0  0  0
 21 13  1  0  0  0  0
 21  7  1  1  0  0  0
 21 27  1  0  0  0  0
 22  6  1  0  0  0  0
 23 28  1  0  0  0  0
 24  2  1  0  0  0  0
 25 18  1  0  0  0  0
 27 25  1  6  0  0  0
 27  1  1  0  0  0  0
 28 15  1  0  0  0  0
 29 30  1  0  0  0  0
 30 23  1  0  0  0  0
 30 31  2  0  0  0  0
 33 34  2  0  0  0  0
 34 31  1  0  0  0  0
 34 32  1  0  0  0  0
 35 29  2  0  0  0  0
 35 33  1  0  0  0  0
 37 36  1  0  0  0  0
M  END
>  <MODEL>
2

>  <REMARK>
 VINA RESULT:      -6.3      3.747      8.864
  Name = 
  2 active torsions:
  status: ('A' for Active; 'I' for Inactive)
    1  A    between atoms: C_4  and  O_37
    2  A    between atoms: C_23  and  C_30
                            x       y       z     vdW  Elec       q    Type
                         _______ _______ _______ _____ _____    ______ ____

>  <TORSDO>
F 2

$$$$
=
 OpenBabel11122411243D

 37 43  0  0  1  0  0  0  0  0999 V2000
  186.2720  177.5810  139.1320 C   0  0  0  0  0  2  0  0  0  0  0  0
  182.3250  176.2520  136.6270 C   0  0  0  0  0  0  0  0  0  0  0  0
  186.2130  174.7360  136.9490 C   0  0  0  0  0  0  0  0  0  0  0  0
  186.7180  178.6330  140.1460 C   0  0  2  0  0  3  0  0  0  0  0  0
  188.9310  177.0240  135.9800 O   0  0  0  0  0  0  0  0  0  0  0  0
  183.8400  174.2870  136.8270 C   0  0  0  0  0  0  0  0  0  0  0  0
  186.9970  175.7990  136.7720 C   0  0  0  0  0  0  0  0  0  0  0  0
  189.1060  178.0260  139.2610 C   0  0  2  0  0  3  0  0  0  0  0  0
  184.9120  175.1480  136.9070 C   0  0  0  0  0  0  0  0  0  0  0  0
  188.4420  175.8140  136.4820 C   0  0  0  0  0  0  0  0  0  0  0  0
  184.0880  172.9130  136.9120 C   0  0  0  0  0  3  0  0  0  0  0  0
  188.2450  178.6910  140.3450 C   0  0  0  0  0  2  0  0  0  0  0  0
  184.7730  176.5280  136.7360 N   0  0  0  0  0  0  0  0  0  0  0  0
  181.9780  176.6780  138.0420 C   0  0  0  0  0  1  0  0  0  0  0  0
  187.7180  172.8670  137.2370 C   0  0  0  0  0  3  0  0  0  0  0  0
  185.4180  172.4610  137.0460 C   0  0  0  0  0  3  0  0  0  0  0  0
  183.5530  177.0650  136.1400 C   0  0  0  0  0  2  0  0  0  0  0  0
  188.9320  178.6060  137.8450 C   0  0  1  0  0  3  0  0  0  0  0  0
  189.7430  177.8940  136.7630 C   0  0  0  0  0  2  0  0  0  0  0  0
  186.5020  173.3680  137.0550 C   0  0  0  0  0  0  0  0  0  0  0  0
  186.1280  177.0470  136.6080 C   0  0  1  0  0  3  0  0  0  0  0  0
  182.5660  174.8290  136.6070 O   0  0  0  0  0  0  0  0  0  0  0  0
  189.2920  174.7790  136.6920 C   0  0  0  0  0  0  0  0  0  0  0  0
  181.1460  176.5640  135.7310 C   0  0  0  0  0  1  0  0  0  0  0  0
  187.5340  179.0660  137.3990 C   0  0  0  0  0  2  0  0  0  0  0  0
  188.9580  176.6370  139.2920 O   0  0  0  0  0  1  0  0  0  0  0  0
  186.3710  178.1060  137.6950 C   0  0  2  0  0  3  0  0  0  0  0  0
  188.9320  173.5580  137.2820 O   0  0  0  0  0  0  0  0  0  0  0  0
  191.1110  174.8500  134.9940 C   0  0  0  0  0  3  0  0  0  0  0  0
  190.7260  174.8970  136.3420 C   0  0  0  0  0  0  0  0  0  0  0  0
  191.7050  175.1310  137.3230 C   0  0  0  0  0  3  0  0  0  0  0  0
  193.9830  175.4960  137.9180 F   0  0  0  0  0  0  0  0  0  0  0  0
  193.4210  175.2150  135.6190 C   0  0  0  0  0  3  0  0  0  0  0  0
  193.0470  175.2810  136.9640 C   0  0  0  0  0  0  0  0  0  0  0  0
  192.4530  175.0030  134.6350 C   0  0  0  0  0  3  0  0  0  0  0  0
  184.7490  178.6610  141.1520 C   0  0  0  0  0  1  0  0  0  0  0  0
  186.1010  178.3940  141.3740 O   0  0  0  0  0  0  0  0  0  0  0  0
  1  4  1  0  0  0  0
  2 14  1  0  0  0  0
  3 20  1  0  0  0  0
  4 12  1  0  0  0  0
  4 37  1  1  0  0  0
  5 10  1  0  0  0  0
  5 19  1  0  0  0  0
  6  9  2  0  0  0  0
  6 11  1  0  0  0  0
  7  3  2  0  0  0  0
  8 26  1  6  0  0  0
  8 12  1  0  0  0  0
  9  3  1  0  0  0  0
 10 23  2  0  0  0  0
 10  7  1  0  0  0  0
 11 16  2  0  0  0  0
 13  9  1  0  0  0  0
 15 28  1  0  0  0  0
 16 20  1  0  0  0  0
 17  2  1  0  0  0  0
 17 13  1  0  0  0  0
 18 19  1  6  0  0  0
 18  8  1  0  0  0  0
 20 15  2  0  0  0  0
 21 13  1  0  0  0  0
 21  7  1  1  0  0  0
 21 27  1  0  0  0  0
 22  2  1  0  0  0  0
 22  6  1  0  0  0  0
 23 28  1  0  0  0  0
 24  2  1  0  0  0  0
 25 18  1  0  0  0  0
 27 25  1  6  0  0  0
 27  1  1  0  0  0  0
 29 30  1  0  0  0  0
 30 23  1  0  0  0  0
 30 31  2  0  0  0  0
 33 34  2  0  0  0  0
 34 31  1  0  0  0  0
 34 32  1  0  0  0  0
 35 29  2  0  0  0  0
 35 33  1  0  0  0  0
 36 37  1  0  0  0  0
M  END
>  <MODEL>
3

>  <REMARK>
 VINA RESULT:      -5.4      3.541      8.418
  Name = 
  2 active torsions:
  status: ('A' for Active; 'I' for Inactive)
    1  A    between atoms: C_4  and  O_37
    2  A    between atoms: C_23  and  C_30
                            x       y       z     vdW  Elec       q    Type
                         _______ _______ _______ _____ _____    ______ ____

>  <TORSDO>
F 2

$$$$
=
 OpenBabel11122411243D

 37 43  0  0  1  0  0  0  0  0999 V2000
  184.0270  177.8520  137.6100 C   0  0  0  0  0  2  0  0  0  0  0  0
  180.3590  181.0360  137.7580 C   0  0  0  0  0  0  0  0  0  0  0  0
  180.6220  176.8800  138.1820 C   0  0  0  0  0  0  0  0  0  0  0  0
  185.5450  177.8180  137.4420 C   0  0  2  0  0  3  0  0  0  0  0  0
  182.0010  175.0420  135.3050 O   0  0  0  0  0  0  0  0  0  0  0  0
  179.6630  178.9640  138.9480 C   0  0  0  0  0  0  0  0  0  0  0  0
  181.3460  176.4870  137.1340 C   0  0  0  0  0  0  0  0  0  0  0  0
  185.1040  175.3330  136.7480 C   0  0  2  0  0  3  0  0  0  0  0  0
  180.5240  178.2420  138.1520 C   0  0  0  0  0  0  0  0  0  0  0  0
  181.4990  175.1190  136.6070 C   0  0  0  0  0  0  0  0  0  0  0  0
  178.9320  178.2770  139.9240 C   0  0  0  0  0  3  0  0  0  0  0  0
  186.1090  176.4060  137.1930 C   0  0  0  0  0  2  0  0  0  0  0  0
  181.2200  178.8250  137.0890 N   0  0  0  0  0  0  0  0  0  0  0  0
  181.5890  181.5580  138.4790 C   0  0  0  0  0  1  0  0  0  0  0  0
  180.0490  174.8520  139.3640 C   0  0  0  0  0  3  0  0  0  0  0  0
  179.0820  176.8780  140.0380 C   0  0  0  0  0  3  0  0  0  0  0  0
  180.8080  180.1310  136.5820 C   0  0  0  0  0  2  0  0  0  0  0  0
  184.3690  175.6360  135.4290 C   0  0  1  0  0  3  0  0  0  0  0  0
  183.3250  174.5950  135.0300 C   0  0  0  0  0  2  0  0  0  0  0  0
  179.9220  176.1570  139.1580 C   0  0  0  0  0  0  0  0  0  0  0  0
  181.7850  177.7150  136.3330 C   0  0  1  0  0  3  0  0  0  0  0  0
  179.5190  180.3360  138.7010 O   0  0  0  0  0  0  0  0  0  0  0  0
  181.2230  173.9830  137.2930 C   0  0  0  0  0  0  0  0  0  0  0  0
  179.5940  182.2170  137.2010 C   0  0  0  0  0  1  0  0  0  0  0  0
  183.9770  177.0890  135.1160 C   0  0  0  0  0  2  0  0  0  0  0  0
  184.2270  175.0120  137.7860 O   0  0  0  0  0  1  0  0  0  0  0  0
  183.3110  177.8780  136.2540 C   0  0  2  0  0  3  0  0  0  0  0  0
  180.8130  173.9390  138.6330 O   0  0  0  0  0  0  0  0  0  0  0  0
  180.4230  172.1990  135.7500 C   0  0  0  0  0  3  0  0  0  0  0  0
  181.3940  172.6570  136.6550 C   0  0  0  0  0  0  0  0  0  0  0  0
  182.5420  171.8770  136.8750 C   0  0  0  0  0  3  0  0  0  0  0  0
  183.8050  169.9010  136.4570 F   0  0  0  0  0  0  0  0  0  0  0  0
  181.7180  170.1950  135.3430 C   0  0  0  0  0  3  0  0  0  0  0  0
  182.7000  170.6490  136.2290 C   0  0  0  0  0  0  0  0  0  0  0  0
  180.5830  170.9710  135.1030 C   0  0  0  0  0  3  0  0  0  0  0  0
  185.1050  178.6280  139.4530 C   0  0  0  0  0  1  0  0  0  0  0  0
  186.1550  178.3670  138.5700 O   0  0  0  0  0  0  0  0  0  0  0  0
  2 14  1  0  0  0  0
  2 22  1  0  0  0  0
  3 20  1  0  0  0  0
  4  1  1  0  0  0  0
  4 37  1  1  0  0  0
  5 10  1  0  0  0  0
  6 11  1  0  0  0  0
  7  3  2  0  0  0  0
  8 12  1  0  0  0  0
  8 26  1  1  0  0  0
  9  3  1  0  0  0  0
  9  6  2  0  0  0  0
 10  7  1  0  0  0  0
 10 23  2  0  0  0  0
 11 16  2  0  0  0  0
 12  4  1  0  0  0  0
 13  9  1  0  0  0  0
 17 13  1  0  0  0  0
 17  2  1  0  0  0  0
 18 19  1  1  0  0  0
 18  8  1  0  0  0  0
 19  5  1  0  0  0  0
 20 15  2  0  0  0  0
 20 16  1  0  0  0  0
 21 13  1  0  0  0  0
 21  7  1  1  0  0  0
 22  6  1  0  0  0  0
 23 28  1  0  0  0  0
 24  2  1  0  0  0  0
 25 18  1  0  0  0  0
 27 25  1  6  0  0  0
 27 21  1  0  0  0  0
 27  1  1  0  0  0  0
 28 15  1  0  0  0  0
 29 30  1  0  0  0  0
 30 31  2  0  0  0  0
 30 23  1  0  0  0  0
 33 34  2  0  0  0  0
 34 32  1  0  0  0  0
 34 31  1  0  0  0  0
 35 33  1  0  0  0  0
 35 29  2  0  0  0  0
 37 36  1  0  0  0  0
M  END
>  <MODEL>
4

>  <REMARK>
 VINA RESULT:      -5.3      3.236      7.272
  Name = 
  2 active torsions:
  status: ('A' for Active; 'I' for Inactive)
    1  A    between atoms: C_4  and  O_37
    2  A    between atoms: C_23  and  C_30
                            x       y       z     vdW  Elec       q    Type
                         _______ _______ _______ _____ _____    ______ ____

>  <TORSDO>
F 2

$$$$
=
 OpenBabel11122411243D

 37 43  0  0  1  0  0  0  0  0999 V2000
  187.6320  174.3640  136.9540 C   0  0  0  0  0  2  0  0  0  0  0  0
  192.1300  176.1460  137.4150 C   0  0  0  0  0  0  0  0  0  0  0  0
  188.3860  177.2800  138.9040 C   0  0  0  0  0  0  0  0  0  0  0  0
  186.8940  173.2000  136.2980 C   0  0  2  0  0  3  0  0  0  0  0  0
  185.8120  178.0630  136.3900 O   0  0  0  0  0  0  0  0  0  0  0  0
  190.7490  176.9700  139.3140 C   0  0  0  0  0  0  0  0  0  0  0  0
  187.5920  177.2800  137.8330 C   0  0  0  0  0  0  0  0  0  0  0  0
  184.8200  174.7780  136.5430 C   0  0  2  0  0  3  0  0  0  0  0  0
  189.6310  176.8710  138.5170 C   0  0  0  0  0  0  0  0  0  0  0  0
  186.2550  177.8860  137.7040 C   0  0  0  0  0  0  0  0  0  0  0  0
  190.5840  177.4040  140.6340 C   0  0  0  0  0  3  0  0  0  0  0  0
  185.3620  173.3630  136.2900 C   0  0  0  0  0  2  0  0  0  0  0  0
  189.7100  176.5410  137.1610 N   0  0  0  0  0  0  0  0  0  0  0  0
  192.1130  174.6300  137.4920 C   0  0  0  0  0  1  0  0  0  0  0  0
  186.9870  177.9890  140.7420 C   0  0  0  0  0  3  0  0  0  0  0  0
  189.2920  177.7470  141.0890 C   0  0  0  0  0  3  0  0  0  0  0  0
  190.9940  176.6170  136.4710 C   0  0  0  0  0  2  0  0  0  0  0  0
  185.2740  175.8410  135.5250 C   0  0  1  0  0  3  0  0  0  0  0  0
  184.7840  177.2570  135.8230 C   0  0  0  0  0  2  0  0  0  0  0  0
  188.1750  177.7010  140.2240 C   0  0  0  0  0  0  0  0  0  0  0  0
  188.3870  176.8110  136.6130 C   0  0  1  0  0  3  0  0  0  0  0  0
  191.9990  176.6890  138.7460 O   0  0  0  0  0  0  0  0  0  0  0  0
  185.4530  178.2370  138.7390 C   0  0  0  0  0  0  0  0  0  0  0  0
  193.4590  176.5810  136.8350 C   0  0  0  0  0  1  0  0  0  0  0  0
  186.7020  175.7630  134.9590 C   0  0  0  0  0  2  0  0  0  0  0  0
  185.0530  175.1710  137.8630 O   0  0  0  0  0  1  0  0  0  0  0  0
  187.8290  175.5290  135.9760 C   0  0  2  0  0  3  0  0  0  0  0  0
  185.7510  178.0130  140.0910 O   0  0  0  0  0  0  0  0  0  0  0  0
  183.0520  178.0540  138.1030 C   0  0  0  0  0  3  0  0  0  0  0  0
  184.1320  178.8610  138.4930 C   0  0  0  0  0  0  0  0  0  0  0  0
  183.9140  180.2310  138.7140 C   0  0  0  0  0  3  0  0  0  0  0  0
  182.4520  182.1120  138.7220 F   0  0  0  0  0  0  0  0  0  0  0  0
  181.5840  179.9780  138.1110 C   0  0  0  0  0  3  0  0  0  0  0  0
  182.6480  180.7880  138.5160 C   0  0  0  0  0  0  0  0  0  0  0  0
  181.7860  178.6110  137.9070 C   0  0  0  0  0  3  0  0  0  0  0  0
  187.7460  171.1910  135.9360 C   0  0  0  0  0  1  0  0  0  0  0  0
  187.2280  172.0080  136.9420 O   0  0  0  0  0  0  0  0  0  0  0  0
  2 14  1  0  0  0  0
  2 22  1  0  0  0  0
  3 20  1  0  0  0  0
  4 37  1  1  0  0  0
  4  1  1  0  0  0  0
  5 10  1  0  0  0  0
  6 11  1  0  0  0  0
  7  3  2  0  0  0  0
  8 26  1  1  0  0  0
  9  3  1  0  0  0  0
  9  6  2  0  0  0  0
 10  7  1  0  0  0  0
 10 23  2  0  0  0  0
 11 16  2  0  0  0  0
 12  4  1  0  0  0  0
 12  8  1  0  0  0  0
 13  9  1  0  0  0  0
 17 13  1  0  0  0  0
 17  2  1  0  0  0  0
 18 25  1  1  0  0  0
 18 19  1  0  0  0  0
 18  8  1  0  0  0  0
 19  5  1  0  0  0  0
 20 15  2  0  0  0  0
 20 16  1  0  0  0  0
 21 13  1  0  0  0  0
 21  7  1  1  0  0  0
 22  6  1  0  0  0  0
 23 28  1  0  0  0  0
 24  2  1  0  0  0  0
 27 25  1  1  0  0  0
 27 21  1  0  0  0  0
 27  1  1  0  0  0  0
 28 15  1  0  0  0  0
 29 30  1  0  0  0  0
 30 31  2  0  0  0  0
 30 23  1  0  0  0  0
 33 34  2  0  0  0  0
 34 31  1  0  0  0  0
 34 32  1  0  0  0  0
 35 29  2  0  0  0  0
 35 33  1  0  0  0  0
 36 37  1  0  0  0  0
M  END
>  <MODEL>
5

>  <REMARK>
 VINA RESULT:      -5.2      2.186      3.291
  Name = 
  2 active torsions:
  status: ('A' for Active; 'I' for Inactive)
    1  A    between atoms: C_4  and  O_37
    2  A    between atoms: C_23  and  C_30
                            x       y       z     vdW  Elec       q    Type
                         _______ _______ _______ _____ _____    ______ ____

>  <TORSDO>
F 2

$$$$
=
 OpenBabel11122411243D

 37 43  0  0  1  0  0  0  0  0999 V2000
  187.5230  177.3280  140.6320 C   0  0  0  0  0  2  0  0  0  0  0  0
  183.2860  178.3590  138.4860 C   0  0  0  0  0  0  0  0  0  0  0  0
  186.4410  175.7560  137.5950 C   0  0  0  0  0  0  0  0  0  0  0  0
  188.3290  177.7000  141.8750 C   0  0  2  0  0  3  0  0  0  0  0  0
  189.7410  177.3150  137.1120 O   0  0  0  0  0  0  0  0  0  0  0  0
  184.0530  176.1250  137.7020 C   0  0  0  0  0  0  0  0  0  0  0  0
  187.5320  176.5140  137.6970 C   0  0  0  0  0  0  0  0  0  0  0  0
  190.3430  176.8170  140.4560 C   0  0  2  0  0  3  0  0  0  0  0  0
  185.3550  176.5180  137.9190 C   0  0  0  0  0  0  0  0  0  0  0  0
  188.8880  176.2120  137.2040 C   0  0  0  0  0  0  0  0  0  0  0  0
  183.8240  174.8260  137.2330 C   0  0  0  0  0  3  0  0  0  0  0  0
  189.7910  177.2160  141.8330 C   0  0  0  0  0  2  0  0  0  0  0  0
  185.6850  177.8240  138.2920 N   0  0  0  0  0  0  0  0  0  0  0  0
  183.1460  178.2640  139.9950 C   0  0  0  0  0  1  0  0  0  0  0  0
  187.2340  173.5730  136.9290 C   0  0  0  0  0  3  0  0  0  0  0  0
  184.9270  173.9840  136.9750 C   0  0  0  0  0  3  0  0  0  0  0  0
  184.7010  178.8920  138.1410 C   0  0  0  0  0  2  0  0  0  0  0  0
  190.3330  177.9380  139.4010 C   0  0  1  0  0  3  0  0  0  0  0  0
  190.8220  177.5130  138.0170 C   0  0  0  0  0  2  0  0  0  0  0  0
  186.2540  174.4420  137.1420 C   0  0  0  0  0  0  0  0  0  0  0  0
  187.1320  177.9200  138.1480 C   0  0  1  0  0  3  0  0  0  0  0  0
  183.0310  177.0620  137.9050 O   0  0  0  0  0  0  0  0  0  0  0  0
  189.3440  174.9780  136.8790 C   0  0  0  0  0  0  0  0  0  0  0  0
  182.2550  179.3400  137.9700 C   0  0  0  0  0  1  0  0  0  0  0  0
  189.1600  178.9320  139.3870 C   0  0  0  0  0  2  0  0  0  0  0  0
  189.7360  175.6460  139.9970 O   0  0  0  0  0  1  0  0  0  0  0  0
  187.7510  178.3300  139.4930 C   0  0  2  0  0  3  0  0  0  0  0  0
  188.6110  173.7910  137.0270 O   0  0  0  0  0  0  0  0  0  0  0  0
  191.0460  175.2380  135.0800 C   0  0  0  0  0  3  0  0  0  0  0  0
  190.7230  174.7920  136.3700 C   0  0  0  0  0  0  0  0  0  0  0  0
  191.7360  174.2480  137.1770 C   0  0  0  0  0  3  0  0  0  0  0  0
  194.0070  173.5870  137.4720 F   0  0  0  0  0  0  0  0  0  0  0  0
  193.3460  174.5540  135.3960 C   0  0  0  0  0  3  0  0  0  0  0  0
  193.0400  174.1220  136.6900 C   0  0  0  0  0  0  0  0  0  0  0  0
  192.3490  175.1150  134.5940 C   0  0  0  0  0  3  0  0  0  0  0  0
  188.6200  177.3880  144.0450 C   0  0  0  0  0  1  0  0  0  0  0  0
  187.7040  177.1860  143.0110 O   0  0  0  0  0  0  0  0  0  0  0  0
  1  4  1  0  0  0  0
  2 14  1  0  0  0  0
  3  7  2  0  0  0  0
  3  9  1  0  0  0  0
  4 37  1  1  0  0  0
  5 10  1  0  0  0  0
  5 19  1  0  0  0  0
  6 22  1  0  0  0  0
  6  9  2  0  0  0  0
  8 26  1  6  0  0  0
  8 12  1  0  0  0  0
  9 13  1  0  0  0  0
 10  7  1  0  0  0  0
 11  6  1  0  0  0  0
 12  4  1  0  0  0  0
 15 28  1  0  0  0  0
 15 20  2  0  0  0  0
 16 20  1  0  0  0  0
 16 11  2  0  0  0  0
 17 13  1  0  0  0  0
 17  2  1  0  0  0  0
 18 19  1  6  0  0  0
 18  8  1  0  0  0  0
 20  3  1  0  0  0  0
 21  7  1  1  0  0  0
 21 13  1  0  0  0  0
 21 27  1  0  0  0  0
 22  2  1  0  0  0  0
 23 28  1  0  0  0  0
 23 10  2  0  0  0  0
 24  2  1  0  0  0  0
 25 18  1  0  0  0  0
 27 25  1  6  0  0  0
 27  1  1  0  0  0  0
 29 30  1  0  0  0  0
 30 23  1  0  0  0  0
 30 31  2  0  0  0  0
 33 34  2  0  0  0  0
 34 31  1  0  0  0  0
 34 32  1  0  0  0  0
 35 29  2  0  0  0  0
 35 33  1  0  0  0  0
 37 36  1  0  0  0  0
M  END
>  <MODEL>
6

>  <REMARK>
 VINA RESULT:      -3.8      3.659      8.711
  Name = 
  2 active torsions:
  status: ('A' for Active; 'I' for Inactive)
    1  A    between atoms: C_4  and  O_37
    2  A    between atoms: C_23  and  C_30
                            x       y       z     vdW  Elec       q    Type
                         _______ _______ _______ _____ _____    ______ ____

>  <TORSDO>
F 2

$$$$
