=
 OpenBabel11122412213D

 34 42  0  0  1  0  0  0  0  0999 V2000
  190.0410  177.4320  143.3070 C   0  0  0  0  0  0  0  0  0  0  0  0
  192.0300  177.1170  141.8060 C   0  0  0  0  0  3  0  0  0  0  0  0
  183.5480  178.7520  144.1410 C   0  0  1  0  0  0  0  0  0  0  0  0
  187.9750  177.8250  144.5660 C   0  0  0  0  0  0  0  0  0  0  0  0
  185.9620  178.2740  143.3210 C   0  0  0  0  0  0  0  0  0  0  0  0
  183.6950  178.7720  142.1920 C   0  0  2  0  0  3  0  0  0  0  0  0
  182.6320  178.9680  143.0670 O   0  0  0  0  0  0  0  0  0  0  0  0
  184.6550  178.4670  146.2940 C   0  0  0  0  0  3  0  0  0  0  0  0
  190.0050  177.5180  140.9450 C   0  0  0  0  0  0  0  0  0  0  0  0
  189.3150  176.4300  138.2130 C   0  0  0  0  0  3  0  0  0  0  0  0
  186.6660  178.1570  142.1980 O   0  0  0  0  0  0  0  0  0  0  0  0
  185.9220  178.2150  145.9210 C   0  0  0  0  0  2  0  0  0  0  0  0
  188.6330  177.7760  140.9280 C   0  0  0  0  0  0  0  0  0  0  0  0
  192.2230  177.1690  140.4890 C   0  0  0  0  0  3  0  0  0  0  0  0
  186.5930  178.1110  144.5820 C   0  0  0  0  0  0  0  0  0  0  0  0
  183.4770  178.7310  145.4570 C   0  0  0  0  0  3  0  0  0  0  0  0
  190.5200  176.4070  138.8050 C   0  0  0  0  0  0  0  0  0  0  0  0
  188.6530  177.7180  143.3330 C   0  0  0  0  0  0  0  0  0  0  0  0
  184.6720  178.5440  143.2110 C   0  0  0  0  0  0  0  0  0  0  0  0
  187.9690  177.8900  142.1700 C   0  0  0  0  0  0  0  0  0  0  0  0
  190.0730  177.3600  145.7260 C   0  0  0  0  0  3  0  0  0  0  0  0
  188.1940  177.3560  138.4920 C   0  0  0  0  0  3  0  0  0  0  0  0
  188.7040  177.6430  145.7560 C   0  0  0  0  0  3  0  0  0  0  0  0
  187.8910  177.9340  139.6610 C   0  0  0  0  0  3  0  0  0  0  0  0
  190.9240  177.4770  139.7810 C   0  0  1  0  0  3  0  0  0  0  0  0
  190.7430  177.2570  144.5060 C   0  0  0  0  0  3  0  0  0  0  0  0
  190.6610  177.3480  142.1000 N   0  0  0  0  0  0  0  0  0  0  0  0
  191.4540  175.4190  138.4640 O   0  0  0  0  0  0  0  0  0  0  0  0
  191.2860  174.5300  137.3660 C   0  0  0  0  0  2  0  0  0  0  0  0
  194.1140  176.1960  135.8510 C   0  0  0  0  0  2  0  0  0  0  0  0
  193.7740  174.4690  137.4890 C   0  0  0  0  0  2  0  0  0  0  0  0
  192.5730  174.4450  136.5680 C   0  0  0  0  0  3  0  0  0  0  0  0
  194.8480  175.1930  136.7150 C   0  0  0  0  0  2  0  0  0  0  0  0
  192.7060  175.6560  135.6650 C   0  0  0  0  0  2  0  0  0  0  0  0
  1 18  1  0  0  0  0
  1 26  2  0  0  0  0
  2 27  1  0  0  0  0
  3 16  1  6  0  0  0
  4 15  2  0  0  0  0
  4 23  1  0  0  0  0
  5 15  1  0  0  0  0
  6  7  1  6  0  0  0
  6 19  1  0  0  0  0
  6  3  1  0  0  0  0
  7  3  1  0  0  0  0
  9 27  1  0  0  0  0
 10 22  1  0  0  0  0
 10 17  2  0  0  0  0
 11  5  1  0  0  0  0
 12  8  1  0  0  0  0
 13  9  2  0  0  0  0
 13 20  1  0  0  0  0
 14  2  2  0  0  0  0
 15 12  1  0  0  0  0
 16  8  2  0  0  0  0
 17 25  1  0  0  0  0
 18  4  1  0  0  0  0
 19  5  2  0  0  0  0
 19  3  1  0  0  0  0
 20 11  1  0  0  0  0
 20 18  2  0  0  0  0
 21 23  2  0  0  0  0
 22 24  2  0  0  0  0
 24 13  1  0  0  0  0
 25 14  1  1  0  0  0
 25  9  1  0  0  0  0
 26 21  1  0  0  0  0
 27  1  1  0  0  0  0
 28 17  1  0  0  0  0
 29 28  1  0  0  0  0
 30 33  1  0  0  0  0
 32 29  1  0  0  0  0
 32 31  1  0  0  0  0
 33 31  1  0  0  0  0
 34 30  1  0  0  0  0
 34 32  1  0  0  0  0
M  END
>  <MODEL>
1

>  <REMARK>
 VINA RESULT:     -11.1      0.000      0.000
  Name = 
  3 active torsions:
  status: ('A' for Active; 'I' for Inactive)
    1  A    between atoms: C_17  and  O_28
    2  A    between atoms: O_28  and  C_29
    3  A    between atoms: C_29  and  C_32
                            x       y       z     vdW  Elec       q    Type
                         _______ _______ _______ _____ _____    ______ ____

>  <TORSDO>
F 3

$$$$
=
 OpenBabel11122412213D

 34 42  0  0  1  0  0  0  0  0999 V2000
  189.9910  177.4320  143.3240 C   0  0  0  0  0  0  0  0  0  0  0  0
  191.9990  177.1290  141.8450 C   0  0  0  0  0  3  0  0  0  0  0  0
  183.4890  178.7540  144.0870 C   0  0  2  0  0  0  0  0  0  0  0  0
  187.9090  177.8160  144.5600 C   0  0  0  0  0  0  0  0  0  0  0  0
  185.9130  178.2810  143.2930 C   0  0  0  0  0  0  0  0  0  0  0  0
  183.6620  178.7940  142.1400 C   0  0  2  0  0  3  0  0  0  0  0  0
  182.5880  178.9830  143.0030 O   0  0  0  0  0  0  0  0  0  0  0  0
  184.5680  178.4460  146.2500 C   0  0  0  0  0  3  0  0  0  0  0  0
  189.9850  177.5420  140.9620 C   0  0  0  0  0  0  0  0  0  0  0  0
  189.3290  176.4830  138.2100 C   0  0  0  0  0  3  0  0  0  0  0  0
  186.6320  178.1740  142.1780 O   0  0  0  0  0  0  0  0  0  0  0  0
  185.8390  178.1950  145.8910 C   0  0  0  0  0  2  0  0  0  0  0  0
  188.6140  177.8030  140.9300 C   0  0  0  0  0  0  0  0  0  0  0  0
  192.2090  177.1940  140.5310 C   0  0  0  0  0  3  0  0  0  0  0  0
  186.5280  178.1040  144.5610 C   0  0  0  0  0  0  0  0  0  0  0  0
  183.4020  178.7210  145.4010 C   0  0  0  0  0  3  0  0  0  0  0  0
  190.5270  176.4520  138.8180 C   0  0  0  0  0  0  0  0  0  0  0  0
  188.6030  177.7200  143.3340 C   0  0  0  0  0  0  0  0  0  0  0  0
  184.6250  178.5540  143.1690 C   0  0  0  0  0  0  0  0  0  0  0  0
  187.9340  177.9050  142.1650 C   0  0  0  0  0  0  0  0  0  0  0  0
  189.9910  177.3360  145.7410 C   0  0  0  0  0  3  0  0  0  0  0  0
  188.2060  177.4080  138.4840 C   0  0  0  0  0  3  0  0  0  0  0  0
  188.6220  177.6210  145.7570 C   0  0  0  0  0  3  0  0  0  0  0  0
  187.8890  177.9750  139.6550 C   0  0  0  0  0  3  0  0  0  0  0  0
  190.9200  177.5110  139.8100 C   0  0  1  0  0  3  0  0  0  0  0  0
  190.6770  177.2440  144.5290 C   0  0  0  0  0  3  0  0  0  0  0  0
  190.6270  177.3590  142.1240 N   0  0  0  0  0  0  0  0  0  0  0  0
  191.4640  175.4660  138.4790 O   0  0  0  0  0  0  0  0  0  0  0  0
  192.4070  175.6130  137.4240 C   0  0  0  0  0  2  0  0  0  0  0  0
  189.9520  173.5170  135.7960 C   0  0  0  0  0  2  0  0  0  0  0  0
  191.2170  175.4850  135.2380 C   0  0  0  0  0  2  0  0  0  0  0  0
  192.0260  174.7160  136.2610 C   0  0  0  0  0  3  0  0  0  0  0  0
  190.2510  174.4770  134.6640 C   0  0  0  0  0  2  0  0  0  0  0  0
  191.1360  173.5870  136.7460 C   0  0  0  0  0  2  0  0  0  0  0  0
  1 18  1  0  0  0  0
  1 26  2  0  0  0  0
  2 27  1  0  0  0  0
  3 16  1  1  0  0  0
  4 15  2  0  0  0  0
  4 23  1  0  0  0  0
  5 15  1  0  0  0  0
  6  7  1  6  0  0  0
  6 19  1  0  0  0  0
  6  3  1  0  0  0  0
  7  3  1  0  0  0  0
  9 27  1  0  0  0  0
 10 22  1  0  0  0  0
 10 17  2  0  0  0  0
 11  5  1  0  0  0  0
 12  8  1  0  0  0  0
 13  9  2  0  0  0  0
 13 20  1  0  0  0  0
 14  2  2  0  0  0  0
 15 12  1  0  0  0  0
 16  8  2  0  0  0  0
 17 25  1  0  0  0  0
 18  4  1  0  0  0  0
 19  5  2  0  0  0  0
 19  3  1  0  0  0  0
 20 11  1  0  0  0  0
 20 18  2  0  0  0  0
 21 23  2  0  0  0  0
 22 24  2  0  0  0  0
 24 13  1  0  0  0  0
 25 14  1  1  0  0  0
 25  9  1  0  0  0  0
 26 21  1  0  0  0  0
 27  1  1  0  0  0  0
 28 17  1  0  0  0  0
 29 28  1  0  0  0  0
 30 34  1  0  0  0  0
 31 32  1  0  0  0  0
 32 34  1  0  0  0  0
 32 29  1  0  0  0  0
 33 31  1  0  0  0  0
 33 30  1  0  0  0  0
M  END
>  <MODEL>
2

>  <REMARK>
 VINA RESULT:     -10.9      0.768      1.474
  Name = 
  3 active torsions:
  status: ('A' for Active; 'I' for Inactive)
    1  A    between atoms: C_17  and  O_28
    2  A    between atoms: O_28  and  C_29
    3  A    between atoms: C_29  and  C_32
                            x       y       z     vdW  Elec       q    Type
                         _______ _______ _______ _____ _____    ______ ____

>  <TORSDO>
F 3

$$$$
=
 OpenBabel11122412213D

 34 42  0  0  1  0  0  0  0  0999 V2000
  189.5490  177.4320  141.3560 C   0  0  0  0  0  0  0  0  0  0  0  0
  190.2660  177.4180  138.9490 C   0  0  0  0  0  3  0  0  0  0  0  0
  184.9340  178.6310  146.0340 C   0  0  2  0  0  0  0  0  0  0  0  0
  188.6420  177.5750  143.6300 C   0  0  0  0  0  0  0  0  0  0  0  0
  186.3620  178.3070  143.8920 C   0  0  0  0  0  0  0  0  0  0  0  0
  183.9490  179.0660  144.4020 C   0  0  1  0  0  3  0  0  0  0  0  0
  183.6110  179.0850  145.7520 O   0  0  0  0  0  0  0  0  0  0  0  0
  187.0180  177.8770  147.0480 C   0  0  0  0  0  3  0  0  0  0  0  0
  188.1870  178.0230  139.5160 C   0  0  0  0  0  0  0  0  0  0  0  0
  185.9260  177.5540  137.5690 C   0  0  0  0  0  3  0  0  0  0  0  0
  186.2790  178.4240  142.5690 O   0  0  0  0  0  0  0  0  0  0  0  0
  187.8000  177.6940  145.9700 C   0  0  0  0  0  2  0  0  0  0  0  0
  187.1000  178.2970  140.3470 C   0  0  0  0  0  0  0  0  0  0  0  0
  189.6800  177.7490  137.7990 C   0  0  0  0  0  3  0  0  0  0  0  0
  187.5690  177.8690  144.4970 C   0  0  0  0  0  0  0  0  0  0  0  0
  185.6230  178.3310  147.1160 C   0  0  0  0  0  3  0  0  0  0  0  0
  187.2380  177.3880  137.3310 C   0  0  0  0  0  0  0  0  0  0  0  0
  188.4760  177.7250  142.2360 C   0  0  0  0  0  0  0  0  0  0  0  0
  185.2890  178.6120  144.6030 C   0  0  0  0  0  0  0  0  0  0  0  0
  187.2830  178.1510  141.7410 C   0  0  0  0  0  0  0  0  0  0  0  0
  190.9400  176.8440  143.2470 C   0  0  0  0  0  3  0  0  0  0  0  0
  185.3010  178.4140  138.5990 C   0  0  0  0  0  3  0  0  0  0  0  0
  189.8850  177.1320  144.1180 C   0  0  0  0  0  3  0  0  0  0  0  0
  185.8000  178.7330  139.8010 C   0  0  0  0  0  3  0  0  0  0  0  0
  188.2660  178.2180  138.0470 C   0  0  1  0  0  3  0  0  0  0  0  0
  190.7750  176.9950  141.8690 C   0  0  0  0  0  3  0  0  0  0  0  0
  189.3540  177.6000  140.0210 N   0  0  0  0  0  0  0  0  0  0  0  0
  187.6670  176.4830  136.3500 O   0  0  0  0  0  0  0  0  0  0  0  0
  187.4710  175.0770  136.4440 C   0  0  0  0  0  2  0  0  0  0  0  0
  190.9430  175.1900  135.4440 C   0  0  0  0  0  2  0  0  0  0  0  0
  189.6430  174.0670  137.1270 C   0  0  0  0  0  2  0  0  0  0  0  0
  188.7130  174.3490  135.9670 C   0  0  0  0  0  3  0  0  0  0  0  0
  191.0340  174.1560  136.5450 C   0  0  0  0  0  2  0  0  0  0  0  0
  189.4900  175.2240  135.0010 C   0  0  0  0  0  2  0  0  0  0  0  0
  1 26  2  0  0  0  0
  1 18  1  0  0  0  0
  2 27  1  0  0  0  0
  3 16  1  1  0  0  0
  4 23  1  0  0  0  0
  4 15  2  0  0  0  0
  5 15  1  0  0  0  0
  5 19  2  0  0  0  0
  6 19  1  1  0  0  0
  6  7  1  0  0  0  0
  6  3  1  0  0  0  0
  7  3  1  0  0  0  0
  8 16  2  0  0  0  0
  9 27  1  0  0  0  0
  9 13  2  0  0  0  0
 10 22  1  0  0  0  0
 11  5  1  0  0  0  0
 12  8  1  0  0  0  0
 13 20  1  0  0  0  0
 14  2  2  0  0  0  0
 15 12  1  0  0  0  0
 17 10  2  0  0  0  0
 17 25  1  0  0  0  0
 18  4  1  0  0  0  0
 19  3  1  0  0  0  0
 20 18  2  0  0  0  0
 20 11  1  0  0  0  0
 21 23  2  0  0  0  0
 22 24  2  0  0  0  0
 24 13  1  0  0  0  0
 25 14  1  6  0  0  0
 25  9  1  0  0  0  0
 26 21  1  0  0  0  0
 27  1  1  0  0  0  0
 28 29  1  0  0  0  0
 28 17  1  0  0  0  0
 30 33  1  0  0  0  0
 32 29  1  0  0  0  0
 32 31  1  0  0  0  0
 33 31  1  0  0  0  0
 34 30  1  0  0  0  0
 34 32  1  0  0  0  0
M  END
>  <MODEL>
3

>  <REMARK>
 VINA RESULT:     -10.8      1.783      2.792
  Name = 
  3 active torsions:
  status: ('A' for Active; 'I' for Inactive)
    1  A    between atoms: C_17  and  O_28
    2  A    between atoms: O_28  and  C_29
    3  A    between atoms: C_29  and  C_32
                            x       y       z     vdW  Elec       q    Type
                         _______ _______ _______ _____ _____    ______ ____

>  <TORSDO>
F 3

$$$$
=
 OpenBabel11122412213D

 34 42  0  0  1  0  0  0  0  0999 V2000
  189.5940  177.5010  141.1300 C   0  0  0  0  0  0  0  0  0  0  0  0
  189.8430  177.6850  138.6380 C   0  0  0  0  0  3  0  0  0  0  0  0
  185.9490  178.2680  146.6740 C   0  0  2  0  0  0  0  0  0  0  0  0
  189.1330  177.4540  143.5370 C   0  0  0  0  0  0  0  0  0  0  0  0
  186.9450  178.1320  144.2820 C   0  0  0  0  0  0  0  0  0  0  0  0
  184.6730  178.8160  145.2970 C   0  0  2  0  0  3  0  0  0  0  0  0
  184.5960  178.7250  146.6830 O   0  0  0  0  0  0  0  0  0  0  0  0
  188.1860  177.4650  147.2140 C   0  0  0  0  0  3  0  0  0  0  0  0
  187.9090  178.2150  139.6320 C   0  0  0  0  0  0  0  0  0  0  0  0
  185.3200  177.8690  138.1160 C   0  0  0  0  0  3  0  0  0  0  0  0
  186.6130  178.3510  143.0120 O   0  0  0  0  0  0  0  0  0  0  0  0
  188.7490  177.3780  145.9970 C   0  0  0  0  0  2  0  0  0  0  0  0
  186.9990  178.4090  140.6730 C   0  0  0  0  0  0  0  0  0  0  0  0
  189.0510  178.0960  137.6480 C   0  0  0  0  0  3  0  0  0  0  0  0
  188.2440  177.6650  144.6130 C   0  0  0  0  0  0  0  0  0  0  0  0
  186.8290  177.8940  147.5790 C   0  0  0  0  0  3  0  0  0  0  0  0
  186.5630  177.7400  137.6220 C   0  0  0  0  0  0  0  0  0  0  0  0
  188.7070  177.7100  142.2170 C   0  0  0  0  0  0  0  0  0  0  0  0
  186.0260  178.3660  145.2050 C   0  0  0  0  0  0  0  0  0  0  0  0
  187.4430  178.1570  141.9900 C   0  0  0  0  0  0  0  0  0  0  0  0
  191.3160  176.7860  142.6710 C   0  0  0  0  0  3  0  0  0  0  0  0
  184.9030  178.6370  139.3100 C   0  0  0  0  0  3  0  0  0  0  0  0
  190.4460  176.9910  143.7460 C   0  0  0  0  0  3  0  0  0  0  0  0
  185.6200  178.8680  140.4170 C   0  0  0  0  0  3  0  0  0  0  0  0
  187.7100  178.5260  138.1950 C   0  0  1  0  0  3  0  0  0  0  0  0
  190.8950  177.0420  141.3660 C   0  0  0  0  0  3  0  0  0  0  0  0
  189.1500  177.7700  139.8730 N   0  0  0  0  0  0  0  0  0  0  0  0
  186.7980  176.9210  136.5090 O   0  0  0  0  0  0  0  0  0  0  0  0
  186.2920  175.5960  136.3930 C   0  0  0  0  0  2  0  0  0  0  0  0
  187.7150  172.3050  136.8520 C   0  0  0  0  0  2  0  0  0  0  0  0
  188.5390  174.5550  136.6640 C   0  0  0  0  0  2  0  0  0  0  0  0
  187.1350  174.6460  137.2220 C   0  0  0  0  0  3  0  0  0  0  0  0
  188.9770  173.1350  136.9310 C   0  0  0  0  0  2  0  0  0  0  0  0
  186.5590  173.2440  137.1530 C   0  0  0  0  0  2  0  0  0  0  0  0
  1 26  2  0  0  0  0
  1 18  1  0  0  0  0
  2 27  1  0  0  0  0
  3  7  1  0  0  0  0
  3 16  1  1  0  0  0
  4 23  1  0  0  0  0
  4 15  2  0  0  0  0
  5 15  1  0  0  0  0
  5 19  2  0  0  0  0
  6 19  1  6  0  0  0
  6  3  1  0  0  0  0
  6  7  1  0  0  0  0
  8 16  2  0  0  0  0
  9 27  1  0  0  0  0
  9 13  2  0  0  0  0
 10 22  1  0  0  0  0
 11  5  1  0  0  0  0
 12  8  1  0  0  0  0
 13 20  1  0  0  0  0
 14  2  2  0  0  0  0
 15 12  1  0  0  0  0
 17 10  2  0  0  0  0
 17 25  1  0  0  0  0
 18  4  1  0  0  0  0
 19  3  1  0  0  0  0
 20 18  2  0  0  0  0
 20 11  1  0  0  0  0
 21 23  2  0  0  0  0
 22 24  2  0  0  0  0
 24 13  1  0  0  0  0
 25 14  1  6  0  0  0
 25  9  1  0  0  0  0
 26 21  1  0  0  0  0
 27  1  1  0  0  0  0
 28 17  1  0  0  0  0
 29 28  1  0  0  0  0
 29 32  1  0  0  0  0
 30 33  1  0  0  0  0
 30 34  1  0  0  0  0
 31 33  1  0  0  0  0
 31 32  1  0  0  0  0
 34 32  1  0  0  0  0
M  END
>  <MODEL>
4

>  <REMARK>
 VINA RESULT:     -10.8      2.538      3.854
  Name = 
  3 active torsions:
  status: ('A' for Active; 'I' for Inactive)
    1  A    between atoms: C_17  and  O_28
    2  A    between atoms: O_28  and  C_29
    3  A    between atoms: C_29  and  C_32
                            x       y       z     vdW  Elec       q    Type
                         _______ _______ _______ _____ _____    ______ ____

>  <TORSDO>
F 3

$$$$
=
 OpenBabel11122412213D

 34 42  0  0  1  0  0  0  0  0999 V2000
  187.9470  177.8500  140.9600 C   0  0  0  0  0  0  0  0  0  0  0  0
  186.2950  178.5000  139.1830 C   0  0  0  0  0  3  0  0  0  0  0  0
  189.6060  177.2390  147.4010 C   0  0  1  0  0  0  0  0  0  0  0  0
  189.4010  177.3270  142.8630 C   0  0  0  0  0  0  0  0  0  0  0  0
  188.5130  177.6340  145.0810 C   0  0  0  0  0  0  0  0  0  0  0  0
  187.7670  177.8890  147.5380 C   0  0  1  0  0  3  0  0  0  0  0  0
  188.7280  177.5460  148.4840 O   0  0  0  0  0  0  0  0  0  0  0  0
  191.4630  176.5870  145.9640 C   0  0  0  0  0  3  0  0  0  0  0  0
  185.7530  178.6430  141.3490 C   0  0  0  0  0  0  0  0  0  0  0  0
  182.8690  178.3090  142.1790 C   0  0  0  0  0  3  0  0  0  0  0  0
  187.3700  178.0400  144.5350 O   0  0  0  0  0  0  0  0  0  0  0  0
  190.9440  176.7750  144.7380 C   0  0  0  0  0  2  0  0  0  0  0  0
  185.9150  178.5540  142.7330 C   0  0  0  0  0  0  0  0  0  0  0  0
  185.0590  178.9970  139.1940 C   0  0  0  0  0  3  0  0  0  0  0  0
  189.6040  177.2510  144.2570 C   0  0  0  0  0  0  0  0  0  0  0  0
  190.8420  176.8010  147.2780 C   0  0  0  0  0  3  0  0  0  0  0  0
  183.3370  178.3980  140.9240 C   0  0  0  0  0  0  0  0  0  0  0  0
  188.1590  177.7690  142.3600 C   0  0  0  0  0  0  0  0  0  0  0  0
  188.5850  177.6040  146.4020 C   0  0  0  0  0  0  0  0  0  0  0  0
  187.1670  178.1180  143.2220 C   0  0  0  0  0  0  0  0  0  0  0  0
  190.1970  177.0520  140.5710 C   0  0  0  0  0  3  0  0  0  0  0  0
  183.5130  178.8060  143.4160 C   0  0  0  0  0  3  0  0  0  0  0  0
  190.4120  176.9720  141.9510 C   0  0  0  0  0  3  0  0  0  0  0  0
  184.8250  178.9070  143.6630 C   0  0  0  0  0  3  0  0  0  0  0  0
  184.5820  179.1830  140.6150 C   0  0  1  0  0  3  0  0  0  0  0  0
  188.9700  177.4920  140.0750 C   0  0  0  0  0  3  0  0  0  0  0  0
  186.7410  178.2920  140.5140 N   0  0  0  0  0  0  0  0  0  0  0  0
  182.6270  177.8190  139.8630 O   0  0  0  0  0  0  0  0  0  0  0  0
  181.2090  177.6920  139.8490 C   0  0  0  0  0  2  0  0  0  0  0  0
  180.9500  181.1810  138.9380 C   0  0  0  0  0  2  0  0  0  0  0  0
  181.5500  179.1270  137.8410 C   0  0  0  0  0  2  0  0  0  0  0  0
  180.6030  178.7660  138.9650 C   0  0  0  0  0  3  0  0  0  0  0  0
  181.3190  180.5980  137.5910 C   0  0  0  0  0  2  0  0  0  0  0  0
  180.3880  180.0370  139.7650 C   0  0  0  0  0  2  0  0  0  0  0  0
  1 18  1  0  0  0  0
  2 14  2  0  0  0  0
  2 27  1  0  0  0  0
  3 16  1  6  0  0  0
  3  6  1  0  0  0  0
  3  7  1  0  0  0  0
  4 15  2  0  0  0  0
  5 19  2  0  0  0  0
  6 19  1  1  0  0  0
  6  7  1  0  0  0  0
  8 16  2  0  0  0  0
  9 13  2  0  0  0  0
 10 22  1  0  0  0  0
 11  5  1  0  0  0  0
 12  8  1  0  0  0  0
 13 20  1  0  0  0  0
 13 24  1  0  0  0  0
 15 12  1  0  0  0  0
 15  5  1  0  0  0  0
 17 10  2  0  0  0  0
 18  4  1  0  0  0  0
 18 20  2  0  0  0  0
 19  3  1  0  0  0  0
 20 11  1  0  0  0  0
 21 23  2  0  0  0  0
 22 24  2  0  0  0  0
 23  4  1  0  0  0  0
 25 14  1  6  0  0  0
 25 17  1  0  0  0  0
 25  9  1  0  0  0  0
 26 21  1  0  0  0  0
 26  1  2  0  0  0  0
 27  1  1  0  0  0  0
 27  9  1  0  0  0  0
 28 17  1  0  0  0  0
 29 28  1  0  0  0  0
 30 34  1  0  0  0  0
 31 32  1  0  0  0  0
 32 34  1  0  0  0  0
 32 29  1  0  0  0  0
 33 31  1  0  0  0  0
 33 30  1  0  0  0  0
M  END
>  <MODEL>
5

>  <REMARK>
 VINA RESULT:     -10.6      3.123      7.630
  Name = 
  3 active torsions:
  status: ('A' for Active; 'I' for Inactive)
    1  A    between atoms: C_17  and  O_28
    2  A    between atoms: O_28  and  C_29
    3  A    between atoms: C_29  and  C_32
                            x       y       z     vdW  Elec       q    Type
                         _______ _______ _______ _____ _____    ______ ____

>  <TORSDO>
F 3

$$$$
=
 OpenBabel11122412213D

 34 42  0  0  1  0  0  0  0  0999 V2000
  189.8190  177.5030  141.3820 C   0  0  0  0  0  0  0  0  0  0  0  0
  189.8710  177.7350  138.8820 C   0  0  0  0  0  3  0  0  0  0  0  0
  186.6300  178.1750  147.2110 C   0  0  1  0  0  0  0  0  0  0  0  0
  189.5510  177.4100  143.8170 C   0  0  0  0  0  0  0  0  0  0  0  0
  187.4320  178.0820  144.7460 C   0  0  0  0  0  0  0  0  0  0  0  0
  185.2520  178.7540  145.9520 C   0  0  2  0  0  3  0  0  0  0  0  0
  185.2850  178.6360  147.3370 O   0  0  0  0  0  0  0  0  0  0  0  0
  188.8980  177.3520  147.5570 C   0  0  0  0  0  3  0  0  0  0  0  0
  188.0250  178.2530  140.0360 C   0  0  0  0  0  0  0  0  0  0  0  0
  185.3220  177.9480  138.7240 C   0  0  0  0  0  3  0  0  0  0  0  0
  187.0020  178.3270  143.5110 O   0  0  0  0  0  0  0  0  0  0  0  0
  189.3630  177.2860  146.2970 C   0  0  0  0  0  2  0  0  0  0  0  0
  187.2020  178.4300  141.1500 C   0  0  0  0  0  0  0  0  0  0  0  0
  189.0050  178.1690  137.9660 C   0  0  0  0  0  3  0  0  0  0  0  0
  188.7510  177.6030  144.9630 C   0  0  0  0  0  0  0  0  0  0  0  0
  187.5770  177.7790  148.0370 C   0  0  0  0  0  3  0  0  0  0  0  0
  186.5210  177.8240  138.1310 C   0  0  0  0  0  0  0  0  0  0  0  0
  189.0230  177.6930  142.5390 C   0  0  0  0  0  0  0  0  0  0  0  0
  186.5910  178.3010  145.7430 C   0  0  0  0  0  0  0  0  0  0  0  0
  187.7470  178.1500  142.4230 C   0  0  0  0  0  0  0  0  0  0  0  0
  191.6540  176.7510  142.7670 C   0  0  0  0  0  3  0  0  0  0  0  0
  185.0050  178.6940  139.9630 C   0  0  0  0  0  3  0  0  0  0  0  0
  190.8730  176.9380  143.9110 C   0  0  0  0  0  3  0  0  0  0  0  0
  185.8090  178.9000  141.0140 C   0  0  0  0  0  3  0  0  0  0  0  0
  187.7140  178.5930  138.6260 C   0  0  1  0  0  3  0  0  0  0  0  0
  191.1320  177.0340  141.5050 C   0  0  0  0  0  3  0  0  0  0  0  0
  189.2790  177.7990  140.1700 N   0  0  0  0  0  0  0  0  0  0  0  0
  186.6620  177.0260  136.9870 O   0  0  0  0  0  0  0  0  0  0  0  0
  185.5810  176.7050  136.1190 C   0  0  0  0  0  2  0  0  0  0  0  0
  186.5490  173.4110  137.2520 C   0  0  0  0  0  2  0  0  0  0  0  0
  184.5380  174.7290  137.2210 C   0  0  0  0  0  2  0  0  0  0  0  0
  185.3920  175.2010  136.0640 C   0  0  0  0  0  3  0  0  0  0  0  0
  185.0700  173.3590  137.5680 C   0  0  0  0  0  2  0  0  0  0  0  0
  186.7300  174.5020  136.2100 C   0  0  0  0  0  2  0  0  0  0  0  0
  1 26  2  0  0  0  0
  1 18  1  0  0  0  0
  2 27  1  0  0  0  0
  3  7  1  0  0  0  0
  3 16  1  6  0  0  0
  4 23  1  0  0  0  0
  4 15  2  0  0  0  0
  5 15  1  0  0  0  0
  5 19  2  0  0  0  0
  6 19  1  6  0  0  0
  6  3  1  0  0  0  0
  6  7  1  0  0  0  0
  8 16  2  0  0  0  0
  9 27  1  0  0  0  0
  9 13  2  0  0  0  0
 10 22  1  0  0  0  0
 11  5  1  0  0  0  0
 12  8  1  0  0  0  0
 13 20  1  0  0  0  0
 14  2  2  0  0  0  0
 15 12  1  0  0  0  0
 17 25  1  0  0  0  0
 17 10  2  0  0  0  0
 18  4  1  0  0  0  0
 19  3  1  0  0  0  0
 20 18  2  0  0  0  0
 20 11  1  0  0  0  0
 21 23  2  0  0  0  0
 22 24  2  0  0  0  0
 24 13  1  0  0  0  0
 25 14  1  6  0  0  0
 25  9  1  0  0  0  0
 26 21  1  0  0  0  0
 27  1  1  0  0  0  0
 28 17  1  0  0  0  0
 29 28  1  0  0  0  0
 30 33  1  0  0  0  0
 31 33  1  0  0  0  0
 32 29  1  0  0  0  0
 32 34  1  0  0  0  0
 32 31  1  0  0  0  0
 34 30  1  0  0  0  0
M  END
>  <MODEL>
6

>  <REMARK>
 VINA RESULT:     -10.6      2.732      4.545
  Name = 
  3 active torsions:
  status: ('A' for Active; 'I' for Inactive)
    1  A    between atoms: C_17  and  O_28
    2  A    between atoms: O_28  and  C_29
    3  A    between atoms: C_29  and  C_32
                            x       y       z     vdW  Elec       q    Type
                         _______ _______ _______ _____ _____    ______ ____

>  <TORSDO>
F 3

$$$$
=
 OpenBabel11122412213D

 34 42  0  0  1  0  0  0  0  0999 V2000
  183.7990  178.6360  143.7860 C   0  0  0  0  0  0  0  0  0  0  0  0
  181.5820  179.0020  142.6650 C   0  0  0  0  0  3  0  0  0  0  0  0
  190.3310  177.2860  143.4370 C   0  0  1  0  0  0  0  0  0  0  0  0
  186.0500  178.2000  144.6540 C   0  0  0  0  0  0  0  0  0  0  0  0
  187.8140  177.7920  143.0640 C   0  0  0  0  0  0  0  0  0  0  0  0
  189.8470  177.3310  141.5440 C   0  0  2  0  0  3  0  0  0  0  0  0
  191.0450  177.1050  142.2140 O   0  0  0  0  0  0  0  0  0  0  0  0
  189.6150  177.5010  145.7570 C   0  0  0  0  0  3  0  0  0  0  0  0
  183.4250  178.6280  141.4520 C   0  0  0  0  0  0  0  0  0  0  0  0
  183.6370  179.8050  138.6790 C   0  0  0  0  0  3  0  0  0  0  0  0
  186.9260  177.9460  142.0850 O   0  0  0  0  0  0  0  0  0  0  0  0
  188.3050  177.7650  145.6180 C   0  0  0  0  0  2  0  0  0  0  0  0
  184.7720  178.3700  141.1890 C   0  0  0  0  0  0  0  0  0  0  0  0
  181.1630  178.9930  141.4000 C   0  0  0  0  0  3  0  0  0  0  0  0
  187.4120  177.9140  144.4210 C   0  0  0  0  0  0  0  0  0  0  0  0
  190.6280  177.2630  144.7200 C   0  0  0  0  0  3  0  0  0  0  0  0
  182.5530  179.8090  139.4710 C   0  0  0  0  0  0  0  0  0  0  0  0
  185.1690  178.3490  143.5620 C   0  0  0  0  0  0  0  0  0  0  0  0
  189.0640  177.5250  142.7230 C   0  0  0  0  0  0  0  0  0  0  0  0
  185.6400  178.2150  142.2930 C   0  0  0  0  0  0  0  0  0  0  0  0
  184.1880  178.6280  146.1740 C   0  0  0  0  0  3  0  0  0  0  0  0
  184.7840  178.8700  138.7290 C   0  0  0  0  0  3  0  0  0  0  0  0
  185.5400  178.3440  145.9580 C   0  0  0  0  0  3  0  0  0  0  0  0
  185.2810  178.2530  139.8080 C   0  0  0  0  0  3  0  0  0  0  0  0
  182.3180  178.7080  140.4680 C   0  0  1  0  0  3  0  0  0  0  0  0
  183.3180  178.7720  145.0940 C   0  0  0  0  0  3  0  0  0  0  0  0
  182.9800  178.7600  142.7090 N   0  0  0  0  0  0  0  0  0  0  0  0
  181.5800  180.8080  139.3300 O   0  0  0  0  0  0  0  0  0  0  0  0
  181.7880  182.0010  138.5830 C   0  0  0  0  0  2  0  0  0  0  0  0
  180.6960  183.2600  135.3750 C   0  0  0  0  0  2  0  0  0  0  0  0
  180.8050  181.1220  136.4690 C   0  0  0  0  0  2  0  0  0  0  0  0
  180.6830  182.1670  137.5560 C   0  0  0  0  0  3  0  0  0  0  0  0
  180.3190  181.8030  135.2120 C   0  0  0  0  0  2  0  0  0  0  0  0
  180.8110  183.5130  136.8680 C   0  0  0  0  0  2  0  0  0  0  0  0
  1 26  2  0  0  0  0
  2 27  1  0  0  0  0
  3 16  1  6  0  0  0
  4 23  1  0  0  0  0
  5 15  1  0  0  0  0
  6  7  1  6  0  0  0
  6 19  1  0  0  0  0
  6  3  1  0  0  0  0
  7  3  1  0  0  0  0
  9 27  1  0  0  0  0
 10 22  1  0  0  0  0
 10 17  2  0  0  0  0
 11 20  1  0  0  0  0
 11  5  1  0  0  0  0
 12  8  1  0  0  0  0
 13  9  2  0  0  0  0
 13 20  1  0  0  0  0
 14  2  2  0  0  0  0
 15  4  2  0  0  0  0
 15 12  1  0  0  0  0
 16  8  2  0  0  0  0
 17 25  1  0  0  0  0
 18  1  1  0  0  0  0
 18  4  1  0  0  0  0
 19  5  2  0  0  0  0
 19  3  1  0  0  0  0
 20 18  2  0  0  0  0
 22 24  2  0  0  0  0
 23 21  2  0  0  0  0
 24 13  1  0  0  0  0
 25 14  1  1  0  0  0
 25  9  1  0  0  0  0
 26 21  1  0  0  0  0
 27  1  1  0  0  0  0
 28 17  1  0  0  0  0
 29 28  1  0  0  0  0
 30 34  1  0  0  0  0
 31 32  1  0  0  0  0
 32 29  1  0  0  0  0
 33 30  1  0  0  0  0
 33 31  1  0  0  0  0
 34 32  1  0  0  0  0
M  END
>  <MODEL>
7

>  <REMARK>
 VINA RESULT:     -10.5      3.771      8.405
  Name = 
  3 active torsions:
  status: ('A' for Active; 'I' for Inactive)
    1  A    between atoms: C_17  and  O_28
    2  A    between atoms: O_28  and  C_29
    3  A    between atoms: C_29  and  C_32
                            x       y       z     vdW  Elec       q    Type
                         _______ _______ _______ _____ _____    ______ ____

>  <TORSDO>
F 3

$$$$
=
 OpenBabel11122412213D

 34 42  0  0  1  0  0  0  0  0999 V2000
  188.1580  177.7840  140.8990 C   0  0  0  0  0  0  0  0  0  0  0  0
  186.5530  178.4150  139.0730 C   0  0  0  0  0  3  0  0  0  0  0  0
  189.6480  177.2310  147.3860 C   0  0  2  0  0  0  0  0  0  0  0  0
  189.5630  177.2810  142.8440 C   0  0  0  0  0  0  0  0  0  0  0  0
  188.6160  177.6040  145.0350 C   0  0  0  0  0  0  0  0  0  0  0  0
  187.8050  177.8780  147.4700 C   0  0  1  0  0  3  0  0  0  0  0  0
  188.7410  177.5450  148.4430 O   0  0  0  0  0  0  0  0  0  0  0  0
  191.5440  176.5710  146.0040 C   0  0  0  0  0  3  0  0  0  0  0  0
  185.9540  178.5750  141.2230 C   0  0  0  0  0  0  0  0  0  0  0  0
  183.0490  178.2410  141.9790 C   0  0  0  0  0  3  0  0  0  0  0  0
  187.4870  178.0030  144.4550 O   0  0  0  0  0  0  0  0  0  0  0  0
  191.0570  176.7480  144.7640 C   0  0  0  0  0  2  0  0  0  0  0  0
  186.0790  178.4980  142.6110 C   0  0  0  0  0  0  0  0  0  0  0  0
  185.3160  178.9090  139.0470 C   0  0  0  0  0  3  0  0  0  0  0  0
  189.7290  177.2170  144.2440 C   0  0  0  0  0  0  0  0  0  0  0  0
  190.8880  176.7960  147.2990 C   0  0  0  0  0  3  0  0  0  0  0  0
  183.5500  178.3210  140.7360 C   0  0  0  0  0  0  0  0  0  0  0  0
  188.3340  177.7160  142.3040 C   0  0  0  0  0  0  0  0  0  0  0  0
  188.6530  177.5850  146.3570 C   0  0  0  0  0  0  0  0  0  0  0  0
  187.3190  178.0690  143.1370 C   0  0  0  0  0  0  0  0  0  0  0  0
  190.4210  176.9880  140.5770 C   0  0  0  0  0  3  0  0  0  0  0  0
  183.6590  178.7490  143.2290 C   0  0  0  0  0  3  0  0  0  0  0  0
  190.5990  176.9200  141.9620 C   0  0  0  0  0  3  0  0  0  0  0  0
  184.9640  178.8560  143.5090 C   0  0  0  0  0  3  0  0  0  0  0  0
  184.8020  179.1060  140.4540 C   0  0  1  0  0  3  0  0  0  0  0  0
  189.2050  177.4210  140.0440 C   0  0  0  0  0  3  0  0  0  0  0  0
  186.9640  178.2190  140.4170 N   0  0  0  0  0  0  0  0  0  0  0  0
  182.8700  177.7310  139.6620 O   0  0  0  0  0  0  0  0  0  0  0  0
  182.6410  176.3300  139.5560 C   0  0  0  0  0  2  0  0  0  0  0  0
  183.7310  176.9000  136.1570 C   0  0  0  0  0  2  0  0  0  0  0  0
  183.8540  175.1080  137.7560 C   0  0  0  0  0  2  0  0  0  0  0  0
  182.6220  175.9180  138.0960 C   0  0  0  0  0  3  0  0  0  0  0  0
  184.1740  175.4620  136.3230 C   0  0  0  0  0  2  0  0  0  0  0  0
  182.6630  177.1480  137.2090 C   0  0  0  0  0  2  0  0  0  0  0  0
  1 18  1  0  0  0  0
  2 27  1  0  0  0  0
  3 16  1  1  0  0  0
  3  6  1  0  0  0  0
  3  7  1  0  0  0  0
  4 15  2  0  0  0  0
  5 19  2  0  0  0  0
  6 19  1  1  0  0  0
  6  7  1  0  0  0  0
  8 16  2  0  0  0  0
  9 13  2  0  0  0  0
 10 22  1  0  0  0  0
 11  5  1  0  0  0  0
 12  8  1  0  0  0  0
 13 20  1  0  0  0  0
 13 24  1  0  0  0  0
 14  2  2  0  0  0  0
 15 12  1  0  0  0  0
 15  5  1  0  0  0  0
 17 10  2  0  0  0  0
 18  4  1  0  0  0  0
 18 20  2  0  0  0  0
 19  3  1  0  0  0  0
 20 11  1  0  0  0  0
 21 23  2  0  0  0  0
 22 24  2  0  0  0  0
 23  4  1  0  0  0  0
 25 14  1  6  0  0  0
 25 17  1  0  0  0  0
 25  9  1  0  0  0  0
 26 21  1  0  0  0  0
 26  1  2  0  0  0  0
 27  1  1  0  0  0  0
 27  9  1  0  0  0  0
 28 17  1  0  0  0  0
 29 28  1  0  0  0  0
 30 33  1  0  0  0  0
 30 34  1  0  0  0  0
 31 32  1  0  0  0  0
 32 29  1  0  0  0  0
 33 31  1  0  0  0  0
 34 32  1  0  0  0  0
M  END
>  <MODEL>
8

>  <REMARK>
 VINA RESULT:     -10.5      3.074      6.639
  Name = 
  3 active torsions:
  status: ('A' for Active; 'I' for Inactive)
    1  A    between atoms: C_17  and  O_28
    2  A    between atoms: O_28  and  C_29
    3  A    between atoms: C_29  and  C_32
                            x       y       z     vdW  Elec       q    Type
                         _______ _______ _______ _____ _____    ______ ____

>  <TORSDO>
F 3

$$$$
=
 OpenBabel11122412213D

 34 42  0  0  1  0  0  0  0  0999 V2000
  190.2710  177.1770  142.6130 C   0  0  0  0  0  0  0  0  0  0  0  0
  191.7960  176.9390  140.6310 C   0  0  0  0  0  3  0  0  0  0  0  0
  184.3200  178.7490  145.2050 C   0  0  2  0  0  0  0  0  0  0  0  0
  188.6190  177.5270  144.3900 C   0  0  0  0  0  0  0  0  0  0  0  0
  186.4090  178.2410  143.7520 C   0  0  0  0  0  0  0  0  0  0  0  0
  183.9860  179.0040  143.2960 C   0  0  2  0  0  3  0  0  0  0  0  0
  183.1920  179.1500  144.4280 O   0  0  0  0  0  0  0  0  0  0  0  0
  185.8940  178.1350  146.9630 C   0  0  0  0  0  3  0  0  0  0  0  0
  189.6630  177.5590  140.3600 C   0  0  0  0  0  0  0  0  0  0  0  0
  188.2310  176.8610  137.7940 C   0  0  0  0  0  3  0  0  0  0  0  0
  186.8030  178.2260  142.4820 O   0  0  0  0  0  0  0  0  0  0  0  0
  187.0040  177.8610  146.2550 C   0  0  0  0  0  2  0  0  0  0  0  0
  188.3560  177.8950  140.7200 C   0  0  0  0  0  0  0  0  0  0  0  0
  191.6630  177.1440  139.3210 C   0  0  0  0  0  3  0  0  0  0  0  0
  187.3140  177.8870  144.7870 C   0  0  0  0  0  0  0  0  0  0  0  0
  184.5740  178.5690  146.4850 C   0  0  0  0  0  3  0  0  0  0  0  0
  189.5390  176.6960  138.0540 C   0  0  0  0  0  0  0  0  0  0  0  0
  188.9620  177.5360  143.0210 C   0  0  0  0  0  0  0  0  0  0  0  0
  185.1590  178.5950  144.0030 C   0  0  0  0  0  0  0  0  0  0  0  0
  188.0310  177.8900  142.0950 C   0  0  0  0  0  0  0  0  0  0  0  0
  190.8890  176.8030  144.9220 C   0  0  0  0  0  3  0  0  0  0  0  0
  187.2980  177.8070  138.4450 C   0  0  0  0  0  3  0  0  0  0  0  0
  189.6000  177.1570  145.3290 C   0  0  0  0  0  3  0  0  0  0  0  0
  187.3430  178.2520  139.7080 C   0  0  0  0  0  3  0  0  0  0  0  0
  190.2610  177.6110  139.0040 C   0  0  1  0  0  3  0  0  0  0  0  0
  191.2280  176.8140  143.5680 C   0  0  0  0  0  3  0  0  0  0  0  0
  190.5660  177.2090  141.2860 N   0  0  0  0  0  0  0  0  0  0  0  0
  190.2720  175.7070  137.3840 O   0  0  0  0  0  0  0  0  0  0  0  0
  190.2630  175.5510  135.9690 C   0  0  0  0  0  2  0  0  0  0  0  0
  188.0520  172.8290  136.8440 C   0  0  0  0  0  2  0  0  0  0  0  0
  188.2040  174.4620  135.0860 C   0  0  0  0  0  2  0  0  0  0  0  0
  189.6100  174.2330  135.5980 C   0  0  0  0  0  3  0  0  0  0  0  0
  187.4220  173.2510  135.5340 C   0  0  0  0  0  2  0  0  0  0  0  0
  189.4770  173.3550  136.8270 C   0  0  0  0  0  2  0  0  0  0  0  0
  1 18  1  0  0  0  0
  1 26  2  0  0  0  0
  2 27  1  0  0  0  0
  3 16  1  1  0  0  0
  4 15  2  0  0  0  0
  4 23  1  0  0  0  0
  5 19  2  0  0  0  0
  5 15  1  0  0  0  0
  6 19  1  6  0  0  0
  6  7  1  0  0  0  0
  6  3  1  0  0  0  0
  7  3  1  0  0  0  0
  9 13  2  0  0  0  0
  9 27  1  0  0  0  0
 10 17  2  0  0  0  0
 10 22  1  0  0  0  0
 11  5  1  0  0  0  0
 12  8  1  0  0  0  0
 13 20  1  0  0  0  0
 14  2  2  0  0  0  0
 15 12  1  0  0  0  0
 16  8  2  0  0  0  0
 17 25  1  0  0  0  0
 18  4  1  0  0  0  0
 19  3  1  0  0  0  0
 20 11  1  0  0  0  0
 20 18  2  0  0  0  0
 21 23  2  0  0  0  0
 22 24  2  0  0  0  0
 24 13  1  0  0  0  0
 25 14  1  1  0  0  0
 25  9  1  0  0  0  0
 26 21  1  0  0  0  0
 27  1  1  0  0  0  0
 28 17  1  0  0  0  0
 29 28  1  0  0  0  0
 31 33  1  0  0  0  0
 31 32  1  0  0  0  0
 32 29  1  0  0  0  0
 32 34  1  0  0  0  0
 33 30  1  0  0  0  0
 34 30  1  0  0  0  0
M  END
>  <MODEL>
9

>  <REMARK>
 VINA RESULT:     -10.3      1.618      2.475
  Name = 
  3 active torsions:
  status: ('A' for Active; 'I' for Inactive)
    1  A    between atoms: C_17  and  O_28
    2  A    between atoms: O_28  and  C_29
    3  A    between atoms: C_29  and  C_32
                            x       y       z     vdW  Elec       q    Type
                         _______ _______ _______ _____ _____    ______ ____

>  <TORSDO>
F 3

$$$$
