=
 OpenBabel11122412043D

 34 40  0  0  1  0  0  0  0  0999 V2000
  182.4450  178.8030  143.5940 C   0  0  0  0  0  0  0  0  0  0  0  0
  183.9180  178.6350  145.6490 C   0  0  0  0  0  2  0  0  0  0  0  0
  181.2690  176.2280  138.4400 C   0  0  0  0  0  0  0  0  0  0  0  0
  181.1680  178.5640  141.5660 C   0  0  0  0  0  0  0  0  0  0  0  0
  182.3160  178.3830  139.3050 C   0  0  2  0  0  3  0  0  0  0  0  0
  181.8440  178.0260  136.9660 O   0  0  0  0  0  1  0  0  0  0  0  0
  181.7320  175.1010  138.5170 O   0  0  0  0  0  0  0  0  0  0  0  0
  179.3580  177.8630  138.4120 C   0  0  0  0  0  2  0  0  0  0  0  0
  184.9300  179.2260  143.5250 C   0  0  2  0  0  3  0  0  0  0  0  0
  187.8790  177.9870  143.0280 C   0  0  0  0  0  2  0  0  0  0  0  0
  183.5390  177.9840  140.1360 C   0  0  0  0  0  2  0  0  0  0  0  0
  179.7990  178.8260  139.5160 C   0  0  0  0  0  2  0  0  0  0  0  0
  184.9220  178.4810  142.1770 C   0  0  1  0  0  3  0  0  0  0  0  0
  185.4130  178.7620  145.8770 C   0  0  0  0  0  2  0  0  0  0  0  0
  181.0860  178.4770  140.1280 N   0  0  0  0  0  0  0  0  0  0  0  0
  179.7920  176.4220  138.6590 C   0  0  0  0  0  2  0  0  0  0  0  0
  186.8930  177.6460  144.1400 C   0  0  2  0  0  3  0  0  0  0  0  0
  182.4090  178.7200  142.1960 C   0  0  0  0  0  0  0  0  0  0  0  0
  182.1990  177.3780  138.1510 C   0  0  2  0  0  3  0  0  0  0  0  0
  183.6650  178.8600  141.3740 C   0  0  2  0  0  3  0  0  0  0  0  0
  180.0980  178.5430  143.6820 C   0  0  0  0  0  3  0  0  0  0  0  0
  187.2590  177.7960  141.6520 C   0  0  0  0  0  2  0  0  0  0  0  0
  180.0400  178.4790  142.3260 N   0  0  0  0  0  0  0  0  0  0  0  0
  186.1730  178.8230  141.3790 C   0  0  0  0  0  2  0  0  0  0  0  0
  186.0740  178.9000  144.5020 C   0  0  1  0  0  3  0  0  0  0  0  0
  181.2930  178.7010  144.3080 N   0  0  0  0  0  0  0  0  0  0  0  0
  183.7050  178.9560  144.2550 N   0  0  0  0  0  0  0  0  0  0  0  0
  187.6170  177.1960  145.2480 O   0  0  0  0  0  0  0  0  0  0  0  0
  188.9220  177.0360  144.7800 C   0  0  0  0  0  2  0  0  0  0  0  0
  190.5380  176.1550  147.4560 O   0  0  0  0  0  0  0  0  0  0  0  0
  191.2920  177.1790  145.4680 C   0  0  0  0  0  2  0  0  0  0  0  0
  189.9020  177.6710  145.7510 C   0  0  2  0  0  3  0  0  0  0  0  0
  191.6990  176.4830  146.7450 C   0  0  0  0  0  2  0  0  0  0  0  0
  189.6200  177.1700  147.1490 C   0  0  0  0  0  2  0  0  0  0  0  0
  1 27  1  0  0  0  0
  1 26  1  0  0  0  0
  2 14  1  0  0  0  0
  3  7  2  0  0  0  0
  3 16  1  0  0  0  0
  4 18  1  0  0  0  0
  4 23  2  0  0  0  0
  5 15  1  0  0  0  0
  5 11  1  1  0  0  0
  8 16  1  0  0  0  0
  8 12  1  0  0  0  0
  9 27  1  1  0  0  0
  9 25  1  0  0  0  0
 10 17  1  0  0  0  0
 12 15  1  0  0  0  0
 13 24  1  6  0  0  0
 13  9  1  0  0  0  0
 15  4  1  0  0  0  0
 17 25  1  0  0  0  0
 17 28  1  1  0  0  0
 18  1  2  0  0  0  0
 19  6  1  6  0  0  0
 19  3  1  0  0  0  0
 19  5  1  0  0  0  0
 20 11  1  6  0  0  0
 20 13  1  0  0  0  0
 20 18  1  0  0  0  0
 21 26  2  0  0  0  0
 22 10  1  0  0  0  0
 23 21  1  0  0  0  0
 24 22  1  0  0  0  0
 25 14  1  1  0  0  0
 27  2  1  0  0  0  0
 29 28  1  0  0  0  0
 31 32  1  0  0  0  0
 31 33  1  0  0  0  0
 32 29  1  6  0  0  0
 32 34  1  0  0  0  0
 33 30  1  0  0  0  0
 34 30  1  0  0  0  0
M  END
>  <MODEL>
1

>  <REMARK>
 VINA RESULT:      -9.1      0.000      0.000
  Name = 
  3 active torsions:
  status: ('A' for Active; 'I' for Inactive)
    1  A    between atoms: C_17  and  O_28
    2  A    between atoms: O_28  and  C_29
    3  A    between atoms: C_29  and  C_32
                            x       y       z     vdW  Elec       q    Type
                         _______ _______ _______ _____ _____    ______ ____

>  <TORSDO>
F 3

$$$$
=
 OpenBabel11122412043D

 34 40  0  0  1  0  0  0  0  0999 V2000
  182.2240  178.8540  142.2290 C   0  0  0  0  0  0  0  0  0  0  0  0
  182.8070  178.8080  144.6950 C   0  0  0  0  0  2  0  0  0  0  0  0
  182.9680  175.9380  137.1780 C   0  0  0  0  0  0  0  0  0  0  0  0
  181.7960  178.4930  139.8870 C   0  0  0  0  0  0  0  0  0  0  0  0
  183.7030  178.1320  138.2440 C   0  0  2  0  0  3  0  0  0  0  0  0
  184.1310  177.6170  135.9260 O   0  0  0  0  0  1  0  0  0  0  0  0
  183.3200  174.8130  137.4910 O   0  0  0  0  0  0  0  0  0  0  0  0
  181.2790  177.5990  136.3310 C   0  0  0  0  0  2  0  0  0  0  0  0
  184.5680  179.2300  143.0810 C   0  0  2  0  0  3  0  0  0  0  0  0
  187.4310  177.9100  143.8130 C   0  0  0  0  0  2  0  0  0  0  0  0
  184.5050  177.7730  139.4980 C   0  0  0  0  0  2  0  0  0  0  0  0
  181.3120  178.6310  137.4600 C   0  0  0  0  0  2  0  0  0  0  0  0
  185.0370  178.3910  141.8780 C   0  0  1  0  0  3  0  0  0  0  0  0
  184.1100  178.9270  145.4640 C   0  0  0  0  0  2  0  0  0  0  0  0
  182.2590  178.3050  138.5330 N   0  0  0  0  0  0  0  0  0  0  0  0
  181.5270  176.1720  136.8090 C   0  0  0  0  0  2  0  0  0  0  0  0
  186.0860  177.6660  144.4860 C   0  0  2  0  0  3  0  0  0  0  0  0
  182.7140  178.6730  140.9290 C   0  0  0  0  0  0  0  0  0  0  0  0
  183.9860  177.0500  137.1940 C   0  0  2  0  0  3  0  0  0  0  0  0
  184.1920  178.7320  140.6380 C   0  0  2  0  0  3  0  0  0  0  0  0
  180.0080  178.6400  141.4380 C   0  0  0  0  0  3  0  0  0  0  0  0
  187.3690  177.6320  142.3180 C   0  0  0  0  0  2  0  0  0  0  0  0
  180.4630  178.4810  140.1670 N   0  0  0  0  0  0  0  0  0  0  0  0
  186.5090  178.6540  141.5930 C   0  0  0  0  0  2  0  0  0  0  0  0
  185.2450  178.9550  144.4360 C   0  0  1  0  0  3  0  0  0  0  0  0
  180.8850  178.8220  142.4590 N   0  0  0  0  0  0  0  0  0  0  0  0
  183.1480  179.0330  143.3080 N   0  0  0  0  0  0  0  0  0  0  0  0
  186.3200  177.2840  145.8110 O   0  0  0  0  0  0  0  0  0  0  0  0
  187.6370  177.6700  146.0660 C   0  0  0  0  0  2  0  0  0  0  0  0
  190.3570  177.6430  147.8410 O   0  0  0  0  0  0  0  0  0  0  0  0
  188.1440  178.2250  148.4210 C   0  0  0  0  0  2  0  0  0  0  0  0
  188.0880  177.1190  147.4070 C   0  0  2  0  0  3  0  0  0  0  0  0
  189.5950  178.2620  148.8400 C   0  0  0  0  0  2  0  0  0  0  0  0
  189.5220  176.6530  147.3020 C   0  0  0  0  0  2  0  0  0  0  0  0
  1 26  1  0  0  0  0
  1 27  1  0  0  0  0
  2 14  1  0  0  0  0
  3 19  1  0  0  0  0
  3  7  2  0  0  0  0
  4 23  2  0  0  0  0
  4 18  1  0  0  0  0
  5 15  1  0  0  0  0
  5 11  1  1  0  0  0
  8 16  1  0  0  0  0
  8 12  1  0  0  0  0
  9 27  1  1  0  0  0
  9 25  1  0  0  0  0
 10 17  1  0  0  0  0
 12 15  1  0  0  0  0
 13 24  1  6  0  0  0
 13  9  1  0  0  0  0
 15  4  1  0  0  0  0
 16  3  1  0  0  0  0
 17 28  1  1  0  0  0
 18  1  2  0  0  0  0
 19  6  1  6  0  0  0
 19  5  1  0  0  0  0
 20 11  1  6  0  0  0
 20 18  1  0  0  0  0
 20 13  1  0  0  0  0
 21 26  2  0  0  0  0
 22 10  1  0  0  0  0
 23 21  1  0  0  0  0
 24 22  1  0  0  0  0
 25 17  1  0  0  0  0
 25 14  1  1  0  0  0
 27  2  1  0  0  0  0
 28 29  1  0  0  0  0
 30 33  1  0  0  0  0
 31 33  1  0  0  0  0
 32 29  1  6  0  0  0
 32 31  1  0  0  0  0
 34 32  1  0  0  0  0
 34 30  1  0  0  0  0
M  END
>  <MODEL>
2

>  <REMARK>
 VINA RESULT:      -8.6      1.503      1.916
  Name = 
  3 active torsions:
  status: ('A' for Active; 'I' for Inactive)
    1  A    between atoms: C_17  and  O_28
    2  A    between atoms: O_28  and  C_29
    3  A    between atoms: C_29  and  C_32
                            x       y       z     vdW  Elec       q    Type
                         _______ _______ _______ _____ _____    ______ ____

>  <TORSDO>
F 3

$$$$
=
 OpenBabel11122412043D

 34 40  0  0  1  0  0  0  0  0999 V2000
  187.1620  178.1970  139.2890 C   0  0  0  0  0  0  0  0  0  0  0  0
  185.8230  178.5100  141.4190 C   0  0  0  0  0  2  0  0  0  0  0  0
  190.7030  174.4330  136.4850 C   0  0  0  0  0  0  0  0  0  0  0  0
  188.4470  177.4910  137.3790 C   0  0  0  0  0  0  0  0  0  0  0  0
  190.8510  176.7030  137.6330 C   0  0  2  0  0  3  0  0  0  0  0  0
  192.6830  175.7760  136.3650 O   0  0  0  0  0  1  0  0  0  0  0  0
  190.5250  173.3490  137.0150 O   0  0  0  0  0  0  0  0  0  0  0  0
  190.4300  176.0690  134.5940 C   0  0  0  0  0  2  0  0  0  0  0  0
  188.2450  178.5070  141.5460 C   0  0  2  0  0  3  0  0  0  0  0  0
  189.4700  177.0870  144.1830 C   0  0  0  0  0  2  0  0  0  0  0  0
  190.4590  176.4880  139.0980 C   0  0  0  0  0  2  0  0  0  0  0  0
  189.8430  177.2670  135.3430 C   0  0  0  0  0  2  0  0  0  0  0  0
  189.2650  177.4440  141.0950 C   0  0  1  0  0  3  0  0  0  0  0  0
  186.2020  178.6430  142.8820 C   0  0  0  0  0  2  0  0  0  0  0  0
  189.6840  177.0430  136.7850 N   0  0  0  0  0  0  0  0  0  0  0  0
  190.0100  174.7250  135.1790 C   0  0  0  0  0  2  0  0  0  0  0  0
  188.0260  177.0730  143.6950 C   0  0  2  0  0  3  0  0  0  0  0  0
  188.3800  177.7620  138.7510 C   0  0  0  0  0  0  0  0  0  0  0  0
  191.5910  175.4410  137.1680 C   0  0  2  0  0  3  0  0  0  0  0  0
  189.6140  177.6460  139.6100 C   0  0  2  0  0  3  0  0  0  0  0  0
  186.1520  178.0460  137.1580 C   0  0  0  0  0  3  0  0  0  0  0  0
  190.4270  176.5710  143.1190 C   0  0  0  0  0  2  0  0  0  0  0  0
  187.3300  177.6400  136.6140 N   0  0  0  0  0  0  0  0  0  0  0  0
  190.5260  177.5290  141.9430 C   0  0  0  0  0  2  0  0  0  0  0  0
  187.7120  178.4030  142.9860 C   0  0  1  0  0  3  0  0  0  0  0  0
  186.0720  178.3180  138.4870 N   0  0  0  0  0  0  0  0  0  0  0  0
  187.0730  178.4720  140.6910 N   0  0  0  0  0  0  0  0  0  0  0  0
  187.1890  176.8970  144.8010 O   0  0  0  0  0  0  0  0  0  0  0  0
  187.5530  177.9110  145.6890 C   0  0  0  0  0  2  0  0  0  0  0  0
  189.7440  177.5520  148.0600 O   0  0  0  0  0  0  0  0  0  0  0  0
  187.5860  178.5090  148.0870 C   0  0  0  0  0  2  0  0  0  0  0  0
  187.5820  177.3710  147.1080 C   0  0  2  0  0  3  0  0  0  0  0  0
  188.8850  178.3380  148.8390 C   0  0  0  0  0  2  0  0  0  0  0  0
  188.9030  176.6780  147.3550 C   0  0  0  0  0  2  0  0  0  0  0  0
  1 27  1  0  0  0  0
  2 14  1  0  0  0  0
  3  7  2  0  0  0  0
  3 19  1  0  0  0  0
  4 18  2  0  0  0  0
  5 11  1  1  0  0  0
  8 16  1  0  0  0  0
  8 12  1  0  0  0  0
  9 27  1  6  0  0  0
  9 25  1  0  0  0  0
 12 15  1  0  0  0  0
 13  9  1  0  0  0  0
 13 24  1  1  0  0  0
 15  4  1  0  0  0  0
 15  5  1  0  0  0  0
 16  3  1  0  0  0  0
 17 10  1  0  0  0  0
 17 28  1  1  0  0  0
 18  1  1  0  0  0  0
 18 20  1  0  0  0  0
 19  6  1  6  0  0  0
 19  5  1  0  0  0  0
 20 11  1  6  0  0  0
 20 13  1  0  0  0  0
 21 26  1  0  0  0  0
 22 10  1  0  0  0  0
 23 21  2  0  0  0  0
 23  4  1  0  0  0  0
 24 22  1  0  0  0  0
 25 14  1  6  0  0  0
 25 17  1  0  0  0  0
 26  1  2  0  0  0  0
 27  2  1  0  0  0  0
 28 29  1  0  0  0  0
 30 33  1  0  0  0  0
 31 33  1  0  0  0  0
 32 29  1  6  0  0  0
 32 34  1  0  0  0  0
 32 31  1  0  0  0  0
 34 30  1  0  0  0  0
M  END
>  <MODEL>
3

>  <REMARK>
 VINA RESULT:      -8.6      4.849      6.876
  Name = 
  3 active torsions:
  status: ('A' for Active; 'I' for Inactive)
    1  A    between atoms: C_17  and  O_28
    2  A    between atoms: O_28  and  C_29
    3  A    between atoms: C_29  and  C_32
                            x       y       z     vdW  Elec       q    Type
                         _______ _______ _______ _____ _____    ______ ____

>  <TORSDO>
F 3

$$$$
=
 OpenBabel11122412043D

 34 40  0  0  1  0  0  0  0  0999 V2000
  184.2950  178.6050  143.5080 C   0  0  0  0  0  0  0  0  0  0  0  0
  186.1880  177.8200  144.9990 C   0  0  0  0  0  2  0  0  0  0  0  0
  181.4080  177.3510  138.5420 C   0  0  0  0  0  0  0  0  0  0  0  0
  182.5230  178.9640  141.9170 C   0  0  0  0  0  0  0  0  0  0  0  0
  183.0080  179.1250  139.4270 C   0  0  2  0  0  3  0  0  0  0  0  0
  181.9000  179.3350  137.2930 O   0  0  0  0  0  1  0  0  0  0  0  0
  181.6660  176.1850  138.2910 O   0  0  0  0  0  0  0  0  0  0  0  0
  179.8760  179.1810  139.3370 C   0  0  0  0  0  2  0  0  0  0  0  0
  186.7150  178.7180  142.8080 C   0  0  2  0  0  3  0  0  0  0  0  0
  189.1710  177.2540  141.2900 C   0  0  0  0  0  2  0  0  0  0  0  0
  184.3100  178.4080  139.7940 C   0  0  0  0  0  2  0  0  0  0  0  0
  180.7480  179.8250  140.4170 C   0  0  0  0  0  2  0  0  0  0  0  0
  186.2320  178.2840  141.4120 C   0  0  1  0  0  3  0  0  0  0  0  0
  187.6900  177.7090  144.8110 C   0  0  0  0  0  2  0  0  0  0  0  0
  182.0650  179.1950  140.5680 N   0  0  0  0  0  0  0  0  0  0  0  0
  180.0940  177.6780  139.2010 C   0  0  0  0  0  2  0  0  0  0  0  0
  188.4550  176.8110  142.5610 C   0  0  2  0  0  3  0  0  0  0  0  0
  183.8910  178.8260  142.1850 C   0  0  0  0  0  0  0  0  0  0  0  0
  182.4230  178.4110  138.2000 C   0  0  2  0  0  3  0  0  0  0  0  0
  184.9010  178.9780  141.0760 C   0  0  2  0  0  3  0  0  0  0  0  0
  182.0410  178.6280  144.2140 C   0  0  0  0  0  3  0  0  0  0  0  0
  188.1980  177.4390  140.1350 C   0  0  0  0  0  2  0  0  0  0  0  0
  181.6290  178.8610  142.9400 N   0  0  0  0  0  0  0  0  0  0  0  0
  187.2790  178.6280  140.3610 C   0  0  0  0  0  2  0  0  0  0  0  0
  187.9930  178.0510  143.3490 C   0  0  1  0  0  3  0  0  0  0  0  0
  183.3640  178.4980  144.4920 N   0  0  0  0  0  0  0  0  0  0  0  0
  185.6890  178.4550  143.8000 N   0  0  0  0  0  0  0  0  0  0  0  0
  189.3450  176.0490  143.3250 O   0  0  0  0  0  0  0  0  0  0  0  0
  190.5570  176.1180  142.6340 C   0  0  0  0  0  2  0  0  0  0  0  0
  191.0460  178.2460  145.0400 O   0  0  0  0  0  0  0  0  0  0  0  0
  191.3910  175.9120  144.9520 C   0  0  0  0  0  2  0  0  0  0  0  0
  191.6780  176.4800  143.5920 C   0  0  2  0  0  3  0  0  0  0  0  0
  191.3040  177.1280  145.8440 C   0  0  0  0  0  2  0  0  0  0  0  0
  191.6830  177.9750  143.8190 C   0  0  0  0  0  2  0  0  0  0  0  0
  1 27  1  0  0  0  0
  1 26  1  0  0  0  0
  3 16  1  0  0  0  0
  4 18  1  0  0  0  0
  4 23  2  0  0  0  0
  5 11  1  1  0  0  0
  5 15  1  0  0  0  0
  7  3  2  0  0  0  0
  8 12  1  0  0  0  0
  9 25  1  0  0  0  0
  9 27  1  1  0  0  0
 10 17  1  0  0  0  0
 12 15  1  0  0  0  0
 13 24  1  6  0  0  0
 13  9  1  0  0  0  0
 14  2  1  0  0  0  0
 15  4  1  0  0  0  0
 16  8  1  0  0  0  0
 17 28  1  1  0  0  0
 17 25  1  0  0  0  0
 18  1  2  0  0  0  0
 19  6  1  6  0  0  0
 19  3  1  0  0  0  0
 19  5  1  0  0  0  0
 20 11  1  6  0  0  0
 20 13  1  0  0  0  0
 20 18  1  0  0  0  0
 21 26  2  0  0  0  0
 22 24  1  0  0  0  0
 22 10  1  0  0  0  0
 23 21  1  0  0  0  0
 25 14  1  1  0  0  0
 27  2  1  0  0  0  0
 29 28  1  0  0  0  0
 30 33  1  0  0  0  0
 31 33  1  0  0  0  0
 32 29  1  6  0  0  0
 32 34  1  0  0  0  0
 32 31  1  0  0  0  0
 34 30  1  0  0  0  0
M  END
>  <MODEL>
4

>  <REMARK>
 VINA RESULT:      -8.3      1.492      2.023
  Name = 
  3 active torsions:
  status: ('A' for Active; 'I' for Inactive)
    1  A    between atoms: C_17  and  O_28
    2  A    between atoms: O_28  and  C_29
    3  A    between atoms: C_29  and  C_32
                            x       y       z     vdW  Elec       q    Type
                         _______ _______ _______ _____ _____    ______ ____

>  <TORSDO>
F 3

$$$$
=
 OpenBabel11122412043D

 34 40  0  0  1  0  0  0  0  0999 V2000
  189.4180  177.2590  137.3510 C   0  0  0  0  0  0  0  0  0  0  0  0
  187.3920  177.7900  138.7780 C   0  0  0  0  0  2  0  0  0  0  0  0
  193.9450  173.5430  136.8310 C   0  0  0  0  0  0  0  0  0  0  0  0
  191.3400  176.3800  136.1960 C   0  0  0  0  0  0  0  0  0  0  0  0
  193.5380  175.9900  137.4130 C   0  0  2  0  0  3  0  0  0  0  0  0
  195.7530  175.0950  137.0780 O   0  0  0  0  0  1  0  0  0  0  0  0
  193.6550  172.5680  137.5040 O   0  0  0  0  0  0  0  0  0  0  0  0
  194.2660  174.7310  134.6370 C   0  0  0  0  0  2  0  0  0  0  0  0
  189.6050  178.1420  139.7050 C   0  0  2  0  0  3  0  0  0  0  0  0
  189.8930  177.4380  142.8510 C   0  0  0  0  0  2  0  0  0  0  0  0
  192.6630  176.0100  138.6700 C   0  0  0  0  0  2  0  0  0  0  0  0
  193.3800  175.9590  134.8530 C   0  0  0  0  0  2  0  0  0  0  0  0
  190.7800  177.1610  139.8770 C   0  0  1  0  0  3  0  0  0  0  0  0
  187.2160  178.2530  140.2120 C   0  0  0  0  0  2  0  0  0  0  0  0
  192.7310  175.9980  136.1680 N   0  0  0  0  0  0  0  0  0  0  0  0
  193.7470  173.4810  135.3390 C   0  0  0  0  0  2  0  0  0  0  0  0
  188.7210  177.1330  141.9240 C   0  0  2  0  0  3  0  0  0  0  0  0
  190.7710  176.8980  137.3660 C   0  0  0  0  0  0  0  0  0  0  0  0
  194.4700  174.7750  137.5230 C   0  0  2  0  0  3  0  0  0  0  0  0
  191.6230  177.1190  138.5910 C   0  0  2  0  0  3  0  0  0  0  0  0
  189.2450  176.5630  135.0990 C   0  0  0  0  0  3  0  0  0  0  0  0
  191.1950  176.8620  142.3160 C   0  0  0  0  0  2  0  0  0  0  0  0
  190.5610  176.2240  135.0880 N   0  0  0  0  0  0  0  0  0  0  0  0
  191.6490  177.5800  141.0550 C   0  0  0  0  0  2  0  0  0  0  0  0
  188.6010  178.2460  140.8670 C   0  0  1  0  0  3  0  0  0  0  0  0
  188.6810  177.0730  136.2240 N   0  0  0  0  0  0  0  0  0  0  0  0
  188.8180  177.7840  138.5400 N   0  0  0  0  0  0  0  0  0  0  0  0
  187.5570  177.0610  142.6950 O   0  0  0  0  0  0  0  0  0  0  0  0
  187.9790  177.3110  144.0030 C   0  0  0  0  0  2  0  0  0  0  0  0
  186.5740  179.0010  146.3940 O   0  0  0  0  0  0  0  0  0  0  0  0
  185.6410  177.9360  144.5050 C   0  0  0  0  0  2  0  0  0  0  0  0
  186.8190  177.1270  144.9650 C   0  0  2  0  0  3  0  0  0  0  0  0
  185.3980  178.9040  145.6390 C   0  0  0  0  0  2  0  0  0  0  0  0
  187.1750  177.7370  146.3020 C   0  0  0  0  0  2  0  0  0  0  0  0
  1 18  1  0  0  0  0
  1 27  1  0  0  0  0
  2 14  1  0  0  0  0
  3  7  2  0  0  0  0
  3 19  1  0  0  0  0
  4 18  2  0  0  0  0
  5 19  1  0  0  0  0
  5 11  1  1  0  0  0
  8 12  1  0  0  0  0
  8 16  1  0  0  0  0
  9 27  1  6  0  0  0
  9 13  1  0  0  0  0
  9 25  1  0  0  0  0
 12 15  1  0  0  0  0
 13 24  1  1  0  0  0
 15  4  1  0  0  0  0
 15  5  1  0  0  0  0
 16  3  1  0  0  0  0
 17 28  1  1  0  0  0
 17 10  1  0  0  0  0
 18 20  1  0  0  0  0
 19  6  1  6  0  0  0
 20 11  1  1  0  0  0
 20 13  1  0  0  0  0
 21 26  1  0  0  0  0
 22 10  1  0  0  0  0
 23 21  2  0  0  0  0
 23  4  1  0  0  0  0
 24 22  1  0  0  0  0
 25 14  1  6  0  0  0
 25 17  1  0  0  0  0
 26  1  2  0  0  0  0
 27  2  1  0  0  0  0
 28 29  1  0  0  0  0
 31 32  1  0  0  0  0
 31 33  1  0  0  0  0
 32 29  1  6  0  0  0
 32 34  1  0  0  0  0
 33 30  1  0  0  0  0
 34 30  1  0  0  0  0
M  END
>  <MODEL>
5

>  <REMARK>
 VINA RESULT:      -7.8      6.644      9.446
  Name = 
  3 active torsions:
  status: ('A' for Active; 'I' for Inactive)
    1  A    between atoms: C_17  and  O_28
    2  A    between atoms: O_28  and  C_29
    3  A    between atoms: C_29  and  C_32
                            x       y       z     vdW  Elec       q    Type
                         _______ _______ _______ _____ _____    ______ ____

>  <TORSDO>
F 3

$$$$
=
 OpenBabel11122412043D

 34 40  0  0  1  0  0  0  0  0999 V2000
  185.4730  178.5580  140.1470 C   0  0  0  0  0  0  0  0  0  0  0  0
  184.7040  178.5950  142.5620 C   0  0  0  0  0  2  0  0  0  0  0  0
  188.3790  175.3110  136.1990 C   0  0  0  0  0  0  0  0  0  0  0  0
  186.2660  178.1080  137.9180 C   0  0  0  0  0  0  0  0  0  0  0  0
  188.6940  177.4850  137.4900 C   0  0  2  0  0  3  0  0  0  0  0  0
  190.1890  176.8050  135.7220 O   0  0  0  0  0  1  0  0  0  0  0  0
  188.3980  174.1770  136.6490 O   0  0  0  0  0  0  0  0  0  0  0  0
  187.5480  177.0690  134.6030 C   0  0  0  0  0  2  0  0  0  0  0  0
  187.0760  178.7650  142.0830 C   0  0  2  0  0  3  0  0  0  0  0  0
  189.0040  177.2330  144.1830 C   0  0  0  0  0  2  0  0  0  0  0  0
  188.6990  177.1230  138.9780 C   0  0  0  0  0  2  0  0  0  0  0  0
  187.1090  178.1550  135.5880 C   0  0  0  0  0  2  0  0  0  0  0  0
  188.0020  177.8220  141.2920 C   0  0  1  0  0  3  0  0  0  0  0  0
  185.4350  178.6370  143.8910 C   0  0  0  0  0  2  0  0  0  0  0  0
  187.3330  177.8040  136.9950 N   0  0  0  0  0  0  0  0  0  0  0  0
  187.3630  175.6550  135.1410 C   0  0  0  0  0  2  0  0  0  0  0  0
  187.4860  177.1490  144.0690 C   0  0  2  0  0  3  0  0  0  0  0  0
  186.5350  178.2610  139.2840 C   0  0  0  0  0  0  0  0  0  0  0  0
  189.3570  176.3240  136.7350 C   0  0  2  0  0  3  0  0  0  0  0  0
  187.9520  178.1690  139.7940 C   0  0  2  0  0  3  0  0  0  0  0  0
  183.9650  178.5030  138.3290 C   0  0  0  0  0  3  0  0  0  0  0  0
  189.6850  176.8790  142.8690 C   0  0  0  0  0  2  0  0  0  0  0  0
  184.9850  178.2330  137.4730 N   0  0  0  0  0  0  0  0  0  0  0  0
  189.4310  177.9340  141.8050 C   0  0  0  0  0  2  0  0  0  0  0  0
  186.9320  178.5050  143.5930 C   0  0  1  0  0  3  0  0  0  0  0  0
  184.2100  178.6610  139.6560 N   0  0  0  0  0  0  0  0  0  0  0  0
  185.7280  178.7110  141.5470 N   0  0  0  0  0  0  0  0  0  0  0  0
  186.9680  176.8220  145.3260 O   0  0  0  0  0  0  0  0  0  0  0  0
  187.4400  177.8210  146.1780 C   0  0  0  0  0  2  0  0  0  0  0  0
  190.1910  177.6390  147.8970 O   0  0  0  0  0  0  0  0  0  0  0  0
  188.0100  178.2780  148.5400 C   0  0  0  0  0  2  0  0  0  0  0  0
  187.8960  177.2090  147.4910 C   0  0  2  0  0  3  0  0  0  0  0  0
  189.4690  178.2490  148.9310 C   0  0  0  0  0  2  0  0  0  0  0  0
  189.3110  176.6970  147.3420 C   0  0  0  0  0  2  0  0  0  0  0  0
  1 27  1  0  0  0  0
  2 14  1  0  0  0  0
  3  7  2  0  0  0  0
  3 19  1  0  0  0  0
  4 18  1  0  0  0  0
  5 11  1  1  0  0  0
  8 16  1  0  0  0  0
  8 12  1  0  0  0  0
  9 27  1  6  0  0  0
  9 25  1  0  0  0  0
 12 15  1  0  0  0  0
 13 24  1  1  0  0  0
 13  9  1  0  0  0  0
 15  5  1  0  0  0  0
 15  4  1  0  0  0  0
 16  3  1  0  0  0  0
 17 10  1  0  0  0  0
 17 28  1  1  0  0  0
 18 20  1  0  0  0  0
 18  1  2  0  0  0  0
 19  6  1  6  0  0  0
 19  5  1  0  0  0  0
 20 11  1  6  0  0  0
 20 13  1  0  0  0  0
 21 26  2  0  0  0  0
 22 10  1  0  0  0  0
 23  4  2  0  0  0  0
 23 21  1  0  0  0  0
 24 22  1  0  0  0  0
 25 14  1  6  0  0  0
 25 17  1  0  0  0  0
 26  1  1  0  0  0  0
 27  2  1  0  0  0  0
 28 29  1  0  0  0  0
 30 33  1  0  0  0  0
 31 33  1  0  0  0  0
 32 29  1  6  0  0  0
 32 31  1  0  0  0  0
 34 32  1  0  0  0  0
 34 30  1  0  0  0  0
M  END
>  <MODEL>
6

>  <REMARK>
 VINA RESULT:      -7.7      3.773      5.215
  Name = 
  3 active torsions:
  status: ('A' for Active; 'I' for Inactive)
    1  A    between atoms: C_17  and  O_28
    2  A    between atoms: O_28  and  C_29
    3  A    between atoms: C_29  and  C_32
                            x       y       z     vdW  Elec       q    Type
                         _______ _______ _______ _____ _____    ______ ____

>  <TORSDO>
F 3

$$$$
=
 OpenBabel11122412043D

 34 40  0  0  1  0  0  0  0  0999 V2000
  188.6760  177.8980  139.7000 C   0  0  0  0  0  0  0  0  0  0  0  0
  191.0250  176.9510  139.7730 C   0  0  0  0  0  2  0  0  0  0  0  0
  183.0730  176.4700  138.6300 C   0  0  0  0  0  0  0  0  0  0  0  0
  186.3200  178.3920  139.6330 C   0  0  0  0  0  0  0  0  0  0  0  0
  184.9260  177.8640  137.5730 C   0  0  2  0  0  3  0  0  0  0  0  0
  182.6540  177.9110  136.7630 O   0  0  0  0  0  1  0  0  0  0  0  0
  183.0180  175.2540  138.7060 O   0  0  0  0  0  0  0  0  0  0  0  0
  182.6400  178.7880  139.5070 C   0  0  0  0  0  2  0  0  0  0  0  0
  189.9120  177.1620  137.6290 C   0  0  2  0  0  3  0  0  0  0  0  0
  190.5140  174.7670  135.5370 C   0  0  0  0  0  2  0  0  0  0  0  0
  186.0710  176.9040  137.2390 C   0  0  0  0  0  2  0  0  0  0  0  0
  184.0520  179.3750  139.4520 C   0  0  0  0  0  2  0  0  0  0  0  0
  188.5660  176.5910  137.1450 C   0  0  1  0  0  3  0  0  0  0  0  0
  191.9540  176.3780  138.7190 C   0  0  0  0  0  2  0  0  0  0  0  0
  185.0600  178.4460  138.9300 N   0  0  0  0  0  0  0  0  0  0  0  0
  182.6190  177.2930  139.8070 C   0  0  0  0  0  2  0  0  0  0  0  0
  190.8730  174.8330  137.0170 C   0  0  2  0  0  3  0  0  0  0  0  0
  187.4720  177.9320  138.9840 C   0  0  0  0  0  0  0  0  0  0  0  0
  183.6120  177.0970  137.3690 C   0  0  2  0  0  3  0  0  0  0  0  0
  187.4210  177.5460  137.5270 C   0  0  2  0  0  3  0  0  0  0  0  0
  187.5700  178.7150  141.6220 C   0  0  0  0  0  3  0  0  0  0  0  0
  189.0220  174.9660  135.3130 C   0  0  0  0  0  2  0  0  0  0  0  0
  186.3960  178.7730  140.9390 N   0  0  0  0  0  0  0  0  0  0  0  0
  188.5910  176.3860  135.6360 C   0  0  0  0  0  2  0  0  0  0  0  0
  191.1630  176.2940  137.4100 C   0  0  1  0  0  3  0  0  0  0  0  0
  188.6980  178.2770  141.0050 N   0  0  0  0  0  0  0  0  0  0  0  0
  189.8630  177.4250  139.0550 N   0  0  0  0  0  0  0  0  0  0  0  0
  192.0000  174.0340  137.2330 O   0  0  0  0  0  0  0  0  0  0  0  0
  192.6030  173.9230  135.9790 C   0  0  0  0  0  2  0  0  0  0  0  0
  195.0560  175.6280  137.2560 O   0  0  0  0  0  0  0  0  0  0  0  0
  194.4290  173.3710  137.5500 C   0  0  0  0  0  2  0  0  0  0  0  0
  194.1050  173.7670  136.1390 C   0  0  2  0  0  3  0  0  0  0  0  0
  195.2890  174.5040  138.0580 C   0  0  0  0  0  2  0  0  0  0  0  0
  194.7700  175.1160  135.9810 C   0  0  0  0  0  2  0  0  0  0  0  0
  1 26  1  0  0  0  0
  3  7  2  0  0  0  0
  3 16  1  0  0  0  0
  4 23  2  0  0  0  0
  5 11  1  1  0  0  0
  5 15  1  0  0  0  0
  8 16  1  0  0  0  0
  9 27  1  1  0  0  0
 10 17  1  0  0  0  0
 12  8  1  0  0  0  0
 13 24  1  6  0  0  0
 13 20  1  0  0  0  0
 13  9  1  0  0  0  0
 14  2  1  0  0  0  0
 15 12  1  0  0  0  0
 15  4  1  0  0  0  0
 17 28  1  6  0  0  0
 17 25  1  0  0  0  0
 18  4  1  0  0  0  0
 18  1  2  0  0  0  0
 19  6  1  1  0  0  0
 19  5  1  0  0  0  0
 19  3  1  0  0  0  0
 20 11  1  1  0  0  0
 20 18  1  0  0  0  0
 22 10  1  0  0  0  0
 22 24  1  0  0  0  0
 23 21  1  0  0  0  0
 25  9  1  0  0  0  0
 25 14  1  1  0  0  0
 26 21  2  0  0  0  0
 27  1  1  0  0  0  0
 27  2  1  0  0  0  0
 29 28  1  0  0  0  0
 30 33  1  0  0  0  0
 31 33  1  0  0  0  0
 32 29  1  1  0  0  0
 32 31  1  0  0  0  0
 34 32  1  0  0  0  0
 34 30  1  0  0  0  0
M  END
>  <MODEL>
7

>  <REMARK>
 VINA RESULT:      -7.5      5.889      7.437
  Name = 
  3 active torsions:
  status: ('A' for Active; 'I' for Inactive)
    1  A    between atoms: C_17  and  O_28
    2  A    between atoms: O_28  and  C_29
    3  A    between atoms: C_29  and  C_32
                            x       y       z     vdW  Elec       q    Type
                         _______ _______ _______ _____ _____    ______ ____

>  <TORSDO>
F 3

$$$$
=
 OpenBabel11122412043D

 34 40  0  0  1  0  0  0  0  0999 V2000
  186.6890  178.3260  141.4860 C   0  0  0  0  0  0  0  0  0  0  0  0
  189.1060  177.6140  141.7610 C   0  0  0  0  0  2  0  0  0  0  0  0
  181.6350  176.8540  138.8660 C   0  0  0  0  0  0  0  0  0  0  0  0
  184.3330  178.6090  141.0760 C   0  0  0  0  0  0  0  0  0  0  0  0
  183.4120  178.6730  138.7070 C   0  0  2  0  0  3  0  0  0  0  0  0
  181.3330  178.7890  137.4870 O   0  0  0  0  0  1  0  0  0  0  0  0
  181.7510  175.6810  138.5530 O   0  0  0  0  0  0  0  0  0  0  0  0
  180.7140  178.7050  140.2990 C   0  0  0  0  0  2  0  0  0  0  0  0
  188.3610  178.4250  139.6010 C   0  0  2  0  0  3  0  0  0  0  0  0
  189.6680  176.9180  137.0530 C   0  0  0  0  0  2  0  0  0  0  0  0
  184.7290  177.9800  138.3450 C   0  0  0  0  0  2  0  0  0  0  0  0
  182.0090  179.3970  140.7280 C   0  0  0  0  0  2  0  0  0  0  0  0
  187.2200  177.9330  138.6910 C   0  0  1  0  0  3  0  0  0  0  0  0
  190.2790  177.5040  140.8050 C   0  0  0  0  0  2  0  0  0  0  0  0
  183.2210  178.7830  140.1730 N   0  0  0  0  0  0  0  0  0  0  0  0
  180.8660  177.1990  140.1150 C   0  0  0  0  0  2  0  0  0  0  0  0
  189.7520  176.5220  138.5220 C   0  0  2  0  0  3  0  0  0  0  0  0
  185.6370  178.4910  140.5770 C   0  0  0  0  0  0  0  0  0  0  0  0
  182.2830  177.9060  138.0030 C   0  0  2  0  0  3  0  0  0  0  0  0
  185.8970  178.6050  139.0960 C   0  0  2  0  0  3  0  0  0  0  0  0
  185.1580  178.3630  143.2850 C   0  0  0  0  0  3  0  0  0  0  0  0
  188.2250  177.0490  136.5890 C   0  0  0  0  0  2  0  0  0  0  0  0
  184.1250  178.5420  142.4200 N   0  0  0  0  0  0  0  0  0  0  0  0
  187.5370  178.2410  137.2340 C   0  0  0  0  0  2  0  0  0  0  0  0
  189.7470  177.7900  139.3960 C   0  0  1  0  0  3  0  0  0  0  0  0
  186.4290  178.2530  142.8180 N   0  0  0  0  0  0  0  0  0  0  0  0
  188.0270  178.1960  140.9940 N   0  0  0  0  0  0  0  0  0  0  0  0
  190.9320  175.7960  138.7170 O   0  0  0  0  0  0  0  0  0  0  0  0
  190.9920  174.9180  137.6330 C   0  0  0  0  0  2  0  0  0  0  0  0
  193.1270  176.0020  135.4380 O   0  0  0  0  0  0  0  0  0  0  0  0
  193.3110  175.7610  137.7790 C   0  0  0  0  0  2  0  0  0  0  0  0
  192.4410  174.6530  137.2610 C   0  0  2  0  0  3  0  0  0  0  0  0
  193.9260  176.3550  136.5330 C   0  0  0  0  0  2  0  0  0  0  0  0
  192.5980  174.7430  135.7600 C   0  0  0  0  0  2  0  0  0  0  0  0
  1 26  1  0  0  0  0
  3 16  1  0  0  0  0
  4 23  2  0  0  0  0
  5 11  1  1  0  0  0
  5 15  1  0  0  0  0
  7  3  2  0  0  0  0
  8 12  1  0  0  0  0
  9 27  1  1  0  0  0
 10 17  1  0  0  0  0
 13 24  1  6  0  0  0
 13 20  1  0  0  0  0
 13  9  1  0  0  0  0
 14  2  1  0  0  0  0
 15 12  1  0  0  0  0
 15  4  1  0  0  0  0
 16  8  1  0  0  0  0
 17 28  1  6  0  0  0
 17 25  1  0  0  0  0
 18  4  1  0  0  0  0
 18  1  2  0  0  0  0
 19  6  1  1  0  0  0
 19  5  1  0  0  0  0
 19  3  1  0  0  0  0
 20 11  1  6  0  0  0
 20 18  1  0  0  0  0
 22 10  1  0  0  0  0
 22 24  1  0  0  0  0
 23 21  1  0  0  0  0
 25  9  1  0  0  0  0
 25 14  1  1  0  0  0
 26 21  2  0  0  0  0
 27  1  1  0  0  0  0
 27  2  1  0  0  0  0
 29 28  1  0  0  0  0
 30 34  1  0  0  0  0
 30 33  1  0  0  0  0
 32 29  1  6  0  0  0
 32 31  1  0  0  0  0
 33 31  1  0  0  0  0
 34 32  1  0  0  0  0
M  END
>  <MODEL>
8

>  <REMARK>
 VINA RESULT:      -7.5      4.481      5.863
  Name = 
  3 active torsions:
  status: ('A' for Active; 'I' for Inactive)
    1  A    between atoms: C_17  and  O_28
    2  A    between atoms: O_28  and  C_29
    3  A    between atoms: C_29  and  C_32
                            x       y       z     vdW  Elec       q    Type
                         _______ _______ _______ _____ _____    ______ ____

>  <TORSDO>
F 3

$$$$
=
 OpenBabel11122412043D

 34 40  0  0  1  0  0  0  0  0999 V2000
  189.1940  176.1600  137.0850 C   0  0  0  0  0  0  0  0  0  0  0  0
  187.7580  175.4040  135.1380 C   0  0  0  0  0  2  0  0  0  0  0  0
  189.3500  176.4730  142.9540 C   0  0  0  0  0  0  0  0  0  0  0  0
  190.2980  176.6390  139.1710 C   0  0  0  0  0  0  0  0  0  0  0  0
  189.1680  178.0480  140.9600 C   0  0  2  0  0  3  0  0  0  0  0  0
  189.4800  178.8510  143.2140 O   0  0  0  0  0  1  0  0  0  0  0  0
  188.5060  175.6880  143.3530 O   0  0  0  0  0  0  0  0  0  0  0  0
  191.7290  177.1810  142.5430 C   0  0  0  0  0  2  0  0  0  0  0  0
  187.0390  177.3080  136.4570 C   0  0  2  0  0  3  0  0  0  0  0  0
  183.8420  177.5160  136.9210 C   0  0  0  0  0  2  0  0  0  0  0  0
  187.8820  177.6780  140.2150 C   0  0  0  0  0  2  0  0  0  0  0  0
  191.6710  177.4980  141.0470 C   0  0  0  0  0  2  0  0  0  0  0  0
  186.7750  177.4280  137.9700 C   0  0  1  0  0  3  0  0  0  0  0  0
  186.4150  175.8540  134.5940 C   0  0  0  0  0  2  0  0  0  0  0  0
  190.3450  177.3030  140.4510 N   0  0  0  0  0  0  0  0  0  0  0  0
  190.7960  176.0490  142.9570 C   0  0  0  0  0  2  0  0  0  0  0  0
  184.6320  176.3520  136.3330 C   0  0  2  0  0  3  0  0  0  0  0  0
  189.2000  176.8190  138.3200 C   0  0  0  0  0  0  0  0  0  0  0  0
  188.9100  177.8260  142.4560 C   0  0  2  0  0  3  0  0  0  0  0  0
  188.0840  177.7570  138.7080 C   0  0  2  0  0  3  0  0  0  0  0  0
  191.2810  175.1720  137.5880 C   0  0  0  0  0  3  0  0  0  0  0  0
  184.3510  177.8970  138.3030 C   0  0  0  0  0  2  0  0  0  0  0  0
  191.3140  175.8180  138.7840 N   0  0  0  0  0  0  0  0  0  0  0  0
  185.7390  178.5110  138.2400 C   0  0  0  0  0  2  0  0  0  0  0  0
  185.8530  176.8950  135.5680 C   0  0  1  0  0  3  0  0  0  0  0  0
  190.2260  175.3410  136.7490 N   0  0  0  0  0  0  0  0  0  0  0  0
  188.0770  176.3260  136.2050 N   0  0  0  0  0  0  0  0  0  0  0  0
  183.7910  175.6390  135.4730 O   0  0  0  0  0  0  0  0  0  0  0  0
  183.3220  174.5700  136.2390 C   0  0  0  0  0  2  0  0  0  0  0  0
  183.4240  171.4680  137.1970 O   0  0  0  0  0  0  0  0  0  0  0  0
  183.8770  172.4490  135.0980 C   0  0  0  0  0  2  0  0  0  0  0  0
  184.3030  173.4120  136.1670 C   0  0  2  0  0  3  0  0  0  0  0  0
  183.6310  171.1600  135.8460 C   0  0  0  0  0  2  0  0  0  0  0  0
  184.2150  172.6010  137.4400 C   0  0  0  0  0  2  0  0  0  0  0  0
  1 18  1  0  0  0  0
  2 27  1  0  0  0  0
  3 16  1  0  0  0  0
  3  7  2  0  0  0  0
  4 15  1  0  0  0  0
  5 11  1  6  0  0  0
  5 19  1  0  0  0  0
  8 16  1  0  0  0  0
  9 27  1  1  0  0  0
  9 13  1  0  0  0  0
 10 22  1  0  0  0  0
 12  8  1  0  0  0  0
 13 24  1  6  0  0  0
 13 20  1  0  0  0  0
 14  2  1  0  0  0  0
 15  5  1  0  0  0  0
 15 12  1  0  0  0  0
 17 28  1  6  0  0  0
 17 10  1  0  0  0  0
 18 20  1  0  0  0  0
 18  4  2  0  0  0  0
 19  3  1  0  0  0  0
 19  6  1  1  0  0  0
 20 11  1  1  0  0  0
 21 23  2  0  0  0  0
 23  4  1  0  0  0  0
 24 22  1  0  0  0  0
 25 14  1  6  0  0  0
 25 17  1  0  0  0  0
 25  9  1  0  0  0  0
 26  1  2  0  0  0  0
 26 21  1  0  0  0  0
 27  1  1  0  0  0  0
 28 29  1  0  0  0  0
 30 34  1  0  0  0  0
 31 33  1  0  0  0  0
 31 32  1  0  0  0  0
 32 29  1  1  0  0  0
 32 34  1  0  0  0  0
 33 30  1  0  0  0  0
M  END
>  <MODEL>
9

>  <REMARK>
 VINA RESULT:      -7.2      4.930     10.058
  Name = 
  3 active torsions:
  status: ('A' for Active; 'I' for Inactive)
    1  A    between atoms: C_17  and  O_28
    2  A    between atoms: O_28  and  C_29
    3  A    between atoms: C_29  and  C_32
                            x       y       z     vdW  Elec       q    Type
                         _______ _______ _______ _____ _____    ______ ____

>  <TORSDO>
F 3

$$$$
