=
 OpenBabel11122411553D

 28 32  0  0  1  0  0  0  0  0999 V2000
  181.2800  178.6390  142.1310 C   0  0  0  0  0  0  0  0  0  0  0  0
  180.4650  180.7560  139.3890 O   0  0  0  0  0  0  0  0  0  0  0  0
  180.1150  174.2510  137.6520 O   0  0  0  0  0  0  0  0  0  0  0  0
  184.0150  178.8670  142.6980 C   0  0  0  0  0  3  0  0  0  0  0  0
  181.8240  175.7810  137.1460 N   0  0  0  0  0  0  0  0  0  0  0  0
  179.8130  178.4900  141.8760 C   0  0  0  0  0  2  0  0  0  0  0  0
  182.6380  181.7120  138.7620 O   0  0  0  0  0  0  0  0  0  0  0  0
  181.6460  180.6250  138.4670 S   0  0  0  0  0  0  0  0  0  0  0  0
  180.5110  179.4370  136.3790 C   0  0  0  0  0  0  0  0  0  0  0  0
  182.4300  179.0260  138.6510 C   0  0  2  0  0  3  0  0  0  0  0  0
  179.0420  174.9120  141.6290 O   0  0  0  0  0  0  0  0  0  0  0  0
  182.1280  176.7170  139.3250 C   0  0  2  0  0  3  0  0  0  0  0  0
  181.0920  178.3140  136.6790 N   0  0  0  0  0  0  0  0  0  0  0  0
  181.1020  180.7490  136.7810 C   0  0  0  0  0  2  0  0  0  0  0  0
  179.3380  176.0740  141.2430 C   0  0  0  0  0  0  0  0  0  0  0  0
  182.2260  178.4770  141.1000 C   0  0  0  0  0  0  0  0  0  0  0  0
  180.8910  175.1750  138.0150 C   0  0  0  0  0  0  0  0  0  0  0  0
  179.2730  179.4210  135.6820 N   0  0  0  0  0  1  0  0  0  0  0  0
  179.6090  176.3130  139.7920 C   0  0  0  0  0  2  0  0  0  0  0  0
  183.5940  178.5870  141.3960 C   0  0  0  0  0  3  0  0  0  0  0  0
  181.7120  178.9160  143.4330 C   0  0  0  0  0  3  0  0  0  0  0  0
  183.0740  179.0330  143.7150 C   0  0  0  0  0  3  0  0  0  0  0  0
  179.3850  177.1360  142.1990 N   0  0  0  0  0  2  0  0  0  0  0  0
  182.6170  176.7620  137.8630 C   0  0  2  0  0  3  0  0  0  0  0  0
  180.9540  175.7050  139.3960 C   0  0  2  0  0  3  0  0  0  0  0  0
  182.3880  178.1970  137.3680 C   0  0  2  0  0  3  0  0  0  0  0  0
  182.1040  175.3360  135.7890 C   0  0  0  0  0  1  0  0  0  0  0  0
  181.7770  178.1530  139.7050 C   0  0  1  0  0  3  0  0  0  0  0  0
  1 21  1  0  0  0  0
  3 17  2  0  0  0  0
  4 22  1  0  0  0  0
  5 24  1  0  0  0  0
  5 17  1  0  0  0  0
  6  1  1  0  0  0  0
  6 23  1  0  0  0  0
  8  7  2  0  0  0  0
  8  2  2  0  0  0  0
  9 13  2  0  0  0  0
  9 14  1  0  0  0  0
 10  8  1  6  0  0  0
 10 28  1  0  0  0  0
 12 25  1  0  0  0  0
 12 28  1  0  0  0  0
 13 26  1  0  0  0  0
 14  8  1  0  0  0  0
 15 11  2  0  0  0  0
 15 23  1  0  0  0  0
 16 20  1  0  0  0  0
 16  1  2  0  0  0  0
 17 25  1  0  0  0  0
 18  9  1  0  0  0  0
 19 15  1  0  0  0  0
 20  4  2  0  0  0  0
 21 22  2  0  0  0  0
 24 12  1  0  0  0  0
 25 19  1  0  0  0  0
 26 24  1  0  0  0  0
 26 10  1  0  0  0  0
 27  5  1  0  0  0  0
 28 16  1  0  0  0  0
M  END
>  <MODEL>
1

>  <REMARK>
 VINA RESULT:      -6.5      0.000      0.000
  Name = 
  0 active torsions:
  status: ('A' for Active; 'I' for Inactive)
                            x       y       z     vdW  Elec       q    Type
                         _______ _______ _______ _____ _____    ______ ____

>  <TORSDO>
F 0

$$$$
=
 OpenBabel11122411553D

 28 32  0  0  1  0  0  0  0  0999 V2000
  180.5550  179.4920  141.3820 C   0  0  0  0  0  0  0  0  0  0  0  0
  180.3560  176.4550  139.5380 O   0  0  0  0  0  0  0  0  0  0  0  0
  186.7600  178.3560  140.4430 O   0  0  0  0  0  0  0  0  0  0  0  0
  179.6180  181.6030  139.7960 C   0  0  0  0  0  3  0  0  0  0  0  0
  185.4650  178.5600  138.4930 N   0  0  0  0  0  0  0  0  0  0  0  0
  181.0550  178.3980  142.2730 C   0  0  0  0  0  2  0  0  0  0  0  0
  179.5270  177.1910  137.3470 O   0  0  0  0  0  0  0  0  0  0  0  0
  180.7540  176.8520  138.1430 S   0  0  0  0  0  0  0  0  0  0  0  0
  183.0260  175.5020  137.8760 C   0  0  0  0  0  0  0  0  0  0  0  0
  181.8650  178.2550  138.1670 C   0  0  2  0  0  3  0  0  0  0  0  0
  184.3030  179.4160  143.6420 O   0  0  0  0  0  0  0  0  0  0  0  0
  183.4920  179.4950  139.4680 C   0  0  2  0  0  3  0  0  0  0  0  0
  183.7130  176.6000  137.9860 N   0  0  0  0  0  0  0  0  0  0  0  0
  181.6220  175.5110  137.3670 C   0  0  0  0  0  2  0  0  0  0  0  0
  183.4850  178.8690  142.8560 C   0  0  0  0  0  0  0  0  0  0  0  0
  181.0750  179.6810  140.0870 C   0  0  0  0  0  0  0  0  0  0  0  0
  185.6700  178.6570  139.8870 C   0  0  0  0  0  0  0  0  0  0  0  0
  183.6090  174.2700  138.2780 N   0  0  0  0  0  1  0  0  0  0  0  0
  184.0000  178.1710  141.6390 C   0  0  0  0  0  2  0  0  0  0  0  0
  180.6030  180.7460  139.3030 C   0  0  0  0  0  3  0  0  0  0  0  0
  179.5720  180.3590  141.8700 C   0  0  0  0  0  3  0  0  0  0  0  0
  179.1020  181.4090  141.0780 C   0  0  0  0  0  3  0  0  0  0  0  0
  182.0890  178.9100  143.1620 N   0  0  0  0  0  2  0  0  0  0  0  0
  184.1390  179.0360  138.1460 C   0  0  2  0  0  3  0  0  0  0  0  0
  184.4940  179.1890  140.6120 C   0  0  2  0  0  3  0  0  0  0  0  0
  183.2360  177.9320  137.5760 C   0  0  2  0  0  3  0  0  0  0  0  0
  186.5010  178.2420  137.5230 C   0  0  0  0  0  1  0  0  0  0  0  0
  182.1510  178.7730  139.5630 C   0  0  1  0  0  3  0  0  0  0  0  0
  1 21  1  0  0  0  0
  1  6  1  0  0  0  0
  4 22  1  0  0  0  0
  5 17  1  0  0  0  0
  6 23  1  0  0  0  0
  7  8  2  0  0  0  0
  8  2  2  0  0  0  0
  9 13  2  0  0  0  0
  9 18  1  0  0  0  0
 10  8  1  1  0  0  0
 10 28  1  0  0  0  0
 12 28  1  0  0  0  0
 12 25  1  0  0  0  0
 14  9  1  0  0  0  0
 14  8  1  0  0  0  0
 15 23  1  0  0  0  0
 15 11  2  0  0  0  0
 16  1  2  0  0  0  0
 17  3  2  0  0  0  0
 17 25  1  0  0  0  0
 19 15  1  0  0  0  0
 20  4  2  0  0  0  0
 20 16  1  0  0  0  0
 22 21  2  0  0  0  0
 24  5  1  0  0  0  0
 24 12  1  0  0  0  0
 25 19  1  0  0  0  0
 26 13  1  0  0  0  0
 26 24  1  0  0  0  0
 26 10  1  0  0  0  0
 27  5  1  0  0  0  0
 28 16  1  0  0  0  0
M  END
>  <MODEL>
2

>  <REMARK>
 VINA RESULT:      -5.9      2.766      4.642
  Name = 
  0 active torsions:
  status: ('A' for Active; 'I' for Inactive)
                            x       y       z     vdW  Elec       q    Type
                         _______ _______ _______ _____ _____    ______ ____

>  <TORSDO>
F 0

$$$$
=
 OpenBabel11122411553D

 28 32  0  0  1  0  0  0  0  0999 V2000
  185.3170  175.7430  137.0110 C   0  0  0  0  0  0  0  0  0  0  0  0
  182.4750  176.3580  134.9600 O   0  0  0  0  0  0  0  0  0  0  0  0
  181.6180  178.8770  141.1540 O   0  0  0  0  0  0  0  0  0  0  0  0
  185.4660  173.0050  137.5920 C   0  0  0  0  0  3  0  0  0  0  0  0
  180.6950  176.9080  140.2670 N   0  0  0  0  0  0  0  0  0  0  0  0
  185.2890  177.2100  136.7210 C   0  0  0  0  0  2  0  0  0  0  0  0
  181.4400  174.1400  134.7670 O   0  0  0  0  0  0  0  0  0  0  0  0
  181.4210  175.4410  135.5170 S   0  0  0  0  0  0  0  0  0  0  0  0
  179.6730  177.2090  136.4520 C   0  0  0  0  0  0  0  0  0  0  0  0
  181.6900  175.1370  137.2600 C   0  0  2  0  0  3  0  0  0  0  0  0
  185.5930  179.0210  139.8970 O   0  0  0  0  0  0  0  0  0  0  0  0
  182.6780  175.9800  139.3070 C   0  0  2  0  0  3  0  0  0  0  0  0
  180.0260  176.9390  137.6730 N   0  0  0  0  0  0  0  0  0  0  0  0
  179.8250  176.2030  135.3590 C   0  0  0  0  0  2  0  0  0  0  0  0
  185.0300  178.4690  138.9160 C   0  0  0  0  0  0  0  0  0  0  0  0
  184.1930  175.0740  137.5340 C   0  0  0  0  0  0  0  0  0  0  0  0
  181.7530  177.8150  140.4890 C   0  0  0  0  0  0  0  0  0  0  0  0
  179.1620  178.4980  136.1400 N   0  0  0  0  0  1  0  0  0  0  0  0
  183.5370  178.3900  138.8820 C   0  0  0  0  0  2  0  0  0  0  0  0
  184.2810  173.7040  137.8270 C   0  0  0  0  0  3  0  0  0  0  0  0
  186.5030  175.0350  136.7830 C   0  0  0  0  0  3  0  0  0  0  0  0
  186.5760  173.6700  137.0690 C   0  0  0  0  0  3  0  0  0  0  0  0
  185.8320  177.9530  137.8500 N   0  0  0  0  0  2  0  0  0  0  0  0
  181.1690  175.7540  139.5250 C   0  0  2  0  0  3  0  0  0  0  0  0
  183.0360  177.3680  139.9010 C   0  0  2  0  0  3  0  0  0  0  0  0
  180.5370  175.6360  138.1300 C   0  0  2  0  0  3  0  0  0  0  0  0
  179.3780  177.0040  140.8760 C   0  0  0  0  0  1  0  0  0  0  0  0
  182.9240  175.8280  137.8080 C   0  0  1  0  0  3  0  0  0  0  0  0
  1 16  1  0  0  0  0
  2  8  2  0  0  0  0
  4 20  1  0  0  0  0
  5 17  1  0  0  0  0
  5 27  1  0  0  0  0
  6  1  1  0  0  0  0
  6 23  1  0  0  0  0
  7  8  2  0  0  0  0
  9 13  2  0  0  0  0
 10  8  1  6  0  0  0
 10 28  1  0  0  0  0
 10 26  1  0  0  0  0
 12 24  1  0  0  0  0
 12 25  1  0  0  0  0
 13 26  1  0  0  0  0
 14  8  1  0  0  0  0
 14  9  1  0  0  0  0
 15 11  2  0  0  0  0
 16 28  1  0  0  0  0
 16 20  2  0  0  0  0
 17  3  2  0  0  0  0
 18  9  1  0  0  0  0
 19 15  1  0  0  0  0
 19 25  1  0  0  0  0
 21  1  2  0  0  0  0
 21 22  1  0  0  0  0
 22  4  2  0  0  0  0
 23 15  1  0  0  0  0
 24  5  1  0  0  0  0
 25 17  1  0  0  0  0
 26 24  1  0  0  0  0
 28 12  1  0  0  0  0
M  END
>  <MODEL>
3

>  <REMARK>
 VINA RESULT:      -5.7      2.963      5.768
  Name = 
  0 active torsions:
  status: ('A' for Active; 'I' for Inactive)
                            x       y       z     vdW  Elec       q    Type
                         _______ _______ _______ _____ _____    ______ ____

>  <TORSDO>
F 0

$$$$
=
 OpenBabel11122411553D

 28 32  0  0  1  0  0  0  0  0999 V2000
  180.6480  180.5050  139.3620 C   0  0  0  0  0  0  0  0  0  0  0  0
  184.1910  180.3160  139.0930 O   0  0  0  0  0  0  0  0  0  0  0  0
  181.1810  175.9320  134.9500 O   0  0  0  0  0  0  0  0  0  0  0  0
  179.8500  179.4850  141.8470 C   0  0  0  0  0  3  0  0  0  0  0  0
  182.2250  175.4780  137.0040 N   0  0  0  0  0  0  0  0  0  0  0  0
  181.0220  181.0700  138.0280 C   0  0  0  0  0  2  0  0  0  0  0  0
  184.8480  179.2240  141.1930 O   0  0  0  0  0  0  0  0  0  0  0  0
  184.5330  179.0020  139.7410 S   0  0  0  0  0  0  0  0  0  0  0  0
  185.4700  177.6520  137.6540 C   0  0  0  0  0  0  0  0  0  0  0  0
  183.1820  177.8380  139.5880 C   0  0  2  0  0  3  0  0  0  0  0  0
  178.9720  179.4320  135.4640 O   0  0  0  0  0  0  0  0  0  0  0  0
  181.2200  177.2100  138.3100 C   0  0  2  0  0  3  0  0  0  0  0  0
  184.3920  176.9280  137.6150 N   0  0  0  0  0  0  0  0  0  0  0  0
  185.9370  178.2830  138.9250 C   0  0  0  0  0  2  0  0  0  0  0  0
  179.9640  179.6390  136.2120 C   0  0  0  0  0  0  0  0  0  0  0  0
  181.0940  179.2350  139.7750 C   0  0  0  0  0  0  0  0  0  0  0  0
  181.3810  176.2290  136.1580 C   0  0  0  0  0  0  0  0  0  0  0  0
  186.2060  177.8770  136.4590 N   0  0  0  0  0  1  0  0  0  0  0  0
  181.1130  178.6830  136.1780 C   0  0  0  0  0  2  0  0  0  0  0  0
  180.6830  178.7310  141.0190 C   0  0  0  0  0  3  0  0  0  0  0  0
  179.8090  181.2520  140.1970 C   0  0  0  0  0  3  0  0  0  0  0  0
  179.4140  180.7460  141.4370 C   0  0  0  0  0  3  0  0  0  0  0  0
  179.9740  180.7930  137.0560 N   0  0  0  0  0  2  0  0  0  0  0  0
  182.2050  176.0250  138.3490 C   0  0  2  0  0  3  0  0  0  0  0  0
  180.7270  177.3640  136.8470 C   0  0  2  0  0  3  0  0  0  0  0  0
  183.5620  176.5950  138.7850 C   0  0  2  0  0  3  0  0  0  0  0  0
  182.8500  174.2150  136.6450 C   0  0  0  0  0  1  0  0  0  0  0  0
  181.9720  178.4120  138.8760 C   0  0  1  0  0  3  0  0  0  0  0  0
  1 16  2  0  0  0  0
  1 21  1  0  0  0  0
  2  8  2  0  0  0  0
  3 17  2  0  0  0  0
  5 24  1  0  0  0  0
  6  1  1  0  0  0  0
  8  7  2  0  0  0  0
  9 14  1  0  0  0  0
 10  8  1  6  0  0  0
 11 15  2  0  0  0  0
 12 24  1  0  0  0  0
 12 28  1  0  0  0  0
 13  9  2  0  0  0  0
 13 26  1  0  0  0  0
 14  8  1  0  0  0  0
 15 23  1  0  0  0  0
 16 20  1  0  0  0  0
 17 25  1  0  0  0  0
 17  5  1  0  0  0  0
 18  9  1  0  0  0  0
 19 15  1  0  0  0  0
 19 25  1  0  0  0  0
 20  4  2  0  0  0  0
 21 22  2  0  0  0  0
 22  4  1  0  0  0  0
 23  6  1  0  0  0  0
 24 26  1  0  0  0  0
 25 12  1  0  0  0  0
 26 10  1  0  0  0  0
 27  5  1  0  0  0  0
 28 10  1  0  0  0  0
 28 16  1  0  0  0  0
M  END
>  <MODEL>
4

>  <REMARK>
 VINA RESULT:      -5.4      2.752      4.127
  Name = 
  0 active torsions:
  status: ('A' for Active; 'I' for Inactive)
                            x       y       z     vdW  Elec       q    Type
                         _______ _______ _______ _____ _____    ______ ____

>  <TORSDO>
F 0

$$$$
=
 OpenBabel11122411553D

 28 32  0  0  1  0  0  0  0  0999 V2000
  184.2740  177.2260  137.9280 C   0  0  0  0  0  0  0  0  0  0  0  0
  181.7330  179.5040  136.9160 O   0  0  0  0  0  0  0  0  0  0  0  0
  182.5600  179.5670  143.6070 O   0  0  0  0  0  0  0  0  0  0  0  0
  183.3680  174.6010  137.5520 C   0  0  0  0  0  3  0  0  0  0  0  0
  180.8440  178.5290  142.3840 N   0  0  0  0  0  0  0  0  0  0  0  0
  184.8080  178.6080  138.1360 C   0  0  0  0  0  2  0  0  0  0  0  0
  179.8820  178.0220  136.2780 O   0  0  0  0  0  0  0  0  0  0  0  0
  180.4590  178.8570  137.3850 S   0  0  0  0  0  0  0  0  0  0  0  0
  179.6660  180.6030  139.2230 C   0  0  0  0  0  0  0  0  0  0  0  0
  180.7510  177.8330  138.8250 C   0  0  2  0  0  3  0  0  0  0  0  0
  186.1180  178.8350  141.5560 O   0  0  0  0  0  0  0  0  0  0  0  0
  182.1860  177.4340  140.7370 C   0  0  2  0  0  3  0  0  0  0  0  0
  179.9970  179.7810  140.1730 N   0  0  0  0  0  0  0  0  0  0  0  0
  179.2950  180.1090  137.8630 C   0  0  0  0  0  2  0  0  0  0  0  0
  185.2890  178.9300  140.6130 C   0  0  0  0  0  0  0  0  0  0  0  0
  183.0320  176.8290  138.4610 C   0  0  0  0  0  0  0  0  0  0  0  0
  182.1930  178.8660  142.6260 C   0  0  0  0  0  0  0  0  0  0  0  0
  179.6870  182.0030  139.4690 N   0  0  0  0  0  1  0  0  0  0  0  0
  183.8940  179.3780  140.9110 C   0  0  0  0  0  2  0  0  0  0  0  0
  182.5910  175.5100  138.2720 C   0  0  0  0  0  3  0  0  0  0  0  0
  185.0480  176.3070  137.2110 C   0  0  0  0  0  3  0  0  0  0  0  0
  184.5960  174.9990  137.0210 C   0  0  0  0  0  3  0  0  0  0  0  0
  185.7100  178.6280  139.2800 N   0  0  0  0  0  2  0  0  0  0  0  0
  180.7420  177.6640  141.2220 C   0  0  2  0  0  3  0  0  0  0  0  0
  183.1260  178.2760  141.6400 C   0  0  2  0  0  3  0  0  0  0  0  0
  179.9840  178.3130  140.0560 C   0  0  2  0  0  3  0  0  0  0  0  0
  179.7410  178.8200  143.2870 C   0  0  0  0  0  1  0  0  0  0  0  0
  182.2040  177.7990  139.2550 C   0  0  1  0  0  3  0  0  0  0  0  0
  1  6  1  0  0  0  0
  1 16  1  0  0  0  0
  2  8  2  0  0  0  0
  4 20  1  0  0  0  0
  5 17  1  0  0  0  0
  5 27  1  0  0  0  0
  6 23  1  0  0  0  0
  7  8  2  0  0  0  0
  8 14  1  0  0  0  0
  9 18  1  0  0  0  0
  9 13  2  0  0  0  0
 10  8  1  6  0  0  0
 10 28  1  0  0  0  0
 10 26  1  0  0  0  0
 12 24  1  0  0  0  0
 12 25  1  0  0  0  0
 14  9  1  0  0  0  0
 15 19  1  0  0  0  0
 15 11  2  0  0  0  0
 16 28  1  0  0  0  0
 17  3  2  0  0  0  0
 19 25  1  0  0  0  0
 20 16  2  0  0  0  0
 21  1  2  0  0  0  0
 22 21  1  0  0  0  0
 22  4  2  0  0  0  0
 23 15  1  0  0  0  0
 24  5  1  0  0  0  0
 25 17  1  0  0  0  0
 26 13  1  0  0  0  0
 26 24  1  0  0  0  0
 28 12  1  0  0  0  0
M  END
>  <MODEL>
5

>  <REMARK>
 VINA RESULT:      -5.2      2.720      5.395
  Name = 
  0 active torsions:
  status: ('A' for Active; 'I' for Inactive)
                            x       y       z     vdW  Elec       q    Type
                         _______ _______ _______ _____ _____    ______ ____

>  <TORSDO>
F 0

$$$$
=
 OpenBabel11122411553D

 28 32  0  0  1  0  0  0  0  0999 V2000
  181.8410  178.7350  139.6570 C   0  0  0  0  0  0  0  0  0  0  0  0
  181.8540  175.2560  138.9070 O   0  0  0  0  0  0  0  0  0  0  0  0
  188.0730  177.8440  138.6390 O   0  0  0  0  0  0  0  0  0  0  0  0
  180.6190  180.1320  137.5570 C   0  0  0  0  0  3  0  0  0  0  0  0
  186.6690  177.2980  136.8370 N   0  0  0  0  0  0  0  0  0  0  0  0
  182.4910  178.0360  140.8090 C   0  0  0  0  0  2  0  0  0  0  0  0
  180.8460  175.1680  136.6700 O   0  0  0  0  0  0  0  0  0  0  0  0
  182.1400  175.2050  137.4320 S   0  0  0  0  0  0  0  0  0  0  0  0
  184.5200  174.0250  137.4310 C   0  0  0  0  0  0  0  0  0  0  0  0
  183.1050  176.6220  136.9150 C   0  0  2  0  0  3  0  0  0  0  0  0
  185.6860  179.6960  141.5140 O   0  0  0  0  0  0  0  0  0  0  0  0
  184.6630  178.3420  137.6140 C   0  0  2  0  0  3  0  0  0  0  0  0
  185.0970  175.1490  137.1270 N   0  0  0  0  0  0  0  0  0  0  0  0
  183.0980  173.7570  137.0610 C   0  0  0  0  0  2  0  0  0  0  0  0
  184.8880  178.8600  141.0140 C   0  0  0  0  0  0  0  0  0  0  0  0
  182.2740  178.5300  138.3320 C   0  0  0  0  0  0  0  0  0  0  0  0
  186.9320  177.8610  138.1050 C   0  0  0  0  0  0  0  0  0  0  0  0
  185.2420  173.0410  138.1600 N   0  0  0  0  0  1  0  0  0  0  0  0
  185.4090  177.8450  140.0480 C   0  0  0  0  0  2  0  0  0  0  0  0
  181.6590  179.2400  137.2890 C   0  0  0  0  0  3  0  0  0  0  0  0
  180.8010  179.6350  139.9170 C   0  0  0  0  0  3  0  0  0  0  0  0
  180.1900  180.3280  138.8710 C   0  0  0  0  0  3  0  0  0  0  0  0
  183.5120  178.8890  141.4010 N   0  0  0  0  0  2  0  0  0  0  0  0
  185.2850  177.5280  136.4620 C   0  0  2  0  0  3  0  0  0  0  0  0
  185.7470  178.5060  138.7120 C   0  0  2  0  0  3  0  0  0  0  0  0
  184.4700  176.2310  136.3510 C   0  0  2  0  0  3  0  0  0  0  0  0
  187.6810  176.7620  135.9410 C   0  0  0  0  0  1  0  0  0  0  0  0
  183.4070  177.5880  138.0430 C   0  0  1  0  0  3  0  0  0  0  0  0
  1 21  1  0  0  0  0
  1  6  1  0  0  0  0
  4 22  1  0  0  0  0
  5 17  1  0  0  0  0
  6 23  1  0  0  0  0
  7  8  2  0  0  0  0
  8  2  2  0  0  0  0
  9 18  1  0  0  0  0
 10  8  1  1  0  0  0
 10 28  1  0  0  0  0
 12 28  1  0  0  0  0
 12 25  1  0  0  0  0
 13  9  2  0  0  0  0
 14  9  1  0  0  0  0
 14  8  1  0  0  0  0
 15 23  1  0  0  0  0
 15 11  2  0  0  0  0
 16  1  2  0  0  0  0
 17  3  2  0  0  0  0
 17 25  1  0  0  0  0
 19 15  1  0  0  0  0
 20  4  2  0  0  0  0
 20 16  1  0  0  0  0
 22 21  2  0  0  0  0
 24  5  1  0  0  0  0
 24 12  1  0  0  0  0
 25 19  1  0  0  0  0
 26 24  1  0  0  0  0
 26 10  1  0  0  0  0
 26 13  1  0  0  0  0
 27  5  1  0  0  0  0
 28 16  1  0  0  0  0
M  END
>  <MODEL>
6

>  <REMARK>
 VINA RESULT:      -4.9      3.280      5.579
  Name = 
  0 active torsions:
  status: ('A' for Active; 'I' for Inactive)
                            x       y       z     vdW  Elec       q    Type
                         _______ _______ _______ _____ _____    ______ ____

>  <TORSDO>
F 0

$$$$
=
 OpenBabel11122411553D

 28 32  0  0  1  0  0  0  0  0999 V2000
  182.3320  178.3060  141.8210 C   0  0  0  0  0  0  0  0  0  0  0  0
  181.3440  175.1730  140.4520 O   0  0  0  0  0  0  0  0  0  0  0  0
  181.7340  179.9200  135.6800 O   0  0  0  0  0  0  0  0  0  0  0  0
  180.2470  179.3320  143.3880 C   0  0  0  0  0  3  0  0  0  0  0  0
  179.7970  179.0570  136.6900 N   0  0  0  0  0  0  0  0  0  0  0  0
  183.4780  177.7980  141.0050 C   0  0  0  0  0  2  0  0  0  0  0  0
  179.0360  174.9230  141.2490 O   0  0  0  0  0  0  0  0  0  0  0  0
  179.8950  175.3720  140.1030 S   0  0  0  0  0  0  0  0  0  0  0  0
  179.9950  175.1770  137.4550 C   0  0  0  0  0  0  0  0  0  0  0  0
  179.5540  177.0880  139.7270 C   0  0  2  0  0  3  0  0  0  0  0  0
  184.5410  180.4620  138.7180 O   0  0  0  0  0  0  0  0  0  0  0  0
  180.4890  179.1940  138.9740 C   0  0  2  0  0  3  0  0  0  0  0  0
  179.8150  176.4580  137.3360 N   0  0  0  0  0  0  0  0  0  0  0  0
  179.4980  174.4310  138.6500 C   0  0  0  0  0  2  0  0  0  0  0  0
  183.9240  179.4380  139.1140 C   0  0  0  0  0  0  0  0  0  0  0  0
  181.0330  178.4040  141.2840 C   0  0  0  0  0  0  0  0  0  0  0  0
  181.1170  179.5570  136.7170 C   0  0  0  0  0  0  0  0  0  0  0  0
  180.7060  174.4720  136.4460 N   0  0  0  0  0  1  0  0  0  0  0  0
  182.9320  178.7880  138.2040 C   0  0  0  0  0  2  0  0  0  0  0  0
  179.9980  178.9250  142.0760 C   0  0  0  0  0  3  0  0  0  0  0  0
  182.5740  178.7210  143.1350 C   0  0  0  0  0  3  0  0  0  0  0  0
  181.5350  179.2290  143.9180 C   0  0  0  0  0  3  0  0  0  0  0  0
  184.2050  178.9130  140.4140 N   0  0  0  0  0  2  0  0  0  0  0  0
  179.3340  178.7850  138.0380 C   0  0  2  0  0  3  0  0  0  0  0  0
  181.6760  179.6500  138.0840 C   0  0  2  0  0  3  0  0  0  0  0  0
  179.0700  177.2940  138.2930 C   0  0  2  0  0  3  0  0  0  0  0  0
  178.9450  179.0260  135.5110 C   0  0  0  0  0  1  0  0  0  0  0  0
  180.7670  177.9880  139.8660 C   0  0  1  0  0  3  0  0  0  0  0  0
  1 21  1  0  0  0  0
  3 17  2  0  0  0  0
  4 22  1  0  0  0  0
  5 17  1  0  0  0  0
  5 24  1  0  0  0  0
  6  1  1  0  0  0  0
  8  2  2  0  0  0  0
  8  7  2  0  0  0  0
  9 14  1  0  0  0  0
 10 28  1  0  0  0  0
 10  8  1  6  0  0  0
 11 15  2  0  0  0  0
 12 28  1  0  0  0  0
 13  9  2  0  0  0  0
 13 26  1  0  0  0  0
 14  8  1  0  0  0  0
 15 23  1  0  0  0  0
 16  1  2  0  0  0  0
 16 20  1  0  0  0  0
 17 25  1  0  0  0  0
 18  9  1  0  0  0  0
 19 15  1  0  0  0  0
 20  4  2  0  0  0  0
 21 22  2  0  0  0  0
 23  6  1  0  0  0  0
 24 26  1  0  0  0  0
 24 12  1  0  0  0  0
 25 19  1  0  0  0  0
 25 12  1  0  0  0  0
 26 10  1  0  0  0  0
 27  5  1  0  0  0  0
 28 16  1  0  0  0  0
M  END
>  <MODEL>
7

>  <REMARK>
 VINA RESULT:      -4.9      2.166      4.635
  Name = 
  0 active torsions:
  status: ('A' for Active; 'I' for Inactive)
                            x       y       z     vdW  Elec       q    Type
                         _______ _______ _______ _____ _____    ______ ____

>  <TORSDO>
F 0

$$$$
=
 OpenBabel11122411553D

 28 32  0  0  1  0  0  0  0  0999 V2000
  181.5470  178.2100  137.6130 C   0  0  0  0  0  0  0  0  0  0  0  0
  181.8800  174.6690  137.7230 O   0  0  0  0  0  0  0  0  0  0  0  0
  187.8920  177.7060  138.0160 O   0  0  0  0  0  0  0  0  0  0  0  0
  180.7110  178.9840  135.0520 C   0  0  0  0  0  3  0  0  0  0  0  0
  186.9110  176.6430  136.1650 N   0  0  0  0  0  0  0  0  0  0  0  0
  181.9830  177.8490  138.9980 C   0  0  0  0  0  2  0  0  0  0  0  0
  181.3540  173.9910  135.4220 O   0  0  0  0  0  0  0  0  0  0  0  0
  182.4630  174.3180  136.3820 S   0  0  0  0  0  0  0  0  0  0  0  0
  184.8470  173.3970  137.1050 C   0  0  0  0  0  0  0  0  0  0  0  0
  183.4430  175.6680  135.7340 C   0  0  2  0  0  3  0  0  0  0  0  0
  184.8830  179.9180  139.8740 O   0  0  0  0  0  0  0  0  0  0  0  0
  184.7410  177.6400  136.2850 C   0  0  2  0  0  3  0  0  0  0  0  0
  185.4190  174.4740  136.6570 N   0  0  0  0  0  0  0  0  0  0  0  0
  183.5450  172.9210  136.5490 C   0  0  0  0  0  2  0  0  0  0  0  0
  184.2450  178.9200  139.4460 C   0  0  0  0  0  0  0  0  0  0  0  0
  182.2500  177.7580  136.4790 C   0  0  0  0  0  0  0  0  0  0  0  0
  186.8840  177.4960  137.2900 C   0  0  0  0  0  0  0  0  0  0  0  0
  185.4520  172.6720  138.1670 N   0  0  0  0  0  1  0  0  0  0  0  0
  185.0000  177.7690  138.8620 C   0  0  0  0  0  2  0  0  0  0  0  0
  181.8260  178.1560  135.2010 C   0  0  0  0  0  3  0  0  0  0  0  0
  180.4340  179.0430  137.4540 C   0  0  0  0  0  3  0  0  0  0  0  0
  180.0150  179.4260  136.1780 C   0  0  0  0  0  3  0  0  0  0  0  0
  182.8190  178.9050  139.5510 N   0  0  0  0  0  2  0  0  0  0  0  0
  185.6230  176.6530  135.4950 C   0  0  2  0  0  3  0  0  0  0  0  0
  185.5700  178.1460  137.4950 C   0  0  2  0  0  3  0  0  0  0  0  0
  184.9120  175.2930  135.5440 C   0  0  2  0  0  3  0  0  0  0  0  0
  188.1090  176.0190  135.6260 C   0  0  0  0  0  1  0  0  0  0  0  0
  183.4620  176.8860  136.6380 C   0  0  1  0  0  3  0  0  0  0  0  0
  1  6  1  0  0  0  0
  4 20  2  0  0  0  0
  4 22  1  0  0  0  0
  5 17  1  0  0  0  0
  6 23  1  0  0  0  0
  7  8  2  0  0  0  0
  8 14  1  0  0  0  0
  8  2  2  0  0  0  0
  9 18  1  0  0  0  0
 10  8  1  1  0  0  0
 10 28  1  0  0  0  0
 12 28  1  0  0  0  0
 12 25  1  0  0  0  0
 13  9  2  0  0  0  0
 14  9  1  0  0  0  0
 15 23  1  0  0  0  0
 15 11  2  0  0  0  0
 16 28  1  0  0  0  0
 16  1  2  0  0  0  0
 17 25  1  0  0  0  0
 17  3  2  0  0  0  0
 19 15  1  0  0  0  0
 20 16  1  0  0  0  0
 21  1  1  0  0  0  0
 22 21  2  0  0  0  0
 24 26  1  0  0  0  0
 24  5  1  0  0  0  0
 24 12  1  0  0  0  0
 25 19  1  0  0  0  0
 26 10  1  0  0  0  0
 26 13  1  0  0  0  0
 27  5  1  0  0  0  0
M  END
>  <MODEL>
8

>  <REMARK>
 VINA RESULT:      -4.9      3.425      6.329
  Name = 
  0 active torsions:
  status: ('A' for Active; 'I' for Inactive)
                            x       y       z     vdW  Elec       q    Type
                         _______ _______ _______ _____ _____    ______ ____

>  <TORSDO>
F 0

$$$$
=
 OpenBabel11122411553D

 28 32  0  0  1  0  0  0  0  0999 V2000
  182.8420  176.4340  137.2170 C   0  0  0  0  0  0  0  0  0  0  0  0
  184.8900  173.5230  137.2750 O   0  0  0  0  0  0  0  0  0  0  0  0
  188.6160  179.1390  137.1080 O   0  0  0  0  0  0  0  0  0  0  0  0
  181.5490  176.6080  134.7370 C   0  0  0  0  0  3  0  0  0  0  0  0
  188.1570  177.6700  135.3340 N   0  0  0  0  0  0  0  0  0  0  0  0
  183.4990  176.3800  138.5600 C   0  0  0  0  0  2  0  0  0  0  0  0
  184.6010  172.5980  135.0190 O   0  0  0  0  0  0  0  0  0  0  0  0
  185.4700  173.4610  135.8890 S   0  0  0  0  0  0  0  0  0  0  0  0
  188.0430  173.8610  136.4120 C   0  0  0  0  0  0  0  0  0  0  0  0
  185.6040  175.0970  135.1740 C   0  0  2  0  0  3  0  0  0  0  0  0
  185.0520  179.6390  139.2170 O   0  0  0  0  0  0  0  0  0  0  0  0
  185.7940  177.4700  135.6340 C   0  0  2  0  0  3  0  0  0  0  0  0
  187.9730  175.0650  135.9280 N   0  0  0  0  0  0  0  0  0  0  0  0
  187.1100  172.7860  135.9590 C   0  0  0  0  0  2  0  0  0  0  0  0
  184.9620  178.4430  138.8340 C   0  0  0  0  0  0  0  0  0  0  0  0
  183.5920  176.3490  136.0270 C   0  0  0  0  0  0  0  0  0  0  0  0
  187.7940  178.4350  136.4630 C   0  0  0  0  0  0  0  0  0  0  0  0
  189.0030  173.5650  137.4170 N   0  0  0  0  0  1  0  0  0  0  0  0
  186.1420  177.7950  138.1830 C   0  0  0  0  0  2  0  0  0  0  0  0
  182.9340  176.4440  134.7910 C   0  0  0  0  0  3  0  0  0  0  0  0
  181.4550  176.6030  137.1540 C   0  0  0  0  0  3  0  0  0  0  0  0
  180.8090  176.6870  135.9180 C   0  0  0  0  0  3  0  0  0  0  0  0
  183.7420  177.7300  139.0520 N   0  0  0  0  0  2  0  0  0  0  0  0
  186.9880  177.0200  134.7690 C   0  0  2  0  0  3  0  0  0  0  0  0
  186.3500  178.3580  136.7780 C   0  0  2  0  0  3  0  0  0  0  0  0
  187.0480  175.4890  134.8640 C   0  0  2  0  0  3  0  0  0  0  0  0
  189.4640  177.7000  134.6960 C   0  0  0  0  0  1  0  0  0  0  0  0
  185.0840  176.1950  136.0820 C   0  0  1  0  0  3  0  0  0  0  0  0
  1  6  1  0  0  0  0
  4 20  2  0  0  0  0
  4 22  1  0  0  0  0
  5 17  1  0  0  0  0
  6 23  1  0  0  0  0
  7  8  2  0  0  0  0
  8 14  1  0  0  0  0
  8  2  2  0  0  0  0
  9 18  1  0  0  0  0
 10  8  1  1  0  0  0
 10 28  1  0  0  0  0
 12 28  1  0  0  0  0
 12 25  1  0  0  0  0
 13  9  2  0  0  0  0
 14  9  1  0  0  0  0
 15 23  1  0  0  0  0
 15 11  2  0  0  0  0
 16 28  1  0  0  0  0
 16  1  2  0  0  0  0
 17 25  1  0  0  0  0
 17  3  2  0  0  0  0
 19 15  1  0  0  0  0
 20 16  1  0  0  0  0
 21  1  1  0  0  0  0
 22 21  2  0  0  0  0
 24 26  1  0  0  0  0
 24  5  1  0  0  0  0
 24 12  1  0  0  0  0
 25 19  1  0  0  0  0
 26 10  1  0  0  0  0
 26 13  1  0  0  0  0
 27  5  1  0  0  0  0
M  END
>  <MODEL>
9

>  <REMARK>
 VINA RESULT:      -4.7      4.767      7.582
  Name = 
  0 active torsions:
  status: ('A' for Active; 'I' for Inactive)
                            x       y       z     vdW  Elec       q    Type
                         _______ _______ _______ _____ _____    ______ ____

>  <TORSDO>
F 0

$$$$
