=
 OpenBabel11122412253D

 34 41  0  0  1  0  0  0  0  0999 V2000
  182.3340  178.9880  143.3720 C   0  0  0  0  0  0  0  0  0  0  0  0
  183.6110  178.5710  145.4680 C   0  0  0  0  0  2  0  0  0  0  0  0
  181.7570  177.7460  137.0150 C   0  0  2  0  0  3  0  0  0  0  0  0
  181.3090  178.2670  141.3170 C   0  0  0  0  0  0  0  0  0  0  0  0
  182.8000  178.1340  139.2480 C   0  0  2  0  0  3  0  0  0  0  0  0
  184.1260  177.9770  137.2640 O   0  0  0  0  0  1  0  0  0  0  0  0
  181.5410  179.1190  136.8610 O   0  0  0  0  0  1  0  0  0  0  0  0
  180.2800  177.3230  139.1080 C   0  0  1  0  0  3  0  0  0  0  0  0
  184.9070  179.2920  143.5370 C   0  0  2  0  0  3  0  0  0  0  0  0
  187.8440  178.0320  143.3920 C   0  0  0  0  0  2  0  0  0  0  0  0
  183.8700  177.7700  140.1740 N   0  0  0  0  0  2  0  0  0  0  0  0
  181.1300  176.4450  139.8190 O   0  0  0  0  0  0  0  0  0  0  0  0
  184.9640  178.3770  142.2920 C   0  0  1  0  0  3  0  0  0  0  0  0
  185.0320  178.7540  145.9380 C   0  0  0  0  0  2  0  0  0  0  0  0
  181.4510  177.8110  139.9000 C   0  0  2  0  0  0  0  0  0  0  0  0
  180.5150  177.0800  137.6070 C   0  0  0  0  0  2  0  0  0  0  0  0
  186.7980  177.7070  144.4490 C   0  0  2  0  0  3  0  0  0  0  0  0
  182.4720  178.5960  142.0360 C   0  0  0  0  0  0  0  0  0  0  0  0
  182.9820  177.4760  137.8860 C   0  0  2  0  0  3  0  0  0  0  0  0
  183.8110  178.6750  141.3320 C   0  0  2  0  0  3  0  0  0  0  0  0
  179.9840  178.6980  143.2230 C   0  0  0  0  0  3  0  0  0  0  0  0
  187.3480  177.6600  142.0090 C   0  0  0  0  0  2  0  0  0  0  0  0
  180.0960  178.3140  141.9250 N   0  0  0  0  0  0  0  0  0  0  0  0
  186.2710  178.6230  141.5470 C   0  0  0  0  0  2  0  0  0  0  0  0
  185.8860  178.9290  144.6840 C   0  0  1  0  0  3  0  0  0  0  0  0
  181.0940  179.0320  143.9310 N   0  0  0  0  0  0  0  0  0  0  0  0
  183.5240  179.3870  144.2010 C   0  0  1  0  0  3  0  0  0  0  0  0
  187.5280  177.3090  145.7260 C   0  0  0  0  0  2  0  0  0  0  0  0
  188.7700  178.1640  145.9130 C   0  0  0  0  0  2  0  0  0  0  0  0
  191.3750  176.0160  147.4830 N   0  0  0  0  0  0  0  0  0  0  0  0
  191.1860  176.9270  145.1680 S   0  0  0  0  0  0  0  0  0  0  0  0
  189.9380  177.2980  146.2240 C   0  0  0  0  0  0  0  0  0  0  0  0
  192.0390  176.0230  146.3030 C   0  0  0  0  0  3  0  0  0  0  0  0
  190.2130  176.7220  147.4540 C   0  0  0  0  0  3  0  0  0  0  0  0
  1 26  1  0  0  0  0
  1 27  1  0  0  0  0
  2 14  1  0  0  0  0
  3  7  1  1  0  0  0
  3 16  1  0  0  0  0
  3 19  1  0  0  0  0
  4 23  2  0  0  0  0
  4 18  1  0  0  0  0
  5 15  1  0  0  0  0
  5 11  1  1  0  0  0
  6 19  1  0  0  0  0
  8 16  1  6  0  0  0
  8 12  1  0  0  0  0
  8 15  1  0  0  0  0
  9 27  1  0  0  0  0
  9 25  1  0  0  0  0
 10 17  1  0  0  0  0
 11 20  1  0  0  0  0
 12 15  1  0  0  0  0
 13  9  1  0  0  0  0
 15  4  1  0  0  0  0
 17 25  1  0  0  0  0
 17 28  1  0  0  0  0
 18  1  2  0  0  0  0
 19  5  1  0  0  0  0
 20 18  1  0  0  0  0
 20 13  1  0  0  0  0
 21 26  2  0  0  0  0
 22 10  1  0  0  0  0
 23 21  1  0  0  0  0
 24 22  1  0  0  0  0
 24 13  1  0  0  0  0
 25 14  1  0  0  0  0
 27  2  1  0  0  0  0
 28 29  1  0  0  0  0
 29 32  1  0  0  0  0
 31 32  1  0  0  0  0
 31 33  1  0  0  0  0
 32 34  2  0  0  0  0
 33 30  2  0  0  0  0
 34 30  1  0  0  0  0
M  END
>  <MODEL>
1

>  <REMARK>
 VINA RESULT:      -9.7      0.000      0.000
  Name = 
  3 active torsions:
  status: ('A' for Active; 'I' for Inactive)
    1  A    between atoms: C_17  and  C_28
    2  A    between atoms: C_28  and  C_29
    3  A    between atoms: C_29  and  C_32
                            x       y       z     vdW  Elec       q    Type
                         _______ _______ _______ _____ _____    ______ ____

>  <TORSDO>
F 3

$$$$
=
 OpenBabel11122412253D

 34 41  0  0  1  0  0  0  0  0999 V2000
  187.8330  178.0660  139.9820 C   0  0  0  0  0  0  0  0  0  0  0  0
  185.6160  178.0090  138.8520 C   0  0  0  0  0  2  0  0  0  0  0  0
  191.2040  176.8580  145.4110 C   0  0  2  0  0  3  0  0  0  0  0  0
  189.5340  177.1150  141.3950 C   0  0  0  0  0  0  0  0  0  0  0  0
  189.3140  177.4940  143.9100 C   0  0  2  0  0  3  0  0  0  0  0  0
  189.1810  177.7980  146.2790 O   0  0  0  0  0  1  0  0  0  0  0  0
  191.8060  178.1030  145.2020 O   0  0  0  0  0  1  0  0  0  0  0  0
  191.2590  175.9550  142.9770 C   0  0  1  0  0  3  0  0  0  0  0  0
  185.7020  179.1380  141.0070 C   0  0  2  0  0  3  0  0  0  0  0  0
  183.0330  178.8410  142.7450 C   0  0  0  0  0  2  0  0  0  0  0  0
  187.8710  177.4520  143.6830 N   0  0  0  0  0  2  0  0  0  0  0  0
  189.9770  175.3610  142.9200 O   0  0  0  0  0  0  0  0  0  0  0  0
  186.0530  178.3150  142.2680 C   0  0  1  0  0  3  0  0  0  0  0  0
  184.2520  178.6070  139.0880 C   0  0  0  0  0  2  0  0  0  0  0  0
  190.0170  176.7580  142.7640 C   0  0  2  0  0  0  0  0  0  0  0  0
  191.7620  175.8300  144.4270 C   0  0  0  0  0  2  0  0  0  0  0  0
  183.2810  178.1860  141.3930 C   0  0  2  0  0  3  0  0  0  0  0  0
  188.2950  177.7670  141.2690 C   0  0  0  0  0  0  0  0  0  0  0  0
  189.6850  176.9550  145.2870 C   0  0  2  0  0  3  0  0  0  0  0  0
  187.5640  178.2680  142.4980 C   0  0  2  0  0  3  0  0  0  0  0  0
  189.7750  177.0730  139.0470 C   0  0  0  0  0  3  0  0  0  0  0  0
  184.0470  178.3680  143.7670 C   0  0  0  0  0  2  0  0  0  0  0  0
  190.2410  176.7730  140.2870 N   0  0  0  0  0  0  0  0  0  0  0  0
  185.4130  178.9660  143.4880 C   0  0  0  0  0  2  0  0  0  0  0  0
  184.2240  179.0650  140.5450 C   0  0  1  0  0  3  0  0  0  0  0  0
  188.5860  177.7150  138.9040 N   0  0  0  0  0  0  0  0  0  0  0  0
  186.5330  178.7900  139.7610 C   0  0  1  0  0  3  0  0  0  0  0  0
  181.9330  178.0010  140.7070 C   0  0  0  0  0  2  0  0  0  0  0  0
  180.8400  178.7080  141.4880 C   0  0  0  0  0  2  0  0  0  0  0  0
  180.1580  181.3720  138.9770 N   0  0  0  0  0  0  0  0  0  0  0  0
  179.1630  180.9530  141.2270 S   0  0  0  0  0  0  0  0  0  0  0  0
  180.3220  179.8610  140.7040 C   0  0  0  0  0  0  0  0  0  0  0  0
  179.2430  181.8900  139.8300 C   0  0  0  0  0  3  0  0  0  0  0  0
  180.7660  180.2520  139.4520 C   0  0  0  0  0  3  0  0  0  0  0  0
  1 18  1  0  0  0  0
  2 14  1  0  0  0  0
  2 27  1  0  0  0  0
  3  7  1  6  0  0  0
  4 15  1  0  0  0  0
  5 11  1  6  0  0  0
  5 19  1  0  0  0  0
  8 16  1  1  0  0  0
  9 13  1  0  0  0  0
 10 22  1  0  0  0  0
 12  8  1  0  0  0  0
 13 20  1  0  0  0  0
 13 24  1  0  0  0  0
 14 25  1  0  0  0  0
 15 12  1  0  0  0  0
 15  8  1  0  0  0  0
 15  5  1  0  0  0  0
 16  3  1  0  0  0  0
 17 10  1  0  0  0  0
 18  4  2  0  0  0  0
 18 20  1  0  0  0  0
 19  3  1  0  0  0  0
 19  6  1  0  0  0  0
 20 11  1  0  0  0  0
 21 23  2  0  0  0  0
 23  4  1  0  0  0  0
 24 22  1  0  0  0  0
 25  9  1  0  0  0  0
 25 17  1  0  0  0  0
 26 21  1  0  0  0  0
 26  1  2  0  0  0  0
 27  1  1  0  0  0  0
 27  9  1  0  0  0  0
 28 17  1  0  0  0  0
 28 29  1  0  0  0  0
 30 34  1  0  0  0  0
 30 33  2  0  0  0  0
 32 31  1  0  0  0  0
 32 29  1  0  0  0  0
 33 31  1  0  0  0  0
 34 32  2  0  0  0  0
M  END
>  <MODEL>
2

>  <REMARK>
 VINA RESULT:      -9.2      4.525      9.213
  Name = 
  3 active torsions:
  status: ('A' for Active; 'I' for Inactive)
    1  A    between atoms: C_17  and  C_28
    2  A    between atoms: C_28  and  C_29
    3  A    between atoms: C_29  and  C_32
                            x       y       z     vdW  Elec       q    Type
                         _______ _______ _______ _____ _____    ______ ____

>  <TORSDO>
F 3

$$$$
=
 OpenBabel11122412253D

 34 41  0  0  1  0  0  0  0  0999 V2000
  188.7590  178.1380  138.3880 C   0  0  0  0  0  0  0  0  0  0  0  0
  186.9930  178.1310  140.1430 C   0  0  0  0  0  2  0  0  0  0  0  0
  194.2750  175.4670  136.2120 C   0  0  2  0  0  3  0  0  0  0  0  0
  190.2620  177.0320  136.8680 C   0  0  0  0  0  0  0  0  0  0  0  0
  192.5260  176.2910  137.7890 C   0  0  2  0  0  3  0  0  0  0  0  0
  194.6650  175.5610  138.5720 O   0  0  0  0  0  1  0  0  0  0  0  0
  194.7120  176.7770  135.9900 O   0  0  0  0  0  1  0  0  0  0  0  0
  191.8530  175.6750  135.3010 C   0  0  1  0  0  3  0  0  0  0  0  0
  189.2950  178.2660  140.9260 C   0  0  2  0  0  3  0  0  0  0  0  0
  189.8160  176.7780  143.7090 C   0  0  0  0  0  2  0  0  0  0  0  0
  191.8210  176.0740  139.0500 N   0  0  0  0  0  2  0  0  0  0  0  0
  191.1680  174.9250  136.2850 O   0  0  0  0  0  0  0  0  0  0  0  0
  190.2470  177.0790  140.6520 C   0  0  1  0  0  3  0  0  0  0  0  0
  186.9370  178.3070  141.6390 C   0  0  0  0  0  2  0  0  0  0  0  0
  191.5120  176.2420  136.6410 C   0  0  2  0  0  0  0  0  0  0  0  0
  193.2570  175.0620  135.1460 C   0  0  0  0  0  2  0  0  0  0  0  0
  188.4930  176.7980  142.9550 C   0  0  2  0  0  3  0  0  0  0  0  0
  189.9480  177.4290  138.1790 C   0  0  0  0  0  0  0  0  0  0  0  0
  193.6820  175.3150  137.6110 C   0  0  2  0  0  3  0  0  0  0  0  0
  190.9470  177.2310  139.3000 C   0  0  2  0  0  3  0  0  0  0  0  0
  188.2660  178.0080  136.0710 C   0  0  0  0  0  3  0  0  0  0  0  0
  190.9020  176.1270  142.8740 C   0  0  0  0  0  2  0  0  0  0  0  0
  189.4140  177.3190  135.8460 N   0  0  0  0  0  0  0  0  0  0  0  0
  191.3200  177.0360  141.7340 C   0  0  0  0  0  2  0  0  0  0  0  0
  188.3620  178.1100  142.1540 C   0  0  1  0  0  3  0  0  0  0  0  0
  187.9500  178.4130  137.3290 N   0  0  0  0  0  0  0  0  0  0  0  0
  188.3650  178.6270  139.7550 C   0  0  1  0  0  3  0  0  0  0  0  0
  187.3700  176.6590  143.9750 C   0  0  0  0  0  2  0  0  0  0  0  0
  187.4290  177.7920  144.9850 C   0  0  0  0  0  2  0  0  0  0  0  0
  184.1790  178.6580  146.5820 N   0  0  0  0  0  0  0  0  0  0  0  0
  184.9240  178.8090  144.2060 S   0  0  0  0  0  0  0  0  0  0  0  0
  186.0540  178.2520  145.3110 C   0  0  0  0  0  0  0  0  0  0  0  0
  183.7180  179.0210  145.3620 C   0  0  0  0  0  3  0  0  0  0  0  0
  185.4680  178.2260  146.5670 C   0  0  0  0  0  3  0  0  0  0  0  0
  1 27  1  0  0  0  0
  2 14  1  0  0  0  0
  3  7  1  6  0  0  0
  3 19  1  0  0  0  0
  4 18  2  0  0  0  0
  5 11  1  1  0  0  0
  8 16  1  1  0  0  0
  8 12  1  0  0  0  0
  8 15  1  0  0  0  0
  9 25  1  0  0  0  0
 11 20  1  0  0  0  0
 12 15  1  0  0  0  0
 13  9  1  0  0  0  0
 13 24  1  0  0  0  0
 14 25  1  0  0  0  0
 15  4  1  0  0  0  0
 15  5  1  0  0  0  0
 16  3  1  0  0  0  0
 17 10  1  0  0  0  0
 17 28  1  0  0  0  0
 18  1  1  0  0  0  0
 18 20  1  0  0  0  0
 19  5  1  0  0  0  0
 19  6  1  0  0  0  0
 20 13  1  0  0  0  0
 21 26  1  0  0  0  0
 22 10  1  0  0  0  0
 23 21  2  0  0  0  0
 23  4  1  0  0  0  0
 24 22  1  0  0  0  0
 25 17  1  0  0  0  0
 26  1  2  0  0  0  0
 27  2  1  0  0  0  0
 27  9  1  0  0  0  0
 28 29  1  0  0  0  0
 29 32  1  0  0  0  0
 31 32  1  0  0  0  0
 31 33  1  0  0  0  0
 32 34  2  0  0  0  0
 33 30  2  0  0  0  0
 34 30  1  0  0  0  0
M  END
>  <MODEL>
3

>  <REMARK>
 VINA RESULT:      -9.1      5.669      8.401
  Name = 
  3 active torsions:
  status: ('A' for Active; 'I' for Inactive)
    1  A    between atoms: C_17  and  C_28
    2  A    between atoms: C_28  and  C_29
    3  A    between atoms: C_29  and  C_32
                            x       y       z     vdW  Elec       q    Type
                         _______ _______ _______ _____ _____    ______ ____

>  <TORSDO>
F 3

$$$$
=
 OpenBabel11122412253D

 34 41  0  0  1  0  0  0  0  0999 V2000
  188.1080  177.9620  139.6270 C   0  0  0  0  0  0  0  0  0  0  0  0
  186.0090  177.7810  138.3010 C   0  0  0  0  0  2  0  0  0  0  0  0
  190.9970  177.0760  145.3860 C   0  0  2  0  0  3  0  0  0  0  0  0
  189.7010  177.1270  141.2260 C   0  0  0  0  0  0  0  0  0  0  0  0
  189.2350  177.5850  143.6940 C   0  0  2  0  0  3  0  0  0  0  0  0
  188.8710  177.9670  146.0270 O   0  0  0  0  0  1  0  0  0  0  0  0
  191.5730  178.3340  145.1850 O   0  0  0  0  0  1  0  0  0  0  0  0
  191.3110  176.0900  143.0040 C   0  0  1  0  0  3  0  0  0  0  0  0
  185.8550  178.9880  140.4100 C   0  0  2  0  0  3  0  0  0  0  0  0
  183.0470  178.6510  141.9040 C   0  0  0  0  0  2  0  0  0  0  0  0
  187.8220  177.4810  143.3370 N   0  0  0  0  0  2  0  0  0  0  0  0
  190.0620  175.4460  142.8520 O   0  0  0  0  0  0  0  0  0  0  0  0
  186.1150  178.2230  141.7280 C   0  0  1  0  0  3  0  0  0  0  0  0
  184.6100  178.3350  138.3870 C   0  0  0  0  0  2  0  0  0  0  0  0
  190.0670  176.8370  142.6470 C   0  0  2  0  0  0  0  0  0  0  0  0
  191.6800  176.0360  144.4980 C   0  0  0  0  0  2  0  0  0  0  0  0
  183.4430  177.9590  140.6080 C   0  0  2  0  0  3  0  0  0  0  0  0
  188.4580  177.7260  140.9610 C   0  0  0  0  0  0  0  0  0  0  0  0
  189.4940  177.1100  145.1190 C   0  0  2  0  0  3  0  0  0  0  0  0
  187.5990  178.2420  142.0980 C   0  0  2  0  0  3  0  0  0  0  0  0
  190.1620  177.0130  138.9140 C   0  0  0  0  0  3  0  0  0  0  0  0
  183.9770  178.2530  143.0340 C   0  0  0  0  0  2  0  0  0  0  0  0
  190.5200  176.7740  140.2020 N   0  0  0  0  0  0  0  0  0  0  0  0
  185.3410  178.8930  142.8580 C   0  0  0  0  0  2  0  0  0  0  0  0
  184.4300  178.8420  139.8170 C   0  0  1  0  0  3  0  0  0  0  0  0
  188.9700  177.6030  138.6370 N   0  0  0  0  0  0  0  0  0  0  0  0
  186.8100  178.6280  139.2600 C   0  0  1  0  0  3  0  0  0  0  0  0
  182.1720  177.6980  139.8080 C   0  0  0  0  0  2  0  0  0  0  0  0
  181.8470  176.2150  139.7990 C   0  0  0  0  0  2  0  0  0  0  0  0
  183.1670  174.5830  136.7230 N   0  0  0  0  0  0  0  0  0  0  0  0
  181.0590  175.8580  137.1210 S   0  0  0  0  0  0  0  0  0  0  0  0
  182.0730  175.6540  138.4410 C   0  0  0  0  0  0  0  0  0  0  0  0
  182.0620  175.0100  136.0680 C   0  0  0  0  0  3  0  0  0  0  0  0
  183.1880  174.9390  138.0360 C   0  0  0  0  0  3  0  0  0  0  0  0
  1 18  1  0  0  0  0
  2 14  1  0  0  0  0
  2 27  1  0  0  0  0
  3  7  1  6  0  0  0
  4 15  1  0  0  0  0
  5 11  1  6  0  0  0
  5 19  1  0  0  0  0
  8 16  1  1  0  0  0
  9 13  1  0  0  0  0
 10 22  1  0  0  0  0
 12  8  1  0  0  0  0
 13 20  1  0  0  0  0
 13 24  1  0  0  0  0
 14 25  1  0  0  0  0
 15 12  1  0  0  0  0
 15  8  1  0  0  0  0
 15  5  1  0  0  0  0
 16  3  1  0  0  0  0
 17 10  1  0  0  0  0
 18  4  2  0  0  0  0
 18 20  1  0  0  0  0
 19  3  1  0  0  0  0
 19  6  1  0  0  0  0
 20 11  1  0  0  0  0
 21 23  2  0  0  0  0
 23  4  1  0  0  0  0
 24 22  1  0  0  0  0
 25  9  1  0  0  0  0
 25 17  1  0  0  0  0
 26 21  1  0  0  0  0
 26  1  2  0  0  0  0
 27  1  1  0  0  0  0
 27  9  1  0  0  0  0
 28 17  1  0  0  0  0
 29 28  1  0  0  0  0
 30 34  1  0  0  0  0
 31 32  1  0  0  0  0
 32 29  1  0  0  0  0
 33 30  2  0  0  0  0
 33 31  1  0  0  0  0
 34 32  2  0  0  0  0
M  END
>  <MODEL>
4

>  <REMARK>
 VINA RESULT:      -8.7      4.518      9.125
  Name = 
  3 active torsions:
  status: ('A' for Active; 'I' for Inactive)
    1  A    between atoms: C_17  and  C_28
    2  A    between atoms: C_28  and  C_29
    3  A    between atoms: C_29  and  C_32
                            x       y       z     vdW  Elec       q    Type
                         _______ _______ _______ _____ _____    ______ ____

>  <TORSDO>
F 3

$$$$
=
 OpenBabel11122412253D

 34 41  0  0  1  0  0  0  0  0999 V2000
  187.9460  177.2880  137.9470 C   0  0  0  0  0  0  0  0  0  0  0  0
  186.5550  177.9990  139.8850 C   0  0  0  0  0  2  0  0  0  0  0  0
  192.9890  173.7400  135.8820 C   0  0  2  0  0  3  0  0  0  0  0  0
  189.1480  175.6370  136.6740 C   0  0  0  0  0  0  0  0  0  0  0  0
  191.5620  175.1620  137.3550 C   0  0  2  0  0  3  0  0  0  0  0  0
  193.8280  174.6530  137.9290 O   0  0  0  0  0  1  0  0  0  0  0  0
  193.3460  174.8590  135.1230 O   0  0  0  0  0  1  0  0  0  0  0  0
  190.4320  173.7300  135.4320 C   0  0  1  0  0  3  0  0  0  0  0  0
  188.9620  178.2890  140.1170 C   0  0  2  0  0  3  0  0  0  0  0  0
  190.0450  177.8720  143.0970 C   0  0  0  0  0  2  0  0  0  0  0  0
  191.1210  175.4460  138.7180 N   0  0  0  0  0  2  0  0  0  0  0  0
  189.9680  173.4180  136.7310 O   0  0  0  0  0  0  0  0  0  0  0  0
  189.8680  177.0370  140.1150 C   0  0  1  0  0  3  0  0  0  0  0  0
  186.7870  178.7020  141.1990 C   0  0  0  0  0  2  0  0  0  0  0  0
  190.3460  174.7560  136.5160 C   0  0  2  0  0  0  0  0  0  0  0  0
  191.7920  173.0320  135.2470 C   0  0  0  0  0  2  0  0  0  0  0  0
  188.6010  177.6880  142.6510 C   0  0  2  0  0  3  0  0  0  0  0  0
  189.0860  176.4920  137.7870 C   0  0  0  0  0  0  0  0  0  0  0  0
  192.6830  174.1290  137.3260 C   0  0  2  0  0  3  0  0  0  0  0  0
  190.2880  176.6580  138.6940 C   0  0  2  0  0  3  0  0  0  0  0  0
  187.0140  176.3630  135.9710 C   0  0  0  0  0  3  0  0  0  0  0  0
  190.9620  176.9120  142.3650 C   0  0  0  0  0  2  0  0  0  0  0  0
  188.1110  175.5820  135.7980 N   0  0  0  0  0  0  0  0  0  0  0  0
  191.1310  177.3290  140.9160 C   0  0  0  0  0  2  0  0  0  0  0  0
  188.2880  178.6310  141.4710 C   0  0  1  0  0  3  0  0  0  0  0  0
  186.9400  177.2060  137.0330 N   0  0  0  0  0  0  0  0  0  0  0  0
  187.8140  178.2530  139.0930 C   0  0  1  0  0  3  0  0  0  0  0  0
  187.7010  177.9810  143.8460 C   0  0  0  0  0  2  0  0  0  0  0  0
  187.7530  176.8350  144.8410 C   0  0  0  0  0  2  0  0  0  0  0  0
  189.4320  177.7610  148.0340 N   0  0  0  0  0  0  0  0  0  0  0  0
  187.0720  178.0650  147.2790 S   0  0  0  0  0  0  0  0  0  0  0  0
  188.1230  177.3490  146.1860 C   0  0  0  0  0  0  0  0  0  0  0  0
  188.2480  178.2520  148.4700 C   0  0  0  0  0  3  0  0  0  0  0  0
  189.3740  177.2530  146.7730 C   0  0  0  0  0  3  0  0  0  0  0  0
  1 27  1  0  0  0  0
  2 14  1  0  0  0  0
  3  7  1  6  0  0  0
  3 19  1  0  0  0  0
  4 18  2  0  0  0  0
  5 11  1  1  0  0  0
  8 16  1  1  0  0  0
  8 15  1  0  0  0  0
  8 12  1  0  0  0  0
  9 25  1  0  0  0  0
 13  9  1  0  0  0  0
 13 24  1  0  0  0  0
 14 25  1  0  0  0  0
 15  4  1  0  0  0  0
 15 12  1  0  0  0  0
 15  5  1  0  0  0  0
 16  3  1  0  0  0  0
 17 10  1  0  0  0  0
 17 28  1  0  0  0  0
 18  1  1  0  0  0  0
 18 20  1  0  0  0  0
 19  5  1  0  0  0  0
 19  6  1  0  0  0  0
 20 11  1  0  0  0  0
 20 13  1  0  0  0  0
 21 26  1  0  0  0  0
 22 10  1  0  0  0  0
 23 21  2  0  0  0  0
 23  4  1  0  0  0  0
 24 22  1  0  0  0  0
 25 17  1  0  0  0  0
 26  1  2  0  0  0  0
 27  2  1  0  0  0  0
 27  9  1  0  0  0  0
 28 29  1  0  0  0  0
 29 32  1  0  0  0  0
 30 33  2  0  0  0  0
 31 33  1  0  0  0  0
 32 34  2  0  0  0  0
 32 31  1  0  0  0  0
 34 30  1  0  0  0  0
M  END
>  <MODEL>
5

>  <REMARK>
 VINA RESULT:      -8.5      5.420      7.707
  Name = 
  3 active torsions:
  status: ('A' for Active; 'I' for Inactive)
    1  A    between atoms: C_17  and  C_28
    2  A    between atoms: C_28  and  C_29
    3  A    between atoms: C_29  and  C_32
                            x       y       z     vdW  Elec       q    Type
                         _______ _______ _______ _____ _____    ______ ____

>  <TORSDO>
F 3

$$$$
=
 OpenBabel11122412253D

 34 41  0  0  1  0  0  0  0  0999 V2000
  187.3310  178.1420  139.5210 C   0  0  0  0  0  0  0  0  0  0  0  0
  185.1930  177.9350  138.2630 C   0  0  0  0  0  2  0  0  0  0  0  0
  190.4110  177.3080  145.1870 C   0  0  2  0  0  3  0  0  0  0  0  0
  188.9830  177.3300  141.0710 C   0  0  0  0  0  0  0  0  0  0  0  0
  188.5910  177.7930  143.5510 C   0  0  2  0  0  3  0  0  0  0  0  0
  188.2970  178.1800  145.8930 O   0  0  0  0  0  1  0  0  0  0  0  0
  190.9680  178.5720  144.9640 O   0  0  0  0  0  1  0  0  0  0  0  0
  190.6590  176.3160  142.8010 C   0  0  1  0  0  3  0  0  0  0  0  0
  185.0940  179.1490  140.3710 C   0  0  2  0  0  3  0  0  0  0  0  0
  182.3390  178.7890  141.9560 C   0  0  0  0  0  2  0  0  0  0  0  0
  187.1690  177.6730  143.2390 N   0  0  0  0  0  2  0  0  0  0  0  0
  189.4120  175.6590  142.6910 O   0  0  0  0  0  0  0  0  0  0  0  0
  185.4030  178.3920  141.6830 C   0  0  1  0  0  3  0  0  0  0  0  0
  183.7920  178.4740  138.3920 C   0  0  0  0  0  2  0  0  0  0  0  0
  189.3970  177.0490  142.4810 C   0  0  2  0  0  0  0  0  0  0  0  0
  191.0770  176.2710  144.2820 C   0  0  0  0  0  2  0  0  0  0  0  0
  182.7000  178.0950  140.6500 C   0  0  2  0  0  3  0  0  0  0  0  0
  187.7260  177.9150  140.8440 C   0  0  0  0  0  0  0  0  0  0  0  0
  188.9000  177.3260  144.9690 C   0  0  2  0  0  3  0  0  0  0  0  0
  186.8980  178.4270  142.0050 C   0  0  2  0  0  3  0  0  0  0  0  0
  189.3710  177.2110  138.7460 C   0  0  0  0  0  3  0  0  0  0  0  0
  183.3080  178.4050  143.0560 C   0  0  0  0  0  2  0  0  0  0  0  0
  189.7730  176.9810  140.0220 N   0  0  0  0  0  0  0  0  0  0  0  0
  184.6590  179.0570  142.8350 C   0  0  0  0  0  2  0  0  0  0  0  0
  183.6530  178.9860  139.8250 C   0  0  1  0  0  3  0  0  0  0  0  0
  188.1650  177.7870  138.5050 N   0  0  0  0  0  0  0  0  0  0  0  0
  186.0160  178.7930  139.1930 C   0  0  1  0  0  3  0  0  0  0  0  0
  181.4070  177.8190  139.8920 C   0  0  0  0  0  2  0  0  0  0  0  0
  180.3390  177.3010  140.8390 C   0  0  0  0  0  2  0  0  0  0  0  0
  178.9310  173.8770  140.4350 N   0  0  0  0  0  0  0  0  0  0  0  0
  179.8170  175.4900  138.7490 S   0  0  0  0  0  0  0  0  0  0  0  0
  179.8120  176.0010  140.3450 C   0  0  0  0  0  0  0  0  0  0  0  0
  179.1470  173.9860  139.1030 C   0  0  0  0  0  3  0  0  0  0  0  0
  179.3000  174.9840  141.1350 C   0  0  0  0  0  3  0  0  0  0  0  0
  1 18  1  0  0  0  0
  2 14  1  0  0  0  0
  2 27  1  0  0  0  0
  3  7  1  6  0  0  0
  4 15  1  0  0  0  0
  5 11  1  6  0  0  0
  5 19  1  0  0  0  0
  8 16  1  1  0  0  0
  9 13  1  0  0  0  0
 10 22  1  0  0  0  0
 12  8  1  0  0  0  0
 13 20  1  0  0  0  0
 13 24  1  0  0  0  0
 14 25  1  0  0  0  0
 15 12  1  0  0  0  0
 15  8  1  0  0  0  0
 15  5  1  0  0  0  0
 16  3  1  0  0  0  0
 17 10  1  0  0  0  0
 18  4  2  0  0  0  0
 18 20  1  0  0  0  0
 19  3  1  0  0  0  0
 19  6  1  0  0  0  0
 20 11  1  0  0  0  0
 21 23  2  0  0  0  0
 23  4  1  0  0  0  0
 24 22  1  0  0  0  0
 25  9  1  0  0  0  0
 25 17  1  0  0  0  0
 26 21  1  0  0  0  0
 26  1  2  0  0  0  0
 27  1  1  0  0  0  0
 27  9  1  0  0  0  0
 28 17  1  0  0  0  0
 28 29  1  0  0  0  0
 30 34  1  0  0  0  0
 31 33  1  0  0  0  0
 31 32  1  0  0  0  0
 32 29  1  0  0  0  0
 32 34  2  0  0  0  0
 33 30  2  0  0  0  0
M  END
>  <MODEL>
6

>  <REMARK>
 VINA RESULT:      -8.4      4.318      8.991
  Name = 
  3 active torsions:
  status: ('A' for Active; 'I' for Inactive)
    1  A    between atoms: C_17  and  C_28
    2  A    between atoms: C_28  and  C_29
    3  A    between atoms: C_29  and  C_32
                            x       y       z     vdW  Elec       q    Type
                         _______ _______ _______ _____ _____    ______ ____

>  <TORSDO>
F 3

$$$$
=
 OpenBabel11122412253D

 34 41  0  0  1  0  0  0  0  0999 V2000
  187.2360  178.3600  140.6160 C   0  0  0  0  0  0  0  0  0  0  0  0
  186.6200  177.5440  138.3460 C   0  0  0  0  0  2  0  0  0  0  0  0
  185.6110  178.6860  146.9050 C   0  0  2  0  0  3  0  0  0  0  0  0
  187.4450  178.0870  142.9980 C   0  0  0  0  0  0  0  0  0  0  0  0
  185.3860  178.5950  144.4210 C   0  0  2  0  0  3  0  0  0  0  0  0
  183.5040  179.0450  145.8270 O   0  0  0  0  0  1  0  0  0  0  0  0
  185.9860  180.0320  146.8360 O   0  0  0  0  0  1  0  0  0  0  0  0
  187.5750  177.6370  145.5690 C   0  0  1  0  0  3  0  0  0  0  0  0
  184.9230  178.8270  139.5320 C   0  0  2  0  0  3  0  0  0  0  0  0
  181.9240  177.8910  138.9310 C   0  0  0  0  0  2  0  0  0  0  0  0
  184.6110  178.1030  143.2850 N   0  0  0  0  0  2  0  0  0  0  0  0
  186.8580  176.6830  144.8110 O   0  0  0  0  0  0  0  0  0  0  0  0
  184.3390  178.2560  140.8440 C   0  0  1  0  0  3  0  0  0  0  0  0
  185.4630  177.7230  137.3960 C   0  0  0  0  0  2  0  0  0  0  0  0
  186.8010  178.0090  144.3460 C   0  0  2  0  0  0  0  0  0  0  0  0
  186.8520  177.7930  146.9190 C   0  0  0  0  0  2  0  0  0  0  0  0
  183.1800  177.2280  138.3820 C   0  0  2  0  0  3  0  0  0  0  0  0
  186.6310  178.3240  141.8780 C   0  0  0  0  0  0  0  0  0  0  0  0
  184.6890  178.3120  145.7460 C   0  0  2  0  0  3  0  0  0  0  0  0
  185.1700  178.6850  142.0540 C   0  0  2  0  0  3  0  0  0  0  0  0
  189.3460  177.9210  141.6090 C   0  0  0  0  0  3  0  0  0  0  0  0
  181.9020  177.8320  140.4460 C   0  0  0  0  0  2  0  0  0  0  0  0
  188.7780  177.8810  142.8410 N   0  0  0  0  0  0  0  0  0  0  0  0
  182.9230  178.7870  141.0360 C   0  0  0  0  0  2  0  0  0  0  0  0
  184.3030  178.2740  138.2230 C   0  0  1  0  0  3  0  0  0  0  0  0
  188.5780  178.1610  140.5140 N   0  0  0  0  0  0  0  0  0  0  0  0
  186.4410  178.6390  139.3700 C   0  0  1  0  0  3  0  0  0  0  0  0
  182.8260  176.5890  137.0450 C   0  0  0  0  0  2  0  0  0  0  0  0
  182.0020  175.3320  137.2600 C   0  0  0  0  0  2  0  0  0  0  0  0
  184.8090  172.9030  137.5670 N   0  0  0  0  0  0  0  0  0  0  0  0
  182.4970  172.6250  136.6700 S   0  0  0  0  0  0  0  0  0  0  0  0
  182.8900  174.1390  137.2710 C   0  0  0  0  0  0  0  0  0  0  0  0
  184.0090  171.9660  137.0070 C   0  0  0  0  0  3  0  0  0  0  0  0
  184.2030  174.1130  137.7130 C   0  0  0  0  0  3  0  0  0  0  0  0
  1 18  1  0  0  0  0
  2 27  1  0  0  0  0
  3  7  1  6  0  0  0
  3 16  1  0  0  0  0
  4 15  1  0  0  0  0
  5 11  1  6  0  0  0
  5 19  1  0  0  0  0
  8 16  1  1  0  0  0
  9 13  1  0  0  0  0
 10 22  1  0  0  0  0
 12  8  1  0  0  0  0
 13 24  1  0  0  0  0
 13 20  1  0  0  0  0
 14 25  1  0  0  0  0
 14  2  1  0  0  0  0
 15  5  1  0  0  0  0
 15 12  1  0  0  0  0
 15  8  1  0  0  0  0
 17 10  1  0  0  0  0
 18 20  1  0  0  0  0
 18  4  2  0  0  0  0
 19  6  1  0  0  0  0
 19  3  1  0  0  0  0
 20 11  1  0  0  0  0
 21 23  2  0  0  0  0
 22 24  1  0  0  0  0
 23  4  1  0  0  0  0
 25 17  1  0  0  0  0
 25  9  1  0  0  0  0
 26  1  2  0  0  0  0
 26 21  1  0  0  0  0
 27  9  1  0  0  0  0
 27  1  1  0  0  0  0
 28 29  1  0  0  0  0
 28 17  1  0  0  0  0
 29 32  1  0  0  0  0
 30 34  1  0  0  0  0
 31 33  1  0  0  0  0
 31 32  1  0  0  0  0
 32 34  2  0  0  0  0
 33 30  2  0  0  0  0
M  END
>  <MODEL>
7

>  <REMARK>
 VINA RESULT:      -8.3      4.064      8.477
  Name = 
  3 active torsions:
  status: ('A' for Active; 'I' for Inactive)
    1  A    between atoms: C_17  and  C_28
    2  A    between atoms: C_28  and  C_29
    3  A    between atoms: C_29  and  C_32
                            x       y       z     vdW  Elec       q    Type
                         _______ _______ _______ _____ _____    ______ ____

>  <TORSDO>
F 3

$$$$
=
 OpenBabel11122412253D

 34 41  0  0  1  0  0  0  0  0999 V2000
  186.1800  178.6270  140.2670 C   0  0  0  0  0  0  0  0  0  0  0  0
  185.1810  177.8470  138.1240 C   0  0  0  0  0  2  0  0  0  0  0  0
  185.7520  178.7080  146.7560 C   0  0  2  0  0  3  0  0  0  0  0  0
  186.8430  178.2980  142.5580 C   0  0  0  0  0  0  0  0  0  0  0  0
  185.0700  178.6750  144.3560 C   0  0  2  0  0  3  0  0  0  0  0  0
  183.4690  179.0030  146.1030 O   0  0  0  0  0  1  0  0  0  0  0  0
  186.0550  180.0710  146.6650 O   0  0  0  0  0  1  0  0  0  0  0  0
  187.4700  177.7840  145.0420 C   0  0  1  0  0  3  0  0  0  0  0  0
  183.6890  179.0200  139.6500 C   0  0  2  0  0  3  0  0  0  0  0  0
  180.6680  177.9700  139.5860 C   0  0  0  0  0  2  0  0  0  0  0  0
  184.1150  178.1810  143.3670 N   0  0  0  0  0  2  0  0  0  0  0  0
  186.6600  176.8210  144.3970 O   0  0  0  0  0  0  0  0  0  0  0  0
  183.3830  178.3890  141.0270 C   0  0  1  0  0  3  0  0  0  0  0  0
  183.8610  178.0000  137.4140 C   0  0  0  0  0  2  0  0  0  0  0  0
  186.4660  178.1560  143.9980 C   0  0  2  0  0  0  0  0  0  0  0  0
  187.0070  177.8710  146.5070 C   0  0  0  0  0  2  0  0  0  0  0  0
  181.8230  177.3780  138.7900 C   0  0  2  0  0  3  0  0  0  0  0  0
  185.8240  178.5290  141.6170 C   0  0  0  0  0  0  0  0  0  0  0  0
  184.6440  178.3260  145.7770 C   0  0  2  0  0  3  0  0  0  0  0  0
  184.4100  178.8210  142.0750 C   0  0  2  0  0  3  0  0  0  0  0  0
  188.4540  178.2540  140.8330 C   0  0  0  0  0  3  0  0  0  0  0  0
  180.9330  177.8690  141.0750 C   0  0  0  0  0  2  0  0  0  0  0  0
  188.1300  178.1560  142.1480 N   0  0  0  0  0  0  0  0  0  0  0  0
  182.0090  178.8510  141.4980 C   0  0  0  0  0  2  0  0  0  0  0  0
  182.8560  178.4770  138.4610 C   0  0  1  0  0  3  0  0  0  0  0  0
  187.4860  178.4900  139.9090 N   0  0  0  0  0  0  0  0  0  0  0  0
  185.1550  178.9040  139.2020 C   0  0  1  0  0  3  0  0  0  0  0  0
  181.2500  176.7610  137.5190 C   0  0  0  0  0  2  0  0  0  0  0  0
  180.1740  175.7460  137.8640 C   0  0  0  0  0  2  0  0  0  0  0  0
  180.6760  172.0730  137.5040 N   0  0  0  0  0  0  0  0  0  0  0  0
  182.1190  173.9940  136.8290 S   0  0  0  0  0  0  0  0  0  0  0  0
  180.6530  174.3740  137.5480 C   0  0  0  0  0  0  0  0  0  0  0  0
  181.8700  172.3310  136.9190 C   0  0  0  0  0  3  0  0  0  0  0  0
  179.9960  173.1960  137.8610 C   0  0  0  0  0  3  0  0  0  0  0  0
  1 18  1  0  0  0  0
  2 27  1  0  0  0  0
  3  7  1  6  0  0  0
  4 15  1  0  0  0  0
  5 11  1  6  0  0  0
  5 19  1  0  0  0  0
  8 16  1  1  0  0  0
  9 13  1  0  0  0  0
 10 22  1  0  0  0  0
 12  8  1  0  0  0  0
 13 24  1  0  0  0  0
 13 20  1  0  0  0  0
 14  2  1  0  0  0  0
 14 25  1  0  0  0  0
 15  5  1  0  0  0  0
 15 12  1  0  0  0  0
 15  8  1  0  0  0  0
 16  3  1  0  0  0  0
 17 10  1  0  0  0  0
 18 20  1  0  0  0  0
 18  4  2  0  0  0  0
 19  6  1  0  0  0  0
 19  3  1  0  0  0  0
 20 11  1  0  0  0  0
 21 23  2  0  0  0  0
 22 24  1  0  0  0  0
 23  4  1  0  0  0  0
 25 17  1  0  0  0  0
 25  9  1  0  0  0  0
 26  1  2  0  0  0  0
 26 21  1  0  0  0  0
 27  9  1  0  0  0  0
 27  1  1  0  0  0  0
 28 29  1  0  0  0  0
 28 17  1  0  0  0  0
 30 34  1  0  0  0  0
 31 33  1  0  0  0  0
 31 32  1  0  0  0  0
 32 34  2  0  0  0  0
 32 29  1  0  0  0  0
 33 30  2  0  0  0  0
M  END
>  <MODEL>
8

>  <REMARK>
 VINA RESULT:      -8.2      3.924      8.787
  Name = 
  3 active torsions:
  status: ('A' for Active; 'I' for Inactive)
    1  A    between atoms: C_17  and  C_28
    2  A    between atoms: C_28  and  C_29
    3  A    between atoms: C_29  and  C_32
                            x       y       z     vdW  Elec       q    Type
                         _______ _______ _______ _____ _____    ______ ____

>  <TORSDO>
F 3

$$$$
=
 OpenBabel11122412253D

 34 41  0  0  1  0  0  0  0  0999 V2000
  189.7520  177.7040  141.4970 C   0  0  0  0  0  0  0  0  0  0  0  0
  190.4080  176.8050  139.2700 C   0  0  0  0  0  2  0  0  0  0  0  0
  184.9200  178.8110  145.7070 C   0  0  2  0  0  3  0  0  0  0  0  0
  188.5130  177.6040  143.5580 C   0  0  0  0  0  0  0  0  0  0  0  0
  186.1400  178.5460  143.5460 C   0  0  2  0  0  3  0  0  0  0  0  0
  183.9080  179.4020  143.6200 O   0  0  0  0  0  1  0  0  0  0  0  0
  185.4970  180.0710  145.8940 O   0  0  0  0  0  1  0  0  0  0  0  0
  187.0720  177.3590  145.7240 C   0  0  1  0  0  3  0  0  0  0  0  0
  188.5970  178.4330  139.2890 C   0  0  2  0  0  3  0  0  0  0  0  0
  186.3680  177.9290  137.0500 C   0  0  0  0  0  2  0  0  0  0  0  0
  186.0790  178.0870  142.1600 N   0  0  0  0  0  2  0  0  0  0  0  0
  186.7620  176.4680  144.6720 O   0  0  0  0  0  0  0  0  0  0  0  0
  187.2790  178.0740  140.0120 C   0  0  1  0  0  3  0  0  0  0  0  0
  190.0530  177.0810  137.8310 C   0  0  0  0  0  2  0  0  0  0  0  0
  187.2150  177.7430  144.2870 C   0  0  2  0  0  0  0  0  0  0  0  0
  185.7500  177.7390  146.4140 C   0  0  0  0  0  2  0  0  0  0  0  0
  187.5720  177.0340  137.3110 C   0  0  2  0  0  3  0  0  0  0  0  0
  188.5410  177.8700  142.1780 C   0  0  0  0  0  0  0  0  0  0  0  0
  184.7750  178.4880  144.2210 C   0  0  2  0  0  3  0  0  0  0  0  0
  187.3320  178.4680  141.4890 C   0  0  2  0  0  3  0  0  0  0  0  0
  190.8020  177.0260  143.5140 C   0  0  0  0  0  3  0  0  0  0  0  0
  185.4760  178.0030  138.2740 C   0  0  0  0  0  2  0  0  0  0  0  0
  189.6360  177.1800  144.1940 N   0  0  0  0  0  0  0  0  0  0  0  0
  186.1270  178.8330  139.3640 C   0  0  0  0  0  2  0  0  0  0  0  0
  188.7480  177.8750  137.8500 C   0  0  1  0  0  3  0  0  0  0  0  0
  190.8530  177.2900  142.1820 N   0  0  0  0  0  0  0  0  0  0  0  0
  189.8740  177.9970  140.0270 C   0  0  1  0  0  3  0  0  0  0  0  0
  187.9380  176.3470  136.0010 C   0  0  0  0  0  2  0  0  0  0  0  0
  186.7250  175.6490  135.4120 C   0  0  0  0  0  2  0  0  0  0  0  0
  186.3670  172.5870  137.5010 N   0  0  0  0  0  0  0  0  0  0  0  0
  184.7440  174.4100  136.9810 S   0  0  0  0  0  0  0  0  0  0  0  0
  186.2770  174.5600  136.3200 C   0  0  0  0  0  0  0  0  0  0  0  0
  185.0900  172.9560  137.7560 C   0  0  0  0  0  3  0  0  0  0  0  0
  187.0330  173.4640  136.7020 C   0  0  0  0  0  3  0  0  0  0  0  0
  1 18  2  0  0  0  0
  1 26  1  0  0  0  0
  2 27  1  0  0  0  0
  3  7  1  6  0  0  0
  3 16  1  0  0  0  0
  4 23  2  0  0  0  0
  4 15  1  0  0  0  0
  5 11  1  6  0  0  0
  5 19  1  0  0  0  0
  5 15  1  0  0  0  0
  6 19  1  0  0  0  0
  8 16  1  6  0  0  0
  9 13  1  0  0  0  0
  9 27  1  0  0  0  0
 10 17  1  0  0  0  0
 10 22  1  0  0  0  0
 12  8  1  0  0  0  0
 13 20  1  0  0  0  0
 14 25  1  0  0  0  0
 14  2  1  0  0  0  0
 15 12  1  0  0  0  0
 15  8  1  0  0  0  0
 17 25  1  0  0  0  0
 18  4  1  0  0  0  0
 19  3  1  0  0  0  0
 20 11  1  0  0  0  0
 20 18  1  0  0  0  0
 21 23  1  0  0  0  0
 22 24  1  0  0  0  0
 24 13  1  0  0  0  0
 25  9  1  0  0  0  0
 26 21  2  0  0  0  0
 27  1  1  0  0  0  0
 28 17  1  0  0  0  0
 29 28  1  0  0  0  0
 29 32  1  0  0  0  0
 30 33  2  0  0  0  0
 31 33  1  0  0  0  0
 32 34  2  0  0  0  0
 32 31  1  0  0  0  0
 34 30  1  0  0  0  0
M  END
>  <MODEL>
9

>  <REMARK>
 VINA RESULT:      -8.0      4.377      8.420
  Name = 
  3 active torsions:
  status: ('A' for Active; 'I' for Inactive)
    1  A    between atoms: C_17  and  C_28
    2  A    between atoms: C_28  and  C_29
    3  A    between atoms: C_29  and  C_32
                            x       y       z     vdW  Elec       q    Type
                         _______ _______ _______ _____ _____    ______ ____

>  <TORSDO>
F 3

$$$$
