=
 OpenBabel11122411593D

 28 32  0  0  1  0  0  0  0  0999 V2000
  186.1490  176.2780  136.7370 C   0  0  2  0  0  3  0  0  0  0  0  0
  188.7030  176.3720  138.2090 O   0  0  0  0  0  0  0  0  0  0  0  0
  181.8080  178.8530  140.7670 O   0  0  0  0  0  0  0  0  0  0  0  0
  187.1680  178.1730  134.7280 C   0  0  0  0  0  2  0  0  0  0  0  0
  184.1250  178.9830  141.2190 N   0  0  0  0  0  0  0  0  0  0  0  0
  185.0140  175.4880  137.3970 C   0  0  0  0  0  2  0  0  0  0  0  0
  189.4500  178.7100  138.4380 O   0  0  0  0  0  0  0  0  0  0  0  0
  188.6370  177.6090  139.0590 S   0  0  0  0  0  0  0  0  0  0  0  0
  188.5650  177.9690  141.8010 C   0  0  0  0  0  0  0  0  0  0  0  0
  187.0060  178.1250  139.2770 N   0  0  0  0  0  0  0  0  0  0  0  0
  181.6900  177.2180  136.4730 C   0  0  0  0  0  1  0  0  0  0  0  0
  184.8590  178.6540  139.0550 C   0  0  0  0  0  0  0  0  0  0  0  0
  187.3250  178.4720  141.7210 C   0  0  0  0  0  3  0  0  0  0  0  0
  189.2670  177.2280  140.6860 C   0  0  0  0  0  2  0  0  0  0  0  0
  183.0630  177.0810  137.1000 C   0  0  1  0  0  3  0  0  0  0  0  0
  186.0190  177.8010  136.9320 C   0  0  2  0  0  3  0  0  0  0  0  0
  182.9960  178.8260  140.3500 C   0  0  0  0  0  0  0  0  0  0  0  0
  189.2440  178.0130  143.1220 C   0  0  0  0  0  1  0  0  0  0  0  0
  182.9590  177.2250  138.5450 N   0  0  0  0  0  2  0  0  0  0  0  0
  187.1230  178.5650  136.1990 C   0  0  0  0  0  2  0  0  0  0  0  0
  186.2710  175.9070  135.2560 C   0  0  0  0  0  2  0  0  0  0  0  0
  187.4120  176.6750  134.5990 C   0  0  0  0  0  2  0  0  0  0  0  0
  183.6420  175.7150  136.7550 C   0  0  0  0  0  2  0  0  0  0  0  0
  185.2180  178.8610  140.3340 C   0  0  0  0  0  0  0  0  0  0  0  0
  183.3700  178.5780  138.9020 C   0  0  2  0  0  3  0  0  0  0  0  0
  186.5330  178.4940  140.4840 C   0  0  0  0  0  0  0  0  0  0  0  0
  184.1420  178.6990  142.6440 C   0  0  0  0  0  1  0  0  0  0  0  0
  185.9800  178.1980  138.3810 C   0  0  0  0  0  0  0  0  0  0  0  0
  1 21  1  6  0  0  0
  1 16  1  0  0  0  0
  1  6  1  0  0  0  0
  2  8  2  0  0  0  0
  4 20  1  0  0  0  0
  5 27  1  0  0  0  0
  7  8  2  0  0  0  0
  8 10  1  0  0  0  0
  8 14  1  0  0  0  0
  9 18  1  0  0  0  0
 10 26  1  0  0  0  0
 12 24  1  0  0  0  0
 13  9  2  0  0  0  0
 14  9  1  0  0  0  0
 15 11  1  6  0  0  0
 15 19  1  0  0  0  0
 16 20  1  1  0  0  0
 16 28  1  0  0  0  0
 17  3  2  0  0  0  0
 17  5  1  0  0  0  0
 22  4  1  0  0  0  0
 22 21  1  0  0  0  0
 23 15  1  0  0  0  0
 23  6  1  0  0  0  0
 24 26  2  0  0  0  0
 24  5  1  0  0  0  0
 25 19  1  1  0  0  0
 25 12  1  0  0  0  0
 25 17  1  0  0  0  0
 26 13  1  0  0  0  0
 28 12  2  0  0  0  0
 28 10  1  0  0  0  0
M  END
>  <MODEL>
1

>  <REMARK>
 VINA RESULT:      -7.0      0.000      0.000
  Name = 
  0 active torsions:
  status: ('A' for Active; 'I' for Inactive)
                            x       y       z     vdW  Elec       q    Type
                         _______ _______ _______ _____ _____    ______ ____

>  <TORSDO>
F 0

$$$$
=
 OpenBabel11122411593D

 28 32  0  0  1  0  0  0  0  0999 V2000
  188.0740  175.5130  136.8030 C   0  0  2  0  0  3  0  0  0  0  0  0
  190.2250  175.5580  138.8200 O   0  0  0  0  0  0  0  0  0  0  0  0
  183.2330  178.8680  139.4530 O   0  0  0  0  0  0  0  0  0  0  0  0
  189.7150  177.0830  134.9310 C   0  0  0  0  0  2  0  0  0  0  0  0
  185.3890  178.8560  140.4250 N   0  0  0  0  0  0  0  0  0  0  0  0
  186.7420  174.8980  137.2440 C   0  0  0  0  0  2  0  0  0  0  0  0
  191.1440  177.8370  139.0120 O   0  0  0  0  0  0  0  0  0  0  0  0
  190.1000  176.8830  139.5180 S   0  0  0  0  0  0  0  0  0  0  0  0
  189.4490  177.5490  142.1230 C   0  0  0  0  0  0  0  0  0  0  0  0
  188.5260  177.5520  139.2990 N   0  0  0  0  0  0  0  0  0  0  0  0
  183.9160  176.7840  135.4140 C   0  0  0  0  0  1  0  0  0  0  0  0
  186.5540  178.2290  138.5320 C   0  0  0  0  0  0  0  0  0  0  0  0
  188.3190  178.1410  141.7090 C   0  0  0  0  0  3  0  0  0  0  0  0
  190.3020  176.6340  141.2750 C   0  0  0  0  0  2  0  0  0  0  0  0
  185.0890  176.6030  136.3560 C   0  0  1  0  0  3  0  0  0  0  0  0
  188.0660  177.0530  136.8260 C   0  0  2  0  0  3  0  0  0  0  0  0
  184.4750  178.6970  139.3310 C   0  0  0  0  0  0  0  0  0  0  0  0
  189.8130  177.6830  143.5580 C   0  0  0  0  0  1  0  0  0  0  0  0
  184.6770  176.9150  137.7180 N   0  0  0  0  0  2  0  0  0  0  0  0
  189.3810  177.6380  136.3090 C   0  0  0  0  0  2  0  0  0  0  0  0
  188.4880  174.9720  135.4310 C   0  0  0  0  0  2  0  0  0  0  0  0
  189.8220  175.5650  134.9960 C   0  0  0  0  0  2  0  0  0  0  0  0
  185.5830  175.1650  136.2790 C   0  0  0  0  0  2  0  0  0  0  0  0
  186.6340  178.5470  139.8360 C   0  0  0  0  0  0  0  0  0  0  0  0
  185.1380  178.2610  138.0400 C   0  0  2  0  0  3  0  0  0  0  0  0
  187.8340  178.0910  140.3230 C   0  0  0  0  0  0  0  0  0  0  0  0
  185.0530  178.7310  141.8330 C   0  0  0  0  0  1  0  0  0  0  0  0
  187.7430  177.6100  138.1850 C   0  0  0  0  0  0  0  0  0  0  0  0
  1 21  1  6  0  0  0
  1 16  1  0  0  0  0
  1  6  1  0  0  0  0
  2  8  2  0  0  0  0
  4 22  1  0  0  0  0
  4 20  1  0  0  0  0
  5 27  1  0  0  0  0
  7  8  2  0  0  0  0
  8 14  1  0  0  0  0
  9 18  1  0  0  0  0
 10  8  1  0  0  0  0
 10 26  1  0  0  0  0
 12 24  1  0  0  0  0
 13  9  2  0  0  0  0
 14  9  1  0  0  0  0
 15 11  1  6  0  0  0
 15 19  1  0  0  0  0
 16 20  1  1  0  0  0
 16 28  1  0  0  0  0
 17  3  2  0  0  0  0
 17  5  1  0  0  0  0
 22 21  1  0  0  0  0
 23 15  1  0  0  0  0
 23  6  1  0  0  0  0
 24 26  2  0  0  0  0
 24  5  1  0  0  0  0
 25 19  1  1  0  0  0
 25 12  1  0  0  0  0
 25 17  1  0  0  0  0
 26 13  1  0  0  0  0
 28 12  2  0  0  0  0
 28 10  1  0  0  0  0
M  END
>  <MODEL>
2

>  <REMARK>
 VINA RESULT:      -6.8      1.634      1.903
  Name = 
  0 active torsions:
  status: ('A' for Active; 'I' for Inactive)
                            x       y       z     vdW  Elec       q    Type
                         _______ _______ _______ _____ _____    ______ ____

>  <TORSDO>
F 0

$$$$
=
 OpenBabel11122411593D

 28 32  0  0  1  0  0  0  0  0999 V2000
  185.7920  177.6710  143.5040 C   0  0  2  0  0  3  0  0  0  0  0  0
  183.9040  177.6320  141.2390 O   0  0  0  0  0  0  0  0  0  0  0  0
  191.6520  177.5000  140.7920 O   0  0  0  0  0  0  0  0  0  0  0  0
  184.9190  180.3780  144.2630 C   0  0  0  0  0  2  0  0  0  0  0  0
  189.7120  177.8660  139.4910 N   0  0  0  0  0  0  0  0  0  0  0  0
  186.7540  176.4830  143.6080 C   0  0  0  0  0  2  0  0  0  0  0  0
  184.0290  179.7650  140.0090 O   0  0  0  0  0  0  0  0  0  0  0  0
  184.5880  178.3750  140.1260 S   0  0  0  0  0  0  0  0  0  0  0  0
  185.5170  177.5580  137.6510 C   0  0  0  0  0  0  0  0  0  0  0  0
  186.2930  178.4390  140.3810 N   0  0  0  0  0  0  0  0  0  0  0  0
  190.0680  177.7810  145.0980 C   0  0  0  0  0  1  0  0  0  0  0  0
  188.3500  178.5980  141.2060 C   0  0  0  0  0  0  0  0  0  0  0  0
  186.7810  177.8060  138.0230 C   0  0  0  0  0  3  0  0  0  0  0  0
  184.3400  177.4860  138.5980 C   0  0  0  0  0  2  0  0  0  0  0  0
  188.9490  177.6590  144.0830 C   0  0  1  0  0  3  0  0  0  0  0  0
  186.4460  178.9260  142.8940 C   0  0  2  0  0  3  0  0  0  0  0  0
  190.4510  177.8710  140.7200 C   0  0  0  0  0  0  0  0  0  0  0  0
  185.2750  177.1830  136.2340 C   0  0  0  0  0  1  0  0  0  0  0  0
  189.4840  177.1750  142.8180 N   0  0  0  0  0  2  0  0  0  0  0  0
  185.4860  180.1160  142.8730 C   0  0  0  0  0  2  0  0  0  0  0  0
  185.1600  177.9710  144.8660 C   0  0  0  0  0  2  0  0  0  0  0  0
  184.1880  179.1400  144.7650 C   0  0  0  0  0  2  0  0  0  0  0  0
  187.8960  176.6910  144.6060 C   0  0  0  0  0  2  0  0  0  0  0  0
  188.4390  178.3270  139.8920 C   0  0  0  0  0  0  0  0  0  0  0  0
  189.6370  178.3140  141.9200 C   0  0  2  0  0  3  0  0  0  0  0  0
  187.1690  178.1850  139.3880 C   0  0  0  0  0  0  0  0  0  0  0  0
  189.9960  177.0320  138.3360 C   0  0  0  0  0  1  0  0  0  0  0  0
  187.0030  178.6790  141.5200 C   0  0  0  0  0  0  0  0  0  0  0  0
  1  6  1  1  0  0  0
  1 21  1  0  0  0  0
  4 22  1  0  0  0  0
  5 24  1  0  0  0  0
  5 17  1  0  0  0  0
  6 23  1  0  0  0  0
  7  8  2  0  0  0  0
  8 10  1  0  0  0  0
  8  2  2  0  0  0  0
  9 13  2  0  0  0  0
  9 14  1  0  0  0  0
 10 28  1  0  0  0  0
 12 28  2  0  0  0  0
 12 25  1  0  0  0  0
 13 26  1  0  0  0  0
 14  8  1  0  0  0  0
 15 23  1  0  0  0  0
 15 11  1  1  0  0  0
 16 20  1  6  0  0  0
 16  1  1  0  0  0  0
 17  3  2  0  0  0  0
 18  9  1  0  0  0  0
 19 15  1  0  0  0  0
 20  4  1  0  0  0  0
 22 21  1  0  0  0  0
 24 12  1  0  0  0  0
 25 17  1  6  0  0  0
 25 19  1  0  0  0  0
 26 24  2  0  0  0  0
 26 10  1  0  0  0  0
 27  5  1  0  0  0  0
 28 16  1  0  0  0  0
M  END
>  <MODEL>
3

>  <REMARK>
 VINA RESULT:      -6.6      2.324      7.125
  Name = 
  0 active torsions:
  status: ('A' for Active; 'I' for Inactive)
                            x       y       z     vdW  Elec       q    Type
                         _______ _______ _______ _____ _____    ______ ____

>  <TORSDO>
F 0

$$$$
=
 OpenBabel11122411593D

 28 32  0  0  1  0  0  0  0  0999 V2000
  190.6980  177.3720  144.1470 C   0  0  2  0  0  3  0  0  0  0  0  0
  191.5560  177.5820  141.3340 O   0  0  0  0  0  0  0  0  0  0  0  0
  184.3750  178.6880  144.0630 O   0  0  0  0  0  0  0  0  0  0  0  0
  191.3050  174.4920  144.1800 C   0  0  0  0  0  2  0  0  0  0  0  0
  185.5770  178.3290  142.0580 N   0  0  0  0  0  0  0  0  0  0  0  0
  190.0730  178.6280  144.7620 C   0  0  0  0  0  2  0  0  0  0  0  0
  190.6010  175.7240  140.0260 O   0  0  0  0  0  0  0  0  0  0  0  0
  190.3820  177.1280  140.5150 S   0  0  0  0  0  0  0  0  0  0  0  0
  188.7390  178.4620  138.7320 C   0  0  0  0  0  0  0  0  0  0  0  0
  188.9190  177.2190  141.4250 N   0  0  0  0  0  0  0  0  0  0  0  0
  187.4030  177.4850  147.3040 C   0  0  0  0  0  1  0  0  0  0  0  0
  187.3380  177.1590  142.9850 C   0  0  0  0  0  0  0  0  0  0  0  0
  187.6900  178.3010  139.5510 C   0  0  0  0  0  3  0  0  0  0  0  0
  190.1810  178.2320  139.1260 C   0  0  0  0  0  2  0  0  0  0  0  0
  188.0540  177.6500  145.9460 C   0  0  1  0  0  3  0  0  0  0  0  0
  189.6520  176.3260  143.7150 C   0  0  2  0  0  3  0  0  0  0  0  0
  185.3730  178.1980  143.4710 C   0  0  0  0  0  0  0  0  0  0  0  0
  188.4850  179.0450  137.3900 C   0  0  0  0  0  1  0  0  0  0  0  0
  187.1710  178.4040  145.0670 N   0  0  0  0  0  2  0  0  0  0  0  0
  190.3080  175.0540  143.1750 C   0  0  0  0  0  2  0  0  0  0  0  0
  191.7380  176.7690  145.0960 C   0  0  0  0  0  2  0  0  0  0  0  0
  192.3780  175.5310  144.4810 C   0  0  0  0  0  2  0  0  0  0  0  0
  189.3790  178.3850  146.1060 C   0  0  0  0  0  2  0  0  0  0  0  0
  186.8040  177.6620  141.8580 C   0  0  0  0  0  0  0  0  0  0  0  0
  186.4910  177.4630  144.1830 C   0  0  2  0  0  3  0  0  0  0  0  0
  187.7900  177.7410  140.9050 C   0  0  0  0  0  0  0  0  0  0  0  0
  185.0250  179.3780  141.2180 C   0  0  0  0  0  1  0  0  0  0  0  0
  188.6660  176.8700  142.7190 C   0  0  0  0  0  0  0  0  0  0  0  0
  1  6  1  1  0  0  0
  1 21  1  0  0  0  0
  4 22  1  0  0  0  0
  5 17  1  0  0  0  0
  6 23  1  0  0  0  0
  7  8  2  0  0  0  0
  8  2  2  0  0  0  0
  8 10  1  0  0  0  0
  9 14  1  0  0  0  0
  9 13  2  0  0  0  0
 10 28  1  0  0  0  0
 13 26  1  0  0  0  0
 14  8  1  0  0  0  0
 15 23  1  0  0  0  0
 15 11  1  1  0  0  0
 16 20  1  6  0  0  0
 16  1  1  0  0  0  0
 17  3  2  0  0  0  0
 17 25  1  0  0  0  0
 18  9  1  0  0  0  0
 19 15  1  0  0  0  0
 20  4  1  0  0  0  0
 22 21  1  0  0  0  0
 24  5  1  0  0  0  0
 24 12  1  0  0  0  0
 25 12  1  6  0  0  0
 25 19  1  0  0  0  0
 26 10  1  0  0  0  0
 26 24  2  0  0  0  0
 27  5  1  0  0  0  0
 28 12  2  0  0  0  0
 28 16  1  0  0  0  0
M  END
>  <MODEL>
4

>  <REMARK>
 VINA RESULT:      -6.2      3.245      6.948
  Name = 
  0 active torsions:
  status: ('A' for Active; 'I' for Inactive)
                            x       y       z     vdW  Elec       q    Type
                         _______ _______ _______ _____ _____    ______ ____

>  <TORSDO>
F 0

$$$$
=
 OpenBabel11122411593D

 28 32  0  0  1  0  0  0  0  0999 V2000
  182.8790  175.8160  137.2040 C   0  0  2  0  0  3  0  0  0  0  0  0
  185.3460  175.3740  135.6500 O   0  0  0  0  0  0  0  0  0  0  0  0
  184.7490  179.2240  142.3630 O   0  0  0  0  0  0  0  0  0  0  0  0
  181.7440  177.4650  135.0470 C   0  0  0  0  0  2  0  0  0  0  0  0
  186.2080  178.8690  140.5370 N   0  0  0  0  0  0  0  0  0  0  0  0
  182.8750  175.2770  138.6390 C   0  0  0  0  0  2  0  0  0  0  0  0
  186.1170  177.5050  134.6810 O   0  0  0  0  0  0  0  0  0  0  0  0
  186.1930  176.5950  135.8740 S   0  0  0  0  0  0  0  0  0  0  0  0
  188.6280  176.9550  137.1370 C   0  0  0  0  0  0  0  0  0  0  0  0
  185.7000  177.4380  137.2960 N   0  0  0  0  0  0  0  0  0  0  0  0
  180.7260  177.6620  140.7810 C   0  0  0  0  0  1  0  0  0  0  0  0
  184.5870  178.4010  138.9600 C   0  0  0  0  0  0  0  0  0  0  0  0
  188.0460  177.7040  138.0850 C   0  0  0  0  0  3  0  0  0  0  0  0
  187.8820  176.0870  136.1480 C   0  0  0  0  0  2  0  0  0  0  0  0
  181.8880  177.2410  139.9040 C   0  0  1  0  0  3  0  0  0  0  0  0
  183.1430  177.3320  137.1290 C   0  0  2  0  0  3  0  0  0  0  0  0
  184.9120  178.9520  141.1440 C   0  0  0  0  0  0  0  0  0  0  0  0
  190.1100  176.8530  137.1490 C   0  0  0  0  0  1  0  0  0  0  0  0
  183.1370  177.3990  140.6360 N   0  0  0  0  0  2  0  0  0  0  0  0
  183.0670  177.8530  135.6930 C   0  0  0  0  0  2  0  0  0  0  0  0
  181.5840  175.4330  136.4820 C   0  0  0  0  0  2  0  0  0  0  0  0
  181.5920  175.9490  135.0490 C   0  0  0  0  0  2  0  0  0  0  0  0
  181.7080  175.7860  139.4920 C   0  0  0  0  0  2  0  0  0  0  0  0
  185.9040  178.5260  139.2020 C   0  0  0  0  0  0  0  0  0  0  0  0
  183.7720  178.6370  140.1960 C   0  0  2  0  0  3  0  0  0  0  0  0
  186.5940  177.8940  138.1970 C   0  0  0  0  0  0  0  0  0  0  0  0
  187.4510  178.5840  141.2320 C   0  0  0  0  0  1  0  0  0  0  0  0
  184.4510  177.7250  137.7600 C   0  0  0  0  0  0  0  0  0  0  0  0
  1 21  1  1  0  0  0
  1  6  1  0  0  0  0
  2  8  2  0  0  0  0
  4 22  1  0  0  0  0
  4 20  1  0  0  0  0
  5 17  1  0  0  0  0
  5 27  1  0  0  0  0
  6 23  1  0  0  0  0
  7  8  2  0  0  0  0
  8 14  1  0  0  0  0
  8 10  1  0  0  0  0
  9 18  1  0  0  0  0
  9 13  2  0  0  0  0
 10 28  1  0  0  0  0
 10 26  1  0  0  0  0
 12 24  1  0  0  0  0
 13 26  1  0  0  0  0
 14  9  1  0  0  0  0
 15 19  1  0  0  0  0
 15 11  1  1  0  0  0
 16 20  1  6  0  0  0
 16  1  1  0  0  0  0
 16 28  1  0  0  0  0
 17  3  2  0  0  0  0
 22 21  1  0  0  0  0
 23 15  1  0  0  0  0
 24  5  1  0  0  0  0
 25 12  1  6  0  0  0
 25 19  1  0  0  0  0
 25 17  1  0  0  0  0
 26 24  2  0  0  0  0
 28 12  2  0  0  0  0
M  END
>  <MODEL>
5

>  <REMARK>
 VINA RESULT:      -5.9      2.306      3.728
  Name = 
  0 active torsions:
  status: ('A' for Active; 'I' for Inactive)
                            x       y       z     vdW  Elec       q    Type
                         _______ _______ _______ _____ _____    ______ ____

>  <TORSDO>
F 0

$$$$
=
 OpenBabel11122411593D

 28 32  0  0  1  0  0  0  0  0999 V2000
  187.6030  176.5360  137.7490 C   0  0  2  0  0  3  0  0  0  0  0  0
  188.7370  176.7530  140.4630 O   0  0  0  0  0  0  0  0  0  0  0  0
  181.4840  178.5200  138.3370 O   0  0  0  0  0  0  0  0  0  0  0  0
  189.4300  178.6180  136.7540 C   0  0  0  0  0  2  0  0  0  0  0  0
  183.0390  178.8110  140.0950 N   0  0  0  0  0  0  0  0  0  0  0  0
  186.3840  175.6220  137.5940 C   0  0  0  0  0  2  0  0  0  0  0  0
  188.9620  179.1270  141.0890 O   0  0  0  0  0  0  0  0  0  0  0  0
  188.0530  177.9300  141.0970 S   0  0  0  0  0  0  0  0  0  0  0  0
  186.3140  178.1280  143.2400 C   0  0  0  0  0  0  0  0  0  0  0  0
  186.5760  178.3000  140.2850 N   0  0  0  0  0  0  0  0  0  0  0  0
  184.1300  177.1280  134.8460 C   0  0  0  0  0  1  0  0  0  0  0  0
  184.9540  178.6660  138.8120 C   0  0  0  0  0  0  0  0  0  0  0  0
  185.3280  178.5330  142.4260 C   0  0  0  0  0  3  0  0  0  0  0  0
  187.6130  177.5100  142.7760 C   0  0  0  0  0  2  0  0  0  0  0  0
  184.8570  177.0660  136.1750 C   0  0  1  0  0  3  0  0  0  0  0  0
  187.2330  178.0300  137.8210 C   0  0  2  0  0  3  0  0  0  0  0  0
  182.6800  178.6130  138.7210 C   0  0  0  0  0  0  0  0  0  0  0  0
  186.0550  178.1520  144.7030 C   0  0  0  0  0  1  0  0  0  0  0  0
  183.8920  177.1190  137.2650 N   0  0  0  0  0  2  0  0  0  0  0  0
  188.4730  178.9220  137.8990 C   0  0  0  0  0  2  0  0  0  0  0  0
  188.6260  176.2610  136.6430 C   0  0  0  0  0  2  0  0  0  0  0  0
  189.8490  177.1540  136.8040 C   0  0  0  0  0  2  0  0  0  0  0  0
  185.6580  175.7730  136.2530 C   0  0  0  0  0  2  0  0  0  0  0  0
  184.4500  178.8290  140.0480 C   0  0  0  0  0  0  0  0  0  0  0  0
  183.8710  178.4790  137.7920 C   0  0  2  0  0  3  0  0  0  0  0  0
  185.4400  178.5610  140.9620 C   0  0  0  0  0  0  0  0  0  0  0  0
  182.2250  178.4500  141.2420 C   0  0  0  0  0  1  0  0  0  0  0  0
  186.2930  178.3400  138.9520 C   0  0  0  0  0  0  0  0  0  0  0  0
  1 21  1  6  0  0  0
  1 16  1  0  0  0  0
  2  8  2  0  0  0  0
  3 17  2  0  0  0  0
  4 22  1  0  0  0  0
  4 20  1  0  0  0  0
  5 27  1  0  0  0  0
  6  1  1  0  0  0  0
  7  8  2  0  0  0  0
  8 14  1  0  0  0  0
  9 18  1  0  0  0  0
 10 26  1  0  0  0  0
 10  8  1  0  0  0  0
 12 28  2  0  0  0  0
 12 24  1  0  0  0  0
 13  9  2  0  0  0  0
 14  9  1  0  0  0  0
 15 11  1  6  0  0  0
 15 23  1  0  0  0  0
 15 19  1  0  0  0  0
 16 20  1  1  0  0  0
 16 28  1  0  0  0  0
 17  5  1  0  0  0  0
 21 22  1  0  0  0  0
 23  6  1  0  0  0  0
 24  5  1  0  0  0  0
 24 26  2  0  0  0  0
 25 19  1  1  0  0  0
 25 17  1  0  0  0  0
 25 12  1  0  0  0  0
 26 13  1  0  0  0  0
 28 10  1  0  0  0  0
M  END
>  <MODEL>
6

>  <REMARK>
 VINA RESULT:      -5.9      1.808      2.164
  Name = 
  0 active torsions:
  status: ('A' for Active; 'I' for Inactive)
                            x       y       z     vdW  Elec       q    Type
                         _______ _______ _______ _____ _____    ______ ____

>  <TORSDO>
F 0

$$$$
=
 OpenBabel11122411593D

 28 32  0  0  1  0  0  0  0  0999 V2000
  187.2860  176.7730  135.8330 C   0  0  2  0  0  3  0  0  0  0  0  0
  189.4930  174.9370  135.1560 O   0  0  0  0  0  0  0  0  0  0  0  0
  182.2390  172.9310  137.0530 O   0  0  0  0  0  0  0  0  0  0  0  0
  188.6980  177.6730  138.2540 C   0  0  0  0  0  2  0  0  0  0  0  0
  184.4180  172.0480  136.8110 N   0  0  0  0  0  0  0  0  0  0  0  0
  186.0370  176.6880  134.9500 C   0  0  0  0  0  2  0  0  0  0  0  0
  190.1920  173.6920  137.1650 O   0  0  0  0  0  0  0  0  0  0  0  0
  189.2650  173.7040  135.9830 S   0  0  0  0  0  0  0  0  0  0  0  0
  188.6450  171.0980  135.2910 C   0  0  0  0  0  0  0  0  0  0  0  0
  187.6260  173.6070  136.5120 N   0  0  0  0  0  0  0  0  0  0  0  0
  182.9770  177.4670  137.1690 C   0  0  0  0  0  1  0  0  0  0  0  0
  185.5710  173.9970  137.2610 C   0  0  0  0  0  0  0  0  0  0  0  0
  187.4490  171.2040  135.8870 C   0  0  0  0  0  3  0  0  0  0  0  0
  189.5520  172.2630  134.9680 C   0  0  0  0  0  2  0  0  0  0  0  0
  184.1950  176.7000  136.6930 C   0  0  1  0  0  3  0  0  0  0  0  0
  187.1290  176.0340  137.1760 C   0  0  2  0  0  3  0  0  0  0  0  0
  183.4860  173.1010  137.0870 C   0  0  0  0  0  0  0  0  0  0  0  0
  189.0450  169.7610  134.7780 C   0  0  0  0  0  1  0  0  0  0  0  0
  183.8030  175.3570  136.2910 N   0  0  0  0  0  2  0  0  0  0  0  0
  188.3610  176.1990  138.0660 C   0  0  0  0  0  2  0  0  0  0  0  0
  187.7010  178.2320  136.0380 C   0  0  0  0  0  2  0  0  0  0  0  0
  188.9550  178.3220  136.8990 C   0  0  0  0  0  2  0  0  0  0  0  0
  184.8230  177.4330  135.5150 C   0  0  0  0  0  2  0  0  0  0  0  0
  185.6660  172.6950  136.9420 C   0  0  0  0  0  0  0  0  0  0  0  0
  184.1420  174.4380  137.3720 C   0  0  2  0  0  3  0  0  0  0  0  0
  186.9220  172.4590  136.4380 C   0  0  0  0  0  0  0  0  0  0  0  0
  184.1470  170.8650  136.0120 C   0  0  0  0  0  1  0  0  0  0  0  0
  186.8010  174.5770  137.0010 C   0  0  0  0  0  0  0  0  0  0  0  0
  1  6  1  1  0  0  0
  1 21  1  0  0  0  0
  1 16  1  0  0  0  0
  2  8  2  0  0  0  0
  3 17  2  0  0  0  0
  5 24  1  0  0  0  0
  5 17  1  0  0  0  0
  6 23  1  0  0  0  0
  8 10  1  0  0  0  0
  8  7  2  0  0  0  0
  9 13  2  0  0  0  0
 10 28  1  0  0  0  0
 12 25  1  0  0  0  0
 13 26  1  0  0  0  0
 14  9  1  0  0  0  0
 14  8  1  0  0  0  0
 15 11  1  6  0  0  0
 16 20  1  6  0  0  0
 17 25  1  0  0  0  0
 18  9  1  0  0  0  0
 19 15  1  0  0  0  0
 20  4  1  0  0  0  0
 21 22  1  0  0  0  0
 22  4  1  0  0  0  0
 23 15  1  0  0  0  0
 24 12  1  0  0  0  0
 25 19  1  6  0  0  0
 26 10  1  0  0  0  0
 26 24  2  0  0  0  0
 27  5  1  0  0  0  0
 28 16  1  0  0  0  0
 28 12  2  0  0  0  0
M  END
>  <MODEL>
7

>  <REMARK>
 VINA RESULT:      -5.3      3.663      5.893
  Name = 
  0 active torsions:
  status: ('A' for Active; 'I' for Inactive)
                            x       y       z     vdW  Elec       q    Type
                         _______ _______ _______ _____ _____    ______ ____

>  <TORSDO>
F 0

$$$$
=
 OpenBabel11122411593D

 28 32  0  0  1  0  0  0  0  0999 V2000
  190.1660  177.7980  143.9720 C   0  0  2  0  0  3  0  0  0  0  0  0
  189.5840  178.2100  141.1100 O   0  0  0  0  0  0  0  0  0  0  0  0
  184.4730  178.4900  146.9450 O   0  0  0  0  0  0  0  0  0  0  0  0
  190.9090  174.9930  143.4780 C   0  0  0  0  0  2  0  0  0  0  0  0
  184.6130  178.3350  144.5900 N   0  0  0  0  0  0  0  0  0  0  0  0
  189.8210  178.9600  144.9090 C   0  0  0  0  0  2  0  0  0  0  0  0
  188.2530  176.3240  140.2470 O   0  0  0  0  0  0  0  0  0  0  0  0
  188.1960  177.6780  140.8960 S   0  0  0  0  0  0  0  0  0  0  0  0
  185.8230  178.9170  140.1990 C   0  0  0  0  0  0  0  0  0  0  0  0
  187.3310  177.5860  142.3860 N   0  0  0  0  0  0  0  0  0  0  0  0
  188.7430  177.4550  148.2960 C   0  0  0  0  0  1  0  0  0  0  0  0
  186.6770  177.3060  144.4910 C   0  0  0  0  0  0  0  0  0  0  0  0
  185.2950  178.6210  141.3950 C   0  0  0  0  0  3  0  0  0  0  0  0
  187.2920  178.8150  139.8580 C   0  0  0  0  0  2  0  0  0  0  0  0
  188.6660  177.7400  146.8090 C   0  0  1  0  0  3  0  0  0  0  0  0
  189.1120  176.6740  143.9900 C   0  0  2  0  0  3  0  0  0  0  0  0
  185.1070  178.1260  145.9190 C   0  0  0  0  0  0  0  0  0  0  0  0
  184.9290  179.5290  139.1820 C   0  0  0  0  0  1  0  0  0  0  0  0
  187.4260  178.4400  146.5070 N   0  0  0  0  0  2  0  0  0  0  0  0
  189.5210  175.4960  143.1030 C   0  0  0  0  0  2  0  0  0  0  0  0
  191.5680  177.2610  144.2740 C   0  0  0  0  0  2  0  0  0  0  0  0
  191.9240  176.1190  143.3320 C   0  0  0  0  0  2  0  0  0  0  0  0
  189.8580  178.5930  146.3960 C   0  0  0  0  0  2  0  0  0  0  0  0
  185.6440  177.8010  143.7870 C   0  0  0  0  0  0  0  0  0  0  0  0
  186.4750  177.4750  145.9660 C   0  0  2  0  0  3  0  0  0  0  0  0
  186.0580  178.0160  142.4950 C   0  0  0  0  0  0  0  0  0  0  0  0
  183.6620  179.3590  144.1920 C   0  0  0  0  0  1  0  0  0  0  0  0
  187.7400  177.1600  143.6150 C   0  0  0  0  0  0  0  0  0  0  0  0
  1 16  1  0  0  0  0
  1 21  1  1  0  0  0
  1  6  1  0  0  0  0
  5 17  1  0  0  0  0
  6 23  1  0  0  0  0
  7  8  2  0  0  0  0
  8  2  2  0  0  0  0
  8 10  1  0  0  0  0
  9 13  2  0  0  0  0
 10 26  1  0  0  0  0
 10 28  1  0  0  0  0
 13 26  1  0  0  0  0
 14  9  1  0  0  0  0
 14  8  1  0  0  0  0
 15 11  1  1  0  0  0
 16 20  1  6  0  0  0
 17 25  1  0  0  0  0
 17  3  2  0  0  0  0
 18  9  1  0  0  0  0
 19 15  1  0  0  0  0
 20  4  1  0  0  0  0
 22  4  1  0  0  0  0
 22 21  1  0  0  0  0
 23 15  1  0  0  0  0
 24 12  1  0  0  0  0
 24  5  1  0  0  0  0
 25 12  1  6  0  0  0
 25 19  1  0  0  0  0
 26 24  2  0  0  0  0
 27  5  1  0  0  0  0
 28 16  1  0  0  0  0
 28 12  2  0  0  0  0
M  END
>  <MODEL>
8

>  <REMARK>
 VINA RESULT:      -5.2      3.576      7.250
  Name = 
  0 active torsions:
  status: ('A' for Active; 'I' for Inactive)
                            x       y       z     vdW  Elec       q    Type
                         _______ _______ _______ _____ _____    ______ ____

>  <TORSDO>
F 0

$$$$
=
 OpenBabel11122411593D

 28 32  0  0  1  0  0  0  0  0999 V2000
  181.9470  175.5620  138.0540 C   0  0  2  0  0  3  0  0  0  0  0  0
  182.5950  172.8900  136.9880 O   0  0  0  0  0  0  0  0  0  0  0  0
  187.5820  178.7180  138.1720 O   0  0  0  0  0  0  0  0  0  0  0  0
  180.3010  176.1710  135.6910 C   0  0  0  0  0  2  0  0  0  0  0  0
  187.3670  176.6390  137.0660 N   0  0  0  0  0  0  0  0  0  0  0  0
  182.6750  175.9760  139.3370 C   0  0  0  0  0  2  0  0  0  0  0  0
  183.2040  173.0640  134.6060 O   0  0  0  0  0  0  0  0  0  0  0  0
  183.7210  173.1010  136.0170 S   0  0  0  0  0  0  0  0  0  0  0  0
  186.3630  172.2790  136.0360 C   0  0  0  0  0  0  0  0  0  0  0  0
  184.5250  174.5970  136.3160 N   0  0  0  0  0  0  0  0  0  0  0  0
  183.2300  179.7920  139.1920 C   0  0  0  0  0  1  0  0  0  0  0  0
  185.0760  176.6980  136.7860 C   0  0  0  0  0  0  0  0  0  0  0  0
  186.7770  173.5500  136.1390 C   0  0  0  0  0  3  0  0  0  0  0  0
  184.9400  171.8180  136.2540 C   0  0  0  0  0  2  0  0  0  0  0  0
  183.3780  178.3450  138.7680 C   0  0  1  0  0  3  0  0  0  0  0  0
  182.5630  176.1810  136.7840 C   0  0  2  0  0  3  0  0  0  0  0  0
  186.8490  177.8580  137.6150 C   0  0  0  0  0  0  0  0  0  0  0  0
  187.3970  171.2300  135.8400 C   0  0  0  0  0  1  0  0  0  0  0  0
  184.7780  177.9500  138.8490 N   0  0  0  0  0  2  0  0  0  0  0  0
  181.7720  175.8110  135.5290 C   0  0  0  0  0  2  0  0  0  0  0  0
  180.4510  175.8690  138.1610 C   0  0  0  0  0  2  0  0  0  0  0  0
  179.7190  175.4410  136.8950 C   0  0  0  0  0  2  0  0  0  0  0  0
  182.5360  177.4630  139.6800 C   0  0  0  0  0  2  0  0  0  0  0  0
  186.2060  175.9980  136.5840 C   0  0  0  0  0  0  0  0  0  0  0  0
  185.3430  177.9860  137.5040 C   0  0  2  0  0  3  0  0  0  0  0  0
  185.8700  174.6890  136.3360 C   0  0  0  0  0  0  0  0  0  0  0  0
  188.6010  175.9870  137.4700 C   0  0  0  0  0  1  0  0  0  0  0  0
  184.0140  175.8260  136.6120 C   0  0  0  0  0  0  0  0  0  0  0  0
  1 21  1  1  0  0  0
  1  6  1  0  0  0  0
  4 22  1  0  0  0  0
  5 27  1  0  0  0  0
  5 17  1  0  0  0  0
  6 23  1  0  0  0  0
  7  8  2  0  0  0  0
  8 14  1  0  0  0  0
  8 10  1  0  0  0  0
  8  2  2  0  0  0  0
  9 13  2  0  0  0  0
  9 14  1  0  0  0  0
 10 26  1  0  0  0  0
 10 28  1  0  0  0  0
 13 26  1  0  0  0  0
 15 19  1  0  0  0  0
 15 11  1  1  0  0  0
 15 23  1  0  0  0  0
 16 20  1  6  0  0  0
 16  1  1  0  0  0  0
 17  3  2  0  0  0  0
 18  9  1  0  0  0  0
 20  4  1  0  0  0  0
 22 21  1  0  0  0  0
 24 12  1  0  0  0  0
 24  5  1  0  0  0  0
 25 12  1  6  0  0  0
 25 17  1  0  0  0  0
 25 19  1  0  0  0  0
 26 24  2  0  0  0  0
 28 16  1  0  0  0  0
 28 12  2  0  0  0  0
M  END
>  <MODEL>
9

>  <REMARK>
 VINA RESULT:      -5.1      3.245      6.054
  Name = 
  0 active torsions:
  status: ('A' for Active; 'I' for Inactive)
                            x       y       z     vdW  Elec       q    Type
                         _______ _______ _______ _____ _____    ______ ____

>  <TORSDO>
F 0

$$$$
