=
 OpenBabel11122411393D

 37 42  0  0  1  0  0  0  0  0999 V2000
  184.6830  178.4600  141.7280 C   0  0  0  0  0  0  0  0  0  0  0  0
  186.8840  178.0280  145.2680 C   0  0  0  0  0  0  0  0  0  0  0  0
  190.1430  178.9460  144.5570 C   0  0  0  0  0  2  0  0  0  0  0  0
  184.8430  178.8340  144.2700 C   0  0  0  0  0  0  0  0  0  0  0  0
  188.0840  177.2860  144.7960 C   0  0  2  0  0  3  0  0  0  0  0  0
  185.9970  178.0620  144.2350 C   0  0  0  0  0  0  0  0  0  0  0  0
  189.4570  177.7910  145.2980 C   0  0  2  0  0  3  0  0  0  0  0  0
  184.5240  179.4880  145.4700 C   0  0  0  0  0  3  0  0  0  0  0  0
  186.5450  177.3850  143.0490 C   0  0  1  0  0  3  0  0  0  0  0  0
  184.4130  179.3780  140.5550 C   0  0  0  0  0  1  0  0  0  0  0  0
  187.5200  178.6580  147.6670 C   0  0  0  0  0  2  0  0  0  0  0  0
  185.3850  179.3760  146.5840 C   0  0  0  0  0  3  0  0  0  0  0  0
  186.2070  178.2280  141.8210 C   0  0  0  0  0  2  0  0  0  0  0  0
  190.8740  177.4320  142.5650 C   0  0  1  0  0  3  0  0  0  0  0  0
  190.2530  178.7610  143.0360 C   0  0  0  0  0  2  0  0  0  0  0  0
  186.5840  178.6440  146.4960 C   0  0  0  0  0  0  0  0  0  0  0  0
  187.9820  177.3360  143.3230 N   0  0  2  0  0  0  0  0  0  0  0  0
  184.0830  179.1130  142.9990 C   0  0  0  0  0  2  0  0  0  0  0  0
  189.7100  177.8100  146.8110 C   0  0  1  0  0  3  0  0  0  0  0  0
  183.9730  177.1420  141.4650 C   0  0  0  0  0  1  0  0  0  0  0  0
  190.1170  176.1490  142.9690 C   0  0  0  0  0  2  0  0  0  0  0  0
  188.5980  176.1620  142.7150 C   0  0  0  0  0  2  0  0  0  0  0  0
  188.4920  177.4880  147.6740 C   0  0  0  0  0  2  0  0  0  0  0  0
  191.1290  175.8090  146.3380 C   0  0  0  0  0  3  0  0  0  0  0  0
  190.8530  176.9110  147.1560 C   0  0  0  0  0  0  0  0  0  0  0  0
  191.6450  177.1470  148.2910 C   0  0  0  0  0  3  0  0  0  0  0  0
  193.5370  176.5410  149.8030 C   0  0  0  0  0  1  0  0  0  0  0  0
  192.9740  175.1890  147.7790 C   0  0  0  0  0  3  0  0  0  0  0  0
  192.7020  176.2870  148.6000 C   0  0  0  0  0  0  0  0  0  0  0  0
  192.1880  174.9510  146.6480 C   0  0  0  0  0  3  0  0  0  0  0  0
  191.1670  177.5610  138.1880 O   0  0  0  0  0  0  0  0  0  0  0  0
  190.0570  177.6190  138.7800 C   0  0  0  0  0  0  0  0  0  0  0  0
  191.1090  177.4630  141.0910 C   0  0  0  0  0  0  0  0  0  0  0  0
  189.9850  177.5730  140.2100 N   0  0  0  0  0  2  0  0  0  0  0  0
  192.2840  177.4020  140.6360 O   0  0  0  0  0  0  0  0  0  0  0  0
  188.1000  178.8020  138.1430 O   0  0  0  0  0  1  0  0  0  0  0  0
  188.8910  177.7280  138.0280 O   0  0  0  0  0  0  0  0  0  0  0  0
  1 13  1  0  0  0  0
  1 18  1  0  0  0  0
  2 16  1  0  0  0  0
  4  8  2  0  0  0  0
  5  2  1  1  0  0  0
  5  7  1  0  0  0  0
  6  4  1  0  0  0  0
  6  2  2  0  0  0  0
  7  3  1  1  0  0  0
  7 19  1  0  0  0  0
  8 12  1  0  0  0  0
  9 13  1  6  0  0  0
  9 17  1  0  0  0  0
  9  6  1  0  0  0  0
 10  1  1  0  0  0  0
 11 23  1  0  0  0  0
 14 33  1  6  0  0  0
 14 21  1  0  0  0  0
 14 15  1  0  0  0  0
 15  3  1  0  0  0  0
 16 12  2  0  0  0  0
 16 11  1  0  0  0  0
 17 22  1  6  0  0  0
 17  5  1  0  0  0  0
 18  4  1  0  0  0  0
 19 25  1  6  0  0  0
 19 23  1  0  0  0  0
 20  1  1  0  0  0  0
 22 21  1  0  0  0  0
 24 30  2  0  0  0  0
 24 25  1  0  0  0  0
 25 26  2  0  0  0  0
 26 29  1  0  0  0  0
 28 29  2  0  0  0  0
 29 27  1  0  0  0  0
 30 28  1  0  0  0  0
 31 32  2  0  0  0  0
 32 34  1  0  0  0  0
 34 33  1  0  0  0  0
 35 33  2  0  0  0  0
 37 36  1  0  0  0  0
 37 32  1  0  0  0  0
M  END
>  <MODEL>
1

>  <REMARK>
 VINA RESULT:      -8.8      0.000      0.000
  Name = 
  3 active torsions:
  status: ('A' for Active; 'I' for Inactive)
    1  A    between atoms: C_4  and  O_37
    2  A    between atoms: C_8  and  C_18
    3  A    between atoms: C_23  and  C_30
                            x       y       z     vdW  Elec       q    Type
                         _______ _______ _______ _____ _____    ______ ____

>  <TORSDO>
F 3

$$$$
=
 OpenBabel11122411393D

 37 42  0  0  1  0  0  0  0  0999 V2000
  188.6900  177.3710  142.8490 C   0  0  0  0  0  0  0  0  0  0  0  0
  184.7280  178.6230  143.3990 C   0  0  0  0  0  0  0  0  0  0  0  0
  182.8410  177.1480  140.9030 C   0  0  0  0  0  2  0  0  0  0  0  0
  186.7280  177.7940  144.4610 C   0  0  0  0  0  0  0  0  0  0  0  0
  184.3410  179.0320  142.0210 C   0  0  2  0  0  3  0  0  0  0  0  0
  186.0670  178.3740  143.3850 C   0  0  0  0  0  0  0  0  0  0  0  0
  182.9620  178.5500  141.5140 C   0  0  2  0  0  3  0  0  0  0  0  0
  186.0040  177.5910  145.6460 C   0  0  0  0  0  3  0  0  0  0  0  0
  186.6260  178.5760  142.0390 C   0  0  1  0  0  3  0  0  0  0  0  0
  189.5710  176.1720  142.5730 C   0  0  0  0  0  1  0  0  0  0  0  0
  182.5000  178.7040  144.6580 C   0  0  0  0  0  2  0  0  0  0  0  0
  184.6380  177.9420  145.7060 C   0  0  0  0  0  3  0  0  0  0  0  0
  187.6040  177.4370  141.7530 C   0  0  0  0  0  2  0  0  0  0  0  0
  183.9650  177.8650  138.6630 C   0  0  1  0  0  3  0  0  0  0  0  0
  183.8660  176.8330  139.8040 C   0  0  0  0  0  2  0  0  0  0  0  0
  183.9770  178.4620  144.5770 C   0  0  0  0  0  0  0  0  0  0  0  0
  185.4450  178.5360  141.1750 N   0  0  2  0  0  0  0  0  0  0  0  0
  188.1110  177.2250  144.2790 C   0  0  0  0  0  2  0  0  0  0  0  0
  181.7140  178.9740  142.3000 C   0  0  1  0  0  3  0  0  0  0  0  0
  189.5610  178.6160  142.7910 C   0  0  0  0  0  1  0  0  0  0  0  0
  184.3920  179.2910  139.0730 C   0  0  0  0  0  2  0  0  0  0  0  0
  185.6210  179.3800  139.9970 C   0  0  0  0  0  2  0  0  0  0  0  0
  181.9940  179.6920  143.6190 C   0  0  0  0  0  2  0  0  0  0  0  0
  179.7910  180.5460  142.0280 C   0  0  0  0  0  3  0  0  0  0  0  0
  180.8110  179.7940  141.4350 C   0  0  0  0  0  0  0  0  0  0  0  0
  180.9630  179.8100  140.0390 C   0  0  0  0  0  3  0  0  0  0  0  0
  180.2670  180.5880  137.7710 C   0  0  0  0  0  1  0  0  0  0  0  0
  179.0860  181.3260  139.8460 C   0  0  0  0  0  3  0  0  0  0  0  0
  180.1020  180.5750  139.2490 C   0  0  0  0  0  0  0  0  0  0  0  0
  178.9310  181.3110  141.2350 C   0  0  0  0  0  3  0  0  0  0  0  0
  186.8170  176.6000  135.5760 O   0  0  0  0  0  0  0  0  0  0  0  0
  187.0940  177.5090  136.4020 C   0  0  0  0  0  0  0  0  0  0  0  0
  184.8400  177.3460  137.5700 C   0  0  0  0  0  0  0  0  0  0  0  0
  186.1460  177.9070  137.4000 N   0  0  0  0  0  2  0  0  0  0  0  0
  184.4290  176.4210  136.8160 O   0  0  0  0  0  0  0  0  0  0  0  0
  188.5880  179.2390  137.0450 O   0  0  0  0  0  1  0  0  0  0  0  0
  188.3380  178.1300  136.3360 O   0  0  0  0  0  0  0  0  0  0  0  0
  1 18  1  0  0  0  0
  2 16  1  0  0  0  0
  4  8  2  0  0  0  0
  5  2  1  1  0  0  0
  6  2  2  0  0  0  0
  6  4  1  0  0  0  0
  7  3  1  1  0  0  0
  7  5  1  0  0  0  0
  7 19  1  0  0  0  0
  8 12  1  0  0  0  0
  9 13  1  6  0  0  0
  9  6  1  0  0  0  0
 10  1  1  0  0  0  0
 13  1  1  0  0  0  0
 14 33  1  6  0  0  0
 14 21  1  0  0  0  0
 14 15  1  0  0  0  0
 15  3  1  0  0  0  0
 16 11  1  0  0  0  0
 16 12  2  0  0  0  0
 17 22  1  6  0  0  0
 17  5  1  0  0  0  0
 17  9  1  0  0  0  0
 18  4  1  0  0  0  0
 19 25  1  6  0  0  0
 19 23  1  0  0  0  0
 20  1  1  0  0  0  0
 21 22  1  0  0  0  0
 23 11  1  0  0  0  0
 25 24  1  0  0  0  0
 26 25  2  0  0  0  0
 27 29  1  0  0  0  0
 28 30  1  0  0  0  0
 29 28  2  0  0  0  0
 29 26  1  0  0  0  0
 30 24  2  0  0  0  0
 31 32  2  0  0  0  0
 32 34  1  0  0  0  0
 34 33  1  0  0  0  0
 35 33  2  0  0  0  0
 37 32  1  0  0  0  0
 37 36  1  0  0  0  0
M  END
>  <MODEL>
2

>  <REMARK>
 VINA RESULT:      -7.4      3.215      8.292
  Name = 
  3 active torsions:
  status: ('A' for Active; 'I' for Inactive)
    1  A    between atoms: C_4  and  O_37
    2  A    between atoms: C_8  and  C_18
    3  A    between atoms: C_23  and  C_30
                            x       y       z     vdW  Elec       q    Type
                         _______ _______ _______ _____ _____    ______ ____

>  <TORSDO>
F 3

$$$$
=
 OpenBabel11122411393D

 37 42  0  0  1  0  0  0  0  0999 V2000
  184.8680  178.7170  143.9740 C   0  0  0  0  0  0  0  0  0  0  0  0
  181.4100  178.7770  141.6060 C   0  0  0  0  0  0  0  0  0  0  0  0
  181.9110  176.5380  139.0170 C   0  0  0  0  0  2  0  0  0  0  0  0
  182.2960  178.7070  143.8470 C   0  0  0  0  0  0  0  0  0  0  0  0
  181.9770  178.8970  140.2360 C   0  0  2  0  0  3  0  0  0  0  0  0
  182.4380  178.9400  142.4850 C   0  0  0  0  0  0  0  0  0  0  0  0
  181.3780  177.9700  139.1520 C   0  0  2  0  0  3  0  0  0  0  0  0
  181.0120  178.4290  144.3370 C   0  0  0  0  0  3  0  0  0  0  0  0
  183.7090  179.1500  141.7740 C   0  0  1  0  0  3  0  0  0  0  0  0
  185.8810  177.8130  144.6430 C   0  0  0  0  0  1  0  0  0  0  0  0
  178.9310  178.3250  141.1520 C   0  0  0  0  0  2  0  0  0  0  0  0
  179.9170  178.3590  143.4490 C   0  0  0  0  0  3  0  0  0  0  0  0
  184.7900  178.3330  142.4790 C   0  0  0  0  0  2  0  0  0  0  0  0
  184.1110  177.3070  137.8470 C   0  0  1  0  0  3  0  0  0  0  0  0
  183.4400  176.4260  138.9190 C   0  0  0  0  0  2  0  0  0  0  0  0
  180.1030  178.5290  142.0630 C   0  0  0  0  0  0  0  0  0  0  0  0
  183.4240  178.6640  140.4240 N   0  0  2  0  0  0  0  0  0  0  0  0
  183.5180  178.5620  144.7180 C   0  0  0  0  0  2  0  0  0  0  0  0
  179.8780  178.0860  138.8510 C   0  0  1  0  0  3  0  0  0  0  0  0
  185.3520  180.1500  144.1160 C   0  0  0  0  0  1  0  0  0  0  0  0
  183.9310  178.8320  138.0140 C   0  0  0  0  0  2  0  0  0  0  0  0
  184.2040  179.3860  139.4240 C   0  0  0  0  0  2  0  0  0  0  0  0
  179.0980  178.9960  139.7970 C   0  0  0  0  0  2  0  0  0  0  0  0
  179.1880  177.5570  136.5090 C   0  0  0  0  0  3  0  0  0  0  0  0
  179.6650  178.4970  137.4290 C   0  0  0  0  0  0  0  0  0  0  0  0
  179.9480  179.8040  137.0020 C   0  0  0  0  0  3  0  0  0  0  0  0
  180.0530  181.5480  135.2190 C   0  0  0  0  0  1  0  0  0  0  0  0
  179.2740  179.2210  134.7510 C   0  0  0  0  0  3  0  0  0  0  0  0
  179.7520  180.1630  135.6660 C   0  0  0  0  0  0  0  0  0  0  0  0
  178.9920  177.9180  135.1730 C   0  0  0  0  0  3  0  0  0  0  0  0
  188.4430  176.6450  137.6120 O   0  0  0  0  0  0  0  0  0  0  0  0
  187.9600  177.7360  138.0150 C   0  0  0  0  0  0  0  0  0  0  0  0
  185.5560  176.9570  137.7180 C   0  0  0  0  0  0  0  0  0  0  0  0
  186.5420  177.9300  138.0820 N   0  0  0  0  0  2  0  0  0  0  0  0
  185.8960  175.8160  137.3020 O   0  0  0  0  0  0  0  0  0  0  0  0
  189.0100  179.8270  137.6110 O   0  0  0  0  0  1  0  0  0  0  0  0
  188.8220  178.7600  138.3980 O   0  0  0  0  0  0  0  0  0  0  0  0
  1 20  1  0  0  0  0
  1 10  1  0  0  0  0
  1 18  1  0  0  0  0
  2 16  2  0  0  0  0
  2  6  1  0  0  0  0
  4  8  1  0  0  0  0
  4 18  1  0  0  0  0
  5 17  1  0  0  0  0
  5  2  1  1  0  0  0
  6  4  2  0  0  0  0
  7  3  1  1  0  0  0
  7  5  1  0  0  0  0
  9 13  1  1  0  0  0
  9  6  1  0  0  0  0
 11 16  1  0  0  0  0
 12  8  2  0  0  0  0
 13  1  1  0  0  0  0
 14 33  1  1  0  0  0
 14 21  1  0  0  0  0
 14 15  1  0  0  0  0
 15  3  1  0  0  0  0
 16 12  1  0  0  0  0
 17 22  1  6  0  0  0
 17  9  1  0  0  0  0
 19 25  1  6  0  0  0
 19  7  1  0  0  0  0
 19 23  1  0  0  0  0
 21 22  1  0  0  0  0
 23 11  1  0  0  0  0
 24 25  1  0  0  0  0
 26 25  2  0  0  0  0
 27 29  1  0  0  0  0
 28 30  1  0  0  0  0
 28 29  2  0  0  0  0
 29 26  1  0  0  0  0
 30 24  2  0  0  0  0
 31 32  2  0  0  0  0
 32 34  1  0  0  0  0
 32 37  1  0  0  0  0
 33 34  1  0  0  0  0
 35 33  2  0  0  0  0
 36 37  1  0  0  0  0
M  END
>  <MODEL>
3

>  <REMARK>
 VINA RESULT:      -7.3      4.301      9.791
  Name = 
  3 active torsions:
  status: ('A' for Active; 'I' for Inactive)
    1  A    between atoms: C_4  and  O_37
    2  A    between atoms: C_8  and  C_18
    3  A    between atoms: C_23  and  C_30
                            x       y       z     vdW  Elec       q    Type
                         _______ _______ _______ _____ _____    ______ ____

>  <TORSDO>
F 3

$$$$
=
 OpenBabel11122411393D

 37 42  0  0  1  0  0  0  0  0999 V2000
  188.2210  177.4090  143.0560 C   0  0  0  0  0  0  0  0  0  0  0  0
  184.2540  178.7610  143.1230 C   0  0  0  0  0  0  0  0  0  0  0  0
  182.5670  177.0860  140.6110 C   0  0  0  0  0  2  0  0  0  0  0  0
  186.1310  178.0080  144.4360 C   0  0  0  0  0  0  0  0  0  0  0  0
  184.0020  179.0450  141.6840 C   0  0  2  0  0  3  0  0  0  0  0  0
  185.5830  178.4940  143.2550 C   0  0  0  0  0  0  0  0  0  0  0  0
  182.6640  178.5360  141.0990 C   0  0  2  0  0  3  0  0  0  0  0  0
  185.2990  177.9270  145.5630 C   0  0  0  0  0  3  0  0  0  0  0  0
  186.2650  178.5610  141.9530 C   0  0  1  0  0  3  0  0  0  0  0  0
  189.0960  176.1770  142.9730 C   0  0  0  0  0  1  0  0  0  0  0  0
  181.9240  178.9910  144.1600 C   0  0  0  0  0  2  0  0  0  0  0  0
  183.9410  178.3000  145.4650 C   0  0  0  0  0  3  0  0  0  0  0  0
  187.2390  177.3870  141.8640 C   0  0  0  0  0  2  0  0  0  0  0  0
  183.9040  177.5740  138.4270 C   0  0  1  0  0  3  0  0  0  0  0  0
  183.6800  176.6550  139.6440 C   0  0  0  0  0  2  0  0  0  0  0  0
  183.3970  178.7210  144.2370 C   0  0  0  0  0  0  0  0  0  0  0  0
  185.1670  178.4570  140.9920 N   0  0  2  0  0  0  0  0  0  0  0  0
  187.5120  177.4050  144.4340 C   0  0  0  0  0  2  0  0  0  0  0  0
  181.3600  179.0500  141.7250 C   0  0  1  0  0  3  0  0  0  0  0  0
  189.1210  178.6300  142.9640 C   0  0  0  0  0  1  0  0  0  0  0  0
  184.3240  179.0260  138.7420 C   0  0  0  0  0  2  0  0  0  0  0  0
  185.4670  179.1840  139.7620 C   0  0  0  0  0  2  0  0  0  0  0  0
  181.5360  179.8840  142.9920 C   0  0  0  0  0  2  0  0  0  0  0  0
  179.6980  180.8170  141.1310 C   0  0  0  0  0  3  0  0  0  0  0  0
  180.5570  179.7970  140.7090 C   0  0  0  0  0  0  0  0  0  0  0  0
  180.6440  179.4840  139.3430 C   0  0  0  0  0  3  0  0  0  0  0  0
  179.9720  179.8520  136.9670 C   0  0  0  0  0  1  0  0  0  0  0  0
  179.0210  181.2070  138.8380 C   0  0  0  0  0  3  0  0  0  0  0  0
  179.8780  180.1880  138.4120 C   0  0  0  0  0  0  0  0  0  0  0  0
  178.9310  181.5220  140.1970 C   0  0  0  0  0  3  0  0  0  0  0  0
  186.6120  175.3670  135.7700 O   0  0  0  0  0  0  0  0  0  0  0  0
  185.9000  174.7800  136.6270 C   0  0  0  0  0  0  0  0  0  0  0  0
  184.8620  176.9440  137.4710 C   0  0  0  0  0  0  0  0  0  0  0  0
  185.0240  175.5220  137.4860 N   0  0  0  0  0  2  0  0  0  0  0  0
  185.5080  177.6610  136.6580 O   0  0  0  0  0  0  0  0  0  0  0  0
  186.0500  172.8040  137.9360 O   0  0  0  0  0  1  0  0  0  0  0  0
  185.9710  173.3940  136.7360 O   0  0  0  0  0  0  0  0  0  0  0  0
  1 18  1  0  0  0  0
  2  6  2  0  0  0  0
  2 16  1  0  0  0  0
  4  8  2  0  0  0  0
  5  2  1  1  0  0  0
  6  4  1  0  0  0  0
  7  3  1  1  0  0  0
  7  5  1  0  0  0  0
  7 19  1  0  0  0  0
  9 13  1  6  0  0  0
  9  6  1  0  0  0  0
 10  1  1  0  0  0  0
 11 16  1  0  0  0  0
 12  8  1  0  0  0  0
 13  1  1  0  0  0  0
 14 33  1  6  0  0  0
 14 21  1  0  0  0  0
 14 15  1  0  0  0  0
 15  3  1  0  0  0  0
 16 12  2  0  0  0  0
 17 22  1  6  0  0  0
 17  5  1  0  0  0  0
 17  9  1  0  0  0  0
 18  4  1  0  0  0  0
 19 25  1  6  0  0  0
 19 23  1  0  0  0  0
 20  1  1  0  0  0  0
 21 22  1  0  0  0  0
 23 11  1  0  0  0  0
 25 24  1  0  0  0  0
 26 25  2  0  0  0  0
 27 29  1  0  0  0  0
 28 30  1  0  0  0  0
 29 28  2  0  0  0  0
 29 26  1  0  0  0  0
 30 24  2  0  0  0  0
 31 32  2  0  0  0  0
 32 37  1  0  0  0  0
 32 34  1  0  0  0  0
 33 34  1  0  0  0  0
 35 33  2  0  0  0  0
 37 36  1  0  0  0  0
M  END
>  <MODEL>
4

>  <REMARK>
 VINA RESULT:      -7.2      3.630      8.698
  Name = 
  3 active torsions:
  status: ('A' for Active; 'I' for Inactive)
    1  A    between atoms: C_4  and  O_37
    2  A    between atoms: C_8  and  C_18
    3  A    between atoms: C_23  and  C_30
                            x       y       z     vdW  Elec       q    Type
                         _______ _______ _______ _____ _____    ______ ____

>  <TORSDO>
F 3

$$$$
=
 OpenBabel11122411393D

 37 42  0  0  1  0  0  0  0  0999 V2000
  188.4190  177.7280  142.1260 C   0  0  0  0  0  0  0  0  0  0  0  0
  184.5840  178.6730  140.7240 C   0  0  0  0  0  0  0  0  0  0  0  0
  183.8650  176.4630  138.1630 C   0  0  0  0  0  2  0  0  0  0  0  0
  185.9740  178.3270  142.6640 C   0  0  0  0  0  0  0  0  0  0  0  0
  184.7930  178.7000  139.2510 C   0  0  2  0  0  3  0  0  0  0  0  0
  185.8110  178.5630  141.3040 C   0  0  0  0  0  0  0  0  0  0  0  0
  183.7360  177.9750  138.3850 C   0  0  2  0  0  3  0  0  0  0  0  0
  184.8290  178.3430  143.4750 C   0  0  0  0  0  3  0  0  0  0  0  0
  186.8700  178.4910  140.2850 C   0  0  1  0  0  3  0  0  0  0  0  0
  189.3280  176.5910  142.5400 C   0  0  0  0  0  1  0  0  0  0  0  0
  182.0370  178.8310  140.9350 C   0  0  0  0  0  2  0  0  0  0  0  0
  183.5590  178.5600  142.8990 C   0  0  0  0  0  3  0  0  0  0  0  0
  187.8730  177.4210  140.7140 C   0  0  0  0  0  2  0  0  0  0  0  0
  185.8070  176.7300  136.4450 C   0  0  1  0  0  3  0  0  0  0  0  0
  185.2470  175.9980  137.6790 C   0  0  0  0  0  2  0  0  0  0  0  0
  183.4180  178.7250  141.5080 C   0  0  0  0  0  0  0  0  0  0  0  0
  186.1430  178.1280  139.0680 N   0  0  2  0  0  0  0  0  0  0  0  0
  187.3080  177.8710  143.1960 C   0  0  0  0  0  2  0  0  0  0  0  0
  182.2790  178.4490  138.4760 C   0  0  1  0  0  3  0  0  0  0  0  0
  189.2460  179.0030  142.0950 C   0  0  0  0  0  1  0  0  0  0  0  0
  186.0400  178.2480  136.6050 C   0  0  0  0  0  2  0  0  0  0  0  0
  186.7880  178.6780  137.8800 C   0  0  0  0  0  2  0  0  0  0  0  0
  182.0040  179.4860  139.5630 C   0  0  0  0  0  2  0  0  0  0  0  0
  181.9750  178.1300  136.0180 C   0  0  0  0  0  3  0  0  0  0  0  0
  181.8120  178.9430  137.1450 C   0  0  0  0  0  0  0  0  0  0  0  0
  181.2250  180.2110  137.0070 C   0  0  0  0  0  3  0  0  0  0  0  0
  180.1840  182.0000  135.6100 C   0  0  0  0  0  1  0  0  0  0  0  0
  180.9690  179.8400  134.6280 C   0  0  0  0  0  3  0  0  0  0  0  0
  180.8040  180.6560  135.7510 C   0  0  0  0  0  0  0  0  0  0  0  0
  181.5530  178.5770  134.7620 C   0  0  0  0  0  3  0  0  0  0  0  0
  189.5150  174.6280  135.3990 O   0  0  0  0  0  0  0  0  0  0  0  0
  189.0900  174.6730  136.5840 C   0  0  0  0  0  0  0  0  0  0  0  0
  187.0470  176.0550  135.9600 C   0  0  0  0  0  0  0  0  0  0  0  0
  187.8780  175.3670  136.9020 N   0  0  0  0  0  2  0  0  0  0  0  0
  187.3470  176.0870  134.7350 O   0  0  0  0  0  0  0  0  0  0  0  0
  191.0120  174.5030  137.9680 O   0  0  0  0  0  1  0  0  0  0  0  0
  189.8140  174.0390  137.5900 O   0  0  0  0  0  0  0  0  0  0  0  0
  1 10  1  0  0  0  0
  1 18  1  0  0  0  0
  2  6  2  0  0  0  0
  2 16  1  0  0  0  0
  4 18  1  0  0  0  0
  4  8  2  0  0  0  0
  5  2  1  1  0  0  0
  6  4  1  0  0  0  0
  7  3  1  1  0  0  0
  7 19  1  0  0  0  0
  7  5  1  0  0  0  0
  9 13  1  1  0  0  0
  9  6  1  0  0  0  0
 11 16  1  0  0  0  0
 12  8  1  0  0  0  0
 13  1  1  0  0  0  0
 14 33  1  1  0  0  0
 14 21  1  0  0  0  0
 14 15  1  0  0  0  0
 15  3  1  0  0  0  0
 16 12  2  0  0  0  0
 17 22  1  6  0  0  0
 17  5  1  0  0  0  0
 17  9  1  0  0  0  0
 19 25  1  6  0  0  0
 19 23  1  0  0  0  0
 20  1  1  0  0  0  0
 21 22  1  0  0  0  0
 23 11  1  0  0  0  0
 24 25  1  0  0  0  0
 26 25  2  0  0  0  0
 27 29  1  0  0  0  0
 28 30  1  0  0  0  0
 28 29  2  0  0  0  0
 29 26  1  0  0  0  0
 30 24  2  0  0  0  0
 31 32  2  0  0  0  0
 32 34  1  0  0  0  0
 32 37  1  0  0  0  0
 33 34  1  0  0  0  0
 35 33  2  0  0  0  0
 37 36  1  0  0  0  0
M  END
>  <MODEL>
5

>  <REMARK>
 VINA RESULT:      -6.8      3.725      9.211
  Name = 
  3 active torsions:
  status: ('A' for Active; 'I' for Inactive)
    1  A    between atoms: C_4  and  O_37
    2  A    between atoms: C_8  and  C_18
    3  A    between atoms: C_23  and  C_30
                            x       y       z     vdW  Elec       q    Type
                         _______ _______ _______ _____ _____    ______ ____

>  <TORSDO>
F 3

$$$$
=
 OpenBabel11122411393D

 37 42  0  0  1  0  0  0  0  0999 V2000
  187.5640  177.5990  137.0710 C   0  0  0  0  0  0  0  0  0  0  0  0
  185.5110  178.5160  140.6080 C   0  0  0  0  0  0  0  0  0  0  0  0
  182.7000  176.5030  140.7040 C   0  0  0  0  0  2  0  0  0  0  0  0
  187.6550  178.0610  139.6020 C   0  0  0  0  0  0  0  0  0  0  0  0
  184.1140  178.6740  140.1210 C   0  0  2  0  0  3  0  0  0  0  0  0
  186.3110  178.4040  139.5120 C   0  0  0  0  0  0  0  0  0  0  0  0
  183.0060  177.9850  140.9520 C   0  0  2  0  0  3  0  0  0  0  0  0
  188.2250  177.9670  140.8810 C   0  0  0  0  0  3  0  0  0  0  0  0
  185.5170  178.4560  138.2740 C   0  0  1  0  0  3  0  0  0  0  0  0
  188.0620  176.4650  136.2010 C   0  0  0  0  0  1  0  0  0  0  0  0
  185.2290  178.5630  143.1530 C   0  0  0  0  0  2  0  0  0  0  0  0
  187.4280  178.1840  142.0260 C   0  0  0  0  0  3  0  0  0  0  0  0
  186.0530  177.3910  137.3190 C   0  0  0  0  0  2  0  0  0  0  0  0
  181.4220  176.9840  138.4830 C   0  0  1  0  0  3  0  0  0  0  0  0
  182.4640  176.1310  139.2320 C   0  0  0  0  0  2  0  0  0  0  0  0
  186.0530  178.4600  141.9040 C   0  0  0  0  0  0  0  0  0  0  0  0
  184.1580  178.1690  138.7330 N   0  0  2  0  0  0  0  0  0  0  0  0
  188.4020  177.6110  138.3740 C   0  0  0  0  0  2  0  0  0  0  0  0
  182.8440  178.3970  142.4220 C   0  0  1  0  0  3  0  0  0  0  0  0
  187.7910  178.9010  136.3210 C   0  0  0  0  0  1  0  0  0  0  0  0
  181.7380  178.4910  138.3660 C   0  0  0  0  0  2  0  0  0  0  0  0
  183.1640  178.8400  137.9010 C   0  0  0  0  0  2  0  0  0  0  0  0
  183.9300  179.3280  142.9550 C   0  0  0  0  0  2  0  0  0  0  0  0
  180.8280  178.7330  143.8570 C   0  0  0  0  0  3  0  0  0  0  0  0
  181.4880  178.9820  142.6490 C   0  0  0  0  0  0  0  0  0  0  0  0
  180.8630  179.7660  141.6660 C   0  0  0  0  0  3  0  0  0  0  0  0
  178.9330  181.1240  140.8520 C   0  0  0  0  0  1  0  0  0  0  0  0
  178.9360  180.0440  143.1050 C   0  0  0  0  0  3  0  0  0  0  0  0
  179.5910  180.2950  141.8960 C   0  0  0  0  0  0  0  0  0  0  0  0
  179.5550  179.2640  144.0860 C   0  0  0  0  0  3  0  0  0  0  0  0
  180.7510  174.9160  134.6710 O   0  0  0  0  0  0  0  0  0  0  0  0
  181.2930  174.3400  135.6510 C   0  0  0  0  0  0  0  0  0  0  0  0
  181.1410  176.3980  137.1400 C   0  0  0  0  0  0  0  0  0  0  0  0
  181.5040  175.0360  136.8860 N   0  0  0  0  0  2  0  0  0  0  0  0
  180.5840  177.0960  136.2490 O   0  0  0  0  0  0  0  0  0  0  0  0
  182.8270  172.5800  136.0840 O   0  0  0  0  0  1  0  0  0  0  0  0
  181.6890  173.0120  135.5240 O   0  0  0  0  0  0  0  0  0  0  0  0
  1 13  1  0  0  0  0
  1 18  1  0  0  0  0
  2 16  1  0  0  0  0
  4  8  2  0  0  0  0
  5  2  1  1  0  0  0
  5  7  1  0  0  0  0
  6  4  1  0  0  0  0
  6  2  2  0  0  0  0
  7  3  1  1  0  0  0
  7 19  1  0  0  0  0
  8 12  1  0  0  0  0
  9 13  1  6  0  0  0
  9 17  1  0  0  0  0
  9  6  1  0  0  0  0
 10  1  1  0  0  0  0
 14 33  1  6  0  0  0
 14 15  1  0  0  0  0
 15  3  1  0  0  0  0
 16 12  2  0  0  0  0
 16 11  1  0  0  0  0
 17 22  1  6  0  0  0
 17  5  1  0  0  0  0
 18  4  1  0  0  0  0
 19 25  1  6  0  0  0
 19 23  1  0  0  0  0
 20  1  1  0  0  0  0
 21 14  1  0  0  0  0
 22 21  1  0  0  0  0
 23 11  1  0  0  0  0
 24 30  1  0  0  0  0
 25 24  2  0  0  0  0
 26 29  2  0  0  0  0
 26 25  1  0  0  0  0
 27 29  1  0  0  0  0
 28 30  2  0  0  0  0
 29 28  1  0  0  0  0
 31 32  2  0  0  0  0
 32 34  1  0  0  0  0
 34 33  1  0  0  0  0
 35 33  2  0  0  0  0
 37 32  1  0  0  0  0
 37 36  1  0  0  0  0
M  END
>  <MODEL>
6

>  <REMARK>
 VINA RESULT:      -6.8      5.443      9.263
  Name = 
  3 active torsions:
  status: ('A' for Active; 'I' for Inactive)
    1  A    between atoms: C_4  and  O_37
    2  A    between atoms: C_8  and  C_18
    3  A    between atoms: C_23  and  C_30
                            x       y       z     vdW  Elec       q    Type
                         _______ _______ _______ _____ _____    ______ ____

>  <TORSDO>
F 3

$$$$
=
 OpenBabel11122411393D

 37 42  0  0  1  0  0  0  0  0999 V2000
  191.4980  176.2520  138.1440 C   0  0  0  0  0  0  0  0  0  0  0  0
  187.6600  177.7400  138.9340 C   0  0  0  0  0  0  0  0  0  0  0  0
  187.8970  179.7150  141.7640 C   0  0  0  0  0  2  0  0  0  0  0  0
  189.3320  177.3190  137.2490 C   0  0  0  0  0  0  0  0  0  0  0  0
  187.5200  177.4730  140.3910 C   0  0  2  0  0  3  0  0  0  0  0  0
  188.8000  177.1230  138.5180 C   0  0  0  0  0  0  0  0  0  0  0  0
  186.9490  178.6210  141.2570 C   0  0  2  0  0  3  0  0  0  0  0  0
  188.5840  178.0700  136.3310 C   0  0  0  0  0  3  0  0  0  0  0  0
  189.4750  176.4510  139.6400 C   0  0  1  0  0  3  0  0  0  0  0  0
  192.9610  176.6250  138.0430 C   0  0  0  0  0  1  0  0  0  0  0  0
  185.6100  179.1890  138.4280 C   0  0  0  0  0  2  0  0  0  0  0  0
  187.3470  178.6300  136.7190 C   0  0  0  0  0  3  0  0  0  0  0  0
  190.9750  176.7160  139.5220 C   0  0  0  0  0  2  0  0  0  0  0  0
  188.9280  178.1790  143.6010 C   0  0  1  0  0  3  0  0  0  0  0  0
  189.1610  179.1980  142.4680 C   0  0  0  0  0  2  0  0  0  0  0  0
  186.8680  178.4740  138.0340 C   0  0  0  0  0  0  0  0  0  0  0  0
  188.8800  177.0840  140.8180 N   0  0  2  0  0  0  0  0  0  0  0  0
  190.7510  176.9050  136.9540 C   0  0  0  0  0  2  0  0  0  0  0  0
  185.5450  179.1450  140.9270 C   0  0  1  0  0  3  0  0  0  0  0  0
  191.3900  174.7410  138.0300 C   0  0  0  0  0  1  0  0  0  0  0  0
  188.2480  176.8540  143.1930 C   0  0  0  0  0  2  0  0  0  0  0  0
  188.8300  176.1610  141.9480 C   0  0  0  0  0  2  0  0  0  0  0  0
  184.9310  178.5840  139.6460 C   0  0  0  0  0  2  0  0  0  0  0  0
  183.2550  178.7960  141.8600 C   0  0  0  0  0  3  0  0  0  0  0  0
  184.6280  178.9350  142.0880 C   0  0  0  0  0  0  0  0  0  0  0  0
  185.1210  178.8880  143.4020 C   0  0  0  0  0  3  0  0  0  0  0  0
  184.7720  178.6530  145.8630 C   0  0  0  0  0  1  0  0  0  0  0  0
  182.8740  178.5610  144.2400 C   0  0  0  0  0  3  0  0  0  0  0  0
  184.2450  178.7010  144.4740 C   0  0  0  0  0  0  0  0  0  0  0  0
  182.3790  178.6080  142.9340 C   0  0  0  0  0  3  0  0  0  0  0  0
  192.4670  177.1640  145.9910 O   0  0  0  0  0  0  0  0  0  0  0  0
  191.3240  176.7170  146.2750 C   0  0  0  0  0  0  0  0  0  0  0  0
  190.2040  177.9140  144.3300 C   0  0  0  0  0  0  0  0  0  0  0  0
  190.1820  177.0640  145.4820 N   0  0  0  0  0  2  0  0  0  0  0  0
  191.2820  178.4290  143.9250 O   0  0  0  0  0  0  0  0  0  0  0  0
  192.2390  175.5220  148.1120 O   0  0  0  0  0  1  0  0  0  0  0  0
  191.1780  175.8770  147.3760 O   0  0  0  0  0  0  0  0  0  0  0  0
  1 13  1  0  0  0  0
  3 15  1  0  0  0  0
  4  6  2  0  0  0  0
  5  2  1  6  0  0  0
  5 17  1  0  0  0  0
  5  7  1  0  0  0  0
  6  2  1  0  0  0  0
  6  9  1  0  0  0  0
  7  3  1  6  0  0  0
  8 12  2  0  0  0  0
  8  4  1  0  0  0  0
  9 13  1  6  0  0  0
  9 17  1  0  0  0  0
 10  1  1  0  0  0  0
 11 23  1  0  0  0  0
 12 16  1  0  0  0  0
 14 33  1  6  0  0  0
 15 14  1  0  0  0  0
 16 11  1  0  0  0  0
 16  2  2  0  0  0  0
 17 22  1  1  0  0  0
 18  4  1  0  0  0  0
 18  1  1  0  0  0  0
 19  7  1  0  0  0  0
 19 25  1  1  0  0  0
 20  1  1  0  0  0  0
 21 14  1  0  0  0  0
 22 21  1  0  0  0  0
 23 19  1  0  0  0  0
 24 25  2  0  0  0  0
 24 30  1  0  0  0  0
 25 26  1  0  0  0  0
 26 29  2  0  0  0  0
 28 29  1  0  0  0  0
 29 27  1  0  0  0  0
 30 28  2  0  0  0  0
 31 32  2  0  0  0  0
 32 37  1  0  0  0  0
 33 34  1  0  0  0  0
 34 32  1  0  0  0  0
 35 33  2  0  0  0  0
 37 36  1  0  0  0  0
M  END
>  <MODEL>
7

>  <REMARK>
 VINA RESULT:      -6.5      2.735      7.630
  Name = 
  3 active torsions:
  status: ('A' for Active; 'I' for Inactive)
    1  A    between atoms: C_4  and  O_37
    2  A    between atoms: C_8  and  C_18
    3  A    between atoms: C_23  and  C_30
                            x       y       z     vdW  Elec       q    Type
                         _______ _______ _______ _____ _____    ______ ____

>  <TORSDO>
F 3

$$$$
=
 OpenBabel11122411393D

 37 42  0  0  1  0  0  0  0  0999 V2000
  188.9110  177.3420  139.8310 C   0  0  0  0  0  0  0  0  0  0  0  0
  185.6940  178.4730  142.2680 C   0  0  0  0  0  0  0  0  0  0  0  0
  182.8760  176.8960  141.0290 C   0  0  0  0  0  2  0  0  0  0  0  0
  187.9860  177.7280  142.2030 C   0  0  0  0  0  0  0  0  0  0  0  0
  184.6630  178.8460  141.2620 C   0  0  2  0  0  3  0  0  0  0  0  0
  186.8600  178.2680  141.5940 C   0  0  0  0  0  0  0  0  0  0  0  0
  183.2320  178.3110  141.5020 C   0  0  2  0  0  3  0  0  0  0  0  0
  187.9490  177.5220  143.5900 C   0  0  0  0  0  3  0  0  0  0  0  0
  186.6730  178.4640  140.1480 C   0  0  1  0  0  3  0  0  0  0  0  0
  189.5830  176.1660  139.1540 C   0  0  0  0  0  1  0  0  0  0  0  0
  184.3770  178.5040  144.4630 C   0  0  0  0  0  2  0  0  0  0  0  0
  186.7800  177.8290  144.3180 C   0  0  0  0  0  3  0  0  0  0  0  0
  187.4230  177.3530  139.4150 C   0  0  0  0  0  2  0  0  0  0  0  0
  182.7210  177.6100  138.5260 C   0  0  1  0  0  3  0  0  0  0  0  0
  183.2360  176.5960  139.5660 C   0  0  0  0  0  2  0  0  0  0  0  0
  185.6290  178.3080  143.6630 C   0  0  0  0  0  0  0  0  0  0  0  0
  185.2220  178.3720  139.9800 N   0  0  2  0  0  0  0  0  0  0  0  0
  189.1190  177.2000  141.3600 C   0  0  0  0  0  2  0  0  0  0  0  0
  182.5200  178.7080  142.8020 C   0  0  1  0  0  3  0  0  0  0  0  0
  189.5940  178.6120  139.3520 C   0  0  0  0  0  1  0  0  0  0  0  0
  183.2430  179.0560  138.6740 C   0  0  0  0  0  2  0  0  0  0  0  0
  184.7630  179.2010  138.8700 C   0  0  0  0  0  2  0  0  0  0  0  0
  183.3880  179.4570  143.8110 C   0  0  0  0  0  2  0  0  0  0  0  0
  180.3760  179.7650  143.5280 C   0  0  0  0  0  3  0  0  0  0  0  0
  181.2790  179.4830  142.4970 C   0  0  0  0  0  0  0  0  0  0  0  0
  181.0000  179.9210  141.1920 C   0  0  0  0  0  3  0  0  0  0  0  0
  179.5380  181.0950  139.5440 C   0  0  0  0  0  1  0  0  0  0  0  0
  178.9310  180.9140  141.9610 C   0  0  0  0  0  3  0  0  0  0  0  0
  179.8290  180.6340  140.9270 C   0  0  0  0  0  0  0  0  0  0  0  0
  179.2050  180.4800  143.2610 C   0  0  0  0  0  3  0  0  0  0  0  0
  183.7730  175.9700  134.5940 O   0  0  0  0  0  0  0  0  0  0  0  0
  184.5430  175.8620  135.5850 C   0  0  0  0  0  0  0  0  0  0  0  0
  182.9600  177.1020  137.1430 C   0  0  0  0  0  0  0  0  0  0  0  0
  184.1790  176.4080  136.8590 N   0  0  0  0  0  2  0  0  0  0  0  0
  182.0910  177.2790  136.2450 O   0  0  0  0  0  0  0  0  0  0  0  0
  186.9120  175.8170  135.7310 O   0  0  0  0  0  1  0  0  0  0  0  0
  185.7600  175.2040  135.4310 O   0  0  0  0  0  0  0  0  0  0  0  0
  1 18  1  0  0  0  0
  2 16  1  0  0  0  0
  4  8  2  0  0  0  0
  5  7  1  0  0  0  0
  5  2  1  1  0  0  0
  6  4  1  0  0  0  0
  6  2  2  0  0  0  0
  7  3  1  1  0  0  0
  7 19  1  0  0  0  0
  8 12  1  0  0  0  0
  9 13  1  6  0  0  0
  9  6  1  0  0  0  0
 10  1  1  0  0  0  0
 13  1  1  0  0  0  0
 14 33  1  6  0  0  0
 14 21  1  0  0  0  0
 14 15  1  0  0  0  0
 15  3  1  0  0  0  0
 16 12  2  0  0  0  0
 16 11  1  0  0  0  0
 17 22  1  6  0  0  0
 17  9  1  0  0  0  0
 17  5  1  0  0  0  0
 18  4  1  0  0  0  0
 19 25  1  6  0  0  0
 19 23  1  0  0  0  0
 20  1  1  0  0  0  0
 21 22  1  0  0  0  0
 23 11  1  0  0  0  0
 25 24  2  0  0  0  0
 26 25  1  0  0  0  0
 27 29  1  0  0  0  0
 28 30  2  0  0  0  0
 29 26  2  0  0  0  0
 29 28  1  0  0  0  0
 30 24  1  0  0  0  0
 31 32  2  0  0  0  0
 32 34  1  0  0  0  0
 34 33  1  0  0  0  0
 35 33  2  0  0  0  0
 37 32  1  0  0  0  0
 37 36  1  0  0  0  0
M  END
>  <MODEL>
8

>  <REMARK>
 VINA RESULT:      -6.5      3.807      8.480
  Name = 
  3 active torsions:
  status: ('A' for Active; 'I' for Inactive)
    1  A    between atoms: C_4  and  O_37
    2  A    between atoms: C_8  and  C_18
    3  A    between atoms: C_23  and  C_30
                            x       y       z     vdW  Elec       q    Type
                         _______ _______ _______ _____ _____    ______ ____

>  <TORSDO>
F 3

$$$$
=
 OpenBabel11122411393D

 37 42  0  0  1  0  0  0  0  0999 V2000
  190.5700  177.1390  142.7530 C   0  0  0  0  0  0  0  0  0  0  0  0
  186.7240  177.9530  141.2980 C   0  0  0  0  0  0  0  0  0  0  0  0
  185.2370  180.1430  143.5250 C   0  0  0  0  0  2  0  0  0  0  0  0
  189.0610  177.7220  140.7500 C   0  0  0  0  0  0  0  0  0  0  0  0
  185.8900  177.7740  142.5170 C   0  0  2  0  0  3  0  0  0  0  0  0
  187.9810  177.5260  141.6030 C   0  0  0  0  0  0  0  0  0  0  0  0
  184.8230  178.8590  142.7950 C   0  0  2  0  0  3  0  0  0  0  0  0
  188.8060  178.2530  139.4770 C   0  0  0  0  0  3  0  0  0  0  0  0
  188.0590  177.0740  143.0010 C   0  0  1  0  0  3  0  0  0  0  0  0
  191.8210  177.7660  143.3310 C   0  0  0  0  0  1  0  0  0  0  0  0
  185.0680  178.9610  139.6250 C   0  0  0  0  0  2  0  0  0  0  0  0
  187.4880  178.6040  139.1100 C   0  0  0  0  0  3  0  0  0  0  0  0
  189.3620  177.6000  143.6000 C   0  0  0  0  0  2  0  0  0  0  0  0
  185.3540  178.9630  145.8470 C   0  0  1  0  0  3  0  0  0  0  0  0
  186.0110  179.9200  144.8330 C   0  0  0  0  0  2  0  0  0  0  0  0
  186.4250  178.4610  140.0220 C   0  0  0  0  0  0  0  0  0  0  0  0
  186.8730  177.6730  143.6150 N   0  0  2  0  0  0  0  0  0  0  0  0
  190.4670  177.5540  141.2640 C   0  0  0  0  0  2  0  0  0  0  0  0
  183.7360  179.0910  141.7360 C   0  0  1  0  0  3  0  0  0  0  0  0
  190.7180  175.6290  142.8400 C   0  0  0  0  0  1  0  0  0  0  0  0
  185.1450  177.5090  145.3700 C   0  0  0  0  0  2  0  0  0  0  0  0
  186.3620  176.8440  144.7010 C   0  0  0  0  0  2  0  0  0  0  0  0
  183.9380  178.3330  140.4260 C   0  0  0  0  0  2  0  0  0  0  0  0
  182.1940  178.9010  143.6920 C   0  0  0  0  0  3  0  0  0  0  0  0
  182.3860  178.8040  142.3090 C   0  0  0  0  0  0  0  0  0  0  0  0
  181.3130  178.4260  141.4850 C   0  0  0  0  0  3  0  0  0  0  0  0
  178.9310  177.7530  141.1670 C   0  0  0  0  0  1  0  0  0  0  0  0
  179.8760  178.2520  143.4250 C   0  0  0  0  0  3  0  0  0  0  0  0
  180.0620  178.1520  142.0430 C   0  0  0  0  0  0  0  0  0  0  0  0
  180.9410  178.6270  144.2490 C   0  0  0  0  0  3  0  0  0  0  0  0
  187.8000  178.7930  149.4870 O   0  0  0  0  0  0  0  0  0  0  0  0
  188.0990  178.1340  148.4560 C   0  0  0  0  0  0  0  0  0  0  0  0
  186.0960  178.9900  147.1420 C   0  0  0  0  0  0  0  0  0  0  0  0
  187.2840  178.2030  147.2790 N   0  0  0  0  0  2  0  0  0  0  0  0
  185.6810  179.7070  148.0930 O   0  0  0  0  0  0  0  0  0  0  0  0
  189.6800  176.7540  147.3450 O   0  0  0  0  0  1  0  0  0  0  0  0
  189.2350  177.3300  148.4700 O   0  0  0  0  0  0  0  0  0  0  0  0
  1 20  1  0  0  0  0
  1 10  1  0  0  0  0
  1 13  1  0  0  0  0
  2  6  1  0  0  0  0
  3 15  1  0  0  0  0
  4 18  1  0  0  0  0
  4  6  2  0  0  0  0
  5  2  1  6  0  0  0
  5  7  1  0  0  0  0
  5 17  1  0  0  0  0
  6  9  1  0  0  0  0
  7  3  1  6  0  0  0
  8  4  1  0  0  0  0
  9 13  1  1  0  0  0
  9 17  1  0  0  0  0
 11 16  1  0  0  0  0
 11 23  1  0  0  0  0
 12  8  2  0  0  0  0
 12 16  1  0  0  0  0
 14 33  1  1  0  0  0
 15 14  1  0  0  0  0
 16  2  2  0  0  0  0
 17 22  1  1  0  0  0
 18  1  1  0  0  0  0
 19 25  1  1  0  0  0
 19  7  1  0  0  0  0
 21 14  1  0  0  0  0
 22 21  1  0  0  0  0
 23 19  1  0  0  0  0
 24 30  1  0  0  0  0
 25 24  2  0  0  0  0
 26 29  2  0  0  0  0
 26 25  1  0  0  0  0
 27 29  1  0  0  0  0
 28 30  2  0  0  0  0
 29 28  1  0  0  0  0
 32 37  1  0  0  0  0
 32 31  2  0  0  0  0
 33 34  1  0  0  0  0
 33 35  2  0  0  0  0
 34 32  1  0  0  0  0
 36 37  1  0  0  0  0
M  END
>  <MODEL>
9

>  <REMARK>
 VINA RESULT:      -6.2      3.757      8.496
  Name = 
  3 active torsions:
  status: ('A' for Active; 'I' for Inactive)
    1  A    between atoms: C_4  and  O_37
    2  A    between atoms: C_8  and  C_18
    3  A    between atoms: C_23  and  C_30
                            x       y       z     vdW  Elec       q    Type
                         _______ _______ _______ _____ _____    ______ ____

>  <TORSDO>
F 3

$$$$
