=
 OpenBabel11122411293D

 37 43  0  0  1  0  0  0  0  0999 V2000
  184.3750  178.5230  141.9070 C   0  0  0  0  0  2  0  0  0  0  0  0
  181.2300  180.5780  138.3690 C   0  0  0  0  0  0  0  0  0  0  0  0
  183.7990  177.0910  138.2630 C   0  0  1  0  0  3  0  0  0  0  0  0
  185.1720  178.5550  143.2170 C   0  0  2  0  0  3  0  0  0  0  0  0
  187.2740  178.6820  138.4480 C   0  0  0  0  0  2  0  0  0  0  0  0
  181.9140  178.4470  137.1960 C   0  0  1  0  0  3  0  0  0  0  0  0
  185.0210  177.7540  138.8970 C   0  0  1  0  0  3  0  0  0  0  0  0
  187.4930  177.9530  142.2840 C   0  0  2  0  0  3  0  0  0  0  0  0
  182.6320  178.0470  138.4960 C   0  0  2  0  0  3  0  0  0  0  0  0
  186.1880  177.7950  137.9770 N   0  0  2  0  0  0  0  0  0  0  0  0
  181.4700  177.2030  136.4290 C   0  0  0  0  0  2  0  0  0  0  0  0
  186.3150  177.5340  143.1710 C   0  0  0  0  0  2  0  0  0  0  0  0
  183.0870  179.1960  139.3040 N   0  0  2  0  0  0  0  0  0  0  0  0
  180.4090  180.6370  139.6430 C   0  0  0  0  0  1  0  0  0  0  0  0
  185.0370  175.8610  136.4230 O   0  0  0  0  0  0  0  0  0  0  0  0
  182.6460  176.2440  136.1530 C   0  0  0  0  0  2  0  0  0  0  0  0
  182.7260  180.4990  138.7240 C   0  0  0  0  0  2  0  0  0  0  0  0
  186.9750  178.3300  140.9010 C   0  0  2  0  0  3  0  0  0  0  0  0
  187.9580  178.2310  139.7500 C   0  0  0  0  0  2  0  0  0  0  0  0
  183.9660  176.7280  136.7610 C   0  0  1  0  0  3  0  0  0  0  0  0
  184.5460  179.1350  139.3810 C   0  0  1  0  0  3  0  0  0  0  0  0
  180.7600  179.3800  137.5270 C   0  0  0  0  0  2  0  0  0  0  0  0
  186.7120  176.4280  137.7610 C   0  0  1  0  0  3  0  0  0  0  0  0
  180.9880  181.8480  137.5820 C   0  0  0  0  0  1  0  0  0  0  0  0
  186.3920  179.6060  140.9410 O   0  0  0  0  0  0  0  0  0  0  0  0
  188.3890  176.8870  142.1980 O   0  0  0  0  0  1  0  0  0  0  0  0
  184.9960  179.4390  140.8280 C   0  0  2  0  0  3  0  0  0  0  0  0
  185.6760  175.4890  137.5260 O   0  0  0  0  0  0  0  0  0  0  0  0
  187.6810  177.2320  135.5930 C   0  0  0  0  0  3  0  0  0  0  0  0
  187.7690  176.3660  136.6890 C   0  0  0  0  0  0  0  0  0  0  0  0
  188.8520  175.4790  136.7850 C   0  0  0  0  0  3  0  0  0  0  0  0
  191.1730  174.3380  135.9090 Cl  0  0  0  0  0  0  0  0  0  0  0  0
  189.7310  176.3130  134.6900 C   0  0  0  0  0  3  0  0  0  0  0  0
  189.8280  175.4510  135.7850 C   0  0  0  0  0  0  0  0  0  0  0  0
  188.6580  177.2040  134.5940 C   0  0  0  0  0  3  0  0  0  0  0  0
  183.8450  179.3730  145.0250 O   0  0  0  0  0  1  0  0  0  0  0  0
  184.2560  178.2080  144.3750 C   0  0  0  0  0  2  0  0  0  0  0  0
  1  4  1  0  0  0  0
  2 17  1  0  0  0  0
  2 14  1  0  0  0  0
  3  9  1  0  0  0  0
  3  7  1  0  0  0  0
  4 37  1  0  0  0  0
  5 19  1  0  0  0  0
  6 22  1  0  0  0  0
  6  9  1  0  0  0  0
  7 21  1  0  0  0  0
  8 12  1  0  0  0  0
  9 13  1  0  0  0  0
 10  5  1  0  0  0  0
 10  7  1  0  0  0  0
 11  6  1  0  0  0  0
 12  4  1  0  0  0  0
 13 21  1  0  0  0  0
 15 20  1  0  0  0  0
 15 28  1  0  0  0  0
 16 11  1  0  0  0  0
 16 20  1  0  0  0  0
 17 13  1  0  0  0  0
 18 25  1  0  0  0  0
 18  8  1  0  0  0  0
 19 18  1  0  0  0  0
 20  3  1  0  0  0  0
 21 27  1  0  0  0  0
 22  2  1  0  0  0  0
 23 10  1  0  0  0  0
 24  2  1  0  0  0  0
 26  8  1  0  0  0  0
 27 25  1  0  0  0  0
 27  1  1  0  0  0  0
 28 23  1  0  0  0  0
 29 30  1  0  0  0  0
 30 31  2  0  0  0  0
 30 23  1  0  0  0  0
 33 34  2  0  0  0  0
 34 32  1  0  0  0  0
 34 31  1  0  0  0  0
 35 33  1  0  0  0  0
 35 29  2  0  0  0  0
 37 36  1  0  0  0  0
M  END
>  <MODEL>
1

>  <REMARK>
 VINA RESULT:      -6.6      0.000      0.000
  Name = 
  2 active torsions:
  status: ('A' for Active; 'I' for Inactive)
    1  A    between atoms: C_4  and  C_37
    2  A    between atoms: C_23  and  C_30
                            x       y       z     vdW  Elec       q    Type
                         _______ _______ _______ _____ _____    ______ ____

>  <TORSDO>
F 2

$$$$
=
 OpenBabel11122411293D

 37 43  0  0  1  0  0  0  0  0999 V2000
  183.4540  178.4770  141.1420 C   0  0  0  0  0  2  0  0  0  0  0  0
  180.2960  179.2100  137.1260 C   0  0  0  0  0  0  0  0  0  0  0  0
  183.3770  176.2550  137.8680 C   0  0  1  0  0  3  0  0  0  0  0  0
  184.1380  178.9090  142.4450 C   0  0  2  0  0  3  0  0  0  0  0  0
  186.5390  178.4100  137.8450 C   0  0  0  0  0  2  0  0  0  0  0  0
  181.3880  177.0300  136.4630 C   0  0  1  0  0  3  0  0  0  0  0  0
  184.4310  177.2290  138.3930 C   0  0  1  0  0  3  0  0  0  0  0  0
  186.5860  178.5260  141.7530 C   0  0  2  0  0  3  0  0  0  0  0  0
  182.0620  177.0300  137.8460 C   0  0  2  0  0  3  0  0  0  0  0  0
  185.6420  177.2760  137.5320 N   0  0  2  0  0  0  0  0  0  0  0  0
  181.2000  175.5990  135.9630 C   0  0  0  0  0  2  0  0  0  0  0  0
  185.4260  178.1060  142.6630 C   0  0  0  0  0  2  0  0  0  0  0  0
  182.2720  178.3790  138.4060 N   0  0  2  0  0  0  0  0  0  0  0  0
  179.3850  179.3900  138.3260 C   0  0  0  0  0  1  0  0  0  0  0  0
  184.9220  174.9000  136.3830 O   0  0  0  0  0  0  0  0  0  0  0  0
  182.5270  174.8140  135.9440 C   0  0  0  0  0  2  0  0  0  0  0  0
  181.7560  179.4570  137.5480 C   0  0  0  0  0  2  0  0  0  0  0  0
  186.1190  178.5210  140.3030 C   0  0  2  0  0  3  0  0  0  0  0  0
  187.1870  178.3550  139.2380 C   0  0  0  0  0  2  0  0  0  0  0  0
  183.7080  175.6270  136.4850 C   0  0  1  0  0  3  0  0  0  0  0  0
  183.7120  178.5800  138.5520 C   0  0  1  0  0  3  0  0  0  0  0  0
  180.0820  177.8040  136.5420 C   0  0  0  0  0  2  0  0  0  0  0  0
  186.3860  176.0010  137.6330 C   0  0  1  0  0  3  0  0  0  0  0  0
  179.9190  180.2350  136.0780 C   0  0  0  0  0  1  0  0  0  0  0  0
  185.3440  179.6620  140.0470 O   0  0  0  0  0  0  0  0  0  0  0  0
  187.6410  177.6300  141.9320 O   0  0  0  0  0  1  0  0  0  0  0  0
  184.0020  179.2440  139.9170 C   0  0  2  0  0  3  0  0  0  0  0  0
  185.5280  174.8740  137.5640 O   0  0  0  0  0  0  0  0  0  0  0  0
  187.5180  176.7380  135.5210 C   0  0  0  0  0  3  0  0  0  0  0  0
  187.5160  175.8990  136.6410 C   0  0  0  0  0  0  0  0  0  0  0  0
  188.5760  175.0010  136.8350 C   0  0  0  0  0  3  0  0  0  0  0  0
  190.9370  173.8110  136.1550 Cl  0  0  0  0  0  0  0  0  0  0  0  0
  189.6140  175.7720  134.7890 C   0  0  0  0  0  3  0  0  0  0  0  0
  189.6210  174.9360  135.9090 C   0  0  0  0  0  0  0  0  0  0  0  0
  188.5630  176.6740  134.5960 C   0  0  0  0  0  3  0  0  0  0  0  0
  183.8570  178.9360  144.8150 O   0  0  0  0  0  1  0  0  0  0  0  0
  183.2040  178.6570  143.6130 C   0  0  0  0  0  2  0  0  0  0  0  0
  1  4  1  0  0  0  0
  2 17  1  0  0  0  0
  2 14  1  0  0  0  0
  3  7  1  0  0  0  0
  4 12  1  0  0  0  0
  4 37  1  0  0  0  0
  5 19  1  0  0  0  0
  6 22  1  0  0  0  0
  6  9  1  0  0  0  0
  7 21  1  0  0  0  0
  8 26  1  0  0  0  0
  8 12  1  0  0  0  0
  9  3  1  0  0  0  0
  9 13  1  0  0  0  0
 10 23  1  0  0  0  0
 10  5  1  0  0  0  0
 10  7  1  0  0  0  0
 11  6  1  0  0  0  0
 13 21  1  0  0  0  0
 15 20  1  0  0  0  0
 15 28  1  0  0  0  0
 16 11  1  0  0  0  0
 16 20  1  0  0  0  0
 17 13  1  0  0  0  0
 18  8  1  0  0  0  0
 19 18  1  0  0  0  0
 20  3  1  0  0  0  0
 21 27  1  0  0  0  0
 22  2  1  0  0  0  0
 24  2  1  0  0  0  0
 25 18  1  0  0  0  0
 27 25  1  0  0  0  0
 27  1  1  0  0  0  0
 28 23  1  0  0  0  0
 29 30  1  0  0  0  0
 30 31  2  0  0  0  0
 30 23  1  0  0  0  0
 33 34  2  0  0  0  0
 34 32  1  0  0  0  0
 34 31  1  0  0  0  0
 35 33  1  0  0  0  0
 35 29  2  0  0  0  0
 37 36  1  0  0  0  0
M  END
>  <MODEL>
2

>  <REMARK>
 VINA RESULT:      -6.2      1.092      1.266
  Name = 
  2 active torsions:
  status: ('A' for Active; 'I' for Inactive)
    1  A    between atoms: C_4  and  C_37
    2  A    between atoms: C_23  and  C_30
                            x       y       z     vdW  Elec       q    Type
                         _______ _______ _______ _____ _____    ______ ____

>  <TORSDO>
F 2

$$$$
=
 OpenBabel11122411293D

 37 43  0  0  1  0  0  0  0  0999 V2000
  181.3720  179.5200  140.1500 C   0  0  0  0  0  2  0  0  0  0  0  0
  185.7070  178.6060  142.7970 C   0  0  0  0  0  0  0  0  0  0  0  0
  184.7620  178.2050  138.5880 C   0  0  1  0  0  3  0  0  0  0  0  0
  179.8670  179.7880  140.0360 C   0  0  2  0  0  3  0  0  0  0  0  0
  182.2150  175.3500  138.6340 C   0  0  0  0  0  2  0  0  0  0  0  0
  186.5300  178.2650  140.4320 C   0  0  1  0  0  3  0  0  0  0  0  0
  183.4120  177.5140  138.7760 C   0  0  1  0  0  3  0  0  0  0  0  0
  179.2470  177.8870  138.4170 C   0  0  2  0  0  3  0  0  0  0  0  0
  185.1500  178.7530  139.9590 C   0  0  2  0  0  3  0  0  0  0  0  0
  183.3920  176.1400  138.2100 N   0  0  2  0  0  0  0  0  0  0  0  0
  187.5950  178.5810  139.3850 C   0  0  0  0  0  2  0  0  0  0  0  0
  179.3600  179.3990  138.6410 C   0  0  0  0  0  2  0  0  0  0  0  0
  184.0630  178.4920  140.9220 N   0  0  2  0  0  0  0  0  0  0  0  0
  185.2250  179.9290  143.3610 C   0  0  0  0  0  1  0  0  0  0  0  0
  185.6110  176.7160  136.7180 O   0  0  0  0  0  0  0  0  0  0  0  0
  187.2360  178.0010  138.0010 C   0  0  0  0  0  2  0  0  0  0  0  0
  184.5220  177.8530  142.1650 C   0  0  0  0  0  2  0  0  0  0  0  0
  180.5700  177.2210  138.7770 C   0  0  2  0  0  3  0  0  0  0  0  0
  180.8640  175.8820  138.1280 C   0  0  0  0  0  2  0  0  0  0  0  0
  185.8740  177.3000  137.9850 C   0  0  1  0  0  3  0  0  0  0  0  0
  183.1110  177.5850  140.2830 C   0  0  1  0  0  3  0  0  0  0  0  0
  186.8380  178.8740  141.7910 C   0  0  0  0  0  2  0  0  0  0  0  0
  183.4550  176.1980  136.7330 C   0  0  1  0  0  3  0  0  0  0  0  0
  186.2570  177.7700  143.9340 C   0  0  0  0  0  1  0  0  0  0  0  0
  180.6940  177.1290  140.1710 O   0  0  0  0  0  0  0  0  0  0  0  0
  178.9310  177.6570  137.0770 O   0  0  0  0  0  1  0  0  0  0  0  0
  181.6710  178.0630  140.5740 C   0  0  2  0  0  3  0  0  0  0  0  0
  184.4270  177.1230  136.2750 O   0  0  0  0  0  0  0  0  0  0  0  0
  182.6650  174.3730  135.2070 C   0  0  0  0  0  3  0  0  0  0  0  0
  183.6350  174.8430  136.0980 C   0  0  0  0  0  0  0  0  0  0  0  0
  184.7700  174.0610  136.3640 C   0  0  0  0  0  3  0  0  0  0  0  0
  186.3360  171.8420  136.0900 Cl  0  0  0  0  0  0  0  0  0  0  0  0
  183.9460  172.3470  134.8660 C   0  0  0  0  0  3  0  0  0  0  0  0
  184.9220  172.8150  135.7510 C   0  0  0  0  0  0  0  0  0  0  0  0
  182.8180  173.1260  134.5940 C   0  0  0  0  0  3  0  0  0  0  0  0
  179.2650  181.4960  141.5910 O   0  0  0  0  0  1  0  0  0  0  0  0
  179.5990  181.2650  140.2550 C   0  0  0  0  0  2  0  0  0  0  0  0
  1 27  1  0  0  0  0
  2 14  1  0  0  0  0
  2 24  1  0  0  0  0
  3  7  1  0  0  0  0
  3  9  1  0  0  0  0
  4  1  1  0  0  0  0
  4 37  1  0  0  0  0
  6 22  1  0  0  0  0
  7 21  1  0  0  0  0
  8 12  1  0  0  0  0
  8 18  1  0  0  0  0
  9  6  1  0  0  0  0
  9 13  1  0  0  0  0
 10  5  1  0  0  0  0
 10  7  1  0  0  0  0
 11  6  1  0  0  0  0
 12  4  1  0  0  0  0
 13 17  1  0  0  0  0
 15 20  1  0  0  0  0
 16 11  1  0  0  0  0
 17  2  1  0  0  0  0
 18 25  1  0  0  0  0
 19  5  1  0  0  0  0
 19 18  1  0  0  0  0
 20 16  1  0  0  0  0
 20  3  1  0  0  0  0
 21 27  1  0  0  0  0
 21 13  1  0  0  0  0
 22  2  1  0  0  0  0
 23 10  1  0  0  0  0
 25 27  1  0  0  0  0
 26  8  1  0  0  0  0
 28 15  1  0  0  0  0
 28 23  1  0  0  0  0
 29 30  1  0  0  0  0
 30 31  2  0  0  0  0
 30 23  1  0  0  0  0
 33 34  2  0  0  0  0
 34 32  1  0  0  0  0
 34 31  1  0  0  0  0
 35 33  1  0  0  0  0
 35 29  2  0  0  0  0
 37 36  1  0  0  0  0
M  END
>  <MODEL>
3

>  <REMARK>
 VINA RESULT:      -5.9      2.718      5.802
  Name = 
  2 active torsions:
  status: ('A' for Active; 'I' for Inactive)
    1  A    between atoms: C_4  and  C_37
    2  A    between atoms: C_23  and  C_30
                            x       y       z     vdW  Elec       q    Type
                         _______ _______ _______ _____ _____    ______ ____

>  <TORSDO>
F 2

$$$$
=
 OpenBabel11122411293D

 37 43  0  0  1  0  0  0  0  0999 V2000
  181.7620  179.8470  139.7350 C   0  0  0  0  0  2  0  0  0  0  0  0
  185.1690  178.7620  143.4560 C   0  0  0  0  0  0  0  0  0  0  0  0
  185.4350  178.5010  139.1390 C   0  0  1  0  0  3  0  0  0  0  0  0
  180.3520  180.1520  139.2140 C   0  0  2  0  0  3  0  0  0  0  0  0
  182.9380  175.7040  138.3760 C   0  0  0  0  0  2  0  0  0  0  0  0
  186.6160  178.4690  141.4050 C   0  0  1  0  0  3  0  0  0  0  0  0
  184.0770  177.8360  138.9200 C   0  0  1  0  0  3  0  0  0  0  0  0
  180.1840  178.3120  137.4240 C   0  0  2  0  0  3  0  0  0  0  0  0
  185.4310  179.0010  140.5810 C   0  0  2  0  0  3  0  0  0  0  0  0
  184.1970  176.4790  138.3250 N   0  0  2  0  0  0  0  0  0  0  0  0
  187.9360  178.7910  140.7080 C   0  0  0  0  0  2  0  0  0  0  0  0
  180.2510  179.8150  137.7210 C   0  0  0  0  0  2  0  0  0  0  0  0
  184.1140  178.7380  141.1940 N   0  0  2  0  0  0  0  0  0  0  0  0
  184.5660  180.0790  143.9060 C   0  0  0  0  0  1  0  0  0  0  0  0
  186.7530  177.0470  137.5330 O   0  0  0  0  0  0  0  0  0  0  0  0
  187.9710  178.2590  139.2610 C   0  0  0  0  0  2  0  0  0  0  0  0
  184.1980  178.0540  142.4930 C   0  0  0  0  0  2  0  0  0  0  0  0
  181.3440  177.6070  138.1170 C   0  0  2  0  0  3  0  0  0  0  0  0
  181.7900  176.2810  137.5310 C   0  0  0  0  0  2  0  0  0  0  0  0
  186.6590  177.5890  138.8410 C   0  0  1  0  0  3  0  0  0  0  0  0
  183.3670  177.8710  140.2840 C   0  0  1  0  0  3  0  0  0  0  0  0
  186.5400  179.0330  142.8150 C   0  0  0  0  0  2  0  0  0  0  0  0
  184.6720  176.5780  136.9270 C   0  0  1  0  0  3  0  0  0  0  0  0
  185.3670  177.8820  144.6720 C   0  0  0  0  0  1  0  0  0  0  0  0
  181.0720  177.4730  139.4860 O   0  0  0  0  0  0  0  0  0  0  0  0
  180.2530  178.1270  136.0420 O   0  0  0  0  0  1  0  0  0  0  0  0
  181.9100  178.3730  140.1770 C   0  0  2  0  0  3  0  0  0  0  0  0
  185.7460  177.4930  136.7900 O   0  0  0  0  0  0  0  0  0  0  0  0
  184.3030  174.8060  135.1930 C   0  0  0  0  0  3  0  0  0  0  0  0
  185.0050  175.2380  136.3230 C   0  0  0  0  0  0  0  0  0  0  0  0
  186.0220  174.4320  136.8560 C   0  0  0  0  0  3  0  0  0  0  0  0
  187.5890  172.1970  136.9420 Cl  0  0  0  0  0  0  0  0  0  0  0  0
  185.6130  172.7700  135.1440 C   0  0  0  0  0  3  0  0  0  0  0  0
  186.3230  173.2000  136.2690 C   0  0  0  0  0  0  0  0  0  0  0  0
  184.6030  173.5740  134.6060 C   0  0  0  0  0  3  0  0  0  0  0  0
  180.6450  182.3670  138.3730 O   0  0  0  0  0  1  0  0  0  0  0  0
  180.0540  181.6280  139.3990 C   0  0  0  0  0  2  0  0  0  0  0  0
  1 27  1  0  0  0  0
  2 14  1  0  0  0  0
  2 24  1  0  0  0  0
  3  9  1  0  0  0  0
  4 37  1  0  0  0  0
  4  1  1  0  0  0  0
  6 22  1  0  0  0  0
  7  3  1  0  0  0  0
  7 21  1  0  0  0  0
  8 12  1  0  0  0  0
  8 18  1  0  0  0  0
  9 13  1  0  0  0  0
  9  6  1  0  0  0  0
 10  5  1  0  0  0  0
 10  7  1  0  0  0  0
 11  6  1  0  0  0  0
 12  4  1  0  0  0  0
 13 17  1  0  0  0  0
 15 20  1  0  0  0  0
 16 11  1  0  0  0  0
 17  2  1  0  0  0  0
 18 25  1  0  0  0  0
 19 18  1  0  0  0  0
 19  5  1  0  0  0  0
 20  3  1  0  0  0  0
 20 16  1  0  0  0  0
 21 13  1  0  0  0  0
 22  2  1  0  0  0  0
 23 10  1  0  0  0  0
 25 27  1  0  0  0  0
 26  8  1  0  0  0  0
 27 21  1  0  0  0  0
 28 23  1  0  0  0  0
 28 15  1  0  0  0  0
 29 30  1  0  0  0  0
 30 31  2  0  0  0  0
 30 23  1  0  0  0  0
 33 34  2  0  0  0  0
 34 31  1  0  0  0  0
 34 32  1  0  0  0  0
 35 33  1  0  0  0  0
 35 29  2  0  0  0  0
 36 37  1  0  0  0  0
M  END
>  <MODEL>
4

>  <REMARK>
 VINA RESULT:      -5.8      2.542      5.633
  Name = 
  2 active torsions:
  status: ('A' for Active; 'I' for Inactive)
    1  A    between atoms: C_4  and  C_37
    2  A    between atoms: C_23  and  C_30
                            x       y       z     vdW  Elec       q    Type
                         _______ _______ _______ _____ _____    ______ ____

>  <TORSDO>
F 2

$$$$
=
 OpenBabel11122411293D

 37 43  0  0  1  0  0  0  0  0999 V2000
  188.6640  176.9170  140.4180 C   0  0  0  0  0  2  0  0  0  0  0  0
  186.4880  177.2280  135.7480 C   0  0  0  0  0  0  0  0  0  0  0  0
  189.5690  174.6200  137.3250 C   0  0  1  0  0  3  0  0  0  0  0  0
  188.9770  177.4480  141.8220 C   0  0  2  0  0  3  0  0  0  0  0  0
  192.4320  177.0840  137.9350 C   0  0  0  0  0  2  0  0  0  0  0  0
  187.9030  175.1550  135.4610 C   0  0  1  0  0  3  0  0  0  0  0  0
  190.3740  175.7080  138.0330 C   0  0  1  0  0  3  0  0  0  0  0  0
  191.5450  177.2990  141.7370 C   0  0  2  0  0  3  0  0  0  0  0  0
  188.2290  175.2560  136.9610 C   0  0  2  0  0  3  0  0  0  0  0  0
  191.7440  175.8580  137.4760 N   0  0  2  0  0  0  0  0  0  0  0  0
  187.9730  173.7010  134.9990 C   0  0  0  0  0  2  0  0  0  0  0  0
  190.2470  176.7850  142.3710 C   0  0  0  0  0  2  0  0  0  0  0  0
  188.1740  176.6330  137.4900 N   0  0  2  0  0  0  0  0  0  0  0  0
  185.3070  177.3430  136.6930 C   0  0  0  0  0  1  0  0  0  0  0  0
  191.5400  173.3940  136.3050 O   0  0  0  0  0  0  0  0  0  0  0  0
  189.3350  173.0540  135.3260 C   0  0  0  0  0  2  0  0  0  0  0  0
  187.7780  177.6330  136.4860 C   0  0  0  0  0  2  0  0  0  0  0  0
  191.4360  177.2120  140.2200 C   0  0  2  0  0  3  0  0  0  0  0  0
  192.7350  177.1290  139.4420 C   0  0  0  0  0  2  0  0  0  0  0  0
  190.2730  173.9950  136.0880 C   0  0  1  0  0  3  0  0  0  0  0  0
  189.5150  176.9830  137.9570 C   0  0  1  0  0  3  0  0  0  0  0  0
  186.5490  175.7940  135.1970 C   0  0  0  0  0  2  0  0  0  0  0  0
  192.5580  174.6680  137.8080 C   0  0  1  0  0  3  0  0  0  0  0  0
  186.2750  178.1830  134.5940 C   0  0  0  0  0  1  0  0  0  0  0  0
  190.6400  178.2610  139.7370 O   0  0  0  0  0  0  0  0  0  0  0  0
  192.6060  176.5200  142.1990 O   0  0  0  0  0  1  0  0  0  0  0  0
  189.4120  177.7060  139.3190 C   0  0  2  0  0  3  0  0  0  0  0  0
  191.8500  173.4580  137.5950 O   0  0  0  0  0  0  0  0  0  0  0  0
  193.9590  174.9900  135.7540 C   0  0  0  0  0  3  0  0  0  0  0  0
  193.8950  174.6580  137.1110 C   0  0  0  0  0  0  0  0  0  0  0  0
  195.0750  174.3490  137.8060 C   0  0  0  0  0  3  0  0  0  0  0  0
  197.7710  173.9720  138.0120 Cl  0  0  0  0  0  0  0  0  0  0  0  0
  196.3620  174.6890  135.7840 C   0  0  0  0  0  3  0  0  0  0  0  0
  196.3040  174.3620  137.1420 C   0  0  0  0  0  0  0  0  0  0  0  0
  195.1890  175.0030  135.0900 C   0  0  0  0  0  3  0  0  0  0  0  0
  187.9310  175.8200  143.2180 O   0  0  0  0  0  1  0  0  0  0  0  0
  187.8220  177.1310  142.7520 C   0  0  0  0  0  2  0  0  0  0  0  0
  1  4  1  0  0  0  0
  2 17  1  0  0  0  0
  2 14  1  0  0  0  0
  3  7  1  0  0  0  0
  4 12  1  0  0  0  0
  4 37  1  0  0  0  0
  5 19  1  0  0  0  0
  6  9  1  0  0  0  0
  8 26  1  0  0  0  0
  8 12  1  0  0  0  0
  9  3  1  0  0  0  0
  9 13  1  0  0  0  0
 10 23  1  0  0  0  0
 10  5  1  0  0  0  0
 10  7  1  0  0  0  0
 11 16  1  0  0  0  0
 11  6  1  0  0  0  0
 13 21  1  0  0  0  0
 15 28  1  0  0  0  0
 16 20  1  0  0  0  0
 17 13  1  0  0  0  0
 18  8  1  0  0  0  0
 19 18  1  0  0  0  0
 20 15  1  0  0  0  0
 20  3  1  0  0  0  0
 21  7  1  0  0  0  0
 21 27  1  0  0  0  0
 22  6  1  0  0  0  0
 22  2  1  0  0  0  0
 24  2  1  0  0  0  0
 25 18  1  0  0  0  0
 27 25  1  0  0  0  0
 27  1  1  0  0  0  0
 28 23  1  0  0  0  0
 29 30  1  0  0  0  0
 30 31  2  0  0  0  0
 30 23  1  0  0  0  0
 33 34  2  0  0  0  0
 34 31  1  0  0  0  0
 34 32  1  0  0  0  0
 35 29  2  0  0  0  0
 35 33  1  0  0  0  0
 37 36  1  0  0  0  0
M  END
>  <MODEL>
5

>  <REMARK>
 VINA RESULT:      -5.6      3.869      6.068
  Name = 
  2 active torsions:
  status: ('A' for Active; 'I' for Inactive)
    1  A    between atoms: C_4  and  C_37
    2  A    between atoms: C_23  and  C_30
                            x       y       z     vdW  Elec       q    Type
                         _______ _______ _______ _____ _____    ______ ____

>  <TORSDO>
F 2

$$$$
=
 OpenBabel11122411293D

 37 43  0  0  1  0  0  0  0  0999 V2000
  183.3370  178.6720  141.7310 C   0  0  0  0  0  2  0  0  0  0  0  0
  179.6510  179.4690  138.2080 C   0  0  0  0  0  0  0  0  0  0  0  0
  182.6730  176.3860  138.5700 C   0  0  1  0  0  3  0  0  0  0  0  0
  184.2270  179.0990  142.9050 C   0  0  2  0  0  3  0  0  0  0  0  0
  185.8890  178.3840  138.0160 C   0  0  0  0  0  2  0  0  0  0  0  0
  180.5330  177.2250  137.4540 C   0  0  1  0  0  3  0  0  0  0  0  0
  183.8360  177.3190  138.9040 C   0  0  1  0  0  3  0  0  0  0  0  0
  186.5250  178.5830  141.8700 C   0  0  2  0  0  3  0  0  0  0  0  0
  181.4050  177.2220  138.7200 C   0  0  2  0  0  3  0  0  0  0  0  0
  184.9060  177.2880  137.8720 N   0  0  2  0  0  0  0  0  0  0  0  0
  180.2090  175.7950  137.0270 C   0  0  0  0  0  2  0  0  0  0  0  0
  185.4960  178.2390  142.9530 C   0  0  0  0  0  2  0  0  0  0  0  0
  181.7570  178.5720  139.2050 N   0  0  2  0  0  0  0  0  0  0  0  0
  178.9380  179.7190  139.5240 C   0  0  0  0  0  1  0  0  0  0  0  0
  183.9180  174.9260  136.9110 O   0  0  0  0  0  0  0  0  0  0  0  0
  181.4820  174.9460  136.8340 C   0  0  0  0  0  2  0  0  0  0  0  0
  181.1670  179.6550  138.4020 C   0  0  0  0  0  2  0  0  0  0  0  0
  185.8460  178.5690  140.5050 C   0  0  2  0  0  3  0  0  0  0  0  0
  186.7350  178.3280  139.2990 C   0  0  0  0  0  2  0  0  0  0  0  0
  182.7650  175.7120  137.1710 C   0  0  1  0  0  3  0  0  0  0  0  0
  183.2100  178.7060  139.1290 C   0  0  1  0  0  3  0  0  0  0  0  0
  179.2890  178.0630  137.7020 C   0  0  0  0  0  2  0  0  0  0  0  0
  185.5990  175.9810  137.8980 C   0  0  1  0  0  3  0  0  0  0  0  0
  179.1670  180.4880  137.1980 C   0  0  0  0  0  1  0  0  0  0  0  0
  185.0930  179.7400  140.3340 O   0  0  0  0  0  0  0  0  0  0  0  0
  187.5530  177.6410  141.9160 O   0  0  0  0  0  1  0  0  0  0  0  0
  183.7300  179.3850  140.4160 C   0  0  2  0  0  3  0  0  0  0  0  0
  184.6920  174.8960  137.9900 O   0  0  0  0  0  0  0  0  0  0  0  0
  186.4910  176.6750  135.6610 C   0  0  0  0  0  3  0  0  0  0  0  0
  186.5630  175.8040  136.7530 C   0  0  0  0  0  0  0  0  0  0  0  0
  187.5450  174.8020  136.7770 C   0  0  0  0  0  3  0  0  0  0  0  0
  189.6560  173.4130  135.7440 Cl  0  0  0  0  0  0  0  0  0  0  0  0
  188.3560  175.5360  134.6180 C   0  0  0  0  0  3  0  0  0  0  0  0
  188.4370  174.6670  135.7100 C   0  0  0  0  0  0  0  0  0  0  0  0
  187.3840  176.5400  134.5940 C   0  0  0  0  0  3  0  0  0  0  0  0
  182.1410  178.5760  143.9400 O   0  0  0  0  0  1  0  0  0  0  0  0
  183.4680  178.9180  144.2060 C   0  0  0  0  0  2  0  0  0  0  0  0
  1  4  1  0  0  0  0
  2 17  1  0  0  0  0
  2 14  1  0  0  0  0
  3  9  1  0  0  0  0
  3  7  1  0  0  0  0
  4 12  1  0  0  0  0
  4 37  1  0  0  0  0
  5 19  1  0  0  0  0
  6 22  1  0  0  0  0
  6  9  1  0  0  0  0
  7 21  1  0  0  0  0
  8 26  1  0  0  0  0
  8 12  1  0  0  0  0
  9 13  1  0  0  0  0
 10 23  1  0  0  0  0
 10  5  1  0  0  0  0
 10  7  1  0  0  0  0
 11  6  1  0  0  0  0
 15 20  1  0  0  0  0
 15 28  1  0  0  0  0
 16 11  1  0  0  0  0
 16 20  1  0  0  0  0
 17 13  1  0  0  0  0
 18  8  1  0  0  0  0
 19 18  1  0  0  0  0
 20  3  1  0  0  0  0
 21 13  1  0  0  0  0
 21 27  1  0  0  0  0
 22  2  1  0  0  0  0
 23 28  1  0  0  0  0
 24  2  1  0  0  0  0
 25 27  1  0  0  0  0
 25 18  1  0  0  0  0
 27  1  1  0  0  0  0
 29 30  1  0  0  0  0
 30 31  2  0  0  0  0
 30 23  1  0  0  0  0
 33 34  2  0  0  0  0
 34 32  1  0  0  0  0
 34 31  1  0  0  0  0
 35 33  1  0  0  0  0
 35 29  2  0  0  0  0
 36 37  1  0  0  0  0
M  END
>  <MODEL>
6

>  <REMARK>
 VINA RESULT:      -5.6      1.408      1.538
  Name = 
  2 active torsions:
  status: ('A' for Active; 'I' for Inactive)
    1  A    between atoms: C_4  and  C_37
    2  A    between atoms: C_23  and  C_30
                            x       y       z     vdW  Elec       q    Type
                         _______ _______ _______ _____ _____    ______ ____

>  <TORSDO>
F 2

$$$$
=
 OpenBabel11122411293D

 37 43  0  0  1  0  0  0  0  0999 V2000
  183.1500  174.2150  136.1550 C   0  0  0  0  0  2  0  0  0  0  0  0
  187.5940  176.7780  135.5960 C   0  0  0  0  0  0  0  0  0  0  0  0
  184.3200  177.2620  138.3920 C   0  0  1  0  0  3  0  0  0  0  0  0
  182.0560  173.2490  135.6830 C   0  0  2  0  0  3  0  0  0  0  0  0
  181.4940  178.4160  136.0840 C   0  0  0  0  0  2  0  0  0  0  0  0
  186.7210  177.8270  137.7220 C   0  0  1  0  0  3  0  0  0  0  0  0
  183.1940  177.1480  137.3650 C   0  0  1  0  0  3  0  0  0  0  0  0
  180.0180  174.7970  135.9480 C   0  0  2  0  0  3  0  0  0  0  0  0
  185.5860  176.7890  137.6830 C   0  0  2  0  0  3  0  0  0  0  0  0
  182.3880  178.3930  137.2620 N   0  0  2  0  0  0  0  0  0  0  0  0
  187.0110  178.2430  139.1630 C   0  0  0  0  0  2  0  0  0  0  0  0
  180.7410  173.5310  136.4210 C   0  0  0  0  0  2  0  0  0  0  0  0
  185.2490  176.3260  136.3220 N   0  0  2  0  0  0  0  0  0  0  0  0
  188.0080  175.3260  135.4560 C   0  0  0  0  0  1  0  0  0  0  0  0
  183.3660  179.2310  139.6750 O   0  0  0  0  0  0  0  0  0  0  0  0
  185.7480  178.7600  139.8810 C   0  0  0  0  0  2  0  0  0  0  0  0
  186.0950  176.9190  135.2750 C   0  0  0  0  0  2  0  0  0  0  0  0
  180.9850  175.9750  135.9820 C   0  0  2  0  0  3  0  0  0  0  0  0
  180.3770  177.3590  136.1010 C   0  0  0  0  0  2  0  0  0  0  0  0
  184.4910  178.6790  139.0090 C   0  0  1  0  0  3  0  0  0  0  0  0
  183.8670  176.7170  136.0500 C   0  0  1  0  0  3  0  0  0  0  0  0
  187.9420  177.2630  137.0130 C   0  0  0  0  0  2  0  0  0  0  0  0
  181.6000  178.5910  138.4980 C   0  0  1  0  0  3  0  0  0  0  0  0
  188.3790  177.6000  134.5960 C   0  0  0  0  0  1  0  0  0  0  0  0
  181.8540  175.9120  134.8830 O   0  0  0  0  0  0  0  0  0  0  0  0
  178.9310  175.0310  136.7900 O   0  0  0  0  0  1  0  0  0  0  0  0
  183.1270  175.5450  135.3670 C   0  0  2  0  0  3  0  0  0  0  0  0
  182.3680  178.3560  139.6660 O   0  0  0  0  0  0  0  0  0  0  0  0
  179.7160  180.0560  139.2650 C   0  0  0  0  0  3  0  0  0  0  0  0
  180.9100  179.9300  138.5480 C   0  0  0  0  0  0  0  0  0  0  0  0
  181.4580  181.0540  137.9130 C   0  0  0  0  0  3  0  0  0  0  0  0
  181.4950  183.6860  137.1870 Cl  0  0  0  0  0  0  0  0  0  0  0  0
  179.6120  182.4080  138.6990 C   0  0  0  0  0  3  0  0  0  0  0  0
  180.8080  182.2890  137.9860 C   0  0  0  0  0  0  0  0  0  0  0  0
  179.0660  181.2910  139.3390 C   0  0  0  0  0  3  0  0  0  0  0  0
  183.2340  171.7810  137.1500 O   0  0  0  0  0  1  0  0  0  0  0  0
  182.4810  171.8230  135.9760 C   0  0  0  0  0  2  0  0  0  0  0  0
  2 22  1  0  0  0  0
  3 20  1  0  0  0  0
  4 37  1  0  0  0  0
  4  1  1  0  0  0  0
  4 12  1  0  0  0  0
  5 19  1  0  0  0  0
  5 10  1  0  0  0  0
  6 11  1  0  0  0  0
  7  3  1  0  0  0  0
  8 18  1  0  0  0  0
  8 12  1  0  0  0  0
  8 26  1  0  0  0  0
  9  6  1  0  0  0  0
  9  3  1  0  0  0  0
 10  7  1  0  0  0  0
 10 23  1  0  0  0  0
 11 16  1  0  0  0  0
 13  9  1  0  0  0  0
 14  2  1  0  0  0  0
 17  2  1  0  0  0  0
 17 13  1  0  0  0  0
 18 19  1  0  0  0  0
 20 15  1  0  0  0  0
 20 16  1  0  0  0  0
 21 13  1  0  0  0  0
 21  7  1  0  0  0  0
 22  6  1  0  0  0  0
 23 30  1  0  0  0  0
 23 28  1  0  0  0  0
 24  2  1  0  0  0  0
 25 27  1  0  0  0  0
 25 18  1  0  0  0  0
 27 21  1  0  0  0  0
 27  1  1  0  0  0  0
 28 15  1  0  0  0  0
 29 35  1  0  0  0  0
 30 29  2  0  0  0  0
 31 34  2  0  0  0  0
 31 30  1  0  0  0  0
 32 34  1  0  0  0  0
 33 35  2  0  0  0  0
 34 33  1  0  0  0  0
 37 36  1  0  0  0  0
M  END
>  <MODEL>
7

>  <REMARK>
 VINA RESULT:      -5.2      3.278      8.104
  Name = 
  2 active torsions:
  status: ('A' for Active; 'I' for Inactive)
    1  A    between atoms: C_4  and  C_37
    2  A    between atoms: C_23  and  C_30
                            x       y       z     vdW  Elec       q    Type
                         _______ _______ _______ _____ _____    ______ ____

>  <TORSDO>
F 2

$$$$
=
 OpenBabel11122411293D

 37 43  0  0  1  0  0  0  0  0999 V2000
  187.5500  177.5020  140.0500 C   0  0  0  0  0  2  0  0  0  0  0  0
  184.5590  177.1060  135.8630 C   0  0  0  0  0  0  0  0  0  0  0  0
  187.7480  174.5930  137.3760 C   0  0  1  0  0  3  0  0  0  0  0  0
  188.1460  178.2620  141.2420 C   0  0  2  0  0  3  0  0  0  0  0  0
  190.7920  176.8750  136.9700 C   0  0  0  0  0  2  0  0  0  0  0  0
  185.7930  174.9030  135.7600 C   0  0  1  0  0  3  0  0  0  0  0  0
  188.7230  175.7230  137.6990 C   0  0  1  0  0  3  0  0  0  0  0  0
  190.6420  177.8820  140.7450 C   0  0  2  0  0  3  0  0  0  0  0  0
  186.3970  175.2590  137.1280 C   0  0  2  0  0  3  0  0  0  0  0  0
  189.9710  175.6470  136.8940 N   0  0  2  0  0  0  0  0  0  0  0  0
  185.7030  173.3870  135.5960 C   0  0  0  0  0  2  0  0  0  0  0  0
  189.4610  177.6100  141.6850 C   0  0  0  0  0  2  0  0  0  0  0  0
  186.5100  176.7110  137.3700 N   0  0  2  0  0  0  0  0  0  0  0  0
  183.5820  177.4980  136.9550 C   0  0  0  0  0  1  0  0  0  0  0  0
  189.4320  173.0320  136.2990 O   0  0  0  0  0  0  0  0  0  0  0  0
  187.0690  172.7010  135.8060 C   0  0  0  0  0  2  0  0  0  0  0  0
  185.9820  177.5320  136.2680 C   0  0  0  0  0  2  0  0  0  0  0  0
  190.2470  177.5180  139.3190 C   0  0  2  0  0  3  0  0  0  0  0  0
  191.3730  177.1790  138.3610 C   0  0  0  0  0  2  0  0  0  0  0  0
  188.1780  173.6870  136.1870 C   0  0  1  0  0  3  0  0  0  0  0  0
  187.9290  177.0280  137.5170 C   0  0  1  0  0  3  0  0  0  0  0  0
  184.4460  175.5930  135.6100 C   0  0  0  0  0  2  0  0  0  0  0  0
  190.7740  174.4760  137.3140 C   0  0  1  0  0  3  0  0  0  0  0  0
  184.1810  177.8390  134.5940 C   0  0  0  0  0  1  0  0  0  0  0  0
  189.4270  178.5200  138.7800 O   0  0  0  0  0  0  0  0  0  0  0  0
  191.7310  177.1170  141.1640 O   0  0  0  0  0  1  0  0  0  0  0  0
  188.1170  178.0020  138.7020 C   0  0  2  0  0  3  0  0  0  0  0  0
  189.9800  173.3130  137.4750 O   0  0  0  0  0  0  0  0  0  0  0  0
  192.2800  175.1630  135.4310 C   0  0  0  0  0  3  0  0  0  0  0  0
  191.9550  174.2210  136.4130 C   0  0  0  0  0  0  0  0  0  0  0  0
  192.7480  173.0730  136.5600 C   0  0  0  0  0  3  0  0  0  0  0  0
  194.8290  171.4300  135.9090 Cl  0  0  0  0  0  0  0  0  0  0  0  0
  194.1630  173.8070  134.7390 C   0  0  0  0  0  3  0  0  0  0  0  0
  193.8470  172.8660  135.7230 C   0  0  0  0  0  0  0  0  0  0  0  0
  193.3800  174.9560  134.5940 C   0  0  0  0  0  3  0  0  0  0  0  0
  187.5060  177.1910  143.2770 O   0  0  0  0  0  1  0  0  0  0  0  0
  187.1700  178.2260  142.4020 C   0  0  0  0  0  2  0  0  0  0  0  0
  1  4  1  0  0  0  0
  2 17  1  0  0  0  0
  2 14  1  0  0  0  0
  3  7  1  0  0  0  0
  4 12  1  0  0  0  0
  4 37  1  0  0  0  0
  5 19  1  0  0  0  0
  6  9  1  0  0  0  0
  8 26  1  0  0  0  0
  8 12  1  0  0  0  0
  9 13  1  0  0  0  0
  9  3  1  0  0  0  0
 10  5  1  0  0  0  0
 10 23  1  0  0  0  0
 10  7  1  0  0  0  0
 11  6  1  0  0  0  0
 11 16  1  0  0  0  0
 13 21  1  0  0  0  0
 15 28  1  0  0  0  0
 16 20  1  0  0  0  0
 17 13  1  0  0  0  0
 18  8  1  0  0  0  0
 19 18  1  0  0  0  0
 20 15  1  0  0  0  0
 20  3  1  0  0  0  0
 21  7  1  0  0  0  0
 21 27  1  0  0  0  0
 22  6  1  0  0  0  0
 22  2  1  0  0  0  0
 23 28  1  0  0  0  0
 24  2  1  0  0  0  0
 25 18  1  0  0  0  0
 27 25  1  0  0  0  0
 27  1  1  0  0  0  0
 29 30  1  0  0  0  0
 30 31  2  0  0  0  0
 30 23  1  0  0  0  0
 33 34  2  0  0  0  0
 34 32  1  0  0  0  0
 34 31  1  0  0  0  0
 35 33  1  0  0  0  0
 35 29  2  0  0  0  0
 37 36  1  0  0  0  0
M  END
>  <MODEL>
8

>  <REMARK>
 VINA RESULT:      -5.1      2.963      4.682
  Name = 
  2 active torsions:
  status: ('A' for Active; 'I' for Inactive)
    1  A    between atoms: C_4  and  C_37
    2  A    between atoms: C_23  and  C_30
                            x       y       z     vdW  Elec       q    Type
                         _______ _______ _______ _____ _____    ______ ____

>  <TORSDO>
F 2

$$$$
=
 OpenBabel11122411293D

 37 43  0  0  1  0  0  0  0  0999 V2000
  190.8610  176.1960  136.3480 C   0  0  0  0  0  2  0  0  0  0  0  0
  185.9390  174.6730  136.0510 C   0  0  0  0  0  0  0  0  0  0  0  0
  187.8430  177.8490  138.3020 C   0  0  1  0  0  3  0  0  0  0  0  0
  192.3680  176.0130  136.1280 C   0  0  2  0  0  3  0  0  0  0  0  0
  189.9960  175.8680  140.7680 C   0  0  0  0  0  2  0  0  0  0  0  0
  185.6920  176.7650  137.4480 C   0  0  1  0  0  3  0  0  0  0  0  0
  189.0280  177.0240  138.8020 C   0  0  1  0  0  3  0  0  0  0  0  0
  193.1690  176.3910  138.5440 C   0  0  2  0  0  3  0  0  0  0  0  0
  187.1880  177.0210  137.1990 C   0  0  2  0  0  3  0  0  0  0  0  0
  189.0460  176.8930  140.2830 N   0  0  2  0  0  0  0  0  0  0  0  0
  184.9550  178.0850  137.6650 C   0  0  0  0  0  2  0  0  0  0  0  0
  193.1600  176.9000  137.0980 C   0  0  0  0  0  2  0  0  0  0  0  0
  187.9730  175.7920  136.9690 N   0  0  2  0  0  0  0  0  0  0  0  0
  186.4010  174.6490  134.6070 C   0  0  0  0  0  1  0  0  0  0  0  0
  187.3320  179.0140  140.4960 O   0  0  0  0  0  0  0  0  0  0  0  0
  185.5820  178.9160  138.8030 C   0  0  0  0  0  2  0  0  0  0  0  0
  187.1600  174.5660  136.9830 C   0  0  0  0  0  2  0  0  0  0  0  0
  191.7380  176.1390  139.0010 C   0  0  2  0  0  3  0  0  0  0  0  0
  191.4770  176.1790  140.4950 C   0  0  0  0  0  2  0  0  0  0  0  0
  186.8270  178.2590  139.4050 C   0  0  1  0  0  3  0  0  0  0  0  0
  188.9550  175.6850  138.0480 C   0  0  1  0  0  3  0  0  0  0  0  0
  185.1230  175.9540  136.2950 C   0  0  0  0  0  2  0  0  0  0  0  0
  189.3540  178.2010  140.9030 C   0  0  1  0  0  3  0  0  0  0  0  0
  185.0450  173.4750  136.2910 C   0  0  0  0  0  1  0  0  0  0  0  0
  191.2660  174.9370  138.4520 O   0  0  0  0  0  0  0  0  0  0  0  0
  193.7800  177.3530  139.3510 O   0  0  0  0  0  1  0  0  0  0  0  0
  190.3200  175.2660  137.4580 C   0  0  2  0  0  3  0  0  0  0  0  0
  188.6240  179.2600  140.3090 O   0  0  0  0  0  0  0  0  0  0  0  0
  190.2650  178.6130  143.2020 C   0  0  0  0  0  3  0  0  0  0  0  0
  189.1980  178.1910  142.4020 C   0  0  0  0  0  0  0  0  0  0  0  0
  187.9950  177.7940  143.0050 C   0  0  0  0  0  3  0  0  0  0  0  0
  186.3670  177.3080  145.1430 Cl  0  0  0  0  0  0  0  0  0  0  0  0
  188.9400  178.2250  145.1910 C   0  0  0  0  0  3  0  0  0  0  0  0
  187.8680  177.8090  144.3970 C   0  0  0  0  0  0  0  0  0  0  0  0
  190.1380  178.6280  144.5940 C   0  0  0  0  0  3  0  0  0  0  0  0
  194.1020  176.5910  134.5940 O   0  0  0  0  0  1  0  0  0  0  0  0
  192.7230  176.4090  134.7080 C   0  0  0  0  0  2  0  0  0  0  0  0
  1 27  1  0  0  0  0
  2 24  1  0  0  0  0
  2 22  1  0  0  0  0
  2 17  1  0  0  0  0
  3  7  1  0  0  0  0
  3 20  1  0  0  0  0
  4  1  1  0  0  0  0
  4 12  1  0  0  0  0
  6 11  1  0  0  0  0
  7 10  1  0  0  0  0
  8 18  1  0  0  0  0
  8 26  1  0  0  0  0
  9  6  1  0  0  0  0
  9  3  1  0  0  0  0
 10  5  1  0  0  0  0
 10 23  1  0  0  0  0
 11 16  1  0  0  0  0
 12  8  1  0  0  0  0
 13 17  1  0  0  0  0
 13  9  1  0  0  0  0
 13 21  1  0  0  0  0
 14  2  1  0  0  0  0
 16 20  1  0  0  0  0
 18 19  1  0  0  0  0
 19  5  1  0  0  0  0
 20 15  1  0  0  0  0
 21  7  1  0  0  0  0
 22  6  1  0  0  0  0
 23 30  1  0  0  0  0
 25 18  1  0  0  0  0
 27 21  1  0  0  0  0
 27 25  1  0  0  0  0
 28 15  1  0  0  0  0
 28 23  1  0  0  0  0
 29 35  1  0  0  0  0
 30 31  1  0  0  0  0
 30 29  2  0  0  0  0
 31 34  2  0  0  0  0
 34 32  1  0  0  0  0
 34 33  1  0  0  0  0
 35 33  2  0  0  0  0
 36 37  1  0  0  0  0
 37  4  1  0  0  0  0
M  END
>  <MODEL>
9

>  <REMARK>
 VINA RESULT:      -5.0      3.630      7.590
  Name = 
  2 active torsions:
  status: ('A' for Active; 'I' for Inactive)
    1  A    between atoms: C_4  and  C_37
    2  A    between atoms: C_23  and  C_30
                            x       y       z     vdW  Elec       q    Type
                         _______ _______ _______ _____ _____    ______ ____

>  <TORSDO>
F 2

$$$$
