=
 OpenBabel11122410313D

 30 35  0  0  1  0  0  0  0  0999 V2000
  187.5090  178.0810  143.0150 C   0  0  0  0  0  0  0  0  0  0  0  0
  188.7310  177.3280  145.0840 C   0  0  0  0  0  0  0  0  0  0  0  0
  184.0520  178.8960  145.2490 N   0  0  0  0  0  2  0  0  0  0  0  0
  186.3110  178.5540  142.4220 C   0  0  0  0  0  0  0  0  0  0  0  0
  188.6390  177.8320  142.1700 N   0  0  0  0  0  2  0  0  0  0  0  0
  187.3580  178.5740  138.8180 O   0  0  0  0  0  1  0  0  0  0  0  0
  183.9210  177.7870  140.8410 C   0  0  1  0  0  3  0  0  0  0  0  0
  187.3110  178.0990  140.1320 C   0  0  1  0  0  3  0  0  0  0  0  0
  183.1290  178.2800  141.9820 N   0  0  2  0  0  0  0  0  0  0  0  0
  183.1240  179.4110  144.2480 C   0  0  2  0  0  3  0  0  0  0  0  0
  188.6890  178.2430  140.7710 C   0  0  2  0  0  3  0  0  0  0  0  0
  186.2850  178.9030  140.9400 C   0  0  1  0  0  3  0  0  0  0  0  0
  188.7130  177.1170  146.4660 C   0  0  0  0  0  3  0  0  0  0  0  0
  181.9790  178.9280  141.3640 C   0  0  0  0  0  2  0  0  0  0  0  0
  182.9270  177.3980  139.7620 C   0  0  0  0  0  2  0  0  0  0  0  0
  190.0110  177.0080  144.3880 C   0  0  0  0  0  1  0  0  0  0  0  0
  185.2580  178.5610  144.5940 C   0  0  0  0  0  0  0  0  0  0  0  0
  187.5720  177.3830  147.2170 C   0  0  0  0  0  3  0  0  0  0  0  0
  187.5700  177.8210  144.4220 C   0  0  0  0  0  0  0  0  0  0  0  0
  185.1960  178.7720  143.2480 C   0  0  0  0  0  0  0  0  0  0  0  0
  181.7810  178.7090  144.3960 C   0  0  0  0  0  1  0  0  0  0  0  0
  183.8240  179.2500  142.8580 C   0  0  1  0  0  3  0  0  0  0  0  0
  181.6640  178.1620  140.0950 C   0  0  0  0  0  2  0  0  0  0  0  0
  184.6010  179.6010  139.4490 O   0  0  0  0  0  0  0  0  0  0  0  0
  186.4270  177.8650  146.5940 C   0  0  0  0  0  3  0  0  0  0  0  0
  186.4130  178.0840  145.2120 C   0  0  0  0  0  0  0  0  0  0  0  0
  184.9170  178.8060  140.3230 C   0  0  0  0  0  0  0  0  0  0  0  0
  189.7130  177.3970  140.0320 C   0  0  0  0  0  2  0  0  0  0  0  0
  191.9810  177.4780  140.5550 C   0  0  0  0  0  1  0  0  0  0  0  0
  190.7120  176.9030  140.9620 N   0  0  0  0  0  2  0  0  0  0  0  0
  1 19  1  0  0  0  0
  2 13  1  0  0  0  0
  4  1  2  0  0  0  0
  4 20  1  0  0  0  0
  5  1  1  0  0  0  0
  7 15  1  6  0  0  0
  7  9  1  0  0  0  0
  8  6  1  6  0  0  0
  8 11  1  0  0  0  0
  8 12  1  0  0  0  0
  9 14  1  6  0  0  0
  9 22  1  0  0  0  0
 10 21  1  6  0  0  0
 10  3  1  0  0  0  0
 11 28  1  6  0  0  0
 11  5  1  0  0  0  0
 12 27  1  6  0  0  0
 12  4  1  0  0  0  0
 13 18  2  0  0  0  0
 15 23  1  0  0  0  0
 16  2  1  0  0  0  0
 17 26  1  0  0  0  0
 17  3  1  0  0  0  0
 19  2  2  0  0  0  0
 19 26  1  0  0  0  0
 20 17  2  0  0  0  0
 22 20  1  1  0  0  0
 22 10  1  0  0  0  0
 23 14  1  0  0  0  0
 24 27  2  0  0  0  0
 25 18  1  0  0  0  0
 26 25  2  0  0  0  0
 27  7  1  0  0  0  0
 28 30  1  0  0  0  0
 29 30  1  0  0  0  0
M  END
>  <MODEL>
1

>  <REMARK>
 VINA RESULT:     -10.8      0.000      0.000
  Name = 
  2 active torsions:
  status: ('A' for Active; 'I' for Inactive)
    1  A    between atoms: C_11  and  C_28
    2  A    between atoms: C_28  and  N_30
                            x       y       z     vdW  Elec       q    Type
                         _______ _______ _______ _____ _____    ______ ____

>  <TORSDO>
F 2

$$$$
=
 OpenBabel11122410313D

 30 35  0  0  1  0  0  0  0  0999 V2000
  188.1180  177.8850  142.3520 C   0  0  0  0  0  0  0  0  0  0  0  0
  189.7190  177.0030  144.0830 C   0  0  0  0  0  0  0  0  0  0  0  0
  185.2590  178.7340  145.3040 N   0  0  0  0  0  2  0  0  0  0  0  0
  186.8430  178.4260  142.0460 C   0  0  0  0  0  0  0  0  0  0  0  0
  189.0280  177.6300  141.2750 N   0  0  0  0  0  2  0  0  0  0  0  0
  187.0930  178.5560  138.3050 O   0  0  0  0  0  1  0  0  0  0  0  0
  184.1380  177.8130  140.9940 C   0  0  1  0  0  3  0  0  0  0  0  0
  187.3080  178.0290  139.5810 C   0  0  1  0  0  3  0  0  0  0  0  0
  183.6320  178.2880  142.2940 N   0  0  2  0  0  0  0  0  0  0  0  0
  184.1620  179.3230  144.5440 C   0  0  2  0  0  3  0  0  0  0  0  0
  188.7960  178.0960  139.9130 C   0  0  2  0  0  3  0  0  0  0  0  0
  186.5160  178.8360  140.6180 C   0  0  1  0  0  3  0  0  0  0  0  0
  189.9890  176.7360  145.4290 C   0  0  0  0  0  3  0  0  0  0  0  0
  182.4060  179.0020  141.9610 C   0  0  0  0  0  2  0  0  0  0  0  0
  182.9200  177.5060  140.1430 C   0  0  0  0  0  2  0  0  0  0  0  0
  190.8060  176.6660  143.1170 C   0  0  0  0  0  1  0  0  0  0  0  0
  186.2810  178.3820  144.3930 C   0  0  0  0  0  0  0  0  0  0  0  0
  189.0480  177.0130  146.4170 C   0  0  0  0  0  3  0  0  0  0  0  0
  188.4670  177.5660  143.7030 C   0  0  0  0  0  0  0  0  0  0  0  0
  185.9420  178.6510  143.1000 C   0  0  0  0  0  0  0  0  0  0  0  0
  182.8520  178.6660  144.9550 C   0  0  0  0  0  1  0  0  0  0  0  0
  184.5410  179.1950  143.0310 C   0  0  1  0  0  3  0  0  0  0  0  0
  181.7930  178.3010  140.7650 C   0  0  0  0  0  2  0  0  0  0  0  0
  184.5850  179.6560  139.5480 O   0  0  0  0  0  0  0  0  0  0  0  0
  187.8180  177.5620  146.0710 C   0  0  0  0  0  3  0  0  0  0  0  0
  187.5190  177.8380  144.7330 C   0  0  0  0  0  0  0  0  0  0  0  0
  185.0450  178.8150  140.3070 C   0  0  0  0  0  0  0  0  0  0  0  0
  189.5990  177.2450  138.9430 C   0  0  0  0  0  2  0  0  0  0  0  0
  191.7110  176.2700  138.8240 C   0  0  0  0  0  1  0  0  0  0  0  0
  190.5450  176.4200  139.6740 N   0  0  0  0  0  2  0  0  0  0  0  0
  1 19  1  0  0  0  0
  2 13  1  0  0  0  0
  4  1  2  0  0  0  0
  4 20  1  0  0  0  0
  5  1  1  0  0  0  0
  7 15  1  6  0  0  0
  7  9  1  0  0  0  0
  8  6  1  6  0  0  0
  8 11  1  0  0  0  0
  8 12  1  0  0  0  0
  9 14  1  6  0  0  0
  9 22  1  0  0  0  0
 10 21  1  6  0  0  0
 10  3  1  0  0  0  0
 11 28  1  6  0  0  0
 11  5  1  0  0  0  0
 12 27  1  6  0  0  0
 12  4  1  0  0  0  0
 13 18  2  0  0  0  0
 15 23  1  0  0  0  0
 16  2  1  0  0  0  0
 17 26  1  0  0  0  0
 17  3  1  0  0  0  0
 19  2  2  0  0  0  0
 19 26  1  0  0  0  0
 20 17  2  0  0  0  0
 22 20  1  1  0  0  0
 22 10  1  0  0  0  0
 23 14  1  0  0  0  0
 24 27  2  0  0  0  0
 25 18  1  0  0  0  0
 26 25  2  0  0  0  0
 27  7  1  0  0  0  0
 28 30  1  0  0  0  0
 29 30  1  0  0  0  0
M  END
>  <MODEL>
2

>  <REMARK>
 VINA RESULT:     -10.1      0.935      1.080
  Name = 
  2 active torsions:
  status: ('A' for Active; 'I' for Inactive)
    1  A    between atoms: C_11  and  C_28
    2  A    between atoms: C_28  and  N_30
                            x       y       z     vdW  Elec       q    Type
                         _______ _______ _______ _____ _____    ______ ____

>  <TORSDO>
F 2

$$$$
=
 OpenBabel11122410313D

 30 35  0  0  1  0  0  0  0  0999 V2000
  186.6770  178.1900  141.0700 C   0  0  0  0  0  0  0  0  0  0  0  0
  184.3030  178.9800  140.7850 C   0  0  0  0  0  0  0  0  0  0  0  0
  186.0660  177.5630  145.1740 N   0  0  0  0  0  2  0  0  0  0  0  0
  187.7040  177.7320  141.9330 C   0  0  0  0  0  0  0  0  0  0  0  0
  186.9800  178.3730  139.6820 N   0  0  0  0  0  2  0  0  0  0  0  0
  190.5450  177.5490  139.4890 O   0  0  0  0  0  1  0  0  0  0  0  0
  190.1510  178.5140  143.4170 C   0  0  1  0  0  3  0  0  0  0  0  0
  189.3800  178.0730  140.0550 C   0  0  1  0  0  3  0  0  0  0  0  0
  189.4330  178.0880  144.6310 N   0  0  2  0  0  0  0  0  0  0  0  0
  187.3510  177.0410  145.6250 C   0  0  2  0  0  3  0  0  0  0  0  0
  188.2230  177.9100  139.0740 C   0  0  2  0  0  3  0  0  0  0  0  0
  189.0550  177.3310  141.3580 C   0  0  1  0  0  3  0  0  0  0  0  0
  183.0580  179.2410  141.3650 C   0  0  0  0  0  3  0  0  0  0  0  0
  190.4590  177.4530  145.4490 C   0  0  0  0  0  2  0  0  0  0  0  0
  191.5530  178.8940  143.8560 C   0  0  0  0  0  2  0  0  0  0  0  0
  184.4100  179.2340  139.3180 C   0  0  0  0  0  1  0  0  0  0  0  0
  186.1670  177.8370  143.7910 C   0  0  0  0  0  0  0  0  0  0  0  0
  182.8430  179.0380  142.7250 C   0  0  0  0  0  3  0  0  0  0  0  0
  185.3770  178.4980  141.5870 C   0  0  0  0  0  0  0  0  0  0  0  0
  187.4120  177.5790  143.2990 C   0  0  0  0  0  0  0  0  0  0  0  0
  187.7890  177.7890  146.8760 C   0  0  0  0  0  1  0  0  0  0  0  0
  188.3270  177.1290  144.4050 C   0  0  1  0  0  3  0  0  0  0  0  0
  191.7600  178.1820  145.1760 C   0  0  0  0  0  2  0  0  0  0  0  0
  191.0960  176.6310  142.3000 O   0  0  0  0  0  0  0  0  0  0  0  0
  183.8770  178.5690  143.5280 C   0  0  0  0  0  3  0  0  0  0  0  0
  185.1340  178.3010  142.9780 C   0  0  0  0  0  0  0  0  0  0  0  0
  190.1870  177.4470  142.3410 C   0  0  0  0  0  0  0  0  0  0  0  0
  188.4860  178.6960  137.8000 C   0  0  0  0  0  2  0  0  0  0  0  0
  187.1070  178.1680  136.0000 C   0  0  0  0  0  1  0  0  0  0  0  0
  187.2290  179.0340  137.1580 N   0  0  0  0  0  2  0  0  0  0  0  0
  1 19  2  0  0  0  0
  1  4  1  0  0  0  0
  2 13  2  0  0  0  0
  2 19  1  0  0  0  0
  3 10  1  0  0  0  0
  4 20  2  0  0  0  0
  5  1  1  0  0  0  0
  7 15  1  1  0  0  0
  7  9  1  0  0  0  0
  8  6  1  6  0  0  0
  8 12  1  0  0  0  0
  9 14  1  1  0  0  0
 10 21  1  1  0  0  0
 11 28  1  6  0  0  0
 11  5  1  0  0  0  0
 11  8  1  0  0  0  0
 12  4  1  1  0  0  0
 12 27  1  0  0  0  0
 13 18  1  0  0  0  0
 15 23  1  0  0  0  0
 16  2  1  0  0  0  0
 17  3  1  0  0  0  0
 18 25  2  0  0  0  0
 19 26  1  0  0  0  0
 20 17  1  0  0  0  0
 22 20  1  6  0  0  0
 22  9  1  0  0  0  0
 22 10  1  0  0  0  0
 23 14  1  0  0  0  0
 24 27  2  0  0  0  0
 26 25  1  0  0  0  0
 26 17  2  0  0  0  0
 27  7  1  0  0  0  0
 29 30  1  0  0  0  0
 30 28  1  0  0  0  0
M  END
>  <MODEL>
3

>  <REMARK>
 VINA RESULT:      -9.4      2.273      5.729
  Name = 
  2 active torsions:
  status: ('A' for Active; 'I' for Inactive)
    1  A    between atoms: C_11  and  C_28
    2  A    between atoms: C_28  and  N_30
                            x       y       z     vdW  Elec       q    Type
                         _______ _______ _______ _____ _____    ______ ____

>  <TORSDO>
F 2

$$$$
=
 OpenBabel11122410313D

 30 35  0  0  1  0  0  0  0  0999 V2000
  187.6210  178.1380  142.5300 C   0  0  0  0  0  0  0  0  0  0  0  0
  186.3840  178.0970  144.7230 C   0  0  0  0  0  0  0  0  0  0  0  0
  184.0990  179.1000  140.4620 N   0  0  0  0  0  2  0  0  0  0  0  0
  187.5830  178.2980  141.1210 C   0  0  0  0  0  0  0  0  0  0  0  0
  188.8720  177.8110  143.1470 N   0  0  0  0  0  2  0  0  0  0  0  0
  191.1560  177.5000  140.2990 O   0  0  0  0  0  1  0  0  0  0  0  0
  187.5560  176.8730  138.5190 C   0  0  1  0  0  3  0  0  0  0  0  0
  189.9480  177.3810  140.9920 C   0  0  1  0  0  3  0  0  0  0  0  0
  186.2710  177.5510  138.2730 N   0  0  2  0  0  0  0  0  0  0  0  0
  184.5490  179.2250  139.0800 C   0  0  2  0  0  3  0  0  0  0  0  0
  190.1430  177.8460  142.4320 C   0  0  2  0  0  3  0  0  0  0  0  0
  188.8740  178.2440  140.3170 C   0  0  1  0  0  3  0  0  0  0  0  0
  185.1770  178.2530  145.4110 C   0  0  0  0  0  3  0  0  0  0  0  0
  186.3070  177.8780  136.8530 C   0  0  0  0  0  2  0  0  0  0  0  0
  187.8880  176.1040  137.2540 C   0  0  0  0  0  2  0  0  0  0  0  0
  187.5750  177.7580  145.5550 C   0  0  0  0  0  1  0  0  0  0  0  0
  185.2150  178.7480  141.2540 C   0  0  0  0  0  0  0  0  0  0  0  0
  184.0020  178.5710  144.7360 C   0  0  0  0  0  3  0  0  0  0  0  0
  186.4260  178.2630  143.3080 C   0  0  0  0  0  0  0  0  0  0  0  0
  186.3510  178.5930  140.5150 C   0  0  0  0  0  0  0  0  0  0  0  0
  183.6180  178.4340  138.1720 C   0  0  0  0  0  1  0  0  0  0  0  0
  186.0530  178.7900  139.0540 C   0  0  1  0  0  3  0  0  0  0  0  0
  187.0850  176.7760  136.1620 C   0  0  0  0  0  2  0  0  0  0  0  0
  189.3780  178.3280  138.0180 O   0  0  0  0  0  0  0  0  0  0  0  0
  184.0180  178.7380  143.3550 C   0  0  0  0  0  3  0  0  0  0  0  0
  185.2090  178.5860  142.6380 C   0  0  0  0  0  0  0  0  0  0  0  0
  188.6730  177.8310  138.8850 C   0  0  0  0  0  0  0  0  0  0  0  0
  191.1510  176.9620  143.1480 C   0  0  0  0  0  2  0  0  0  0  0  0
  191.5320  176.7530  145.4360 C   0  0  0  0  0  1  0  0  0  0  0  0
  191.6810  177.6540  144.3090 N   0  0  0  0  0  2  0  0  0  0  0  0
  1  5  1  0  0  0  0
  1 19  1  0  0  0  0
  2 13  1  0  0  0  0
  2 16  1  0  0  0  0
  3 17  1  0  0  0  0
  4  1  2  0  0  0  0
  7 15  1  6  0  0  0
  7 27  1  0  0  0  0
  8  6  1  6  0  0  0
  8 11  1  0  0  0  0
  9 14  1  6  0  0  0
  9  7  1  0  0  0  0
  9 22  1  0  0  0  0
 10 21  1  6  0  0  0
 10  3  1  0  0  0  0
 11  5  1  0  0  0  0
 11 28  1  1  0  0  0
 12 27  1  6  0  0  0
 12  8  1  0  0  0  0
 12  4  1  0  0  0  0
 17 26  1  0  0  0  0
 18 13  2  0  0  0  0
 19  2  2  0  0  0  0
 20  4  1  0  0  0  0
 20 17  2  0  0  0  0
 22 10  1  0  0  0  0
 22 20  1  1  0  0  0
 23 14  1  0  0  0  0
 23 15  1  0  0  0  0
 24 27  2  0  0  0  0
 25 18  1  0  0  0  0
 26 19  1  0  0  0  0
 26 25  2  0  0  0  0
 28 30  1  0  0  0  0
 30 29  1  0  0  0  0
M  END
>  <MODEL>
4

>  <REMARK>
 VINA RESULT:      -9.2      2.153      4.124
  Name = 
  2 active torsions:
  status: ('A' for Active; 'I' for Inactive)
    1  A    between atoms: C_11  and  C_28
    2  A    between atoms: C_28  and  N_30
                            x       y       z     vdW  Elec       q    Type
                         _______ _______ _______ _____ _____    ______ ____

>  <TORSDO>
F 2

$$$$
=
 OpenBabel11122410313D

 30 35  0  0  1  0  0  0  0  0999 V2000
  187.9200  177.9810  142.4310 C   0  0  0  0  0  0  0  0  0  0  0  0
  185.7120  178.1810  143.6260 C   0  0  0  0  0  0  0  0  0  0  0  0
  186.0740  178.6590  138.7250 N   0  0  0  0  0  2  0  0  0  0  0  0
  188.6390  177.9770  141.2090 C   0  0  0  0  0  0  0  0  0  0  0  0
  188.6380  177.7410  143.6480 N   0  0  0  0  0  2  0  0  0  0  0  0
  192.0610  177.1280  142.4930 O   0  0  0  0  0  1  0  0  0  0  0  0
  189.9140  176.2600  139.1530 C   0  0  1  0  0  3  0  0  0  0  0  0
  190.6650  177.0770  142.4490 C   0  0  1  0  0  3  0  0  0  0  0  0
  188.9890  176.8910  138.1940 N   0  0  2  0  0  0  0  0  0  0  0  0
  187.1910  178.6280  137.7870 C   0  0  2  0  0  3  0  0  0  0  0  0
  190.0940  177.7070  143.7160 C   0  0  2  0  0  3  0  0  0  0  0  0
  190.1550  177.8440  141.2220 C   0  0  1  0  0  3  0  0  0  0  0  0
  184.3340  178.4030  143.5490 C   0  0  0  0  0  3  0  0  0  0  0  0
  189.7860  177.0520  136.9840 C   0  0  0  0  0  2  0  0  0  0  0  0
  190.8220  175.3540  138.3440 C   0  0  0  0  0  2  0  0  0  0  0  0
  186.2650  177.9540  144.9930 C   0  0  0  0  0  1  0  0  0  0  0  0
  186.5850  178.4140  140.0190 C   0  0  0  0  0  0  0  0  0  0  0  0
  183.7100  178.6280  142.3250 C   0  0  0  0  0  3  0  0  0  0  0  0
  186.5030  178.1830  142.4400 C   0  0  0  0  0  0  0  0  0  0  0  0
  187.9290  178.1860  140.0150 C   0  0  0  0  0  0  0  0  0  0  0  0
  186.8390  177.7280  136.6110 C   0  0  0  0  0  1  0  0  0  0  0  0
  188.4570  178.2100  138.6070 C   0  0  1  0  0  3  0  0  0  0  0  0
  190.7530  175.8860  136.9290 C   0  0  0  0  0  2  0  0  0  0  0  0
  191.7990  177.6670  139.5450 O   0  0  0  0  0  0  0  0  0  0  0  0
  184.4600  178.6340  141.1550 C   0  0  0  0  0  3  0  0  0  0  0  0
  185.8410  178.4130  141.1980 C   0  0  0  0  0  0  0  0  0  0  0  0
  190.7190  177.2660  139.9530 C   0  0  0  0  0  0  0  0  0  0  0  0
  190.5250  176.9230  144.9440 C   0  0  0  0  0  2  0  0  0  0  0  0
  190.2530  176.7530  147.2510 C   0  0  0  0  0  1  0  0  0  0  0  0
  189.5790  177.1340  146.0240 N   0  0  0  0  0  2  0  0  0  0  0  0
  1 19  1  0  0  0  0
  1  5  1  0  0  0  0
  2 16  1  0  0  0  0
  3 17  1  0  0  0  0
  4 12  1  0  0  0  0
  4  1  2  0  0  0  0
  5 11  1  0  0  0  0
  7 15  1  6  0  0  0
  7 27  1  0  0  0  0
  8  6  1  1  0  0  0
  8 11  1  0  0  0  0
  9 14  1  6  0  0  0
  9 22  1  0  0  0  0
  9  7  1  0  0  0  0
 10 21  1  6  0  0  0
 10 22  1  0  0  0  0
 10  3  1  0  0  0  0
 11 28  1  1  0  0  0
 12 27  1  6  0  0  0
 12  8  1  0  0  0  0
 13  2  1  0  0  0  0
 17 26  1  0  0  0  0
 18 13  2  0  0  0  0
 19  2  2  0  0  0  0
 20 17  2  0  0  0  0
 20  4  1  0  0  0  0
 22 20  1  1  0  0  0
 23 14  1  0  0  0  0
 23 15  1  0  0  0  0
 24 27  2  0  0  0  0
 25 26  2  0  0  0  0
 25 18  1  0  0  0  0
 26 19  1  0  0  0  0
 28 30  1  0  0  0  0
 30 29  1  0  0  0  0
M  END
>  <MODEL>
5

>  <REMARK>
 VINA RESULT:      -8.9      2.527      5.925
  Name = 
  2 active torsions:
  status: ('A' for Active; 'I' for Inactive)
    1  A    between atoms: C_11  and  C_28
    2  A    between atoms: C_28  and  N_30
                            x       y       z     vdW  Elec       q    Type
                         _______ _______ _______ _____ _____    ______ ____

>  <TORSDO>
F 2

$$$$
=
 OpenBabel11122410313D

 30 35  0  0  1  0  0  0  0  0999 V2000
  188.6230  177.7480  141.3730 C   0  0  0  0  0  0  0  0  0  0  0  0
  189.2690  177.1580  143.7340 C   0  0  0  0  0  0  0  0  0  0  0  0
  184.7630  178.8340  142.6090 N   0  0  0  0  0  2  0  0  0  0  0  0
  187.6280  178.1920  140.4660 C   0  0  0  0  0  0  0  0  0  0  0  0
  189.9140  177.4010  140.8570 N   0  0  0  0  0  2  0  0  0  0  0  0
  189.5230  177.8660  137.2440 O   0  0  0  0  0  1  0  0  0  0  0  0
  185.6660  177.3360  138.4110 C   0  0  1  0  0  3  0  0  0  0  0  0
  189.1370  177.5110  138.5390 C   0  0  1  0  0  3  0  0  0  0  0  0
  184.6410  177.9470  139.2770 N   0  0  2  0  0  0  0  0  0  0  0  0
  184.1300  179.2760  141.3710 C   0  0  2  0  0  3  0  0  0  0  0  0
  190.3210  177.6830  139.4860 C   0  0  2  0  0  3  0  0  0  0  0  0
  187.9800  178.4060  139.0010 C   0  0  1  0  0  3  0  0  0  0  0  0
  188.9050  177.0730  145.0820 C   0  0  0  0  0  3  0  0  0  0  0  0
  183.7050  178.5610  138.3440 C   0  0  0  0  0  2  0  0  0  0  0  0
  184.9500  176.8730  137.1560 C   0  0  0  0  0  2  0  0  0  0  0  0
  190.6660  176.7510  143.4050 C   0  0  0  0  0  1  0  0  0  0  0  0
  186.0770  178.4160  142.3020 C   0  0  0  0  0  0  0  0  0  0  0  0
  187.6280  177.4300  145.5040 C   0  0  0  0  0  3  0  0  0  0  0  0
  188.3270  177.6150  142.7680 C   0  0  0  0  0  0  0  0  0  0  0  0
  186.3550  178.5070  140.9700 C   0  0  0  0  0  0  0  0  0  0  0  0
  182.7630  178.6190  141.2400 C   0  0  0  0  0  1  0  0  0  0  0  0
  185.1420  178.9770  140.2150 C   0  0  1  0  0  3  0  0  0  0  0  0
  183.6780  177.6900  137.1030 C   0  0  0  0  0  2  0  0  0  0  0  0
  186.7420  179.0030  137.0880 O   0  0  0  0  0  0  0  0  0  0  0  0
  186.6910  177.8780  144.5790 C   0  0  0  0  0  3  0  0  0  0  0  0
  187.0240  177.9720  143.2240 C   0  0  0  0  0  0  0  0  0  0  0  0
  186.8010  178.2830  138.0740 C   0  0  0  0  0  0  0  0  0  0  0  0
  191.4580  176.7530  139.0940 C   0  0  0  0  0  2  0  0  0  0  0  0
  191.7200  174.9910  137.5940 C   0  0  0  0  0  1  0  0  0  0  0  0
  190.9290  175.4540  138.7180 N   0  0  0  0  0  2  0  0  0  0  0  0
  1 19  1  0  0  0  0
  2 13  1  0  0  0  0
  4 20  1  0  0  0  0
  4  1  2  0  0  0  0
  5  1  1  0  0  0  0
  7 15  1  6  0  0  0
  7  9  1  0  0  0  0
  8  6  1  6  0  0  0
  8 12  1  0  0  0  0
  8 11  1  0  0  0  0
  9 14  1  6  0  0  0
  9 22  1  0  0  0  0
 10 21  1  6  0  0  0
 10  3  1  0  0  0  0
 11 28  1  6  0  0  0
 11  5  1  0  0  0  0
 12 27  1  6  0  0  0
 12  4  1  0  0  0  0
 13 18  2  0  0  0  0
 16  2  1  0  0  0  0
 17  3  1  0  0  0  0
 17 26  1  0  0  0  0
 19 26  1  0  0  0  0
 19  2  2  0  0  0  0
 20 17  2  0  0  0  0
 22 20  1  1  0  0  0
 22 10  1  0  0  0  0
 23 15  1  0  0  0  0
 23 14  1  0  0  0  0
 24 27  2  0  0  0  0
 25 18  1  0  0  0  0
 26 25  2  0  0  0  0
 27  7  1  0  0  0  0
 29 30  1  0  0  0  0
 30 28  1  0  0  0  0
M  END
>  <MODEL>
6

>  <REMARK>
 VINA RESULT:      -8.5      1.813      2.643
  Name = 
  2 active torsions:
  status: ('A' for Active; 'I' for Inactive)
    1  A    between atoms: C_11  and  C_28
    2  A    between atoms: C_28  and  N_30
                            x       y       z     vdW  Elec       q    Type
                         _______ _______ _______ _____ _____    ______ ____

>  <TORSDO>
F 2

$$$$
=
 OpenBabel11122410313D

 30 35  0  0  1  0  0  0  0  0999 V2000
  187.3710  177.8670  141.3940 C   0  0  0  0  0  0  0  0  0  0  0  0
  189.1520  177.0430  142.9720 C   0  0  0  0  0  0  0  0  0  0  0  0
  184.8340  178.7950  144.6050 N   0  0  0  0  0  2  0  0  0  0  0  0
  186.0680  178.3940  141.2090 C   0  0  0  0  0  0  0  0  0  0  0  0
  188.1650  177.5820  140.2350 N   0  0  0  0  0  2  0  0  0  0  0  0
  185.9210  178.4120  137.4600 O   0  0  0  0  0  1  0  0  0  0  0  0
  183.2710  177.7410  140.4670 C   0  0  1  0  0  3  0  0  0  0  0  0
  186.2730  177.9250  138.7210 C   0  0  1  0  0  3  0  0  0  0  0  0
  182.9010  178.2520  141.7990 N   0  0  2  0  0  0  0  0  0  0  0  0
  183.6590  179.3570  143.9480 C   0  0  2  0  0  3  0  0  0  0  0  0
  187.7870  178.0060  138.8920 C   0  0  2  0  0  3  0  0  0  0  0  0
  185.5890  178.7600  139.8110 C   0  0  1  0  0  3  0  0  0  0  0  0
  189.5630  176.8180  144.2890 C   0  0  0  0  0  3  0  0  0  0  0  0
  181.6430  178.9530  141.5750 C   0  0  0  0  0  2  0  0  0  0  0  0
  181.9720  177.4040  139.7590 C   0  0  0  0  0  2  0  0  0  0  0  0
  190.1320  176.6800  141.9080 C   0  0  0  0  0  1  0  0  0  0  0  0
  185.7560  178.4190  143.6030 C   0  0  0  0  0  0  0  0  0  0  0  0
  188.7300  177.1210  145.3630 C   0  0  0  0  0  3  0  0  0  0  0  0
  187.8630  177.5900  142.7100 C   0  0  0  0  0  0  0  0  0  0  0  0
  185.2810  178.6480  142.3450 C   0  0  0  0  0  0  0  0  0  0  0  0
  182.4040  178.7080  144.5150 C   0  0  0  0  0  1  0  0  0  0  0  0
  183.8770  179.1840  142.4080 C   0  0  1  0  0  3  0  0  0  0  0  0
  180.9110  178.2140  140.4720 C   0  0  0  0  0  2  0  0  0  0  0  0
  183.5510  179.5410  138.9280 O   0  0  0  0  0  0  0  0  0  0  0  0
  187.4670  177.6550  145.1320 C   0  0  0  0  0  3  0  0  0  0  0  0
  187.0260  177.8890  143.8250 C   0  0  0  0  0  0  0  0  0  0  0  0
  184.0930  178.7250  139.6590 C   0  0  0  0  0  0  0  0  0  0  0  0
  188.4890  177.1280  137.8690 C   0  0  0  0  0  2  0  0  0  0  0  0
  189.1720  179.2920  137.3430 C   0  0  0  0  0  1  0  0  0  0  0  0
  189.0400  177.9500  136.8070 N   0  0  0  0  0  2  0  0  0  0  0  0
  1 19  1  0  0  0  0
  2 13  1  0  0  0  0
  4  1  2  0  0  0  0
  4 20  1  0  0  0  0
  5  1  1  0  0  0  0
  7 15  1  6  0  0  0
  7  9  1  0  0  0  0
  8  6  1  6  0  0  0
  8 11  1  0  0  0  0
  8 12  1  0  0  0  0
  9 14  1  6  0  0  0
  9 22  1  0  0  0  0
 10 21  1  1  0  0  0
 10  3  1  0  0  0  0
 11 28  1  6  0  0  0
 11  5  1  0  0  0  0
 12 27  1  1  0  0  0
 12  4  1  0  0  0  0
 13 18  2  0  0  0  0
 15 23  1  0  0  0  0
 16  2  1  0  0  0  0
 17 26  1  0  0  0  0
 17  3  1  0  0  0  0
 19  2  2  0  0  0  0
 19 26  1  0  0  0  0
 20 17  2  0  0  0  0
 22 20  1  1  0  0  0
 22 10  1  0  0  0  0
 23 14  1  0  0  0  0
 24 27  2  0  0  0  0
 25 18  1  0  0  0  0
 26 25  2  0  0  0  0
 27  7  1  0  0  0  0
 30 29  1  0  0  0  0
 30 28  1  0  0  0  0
M  END
>  <MODEL>
7

>  <REMARK>
 VINA RESULT:      -8.3      1.542      1.911
  Name = 
  2 active torsions:
  status: ('A' for Active; 'I' for Inactive)
    1  A    between atoms: C_11  and  C_28
    2  A    between atoms: C_28  and  N_30
                            x       y       z     vdW  Elec       q    Type
                         _______ _______ _______ _____ _____    ______ ____

>  <TORSDO>
F 2

$$$$
=
 OpenBabel11122410313D

 30 35  0  0  1  0  0  0  0  0999 V2000
  183.3260  178.5930  141.2730 C   0  0  0  0  0  0  0  0  0  0  0  0
  182.2210  178.1520  139.0540 C   0  0  0  0  0  0  0  0  0  0  0  0
  187.1320  178.3620  139.5200 N   0  0  0  0  0  2  0  0  0  0  0  0
  184.5220  178.7330  142.0230 C   0  0  0  0  0  0  0  0  0  0  0  0
  182.0730  178.6890  141.9600 N   0  0  0  0  0  2  0  0  0  0  0  0
  183.0670  179.1380  145.4580 O   0  0  0  0  0  1  0  0  0  0  0  0
  186.3810  177.3780  143.8960 C   0  0  1  0  0  3  0  0  0  0  0  0
  183.1480  178.6330  144.1570 C   0  0  1  0  0  3  0  0  0  0  0  0
  187.4190  177.6020  142.8740 N   0  0  2  0  0  0  0  0  0  0  0  0
  188.0290  178.6270  140.6390 C   0  0  2  0  0  3  0  0  0  0  0  0
  181.9590  179.1350  143.3440 C   0  0  2  0  0  3  0  0  0  0  0  0
  184.4520  179.1000  143.4990 C   0  0  1  0  0  3  0  0  0  0  0  0
  182.3570  177.9080  137.6840 C   0  0  0  0  0  3  0  0  0  0  0  0
  188.6140  177.9240  143.6430 C   0  0  0  0  0  2  0  0  0  0  0  0
  187.0800  176.7590  145.0920 C   0  0  0  0  0  2  0  0  0  0  0  0
  180.8230  178.2180  139.5730 C   0  0  0  0  0  1  0  0  0  0  0  0
  185.8060  178.3910  140.0080 C   0  0  0  0  0  0  0  0  0  0  0  0
  183.6140  177.8280  137.0920 C   0  0  0  0  0  3  0  0  0  0  0  0
  183.3770  178.3230  139.8680 C   0  0  0  0  0  0  0  0  0  0  0  0
  185.7500  178.6130  141.3530 C   0  0  0  0  0  0  0  0  0  0  0  0
  189.1320  177.5770  140.6620 C   0  0  0  0  0  1  0  0  0  0  0  0
  187.1390  178.7030  141.9240 C   0  0  1  0  0  3  0  0  0  0  0  0
  188.5380  177.1350  144.9350 C   0  0  0  0  0  2  0  0  0  0  0  0
  186.0570  179.3450  145.2050 O   0  0  0  0  0  0  0  0  0  0  0  0
  184.7580  177.9910  137.8650 C   0  0  0  0  0  3  0  0  0  0  0  0
  184.6540  178.2350  139.2390 C   0  0  0  0  0  0  0  0  0  0  0  0
  185.6480  178.6460  144.2890 C   0  0  0  0  0  0  0  0  0  0  0  0
  180.6540  178.6250  143.9340 C   0  0  0  0  0  2  0  0  0  0  0  0
  179.2300  180.1940  142.9680 C   0  0  0  0  0  1  0  0  0  0  0  0
  179.5790  178.7860  142.9720 N   0  0  0  0  0  2  0  0  0  0  0  0
  1  5  1  0  0  0  0
  1  4  1  0  0  0  0
  2 16  1  0  0  0  0
  2 19  1  0  0  0  0
  3 17  1  0  0  0  0
  3 10  1  0  0  0  0
  5 11  1  0  0  0  0
  7 27  1  0  0  0  0
  7 15  1  1  0  0  0
  8  6  1  1  0  0  0
  9 14  1  1  0  0  0
  9  7  1  0  0  0  0
 10 21  1  1  0  0  0
 10 22  1  0  0  0  0
 11 28  1  1  0  0  0
 11  8  1  0  0  0  0
 12  4  1  6  0  0  0
 12  8  1  0  0  0  0
 12 27  1  0  0  0  0
 13  2  2  0  0  0  0
 14 23  1  0  0  0  0
 17 20  1  0  0  0  0
 18 13  1  0  0  0  0
 18 25  2  0  0  0  0
 19  1  2  0  0  0  0
 20  4  2  0  0  0  0
 22 20  1  6  0  0  0
 22  9  1  0  0  0  0
 23 15  1  0  0  0  0
 25 26  1  0  0  0  0
 26 19  1  0  0  0  0
 26 17  2  0  0  0  0
 27 24  2  0  0  0  0
 29 30  1  0  0  0  0
 30 28  1  0  0  0  0
M  END
>  <MODEL>
8

>  <REMARK>
 VINA RESULT:      -8.0      2.255      7.431
  Name = 
  2 active torsions:
  status: ('A' for Active; 'I' for Inactive)
    1  A    between atoms: C_11  and  C_28
    2  A    between atoms: C_28  and  N_30
                            x       y       z     vdW  Elec       q    Type
                         _______ _______ _______ _____ _____    ______ ____

>  <TORSDO>
F 2

$$$$
=
 OpenBabel11122410313D

 30 35  0  0  1  0  0  0  0  0999 V2000
  188.4180  177.5840  142.3530 C   0  0  0  0  0  0  0  0  0  0  0  0
  187.2470  178.4230  140.2880 C   0  0  0  0  0  0  0  0  0  0  0  0
  184.9080  177.9950  144.6150 N   0  0  0  0  0  2  0  0  0  0  0  0
  188.3640  177.2850  143.7380 C   0  0  0  0  0  0  0  0  0  0  0  0
  189.6630  177.4110  141.6650 N   0  0  0  0  0  2  0  0  0  0  0  0
  191.9510  176.3520  144.3240 O   0  0  0  0  0  1  0  0  0  0  0  0
  189.0580  178.2520  146.4560 C   0  0  1  0  0  3  0  0  0  0  0  0
  190.8940  177.0660  143.7510 C   0  0  1  0  0  3  0  0  0  0  0  0
  187.6160  178.1720  146.7460 N   0  0  2  0  0  0  0  0  0  0  0  0
  185.3060  177.5200  145.9350 C   0  0  2  0  0  3  0  0  0  0  0  0
  190.8130  176.7420  142.2620 C   0  0  2  0  0  3  0  0  0  0  0  0
  189.5750  176.6780  144.4310 C   0  0  1  0  0  3  0  0  0  0  0  0
  186.0710  178.8900  139.6930 C   0  0  0  0  0  3  0  0  0  0  0  0
  187.5550  177.6910  148.1210 C   0  0  0  0  0  2  0  0  0  0  0  0
  189.7390  178.6410  147.7550 C   0  0  0  0  0  2  0  0  0  0  0  0
  188.4360  178.3120  139.3920 C   0  0  0  0  0  1  0  0  0  0  0  0
  186.0360  177.9230  143.7670 C   0  0  0  0  0  0  0  0  0  0  0  0
  184.9010  179.0310  140.4340 C   0  0  0  0  0  3  0  0  0  0  0  0
  187.2630  178.0840  141.6720 C   0  0  0  0  0  0  0  0  0  0  0  0
  187.1500  177.4810  144.4170 C   0  0  0  0  0  0  0  0  0  0  0  0
  184.8500  178.5180  146.9900 C   0  0  0  0  0  1  0  0  0  0  0  0
  186.8480  177.2550  145.8740 C   0  0  1  0  0  3  0  0  0  0  0  0
  188.7620  178.2550  148.8440 C   0  0  0  0  0  2  0  0  0  0  0  0
  190.0720  176.1030  146.6600 O   0  0  0  0  0  0  0  0  0  0  0  0
  184.8910  178.7070  141.7860 C   0  0  0  0  0  3  0  0  0  0  0  0
  186.0530  178.2400  142.4090 C   0  0  0  0  0  0  0  0  0  0  0  0
  189.6280  176.9580  145.9080 C   0  0  0  0  0  0  0  0  0  0  0  0
  192.0810  177.1840  141.5490 C   0  0  0  0  0  2  0  0  0  0  0  0
  193.1540  177.1240  139.4830 C   0  0  0  0  0  1  0  0  0  0  0  0
  191.8530  177.2300  140.1160 N   0  0  0  0  0  2  0  0  0  0  0  0
  1  4  1  0  0  0  0
  2 19  1  0  0  0  0
  3 10  1  0  0  0  0
  4 20  2  0  0  0  0
  5 11  1  0  0  0  0
  5  1  1  0  0  0  0
  7  9  1  0  0  0  0
  7 15  1  1  0  0  0
  8  6  1  1  0  0  0
  8 12  1  0  0  0  0
  9 14  1  1  0  0  0
 10 21  1  1  0  0  0
 11 28  1  6  0  0  0
 11  8  1  0  0  0  0
 12  4  1  6  0  0  0
 12 27  1  0  0  0  0
 13  2  2  0  0  0  0
 13 18  1  0  0  0  0
 14 23  1  0  0  0  0
 15 23  1  0  0  0  0
 16  2  1  0  0  0  0
 17 20  1  0  0  0  0
 17  3  1  0  0  0  0
 18 25  2  0  0  0  0
 19  1  2  0  0  0  0
 19 26  1  0  0  0  0
 22 20  1  6  0  0  0
 22 10  1  0  0  0  0
 22  9  1  0  0  0  0
 25 26  1  0  0  0  0
 26 17  2  0  0  0  0
 27  7  1  0  0  0  0
 27 24  2  0  0  0  0
 29 30  1  0  0  0  0
 30 28  1  0  0  0  0
M  END
>  <MODEL>
9

>  <REMARK>
 VINA RESULT:      -8.0      2.815      5.721
  Name = 
  2 active torsions:
  status: ('A' for Active; 'I' for Inactive)
    1  A    between atoms: C_11  and  C_28
    2  A    between atoms: C_28  and  N_30
                            x       y       z     vdW  Elec       q    Type
                         _______ _______ _______ _____ _____    ______ ____

>  <TORSDO>
F 2

$$$$
