=
 OpenBabel11122411193D

 31 35  0  0  1  0  0  0  0  0999 V2000
  191.3940  176.5820  144.9910 C   0  0  0  0  0  0  0  0  0  0  0  0
  187.7450  176.9810  143.9860 C   0  0  2  0  0  3  0  0  0  0  0  0
  187.0410  177.7820  145.0660 C   0  0  0  0  0  0  0  0  0  0  0  0
  186.9080  178.6460  147.3340 C   0  0  0  0  0  0  0  0  0  0  0  0
  189.2450  177.1470  144.0150 C   0  0  0  0  0  0  0  0  0  0  0  0
  192.0300  177.4600  144.1080 C   0  0  0  0  0  3  0  0  0  0  0  0
  187.5880  177.9200  146.3510 C   0  0  0  0  0  3  0  0  0  0  0  0
  187.6800  178.6640  142.0760 C   0  0  2  0  0  3  0  0  0  0  0  0
  192.1240  175.8830  145.8920 F   0  0  0  0  0  0  0  0  0  0  0  0
  185.1980  178.1720  143.5010 N   0  0  0  0  0  2  0  0  0  0  0  0
  187.4500  178.7840  148.5680 F   0  0  0  0  0  0  0  0  0  0  0  0
  189.1390  178.7200  142.1240 N   0  0  0  0  0  2  0  0  0  0  0  0
  187.1810  177.3020  142.5810 C   0  0  2  0  0  3  0  0  0  0  0  0
  190.0060  176.4230  144.9420 C   0  0  0  0  0  3  0  0  0  0  0  0
  185.6730  179.2290  147.0430 C   0  0  0  0  0  3  0  0  0  0  0  0
  189.8900  178.0300  143.1260 C   0  0  0  0  0  0  0  0  0  0  0  0
  191.2790  178.1790  143.1740 C   0  0  0  0  0  3  0  0  0  0  0  0
  185.7150  177.2350  142.5830 N   0  0  0  0  0  2  0  0  0  0  0  0
  185.7790  178.3380  144.7960 C   0  0  0  0  0  0  0  0  0  0  0  0
  185.1070  179.0750  145.7750 C   0  0  0  0  0  3  0  0  0  0  0  0
  188.6670  177.3150  139.7670 O   0  0  0  0  0  0  0  0  0  0  0  0
  187.7580  178.1730  139.5980 C   0  0  0  0  0  0  0  0  0  0  0  0
  187.2260  178.8910  140.7120 N   0  0  0  0  0  2  0  0  0  0  0  0
  187.7850  176.5380  136.0020 C   0  0  1  0  0  3  0  0  0  0  0  0
  186.2550  177.3480  137.7810 C   0  0  0  0  0  2  0  0  0  0  0  0
  189.0130  179.7290  137.2900 O   0  0  0  0  0  0  0  0  0  0  0  0
  188.5880  175.3610  135.4880 C   0  0  0  0  0  1  0  0  0  0  0  0
  187.0020  176.1320  137.2420 C   0  0  0  0  0  2  0  0  0  0  0  0
  188.3360  178.6690  137.2420 C   0  0  0  0  0  0  0  0  0  0  0  0
  187.2210  178.4500  138.2280 C   0  0  2  0  0  3  0  0  0  0  0  0
  188.6810  177.6520  136.2950 N   0  0  0  0  0  2  0  0  0  0  0  0
  1  9  1  0  0  0  0
  2  5  1  6  0  0  0
  2  3  1  0  0  0  0
  3  7  1  0  0  0  0
  4 11  1  0  0  0  0
  5 14  2  0  0  0  0
  6  1  2  0  0  0  0
  7  4  2  0  0  0  0
  8 23  1  6  0  0  0
  8 12  1  0  0  0  0
  8 13  1  0  0  0  0
 10 19  1  0  0  0  0
 12 16  1  0  0  0  0
 13 18  1  1  0  0  0
 13  2  1  0  0  0  0
 14  1  1  0  0  0  0
 15  4  1  0  0  0  0
 16 17  2  0  0  0  0
 16  5  1  0  0  0  0
 17  6  1  0  0  0  0
 18 10  1  0  0  0  0
 19  3  2  0  0  0  0
 19 20  1  0  0  0  0
 20 15  2  0  0  0  0
 22 21  2  0  0  0  0
 22 23  1  0  0  0  0
 24 27  1  1  0  0  0
 24 31  1  0  0  0  0
 24 28  1  0  0  0  0
 25 30  1  0  0  0  0
 28 25  1  0  0  0  0
 29 26  2  0  0  0  0
 29 30  1  0  0  0  0
 30 22  1  1  0  0  0
 31 29  1  0  0  0  0
M  END
>  <MODEL>
1

>  <REMARK>
 VINA RESULT:      -9.0      0.000      0.000
  Name = 
  2 active torsions:
  status: ('A' for Active; 'I' for Inactive)
    1  A    between atoms: C_5  and  C_30
    2  A    between atoms: C_10  and  N_16
                            x       y       z     vdW  Elec       q    Type
                         _______ _______ _______ _____ _____    ______ ____

>  <TORSDO>
F 2

$$$$
=
 OpenBabel11122411193D

 31 35  0  0  1  0  0  0  0  0999 V2000
  192.5920  175.4750  135.9230 C   0  0  0  0  0  0  0  0  0  0  0  0
  189.6470  177.4970  137.2370 C   0  0  2  0  0  3  0  0  0  0  0  0
  188.3700  176.7550  136.8890 C   0  0  0  0  0  0  0  0  0  0  0  0
  187.1490  175.1130  135.5770 C   0  0  0  0  0  0  0  0  0  0  0  0
  190.8700  176.6120  137.2010 C   0  0  0  0  0  0  0  0  0  0  0  0
  193.1230  174.9460  137.1030 C   0  0  0  0  0  3  0  0  0  0  0  0
  188.3440  175.7660  135.8940 C   0  0  0  0  0  3  0  0  0  0  0  0
  189.6350  177.2300  139.7700 C   0  0  2  0  0  3  0  0  0  0  0  0
  193.1660  175.1810  134.7320 F   0  0  0  0  0  0  0  0  0  0  0  0
  187.1810  178.1470  138.5160 N   0  0  0  0  0  2  0  0  0  0  0  0
  187.1360  174.1510  134.6240 F   0  0  0  0  0  0  0  0  0  0  0  0
  190.8550  176.4360  139.6560 N   0  0  0  0  0  2  0  0  0  0  0  0
  189.5310  178.2200  138.6010 C   0  0  2  0  0  3  0  0  0  0  0  0
  191.4710  176.3070  135.9720 C   0  0  0  0  0  3  0  0  0  0  0  0
  185.9700  175.4510  136.2450 C   0  0  0  0  0  3  0  0  0  0  0  0
  191.4090  176.0770  138.3880 C   0  0  0  0  0  0  0  0  0  0  0  0
  192.5350  175.2510  138.3340 C   0  0  0  0  0  3  0  0  0  0  0  0
  188.2910  179.0030  138.6680 N   0  0  0  0  0  2  0  0  0  0  0  0
  187.1710  177.1160  137.5260 C   0  0  0  0  0  0  0  0  0  0  0  0
  185.9800  176.4520  137.2190 C   0  0  0  0  0  3  0  0  0  0  0  0
  189.1750  176.0540  142.3260 O   0  0  0  0  0  0  0  0  0  0  0  0
  189.4040  177.2940  142.2860 C   0  0  0  0  0  0  0  0  0  0  0  0
  189.6330  177.9470  141.0360 N   0  0  0  0  0  2  0  0  0  0  0  0
  191.0420  177.1330  145.8780 C   0  0  1  0  0  3  0  0  0  0  0  0
  190.8640  178.5700  143.8610 C   0  0  0  0  0  2  0  0  0  0  0  0
  187.5740  177.1770  144.7280 O   0  0  0  0  0  0  0  0  0  0  0  0
  191.7990  176.0000  146.5380 C   0  0  0  0  0  1  0  0  0  0  0  0
  191.6810  177.4740  144.5380 C   0  0  0  0  0  2  0  0  0  0  0  0
  188.8210  177.3450  144.6920 C   0  0  0  0  0  0  0  0  0  0  0  0
  189.4400  178.1000  143.5470 C   0  0  2  0  0  3  0  0  0  0  0  0
  189.6430  176.7540  145.7040 N   0  0  0  0  0  2  0  0  0  0  0  0
  1 14  2  0  0  0  0
  1  6  1  0  0  0  0
  2  3  1  1  0  0  0
  2 13  1  0  0  0  0
  3 19  1  0  0  0  0
  4  7  1  0  0  0  0
  4 15  2  0  0  0  0
  5  2  1  0  0  0  0
  5 16  2  0  0  0  0
  6 17  2  0  0  0  0
  7  3  2  0  0  0  0
  8 23  1  1  0  0  0
  9  1  1  0  0  0  0
 10 18  1  0  0  0  0
 11  4  1  0  0  0  0
 12  8  1  0  0  0  0
 13 18  1  6  0  0  0
 13  8  1  0  0  0  0
 14  5  1  0  0  0  0
 15 20  1  0  0  0  0
 16 12  1  0  0  0  0
 17 16  1  0  0  0  0
 19 10  1  0  0  0  0
 20 19  2  0  0  0  0
 22 21  2  0  0  0  0
 23 22  1  0  0  0  0
 24 27  1  6  0  0  0
 25 28  1  0  0  0  0
 28 24  1  0  0  0  0
 29 26  2  0  0  0  0
 29 31  1  0  0  0  0
 30 22  1  6  0  0  0
 30 25  1  0  0  0  0
 30 29  1  0  0  0  0
 31 24  1  0  0  0  0
M  END
>  <MODEL>
2

>  <REMARK>
 VINA RESULT:      -8.5      4.197      8.193
  Name = 
  2 active torsions:
  status: ('A' for Active; 'I' for Inactive)
    1  A    between atoms: C_5  and  C_30
    2  A    between atoms: C_10  and  N_16
                            x       y       z     vdW  Elec       q    Type
                         _______ _______ _______ _____ _____    ______ ____

>  <TORSDO>
F 2

$$$$
=
 OpenBabel11122411193D

 31 35  0  0  1  0  0  0  0  0999 V2000
  190.0270  176.0040  142.7610 C   0  0  0  0  0  0  0  0  0  0  0  0
  186.4480  177.1270  143.4040 C   0  0  2  0  0  3  0  0  0  0  0  0
  186.4120  177.8590  144.7320 C   0  0  0  0  0  0  0  0  0  0  0  0
  187.3710  178.3830  146.9030 C   0  0  0  0  0  0  0  0  0  0  0  0
  187.8350  177.0450  142.8140 C   0  0  0  0  0  0  0  0  0  0  0  0
  190.4280  176.8910  141.7580 C   0  0  0  0  0  3  0  0  0  0  0  0
  187.4390  177.7140  145.6770 C   0  0  0  0  0  3  0  0  0  0  0  0
  185.9820  179.0660  141.8190 C   0  0  2  0  0  3  0  0  0  0  0  0
  190.8920  175.0700  143.2230 F   0  0  0  0  0  0  0  0  0  0  0  0
  184.2240  178.7680  144.1120 N   0  0  0  0  0  2  0  0  0  0  0  0
  188.3730  178.2470  147.8040 F   0  0  0  0  0  0  0  0  0  0  0  0
  187.3170  178.8800  141.2570 N   0  0  0  0  0  2  0  0  0  0  0  0
  185.4530  177.7410  142.3890 C   0  0  2  0  0  3  0  0  0  0  0  0
  188.7340  176.0780  143.2850 C   0  0  0  0  0  3  0  0  0  0  0  0
  186.2720  179.1930  147.1970 C   0  0  0  0  0  3  0  0  0  0  0  0
  188.2430  177.9360  141.8020 C   0  0  0  0  0  0  0  0  0  0  0  0
  189.5350  177.8530  141.2760 C   0  0  0  0  0  3  0  0  0  0  0  0
  184.1290  177.9090  142.9980 N   0  0  0  0  0  2  0  0  0  0  0  0
  185.2910  178.6430  145.0540 C   0  0  0  0  0  0  0  0  0  0  0  0
  185.2320  179.3230  146.2740 C   0  0  0  0  0  3  0  0  0  0  0  0
  185.3160  177.6930  139.4110 O   0  0  0  0  0  0  0  0  0  0  0  0
  184.7840  178.8200  139.6080 C   0  0  0  0  0  0  0  0  0  0  0  0
  185.0820  179.5640  140.7900 N   0  0  0  0  0  2  0  0  0  0  0  0
  180.9260  178.7070  138.7620 C   0  0  1  0  0  3  0  0  0  0  0  0
  182.7780  180.2750  139.2870 C   0  0  0  0  0  2  0  0  0  0  0  0
  183.9080  177.7200  136.8970 O   0  0  0  0  0  0  0  0  0  0  0  0
  179.8420  177.8210  139.3390 C   0  0  0  0  0  1  0  0  0  0  0  0
  181.6490  179.4410  139.8840 C   0  0  0  0  0  2  0  0  0  0  0  0
  183.2120  178.3120  137.7630 C   0  0  0  0  0  0  0  0  0  0  0  0
  183.8300  179.3930  138.6060 C   0  0  2  0  0  3  0  0  0  0  0  0
  181.8590  177.8990  137.9840 N   0  0  0  0  0  2  0  0  0  0  0  0
  1  9  1  0  0  0  0
  1 14  1  0  0  0  0
  2  5  1  6  0  0  0
  2  3  1  0  0  0  0
  3 19  2  0  0  0  0
  3  7  1  0  0  0  0
  4 15  1  0  0  0  0
  4 11  1  0  0  0  0
  5 14  2  0  0  0  0
  6  1  2  0  0  0  0
  7  4  2  0  0  0  0
  8 23  1  6  0  0  0
  8 13  1  0  0  0  0
 10 19  1  0  0  0  0
 12 16  1  0  0  0  0
 12  8  1  0  0  0  0
 13 18  1  1  0  0  0
 13  2  1  0  0  0  0
 16  5  1  0  0  0  0
 17  6  1  0  0  0  0
 17 16  2  0  0  0  0
 18 10  1  0  0  0  0
 19 20  1  0  0  0  0
 20 15  2  0  0  0  0
 21 22  2  0  0  0  0
 22 23  1  0  0  0  0
 24 27  1  1  0  0  0
 24 28  1  0  0  0  0
 25 28  1  0  0  0  0
 26 29  2  0  0  0  0
 29 31  1  0  0  0  0
 29 30  1  0  0  0  0
 30 25  1  0  0  0  0
 30 22  1  1  0  0  0
 31 24  1  0  0  0  0
M  END
>  <MODEL>
3

>  <REMARK>
 VINA RESULT:      -8.5      2.997      3.753
  Name = 
  2 active torsions:
  status: ('A' for Active; 'I' for Inactive)
    1  A    between atoms: C_5  and  C_30
    2  A    between atoms: C_10  and  N_16
                            x       y       z     vdW  Elec       q    Type
                         _______ _______ _______ _____ _____    ______ ____

>  <TORSDO>
F 2

$$$$
=
 OpenBabel11122411193D

 31 35  0  0  1  0  0  0  0  0999 V2000
  191.2770  176.0970  143.8870 C   0  0  0  0  0  0  0  0  0  0  0  0
  187.5550  176.8770  143.7260 C   0  0  2  0  0  3  0  0  0  0  0  0
  187.1780  177.6500  144.9760 C   0  0  0  0  0  0  0  0  0  0  0  0
  187.6140  178.3480  147.2640 C   0  0  0  0  0  0  0  0  0  0  0  0
  189.0360  176.9130  143.4360 C   0  0  0  0  0  0  0  0  0  0  0  0
  191.7940  176.9830  142.9380 C   0  0  0  0  0  3  0  0  0  0  0  0
  187.9950  177.6450  146.1170 C   0  0  0  0  0  3  0  0  0  0  0  0
  187.2540  178.7000  141.9730 C   0  0  2  0  0  3  0  0  0  0  0  0
  192.1090  175.2740  144.5680 F   0  0  0  0  0  0  0  0  0  0  0  0
  185.0930  178.3110  143.8740 N   0  0  0  0  0  2  0  0  0  0  0  0
  188.4160  178.3470  148.3550 F   0  0  0  0  0  0  0  0  0  0  0  0
  188.6870  178.6290  141.7050 N   0  0  0  0  0  2  0  0  0  0  0  0
  186.7410  177.3500  142.4970 C   0  0  2  0  0  3  0  0  0  0  0  0
  189.9020  176.0610  144.1340 C   0  0  0  0  0  3  0  0  0  0  0  0
  186.4090  179.0540  147.2820 C   0  0  0  0  0  3  0  0  0  0  0  0
  189.5620  177.8040  142.4790 C   0  0  0  0  0  0  0  0  0  0  0  0
  190.9380  177.8320  142.2310 C   0  0  0  0  0  3  0  0  0  0  0  0
  185.3090  177.4060  142.8150 N   0  0  0  0  0  2  0  0  0  0  0  0
  185.9480  178.3290  145.0190 C   0  0  0  0  0  0  0  0  0  0  0  0
  185.5750  179.0440  146.1610 C   0  0  0  0  0  3  0  0  0  0  0  0
  187.6000  177.4580  139.4300 O   0  0  0  0  0  0  0  0  0  0  0  0
  186.7600  178.3970  139.5130 C   0  0  0  0  0  0  0  0  0  0  0  0
  186.5450  179.0670  140.7560 N   0  0  0  0  0  2  0  0  0  0  0  0
  185.1610  176.7840  136.2800 C   0  0  1  0  0  3  0  0  0  0  0  0
  184.6010  178.1430  138.2810 C   0  0  0  0  0  2  0  0  0  0  0  0
  187.7390  179.3260  136.7740 O   0  0  0  0  0  0  0  0  0  0  0  0
  185.3170  175.3830  135.7280 C   0  0  0  0  0  1  0  0  0  0  0  0
  184.6870  176.7250  137.7250 C   0  0  0  0  0  2  0  0  0  0  0  0
  186.7540  178.5900  137.0440 C   0  0  0  0  0  0  0  0  0  0  0  0
  185.9750  178.8200  138.3100 C   0  0  2  0  0  3  0  0  0  0  0  0
  186.4310  177.4960  136.1790 N   0  0  0  0  0  2  0  0  0  0  0  0
  1 14  1  0  0  0  0
  1  9  1  0  0  0  0
  2  5  1  6  0  0  0
  2  3  1  0  0  0  0
  3 19  2  0  0  0  0
  3  7  1  0  0  0  0
  4 15  1  0  0  0  0
  4 11  1  0  0  0  0
  5 14  2  0  0  0  0
  6  1  2  0  0  0  0
  7  4  2  0  0  0  0
  8 23  1  6  0  0  0
  8 13  1  0  0  0  0
 10 19  1  0  0  0  0
 12  8  1  0  0  0  0
 12 16  1  0  0  0  0
 13 18  1  1  0  0  0
 13  2  1  0  0  0  0
 16  5  1  0  0  0  0
 17 16  2  0  0  0  0
 17  6  1  0  0  0  0
 18 10  1  0  0  0  0
 19 20  1  0  0  0  0
 20 15  2  0  0  0  0
 21 22  2  0  0  0  0
 22 23  1  0  0  0  0
 24 27  1  1  0  0  0
 24 28  1  0  0  0  0
 25 30  1  0  0  0  0
 26 29  2  0  0  0  0
 28 25  1  0  0  0  0
 29 30  1  0  0  0  0
 30 22  1  1  0  0  0
 31 24  1  0  0  0  0
 31 29  1  0  0  0  0
M  END
>  <MODEL>
4

>  <REMARK>
 VINA RESULT:      -8.5      1.281      1.323
  Name = 
  2 active torsions:
  status: ('A' for Active; 'I' for Inactive)
    1  A    between atoms: C_5  and  C_30
    2  A    between atoms: C_10  and  N_16
                            x       y       z     vdW  Elec       q    Type
                         _______ _______ _______ _____ _____    ______ ____

>  <TORSDO>
F 2

$$$$
=
 OpenBabel11122411193D

 31 35  0  0  1  0  0  0  0  0999 V2000
  189.3720  178.0130  143.9330 C   0  0  0  0  0  0  0  0  0  0  0  0
  187.0650  179.0020  141.0720 C   0  0  2  0  0  3  0  0  0  0  0  0
  187.4450  178.1840  139.8520 C   0  0  0  0  0  0  0  0  0  0  0  0
  189.0260  176.8160  138.6110 C   0  0  0  0  0  0  0  0  0  0  0  0
  187.5610  178.3980  142.3640 C   0  0  0  0  0  0  0  0  0  0  0  0
  188.5160  177.2610  144.7420 C   0  0  0  0  0  3  0  0  0  0  0  0
  188.6910  177.5460  139.7560 C   0  0  0  0  0  3  0  0  0  0  0  0
  184.7800  177.9990  141.5800 C   0  0  2  0  0  3  0  0  0  0  0  0
  190.6640  178.1920  144.2980 F   0  0  0  0  0  0  0  0  0  0  0  0
  185.3030  178.7990  138.8380 N   0  0  0  0  0  2  0  0  0  0  0  0
  190.2260  176.1940  138.5330 F   0  0  0  0  0  0  0  0  0  0  0  0
  185.3190  177.5030  142.8440 N   0  0  0  0  0  2  0  0  0  0  0  0
  185.5390  179.2570  141.1330 C   0  0  2  0  0  3  0  0  0  0  0  0
  188.8960  178.5830  142.7490 C   0  0  0  0  0  3  0  0  0  0  0  0
  188.1220  176.7270  137.5500 C   0  0  0  0  0  3  0  0  0  0  0  0
  186.7010  177.6400  143.1820 C   0  0  0  0  0  0  0  0  0  0  0  0
  187.1810  177.0790  144.3700 C   0  0  0  0  0  3  0  0  0  0  0  0
  185.0450  179.7530  139.8430 N   0  0  0  0  0  2  0  0  0  0  0  0
  186.5600  178.1230  138.7630 C   0  0  0  0  0  0  0  0  0  0  0  0
  186.8890  177.3810  137.6250 C   0  0  0  0  0  3  0  0  0  0  0  0
  182.6810  176.8750  140.0110 O   0  0  0  0  0  0  0  0  0  0  0  0
  182.3600  177.6900  140.9200 C   0  0  0  0  0  0  0  0  0  0  0  0
  183.3640  178.2960  141.7350 N   0  0  0  0  0  2  0  0  0  0  0  0
  179.7390  180.4450  139.8460 C   0  0  1  0  0  3  0  0  0  0  0  0
  180.1230  177.9920  139.8500 C   0  0  0  0  0  2  0  0  0  0  0  0
  181.1030  179.4410  143.0840 O   0  0  0  0  0  0  0  0  0  0  0  0
  179.9610  181.7400  139.0940 C   0  0  0  0  0  1  0  0  0  0  0  0
  180.2970  179.2760  139.0450 C   0  0  0  0  0  2  0  0  0  0  0  0
  180.7870  179.3520  141.8680 C   0  0  0  0  0  0  0  0  0  0  0  0
  180.9220  178.0330  141.1560 C   0  0  2  0  0  3  0  0  0  0  0  0
  180.3730  180.5240  141.1580 N   0  0  0  0  0  2  0  0  0  0  0  0
  1  9  1  0  0  0  0
  1  6  1  0  0  0  0
  2  3  1  6  0  0  0
  2 13  1  0  0  0  0
  2  5  1  0  0  0  0
  4  7  2  0  0  0  0
  5 14  1  0  0  0  0
  5 16  2  0  0  0  0
  7  3  1  0  0  0  0
  8 23  1  1  0  0  0
  8 12  1  0  0  0  0
 10 18  1  0  0  0  0
 11  4  1  0  0  0  0
 12 16  1  0  0  0  0
 13 18  1  6  0  0  0
 13  8  1  0  0  0  0
 14  1  2  0  0  0  0
 15 20  2  0  0  0  0
 15  4  1  0  0  0  0
 16 17  1  0  0  0  0
 17  6  2  0  0  0  0
 19 10  1  0  0  0  0
 19  3  2  0  0  0  0
 20 19  1  0  0  0  0
 21 22  2  0  0  0  0
 22 23  1  0  0  0  0
 24 27  1  6  0  0  0
 24 31  1  0  0  0  0
 25 30  1  0  0  0  0
 28 24  1  0  0  0  0
 28 25  1  0  0  0  0
 29 26  2  0  0  0  0
 30 22  1  6  0  0  0
 30 29  1  0  0  0  0
 31 29  1  0  0  0  0
M  END
>  <MODEL>
5

>  <REMARK>
 VINA RESULT:      -8.0      4.233      6.662
  Name = 
  2 active torsions:
  status: ('A' for Active; 'I' for Inactive)
    1  A    between atoms: C_5  and  C_30
    2  A    between atoms: C_10  and  N_16
                            x       y       z     vdW  Elec       q    Type
                         _______ _______ _______ _____ _____    ______ ____

>  <TORSDO>
F 2

$$$$
=
 OpenBabel11122411193D

 31 35  0  0  1  0  0  0  0  0999 V2000
  186.6550  178.3770  146.9650 C   0  0  0  0  0  0  0  0  0  0  0  0
  189.7830  178.2350  144.8020 C   0  0  2  0  0  3  0  0  0  0  0  0
  190.6130  177.0450  145.2450 C   0  0  0  0  0  0  0  0  0  0  0  0
  191.2110  175.3580  146.8900 C   0  0  0  0  0  0  0  0  0  0  0  0
  188.3400  178.1410  145.2340 C   0  0  0  0  0  0  0  0  0  0  0  0
  185.6710  177.9440  146.0710 C   0  0  0  0  0  3  0  0  0  0  0  0
  190.4180  176.4400  146.4960 C   0  0  0  0  0  3  0  0  0  0  0  0
  189.0560  177.4310  142.4970 C   0  0  2  0  0  3  0  0  0  0  0  0
  186.3190  178.7000  148.2360 F   0  0  0  0  0  0  0  0  0  0  0  0
  191.8770  177.2140  143.1540 N   0  0  0  0  0  2  0  0  0  0  0  0
  191.0080  174.7740  148.0950 F   0  0  0  0  0  0  0  0  0  0  0  0
  187.6760  177.4280  142.9730 N   0  0  0  0  0  2  0  0  0  0  0  0
  189.8870  178.4630  143.2740 C   0  0  2  0  0  3  0  0  0  0  0  0
  187.9850  178.4780  146.5470 C   0  0  0  0  0  3  0  0  0  0  0  0
  192.2110  174.8790  146.0410 C   0  0  0  0  0  3  0  0  0  0  0  0
  187.3450  177.7050  144.3360 C   0  0  0  0  0  0  0  0  0  0  0  0
  186.0150  177.6130  144.7580 C   0  0  0  0  0  3  0  0  0  0  0  0
  191.2900  178.4580  142.8430 N   0  0  0  0  0  2  0  0  0  0  0  0
  191.6480  176.5820  144.4150 C   0  0  0  0  0  0  0  0  0  0  0  0
  192.4310  175.4900  144.8030 C   0  0  0  0  0  3  0  0  0  0  0  0
  190.5550  176.0030  140.5370 O   0  0  0  0  0  0  0  0  0  0  0  0
  189.8500  176.9720  140.1420 C   0  0  0  0  0  0  0  0  0  0  0  0
  189.0830  177.7350  141.0740 N   0  0  0  0  0  2  0  0  0  0  0  0
  187.1940  177.3320  137.2390 C   0  0  1  0  0  3  0  0  0  0  0  0
  188.9540  178.5870  138.4600 C   0  0  0  0  0  2  0  0  0  0  0  0
  190.1230  175.1910  137.6760 O   0  0  0  0  0  0  0  0  0  0  0  0
  185.7340  176.9330  137.2190 C   0  0  0  0  0  1  0  0  0  0  0  0
  187.4660  178.2530  138.4200 C   0  0  0  0  0  2  0  0  0  0  0  0
  189.3540  176.1720  137.8510 C   0  0  0  0  0  0  0  0  0  0  0  0
  189.8070  177.3350  138.6900 C   0  0  2  0  0  3  0  0  0  0  0  0
  188.0290  176.1360  137.3100 N   0  0  0  0  0  2  0  0  0  0  0  0
  1  9  1  0  0  0  0
  2  5  1  6  0  0  0
  2  3  1  0  0  0  0
  3  7  1  0  0  0  0
  4 11  1  0  0  0  0
  5 14  2  0  0  0  0
  6  1  2  0  0  0  0
  7  4  2  0  0  0  0
  8 23  1  6  0  0  0
  8 12  1  0  0  0  0
  8 13  1  0  0  0  0
 10 19  1  0  0  0  0
 12 16  1  0  0  0  0
 13 18  1  6  0  0  0
 13  2  1  0  0  0  0
 14  1  1  0  0  0  0
 15  4  1  0  0  0  0
 16 17  2  0  0  0  0
 16  5  1  0  0  0  0
 17  6  1  0  0  0  0
 18 10  1  0  0  0  0
 19 20  1  0  0  0  0
 19  3  2  0  0  0  0
 20 15  2  0  0  0  0
 22 21  2  0  0  0  0
 22 23  1  0  0  0  0
 24 27  1  1  0  0  0
 24 31  1  0  0  0  0
 24 28  1  0  0  0  0
 25 30  1  0  0  0  0
 26 29  2  0  0  0  0
 28 25  1  0  0  0  0
 29 30  1  0  0  0  0
 30 22  1  1  0  0  0
 31 29  1  0  0  0  0
M  END
>  <MODEL>
6

>  <REMARK>
 VINA RESULT:      -7.9      1.782      4.457
  Name = 
  2 active torsions:
  status: ('A' for Active; 'I' for Inactive)
    1  A    between atoms: C_5  and  C_30
    2  A    between atoms: C_10  and  N_16
                            x       y       z     vdW  Elec       q    Type
                         _______ _______ _______ _____ _____    ______ ____

>  <TORSDO>
F 2

$$$$
=
 OpenBabel11122411193D

 31 35  0  0  1  0  0  0  0  0999 V2000
  185.7320  178.2680  138.3440 C   0  0  0  0  0  0  0  0  0  0  0  0
  189.2530  178.0790  139.7760 C   0  0  2  0  0  3  0  0  0  0  0  0
  189.1680  177.4740  141.1650 C   0  0  0  0  0  0  0  0  0  0  0  0
  187.9120  176.8940  143.1640 C   0  0  0  0  0  0  0  0  0  0  0  0
  188.0370  177.7860  138.9310 C   0  0  0  0  0  0  0  0  0  0  0  0
  185.7550  177.2410  137.3960 C   0  0  0  0  0  3  0  0  0  0  0  0
  187.9590  177.4380  141.8760 C   0  0  0  0  0  3  0  0  0  0  0  0
  190.4540  176.1980  138.5490 C   0  0  2  0  0  3  0  0  0  0  0  0
  184.6060  178.9990  138.5210 F   0  0  0  0  0  0  0  0  0  0  0  0
  191.5820  177.0700  141.0780 N   0  0  0  0  0  2  0  0  0  0  0  0
  186.7390  176.8520  143.8380 F   0  0  0  0  0  0  0  0  0  0  0  0
  189.2590  176.0200  137.7280 N   0  0  0  0  0  2  0  0  0  0  0  0
  190.5480  177.6480  139.0460 C   0  0  2  0  0  3  0  0  0  0  0  0
  186.8700  178.5410  139.1070 C   0  0  0  0  0  3  0  0  0  0  0  0
  189.0750  176.3920  143.7530 C   0  0  0  0  0  3  0  0  0  0  0  0
  188.0560  176.7520  137.9740 C   0  0  0  0  0  0  0  0  0  0  0  0
  186.9170  176.4870  137.2080 C   0  0  0  0  0  3  0  0  0  0  0  0
  191.7190  177.8450  139.9090 N   0  0  0  0  0  2  0  0  0  0  0  0
  190.3400  177.0050  141.7820 C   0  0  0  0  0  0  0  0  0  0  0  0
  190.2890  176.4480  143.0630 C   0  0  0  0  0  3  0  0  0  0  0  0
  190.9560  173.6620  137.3470 O   0  0  0  0  0  0  0  0  0  0  0  0
  191.8220  174.5660  137.1890 C   0  0  0  0  0  0  0  0  0  0  0  0
  191.6360  175.8560  137.7730 N   0  0  0  0  0  2  0  0  0  0  0  0
  195.7180  174.2090  137.7470 C   0  0  1  0  0  3  0  0  0  0  0  0
  193.7430  173.0060  136.8420 C   0  0  0  0  0  2  0  0  0  0  0  0
  193.6920  176.5250  135.7770 O   0  0  0  0  0  0  0  0  0  0  0  0
  196.5410  174.5000  138.9840 C   0  0  0  0  0  1  0  0  0  0  0  0
  194.5990  173.2330  138.0840 C   0  0  0  0  0  2  0  0  0  0  0  0
  193.9890  175.4800  136.4130 C   0  0  0  0  0  0  0  0  0  0  0  0
  193.0580  174.2990  136.3870 C   0  0  2  0  0  3  0  0  0  0  0  0
  195.1760  175.4550  137.2140 N   0  0  0  0  0  2  0  0  0  0  0  0
  1  9  1  0  0  0  0
  1 14  1  0  0  0  0
  2  5  1  6  0  0  0
  2  3  1  0  0  0  0
  3 19  2  0  0  0  0
  3  7  1  0  0  0  0
  4 15  1  0  0  0  0
  4 11  1  0  0  0  0
  5 14  2  0  0  0  0
  6  1  2  0  0  0  0
  7  4  2  0  0  0  0
  8 23  1  6  0  0  0
  8 13  1  0  0  0  0
 10 19  1  0  0  0  0
 12 16  1  0  0  0  0
 12  8  1  0  0  0  0
 13  2  1  0  0  0  0
 13 18  1  1  0  0  0
 16  5  1  0  0  0  0
 17  6  1  0  0  0  0
 17 16  2  0  0  0  0
 18 10  1  0  0  0  0
 19 20  1  0  0  0  0
 20 15  2  0  0  0  0
 22 21  2  0  0  0  0
 22 23  1  0  0  0  0
 24 28  1  0  0  0  0
 24 27  1  1  0  0  0
 25 28  1  0  0  0  0
 26 29  2  0  0  0  0
 29 31  1  0  0  0  0
 30 29  1  0  0  0  0
 30 25  1  0  0  0  0
 30 22  1  1  0  0  0
 31 24  1  0  0  0  0
M  END
>  <MODEL>
7

>  <REMARK>
 VINA RESULT:      -7.8      4.343      6.714
  Name = 
  2 active torsions:
  status: ('A' for Active; 'I' for Inactive)
    1  A    between atoms: C_5  and  C_30
    2  A    between atoms: C_10  and  N_16
                            x       y       z     vdW  Elec       q    Type
                         _______ _______ _______ _____ _____    ______ ____

>  <TORSDO>
F 2

$$$$
=
 OpenBabel11122411193D

 31 35  0  0  1  0  0  0  0  0999 V2000
  184.1360  178.7590  144.5250 C   0  0  0  0  0  0  0  0  0  0  0  0
  182.7720  177.9550  141.0630 C   0  0  2  0  0  3  0  0  0  0  0  0
  181.5430  178.8120  140.8270 C   0  0  0  0  0  0  0  0  0  0  0  0
  179.7130  180.1870  141.6470 C   0  0  0  0  0  0  0  0  0  0  0  0
  183.6610  178.4900  142.1600 C   0  0  0  0  0  0  0  0  0  0  0  0
  185.2790  179.5000  144.2150 C   0  0  0  0  0  3  0  0  0  0  0  0
  180.8570  179.4190  141.8900 C   0  0  0  0  0  3  0  0  0  0  0  0
  184.3690  178.9990  139.3760 C   0  0  2  0  0  3  0  0  0  0  0  0
  183.8080  178.5290  145.8180 F   0  0  0  0  0  0  0  0  0  0  0  0
  181.7110  178.3000  138.4380 N   0  0  0  0  0  2  0  0  0  0  0  0
  179.0650  180.7790  142.6780 F   0  0  0  0  0  0  0  0  0  0  0  0
  185.2100  179.4260  140.4900 N   0  0  0  0  0  2  0  0  0  0  0  0
  183.5760  177.7400  139.7580 C   0  0  2  0  0  3  0  0  0  0  0  0
  183.3310  178.2530  143.5000 C   0  0  0  0  0  3  0  0  0  0  0  0
  179.2430  180.3450  140.3410 C   0  0  0  0  0  3  0  0  0  0  0  0
  184.8160  179.2370  141.8520 C   0  0  0  0  0  0  0  0  0  0  0  0
  185.6220  179.7340  142.8800 C   0  0  0  0  0  3  0  0  0  0  0  0
  182.6890  177.3130  138.6680 N   0  0  0  0  0  2  0  0  0  0  0  0
  181.0380  178.9440  139.5220 C   0  0  0  0  0  0  0  0  0  0  0  0
  179.9040  179.7240  139.2790 C   0  0  0  0  0  3  0  0  0  0  0  0
  187.1200  178.2530  139.4480 O   0  0  0  0  0  0  0  0  0  0  0  0
  186.5710  178.3550  138.3160 C   0  0  0  0  0  0  0  0  0  0  0  0
  185.1980  178.7340  138.2090 N   0  0  0  0  0  2  0  0  0  0  0  0
  189.6280  176.1450  137.1400 C   0  0  1  0  0  3  0  0  0  0  0  0
  187.2360  176.6070  136.6590 C   0  0  0  0  0  2  0  0  0  0  0  0
  189.0550  179.7530  137.2200 O   0  0  0  0  0  0  0  0  0  0  0  0
  190.5980  175.3290  137.9690 C   0  0  0  0  0  1  0  0  0  0  0  0
  188.1970  175.7280  137.4540 C   0  0  0  0  0  2  0  0  0  0  0  0
  188.7810  178.5240  137.2110 C   0  0  0  0  0  0  0  0  0  0  0  0
  187.3510  178.0800  137.0680 C   0  0  2  0  0  3  0  0  0  0  0  0
  189.8260  177.5650  137.4100 N   0  0  0  0  0  2  0  0  0  0  0  0
  1  9  1  0  0  0  0
  2  3  1  6  0  0  0
  2  5  1  0  0  0  0
  3  7  1  0  0  0  0
  4  7  2  0  0  0  0
  4 11  1  0  0  0  0
  5 14  1  0  0  0  0
  6  1  1  0  0  0  0
  8 23  1  6  0  0  0
  8 13  1  0  0  0  0
  8 12  1  0  0  0  0
 10 18  1  0  0  0  0
 10 19  1  0  0  0  0
 12 16  1  0  0  0  0
 13 18  1  6  0  0  0
 13  2  1  0  0  0  0
 14  1  2  0  0  0  0
 15  4  1  0  0  0  0
 16  5  2  0  0  0  0
 16 17  1  0  0  0  0
 17  6  2  0  0  0  0
 19  3  2  0  0  0  0
 20 19  1  0  0  0  0
 20 15  2  0  0  0  0
 22 21  2  0  0  0  0
 23 22  1  0  0  0  0
 24 31  1  0  0  0  0
 24 28  1  0  0  0  0
 24 27  1  1  0  0  0
 25 30  1  0  0  0  0
 25 28  1  0  0  0  0
 29 26  2  0  0  0  0
 29 31  1  0  0  0  0
 30 29  1  0  0  0  0
 30 22  1  1  0  0  0
M  END
>  <MODEL>
8

>  <REMARK>
 VINA RESULT:      -7.7      4.282      5.816
  Name = 
  2 active torsions:
  status: ('A' for Active; 'I' for Inactive)
    1  A    between atoms: C_5  and  C_30
    2  A    between atoms: C_10  and  N_16
                            x       y       z     vdW  Elec       q    Type
                         _______ _______ _______ _____ _____    ______ ____

>  <TORSDO>
F 2

$$$$
=
 OpenBabel11122411193D

 31 35  0  0  1  0  0  0  0  0999 V2000
  185.2020  178.9510  144.7520 C   0  0  0  0  0  0  0  0  0  0  0  0
  188.9560  178.6280  144.2220 C   0  0  2  0  0  3  0  0  0  0  0  0
  189.5160  177.7420  145.3190 C   0  0  0  0  0  0  0  0  0  0  0  0
  189.3500  176.7010  147.5100 C   0  0  0  0  0  0  0  0  0  0  0  0
  187.4680  178.4620  144.0340 C   0  0  0  0  0  0  0  0  0  0  0  0
  184.6990  178.1470  143.7260 C   0  0  0  0  0  3  0  0  0  0  0  0
  188.8030  177.5030  146.5040 C   0  0  0  0  0  3  0  0  0  0  0  0
  189.2930  177.1010  142.2110 C   0  0  2  0  0  3  0  0  0  0  0  0
  184.3510  179.5770  145.6000 F   0  0  0  0  0  0  0  0  0  0  0  0
  191.5560  177.4760  143.9920 N   0  0  0  0  0  2  0  0  0  0  0  0
  188.6490  176.4650  148.6440 F   0  0  0  0  0  0  0  0  0  0  0  0
  187.8420  177.0440  142.0570 N   0  0  0  0  0  2  0  0  0  0  0  0
  189.7070  178.4180  142.8840 C   0  0  2  0  0  3  0  0  0  0  0  0
  186.5820  179.1100  144.9040 C   0  0  0  0  0  3  0  0  0  0  0  0
  190.6190  176.1410  147.3440 C   0  0  0  0  0  3  0  0  0  0  0  0
  186.9570  177.6530  143.0000 C   0  0  0  0  0  0  0  0  0  0  0  0
  185.5750  177.5030  142.8480 C   0  0  0  0  0  3  0  0  0  0  0  0
  191.1590  178.4830  143.0890 N   0  0  0  0  0  2  0  0  0  0  0  0
  190.8080  177.2080  145.1800 C   0  0  0  0  0  0  0  0  0  0  0  0
  191.3490  176.3940  146.1790 C   0  0  0  0  0  3  0  0  0  0  0  0
  188.5960  178.6130  139.8960 O   0  0  0  0  0  0  0  0  0  0  0  0
  189.5370  177.7780  139.7880 C   0  0  0  0  0  0  0  0  0  0  0  0
  189.9290  176.9830  140.9070 N   0  0  0  0  0  2  0  0  0  0  0  0
  190.0430  175.0280  136.9970 C   0  0  1  0  0  3  0  0  0  0  0  0
  189.2700  177.3630  137.3390 C   0  0  0  0  0  2  0  0  0  0  0  0
  192.3600  176.7520  139.2360 O   0  0  0  0  0  0  0  0  0  0  0  0
  189.6420  173.5690  137.0030 C   0  0  0  0  0  1  0  0  0  0  0  0
  188.8300  175.9030  137.2840 C   0  0  0  0  0  2  0  0  0  0  0  0
  191.3070  176.5390  138.5780 C   0  0  0  0  0  0  0  0  0  0  0  0
  190.2560  177.6110  138.4860 C   0  0  2  0  0  3  0  0  0  0  0  0
  191.0920  175.2540  137.9870 N   0  0  0  0  0  2  0  0  0  0  0  0
  1 14  1  0  0  0  0
  1  9  1  0  0  0  0
  2  5  1  6  0  0  0
  2  3  1  0  0  0  0
  3  7  1  0  0  0  0
  4 11  1  0  0  0  0
  5 14  2  0  0  0  0
  6  1  2  0  0  0  0
  7  4  2  0  0  0  0
  8 23  1  6  0  0  0
  8 13  1  0  0  0  0
 10 19  1  0  0  0  0
 12  8  1  0  0  0  0
 12 16  1  0  0  0  0
 13 18  1  1  0  0  0
 13  2  1  0  0  0  0
 15  4  1  0  0  0  0
 16  5  1  0  0  0  0
 17 16  2  0  0  0  0
 17  6  1  0  0  0  0
 18 10  1  0  0  0  0
 19  3  2  0  0  0  0
 19 20  1  0  0  0  0
 20 15  2  0  0  0  0
 22 21  2  0  0  0  0
 22 23  1  0  0  0  0
 24 27  1  1  0  0  0
 24 28  1  0  0  0  0
 24 31  1  0  0  0  0
 25 30  1  0  0  0  0
 28 25  1  0  0  0  0
 29 26  2  0  0  0  0
 30 29  1  0  0  0  0
 30 22  1  1  0  0  0
 31 29  1  0  0  0  0
M  END
>  <MODEL>
9

>  <REMARK>
 VINA RESULT:      -7.6      2.239      4.292
  Name = 
  2 active torsions:
  status: ('A' for Active; 'I' for Inactive)
    1  A    between atoms: C_5  and  C_30
    2  A    between atoms: C_10  and  N_16
                            x       y       z     vdW  Elec       q    Type
                         _______ _______ _______ _____ _____    ______ ____

>  <TORSDO>
F 2

$$$$
