=
 OpenBabel11122410393D

 32 37  0  0  1  0  0  0  0  0999 V2000
  181.2060  176.2890  137.3550 C   0  0  0  0  0  2  0  0  0  0  0  0
  184.7180  178.8020  141.0660 C   0  0  1  0  0  3  0  0  0  0  0  0
  187.1960  177.9840  137.0240 C   0  0  0  0  0  2  0  0  0  0  0  0
  188.5110  177.7860  137.7720 C   0  0  0  0  0  2  0  0  0  0  0  0
  185.7940  178.4420  143.3410 C   0  0  0  0  0  0  0  0  0  0  0  0
  186.9440  178.1470  144.0670 C   0  0  0  0  0  0  0  0  0  0  0  0
  182.7030  177.7700  140.0140 C   0  0  1  0  0  3  0  0  0  0  0  0
  183.9340  179.6580  138.9600 C   0  0  0  0  0  2  0  0  0  0  0  0
  189.2060  177.6730  144.4370 C   0  0  1  0  0  3  0  0  0  0  0  0
  181.9820  178.6560  137.7550 C   0  0  0  0  0  2  0  0  0  0  0  0
  186.3360  179.0030  137.7690 C   0  0  0  0  0  2  0  0  0  0  0  0
  185.1400  179.4000  139.7770 N   0  0  2  0  0  0  0  0  0  0  0  0
  186.0360  178.5080  139.1210 N   0  0  2  0  0  0  0  0  0  0  0  0
  187.1670  178.3070  141.3260 C   0  0  0  0  0  0  0  0  0  0  0  0
  188.4300  177.7360  145.7740 C   0  0  0  0  0  2  0  0  0  0  0  0
  182.3450  175.4350  138.4950 S   0  0  0  0  0  0  0  0  0  0  0  0
  183.1520  178.3780  138.6830 C   0  0  2  0  0  3  0  0  0  0  0  0
  187.0720  178.0250  145.4330 O   0  0  0  0  0  0  0  0  0  0  0  0
  181.8470  176.5060  139.8830 C   0  0  0  0  0  2  0  0  0  0  0  0
  181.8530  177.5270  136.7380 C   0  0  2  0  0  3  0  0  0  0  0  0
  188.2500  177.4510  139.2380 C   0  0  0  0  0  2  0  0  0  0  0  0
  187.3270  178.5110  139.8420 C   0  0  1  0  0  3  0  0  0  0  0  0
  188.2640  178.0430  142.0990 N   0  0  0  0  0  0  0  0  0  0  0  0
  183.9260  177.5000  140.8730 C   0  0  0  0  0  2  0  0  0  0  0  0
  184.4950  178.6610  144.0440 C   0  0  0  0  0  1  0  0  0  0  0  0
  189.7500  176.2720  144.2360 C   0  0  0  0  0  1  0  0  0  0  0  0
  185.9100  178.5330  141.9350 C   0  0  0  0  0  0  0  0  0  0  0  0
  188.1360  177.9480  143.4460 C   0  0  0  0  0  0  0  0  0  0  0  0
  181.0480  177.9900  135.6180 N   0  0  0  0  0  2  0  0  0  0  0  0
  179.7370  178.5340  135.7840 C   0  0  0  0  0  0  0  0  0  0  0  0
  179.2140  178.6120  136.9270 O   0  0  0  0  0  0  0  0  0  0  0  0
  178.9830  179.0070  134.5950 C   0  0  0  0  0  1  0  0  0  0  0  0
  1 16  1  0  0  0  0
  2 24  1  6  0  0  0
  2 27  1  0  0  0  0
  3 11  1  0  0  0  0
  3  4  1  0  0  0  0
  4 21  1  0  0  0  0
  5 25  1  0  0  0  0
  5  6  1  0  0  0  0
  6 18  1  0  0  0  0
  7 19  1  6  0  0  0
  7 24  1  0  0  0  0
  9 26  1  6  0  0  0
  9 15  1  0  0  0  0
 12  8  1  6  0  0  0
 12  2  1  0  0  0  0
 13 11  1  6  0  0  0
 13 12  1  0  0  0  0
 13 22  1  0  0  0  0
 14 27  1  0  0  0  0
 14 23  2  0  0  0  0
 16 19  1  0  0  0  0
 17 10  1  6  0  0  0
 17  8  1  0  0  0  0
 17  7  1  0  0  0  0
 18 15  1  0  0  0  0
 20 29  1  6  0  0  0
 20  1  1  0  0  0  0
 20 10  1  0  0  0  0
 22 21  1  6  0  0  0
 22 14  1  0  0  0  0
 23 28  1  0  0  0  0
 27  5  2  0  0  0  0
 28  6  2  0  0  0  0
 28  9  1  0  0  0  0
 29 30  1  0  0  0  0
 30 31  2  0  0  0  0
 32 30  1  0  0  0  0
M  END
>  <MODEL>
1

>  <REMARK>
 VINA RESULT:      -7.6      0.000      0.000
  Name = 
  1 active torsions:
  status: ('A' for Active; 'I' for Inactive)
    1  A    between atoms: C_20  and  N_29
                            x       y       z     vdW  Elec       q    Type
                         _______ _______ _______ _____ _____    ______ ____

>  <TORSDO>
F 1

$$$$
=
 OpenBabel11122410393D

 32 37  0  0  1  0  0  0  0  0999 V2000
  187.1550  177.2940  143.5270 C   0  0  0  0  0  2  0  0  0  0  0  0
  190.8660  177.3700  139.2090 C   0  0  1  0  0  3  0  0  0  0  0  0
  186.7780  175.4110  137.5960 C   0  0  0  0  0  2  0  0  0  0  0  0
  187.5060  174.5040  136.6080 C   0  0  0  0  0  2  0  0  0  0  0  0
  193.1200  176.4260  138.5090 C   0  0  0  0  0  0  0  0  0  0  0  0
  193.8250  175.5300  137.7110 C   0  0  0  0  0  0  0  0  0  0  0  0
  189.8210  177.6450  141.4590 C   0  0  1  0  0  3  0  0  0  0  0  0
  188.7860  178.5630  139.3910 C   0  0  0  0  0  2  0  0  0  0  0  0
  194.1580  173.8790  136.0870 C   0  0  1  0  0  3  0  0  0  0  0  0
  187.5880  178.8310  141.5730 C   0  0  0  0  0  2  0  0  0  0  0  0
  187.5520  176.7180  137.7500 C   0  0  0  0  0  2  0  0  0  0  0  0
  189.5830  177.6640  138.5270 N   0  0  2  0  0  0  0  0  0  0  0  0
  188.8990  176.4410  138.2730 N   0  0  2  0  0  0  0  0  0  0  0  0
  191.0850  175.6010  137.4390 C   0  0  0  0  0  0  0  0  0  0  0  0
  195.5050  174.3300  136.6980 C   0  0  0  0  0  2  0  0  0  0  0  0
  188.2640  175.9290  143.0470 S   0  0  0  0  0  0  0  0  0  0  0  0
  188.4950  177.9330  140.7510 C   0  0  2  0  0  3  0  0  0  0  0  0
  195.1880  175.3270  137.6710 O   0  0  0  0  0  0  0  0  0  0  0  0
  189.6780  177.0660  142.8710 C   0  0  0  0  0  2  0  0  0  0  0  0
  186.5520  177.9840  142.3040 C   0  0  2  0  0  3  0  0  0  0  0  0
  188.9680  174.3360  137.0100 C   0  0  0  0  0  2  0  0  0  0  0  0
  189.6030  175.7150  137.1950 C   0  0  1  0  0  3  0  0  0  0  0  0
  191.8390  174.7590  136.6690 N   0  0  0  0  0  0  0  0  0  0  0  0
  190.6590  176.7260  140.5880 C   0  0  0  0  0  2  0  0  0  0  0  0
  193.8430  177.3100  139.4700 C   0  0  0  0  0  1  0  0  0  0  0  0
  193.9250  172.4150  136.4060 C   0  0  0  0  0  1  0  0  0  0  0  0
  191.7140  176.4690  138.3630 C   0  0  0  0  0  0  0  0  0  0  0  0
  193.1850  174.7200  136.8280 C   0  0  0  0  0  0  0  0  0  0  0  0
  185.4510  178.8380  142.7210 N   0  0  0  0  0  2  0  0  0  0  0  0
  184.0970  178.5940  142.3320 C   0  0  0  0  0  0  0  0  0  0  0  0
  183.8080  177.6250  141.5810 O   0  0  0  0  0  0  0  0  0  0  0  0
  183.0210  179.4960  142.8150 C   0  0  0  0  0  1  0  0  0  0  0  0
  2 24  1  1  0  0  0
  3 11  1  0  0  0  0
  4 21  1  0  0  0  0
  4  3  1  0  0  0  0
  5 25  1  0  0  0  0
  6  5  2  0  0  0  0
  7 24  1  6  0  0  0
  7 19  1  0  0  0  0
  9 26  1  1  0  0  0
  9 15  1  0  0  0  0
  9 28  1  0  0  0  0
 10 20  1  0  0  0  0
 12  2  1  0  0  0  0
 12  8  1  1  0  0  0
 13 11  1  6  0  0  0
 13 12  1  0  0  0  0
 14 27  2  0  0  0  0
 15 18  1  0  0  0  0
 16  1  1  0  0  0  0
 17  8  1  6  0  0  0
 17  7  1  0  0  0  0
 17 10  1  0  0  0  0
 18  6  1  0  0  0  0
 19 16  1  0  0  0  0
 20 29  1  1  0  0  0
 20  1  1  0  0  0  0
 22 21  1  1  0  0  0
 22 14  1  0  0  0  0
 22 13  1  0  0  0  0
 23 28  2  0  0  0  0
 23 14  1  0  0  0  0
 27  5  1  0  0  0  0
 27  2  1  0  0  0  0
 28  6  1  0  0  0  0
 30 29  1  0  0  0  0
 30 32  1  0  0  0  0
 31 30  2  0  0  0  0
M  END
>  <MODEL>
2

>  <REMARK>
 VINA RESULT:      -7.3      4.668      7.598
  Name = 
  1 active torsions:
  status: ('A' for Active; 'I' for Inactive)
    1  A    between atoms: C_20  and  N_29
                            x       y       z     vdW  Elec       q    Type
                         _______ _______ _______ _____ _____    ______ ____

>  <TORSDO>
F 1

$$$$
=
 OpenBabel11122410393D

 32 37  0  0  1  0  0  0  0  0999 V2000
  187.1860  174.7940  136.4060 C   0  0  0  0  0  2  0  0  0  0  0  0
  183.9720  178.7530  138.9390 C   0  0  1  0  0  3  0  0  0  0  0  0
  187.5500  177.6220  141.9500 C   0  0  0  0  0  2  0  0  0  0  0  0
  186.6990  177.8800  143.1900 C   0  0  0  0  0  2  0  0  0  0  0  0
  181.6170  179.1410  139.8120 C   0  0  0  0  0  0  0  0  0  0  0  0
  180.7750  179.2670  140.9130 C   0  0  0  0  0  0  0  0  0  0  0  0
  184.8690  177.1080  137.2890 C   0  0  1  0  0  3  0  0  0  0  0  0
  186.2640  178.9390  138.2340 C   0  0  0  0  0  2  0  0  0  0  0  0
  180.1670  179.3820  143.1700 C   0  0  1  0  0  3  0  0  0  0  0  0
  187.3130  177.3010  136.6570 C   0  0  0  0  0  2  0  0  0  0  0  0
  187.1210  178.5700  140.8320 C   0  0  0  0  0  2  0  0  0  0  0  0
  185.3390  179.1310  139.3720 N   0  0  2  0  0  0  0  0  0  0  0  0
  185.7100  178.3300  140.4910 N   0  0  2  0  0  0  0  0  0  0  0  0
  183.4570  178.8660  141.3940 C   0  0  0  0  0  0  0  0  0  0  0  0
  178.9330  179.5690  142.2570 C   0  0  0  0  0  2  0  0  0  0  0  0
  185.8110  174.4760  137.5600 S   0  0  0  0  0  0  0  0  0  0  0  0
  186.2770  177.4910  137.7520 C   0  0  2  0  0  3  0  0  0  0  0  0
  179.4130  179.4770  140.9140 O   0  0  0  0  0  0  0  0  0  0  0  0
  184.7480  175.6930  136.7160 C   0  0  0  0  0  2  0  0  0  0  0  0
  188.0390  175.9760  136.8620 C   0  0  2  0  0  3  0  0  0  0  0  0
  185.2140  177.8260  142.8420 C   0  0  0  0  0  2  0  0  0  0  0  0
  184.9340  178.7680  141.6710 C   0  0  1  0  0  3  0  0  0  0  0  0
  182.5790  179.0200  142.4320 N   0  0  0  0  0  0  0  0  0  0  0  0
  183.8990  177.3010  138.4410 C   0  0  0  0  0  2  0  0  0  0  0  0
  181.0650  179.2250  138.4270 C   0  0  0  0  0  1  0  0  0  0  0  0
  179.9980  178.1220  143.9960 C   0  0  0  0  0  1  0  0  0  0  0  0
  182.9950  178.9440  140.0590 C   0  0  0  0  0  0  0  0  0  0  0  0
  181.2580  179.1960  142.1810 C   0  0  0  0  0  0  0  0  0  0  0  0
  189.2830  175.9980  136.1080 N   0  0  0  0  0  2  0  0  0  0  0  0
  190.5110  175.4920  136.6350 C   0  0  0  0  0  0  0  0  0  0  0  0
  190.5660  175.0210  137.8020 O   0  0  0  0  0  0  0  0  0  0  0  0
  191.7380  175.5260  135.7980 C   0  0  0  0  0  1  0  0  0  0  0  0
  1 20  1  0  0  0  0
  1 16  1  0  0  0  0
  2 24  1  1  0  0  0
  2 12  1  0  0  0  0
  2 27  1  0  0  0  0
  3  4  1  0  0  0  0
  5 27  2  0  0  0  0
  5  6  1  0  0  0  0
  6 18  1  0  0  0  0
  6 28  2  0  0  0  0
  7 19  1  1  0  0  0
  7 17  1  0  0  0  0
  7 24  1  0  0  0  0
  9 26  1  1  0  0  0
 10 20  1  0  0  0  0
 11  3  1  0  0  0  0
 12  8  1  6  0  0  0
 12 13  1  0  0  0  0
 13 11  1  1  0  0  0
 13 22  1  0  0  0  0
 14 22  1  0  0  0  0
 14 23  2  0  0  0  0
 15  9  1  0  0  0  0
 17 10  1  6  0  0  0
 17  8  1  0  0  0  0
 18 15  1  0  0  0  0
 19 16  1  0  0  0  0
 20 29  1  6  0  0  0
 21  4  1  0  0  0  0
 22 21  1  1  0  0  0
 25  5  1  0  0  0  0
 27 14  1  0  0  0  0
 28 23  1  0  0  0  0
 28  9  1  0  0  0  0
 29 30  1  0  0  0  0
 30 31  2  0  0  0  0
 32 30  1  0  0  0  0
M  END
>  <MODEL>
3

>  <REMARK>
 VINA RESULT:      -7.1      3.103      6.635
  Name = 
  1 active torsions:
  status: ('A' for Active; 'I' for Inactive)
    1  A    between atoms: C_20  and  N_29
                            x       y       z     vdW  Elec       q    Type
                         _______ _______ _______ _____ _____    ______ ____

>  <TORSDO>
F 1

$$$$
=
 OpenBabel11122410393D

 32 37  0  0  1  0  0  0  0  0999 V2000
  188.4900  174.1080  135.8610 C   0  0  0  0  0  2  0  0  0  0  0  0
  185.3130  178.2520  138.1300 C   0  0  1  0  0  3  0  0  0  0  0  0
  189.2300  177.7370  140.8760 C   0  0  0  0  0  2  0  0  0  0  0  0
  188.4910  178.1380  142.1490 C   0  0  0  0  0  2  0  0  0  0  0  0
  183.0360  178.6590  139.1850 C   0  0  0  0  0  0  0  0  0  0  0  0
  182.3000  178.9090  140.3390 C   0  0  0  0  0  0  0  0  0  0  0  0
  186.1390  176.4220  136.6460 C   0  0  1  0  0  3  0  0  0  0  0  0
  187.5090  178.4330  137.1670 C   0  0  0  0  0  2  0  0  0  0  0  0
  181.9120  179.3290  142.6080 C   0  0  1  0  0  3  0  0  0  0  0  0
  188.4920  176.6280  135.7370 C   0  0  0  0  0  2  0  0  0  0  0  0
  188.6370  178.4900  139.6860 C   0  0  0  0  0  2  0  0  0  0  0  0
  186.6900  178.7500  138.3590 N   0  0  2  0  0  0  0  0  0  0  0  0
  187.2170  178.1400  139.5340 N   0  0  2  0  0  0  0  0  0  0  0  0
  185.0350  178.7030  140.5850 C   0  0  0  0  0  0  0  0  0  0  0  0
  180.5850  179.3240  141.8140 C   0  0  0  0  0  2  0  0  0  0  0  0
  187.2570  173.9030  137.1870 S   0  0  0  0  0  0  0  0  0  0  0  0
  187.5600  176.9310  136.8980 C   0  0  2  0  0  3  0  0  0  0  0  0
  180.9350  179.0570  140.4540 O   0  0  0  0  0  0  0  0  0  0  0  0
  186.0450  174.9340  136.2960 C   0  0  0  0  0  2  0  0  0  0  0  0
  189.3130  175.3820  136.0500 C   0  0  2  0  0  3  0  0  0  0  0  0
  186.9850  177.9670  141.9720 C   0  0  0  0  0  2  0  0  0  0  0  0
  186.5360  178.7130  140.7150 C   0  0  1  0  0  3  0  0  0  0  0  0
  184.2570  178.9690  141.6780 N   0  0  0  0  0  0  0  0  0  0  0  0
  185.2760  176.7410  137.8550 C   0  0  0  0  0  2  0  0  0  0  0  0
  182.3460  178.5130  137.8680 C   0  0  0  0  0  1  0  0  0  0  0  0
  181.9000  178.1980  143.6180 C   0  0  0  0  0  1  0  0  0  0  0  0
  184.4400  178.5620  139.3100 C   0  0  0  0  0  0  0  0  0  0  0  0
  182.9090  179.0480  141.5460 C   0  0  0  0  0  0  0  0  0  0  0  0
  190.4730  175.3470  135.1730 N   0  0  0  0  0  2  0  0  0  0  0  0
  191.7630  175.8030  135.5850 C   0  0  0  0  0  0  0  0  0  0  0  0
  191.9390  176.2810  136.7370 O   0  0  0  0  0  0  0  0  0  0  0  0
  192.9080  175.7150  134.6430 C   0  0  0  0  0  1  0  0  0  0  0  0
  1 20  1  0  0  0  0
  1 16  1  0  0  0  0
  2 24  1  1  0  0  0
  2 12  1  0  0  0  0
  2 27  1  0  0  0  0
  3  4  1  0  0  0  0
  5 27  2  0  0  0  0
  5  6  1  0  0  0  0
  6 18  1  0  0  0  0
  6 28  2  0  0  0  0
  7 19  1  1  0  0  0
  7 17  1  0  0  0  0
  7 24  1  0  0  0  0
  9 26  1  1  0  0  0
 10 20  1  0  0  0  0
 11  3  1  0  0  0  0
 12  8  1  6  0  0  0
 12 13  1  0  0  0  0
 13 11  1  1  0  0  0
 13 22  1  0  0  0  0
 14 22  1  0  0  0  0
 14 23  2  0  0  0  0
 15  9  1  0  0  0  0
 17 10  1  6  0  0  0
 17  8  1  0  0  0  0
 18 15  1  0  0  0  0
 19 16  1  0  0  0  0
 20 29  1  6  0  0  0
 21  4  1  0  0  0  0
 22 21  1  1  0  0  0
 25  5  1  0  0  0  0
 27 14  1  0  0  0  0
 28 23  1  0  0  0  0
 28  9  1  0  0  0  0
 29 30  1  0  0  0  0
 30 31  2  0  0  0  0
 32 30  1  0  0  0  0
M  END
>  <MODEL>
4

>  <REMARK>
 VINA RESULT:      -7.1      3.306      6.711
  Name = 
  1 active torsions:
  status: ('A' for Active; 'I' for Inactive)
    1  A    between atoms: C_20  and  N_29
                            x       y       z     vdW  Elec       q    Type
                         _______ _______ _______ _____ _____    ______ ____

>  <TORSDO>
F 1

$$$$
=
 OpenBabel11122410393D

 32 37  0  0  1  0  0  0  0  0999 V2000
  188.5460  177.7190  142.4590 C   0  0  0  0  0  2  0  0  0  0  0  0
  190.9850  176.5980  137.4390 C   0  0  1  0  0  3  0  0  0  0  0  0
  186.7890  174.2490  137.5870 C   0  0  0  0  0  2  0  0  0  0  0  0
  187.3040  173.1050  136.7190 C   0  0  0  0  0  2  0  0  0  0  0  0
  193.0470  175.5040  136.4310 C   0  0  0  0  0  0  0  0  0  0  0  0
  193.5900  174.4240  135.7420 C   0  0  0  0  0  0  0  0  0  0  0  0
  190.5440  177.4880  139.7290 C   0  0  1  0  0  3  0  0  0  0  0  0
  188.9370  177.7870  137.8540 C   0  0  0  0  0  2  0  0  0  0  0  0
  193.6190  172.3850  134.5940 C   0  0  1  0  0  3  0  0  0  0  0  0
  188.3310  178.6500  140.1240 C   0  0  0  0  0  2  0  0  0  0  0  0
  187.4690  175.5510  137.1680 C   0  0  0  0  0  2  0  0  0  0  0  0
  189.5500  176.6850  137.0800 N   0  0  2  0  0  0  0  0  0  0  0  0
  188.9240  175.4360  137.3590 N   0  0  2  0  0  0  0  0  0  0  0  0
  190.8770  174.4050  136.2180 C   0  0  0  0  0  0  0  0  0  0  0  0
  195.0390  172.9950  134.6700 C   0  0  0  0  0  2  0  0  0  0  0  0
  189.5970  176.2790  142.0810 S   0  0  0  0  0  0  0  0  0  0  0  0
  189.0620  177.5610  139.3580 C   0  0  2  0  0  3  0  0  0  0  0  0
  194.9070  174.2230  135.3880 O   0  0  0  0  0  0  0  0  0  0  0  0
  190.8210  177.3260  141.2270 C   0  0  0  0  0  2  0  0  0  0  0  0
  187.5920  178.0360  141.3090 C   0  0  2  0  0  3  0  0  0  0  0  0
  188.8290  173.0620  136.7380 C   0  0  0  0  0  2  0  0  0  0  0  0
  189.3780  174.4410  136.3650 C   0  0  1  0  0  3  0  0  0  0  0  0
  191.4690  173.3840  135.5280 N   0  0  0  0  0  0  0  0  0  0  0  0
  191.1980  176.3650  138.9420 C   0  0  0  0  0  2  0  0  0  0  0  0
  193.9230  176.6250  136.8850 C   0  0  0  0  0  1  0  0  0  0  0  0
  193.5950  171.0680  135.3450 C   0  0  0  0  0  1  0  0  0  0  0  0
  191.6540  175.4990  136.6670 C   0  0  0  0  0  0  0  0  0  0  0  0
  192.8090  173.3960  135.3180 C   0  0  0  0  0  0  0  0  0  0  0  0
  186.5730  178.9690  141.7650 N   0  0  0  0  0  2  0  0  0  0  0  0
  185.6390  178.6440  142.7970 C   0  0  0  0  0  0  0  0  0  0  0  0
  185.6520  177.5090  143.3430 O   0  0  0  0  0  0  0  0  0  0  0  0
  184.6400  179.6560  143.2270 C   0  0  0  0  0  1  0  0  0  0  0  0
  2 24  1  1  0  0  0
  4 21  1  0  0  0  0
  4  3  1  0  0  0  0
  5 27  1  0  0  0  0
  5 25  1  0  0  0  0
  6  5  2  0  0  0  0
  7 24  1  6  0  0  0
  7 19  1  0  0  0  0
  9 15  1  0  0  0  0
  9 28  1  0  0  0  0
  9 26  1  1  0  0  0
 10 20  1  0  0  0  0
 11  3  1  0  0  0  0
 12 13  1  0  0  0  0
 12  2  1  0  0  0  0
 12  8  1  1  0  0  0
 13 11  1  6  0  0  0
 14 22  1  0  0  0  0
 14 27  2  0  0  0  0
 15 18  1  0  0  0  0
 16  1  1  0  0  0  0
 17  8  1  6  0  0  0
 17  7  1  0  0  0  0
 17 10  1  0  0  0  0
 18  6  1  0  0  0  0
 19 16  1  0  0  0  0
 20 29  1  1  0  0  0
 20  1  1  0  0  0  0
 22 21  1  1  0  0  0
 22 13  1  0  0  0  0
 23 14  1  0  0  0  0
 27  2  1  0  0  0  0
 28 23  2  0  0  0  0
 28  6  1  0  0  0  0
 29 30  1  0  0  0  0
 30 32  1  0  0  0  0
 30 31  2  0  0  0  0
M  END
>  <MODEL>
5

>  <REMARK>
 VINA RESULT:      -6.6      5.247      8.669
  Name = 
  1 active torsions:
  status: ('A' for Active; 'I' for Inactive)
    1  A    between atoms: C_20  and  N_29
                            x       y       z     vdW  Elec       q    Type
                         _______ _______ _______ _____ _____    ______ ____

>  <TORSDO>
F 1

$$$$
=
 OpenBabel11122410393D

 32 37  0  0  1  0  0  0  0  0999 V2000
  191.3990  173.5770  135.7690 C   0  0  0  0  0  2  0  0  0  0  0  0
  186.9480  177.1260  135.8990 C   0  0  1  0  0  3  0  0  0  0  0  0
  189.6740  178.0490  139.7550 C   0  0  0  0  0  2  0  0  0  0  0  0
  188.4750  178.4590  140.6070 C   0  0  0  0  0  2  0  0  0  0  0  0
  184.4130  177.1270  136.0740 C   0  0  0  0  0  0  0  0  0  0  0  0
  183.2860  177.3740  136.8530 C   0  0  0  0  0  0  0  0  0  0  0  0
  188.5530  175.3380  135.2200 C   0  0  1  0  0  3  0  0  0  0  0  0
  189.2740  177.6810  135.6440 C   0  0  0  0  0  2  0  0  0  0  0  0
  182.0560  178.0530  138.7250 C   0  0  1  0  0  3  0  0  0  0  0  0
  191.0000  175.9640  135.0570 C   0  0  0  0  0  2  0  0  0  0  0  0
  189.4150  178.4270  138.2980 C   0  0  0  0  0  2  0  0  0  0  0  0
  188.0460  177.9780  136.4150 N   0  0  2  0  0  0  0  0  0  0  0  0
  188.2240  177.7180  137.8040 N   0  0  2  0  0  0  0  0  0  0  0  0
  185.7500  177.8910  137.9690 C   0  0  0  0  0  0  0  0  0  0  0  0
  181.1170  177.5910  137.5860 C   0  0  0  0  0  2  0  0  0  0  0  0
  189.8340  173.2950  136.6610 S   0  0  0  0  0  0  0  0  0  0  0  0
  189.6810  176.2150  135.7670 C   0  0  2  0  0  3  0  0  0  0  0  0
  181.9640  177.1980  136.5040 O   0  0  0  0  0  0  0  0  0  0  0  0
  188.8530  173.8350  135.2220 C   0  0  0  0  0  2  0  0  0  0  0  0
  191.8640  175.0270  135.8940 C   0  0  2  0  0  3  0  0  0  0  0  0
  187.1840  177.8960  140.0220 C   0  0  0  0  0  2  0  0  0  0  0  0
  187.0820  178.2910  138.5470 C   0  0  1  0  0  3  0  0  0  0  0  0
  184.6030  178.1330  138.6740 N   0  0  0  0  0  0  0  0  0  0  0  0
  187.2790  175.6280  135.9940 C   0  0  0  0  0  2  0  0  0  0  0  0
  184.2680  176.6020  134.6840 C   0  0  0  0  0  1  0  0  0  0  0  0
  181.8890  177.1350  139.9200 C   0  0  0  0  0  1  0  0  0  0  0  0
  185.6770  177.4010  136.6440 C   0  0  0  0  0  0  0  0  0  0  0  0
  183.3960  177.8550  138.1190 C   0  0  0  0  0  0  0  0  0  0  0  0
  193.2450  175.1360  135.4500 N   0  0  0  0  0  2  0  0  0  0  0  0
  194.1960  175.9870  136.0940 C   0  0  0  0  0  0  0  0  0  0  0  0
  193.8580  176.7050  137.0730 O   0  0  0  0  0  0  0  0  0  0  0  0
  195.5960  176.0290  135.6000 C   0  0  0  0  0  1  0  0  0  0  0  0
  1 20  1  0  0  0  0
  1 16  1  0  0  0  0
  2 24  1  1  0  0  0
  2 12  1  0  0  0  0
  2 27  1  0  0  0  0
  3  4  1  0  0  0  0
  5 27  2  0  0  0  0
  5  6  1  0  0  0  0
  6 28  2  0  0  0  0
  7 19  1  1  0  0  0
  7 17  1  0  0  0  0
  7 24  1  0  0  0  0
  8 17  1  0  0  0  0
  9 26  1  1  0  0  0
 10 20  1  0  0  0  0
 11  3  1  0  0  0  0
 12  8  1  6  0  0  0
 12 13  1  0  0  0  0
 13 11  1  1  0  0  0
 13 22  1  0  0  0  0
 14 22  1  0  0  0  0
 14 23  2  0  0  0  0
 15  9  1  0  0  0  0
 17 10  1  6  0  0  0
 18  6  1  0  0  0  0
 18 15  1  0  0  0  0
 19 16  1  0  0  0  0
 20 29  1  6  0  0  0
 21  4  1  0  0  0  0
 22 21  1  1  0  0  0
 25  5  1  0  0  0  0
 27 14  1  0  0  0  0
 28 23  1  0  0  0  0
 28  9  1  0  0  0  0
 29 30  1  0  0  0  0
 30 31  2  0  0  0  0
 32 30  1  0  0  0  0
M  END
>  <MODEL>
6

>  <REMARK>
 VINA RESULT:      -6.5      4.136      8.589
  Name = 
  1 active torsions:
  status: ('A' for Active; 'I' for Inactive)
    1  A    between atoms: C_20  and  N_29
                            x       y       z     vdW  Elec       q    Type
                         _______ _______ _______ _____ _____    ______ ____

>  <TORSDO>
F 1

$$$$
=
 OpenBabel11122410393D

 32 37  0  0  1  0  0  0  0  0999 V2000
  190.0870  173.8400  135.8450 C   0  0  0  0  0  2  0  0  0  0  0  0
  187.4290  178.1120  138.5100 C   0  0  1  0  0  3  0  0  0  0  0  0
  191.3570  177.0110  141.0600 C   0  0  0  0  0  2  0  0  0  0  0  0
  190.7040  177.3930  142.3860 C   0  0  0  0  0  2  0  0  0  0  0  0
  185.2410  178.6720  139.6760 C   0  0  0  0  0  0  0  0  0  0  0  0
  184.5720  178.9120  140.8730 C   0  0  0  0  0  0  0  0  0  0  0  0
  188.0140  176.3190  136.8750 C   0  0  1  0  0  3  0  0  0  0  0  0
  189.6010  178.1380  137.4770 C   0  0  0  0  0  2  0  0  0  0  0  0
  184.3010  179.2080  143.1780 C   0  0  1  0  0  3  0  0  0  0  0  0
  190.3460  176.3490  135.8920 C   0  0  0  0  0  2  0  0  0  0  0  0
  190.8080  177.9020  139.9480 C   0  0  0  0  0  2  0  0  0  0  0  0
  188.8570  178.4510  138.7170 N   0  0  2  0  0  0  0  0  0  0  0  0
  189.3550  177.7090  139.8280 N   0  0  2  0  0  0  0  0  0  0  0  0
  187.2780  178.4140  140.9980 C   0  0  0  0  0  0  0  0  0  0  0  0
  182.9560  179.3930  142.4380 C   0  0  0  0  0  2  0  0  0  0  0  0
  188.8810  173.6670  137.2020 S   0  0  0  0  0  0  0  0  0  0  0  0
  189.4870  176.6620  137.1050 C   0  0  2  0  0  3  0  0  0  0  0  0
  183.2340  179.1890  141.0500 O   0  0  0  0  0  0  0  0  0  0  0  0
  187.7560  174.8760  136.4290 C   0  0  0  0  0  2  0  0  0  0  0  0
  191.0420  175.0070  136.0880 C   0  0  2  0  0  3  0  0  0  0  0  0
  189.1840  177.3880  142.2560 C   0  0  0  0  0  2  0  0  0  0  0  0
  188.7750  178.2630  141.0700 C   0  0  1  0  0  3  0  0  0  0  0  0
  186.5660  178.6790  142.1360 N   0  0  0  0  0  0  0  0  0  0  0  0
  187.2280  176.6360  138.1350 C   0  0  0  0  0  2  0  0  0  0  0  0
  184.4990  178.6900  138.3810 C   0  0  0  0  0  1  0  0  0  0  0  0
  184.2040  178.0150  144.1100 C   0  0  0  0  0  1  0  0  0  0  0  0
  186.6310  178.4250  139.7400 C   0  0  0  0  0  0  0  0  0  0  0  0
  185.2300  178.9030  142.0610 C   0  0  0  0  0  0  0  0  0  0  0  0
  192.1650  174.9170  135.1670 N   0  0  0  0  0  2  0  0  0  0  0  0
  193.5210  175.0710  135.5880 C   0  0  0  0  0  0  0  0  0  0  0  0
  193.7970  175.3180  136.7930 O   0  0  0  0  0  0  0  0  0  0  0  0
  194.6180  174.9440  134.5940 C   0  0  0  0  0  1  0  0  0  0  0  0
  1 20  1  0  0  0  0
  1 16  1  0  0  0  0
  2 24  1  1  0  0  0
  2 12  1  0  0  0  0
  2 27  1  0  0  0  0
  3  4  1  0  0  0  0
  5 27  2  0  0  0  0
  5  6  1  0  0  0  0
  6 18  1  0  0  0  0
  6 28  2  0  0  0  0
  7 19  1  1  0  0  0
  7 17  1  0  0  0  0
  7 24  1  0  0  0  0
  9 26  1  1  0  0  0
 10 20  1  0  0  0  0
 11  3  1  0  0  0  0
 12  8  1  6  0  0  0
 12 13  1  0  0  0  0
 13 11  1  1  0  0  0
 13 22  1  0  0  0  0
 14 22  1  0  0  0  0
 14 23  2  0  0  0  0
 15  9  1  0  0  0  0
 17 10  1  6  0  0  0
 17  8  1  0  0  0  0
 18 15  1  0  0  0  0
 19 16  1  0  0  0  0
 20 29  1  6  0  0  0
 21  4  1  0  0  0  0
 22 21  1  1  0  0  0
 25  5  1  0  0  0  0
 27 14  1  0  0  0  0
 28 23  1  0  0  0  0
 28  9  1  0  0  0  0
 29 30  1  0  0  0  0
 30 31  2  0  0  0  0
 32 30  1  0  0  0  0
M  END
>  <MODEL>
7

>  <REMARK>
 VINA RESULT:      -6.5      3.946      7.249
  Name = 
  1 active torsions:
  status: ('A' for Active; 'I' for Inactive)
    1  A    between atoms: C_20  and  N_29
                            x       y       z     vdW  Elec       q    Type
                         _______ _______ _______ _____ _____    ______ ____

>  <TORSDO>
F 1

$$$$
=
 OpenBabel11122410393D

 32 37  0  0  1  0  0  0  0  0999 V2000
  187.6550  178.3580  140.9890 C   0  0  0  0  0  2  0  0  0  0  0  0
  190.7020  176.1730  136.7050 C   0  0  1  0  0  3  0  0  0  0  0  0
  186.7020  173.5370  137.1530 C   0  0  0  0  0  2  0  0  0  0  0  0
  187.3930  172.2590  136.6860 C   0  0  0  0  0  2  0  0  0  0  0  0
  192.9370  175.0630  136.2200 C   0  0  0  0  0  0  0  0  0  0  0  0
  193.6310  173.8980  135.9090 C   0  0  0  0  0  0  0  0  0  0  0  0
  189.9490  177.6000  138.6090 C   0  0  1  0  0  3  0  0  0  0  0  0
  188.5380  177.2140  136.5980 C   0  0  0  0  0  2  0  0  0  0  0  0
  193.9380  171.6380  135.3840 C   0  0  1  0  0  3  0  0  0  0  0  0
  187.6250  178.5940  138.4770 C   0  0  0  0  0  2  0  0  0  0  0  0
  187.3250  174.7390  136.4450 C   0  0  0  0  0  2  0  0  0  0  0  0
  189.3120  176.0120  136.2170 N   0  0  2  0  0  0  0  0  0  0  0  0
  188.7540  174.8290  136.7810 N   0  0  2  0  0  0  0  0  0  0  0  0
  190.8920  173.7320  136.1420 C   0  0  0  0  0  0  0  0  0  0  0  0
  195.2910  172.3870  135.4050 C   0  0  0  0  0  2  0  0  0  0  0  0
  188.8460  176.9840  141.1180 S   0  0  0  0  0  0  0  0  0  0  0  0
  188.5150  177.4180  138.1100 C   0  0  2  0  0  3  0  0  0  0  0  0
  194.9900  173.7440  135.7370 O   0  0  0  0  0  0  0  0  0  0  0  0
  190.0730  177.8810  140.1100 C   0  0  0  0  0  2  0  0  0  0  0  0
  186.8110  178.2530  139.7200 C   0  0  2  0  0  3  0  0  0  0  0  0
  188.9060  172.3790  136.8430 C   0  0  0  0  0  2  0  0  0  0  0  0
  189.3880  173.6530  136.1470 C   0  0  1  0  0  3  0  0  0  0  0  0
  191.6300  172.6280  135.8170 N   0  0  0  0  0  0  0  0  0  0  0  0
  190.7670  176.3790  138.2260 C   0  0  0  0  0  2  0  0  0  0  0  0
  193.6730  176.3490  136.4140 C   0  0  0  0  0  1  0  0  0  0  0  0
  193.9310  170.5790  136.4680 C   0  0  0  0  0  1  0  0  0  0  0  0
  191.5310  174.9800  136.3310 C   0  0  0  0  0  0  0  0  0  0  0  0
  192.9800  172.7190  135.7250 C   0  0  0  0  0  0  0  0  0  0  0  0
  185.6810  179.1650  139.8090 N   0  0  0  0  0  2  0  0  0  0  0  0
  184.4580  178.9480  139.1020 C   0  0  0  0  0  0  0  0  0  0  0  0
  184.3220  177.9520  138.3430 O   0  0  0  0  0  0  0  0  0  0  0  0
  183.3380  179.9110  139.2600 C   0  0  0  0  0  1  0  0  0  0  0  0
  1 16  1  0  0  0  0
  2 24  1  1  0  0  0
  4 21  1  0  0  0  0
  4  3  1  0  0  0  0
  5 27  1  0  0  0  0
  5 25  1  0  0  0  0
  6  5  2  0  0  0  0
  7 24  1  1  0  0  0
  7 19  1  0  0  0  0
  9 15  1  0  0  0  0
  9 28  1  0  0  0  0
  9 26  1  1  0  0  0
 10 20  1  0  0  0  0
 11  3  1  0  0  0  0
 12  8  1  1  0  0  0
 12  2  1  0  0  0  0
 12 13  1  0  0  0  0
 13 11  1  6  0  0  0
 14 22  1  0  0  0  0
 14 27  2  0  0  0  0
 15 18  1  0  0  0  0
 17  8  1  6  0  0  0
 17 10  1  0  0  0  0
 17  7  1  0  0  0  0
 18  6  1  0  0  0  0
 19 16  1  0  0  0  0
 20 29  1  1  0  0  0
 20  1  1  0  0  0  0
 22 13  1  0  0  0  0
 22 21  1  1  0  0  0
 23 14  1  0  0  0  0
 27  2  1  0  0  0  0
 28 23  2  0  0  0  0
 28  6  1  0  0  0  0
 30 32  1  0  0  0  0
 30 29  1  0  0  0  0
 31 30  2  0  0  0  0
M  END
>  <MODEL>
8

>  <REMARK>
 VINA RESULT:      -6.2      5.485      8.230
  Name = 
  1 active torsions:
  status: ('A' for Active; 'I' for Inactive)
    1  A    between atoms: C_20  and  N_29
                            x       y       z     vdW  Elec       q    Type
                         _______ _______ _______ _____ _____    ______ ____

>  <TORSDO>
F 1

$$$$
=
 OpenBabel11122410393D

 32 37  0  0  1  0  0  0  0  0999 V2000
  192.6550  173.7740  136.8790 C   0  0  0  0  0  2  0  0  0  0  0  0
  189.1610  177.9980  138.4170 C   0  0  1  0  0  3  0  0  0  0  0  0
  191.0100  176.0890  142.4280 C   0  0  0  0  0  2  0  0  0  0  0  0
  189.7570  176.3880  143.2470 C   0  0  0  0  0  2  0  0  0  0  0  0
  186.7170  178.6900  138.3190 C   0  0  0  0  0  0  0  0  0  0  0  0
  185.5150  178.8680  138.9970 C   0  0  0  0  0  0  0  0  0  0  0  0
  190.4650  176.3570  137.0610 C   0  0  1  0  0  3  0  0  0  0  0  0
  191.5430  177.8660  138.7190 C   0  0  0  0  0  2  0  0  0  0  0  0
  184.0440  178.9110  140.8160 C   0  0  1  0  0  3  0  0  0  0  0  0
  192.9550  176.2030  137.4900 C   0  0  0  0  0  2  0  0  0  0  0  0
  191.1960  177.1740  141.3690 C   0  0  0  0  0  2  0  0  0  0  0  0
  190.2580  178.1190  139.4070 N   0  0  2  0  0  0  0  0  0  0  0  0
  190.0370  177.1890  140.4630 N   0  0  2  0  0  0  0  0  0  0  0  0
  187.6900  178.0090  140.4530 C   0  0  0  0  0  0  0  0  0  0  0  0
  183.3300  179.3600  139.5200 C   0  0  0  0  0  2  0  0  0  0  0  0
  190.8990  173.5950  137.3330 S   0  0  0  0  0  0  0  0  0  0  0  0
  191.5880  176.4750  138.0940 C   0  0  2  0  0  3  0  0  0  0  0  0
  184.3100  179.2930  138.4810 O   0  0  0  0  0  0  0  0  0  0  0  0
  190.4300  175.0250  136.3040 C   0  0  0  0  0  2  0  0  0  0  0  0
  193.3730  174.7680  137.7900 C   0  0  2  0  0  3  0  0  0  0  0  0
  188.5550  176.5970  142.3300 C   0  0  0  0  0  2  0  0  0  0  0  0
  188.8980  177.6570  141.2810 C   0  0  1  0  0  3  0  0  0  0  0  0
  186.4850  178.2240  141.0630 N   0  0  0  0  0  0  0  0  0  0  0  0
  189.1340  176.6170  137.7430 C   0  0  0  0  0  2  0  0  0  0  0  0
  186.8040  178.9640  136.8530 C   0  0  0  0  0  1  0  0  0  0  0  0
  183.4030  177.6370  141.3300 C   0  0  0  0  0  1  0  0  0  0  0  0
  187.8360  178.2580  139.0680 C   0  0  0  0  0  0  0  0  0  0  0  0
  185.4170  178.6280  140.3310 C   0  0  0  0  0  0  0  0  0  0  0  0
  194.8110  174.6460  137.6070 N   0  0  0  0  0  2  0  0  0  0  0  0
  195.5920  173.6590  138.2830 C   0  0  0  0  0  0  0  0  0  0  0  0
  195.0560  172.8580  139.0940 O   0  0  0  0  0  0  0  0  0  0  0  0
  197.0540  173.5790  138.0280 C   0  0  0  0  0  1  0  0  0  0  0  0
  1 16  1  0  0  0  0
  1 20  1  0  0  0  0
  2 24  1  1  0  0  0
  2 27  1  0  0  0  0
  2 12  1  0  0  0  0
  3  4  1  0  0  0  0
  5  6  2  0  0  0  0
  5 27  1  0  0  0  0
  6 28  1  0  0  0  0
  7 19  1  1  0  0  0
  7 24  1  0  0  0  0
  7 17  1  0  0  0  0
  9 26  1  6  0  0  0
 10 20  1  0  0  0  0
 11  3  1  0  0  0  0
 12  8  1  6  0  0  0
 12 13  1  0  0  0  0
 13 22  1  0  0  0  0
 13 11  1  1  0  0  0
 14 23  1  0  0  0  0
 14 22  1  0  0  0  0
 15  9  1  0  0  0  0
 17 10  1  6  0  0  0
 17  8  1  0  0  0  0
 18  6  1  0  0  0  0
 18 15  1  0  0  0  0
 19 16  1  0  0  0  0
 20 29  1  6  0  0  0
 21  4  1  0  0  0  0
 22 21  1  1  0  0  0
 25  5  1  0  0  0  0
 27 14  2  0  0  0  0
 28  9  1  0  0  0  0
 28 23  2  0  0  0  0
 29 30  1  0  0  0  0
 30 31  2  0  0  0  0
 32 30  1  0  0  0  0
M  END
>  <MODEL>
9

>  <REMARK>
 VINA RESULT:      -5.8      4.531      8.900
  Name = 
  1 active torsions:
  status: ('A' for Active; 'I' for Inactive)
    1  A    between atoms: C_20  and  N_29
                            x       y       z     vdW  Elec       q    Type
                         _______ _______ _______ _____ _____    ______ ____

>  <TORSDO>
F 1

$$$$
