=
 OpenBabel11122411053D

 31 35  0  0  1  0  0  0  0  0999 V2000
  184.4230  178.6790  144.5590 C   0  0  0  0  0  0  0  0  0  0  0  0
  188.0020  177.8680  143.7130 C   0  0  0  0  0  0  0  0  0  0  0  0
  188.6770  177.5960  144.9390 C   0  0  0  0  0  0  0  0  0  0  0  0
  187.2940  178.4650  138.5180 O   0  0  0  0  0  0  0  0  0  0  0  0
  188.4970  178.1700  138.7440 C   0  0  0  0  0  0  0  0  0  0  0  0
  188.7410  177.3690  147.3700 C   0  0  0  0  0  0  0  0  0  0  0  0
  186.6230  178.2190  143.6010 C   0  0  0  0  0  0  0  0  0  0  0  0
  183.9060  178.9170  143.2860 C   0  0  0  0  0  3  0  0  0  0  0  0
  188.0410  177.6430  146.1930 C   0  0  0  0  0  3  0  0  0  0  0  0
  188.1710  178.0360  141.2760 C   0  0  0  0  0  0  0  0  0  0  0  0
  183.6240  178.7830  145.6460 F   0  0  0  0  0  0  0  0  0  0  0  0
  190.7030  177.2000  143.7200 N   0  0  0  0  0  0  0  0  0  0  0  0
  187.9180  177.4400  148.9120 Cl  0  0  0  0  0  0  0  0  0  0  0  0
  186.8570  178.3670  141.2110 N   0  0  0  0  0  0  0  0  0  0  0  0
  188.7650  177.7820  142.5190 C   0  0  0  0  0  0  0  0  0  0  0  0
  188.9600  177.9450  140.0830 N   0  0  0  0  0  2  0  0  0  0  0  0
  185.7680  178.3330  144.7110 C   0  0  0  0  0  3  0  0  0  0  0  0
  190.0950  177.0400  147.3160 C   0  0  0  0  0  3  0  0  0  0  0  0
  186.0790  178.4630  142.3150 C   0  0  0  0  0  0  0  0  0  0  0  0
  184.7320  178.8090  142.1670 C   0  0  0  0  0  3  0  0  0  0  0  0
  190.0830  177.4520  142.5710 N   0  0  0  0  0  0  0  0  0  0  0  0
  190.0510  177.2590  144.9050 C   0  0  0  0  0  0  0  0  0  0  0  0
  190.7480  176.9840  146.0850 C   0  0  0  0  0  3  0  0  0  0  0  0
  188.9350  175.6700  136.0110 C   0  0  1  0  0  3  0  0  0  0  0  0
  188.6930  178.0280  136.2500 C   0  0  0  0  0  2  0  0  0  0  0  0
  191.1010  176.7350  139.0070 C   0  0  0  0  0  1  0  0  0  0  0  0
  188.2090  174.3800  135.6950 C   0  0  0  0  0  1  0  0  0  0  0  0
  187.9700  176.7670  136.0730 N   0  0  0  0  0  2  0  0  0  0  0  0
  190.3850  176.8300  137.6710 C   0  0  2  0  0  3  0  0  0  0  0  0
  189.4460  178.0460  137.5850 C   0  0  2  0  0  3  0  0  0  0  0  0
  189.6590  175.5280  137.3480 C   0  0  0  0  0  2  0  0  0  0  0  0
  1 17  1  0  0  0  0
  1 11  1  0  0  0  0
  2  3  1  0  0  0  0
  3  9  1  0  0  0  0
  4  5  2  0  0  0  0
  5 16  1  0  0  0  0
  6 13  1  0  0  0  0
  7  2  1  0  0  0  0
  7 17  2  0  0  0  0
  8  1  2  0  0  0  0
  9  6  2  0  0  0  0
 10 15  1  0  0  0  0
 12 22  1  0  0  0  0
 14 10  2  0  0  0  0
 14 19  1  0  0  0  0
 15 21  1  0  0  0  0
 15  2  2  0  0  0  0
 16 10  1  0  0  0  0
 18  6  1  0  0  0  0
 19  7  1  0  0  0  0
 20 19  2  0  0  0  0
 20  8  1  0  0  0  0
 21 12  2  0  0  0  0
 22  3  2  0  0  0  0
 22 23  1  0  0  0  0
 23 18  2  0  0  0  0
 24 27  1  1  0  0  0
 24 28  1  0  0  0  0
 24 31  1  0  0  0  0
 25 30  1  0  0  0  0
 28 25  1  0  0  0  0
 29 26  1  1  0  0  0
 30 29  1  0  0  0  0
 30  5  1  1  0  0  0
 31 29  1  0  0  0  0
M  END
>  <MODEL>
1

>  <REMARK>
 VINA RESULT:     -12.1      0.000      0.000
  Name = 
  1 active torsions:
  status: ('A' for Active; 'I' for Inactive)
    1  A    between atoms: C_5  and  C_30
                            x       y       z     vdW  Elec       q    Type
                         _______ _______ _______ _____ _____    ______ ____

>  <TORSDO>
F 1

$$$$
=
 OpenBabel11122411053D

 31 35  0  0  1  0  0  0  0  0999 V2000
  190.3780  176.9120  145.9350 C   0  0  0  0  0  0  0  0  0  0  0  0
  187.8480  177.8160  143.2960 C   0  0  0  0  0  0  0  0  0  0  0  0
  186.6350  178.1470  143.9670 C   0  0  0  0  0  0  0  0  0  0  0  0
  191.2010  177.0400  139.2950 O   0  0  0  0  0  0  0  0  0  0  0  0
  190.0780  177.3820  138.8390 C   0  0  0  0  0  0  0  0  0  0  0  0
  185.2890  178.4490  145.9820 C   0  0  0  0  0  0  0  0  0  0  0  0
  189.0560  177.4170  143.9430 C   0  0  0  0  0  0  0  0  0  0  0  0
  191.4850  176.6190  145.1400 C   0  0  0  0  0  3  0  0  0  0  0  0
  186.4970  178.1160  145.3660 C   0  0  0  0  0  3  0  0  0  0  0  0
  189.0030  177.5810  141.1500 C   0  0  0  0  0  0  0  0  0  0  0  0
  190.4650  176.8140  147.2820 F   0  0  0  0  0  0  0  0  0  0  0  0
  185.5950  178.5740  141.8490 N   0  0  0  0  0  0  0  0  0  0  0  0
  185.1540  178.3960  147.7260 Cl  0  0  0  0  0  0  0  0  0  0  0  0
  190.1320  177.2040  141.8010 N   0  0  0  0  0  0  0  0  0  0  0  0
  187.8470  177.8920  141.8780 C   0  0  0  0  0  0  0  0  0  0  0  0
  188.9800  177.6620  139.7180 N   0  0  0  0  0  2  0  0  0  0  0  0
  189.1770  177.3070  145.3390 C   0  0  0  0  0  3  0  0  0  0  0  0
  184.1900  178.8210  145.2090 C   0  0  0  0  0  3  0  0  0  0  0  0
  190.1920  177.1160  143.1510 C   0  0  0  0  0  0  0  0  0  0  0  0
  191.3920  176.7210  143.7510 C   0  0  0  0  0  3  0  0  0  0  0  0
  186.7230  178.2670  141.2130 N   0  0  0  0  0  0  0  0  0  0  0  0
  185.5090  178.5290  143.1980 C   0  0  0  0  0  0  0  0  0  0  0  0
  184.3010  178.8620  143.8180 C   0  0  0  0  0  3  0  0  0  0  0  0
  187.1130  177.5660  136.5820 C   0  0  1  0  0  3  0  0  0  0  0  0
  189.1280  178.7730  136.9840 C   0  0  0  0  0  2  0  0  0  0  0  0
  189.9100  174.9720  137.0850 C   0  0  0  0  0  1  0  0  0  0  0  0
  185.6260  177.5170  136.8610 C   0  0  0  0  0  1  0  0  0  0  0  0
  187.7170  178.6490  137.3560 N   0  0  0  0  0  2  0  0  0  0  0  0
  189.2430  176.2790  136.6940 C   0  0  2  0  0  3  0  0  0  0  0  0
  189.9040  177.5040  137.3510 C   0  0  2  0  0  3  0  0  0  0  0  0
  187.7430  176.2290  136.9670 C   0  0  0  0  0  2  0  0  0  0  0  0
  1 11  1  0  0  0  0
  2  7  1  0  0  0  0
  2  3  1  0  0  0  0
  3  9  1  0  0  0  0
  5  4  2  0  0  0  0
  5 16  1  0  0  0  0
  6 13  1  0  0  0  0
  7 17  2  0  0  0  0
  8  1  2  0  0  0  0
  9  6  2  0  0  0  0
 10 14  2  0  0  0  0
 10 15  1  0  0  0  0
 12 22  1  0  0  0  0
 14 19  1  0  0  0  0
 15  2  2  0  0  0  0
 16 10  1  0  0  0  0
 17  1  1  0  0  0  0
 18  6  1  0  0  0  0
 19 20  2  0  0  0  0
 19  7  1  0  0  0  0
 20  8  1  0  0  0  0
 21 12  2  0  0  0  0
 21 15  1  0  0  0  0
 22 23  1  0  0  0  0
 22  3  2  0  0  0  0
 23 18  2  0  0  0  0
 24 27  1  1  0  0  0
 24 31  1  0  0  0  0
 24 28  1  0  0  0  0
 25 30  1  0  0  0  0
 25 28  1  0  0  0  0
 29 31  1  0  0  0  0
 29 26  1  1  0  0  0
 29 30  1  0  0  0  0
 30  5  1  1  0  0  0
M  END
>  <MODEL>
2

>  <REMARK>
 VINA RESULT:     -11.6      2.013      4.137
  Name = 
  1 active torsions:
  status: ('A' for Active; 'I' for Inactive)
    1  A    between atoms: C_5  and  C_30
                            x       y       z     vdW  Elec       q    Type
                         _______ _______ _______ _____ _____    ______ ____

>  <TORSDO>
F 1

$$$$
=
 OpenBabel11122411053D

 31 35  0  0  1  0  0  0  0  0999 V2000
  186.3090  178.0840  146.9270 C   0  0  0  0  0  0  0  0  0  0  0  0
  187.5760  177.8780  143.3870 C   0  0  0  0  0  0  0  0  0  0  0  0
  188.9520  177.5090  143.4500 C   0  0  0  0  0  0  0  0  0  0  0  0
  182.9250  179.1720  141.2580 O   0  0  0  0  0  0  0  0  0  0  0  0
  183.7710  179.0030  140.3410 C   0  0  0  0  0  0  0  0  0  0  0  0
  190.9820  176.9210  144.6740 C   0  0  0  0  0  0  0  0  0  0  0  0
  186.7290  178.0620  144.5210 C   0  0  0  0  0  0  0  0  0  0  0  0
  184.9820  178.4460  146.7040 C   0  0  0  0  0  3  0  0  0  0  0  0
  189.6330  177.2810  144.6590 C   0  0  0  0  0  3  0  0  0  0  0  0
  185.6700  178.4390  141.9580 C   0  0  0  0  0  0  0  0  0  0  0  0
  186.7640  177.9150  148.1920 F   0  0  0  0  0  0  0  0  0  0  0  0
  189.0630  177.5690  141.0550 N   0  0  0  0  0  0  0  0  0  0  0  0
  191.7960  176.6480  146.1990 Cl  0  0  0  0  0  0  0  0  0  0  0  0
  184.8960  178.6060  143.0600 N   0  0  0  0  0  0  0  0  0  0  0  0
  187.0160  178.0760  142.0980 C   0  0  0  0  0  0  0  0  0  0  0  0
  185.1230  178.6350  140.6470 N   0  0  0  0  0  2  0  0  0  0  0  0
  187.1720  177.8940  145.8440 C   0  0  0  0  0  3  0  0  0  0  0  0
  191.6800  176.7800  143.4750 C   0  0  0  0  0  3  0  0  0  0  0  0
  185.3760  178.4300  144.3140 C   0  0  0  0  0  0  0  0  0  0  0  0
  184.5160  178.6180  145.4010 C   0  0  0  0  0  3  0  0  0  0  0  0
  187.7800  177.9130  140.9870 N   0  0  0  0  0  0  0  0  0  0  0  0
  189.6770  177.3600  142.2430 C   0  0  0  0  0  0  0  0  0  0  0  0
  191.0280  176.9990  142.2620 C   0  0  0  0  0  3  0  0  0  0  0  0
  180.4660  179.4210  138.6630 C   0  0  1  0  0  3  0  0  0  0  0  0
  182.5890  180.5020  138.7190 C   0  0  0  0  0  2  0  0  0  0  0  0
  183.1470  176.6620  138.5970 C   0  0  0  0  0  1  0  0  0  0  0  0
  179.0530  179.4460  139.2050 C   0  0  0  0  0  1  0  0  0  0  0  0
  181.2630  180.4450  139.3370 N   0  0  0  0  0  2  0  0  0  0  0  0
  182.5000  178.0160  138.3600 C   0  0  2  0  0  3  0  0  0  0  0  0
  183.3410  179.1810  138.9130 C   0  0  2  0  0  3  0  0  0  0  0  0
  181.0730  178.0400  138.8990 C   0  0  0  0  0  2  0  0  0  0  0  0
  1 11  1  0  0  0  0
  2  3  1  0  0  0  0
  2  7  1  0  0  0  0
  3  9  1  0  0  0  0
  5 16  1  0  0  0  0
  5  4  2  0  0  0  0
  6 13  1  0  0  0  0
  7 17  1  0  0  0  0
  8  1  1  0  0  0  0
  9  6  2  0  0  0  0
 10 15  1  0  0  0  0
 10 14  2  0  0  0  0
 12 22  1  0  0  0  0
 14 19  1  0  0  0  0
 15  2  2  0  0  0  0
 16 10  1  0  0  0  0
 17  1  2  0  0  0  0
 18  6  1  0  0  0  0
 19  7  2  0  0  0  0
 19 20  1  0  0  0  0
 20  8  2  0  0  0  0
 21 12  2  0  0  0  0
 21 15  1  0  0  0  0
 22 23  1  0  0  0  0
 22  3  2  0  0  0  0
 23 18  2  0  0  0  0
 24 31  1  0  0  0  0
 24 27  1  1  0  0  0
 24 28  1  0  0  0  0
 25 30  1  0  0  0  0
 25 28  1  0  0  0  0
 29 26  1  1  0  0  0
 29 31  1  0  0  0  0
 29 30  1  0  0  0  0
 30  5  1  1  0  0  0
M  END
>  <MODEL>
3

>  <REMARK>
 VINA RESULT:     -10.9      3.348      5.170
  Name = 
  1 active torsions:
  status: ('A' for Active; 'I' for Inactive)
    1  A    between atoms: C_5  and  C_30
                            x       y       z     vdW  Elec       q    Type
                         _______ _______ _______ _____ _____    ______ ____

>  <TORSDO>
F 1

$$$$
=
 OpenBabel11122411053D

 31 35  0  0  1  0  0  0  0  0999 V2000
  186.5590  178.0590  147.1890 C   0  0  0  0  0  0  0  0  0  0  0  0
  187.6790  177.7620  143.6060 C   0  0  0  0  0  0  0  0  0  0  0  0
  189.0420  177.3460  143.6200 C   0  0  0  0  0  0  0  0  0  0  0  0
  182.9950  179.1920  141.6400 O   0  0  0  0  0  0  0  0  0  0  0  0
  183.7980  178.9810  140.6930 C   0  0  0  0  0  0  0  0  0  0  0  0
  191.0960  176.7030  144.7740 C   0  0  0  0  0  0  0  0  0  0  0  0
  186.8830  177.9910  144.7680 C   0  0  0  0  0  0  0  0  0  0  0  0
  185.2370  178.4640  147.0120 C   0  0  0  0  0  3  0  0  0  0  0  0
  189.7610  177.1100  144.8060 C   0  0  0  0  0  3  0  0  0  0  0  0
  185.7380  178.3720  142.2430 C   0  0  0  0  0  0  0  0  0  0  0  0
  187.0560  177.8910  148.4370 F   0  0  0  0  0  0  0  0  0  0  0  0
  189.0610  177.3700  141.2230 N   0  0  0  0  0  0  0  0  0  0  0  0
  191.9600  176.4210  146.2690 Cl  0  0  0  0  0  0  0  0  0  0  0  0
  185.0140  178.5800  143.3720 N   0  0  0  0  0  0  0  0  0  0  0  0
  187.0750  177.9630  142.3370 C   0  0  0  0  0  0  0  0  0  0  0  0
  185.1480  178.5700  140.9520 N   0  0  0  0  0  2  0  0  0  0  0  0
  187.3710  177.8240  146.0760 C   0  0  0  0  0  3  0  0  0  0  0  0
  191.7420  176.5220  143.5510 C   0  0  0  0  0  3  0  0  0  0  0  0
  185.5360  178.4040  144.6090 C   0  0  0  0  0  0  0  0  0  0  0  0
  184.7270  178.6360  145.7250 C   0  0  0  0  0  3  0  0  0  0  0  0
  187.7890  177.7590  141.1990 N   0  0  0  0  0  0  0  0  0  0  0  0
  189.7140  177.1560  142.3890 C   0  0  0  0  0  0  0  0  0  0  0  0
  191.0500  176.7480  142.3600 C   0  0  0  0  0  3  0  0  0  0  0  0
  181.9360  176.8070  138.3020 C   0  0  1  0  0  3  0  0  0  0  0  0
  181.7950  179.0140  139.1880 C   0  0  0  0  0  2  0  0  0  0  0  0
  185.5070  178.2350  138.3630 C   0  0  0  0  0  1  0  0  0  0  0  0
  181.4100  175.3920  138.4200 C   0  0  0  0  0  1  0  0  0  0  0  0
  181.3860  177.6220  139.3840 N   0  0  0  0  0  2  0  0  0  0  0  0
  183.9920  178.2120  138.2670 C   0  0  2  0  0  3  0  0  0  0  0  0
  183.3180  179.1550  139.2800 C   0  0  2  0  0  3  0  0  0  0  0  0
  183.4610  176.7860  138.3800 C   0  0  0  0  0  2  0  0  0  0  0  0
  1 11  1  0  0  0  0
  2  3  1  0  0  0  0
  2  7  1  0  0  0  0
  3  9  1  0  0  0  0
  5 16  1  0  0  0  0
  5  4  2  0  0  0  0
  6  9  2  0  0  0  0
  6 13  1  0  0  0  0
  7 17  1  0  0  0  0
  8  1  1  0  0  0  0
 10 15  1  0  0  0  0
 10 14  2  0  0  0  0
 12 22  1  0  0  0  0
 14 19  1  0  0  0  0
 15  2  2  0  0  0  0
 16 10  1  0  0  0  0
 17  1  2  0  0  0  0
 18  6  1  0  0  0  0
 19  7  2  0  0  0  0
 19 20  1  0  0  0  0
 20  8  2  0  0  0  0
 21 12  2  0  0  0  0
 21 15  1  0  0  0  0
 22  3  2  0  0  0  0
 23 22  1  0  0  0  0
 23 18  2  0  0  0  0
 24 31  1  0  0  0  0
 24 27  1  1  0  0  0
 24 28  1  0  0  0  0
 25 30  1  0  0  0  0
 25 28  1  0  0  0  0
 29 26  1  1  0  0  0
 29 31  1  0  0  0  0
 29 30  1  0  0  0  0
 30  5  1  1  0  0  0
M  END
>  <MODEL>
4

>  <REMARK>
 VINA RESULT:     -10.8      3.082      4.550
  Name = 
  1 active torsions:
  status: ('A' for Active; 'I' for Inactive)
    1  A    between atoms: C_5  and  C_30
                            x       y       z     vdW  Elec       q    Type
                         _______ _______ _______ _____ _____    ______ ____

>  <TORSDO>
F 1

$$$$
=
 OpenBabel11122411053D

 31 35  0  0  1  0  0  0  0  0999 V2000
  188.3800  177.3800  145.6930 C   0  0  0  0  0  0  0  0  0  0  0  0
  187.0620  178.1090  142.2420 C   0  0  0  0  0  0  0  0  0  0  0  0
  188.1600  178.0090  141.3380 C   0  0  0  0  0  0  0  0  0  0  0  0
  182.1070  178.8600  143.8940 O   0  0  0  0  0  0  0  0  0  0  0  0
  182.1630  179.0370  142.6490 C   0  0  0  0  0  0  0  0  0  0  0  0
  190.5140  177.6020  140.8290 C   0  0  0  0  0  0  0  0  0  0  0  0
  187.1440  177.9030  143.6520 C   0  0  0  0  0  0  0  0  0  0  0  0
  187.2150  177.5130  146.4470 C   0  0  0  0  0  3  0  0  0  0  0  0
  189.4670  177.6890  141.7490 C   0  0  0  0  0  3  0  0  0  0  0  0
  184.6700  178.5530  142.5170 C   0  0  0  0  0  0  0  0  0  0  0  0
  189.5480  177.0630  146.3000 F   0  0  0  0  0  0  0  0  0  0  0  0
  186.6950  178.5480  139.5190 N   0  0  0  0  0  0  0  0  0  0  0  0
  192.1270  177.2040  141.3770 Cl  0  0  0  0  0  0  0  0  0  0  0  0
  184.7890  178.3510  143.8530 N   0  0  0  0  0  0  0  0  0  0  0  0
  185.7960  178.4380  141.6910 C   0  0  0  0  0  0  0  0  0  0  0  0
  183.4010  178.8880  141.9400 N   0  0  0  0  0  2  0  0  0  0  0  0
  188.3420  177.5730  144.3100 C   0  0  0  0  0  3  0  0  0  0  0  0
  190.2740  177.8330  139.4750 C   0  0  0  0  0  3  0  0  0  0  0  0
  185.9700  178.0340  144.4350 C   0  0  0  0  0  0  0  0  0  0  0  0
  186.0130  177.8390  145.8190 C   0  0  0  0  0  3  0  0  0  0  0  0
  185.6640  178.6440  140.3540 N   0  0  0  0  0  0  0  0  0  0  0  0
  187.9370  178.2390  139.9600 C   0  0  0  0  0  0  0  0  0  0  0  0
  188.9870  178.1500  139.0410 C   0  0  0  0  0  3  0  0  0  0  0  0
  179.4560  177.0580  141.0160 C   0  0  1  0  0  3  0  0  0  0  0  0
  179.6680  178.8240  142.6020 C   0  0  0  0  0  2  0  0  0  0  0  0
  182.1590  179.4550  139.6940 C   0  0  0  0  0  1  0  0  0  0  0  0
  179.2550  175.5680  140.8460 C   0  0  0  0  0  1  0  0  0  0  0  0
  179.6030  177.3700  142.4370 N   0  0  0  0  0  2  0  0  0  0  0  0
  180.9120  178.9910  140.4250 C   0  0  2  0  0  3  0  0  0  0  0  0
  180.9070  179.3990  141.9090 C   0  0  2  0  0  3  0  0  0  0  0  0
  180.7040  177.4900  140.2490 C   0  0  0  0  0  2  0  0  0  0  0  0
  1 11  1  0  0  0  0
  1  8  1  0  0  0  0
  2  7  1  0  0  0  0
  3  9  1  0  0  0  0
  3  2  2  0  0  0  0
  5  4  2  0  0  0  0
  6 13  1  0  0  0  0
  6  9  2  0  0  0  0
  7 17  1  0  0  0  0
  7 19  2  0  0  0  0
 10 14  2  0  0  0  0
 12 22  2  0  0  0  0
 12 21  1  0  0  0  0
 14 19  1  0  0  0  0
 15  2  1  0  0  0  0
 15 10  1  0  0  0  0
 16 10  1  0  0  0  0
 16  5  1  0  0  0  0
 17  1  2  0  0  0  0
 18  6  1  0  0  0  0
 19 20  1  0  0  0  0
 20  8  2  0  0  0  0
 21 15  2  0  0  0  0
 22  3  1  0  0  0  0
 23 18  2  0  0  0  0
 23 22  1  0  0  0  0
 24 27  1  1  0  0  0
 24 28  1  0  0  0  0
 28 25  1  0  0  0  0
 29 26  1  1  0  0  0
 29 30  1  0  0  0  0
 30 25  1  0  0  0  0
 30  5  1  1  0  0  0
 31 29  1  0  0  0  0
 31 24  1  0  0  0  0
M  END
>  <MODEL>
5

>  <REMARK>
 VINA RESULT:     -10.8      3.684      6.936
  Name = 
  1 active torsions:
  status: ('A' for Active; 'I' for Inactive)
    1  A    between atoms: C_5  and  C_30
                            x       y       z     vdW  Elec       q    Type
                         _______ _______ _______ _____ _____    ______ ____

>  <TORSDO>
F 1

$$$$
=
 OpenBabel11122411053D

 31 35  0  0  1  0  0  0  0  0999 V2000
  191.3330  176.8870  144.4760 C   0  0  0  0  0  0  0  0  0  0  0  0
  187.8720  177.8970  143.3880 C   0  0  0  0  0  0  0  0  0  0  0  0
  187.0890  178.0650  144.5680 C   0  0  0  0  0  0  0  0  0  0  0  0
  189.0640  177.8090  138.2490 O   0  0  0  0  0  0  0  0  0  0  0  0
  187.8520  178.1190  138.3910 C   0  0  0  0  0  0  0  0  0  0  0  0
  186.7950  178.0440  146.9920 C   0  0  0  0  0  0  0  0  0  0  0  0
  189.2470  177.5150  143.3700 C   0  0  0  0  0  0  0  0  0  0  0  0
  191.9650  176.7630  143.2400 C   0  0  0  0  0  3  0  0  0  0  0  0
  187.5990  177.8690  145.8640 C   0  0  0  0  0  3  0  0  0  0  0  0
  187.9360  177.9840  140.9430 C   0  0  0  0  0  0  0  0  0  0  0  0
  192.0210  176.6470  145.6170 F   0  0  0  0  0  0  0  0  0  0  0  0
  185.1990  178.6490  143.2130 N   0  0  0  0  0  0  0  0  0  0  0  0
  187.4640  177.7890  148.5880 Cl  0  0  0  0  0  0  0  0  0  0  0  0
  189.2420  177.6180  140.9660 N   0  0  0  0  0  0  0  0  0  0  0  0
  187.2300  178.1290  142.1440 C   0  0  0  0  0  0  0  0  0  0  0  0
  187.2670  178.2220  139.6960 N   0  0  0  0  0  2  0  0  0  0  0  0
  189.9880  177.2590  144.5370 C   0  0  0  0  0  3  0  0  0  0  0  0
  185.4610  178.4220  146.8470 C   0  0  0  0  0  3  0  0  0  0  0  0
  189.9070  177.3840  142.1220 C   0  0  0  0  0  0  0  0  0  0  0  0
  191.2540  177.0120  142.0660 C   0  0  0  0  0  3  0  0  0  0  0  0
  185.9220  178.4950  142.1070 N   0  0  0  0  0  0  0  0  0  0  0  0
  185.7320  178.4480  144.4400 C   0  0  0  0  0  0  0  0  0  0  0  0
  184.9310  178.6240  145.5720 C   0  0  0  0  0  3  0  0  0  0  0  0
  185.6560  176.0200  136.2260 C   0  0  1  0  0  3  0  0  0  0  0  0
  185.5440  178.0800  137.4180 C   0  0  0  0  0  2  0  0  0  0  0  0
  188.9890  177.8520  135.6440 C   0  0  0  0  0  1  0  0  0  0  0  0
  185.3040  174.5490  136.2680 C   0  0  0  0  0  1  0  0  0  0  0  0
  185.3220  176.6360  137.5100 N   0  0  0  0  0  2  0  0  0  0  0  0
  187.5060  177.6570  135.9050 C   0  0  2  0  0  3  0  0  0  0  0  0
  187.0230  178.3930  137.1680 C   0  0  2  0  0  3  0  0  0  0  0  0
  187.1480  176.1750  135.9400 C   0  0  0  0  0  2  0  0  0  0  0  0
  1 17  1  0  0  0  0
  1 11  1  0  0  0  0
  2  3  1  0  0  0  0
  3  9  1  0  0  0  0
  4  5  2  0  0  0  0
  5 16  1  0  0  0  0
  6 13  1  0  0  0  0
  7  2  1  0  0  0  0
  7 17  2  0  0  0  0
  8  1  2  0  0  0  0
  9  6  2  0  0  0  0
 10 14  2  0  0  0  0
 10 15  1  0  0  0  0
 12 22  1  0  0  0  0
 14 19  1  0  0  0  0
 15  2  2  0  0  0  0
 16 10  1  0  0  0  0
 18  6  1  0  0  0  0
 19  7  1  0  0  0  0
 20 19  2  0  0  0  0
 20  8  1  0  0  0  0
 21 15  1  0  0  0  0
 21 12  2  0  0  0  0
 22  3  2  0  0  0  0
 22 23  1  0  0  0  0
 23 18  2  0  0  0  0
 24 27  1  1  0  0  0
 24 28  1  0  0  0  0
 25 28  1  0  0  0  0
 29 26  1  1  0  0  0
 29 31  1  0  0  0  0
 29 30  1  0  0  0  0
 30 25  1  0  0  0  0
 30  5  1  1  0  0  0
 31 24  1  0  0  0  0
M  END
>  <MODEL>
6

>  <REMARK>
 VINA RESULT:     -10.7      2.376      4.112
  Name = 
  1 active torsions:
  status: ('A' for Active; 'I' for Inactive)
    1  A    between atoms: C_5  and  C_30
                            x       y       z     vdW  Elec       q    Type
                         _______ _______ _______ _____ _____    ______ ____

>  <TORSDO>
F 1

$$$$
=
 OpenBabel11122411053D

 31 35  0  0  1  0  0  0  0  0999 V2000
  188.8470  177.9710  141.0730 C   0  0  0  0  0  0  0  0  0  0  0  0
  185.7450  178.3980  143.1640 C   0  0  0  0  0  0  0  0  0  0  0  0
  186.1370  178.2950  144.5310 C   0  0  0  0  0  0  0  0  0  0  0  0
  182.5790  179.0480  138.9920 O   0  0  0  0  0  0  0  0  0  0  0  0
  181.8950  179.1030  140.0480 C   0  0  0  0  0  0  0  0  0  0  0  0
  187.8050  177.9810  146.2860 C   0  0  0  0  0  0  0  0  0  0  0  0
  186.6320  178.2910  142.0510 C   0  0  0  0  0  0  0  0  0  0  0  0
  188.3120  178.0930  139.7920 C   0  0  0  0  0  3  0  0  0  0  0  0
  187.4660  178.0750  144.9350 C   0  0  0  0  0  3  0  0  0  0  0  0
  183.9090  178.7360  141.5800 C   0  0  0  0  0  0  0  0  0  0  0  0
  190.1740  177.7560  141.2370 F   0  0  0  0  0  0  0  0  0  0  0  0
  183.8580  178.6360  145.1960 N   0  0  0  0  0  0  0  0  0  0  0  0
  189.4690  177.7030  146.7510 Cl  0  0  0  0  0  0  0  0  0  0  0  0
  184.7830  178.6280  140.5480 N   0  0  0  0  0  0  0  0  0  0  0  0
  184.3690  178.6240  142.8990 C   0  0  0  0  0  0  0  0  0  0  0  0
  182.5140  178.9620  141.3340 N   0  0  0  0  0  2  0  0  0  0  0  0
  188.0130  178.0690  142.1890 C   0  0  0  0  0  3  0  0  0  0  0  0
  186.8190  178.1070  147.2640 C   0  0  0  0  0  3  0  0  0  0  0  0
  186.1060  178.4140  140.7400 C   0  0  0  0  0  0  0  0  0  0  0  0
  186.9450  178.3150  139.6260 C   0  0  0  0  0  3  0  0  0  0  0  0
  183.4830  178.7330  143.9230 N   0  0  0  0  0  0  0  0  0  0  0  0
  185.1500  178.4210  145.5380 C   0  0  0  0  0  0  0  0  0  0  0  0
  185.4940  178.3280  146.8900 C   0  0  0  0  0  3  0  0  0  0  0  0
  179.1240  179.3170  142.5360 C   0  0  1  0  0  3  0  0  0  0  0  0
  179.9880  180.5860  140.7130 C   0  0  0  0  0  2  0  0  0  0  0  0
  179.9860  176.8310  139.7290 C   0  0  0  0  0  1  0  0  0  0  0  0
  179.1050  179.1750  144.0420 C   0  0  0  0  0  1  0  0  0  0  0  0
  180.0710  180.3660  142.1590 N   0  0  0  0  0  2  0  0  0  0  0  0
  179.5600  178.1300  140.3900 C   0  0  2  0  0  3  0  0  0  0  0  0
  180.4140  179.3310  139.9430 C   0  0  2  0  0  3  0  0  0  0  0  0
  179.5340  177.9870  141.9080 C   0  0  0  0  0  2  0  0  0  0  0  0
  1 11  1  0  0  0  0
  1 17  1  0  0  0  0
  2  3  1  0  0  0  0
  3  9  2  0  0  0  0
  3 22  1  0  0  0  0
  4  5  2  0  0  0  0
  5 16  1  0  0  0  0
  6 13  1  0  0  0  0
  6 18  2  0  0  0  0
  7 17  2  0  0  0  0
  7  2  1  0  0  0  0
  8  1  2  0  0  0  0
  9  6  1  0  0  0  0
 10 15  1  0  0  0  0
 12 22  1  0  0  0  0
 14 19  1  0  0  0  0
 14 10  2  0  0  0  0
 15  2  2  0  0  0  0
 15 21  1  0  0  0  0
 16 10  1  0  0  0  0
 19  7  1  0  0  0  0
 20  8  1  0  0  0  0
 20 19  2  0  0  0  0
 21 12  2  0  0  0  0
 22 23  2  0  0  0  0
 23 18  1  0  0  0  0
 24 27  1  1  0  0  0
 25 28  1  0  0  0  0
 28 24  1  0  0  0  0
 29 26  1  6  0  0  0
 29 31  1  0  0  0  0
 30  5  1  1  0  0  0
 30 29  1  0  0  0  0
 30 25  1  0  0  0  0
 31 24  1  0  0  0  0
M  END
>  <MODEL>
7

>  <REMARK>
 VINA RESULT:     -10.7      3.699      6.988
  Name = 
  1 active torsions:
  status: ('A' for Active; 'I' for Inactive)
    1  A    between atoms: C_5  and  C_30
                            x       y       z     vdW  Elec       q    Type
                         _______ _______ _______ _____ _____    ______ ____

>  <TORSDO>
F 1

$$$$
=
 OpenBabel11122411053D

 31 35  0  0  1  0  0  0  0  0999 V2000
  185.5810  178.0300  145.6850 C   0  0  0  0  0  0  0  0  0  0  0  0
  184.7360  178.5540  142.0530 C   0  0  0  0  0  0  0  0  0  0  0  0
  183.3300  178.7710  141.9720 C   0  0  0  0  0  0  0  0  0  0  0  0
  189.7310  178.0180  140.4360 O   0  0  0  0  0  0  0  0  0  0  0  0
  188.9880  178.2160  139.4380 C   0  0  0  0  0  0  0  0  0  0  0  0
  181.1120  178.9900  142.9710 C   0  0  0  0  0  0  0  0  0  0  0  0
  185.4560  178.3150  143.2620 C   0  0  0  0  0  0  0  0  0  0  0  0
  186.9590  177.8360  145.6030 C   0  0  0  0  0  3  0  0  0  0  0  0
  182.4860  178.7730  143.0970 C   0  0  0  0  0  3  0  0  0  0  0  0
  186.8540  178.3750  140.8390 C   0  0  0  0  0  0  0  0  0  0  0  0
  184.9610  177.9900  146.8880 F   0  0  0  0  0  0  0  0  0  0  0  0
  183.5170  179.0040  139.5930 N   0  0  0  0  0  0  0  0  0  0  0  0
  180.0930  178.9840  144.3930 Cl  0  0  0  0  0  0  0  0  0  0  0  0
  187.5030  178.1490  142.0080 N   0  0  0  0  0  0  0  0  0  0  0  0
  185.4680  178.5790  140.8370 C   0  0  0  0  0  0  0  0  0  0  0  0
  187.5750  178.4030  139.5990 N   0  0  0  0  0  2  0  0  0  0  0  0
  184.8400  178.2680  144.5250 C   0  0  0  0  0  3  0  0  0  0  0  0
  180.5520  179.2100  141.7130 C   0  0  0  0  0  3  0  0  0  0  0  0
  186.8580  178.1150  143.1980 C   0  0  0  0  0  0  0  0  0  0  0  0
  187.5960  177.8780  144.3630 C   0  0  0  0  0  3  0  0  0  0  0  0
  184.8300  178.8030  139.6580 N   0  0  0  0  0  0  0  0  0  0  0  0
  182.7430  178.9970  140.7030 C   0  0  0  0  0  0  0  0  0  0  0  0
  181.3680  179.2140  140.5810 C   0  0  0  0  0  3  0  0  0  0  0  0
  187.6580  177.8030  135.9780 C   0  0  1  0  0  3  0  0  0  0  0  0
  188.9690  179.3640  137.2110 C   0  0  0  0  0  2  0  0  0  0  0  0
  190.1050  175.7710  138.1420 C   0  0  0  0  0  1  0  0  0  0  0  0
  186.2710  177.4930  135.4590 C   0  0  0  0  0  1  0  0  0  0  0  0
  187.6060  178.9980  136.8190 N   0  0  0  0  0  2  0  0  0  0  0  0
  189.5680  176.9250  137.3140 C   0  0  2  0  0  3  0  0  0  0  0  0
  189.6060  178.2660  138.0700 C   0  0  2  0  0  3  0  0  0  0  0  0
  188.1720  176.6120  136.7840 C   0  0  0  0  0  2  0  0  0  0  0  0
  1 11  1  0  0  0  0
  2  7  1  0  0  0  0
  3  2  1  0  0  0  0
  3  9  1  0  0  0  0
  5 16  1  0  0  0  0
  5  4  2  0  0  0  0
  6  9  2  0  0  0  0
  6 13  1  0  0  0  0
  7 17  1  0  0  0  0
  8  1  1  0  0  0  0
 10 14  2  0  0  0  0
 12 21  2  0  0  0  0
 12 22  1  0  0  0  0
 14 19  1  0  0  0  0
 15 10  1  0  0  0  0
 15  2  2  0  0  0  0
 16 10  1  0  0  0  0
 17  1  2  0  0  0  0
 18  6  1  0  0  0  0
 19  7  2  0  0  0  0
 19 20  1  0  0  0  0
 20  8  2  0  0  0  0
 21 15  1  0  0  0  0
 22  3  2  0  0  0  0
 23 22  1  0  0  0  0
 23 18  2  0  0  0  0
 24 27  1  1  0  0  0
 24 31  1  0  0  0  0
 24 28  1  0  0  0  0
 25 30  1  0  0  0  0
 28 25  1  0  0  0  0
 29 30  1  0  0  0  0
 29 26  1  1  0  0  0
 30  5  1  1  0  0  0
 31 29  1  0  0  0  0
M  END
>  <MODEL>
8

>  <REMARK>
 VINA RESULT:     -10.6      2.530      5.079
  Name = 
  1 active torsions:
  status: ('A' for Active; 'I' for Inactive)
    1  A    between atoms: C_5  and  C_30
                            x       y       z     vdW  Elec       q    Type
                         _______ _______ _______ _____ _____    ______ ____

>  <TORSDO>
F 1

$$$$
=
 OpenBabel11122411053D

 31 35  0  0  1  0  0  0  0  0999 V2000
  190.8790  177.3510  141.9850 C   0  0  0  0  0  0  0  0  0  0  0  0
  187.7140  177.8630  143.9590 C   0  0  0  0  0  0  0  0  0  0  0  0
  188.0480  177.7350  145.3380 C   0  0  0  0  0  0  0  0  0  0  0  0
  184.7360  178.6560  139.6750 O   0  0  0  0  0  0  0  0  0  0  0  0
  184.0140  178.7250  140.7040 C   0  0  0  0  0  0  0  0  0  0  0  0
  189.6360  177.3490  147.1540 C   0  0  0  0  0  0  0  0  0  0  0  0
  188.6390  177.7370  142.8790 C   0  0  0  0  0  0  0  0  0  0  0  0
  190.3990  177.5030  140.6850 C   0  0  0  0  0  3  0  0  0  0  0  0
  189.3530  177.4660  145.7920 C   0  0  0  0  0  3  0  0  0  0  0  0
  185.9530  178.2770  142.3090 C   0  0  0  0  0  0  0  0  0  0  0  0
  192.1910  177.0910  142.1980 F   0  0  0  0  0  0  0  0  0  0  0  0
  185.7590  178.1460  145.9190 N   0  0  0  0  0  0  0  0  0  0  0  0
  191.2710  177.0120  147.6790 Cl  0  0  0  0  0  0  0  0  0  0  0  0
  186.8620  178.1480  141.3100 N   0  0  0  0  0  0  0  0  0  0  0  0
  186.3570  178.1370  143.6430 C   0  0  0  0  0  0  0  0  0  0  0  0
  184.5770  178.5520  142.0110 N   0  0  0  0  0  2  0  0  0  0  0  0
  190.0060  177.4670  143.0690 C   0  0  0  0  0  3  0  0  0  0  0  0
  188.6180  177.4990  148.0940 C   0  0  0  0  0  3  0  0  0  0  0  0
  188.1690  177.8880  141.5510 C   0  0  0  0  0  0  0  0  0  0  0  0
  189.0470  177.7710  140.4690 C   0  0  0  0  0  3  0  0  0  0  0  0
  185.4360  178.2670  144.6340 N   0  0  0  0  0  0  0  0  0  0  0  0
  187.0280  177.8850  146.3080 C   0  0  0  0  0  0  0  0  0  0  0  0
  187.3160  177.7680  147.6710 C   0  0  0  0  0  3  0  0  0  0  0  0
  181.3140  177.2630  138.5850 C   0  0  1  0  0  3  0  0  0  0  0  0
  181.7060  177.7660  140.8800 C   0  0  0  0  0  2  0  0  0  0  0  0
  183.0090  180.7150  138.7190 C   0  0  0  0  0  1  0  0  0  0  0  0
  181.3300  176.1690  137.5400 C   0  0  0  0  0  1  0  0  0  0  0  0
  181.8450  176.7420  139.8430 N   0  0  0  0  0  2  0  0  0  0  0  0
  182.1550  179.5380  139.1550 C   0  0  2  0  0  3  0  0  0  0  0  0
  182.5460  179.0030  140.5450 C   0  0  2  0  0  3  0  0  0  0  0  0
  182.1640  178.4360  138.1000 C   0  0  0  0  0  2  0  0  0  0  0  0
  1 11  1  0  0  0  0
  1 17  1  0  0  0  0
  2  3  1  0  0  0  0
  3  9  2  0  0  0  0
  3 22  1  0  0  0  0
  4  5  2  0  0  0  0
  5 16  1  0  0  0  0
  6 13  1  0  0  0  0
  6 18  2  0  0  0  0
  7 17  2  0  0  0  0
  7  2  1  0  0  0  0
  8  1  2  0  0  0  0
  9  6  1  0  0  0  0
 10 15  1  0  0  0  0
 12 22  1  0  0  0  0
 14 19  1  0  0  0  0
 14 10  2  0  0  0  0
 15  2  2  0  0  0  0
 15 21  1  0  0  0  0
 16 10  1  0  0  0  0
 19  7  1  0  0  0  0
 20  8  1  0  0  0  0
 20 19  2  0  0  0  0
 21 12  2  0  0  0  0
 22 23  2  0  0  0  0
 23 18  1  0  0  0  0
 24 27  1  6  0  0  0
 24 28  1  0  0  0  0
 28 25  1  0  0  0  0
 29 26  1  6  0  0  0
 29 30  1  0  0  0  0
 30  5  1  6  0  0  0
 30 25  1  0  0  0  0
 31 24  1  0  0  0  0
 31 29  1  0  0  0  0
M  END
>  <MODEL>
9

>  <REMARK>
 VINA RESULT:     -10.5      3.348      5.503
  Name = 
  1 active torsions:
  status: ('A' for Active; 'I' for Inactive)
    1  A    between atoms: C_5  and  C_30
                            x       y       z     vdW  Elec       q    Type
                         _______ _______ _______ _____ _____    ______ ____

>  <TORSDO>
F 1

$$$$
