=
 OpenBabel11122410383D

 32 37  0  0  1  0  0  0  0  0999 V2000
  187.6790  176.8600  143.9290 C   0  0  0  0  0  2  0  0  0  0  0  0
  190.5690  177.3100  139.3000 C   0  0  1  0  0  3  0  0  0  0  0  0
  186.4980  175.7270  136.9660 C   0  0  0  0  0  2  0  0  0  0  0  0
  187.3230  174.8840  136.0040 C   0  0  0  0  0  2  0  0  0  0  0  0
  192.8460  176.2380  138.8990 C   0  0  1  0  0  3  0  0  0  0  0  0
  193.5760  175.3000  137.9820 C   0  0  0  0  0  0  0  0  0  0  0  0
  189.7500  177.3510  141.4020 C   0  0  1  0  0  3  0  0  0  0  0  0
  188.3720  178.4370  139.6440 C   0  0  0  0  0  2  0  0  0  0  0  0
  193.8480  173.8040  136.3950 N   0  0  0  0  0  0  0  0  0  0  0  0
  187.5660  178.4990  142.0080 C   0  0  0  0  0  2  0  0  0  0  0  0
  187.3300  176.9230  137.4150 C   0  0  0  0  0  2  0  0  0  0  0  0
  189.2310  177.6740  138.6190 C   0  0  2  0  0  3  0  0  0  0  0  0
  188.5340  176.4710  138.1230 N   0  0  2  0  0  0  0  0  0  0  0  0
  190.7170  175.3330  137.7620 C   0  0  1  0  0  3  0  0  0  0  0  0
  195.0280  174.0790  136.9960 C   0  0  0  0  0  3  0  0  0  0  0  0
  188.6850  175.9330  143.2580 C   0  0  0  0  0  2  0  0  0  0  0  0
  188.3120  177.6830  140.9680 C   0  0  2  0  0  3  0  0  0  0  0  0
  194.8920  174.9970  137.9890 N   0  0  0  0  0  0  0  0  0  0  0  0
  189.8960  176.7370  142.7990 C   0  0  0  0  0  2  0  0  0  0  0  0
  186.7760  177.5640  142.9150 C   0  0  2  0  0  3  0  0  0  0  0  0
  188.6420  174.4940  136.6580 C   0  0  0  0  0  2  0  0  0  0  0  0
  189.3780  175.7480  137.1440 C   0  0  1  0  0  3  0  0  0  0  0  0
  191.5470  174.6210  136.7850 N   0  0  0  0  0  2  0  0  0  0  0  0
  190.3460  176.5140  140.4450 O   0  0  0  0  0  0  0  0  0  0  0  0
  193.6550  177.5110  139.0880 C   0  0  0  0  0  1  0  0  0  0  0  0
  193.6150  172.8660  135.3120 C   0  0  0  0  0  1  0  0  0  0  0  0
  191.4580  176.5770  138.3040 C   0  0  1  0  0  3  0  0  0  0  0  0
  192.9500  174.5590  137.0320 C   0  0  0  0  0  0  0  0  0  0  0  0
  185.7570  178.3290  143.6160 N   0  0  0  0  0  2  0  0  0  0  0  0
  184.4310  178.4920  143.1110 C   0  0  0  0  0  0  0  0  0  0  0  0
  184.0980  177.9900  142.0040 O   0  0  0  0  0  0  0  0  0  0  0  0
  183.4360  179.2680  143.8940 C   0  0  0  0  0  1  0  0  0  0  0  0
  2 24  1  1  0  0  0
  3 11  1  0  0  0  0
  4 21  1  0  0  0  0
  4  3  1  0  0  0  0
  5 25  1  6  0  0  0
  6 18  1  0  0  0  0
  6  5  1  0  0  0  0
  7 19  1  1  0  0  0
  9 15  1  0  0  0  0
  9 28  1  0  0  0  0
 10 20  1  0  0  0  0
 12  2  1  0  0  0  0
 12  8  1  1  0  0  0
 13 11  1  6  0  0  0
 13 12  1  0  0  0  0
 14 23  1  6  0  0  0
 14 27  1  0  0  0  0
 15 18  2  0  0  0  0
 16  1  1  0  0  0  0
 17  8  1  6  0  0  0
 17  7  1  0  0  0  0
 17 10  1  0  0  0  0
 19 16  1  0  0  0  0
 20 29  1  1  0  0  0
 20  1  1  0  0  0  0
 22 21  1  1  0  0  0
 22 14  1  0  0  0  0
 22 13  1  0  0  0  0
 23 28  1  0  0  0  0
 24  7  1  0  0  0  0
 26  9  1  0  0  0  0
 27  5  1  0  0  0  0
 27  2  1  0  0  0  0
 28  6  2  0  0  0  0
 30 29  1  0  0  0  0
 30 32  1  0  0  0  0
 31 30  2  0  0  0  0
M  END
>  <MODEL>
1

>  <REMARK>
 VINA RESULT:      -8.4      0.000      0.000
  Name = 
  1 active torsions:
  status: ('A' for Active; 'I' for Inactive)
    1  A    between atoms: C_20  and  N_29
                            x       y       z     vdW  Elec       q    Type
                         _______ _______ _______ _____ _____    ______ ____

>  <TORSDO>
F 1

$$$$
=
 OpenBabel11122410383D

 32 37  0  0  1  0  0  0  0  0999 V2000
  188.2880  177.0200  143.5520 C   0  0  0  0  0  2  0  0  0  0  0  0
  190.4410  176.6900  138.5300 C   0  0  1  0  0  3  0  0  0  0  0  0
  185.9420  175.2690  137.0260 C   0  0  0  0  0  2  0  0  0  0  0  0
  186.5360  174.2520  136.0620 C   0  0  0  0  0  2  0  0  0  0  0  0
  192.5350  175.3660  137.9300 C   0  0  1  0  0  3  0  0  0  0  0  0
  193.0350  174.2690  137.0350 C   0  0  0  0  0  0  0  0  0  0  0  0
  189.9690  177.0350  140.7080 C   0  0  1  0  0  3  0  0  0  0  0  0
  188.4230  178.0560  139.0540 C   0  0  0  0  0  2  0  0  0  0  0  0
  192.9350  172.5930  135.6170 N   0  0  0  0  0  0  0  0  0  0  0  0
  188.0050  178.4480  141.4860 C   0  0  0  0  0  2  0  0  0  0  0  0
  186.9270  176.4200  137.2010 C   0  0  0  0  0  2  0  0  0  0  0  0
  189.0470  177.1080  138.0130 C   0  0  2  0  0  3  0  0  0  0  0  0
  188.1870  175.9310  137.7730 N   0  0  2  0  0  0  0  0  0  0  0  0
  190.1890  174.5560  137.2350 C   0  0  1  0  0  3  0  0  0  0  0  0
  194.2120  172.8150  136.0010 C   0  0  0  0  0  3  0  0  0  0  0  0
  189.1000  175.9340  142.8580 C   0  0  0  0  0  2  0  0  0  0  0  0
  188.5110  177.4560  140.4530 C   0  0  2  0  0  3  0  0  0  0  0  0
  194.3070  173.8430  136.8850 N   0  0  0  0  0  0  0  0  0  0  0  0
  190.2830  176.5630  142.1330 C   0  0  0  0  0  2  0  0  0  0  0  0
  187.2960  177.6960  142.6040 C   0  0  2  0  0  3  0  0  0  0  0  0
  187.9060  173.8080  136.5570 C   0  0  0  0  0  2  0  0  0  0  0  0
  188.8060  175.0300  136.7750 C   0  0  1  0  0  3  0  0  0  0  0  0
  190.7960  173.6660  136.2400 N   0  0  0  0  0  2  0  0  0  0  0  0
  190.3390  176.0470  139.7810 O   0  0  0  0  0  0  0  0  0  0  0  0
  193.4620  176.5680  137.8430 C   0  0  0  0  0  1  0  0  0  0  0  0
  192.4610  171.5710  134.7020 C   0  0  0  0  0  1  0  0  0  0  0  0
  191.1020  175.7730  137.5090 C   0  0  1  0  0  3  0  0  0  0  0  0
  192.2110  173.4950  136.2840 C   0  0  0  0  0  0  0  0  0  0  0  0
  186.4630  178.6270  143.3510 N   0  0  0  0  0  2  0  0  0  0  0  0
  185.0460  178.6940  143.1880 C   0  0  0  0  0  0  0  0  0  0  0  0
  184.4580  177.9520  142.3560 O   0  0  0  0  0  0  0  0  0  0  0  0
  184.2580  179.6550  144.0020 C   0  0  0  0  0  1  0  0  0  0  0  0
  2 24  1  1  0  0  0
  3 11  1  0  0  0  0
  4 21  1  0  0  0  0
  4  3  1  0  0  0  0
  5 25  1  6  0  0  0
  6  5  1  0  0  0  0
  7 19  1  1  0  0  0
  9 15  1  0  0  0  0
  9 28  1  0  0  0  0
 10 20  1  0  0  0  0
 12  2  1  0  0  0  0
 12  8  1  1  0  0  0
 13 11  1  6  0  0  0
 13 12  1  0  0  0  0
 14 23  1  6  0  0  0
 14 27  1  0  0  0  0
 15 18  2  0  0  0  0
 16  1  1  0  0  0  0
 17  8  1  6  0  0  0
 17  7  1  0  0  0  0
 17 10  1  0  0  0  0
 18  6  1  0  0  0  0
 19 16  1  0  0  0  0
 20 29  1  1  0  0  0
 20  1  1  0  0  0  0
 22 21  1  1  0  0  0
 22 14  1  0  0  0  0
 22 13  1  0  0  0  0
 23 28  1  0  0  0  0
 24  7  1  0  0  0  0
 26  9  1  0  0  0  0
 27  5  1  0  0  0  0
 27  2  1  0  0  0  0
 28  6  2  0  0  0  0
 30 29  1  0  0  0  0
 30 32  1  0  0  0  0
 31 30  2  0  0  0  0
M  END
>  <MODEL>
2

>  <REMARK>
 VINA RESULT:      -8.2      0.939      1.096
  Name = 
  1 active torsions:
  status: ('A' for Active; 'I' for Inactive)
    1  A    between atoms: C_20  and  N_29
                            x       y       z     vdW  Elec       q    Type
                         _______ _______ _______ _____ _____    ______ ____

>  <TORSDO>
F 1

$$$$
=
 OpenBabel11122410383D

 32 37  0  0  1  0  0  0  0  0999 V2000
  192.0960  173.0590  136.4400 C   0  0  0  0  0  2  0  0  0  0  0  0
  189.8070  177.6480  138.3580 C   0  0  1  0  0  3  0  0  0  0  0  0
  191.6810  176.3780  142.7620 C   0  0  0  0  0  2  0  0  0  0  0  0
  190.4300  176.8590  143.4840 C   0  0  0  0  0  2  0  0  0  0  0  0
  187.3530  178.2760  138.0750 C   0  0  1  0  0  3  0  0  0  0  0  0
  186.1170  178.6280  138.8520 C   0  0  0  0  0  0  0  0  0  0  0  0
  190.6300  175.9360  137.1410 C   0  0  1  0  0  3  0  0  0  0  0  0
  192.2310  177.1280  138.6190 C   0  0  0  0  0  2  0  0  0  0  0  0
  184.8120  178.8700  140.6040 N   0  0  0  0  0  0  0  0  0  0  0  0
  193.0800  175.2630  137.1900 C   0  0  0  0  0  2  0  0  0  0  0  0
  191.8590  177.1880  141.4830 C   0  0  0  0  0  2  0  0  0  0  0  0
  191.0010  177.7150  139.3350 C   0  0  2  0  0  3  0  0  0  0  0  0
  190.7110  176.9910  140.5890 N   0  0  2  0  0  0  0  0  0  0  0  0
  188.2900  177.5100  140.3510 C   0  0  1  0  0  3  0  0  0  0  0  0
  184.1450  179.1750  139.4680 C   0  0  0  0  0  3  0  0  0  0  0  0
  190.6780  173.3810  136.8940 C   0  0  0  0  0  2  0  0  0  0  0  0
  191.9000  175.7760  137.9960 C   0  0  2  0  0  3  0  0  0  0  0  0
  184.9240  179.0280  138.3640 N   0  0  0  0  0  0  0  0  0  0  0  0
  190.2400  174.7140  136.3010 C   0  0  0  0  0  2  0  0  0  0  0  0
  193.1510  173.7460  137.3080 C   0  0  2  0  0  3  0  0  0  0  0  0
  189.2310  176.7860  142.5470 C   0  0  0  0  0  2  0  0  0  0  0  0
  189.5230  177.5660  141.2600 C   0  0  1  0  0  3  0  0  0  0  0  0
  187.1190  178.0830  141.0220 N   0  0  0  0  0  2  0  0  0  0  0  0
  189.5580  176.3150  137.9650 O   0  0  0  0  0  0  0  0  0  0  0  0
  187.5770  179.2940  136.9690 C   0  0  0  0  0  1  0  0  0  0  0  0
  184.2930  178.8980  141.9580 C   0  0  0  0  0  1  0  0  0  0  0  0
  188.5770  178.2490  139.0240 C   0  0  1  0  0  3  0  0  0  0  0  0
  186.0350  178.5140  140.2020 C   0  0  0  0  0  0  0  0  0  0  0  0
  194.4780  173.2990  136.9100 N   0  0  0  0  0  2  0  0  0  0  0  0
  195.4820  172.9290  137.8550 C   0  0  0  0  0  0  0  0  0  0  0  0
  195.2590  173.0040  139.0940 O   0  0  0  0  0  0  0  0  0  0  0  0
  196.8070  172.4600  137.3750 C   0  0  0  0  0  1  0  0  0  0  0  0
  1 16  1  0  0  0  0
  1 20  1  0  0  0  0
  2 24  1  1  0  0  0
  2 27  1  0  0  0  0
  2 12  1  0  0  0  0
  3  4  1  0  0  0  0
  5 25  1  6  0  0  0
  5  6  1  0  0  0  0
  5 27  1  0  0  0  0
  6 28  2  0  0  0  0
  7 19  1  1  0  0  0
  7 24  1  0  0  0  0
  7 17  1  0  0  0  0
  9 26  1  0  0  0  0
 10 20  1  0  0  0  0
 11  3  1  0  0  0  0
 12  8  1  6  0  0  0
 12 13  1  0  0  0  0
 13 22  1  0  0  0  0
 13 11  1  1  0  0  0
 14 23  1  1  0  0  0
 14 22  1  0  0  0  0
 15  9  1  0  0  0  0
 17 10  1  6  0  0  0
 17  8  1  0  0  0  0
 18  6  1  0  0  0  0
 18 15  2  0  0  0  0
 19 16  1  0  0  0  0
 20 29  1  6  0  0  0
 21  4  1  0  0  0  0
 22 21  1  1  0  0  0
 27 14  1  0  0  0  0
 28  9  1  0  0  0  0
 28 23  1  0  0  0  0
 29 30  1  0  0  0  0
 30 31  2  0  0  0  0
 32 30  1  0  0  0  0
M  END
>  <MODEL>
3

>  <REMARK>
 VINA RESULT:      -6.8      2.263      8.411
  Name = 
  1 active torsions:
  status: ('A' for Active; 'I' for Inactive)
    1  A    between atoms: C_20  and  N_29
                            x       y       z     vdW  Elec       q    Type
                         _______ _______ _______ _____ _____    ______ ____

>  <TORSDO>
F 1

$$$$
=
 OpenBabel11122410383D

 32 37  0  0  1  0  0  0  0  0999 V2000
  181.5970  175.9640  138.2630 C   0  0  0  0  0  2  0  0  0  0  0  0
  184.8470  178.8750  141.5710 C   0  0  1  0  0  3  0  0  0  0  0  0
  188.5400  177.6670  138.5010 C   0  0  0  0  0  2  0  0  0  0  0  0
  189.5070  177.4850  139.6630 C   0  0  0  0  0  2  0  0  0  0  0  0
  185.0330  178.5370  144.0910 C   0  0  1  0  0  3  0  0  0  0  0  0
  186.0190  178.2340  145.1820 C   0  0  0  0  0  0  0  0  0  0  0  0
  183.1570  177.8670  140.4690 C   0  0  1  0  0  3  0  0  0  0  0  0
  184.6710  179.3020  139.1210 C   0  0  0  0  0  2  0  0  0  0  0  0
  187.9250  177.6310  146.0950 N   0  0  0  0  0  0  0  0  0  0  0  0
  182.7360  178.2040  137.9850 C   0  0  0  0  0  2  0  0  0  0  0  0
  187.4870  178.6990  138.8890 C   0  0  0  0  0  2  0  0  0  0  0  0
  185.6560  179.2260  140.3030 C   0  0  2  0  0  3  0  0  0  0  0  0
  186.7210  178.2330  140.0520 N   0  0  2  0  0  0  0  0  0  0  0  0
  186.9190  177.8020  142.4940 C   0  0  1  0  0  3  0  0  0  0  0  0
  186.9900  177.8500  147.0470 C   0  0  0  0  0  3  0  0  0  0  0  0
  182.2890  175.6220  139.5770 C   0  0  0  0  0  2  0  0  0  0  0  0
  183.7830  178.0640  139.0770 C   0  0  2  0  0  3  0  0  0  0  0  0
  185.7960  178.2190  146.5130 N   0  0  0  0  0  0  0  0  0  0  0  0
  182.0980  176.7620  140.5690 C   0  0  0  0  0  2  0  0  0  0  0  0
  182.4690  176.8400  137.3620 C   0  0  2  0  0  3  0  0  0  0  0  0
  188.7370  177.1210  140.9250 C   0  0  0  0  0  2  0  0  0  0  0  0
  187.6530  178.1700  141.2000 C   0  0  1  0  0  3  0  0  0  0  0  0
  187.8490  177.7440  143.6260 N   0  0  0  0  0  2  0  0  0  0  0  0
  184.1750  177.6450  141.4110 O   0  0  0  0  0  0  0  0  0  0  0  0
  184.1900  179.7420  144.4740 C   0  0  0  0  0  1  0  0  0  0  0  0
  189.2990  177.2110  146.2980 C   0  0  0  0  0  1  0  0  0  0  0  0
  185.7870  178.8190  142.7680 C   0  0  1  0  0  3  0  0  0  0  0  0
  187.3000  177.8570  144.9370 C   0  0  0  0  0  0  0  0  0  0  0  0
  181.8130  177.0250  136.0760 N   0  0  0  0  0  2  0  0  0  0  0  0
  180.5520  177.6810  135.9420 C   0  0  0  0  0  0  0  0  0  0  0  0
  179.9380  178.1100  136.9560 O   0  0  0  0  0  0  0  0  0  0  0  0
  179.9530  177.8540  134.5940 C   0  0  0  0  0  1  0  0  0  0  0  0
  1 16  1  0  0  0  0
  2 24  1  6  0  0  0
  2 27  1  0  0  0  0
  3 11  1  0  0  0  0
  3  4  1  0  0  0  0
  4 21  1  0  0  0  0
  5 25  1  1  0  0  0
  5  6  1  0  0  0  0
  6 18  1  0  0  0  0
  7 19  1  6  0  0  0
  7 24  1  0  0  0  0
  9 26  1  0  0  0  0
  9 15  1  0  0  0  0
 12  8  1  6  0  0  0
 12  2  1  0  0  0  0
 13 11  1  6  0  0  0
 13 12  1  0  0  0  0
 13 22  1  0  0  0  0
 14 27  1  0  0  0  0
 14 23  1  1  0  0  0
 16 19  1  0  0  0  0
 17 10  1  6  0  0  0
 17  8  1  0  0  0  0
 17  7  1  0  0  0  0
 18 15  2  0  0  0  0
 20 29  1  6  0  0  0
 20 10  1  0  0  0  0
 20  1  1  0  0  0  0
 22 21  1  6  0  0  0
 22 14  1  0  0  0  0
 23 28  1  0  0  0  0
 27  5  1  0  0  0  0
 28  6  2  0  0  0  0
 28  9  1  0  0  0  0
 30 29  1  0  0  0  0
 30 31  2  0  0  0  0
 32 30  1  0  0  0  0
M  END
>  <MODEL>
4

>  <REMARK>
 VINA RESULT:      -6.7      4.123      8.111
  Name = 
  1 active torsions:
  status: ('A' for Active; 'I' for Inactive)
    1  A    between atoms: C_20  and  N_29
                            x       y       z     vdW  Elec       q    Type
                         _______ _______ _______ _____ _____    ______ ____

>  <TORSDO>
F 1

$$$$
=
 OpenBabel11122410383D

 32 37  0  0  1  0  0  0  0  0999 V2000
  183.6350  178.8770  143.2490 C   0  0  0  0  0  2  0  0  0  0  0  0
  185.0030  178.1710  137.9950 C   0  0  1  0  0  3  0  0  0  0  0  0
  181.6850  174.4960  137.9420 C   0  0  0  0  0  2  0  0  0  0  0  0
  182.5830  173.6370  137.0630 C   0  0  0  0  0  2  0  0  0  0  0  0
  187.3830  177.8410  137.1440 C   0  0  1  0  0  3  0  0  0  0  0  0
  188.2500  176.8910  136.3680 C   0  0  0  0  0  0  0  0  0  0  0  0
  184.7020  178.8590  140.1220 C   0  0  1  0  0  3  0  0  0  0  0  0
  182.6570  178.5500  138.7480 C   0  0  0  0  0  2  0  0  0  0  0  0
  188.8280  175.0320  135.3490 N   0  0  0  0  0  0  0  0  0  0  0  0
  182.4110  179.3730  141.0940 C   0  0  0  0  0  2  0  0  0  0  0  0
  181.9680  175.9660  137.6550 C   0  0  0  0  0  2  0  0  0  0  0  0
  183.5360  177.7430  137.7750 C   0  0  2  0  0  3  0  0  0  0  0  0
  183.3640  176.2890  137.9740 N   0  0  2  0  0  0  0  0  0  0  0  0
  185.6990  175.8900  137.2140 C   0  0  1  0  0  3  0  0  0  0  0  0
  189.8570  175.9100  135.3560 C   0  0  0  0  0  3  0  0  0  0  0  0
  184.7880  178.1360  142.5840 C   0  0  0  0  0  2  0  0  0  0  0  0
  183.2120  178.4770  140.1660 C   0  0  2  0  0  3  0  0  0  0  0  0
  189.5320  177.0700  135.9870 N   0  0  0  0  0  0  0  0  0  0  0  0
  185.3890  179.0030  141.4850 C   0  0  0  0  0  2  0  0  0  0  0  0
  182.3270  178.7290  142.4710 C   0  0  2  0  0  3  0  0  0  0  0  0
  184.0400  174.0270  137.2730 C   0  0  0  0  0  2  0  0  0  0  0  0
  184.2200  175.5300  137.0350 C   0  0  1  0  0  3  0  0  0  0  0  0
  186.5390  175.1370  136.2790 N   0  0  0  0  0  2  0  0  0  0  0  0
  185.3990  177.9330  139.3280 O   0  0  0  0  0  0  0  0  0  0  0  0
  187.5580  179.2540  136.6130 C   0  0  0  0  0  1  0  0  0  0  0  0
  188.8220  173.6970  134.7820 C   0  0  0  0  0  1  0  0  0  0  0  0
  185.9000  177.4120  137.0260 C   0  0  1  0  0  3  0  0  0  0  0  0
  187.8400  175.6510  135.9990 C   0  0  0  0  0  0  0  0  0  0  0  0
  181.2410  179.3450  143.2190 N   0  0  0  0  0  2  0  0  0  0  0  0
  179.9850  178.6980  143.4280 C   0  0  0  0  0  0  0  0  0  0  0  0
  179.7590  177.5580  142.9400 O   0  0  0  0  0  0  0  0  0  0  0  0
  178.9310  179.3780  144.2220 C   0  0  0  0  0  1  0  0  0  0  0  0
  2 24  1  1  0  0  0
  4 21  1  0  0  0  0
  4  3  1  0  0  0  0
  5 25  1  6  0  0  0
  6  5  1  0  0  0  0
  7 17  1  0  0  0  0
  7 19  1  1  0  0  0
  9 15  1  0  0  0  0
  9 28  1  0  0  0  0
 10 20  1  0  0  0  0
 11  3  1  0  0  0  0
 12 13  1  0  0  0  0
 12  2  1  0  0  0  0
 12  8  1  1  0  0  0
 13 11  1  6  0  0  0
 14 23  1  6  0  0  0
 15 18  2  0  0  0  0
 16  1  1  0  0  0  0
 17  8  1  6  0  0  0
 17 10  1  0  0  0  0
 18  6  1  0  0  0  0
 19 16  1  0  0  0  0
 20 29  1  1  0  0  0
 20  1  1  0  0  0  0
 22 14  1  0  0  0  0
 22 21  1  1  0  0  0
 22 13  1  0  0  0  0
 24  7  1  0  0  0  0
 26  9  1  0  0  0  0
 27  5  1  0  0  0  0
 27 14  1  0  0  0  0
 27  2  1  0  0  0  0
 28 23  1  0  0  0  0
 28  6  2  0  0  0  0
 29 30  1  0  0  0  0
 30 32  1  0  0  0  0
 31 30  2  0  0  0  0
M  END
>  <MODEL>
5

>  <REMARK>
 VINA RESULT:      -6.7      3.704      5.274
  Name = 
  1 active torsions:
  status: ('A' for Active; 'I' for Inactive)
    1  A    between atoms: C_20  and  N_29
                            x       y       z     vdW  Elec       q    Type
                         _______ _______ _______ _____ _____    ______ ____

>  <TORSDO>
F 1

$$$$
=
 OpenBabel11122410383D

 32 37  0  0  1  0  0  0  0  0999 V2000
  189.0570  174.9380  136.5840 C   0  0  0  0  0  2  0  0  0  0  0  0
  186.4820  178.7290  139.5800 C   0  0  1  0  0  3  0  0  0  0  0  0
  189.2530  177.1710  143.3770 C   0  0  0  0  0  2  0  0  0  0  0  0
  188.0880  177.3160  144.3450 C   0  0  0  0  0  2  0  0  0  0  0  0
  183.9500  178.9560  139.7730 C   0  0  1  0  0  3  0  0  0  0  0  0
  182.8280  178.9710  140.7700 C   0  0  0  0  0  0  0  0  0  0  0  0
  187.3260  177.3830  137.9790 C   0  0  1  0  0  3  0  0  0  0  0  0
  188.9650  178.6050  139.3900 C   0  0  0  0  0  2  0  0  0  0  0  0
  181.8240  178.7240  142.7100 N   0  0  0  0  0  0  0  0  0  0  0  0
  189.8200  177.1450  137.5520 C   0  0  0  0  0  2  0  0  0  0  0  0
  189.0870  178.1790  142.2450 C   0  0  0  0  0  2  0  0  0  0  0  0
  187.8030  178.8580  140.3690 C   0  0  2  0  0  3  0  0  0  0  0  0
  187.8440  177.9190  141.5080 N   0  0  2  0  0  0  0  0  0  0  0  0
  185.3680  178.0390  141.7200 C   0  0  1  0  0  3  0  0  0  0  0  0
  180.9330  179.0710  141.7540 C   0  0  0  0  0  3  0  0  0  0  0  0
  187.7060  174.9400  137.2900 C   0  0  0  0  0  2  0  0  0  0  0  0
  188.7340  177.3230  138.5980 C   0  0  2  0  0  3  0  0  0  0  0  0
  181.5230  179.2250  140.5390 N   0  0  0  0  0  0  0  0  0  0  0  0
  186.9810  176.2490  137.0060 C   0  0  0  0  0  2  0  0  0  0  0  0
  190.1330  175.6630  137.3940 C   0  0  2  0  0  3  0  0  0  0  0  0
  186.7700  177.1750  143.5960 C   0  0  0  0  0  2  0  0  0  0  0  0
  186.7180  178.1740  142.4340 C   0  0  1  0  0  3  0  0  0  0  0  0
  184.2590  178.2960  142.6430 N   0  0  0  0  0  2  0  0  0  0  0  0
  186.3680  177.4460  139.0030 O   0  0  0  0  0  0  0  0  0  0  0  0
  183.8280  180.1490  138.8380 C   0  0  0  0  0  1  0  0  0  0  0  0
  181.5480  178.4620  144.1100 C   0  0  0  0  0  1  0  0  0  0  0  0
  185.3100  179.0030  140.5130 C   0  0  1  0  0  3  0  0  0  0  0  0
  182.9980  178.6470  142.0780 C   0  0  0  0  0  0  0  0  0  0  0  0
  191.4220  175.5170  136.7350 N   0  0  0  0  0  2  0  0  0  0  0  0
  192.6550  175.8580  137.3700 C   0  0  0  0  0  0  0  0  0  0  0  0
  192.6680  176.3330  138.5370 O   0  0  0  0  0  0  0  0  0  0  0  0
  193.9350  175.6600  136.6430 C   0  0  0  0  0  1  0  0  0  0  0  0
  1 16  1  0  0  0  0
  1 20  1  0  0  0  0
  2 24  1  1  0  0  0
  2 12  1  0  0  0  0
  2 27  1  0  0  0  0
  3  4  1  0  0  0  0
  5 25  1  6  0  0  0
  5 27  1  0  0  0  0
  5  6  1  0  0  0  0
  6 28  2  0  0  0  0
  7 19  1  1  0  0  0
  7 17  1  0  0  0  0
  7 24  1  0  0  0  0
  9 26  1  0  0  0  0
 11  3  1  0  0  0  0
 12  8  1  6  0  0  0
 12 13  1  0  0  0  0
 13 11  1  1  0  0  0
 13 22  1  0  0  0  0
 14 22  1  0  0  0  0
 14 23  1  1  0  0  0
 15  9  1  0  0  0  0
 17 10  1  6  0  0  0
 17  8  1  0  0  0  0
 18  6  1  0  0  0  0
 18 15  2  0  0  0  0
 19 16  1  0  0  0  0
 20 29  1  6  0  0  0
 20 10  1  0  0  0  0
 21  4  1  0  0  0  0
 22 21  1  1  0  0  0
 27 14  1  0  0  0  0
 28 23  1  0  0  0  0
 28  9  1  0  0  0  0
 29 30  1  0  0  0  0
 30 31  2  0  0  0  0
 32 30  1  0  0  0  0
M  END
>  <MODEL>
6

>  <REMARK>
 VINA RESULT:      -6.7      2.306      8.996
  Name = 
  1 active torsions:
  status: ('A' for Active; 'I' for Inactive)
    1  A    between atoms: C_20  and  N_29
                            x       y       z     vdW  Elec       q    Type
                         _______ _______ _______ _____ _____    ______ ____

>  <TORSDO>
F 1

$$$$
=
 OpenBabel11122410383D

 32 37  0  0  1  0  0  0  0  0999 V2000
  186.7210  174.2520  136.2750 C   0  0  0  0  0  2  0  0  0  0  0  0
  184.3010  178.5570  138.6390 C   0  0  1  0  0  3  0  0  0  0  0  0
  187.4630  177.8870  142.3910 C   0  0  0  0  0  2  0  0  0  0  0  0
  186.3880  178.2190  143.4150 C   0  0  0  0  0  2  0  0  0  0  0  0
  181.7920  178.7830  139.0250 C   0  0  1  0  0  3  0  0  0  0  0  0
  180.7660  178.9930  140.1010 C   0  0  0  0  0  0  0  0  0  0  0  0
  185.0420  176.9130  137.2840 C   0  0  1  0  0  3  0  0  0  0  0  0
  186.7590  178.4320  138.2380 C   0  0  0  0  0  2  0  0  0  0  0  0
  179.9540  179.1520  142.1370 N   0  0  0  0  0  0  0  0  0  0  0  0
  187.4920  176.6260  136.6760 C   0  0  0  0  0  2  0  0  0  0  0  0
  187.1580  178.6280  141.0930 C   0  0  0  0  0  2  0  0  0  0  0  0
  185.6840  178.8720  139.2500 C   0  0  2  0  0  3  0  0  0  0  0  0
  185.8630  178.1980  140.5520 N   0  0  2  0  0  0  0  0  0  0  0  0
  183.4140  178.3240  140.9740 C   0  0  1  0  0  3  0  0  0  0  0  0
  178.9670  179.2740  141.2210 C   0  0  0  0  0  3  0  0  0  0  0  0
  185.4420  174.3840  137.0930 C   0  0  0  0  0  2  0  0  0  0  0  0
  186.5010  177.0070  137.7620 C   0  0  2  0  0  3  0  0  0  0  0  0
  179.4370  179.1740  139.9500 N   0  0  0  0  0  0  0  0  0  0  0  0
  184.6480  175.5920  136.6110 C   0  0  0  0  0  2  0  0  0  0  0  0
  187.8410  175.1490  136.8040 C   0  0  2  0  0  3  0  0  0  0  0  0
  185.0120  177.9010  142.8450 C   0  0  0  0  0  2  0  0  0  0  0  0
  184.8180  178.6280  141.5090 C   0  0  1  0  0  3  0  0  0  0  0  0
  182.3860  178.7560  141.9260 N   0  0  0  0  0  2  0  0  0  0  0  0
  184.1800  177.1790  138.3600 O   0  0  0  0  0  0  0  0  0  0  0  0
  181.5420  179.7460  137.8750 C   0  0  0  0  0  1  0  0  0  0  0  0
  179.8180  179.1910  143.5810 C   0  0  0  0  0  1  0  0  0  0  0  0
  183.2110  179.0070  139.6020 C   0  0  1  0  0  3  0  0  0  0  0  0
  181.0670  178.9590  141.4250 C   0  0  0  0  0  0  0  0  0  0  0  0
  189.0690  174.8850  136.0690 N   0  0  0  0  0  2  0  0  0  0  0  0
  190.3290  174.6990  136.7150 C   0  0  0  0  0  0  0  0  0  0  0  0
  190.4290  174.7850  137.9680 O   0  0  0  0  0  0  0  0  0  0  0  0
  191.5360  174.4080  135.9000 C   0  0  0  0  0  1  0  0  0  0  0  0
  1 20  1  0  0  0  0
  1 16  1  0  0  0  0
  2 24  1  1  0  0  0
  2 12  1  0  0  0  0
  2 27  1  0  0  0  0
  3  4  1  0  0  0  0
  5 25  1  6  0  0  0
  5 27  1  0  0  0  0
  5  6  1  0  0  0  0
  6 28  2  0  0  0  0
  7 19  1  1  0  0  0
  7 17  1  0  0  0  0
  7 24  1  0  0  0  0
  9 26  1  0  0  0  0
 10 20  1  0  0  0  0
 11  3  1  0  0  0  0
 12  8  1  6  0  0  0
 12 13  1  0  0  0  0
 13 11  1  1  0  0  0
 13 22  1  0  0  0  0
 14 22  1  0  0  0  0
 14 23  1  1  0  0  0
 15  9  1  0  0  0  0
 17 10  1  6  0  0  0
 17  8  1  0  0  0  0
 18  6  1  0  0  0  0
 18 15  2  0  0  0  0
 19 16  1  0  0  0  0
 20 29  1  6  0  0  0
 21  4  1  0  0  0  0
 22 21  1  1  0  0  0
 27 14  1  0  0  0  0
 28 23  1  0  0  0  0
 28  9  1  0  0  0  0
 29 30  1  0  0  0  0
 30 31  2  0  0  0  0
 32 30  1  0  0  0  0
M  END
>  <MODEL>
7

>  <REMARK>
 VINA RESULT:      -6.5      3.294      9.824
  Name = 
  1 active torsions:
  status: ('A' for Active; 'I' for Inactive)
    1  A    between atoms: C_20  and  N_29
                            x       y       z     vdW  Elec       q    Type
                         _______ _______ _______ _____ _____    ______ ____

>  <TORSDO>
F 1

$$$$
=
 OpenBabel11122410383D

 32 37  0  0  1  0  0  0  0  0999 V2000
  189.0840  174.1020  136.2790 C   0  0  0  0  0  2  0  0  0  0  0  0
  187.2820  178.2550  139.3580 C   0  0  1  0  0  3  0  0  0  0  0  0
  190.8010  176.9770  142.5990 C   0  0  0  0  0  2  0  0  0  0  0  0
  189.8810  177.2570  143.7790 C   0  0  0  0  0  2  0  0  0  0  0  0
  184.8590  178.5890  140.0740 C   0  0  1  0  0  3  0  0  0  0  0  0
  183.9840  178.7400  141.2850 C   0  0  0  0  0  0  0  0  0  0  0  0
  187.7350  176.7300  137.7590 C   0  0  1  0  0  3  0  0  0  0  0  0
  189.6600  178.0250  138.6460 C   0  0  0  0  0  2  0  0  0  0  0  0
  183.4290  178.7190  143.4110 N   0  0  0  0  0  0  0  0  0  0  0  0
  190.0710  176.3640  136.8250 C   0  0  0  0  0  2  0  0  0  0  0  0
  190.4030  177.8750  141.4340 C   0  0  0  0  0  2  0  0  0  0  0  0
  188.7470  178.4130  139.8230 C   0  0  2  0  0  3  0  0  0  0  0  0
  189.0250  177.5880  141.0160 N   0  0  2  0  0  0  0  0  0  0  0  0
  186.6590  177.8160  141.7490 C   0  0  1  0  0  3  0  0  0  0  0  0
  182.3540  179.0030  142.6420 C   0  0  0  0  0  3  0  0  0  0  0  0
  187.9220  174.2190  137.2580 C   0  0  0  0  0  2  0  0  0  0  0  0
  189.2440  176.6810  138.0590 C   0  0  2  0  0  3  0  0  0  0  0  0
  182.6640  179.0170  141.3190 N   0  0  0  0  0  0  0  0  0  0  0  0
  187.1700  175.5200  137.0070 C   0  0  0  0  0  2  0  0  0  0  0  0
  190.3210  174.8630  136.7560 C   0  0  2  0  0  3  0  0  0  0  0  0
  188.4280  177.0900  143.3530 C   0  0  0  0  0  2  0  0  0  0  0  0
  188.1340  177.9720  142.1340 C   0  0  1  0  0  3  0  0  0  0  0  0
  185.7840  178.2010  142.8610 N   0  0  0  0  0  2  0  0  0  0  0  0
  187.0270  176.9270  138.9560 O   0  0  0  0  0  0  0  0  0  0  0  0
  184.5490  179.6880  139.0710 C   0  0  0  0  0  1  0  0  0  0  0  0
  183.4650  178.6050  144.8580 C   0  0  0  0  0  1  0  0  0  0  0  0
  186.3480  178.6590  140.4910 C   0  0  1  0  0  3  0  0  0  0  0  0
  184.4340  178.5400  142.5510 C   0  0  0  0  0  0  0  0  0  0  0  0
  191.4320  174.6080  135.8510 N   0  0  0  0  0  2  0  0  0  0  0  0
  192.7310  174.2360  136.3110 C   0  0  0  0  0  0  0  0  0  0  0  0
  192.9740  174.1390  137.5440 O   0  0  0  0  0  0  0  0  0  0  0  0
  193.8110  173.9670  135.3270 C   0  0  0  0  0  1  0  0  0  0  0  0
  1 20  1  0  0  0  0
  1 16  1  0  0  0  0
  2 24  1  1  0  0  0
  2 12  1  0  0  0  0
  2 27  1  0  0  0  0
  3  4  1  0  0  0  0
  5 25  1  6  0  0  0
  5 27  1  0  0  0  0
  5  6  1  0  0  0  0
  6 18  1  0  0  0  0
  6 28  2  0  0  0  0
  7 19  1  1  0  0  0
  7 17  1  0  0  0  0
  7 24  1  0  0  0  0
  9 26  1  0  0  0  0
 11  3  1  0  0  0  0
 12  8  1  6  0  0  0
 12 13  1  0  0  0  0
 13 11  1  1  0  0  0
 13 22  1  0  0  0  0
 14 22  1  0  0  0  0
 14 23  1  1  0  0  0
 15  9  1  0  0  0  0
 17 10  1  6  0  0  0
 17  8  1  0  0  0  0
 18 15  2  0  0  0  0
 19 16  1  0  0  0  0
 20 29  1  6  0  0  0
 20 10  1  0  0  0  0
 21  4  1  0  0  0  0
 22 21  1  1  0  0  0
 27 14  1  0  0  0  0
 28 23  1  0  0  0  0
 28  9  1  0  0  0  0
 29 30  1  0  0  0  0
 30 31  2  0  0  0  0
 32 30  1  0  0  0  0
M  END
>  <MODEL>
8

>  <REMARK>
 VINA RESULT:      -6.5      1.982      8.770
  Name = 
  1 active torsions:
  status: ('A' for Active; 'I' for Inactive)
    1  A    between atoms: C_20  and  N_29
                            x       y       z     vdW  Elec       q    Type
                         _______ _______ _______ _____ _____    ______ ____

>  <TORSDO>
F 1

$$$$
=
 OpenBabel11122410383D

 32 37  0  0  1  0  0  0  0  0999 V2000
  187.1820  172.8740  136.7200 C   0  0  0  0  0  2  0  0  0  0  0  0
  184.6570  177.6680  137.5050 C   0  0  1  0  0  3  0  0  0  0  0  0
  187.8360  178.3840  141.2340 C   0  0  0  0  0  2  0  0  0  0  0  0
  186.7530  179.0190  142.0940 C   0  0  0  0  0  2  0  0  0  0  0  0
  182.1430  177.9530  137.8130 C   0  0  1  0  0  3  0  0  0  0  0  0
  181.1130  178.4930  138.7640 C   0  0  0  0  0  0  0  0  0  0  0  0
  185.4380  175.6790  136.7810 C   0  0  1  0  0  3  0  0  0  0  0  0
  187.1170  177.4720  137.1490 C   0  0  0  0  0  2  0  0  0  0  0  0
  180.2980  179.3130  140.6320 N   0  0  0  0  0  0  0  0  0  0  0  0
  187.8950  175.2600  136.2850 C   0  0  0  0  0  2  0  0  0  0  0  0
  187.5120  178.6330  139.7650 C   0  0  0  0  0  2  0  0  0  0  0  0
  186.0320  178.2030  137.9610 C   0  0  2  0  0  3  0  0  0  0  0  0
  186.2280  178.0150  139.4130 N   0  0  2  0  0  0  0  0  0  0  0  0
  183.7770  178.2200  139.7890 C   0  0  1  0  0  3  0  0  0  0  0  0
  179.3080  179.0940  139.7380 C   0  0  0  0  0  3  0  0  0  0  0  0
  185.9010  173.2460  137.4550 C   0  0  0  0  0  2  0  0  0  0  0  0
  186.8950  175.9640  137.1860 C   0  0  2  0  0  3  0  0  0  0  0  0
  179.7800  178.5800  138.5710 N   0  0  0  0  0  0  0  0  0  0  0  0
  185.0770  174.2000  136.5990 C   0  0  0  0  0  2  0  0  0  0  0  0
  188.2800  173.9230  136.9040 C   0  0  2  0  0  3  0  0  0  0  0  0
  185.3860  178.4950  141.6780 C   0  0  0  0  0  2  0  0  0  0  0  0
  185.1730  178.7200  140.1760 C   0  0  1  0  0  3  0  0  0  0  0  0
  182.7390  178.9260  140.5470 N   0  0  0  0  0  2  0  0  0  0  0  0
  184.5700  176.2750  137.7110 O   0  0  0  0  0  0  0  0  0  0  0  0
  181.8690  178.4630  136.4080 C   0  0  0  0  0  1  0  0  0  0  0  0
  180.1610  179.8370  141.9790 C   0  0  0  0  0  1  0  0  0  0  0  0
  183.5560  178.3920  138.2680 C   0  0  1  0  0  3  0  0  0  0  0  0
  181.4150  178.9160  140.0180 C   0  0  0  0  0  0  0  0  0  0  0  0
  189.5130  173.4530  136.2910 N   0  0  0  0  0  2  0  0  0  0  0  0
  190.8030  173.7540  136.8260 C   0  0  0  0  0  0  0  0  0  0  0  0
  190.9210  174.4740  137.8540 O   0  0  0  0  0  0  0  0  0  0  0  0
  192.0180  173.2200  136.1600 C   0  0  0  0  0  1  0  0  0  0  0  0
  1 20  1  0  0  0  0
  1 16  1  0  0  0  0
  2 24  1  1  0  0  0
  2 12  1  0  0  0  0
  2 27  1  0  0  0  0
  3  4  1  0  0  0  0
  5 25  1  6  0  0  0
  5 27  1  0  0  0  0
  5  6  1  0  0  0  0
  6 28  2  0  0  0  0
  7 19  1  1  0  0  0
  7 17  1  0  0  0  0
  7 24  1  0  0  0  0
  8 17  1  0  0  0  0
  9 26  1  0  0  0  0
 10 20  1  0  0  0  0
 11  3  1  0  0  0  0
 12  8  1  6  0  0  0
 12 13  1  0  0  0  0
 13 11  1  1  0  0  0
 13 22  1  0  0  0  0
 14 22  1  0  0  0  0
 14 23  1  1  0  0  0
 15  9  1  0  0  0  0
 17 10  1  6  0  0  0
 18  6  1  0  0  0  0
 18 15  2  0  0  0  0
 19 16  1  0  0  0  0
 20 29  1  6  0  0  0
 21  4  1  0  0  0  0
 22 21  1  1  0  0  0
 27 14  1  0  0  0  0
 28 23  1  0  0  0  0
 28  9  1  0  0  0  0
 29 30  1  0  0  0  0
 30 31  2  0  0  0  0
 32 30  1  0  0  0  0
M  END
>  <MODEL>
9

>  <REMARK>
 VINA RESULT:      -6.2      3.532      9.560
  Name = 
  1 active torsions:
  status: ('A' for Active; 'I' for Inactive)
    1  A    between atoms: C_20  and  N_29
                            x       y       z     vdW  Elec       q    Type
                         _______ _______ _______ _____ _____    ______ ____

>  <TORSDO>
F 1

$$$$
