=
 OpenBabel11122411403D

 37 44  0  0  1  0  0  0  0  0999 V2000
  187.5950  177.5210  139.6820 C   0  0  0  0  0  2  0  0  0  0  0  0
  190.3010  177.3300  143.1720 C   0  0  0  0  0  0  0  0  0  0  0  0
  186.2550  178.1340  144.1140 C   0  0  0  0  0  0  0  0  0  0  0  0
  187.9950  177.9150  138.2570 C   0  0  2  0  0  3  0  0  0  0  0  0
  183.8530  178.0100  141.2870 C   0  0  0  0  0  3  0  0  0  0  0  0
  188.4980  177.5410  144.8970 C   0  0  0  0  0  0  0  0  0  0  0  0
  185.7600  178.3100  142.8770 C   0  0  0  0  0  0  0  0  0  0  0  0
  185.5230  177.8340  137.8510 C   0  0  0  0  0  0  0  0  0  0  0  0
  187.6810  178.0500  143.9990 C   0  0  0  0  0  0  0  0  0  0  0  0
  184.2850  178.2890  142.5340 C   0  0  0  0  0  0  0  0  0  0  0  0
  187.9400  177.0670  146.2140 C   0  0  0  0  0  2  0  0  0  0  0  0
  186.8220  178.4530  137.4350 C   0  0  0  0  0  2  0  0  0  0  0  0
  188.0570  178.2920  142.6520 C   0  0  0  0  0  0  0  0  0  0  0  0
  190.1920  175.9090  142.6480 C   0  0  0  0  0  1  0  0  0  0  0  0
  184.4700  178.7710  145.8230 C   0  0  0  0  0  2  0  0  0  0  0  0
  186.5920  177.7410  146.5640 C   0  0  0  0  0  2  0  0  0  0  0  0
  189.4940  178.2690  142.2390 C   0  0  0  0  0  2  0  0  0  0  0  0
  184.7090  178.4670  138.9390 C   0  0  1  0  0  3  0  0  0  0  0  0
  184.8170  177.7480  140.1980 C   0  0  1  0  0  3  0  0  0  0  0  0
  185.5630  177.7780  145.4080 C   0  0  2  0  0  3  0  0  0  0  0  0
  186.9440  178.4470  141.9400 C   0  0  0  0  0  0  0  0  0  0  0  0
  189.8470  177.3600  144.5460 O   0  0  0  0  0  0  0  0  0  0  0  0
  183.2510  178.4720  143.6350 C   0  0  1  0  0  3  0  0  0  0  0  0
  191.7580  177.7400  143.1290 C   0  0  0  0  0  1  0  0  0  0  0  0
  185.5370  179.0300  140.0400 N   0  0  1  0  0  0  0  0  0  0  0  0
  185.1310  176.8150  137.3050 O   0  0  0  0  0  0  0  0  0  0  0  0
  186.9150  178.6760  140.4400 C   0  0  2  0  0  3  0  0  0  0  0  0
  183.7310  179.4660  144.6850 C   0  0  0  0  0  2  0  0  0  0  0  0
  180.7750  178.6670  143.9670 C   0  0  0  0  0  3  0  0  0  0  0  0
  181.8870  178.8790  143.1450 C   0  0  0  0  0  0  0  0  0  0  0  0
  181.7110  179.4540  141.8760 C   0  0  0  0  0  3  0  0  0  0  0  0
  180.2190  180.5280  139.8560 Cl  0  0  0  0  0  0  0  0  0  0  0  0
  179.3260  179.6010  142.2660 C   0  0  0  0  0  3  0  0  0  0  0  0
  180.4330  179.8130  141.4390 C   0  0  0  0  0  0  0  0  0  0  0  0
  179.4970  179.0280  143.5290 C   0  0  0  0  0  3  0  0  0  0  0  0
  189.9070  176.3120  138.2230 C   0  0  0  0  0  1  0  0  0  0  0  0
  188.6140  176.7250  137.5430 C   0  0  0  0  0  2  0  0  0  0  0  0
  1 27  1  0  0  0  0
  2 22  1  0  0  0  0
  3 20  1  0  0  0  0
  4 37  1  6  0  0  0
  4  1  1  0  0  0  0
  5 10  2  0  0  0  0
  6 11  1  0  0  0  0
  7  3  2  0  0  0  0
  9  3  1  0  0  0  0
  9  6  2  0  0  0  0
 10  7  1  0  0  0  0
 10 23  1  0  0  0  0
 11 16  1  0  0  0  0
 12  8  1  0  0  0  0
 12  4  1  0  0  0  0
 13  9  1  0  0  0  0
 14  2  1  0  0  0  0
 17 13  1  0  0  0  0
 17  2  1  0  0  0  0
 18  8  1  6  0  0  0
 18 25  1  0  0  0  0
 18 19  1  0  0  0  0
 19  5  1  1  0  0  0
 20 15  1  1  0  0  0
 20 16  1  0  0  0  0
 21 13  2  0  0  0  0
 21  7  1  0  0  0  0
 22  6  1  0  0  0  0
 23 30  1  6  0  0  0
 23 28  1  0  0  0  0
 24  2  1  0  0  0  0
 25 19  1  0  0  0  0
 25 27  1  0  0  0  0
 26  8  2  0  0  0  0
 27 21  1  0  0  0  0
 28 15  1  0  0  0  0
 30 29  2  0  0  0  0
 31 30  1  0  0  0  0
 32 34  1  0  0  0  0
 33 35  2  0  0  0  0
 34 31  2  0  0  0  0
 34 33  1  0  0  0  0
 35 29  1  0  0  0  0
 37 36  1  0  0  0  0
M  END
>  <MODEL>
1

>  <REMARK>
 VINA RESULT:     -10.9      0.000      0.000
  Name = 
  2 active torsions:
  status: ('A' for Active; 'I' for Inactive)
    1  A    between atoms: C_4  and  C_37
    2  A    between atoms: C_23  and  C_30
                            x       y       z     vdW  Elec       q    Type
                         _______ _______ _______ _____ _____    ______ ____

>  <TORSDO>
F 2

$$$$
=
 OpenBabel11122411403D

 37 44  0  0  1  0  0  0  0  0999 V2000
  184.4380  178.1160  138.8400 C   0  0  0  0  0  2  0  0  0  0  0  0
  188.1610  177.4350  136.5540 C   0  0  0  0  0  0  0  0  0  0  0  0
  188.6610  177.5580  140.7540 C   0  0  0  0  0  0  0  0  0  0  0  0
  183.2000  178.8640  138.3360 C   0  0  2  0  0  3  0  0  0  0  0  0
  185.5580  177.8160  142.7740 C   0  0  0  0  0  3  0  0  0  0  0  0
  189.6150  177.0520  138.5560 C   0  0  1  0  0  3  0  0  0  0  0  0
  187.4320  177.9550  141.1230 C   0  0  2  0  0  3  0  0  0  0  0  0
  182.4360  178.6080  140.7090 C   0  0  0  0  0  0  0  0  0  0  0  0
  188.7370  177.6590  139.3270 C   0  0  0  0  0  0  0  0  0  0  0  0
  186.8840  177.8500  142.5310 C   0  0  0  0  0  0  0  0  0  0  0  0
  190.7080  176.2330  139.1920 C   0  0  0  0  0  2  0  0  0  0  0  0
  182.3500  179.4430  139.4700 C   0  0  0  0  0  2  0  0  0  0  0  0
  187.5390  178.2390  138.8350 C   0  0  0  0  0  0  0  0  0  0  0  0
  187.3390  176.1670  136.4050 C   0  0  0  0  0  1  0  0  0  0  0  0
  190.1930  177.5920  142.7960 C   0  0  0  0  0  2  0  0  0  0  0  0
  190.9970  176.6590  140.6520 C   0  0  0  0  0  2  0  0  0  0  0  0
  187.3400  178.4670  137.3700 C   0  0  0  0  0  2  0  0  0  0  0  0
  183.5060  178.8850  141.7230 C   0  0  1  0  0  3  0  0  0  0  0  0
  184.5870  177.9160  141.6630 C   0  0  1  0  0  3  0  0  0  0  0  0
  189.7390  176.8440  141.5360 C   0  0  2  0  0  3  0  0  0  0  0  0
  186.7230  178.4290  139.8680 C   0  0  0  0  0  0  0  0  0  0  0  0
  189.4300  177.1030  137.1650 O   0  0  0  0  0  0  0  0  0  0  0  0
  187.8400  177.6660  143.7010 C   0  0  1  0  0  3  0  0  0  0  0  0
  188.4130  178.0000  135.1730 C   0  0  0  0  0  1  0  0  0  0  0  0
  184.8070  179.2700  141.1130 N   0  0  1  0  0  0  0  0  0  0  0  0
  181.6380  177.7020  140.8920 O   0  0  0  0  0  0  0  0  0  0  0  0
  185.3170  178.9870  139.7560 C   0  0  2  0  0  3  0  0  0  0  0  0
  189.1320  178.4410  143.4870 C   0  0  0  0  0  2  0  0  0  0  0  0
  185.9860  178.6050  145.1010 C   0  0  0  0  0  3  0  0  0  0  0  0
  187.2560  178.0210  145.0420 C   0  0  0  0  0  0  0  0  0  0  0  0
  187.9660  177.7870  146.2310 C   0  0  0  0  0  3  0  0  0  0  0  0
  188.2970  177.8430  148.9410 Cl  0  0  0  0  0  0  0  0  0  0  0  0
  186.1370  178.7180  147.5150 C   0  0  0  0  0  3  0  0  0  0  0  0
  187.4060  178.1360  147.4630 C   0  0  0  0  0  0  0  0  0  0  0  0
  185.4270  178.9530  146.3340 C   0  0  0  0  0  3  0  0  0  0  0  0
  183.1610  176.7490  137.0130 C   0  0  0  0  0  1  0  0  0  0  0  0
  182.3470  177.9420  137.4800 C   0  0  0  0  0  2  0  0  0  0  0  0
  1 27  1  0  0  0  0
  2 22  1  0  0  0  0
  2 17  1  0  0  0  0
  3  7  1  0  0  0  0
  3 20  1  0  0  0  0
  4 37  1  1  0  0  0
  4  1  1  0  0  0  0
  4 12  1  0  0  0  0
  6 11  1  1  0  0  0
  6  9  1  0  0  0  0
  7 21  1  6  0  0  0
  7 10  1  0  0  0  0
  8 26  2  0  0  0  0
  9  3  2  0  0  0  0
 10  5  2  0  0  0  0
 10 23  1  0  0  0  0
 11 16  1  0  0  0  0
 12  8  1  0  0  0  0
 13  9  1  0  0  0  0
 13 21  2  0  0  0  0
 14  2  1  0  0  0  0
 15 28  1  0  0  0  0
 17 13  1  0  0  0  0
 18  8  1  6  0  0  0
 19 18  1  0  0  0  0
 19  5  1  1  0  0  0
 20 16  1  6  0  0  0
 20 15  1  0  0  0  0
 22  6  1  0  0  0  0
 23 30  1  1  0  0  0
 24  2  1  0  0  0  0
 25 19  1  0  0  0  0
 25 18  1  0  0  0  0
 27 21  1  0  0  0  0
 27 25  1  0  0  0  0
 28 23  1  0  0  0  0
 29 35  1  0  0  0  0
 30 29  2  0  0  0  0
 30 31  1  0  0  0  0
 31 34  2  0  0  0  0
 34 33  1  0  0  0  0
 34 32  1  0  0  0  0
 35 33  2  0  0  0  0
 36 37  1  0  0  0  0
M  END
>  <MODEL>
2

>  <REMARK>
 VINA RESULT:     -10.3      2.955      5.944
  Name = 
  2 active torsions:
  status: ('A' for Active; 'I' for Inactive)
    1  A    between atoms: C_4  and  C_37
    2  A    between atoms: C_23  and  C_30
                            x       y       z     vdW  Elec       q    Type
                         _______ _______ _______ _____ _____    ______ ____

>  <TORSDO>
F 2

$$$$
=
 OpenBabel11122411403D

 37 44  0  0  1  0  0  0  0  0999 V2000
  187.2970  178.1200  144.9180 C   0  0  0  0  0  2  0  0  0  0  0  0
  191.1610  176.7260  143.2820 C   0  0  0  0  0  0  0  0  0  0  0  0
  188.2500  177.6910  140.3660 C   0  0  0  0  0  0  0  0  0  0  0  0
  186.7130  177.7460  146.2830 C   0  0  2  0  0  3  0  0  0  0  0  0
  185.0840  179.1620  141.6260 C   0  0  0  0  0  3  0  0  0  0  0  0
  190.5820  177.1480  140.8820 C   0  0  0  0  0  0  0  0  0  0  0  0
  187.1830  177.8840  141.1590 C   0  0  0  0  0  0  0  0  0  0  0  0
  184.6900  178.9500  145.4250 C   0  0  0  0  0  0  0  0  0  0  0  0
  189.2990  177.1500  141.1790 C   0  0  0  0  0  0  0  0  0  0  0  0
  185.9130  178.5900  140.7290 C   0  0  0  0  0  0  0  0  0  0  0  0
  191.0270  177.6770  139.5440 C   0  0  0  0  0  2  0  0  0  0  0  0
  185.1890  177.8700  146.3350 C   0  0  0  0  0  2  0  0  0  0  0  0
  188.8010  176.9130  142.4870 C   0  0  0  0  0  0  0  0  0  0  0  0
  191.4280  178.0970  143.8780 C   0  0  0  0  0  1  0  0  0  0  0  0
  187.4930  177.7280  137.9290 C   0  0  0  0  0  2  0  0  0  0  0  0
  189.9010  177.6310  138.4830 C   0  0  0  0  0  2  0  0  0  0  0  0
  189.6830  176.3440  143.5530 C   0  0  0  0  0  2  0  0  0  0  0  0
  184.3530  178.6280  144.0000 C   0  0  1  0  0  3  0  0  0  0  0  0
  185.3740  179.0860  143.0730 C   0  0  1  0  0  3  0  0  0  0  0  0
  188.5330  178.1750  138.9630 C   0  0  2  0  0  3  0  0  0  0  0  0
  187.5420  177.3410  142.5280 C   0  0  0  0  0  0  0  0  0  0  0  0
  191.4950  176.7530  141.8740 O   0  0  0  0  0  0  0  0  0  0  0  0
  185.6100  178.7640  139.2480 C   0  0  1  0  0  3  0  0  0  0  0  0
  192.0550  175.7240  143.9790 C   0  0  0  0  0  1  0  0  0  0  0  0
  185.2830  177.6440  143.3840 N   0  0  1  0  0  0  0  0  0  0  0  0
  184.5610  180.0890  145.8430 O   0  0  0  0  0  0  0  0  0  0  0  0
  186.6700  177.3100  143.7690 C   0  0  2  0  0  3  0  0  0  0  0  0
  186.0690  177.5560  138.4440 C   0  0  0  0  0  2  0  0  0  0  0  0
  183.2750  177.9890  138.7720 C   0  0  0  0  0  3  0  0  0  0  0  0
  184.1660  179.0560  138.9400 C   0  0  0  0  0  0  0  0  0  0  0  0
  183.7010  180.3740  138.8070 C   0  0  0  0  0  3  0  0  0  0  0  0
  181.7840  182.2630  138.3440 Cl  0  0  0  0  0  0  0  0  0  0  0  0
  181.4720  179.5490  138.3450 C   0  0  0  0  0  3  0  0  0  0  0  0
  182.3570  180.6180  138.5100 C   0  0  0  0  0  0  0  0  0  0  0  0
  181.9310  178.2350  138.4760 C   0  0  0  0  0  3  0  0  0  0  0  0
  188.3050  177.7960  148.2030 C   0  0  0  0  0  1  0  0  0  0  0  0
  187.3330  178.6090  147.3690 C   0  0  0  0  0  2  0  0  0  0  0  0
  1  4  1  0  0  0  0
  2 17  1  0  0  0  0
  2 14  1  0  0  0  0
  2 24  1  0  0  0  0
  3  7  2  0  0  0  0
  3  9  1  0  0  0  0
  4 12  1  0  0  0  0
  4 37  1  1  0  0  0
  6  9  2  0  0  0  0
  6 22  1  0  0  0  0
  7 21  1  0  0  0  0
  8 26  2  0  0  0  0
  8 12  1  0  0  0  0
  9 13  1  0  0  0  0
 10  7  1  0  0  0  0
 10  5  2  0  0  0  0
 11  6  1  0  0  0  0
 13 21  2  0  0  0  0
 13 17  1  0  0  0  0
 15 28  1  0  0  0  0
 16 20  1  0  0  0  0
 16 11  1  0  0  0  0
 18  8  1  1  0  0  0
 19  5  1  6  0  0  0
 19 25  1  0  0  0  0
 19 18  1  0  0  0  0
 20 15  1  6  0  0  0
 20  3  1  0  0  0  0
 21 27  1  0  0  0  0
 22  2  1  0  0  0  0
 23 30  1  1  0  0  0
 23 10  1  0  0  0  0
 25 27  1  0  0  0  0
 25 18  1  0  0  0  0
 27  1  1  0  0  0  0
 28 23  1  0  0  0  0
 29 30  1  0  0  0  0
 31 30  2  0  0  0  0
 32 34  1  0  0  0  0
 33 35  1  0  0  0  0
 33 34  2  0  0  0  0
 34 31  1  0  0  0  0
 35 29  2  0  0  0  0
 37 36  1  0  0  0  0
M  END
>  <MODEL>
3

>  <REMARK>
 VINA RESULT:     -10.1      2.401      5.590
  Name = 
  2 active torsions:
  status: ('A' for Active; 'I' for Inactive)
    1  A    between atoms: C_4  and  C_37
    2  A    between atoms: C_23  and  C_30
                            x       y       z     vdW  Elec       q    Type
                         _______ _______ _______ _____ _____    ______ ____

>  <TORSDO>
F 2

$$$$
=
 OpenBabel11122411403D

 37 44  0  0  1  0  0  0  0  0999 V2000
  188.7610  177.7780  141.0740 C   0  0  0  0  0  2  0  0  0  0  0  0
  184.5180  178.5880  142.0130 C   0  0  0  0  0  0  0  0  0  0  0  0
  186.9700  177.8730  145.3860 C   0  0  0  0  0  0  0  0  0  0  0  0
  189.2920  177.1640  139.7750 C   0  0  2  0  0  3  0  0  0  0  0  0
  190.6020  177.4890  144.7270 C   0  0  0  0  0  3  0  0  0  0  0  0
  184.8160  178.6280  144.4990 C   0  0  1  0  0  3  0  0  0  0  0  0
  188.1010  177.4880  144.7720 C   0  0  2  0  0  3  0  0  0  0  0  0
  191.4670  177.1320  141.0180 C   0  0  0  0  0  0  0  0  0  0  0  0
  185.9470  177.9640  144.3860 C   0  0  0  0  0  0  0  0  0  0  0  0
  189.4590  177.4260  145.4410 C   0  0  0  0  0  0  0  0  0  0  0  0
  184.4850  179.3010  145.8050 C   0  0  0  0  0  2  0  0  0  0  0  0
  190.6470  176.4770  139.9490 C   0  0  0  0  0  2  0  0  0  0  0  0
  186.4650  177.5130  143.1450 C   0  0  0  0  0  0  0  0  0  0  0  0
  185.0960  179.9020  141.5170 C   0  0  0  0  0  1  0  0  0  0  0  0
  187.2140  177.4910  147.8980 C   0  0  0  0  0  2  0  0  0  0  0  0
  185.2310  178.6680  147.0040 C   0  0  0  0  0  2  0  0  0  0  0  0
  185.6120  177.4940  141.9170 C   0  0  0  0  0  2  0  0  0  0  0  0
  191.3450  176.6700  142.4390 C   0  0  1  0  0  3  0  0  0  0  0  0
  190.5640  177.5870  143.2530 C   0  0  1  0  0  3  0  0  0  0  0  0
  186.7430  178.4230  146.7740 C   0  0  2  0  0  3  0  0  0  0  0  0
  187.7510  177.2220  143.3210 C   0  0  0  0  0  0  0  0  0  0  0  0
  184.0120  178.7740  143.3550 O   0  0  0  0  0  0  0  0  0  0  0  0
  189.5540  177.4050  146.9590 C   0  0  1  0  0  3  0  0  0  0  0  0
  183.3680  178.2040  141.1050 C   0  0  0  0  0  1  0  0  0  0  0  0
  189.9530  176.3100  142.8230 N   0  0  1  0  0  0  0  0  0  0  0  0
  192.2300  178.0400  140.7320 O   0  0  0  0  0  0  0  0  0  0  0  0
  188.6800  176.7510  142.2180 C   0  0  2  0  0  3  0  0  0  0  0  0
  188.4120  176.6060  147.5740 C   0  0  0  0  0  2  0  0  0  0  0  0
  191.4320  175.7470  146.9350 C   0  0  0  0  0  3  0  0  0  0  0  0
  190.8670  176.8990  147.4930 C   0  0  0  0  0  0  0  0  0  0  0  0
  191.5260  177.5540  148.5460 C   0  0  0  0  0  3  0  0  0  0  0  0
  193.5560  177.8780  150.3450 Cl  0  0  0  0  0  0  0  0  0  0  0  0
  193.3000  175.9080  148.4690 C   0  0  0  0  0  3  0  0  0  0  0  0
  192.7390  177.0580  149.0310 C   0  0  0  0  0  0  0  0  0  0  0  0
  192.6460  175.2530  147.4210 C   0  0  0  0  0  3  0  0  0  0  0  0
  189.7340  177.6050  137.3590 C   0  0  0  0  0  1  0  0  0  0  0  0
  189.3960  178.2330  138.6990 C   0  0  0  0  0  2  0  0  0  0  0  0
  1 27  1  0  0  0  0
  2 22  1  0  0  0  0
  3 20  1  0  0  0  0
  4 37  1  6  0  0  0
  4 12  1  0  0  0  0
  4  1  1  0  0  0  0
  5 10  2  0  0  0  0
  6 11  1  6  0  0  0
  7 21  1  6  0  0  0
  7  3  1  0  0  0  0
  7 10  1  0  0  0  0
  9  6  1  0  0  0  0
  9  3  2  0  0  0  0
 10 23  1  0  0  0  0
 11 16  1  0  0  0  0
 12  8  1  0  0  0  0
 13 21  2  0  0  0  0
 13  9  1  0  0  0  0
 14  2  1  0  0  0  0
 17  2  1  0  0  0  0
 17 13  1  0  0  0  0
 18  8  1  6  0  0  0
 18 25  1  0  0  0  0
 18 19  1  0  0  0  0
 19  5  1  1  0  0  0
 20 16  1  1  0  0  0
 20 15  1  0  0  0  0
 22  6  1  0  0  0  0
 23 30  1  6  0  0  0
 23 28  1  0  0  0  0
 24  2  1  0  0  0  0
 25 19  1  0  0  0  0
 26  8  2  0  0  0  0
 27 25  1  0  0  0  0
 27 21  1  0  0  0  0
 28 15  1  0  0  0  0
 29 35  2  0  0  0  0
 29 30  1  0  0  0  0
 30 31  2  0  0  0  0
 31 34  1  0  0  0  0
 33 34  2  0  0  0  0
 34 32  1  0  0  0  0
 35 33  1  0  0  0  0
 36 37  1  0  0  0  0
M  END
>  <MODEL>
4

>  <REMARK>
 VINA RESULT:     -10.1      3.930      7.537
  Name = 
  2 active torsions:
  status: ('A' for Active; 'I' for Inactive)
    1  A    between atoms: C_4  and  C_37
    2  A    between atoms: C_23  and  C_30
                            x       y       z     vdW  Elec       q    Type
                         _______ _______ _______ _____ _____    ______ ____

>  <TORSDO>
F 2

$$$$
=
 OpenBabel11122411403D

 37 44  0  0  1  0  0  0  0  0999 V2000
  187.9320  178.0560  145.6530 C   0  0  0  0  0  2  0  0  0  0  0  0
  190.9720  177.0630  142.6010 C   0  0  0  0  0  0  0  0  0  0  0  0
  187.1560  178.0250  141.0480 C   0  0  0  0  0  0  0  0  0  0  0  0
  187.9080  177.5430  147.0960 C   0  0  2  0  0  3  0  0  0  0  0  0
  184.6210  179.1710  143.5050 C   0  0  0  0  0  3  0  0  0  0  0  0
  189.5330  177.6140  140.6270 C   0  0  1  0  0  3  0  0  0  0  0  0
  186.4490  178.0840  142.1890 C   0  0  2  0  0  3  0  0  0  0  0  0
  185.6640  178.6580  147.1490 C   0  0  0  0  0  0  0  0  0  0  0  0
  188.4510  177.5030  141.3690 C   0  0  0  0  0  0  0  0  0  0  0  0
  185.0830  178.7260  142.3180 C   0  0  0  0  0  0  0  0  0  0  0  0
  189.4320  178.2680  139.2740 C   0  0  0  0  0  2  0  0  0  0  0  0
  186.5070  177.5550  147.7100 C   0  0  0  0  0  2  0  0  0  0  0  0
  188.4810  177.1370  142.7400 C   0  0  0  0  0  0  0  0  0  0  0  0
  191.3850  178.4030  143.1840 C   0  0  0  0  0  1  0  0  0  0  0  0
  185.5520  178.1830  139.0680 C   0  0  0  0  0  2  0  0  0  0  0  0
  187.9970  178.2190  138.6960 C   0  0  0  0  0  2  0  0  0  0  0  0
  189.7150  176.5580  143.3540 C   0  0  0  0  0  2  0  0  0  0  0  0
  184.8390  178.4170  145.9210 C   0  0  1  0  0  3  0  0  0  0  0  0
  185.4270  179.0130  144.7340 C   0  0  1  0  0  3  0  0  0  0  0  0
  186.8820  178.6280  139.6900 C   0  0  2  0  0  3  0  0  0  0  0  0
  187.3100  177.4700  143.2760 C   0  0  0  0  0  0  0  0  0  0  0  0
  190.7620  177.2140  141.1770 O   0  0  0  0  0  0  0  0  0  0  0  0
  184.2490  178.9840  141.0730 C   0  0  1  0  0  3  0  0  0  0  0  0
  192.1000  176.0790  142.8280 C   0  0  0  0  0  1  0  0  0  0  0  0
  185.5150  177.5480  144.9200 N   0  0  1  0  0  0  0  0  0  0  0  0
  185.6540  179.7530  147.6900 O   0  0  0  0  0  0  0  0  0  0  0  0
  186.9580  177.2880  144.7410 C   0  0  2  0  0  3  0  0  0  0  0  0
  184.4260  177.8730  140.0480 C   0  0  0  0  0  2  0  0  0  0  0  0
  181.9790  179.7530  140.3400 C   0  0  0  0  0  3  0  0  0  0  0  0
  182.7820  179.1930  141.3400 C   0  0  0  0  0  0  0  0  0  0  0  0
  182.2100  178.8460  142.5750 C   0  0  0  0  0  3  0  0  0  0  0  0
  180.1410  178.6280  144.3430 Cl  0  0  0  0  0  0  0  0  0  0  0  0
  180.0510  179.6180  141.7990 C   0  0  0  0  0  3  0  0  0  0  0  0
  180.8480  179.0600  142.8020 C   0  0  0  0  0  0  0  0  0  0  0  0
  180.6160  179.9650  140.5690 C   0  0  0  0  0  3  0  0  0  0  0  0
  190.2000  177.6870  148.0700 C   0  0  0  0  0  1  0  0  0  0  0  0
  188.8490  178.3690  147.9580 C   0  0  0  0  0  2  0  0  0  0  0  0
  1  4  1  0  0  0  0
  2 24  1  0  0  0  0
  2 14  1  0  0  0  0
  2 17  1  0  0  0  0
  3  9  2  0  0  0  0
  4 12  1  0  0  0  0
  4 37  1  1  0  0  0
  6 11  1  1  0  0  0
  6 22  1  0  0  0  0
  6  9  1  0  0  0  0
  7  3  1  1  0  0  0
  7 10  1  0  0  0  0
  7 21  1  0  0  0  0
  8 26  2  0  0  0  0
  8 12  1  0  0  0  0
  9 13  1  0  0  0  0
 10  5  2  0  0  0  0
 13 21  2  0  0  0  0
 13 17  1  0  0  0  0
 15 20  1  0  0  0  0
 15 28  1  0  0  0  0
 16 11  1  0  0  0  0
 18  8  1  1  0  0  0
 19  5  1  6  0  0  0
 19 25  1  0  0  0  0
 19 18  1  0  0  0  0
 20 16  1  6  0  0  0
 20  3  1  0  0  0  0
 21 27  1  0  0  0  0
 22  2  1  0  0  0  0
 23 30  1  1  0  0  0
 23 10  1  0  0  0  0
 25 18  1  0  0  0  0
 27 25  1  0  0  0  0
 27  1  1  0  0  0  0
 28 23  1  0  0  0  0
 29 35  2  0  0  0  0
 29 30  1  0  0  0  0
 30 31  2  0  0  0  0
 31 34  1  0  0  0  0
 33 34  2  0  0  0  0
 34 32  1  0  0  0  0
 35 33  1  0  0  0  0
 37 36  1  0  0  0  0
M  END
>  <MODEL>
5

>  <REMARK>
 VINA RESULT:      -9.5      2.044      5.504
  Name = 
  2 active torsions:
  status: ('A' for Active; 'I' for Inactive)
    1  A    between atoms: C_4  and  C_37
    2  A    between atoms: C_23  and  C_30
                            x       y       z     vdW  Elec       q    Type
                         _______ _______ _______ _____ _____    ______ ____

>  <TORSDO>
F 2

$$$$
=
 OpenBabel11122411403D

 37 44  0  0  1  0  0  0  0  0999 V2000
  189.1910  177.1250  139.0040 C   0  0  0  0  0  2  0  0  0  0  0  0
  190.2990  177.1120  143.2840 C   0  0  0  0  0  0  0  0  0  0  0  0
  186.2700  178.1410  142.5030 C   0  0  0  0  0  0  0  0  0  0  0  0
  190.1410  177.3880  137.8320 C   0  0  2  0  0  3  0  0  0  0  0  0
  185.1600  177.8810  138.9710 C   0  0  0  0  0  3  0  0  0  0  0  0
  187.9840  177.5290  144.1420 C   0  0  0  0  0  0  0  0  0  0  0  0
  186.3100  178.2360  141.1640 C   0  0  0  0  0  0  0  0  0  0  0  0
  188.0250  177.3680  136.4890 C   0  0  0  0  0  0  0  0  0  0  0  0
  187.6180  177.9940  142.9660 C   0  0  0  0  0  0  0  0  0  0  0  0
  185.0880  178.2420  140.2680 C   0  0  0  0  0  0  0  0  0  0  0  0
  186.9250  177.1820  145.1560 C   0  0  0  0  0  2  0  0  0  0  0  0
  189.4210  177.9020  136.5840 C   0  0  0  0  0  2  0  0  0  0  0  0
  188.5050  178.1130  141.8650 C   0  0  0  0  0  0  0  0  0  0  0  0
  190.3100  175.6590  142.8430 C   0  0  0  0  0  1  0  0  0  0  0  0
  184.0040  178.9790  143.3290 C   0  0  0  0  0  2  0  0  0  0  0  0
  185.5950  177.9330  144.9070 C   0  0  0  0  0  2  0  0  0  0  0  0
  189.9850  178.0030  142.0540 C   0  0  0  0  0  2  0  0  0  0  0  0
  186.8940  178.1160  137.1290 C   0  0  1  0  0  3  0  0  0  0  0  0
  186.4540  177.4970  138.3680 C   0  0  1  0  0  3  0  0  0  0  0  0
  185.1050  177.9160  143.4380 C   0  0  2  0  0  3  0  0  0  0  0  0
  187.7720  178.2530  140.7630 C   0  0  0  0  0  0  0  0  0  0  0  0
  189.3470  177.2700  144.3620 O   0  0  0  0  0  0  0  0  0  0  0  0
  183.7200  178.5520  140.8590 C   0  0  1  0  0  3  0  0  0  0  0  0
  191.6810  177.4620  143.7950 C   0  0  0  0  0  1  0  0  0  0  0  0
  187.2620  178.7340  138.4320 N   0  0  1  0  0  0  0  0  0  0  0  0
  187.8110  176.3240  135.8940 O   0  0  0  0  0  0  0  0  0  0  0  0
  188.3460  178.3620  139.3630 C   0  0  2  0  0  3  0  0  0  0  0  0
  183.8160  179.6070  141.9530 C   0  0  0  0  0  2  0  0  0  0  0  0
  182.8820  180.1460  139.1170 C   0  0  0  0  0  3  0  0  0  0  0  0
  182.6870  178.9690  139.8470 C   0  0  0  0  0  0  0  0  0  0  0  0
  181.5290  178.2040  139.6320 C   0  0  0  0  0  3  0  0  0  0  0  0
  179.1360  177.6620  138.4320 Cl  0  0  0  0  0  0  0  0  0  0  0  0
  180.7790  179.7940  137.9680 C   0  0  0  0  0  3  0  0  0  0  0  0
  180.5780  178.6180  138.6950 C   0  0  0  0  0  0  0  0  0  0  0  0
  181.9310  180.5590  138.1790 C   0  0  0  0  0  3  0  0  0  0  0  0
  192.1920  176.0470  138.3000 C   0  0  0  0  0  1  0  0  0  0  0  0
  190.9100  176.1220  137.4910 C   0  0  0  0  0  2  0  0  0  0  0  0
  1 27  1  0  0  0  0
  2 24  1  0  0  0  0
  2 22  1  0  0  0  0
  3  9  1  0  0  0  0
  3 20  1  0  0  0  0
  4 37  1  6  0  0  0
  4  1  1  0  0  0  0
  5 10  2  0  0  0  0
  6 22  1  0  0  0  0
  6 11  1  0  0  0  0
  7  3  2  0  0  0  0
  8 12  1  0  0  0  0
  9  6  2  0  0  0  0
 10 23  1  0  0  0  0
 10  7  1  0  0  0  0
 12  4  1  0  0  0  0
 13 17  1  0  0  0  0
 13  9  1  0  0  0  0
 14  2  1  0  0  0  0
 16 11  1  0  0  0  0
 17  2  1  0  0  0  0
 18  8  1  1  0  0  0
 18 19  1  0  0  0  0
 18 25  1  0  0  0  0
 19 25  1  0  0  0  0
 19  5  1  6  0  0  0
 20 15  1  1  0  0  0
 20 16  1  0  0  0  0
 21  7  1  0  0  0  0
 21 13  2  0  0  0  0
 23 30  1  6  0  0  0
 23 28  1  0  0  0  0
 25 27  1  0  0  0  0
 26  8  2  0  0  0  0
 27 21  1  0  0  0  0
 28 15  1  0  0  0  0
 29 30  1  0  0  0  0
 31 30  2  0  0  0  0
 32 34  1  0  0  0  0
 33 35  1  0  0  0  0
 33 34  2  0  0  0  0
 34 31  1  0  0  0  0
 35 29  2  0  0  0  0
 37 36  1  0  0  0  0
M  END
>  <MODEL>
6

>  <REMARK>
 VINA RESULT:      -9.4      1.759      2.605
  Name = 
  2 active torsions:
  status: ('A' for Active; 'I' for Inactive)
    1  A    between atoms: C_4  and  C_37
    2  A    between atoms: C_23  and  C_30
                            x       y       z     vdW  Elec       q    Type
                         _______ _______ _______ _____ _____    ______ ____

>  <TORSDO>
F 2

$$$$
=
 OpenBabel11122411403D

 37 44  0  0  1  0  0  0  0  0999 V2000
  188.9670  177.5110  143.9530 C   0  0  0  0  0  2  0  0  0  0  0  0
  185.0040  179.1610  142.8960 C   0  0  0  0  0  0  0  0  0  0  0  0
  187.3990  178.0570  139.5880 C   0  0  0  0  0  0  0  0  0  0  0  0
  189.7640  177.8320  145.2210 C   0  0  2  0  0  3  0  0  0  0  0  0
  190.6160  176.3780  140.3720 C   0  0  0  0  0  3  0  0  0  0  0  0
  185.2050  178.7350  140.4370 C   0  0  0  0  0  0  0  0  0  0  0  0
  188.5550  177.7880  140.2170 C   0  0  0  0  0  0  0  0  0  0  0  0
  191.5640  176.5170  144.0750 C   0  0  0  0  0  0  0  0  0  0  0  0
  186.5140  178.6510  140.5450 C   0  0  0  0  0  0  0  0  0  0  0  0
  189.7030  177.0110  139.6060 C   0  0  0  0  0  0  0  0  0  0  0  0
  184.5400  178.2520  139.1740 C   0  0  0  0  0  2  0  0  0  0  0  0
  191.2690  177.6130  145.0520 C   0  0  0  0  0  2  0  0  0  0  0  0
  187.2080  178.8400  141.7690 C   0  0  0  0  0  0  0  0  0  0  0  0
  184.7400  177.8010  143.5190 C   0  0  0  0  0  1  0  0  0  0  0  0
  187.7950  178.0050  137.0660 C   0  0  0  0  0  2  0  0  0  0  0  0
  185.5020  178.2420  137.9630 C   0  0  0  0  0  2  0  0  0  0  0  0
  186.5270  179.4480  142.9530 C   0  0  0  0  0  2  0  0  0  0  0  0
  191.7120  176.8360  142.6180 C   0  0  1  0  0  3  0  0  0  0  0  0
  190.5420  176.4530  141.8470 C   0  0  1  0  0  3  0  0  0  0  0  0
  186.8880  177.6090  138.2390 C   0  0  2  0  0  3  0  0  0  0  0  0
  188.4310  178.3350  141.6260 C   0  0  0  0  0  0  0  0  0  0  0  0
  184.4700  179.1730  141.5520 O   0  0  0  0  0  0  0  0  0  0  0  0
  189.7790  176.8380  138.0960 C   0  0  1  0  0  3  0  0  0  0  0  0
  184.2840  180.2070  143.7200 C   0  0  0  0  0  1  0  0  0  0  0  0
  190.7660  177.8830  142.1460 N   0  0  1  0  0  0  0  0  0  0  0  0
  191.6790  175.3660  144.4660 O   0  0  0  0  0  0  0  0  0  0  0  0
  189.4730  178.2960  142.7280 C   0  0  2  0  0  3  0  0  0  0  0  0
  189.2860  178.0830  137.3710 C   0  0  0  0  0  2  0  0  0  0  0  0
  192.2780  176.9610  138.2310 C   0  0  0  0  0  3  0  0  0  0  0  0
  191.1430  176.4630  137.5820 C   0  0  0  0  0  0  0  0  0  0  0  0
  191.2950  175.6330  136.4590 C   0  0  0  0  0  3  0  0  0  0  0  0
  192.7550  174.2740  134.5940 Cl  0  0  0  0  0  0  0  0  0  0  0  0
  193.7020  175.8070  136.6470 C   0  0  0  0  0  3  0  0  0  0  0  0
  192.5720  175.3080  135.9940 C   0  0  0  0  0  0  0  0  0  0  0  0
  193.5550  176.6340  137.7650 C   0  0  0  0  0  3  0  0  0  0  0  0
  187.9040  177.5030  146.8510 C   0  0  0  0  0  1  0  0  0  0  0  0
  189.2540  176.9940  146.3820 C   0  0  0  0  0  2  0  0  0  0  0  0
  1  4  1  0  0  0  0
  2 17  1  0  0  0  0
  2 14  1  0  0  0  0
  2 24  1  0  0  0  0
  3  7  2  0  0  0  0
  3  9  1  0  0  0  0
  4 37  1  1  0  0  0
  6  9  2  0  0  0  0
  6 22  1  0  0  0  0
  7 21  1  0  0  0  0
  8 26  2  0  0  0  0
  8 12  1  0  0  0  0
  9 13  1  0  0  0  0
 10  7  1  0  0  0  0
 10  5  2  0  0  0  0
 11  6  1  0  0  0  0
 12  4  1  0  0  0  0
 13 17  1  0  0  0  0
 15 28  1  0  0  0  0
 16 20  1  0  0  0  0
 16 11  1  0  0  0  0
 18  8  1  1  0  0  0
 19  5  1  6  0  0  0
 19 25  1  0  0  0  0
 19 18  1  0  0  0  0
 20 15  1  6  0  0  0
 20  3  1  0  0  0  0
 21 13  2  0  0  0  0
 21 27  1  0  0  0  0
 22  2  1  0  0  0  0
 23 30  1  1  0  0  0
 23 10  1  0  0  0  0
 25 18  1  0  0  0  0
 25 27  1  0  0  0  0
 27  1  1  0  0  0  0
 28 23  1  0  0  0  0
 30 29  2  0  0  0  0
 31 30  1  0  0  0  0
 32 34  1  0  0  0  0
 33 35  2  0  0  0  0
 34 31  2  0  0  0  0
 34 33  1  0  0  0  0
 35 29  1  0  0  0  0
 37 36  1  0  0  0  0
M  END
>  <MODEL>
7

>  <REMARK>
 VINA RESULT:      -9.1      3.427      8.642
  Name = 
  2 active torsions:
  status: ('A' for Active; 'I' for Inactive)
    1  A    between atoms: C_4  and  C_37
    2  A    between atoms: C_23  and  C_30
                            x       y       z     vdW  Elec       q    Type
                         _______ _______ _______ _____ _____    ______ ____

>  <TORSDO>
F 2

$$$$
=
 OpenBabel11122411403D

 37 44  0  0  1  0  0  0  0  0999 V2000
  184.5780  178.2260  140.5460 C   0  0  0  0  0  2  0  0  0  0  0  0
  187.3510  177.6230  137.1560 C   0  0  0  0  0  0  0  0  0  0  0  0
  189.1490  177.3690  140.9780 C   0  0  0  0  0  0  0  0  0  0  0  0
  183.2900  179.0540  140.5160 C   0  0  2  0  0  3  0  0  0  0  0  0
  186.8550  177.5530  143.8900 C   0  0  0  0  0  3  0  0  0  0  0  0
  189.3350  177.0220  138.5610 C   0  0  1  0  0  3  0  0  0  0  0  0
  188.1220  177.7720  141.7450 C   0  0  2  0  0  3  0  0  0  0  0  0
  183.2950  178.6200  142.9840 C   0  0  0  0  0  0  0  0  0  0  0  0
  188.7790  177.5890  139.6110 C   0  0  0  0  0  0  0  0  0  0  0  0
  188.0390  177.5650  143.2430 C   0  0  0  0  0  0  0  0  0  0  0  0
  190.5230  176.1160  138.7570 C   0  0  0  0  0  2  0  0  0  0  0  0
  182.8740  179.5610  141.8980 C   0  0  0  0  0  2  0  0  0  0  0  0
  187.5230  178.2480  139.5670 C   0  0  0  0  0  0  0  0  0  0  0  0
  186.4520  176.4000  137.1850 C   0  0  0  0  0  1  0  0  0  0  0  0
  191.2420  177.1770  142.4260 C   0  0  0  0  0  2  0  0  0  0  0  0
  191.2780  176.4060  140.0770 C   0  0  0  0  0  2  0  0  0  0  0  0
  186.8890  178.6080  138.2610 C   0  0  0  0  0  2  0  0  0  0  0  0
  184.6430  178.7740  143.6230 C   0  0  1  0  0  3  0  0  0  0  0  0
  185.5930  177.7790  143.1550 C   0  0  1  0  0  3  0  0  0  0  0  0
  190.3740  176.5550  141.3240 C   0  0  2  0  0  3  0  0  0  0  0  0
  187.0850  178.3750  140.8170 C   0  0  0  0  0  0  0  0  0  0  0  0
  188.7260  177.1990  137.3070 O   0  0  0  0  0  0  0  0  0  0  0  0
  189.3000  177.2490  144.0330 C   0  0  1  0  0  3  0  0  0  0  0  0
  187.1910  178.2970  135.8100 C   0  0  0  0  0  1  0  0  0  0  0  0
  185.7080  179.1680  142.6620 N   0  0  1  0  0  0  0  0  0  0  0  0
  182.5440  177.7290  143.3450 O   0  0  0  0  0  0  0  0  0  0  0  0
  185.7490  178.9860  141.1960 C   0  0  2  0  0  3  0  0  0  0  0  0
  190.5030  177.9980  143.4770 C   0  0  0  0  0  2  0  0  0  0  0  0
  190.2320  177.1120  146.3550 C   0  0  0  0  0  3  0  0  0  0  0  0
  189.1870  177.5070  145.5120 C   0  0  0  0  0  0  0  0  0  0  0  0
  188.0510  178.1240  146.0590 C   0  0  0  0  0  3  0  0  0  0  0  0
  186.5460  179.1110  148.1130 Cl  0  0  0  0  0  0  0  0  0  0  0  0
  189.0130  177.9480  148.2740 C   0  0  0  0  0  3  0  0  0  0  0  0
  187.9650  178.3430  147.4370 C   0  0  0  0  0  0  0  0  0  0  0  0
  190.1450  177.3320  147.7330 C   0  0  0  0  0  3  0  0  0  0  0  0
  181.9780  178.5890  138.4460 C   0  0  0  0  0  1  0  0  0  0  0  0
  182.1600  178.2380  139.9110 C   0  0  0  0  0  2  0  0  0  0  0  0
  1 27  1  0  0  0  0
  2 14  1  0  0  0  0
  2 22  1  0  0  0  0
  2 17  1  0  0  0  0
  3 20  1  0  0  0  0
  3  7  1  0  0  0  0
  4 37  1  1  0  0  0
  4  1  1  0  0  0  0
  4 12  1  0  0  0  0
  6 11  1  1  0  0  0
  6  9  1  0  0  0  0
  7 21  1  6  0  0  0
  7 10  1  0  0  0  0
  8 26  2  0  0  0  0
  9  3  2  0  0  0  0
 10  5  2  0  0  0  0
 10 23  1  0  0  0  0
 11 16  1  0  0  0  0
 12  8  1  0  0  0  0
 13  9  1  0  0  0  0
 13 21  2  0  0  0  0
 15 28  1  0  0  0  0
 17 13  1  0  0  0  0
 18  8  1  6  0  0  0
 19 18  1  0  0  0  0
 19  5  1  1  0  0  0
 20 16  1  6  0  0  0
 20 15  1  0  0  0  0
 21 27  1  0  0  0  0
 22  6  1  0  0  0  0
 23 30  1  1  0  0  0
 24  2  1  0  0  0  0
 25 19  1  0  0  0  0
 25 18  1  0  0  0  0
 27 25  1  0  0  0  0
 28 23  1  0  0  0  0
 29 35  1  0  0  0  0
 30 31  1  0  0  0  0
 30 29  2  0  0  0  0
 31 34  2  0  0  0  0
 34 32  1  0  0  0  0
 34 33  1  0  0  0  0
 35 33  2  0  0  0  0
 36 37  1  0  0  0  0
M  END
>  <MODEL>
8

>  <REMARK>
 VINA RESULT:      -8.9      2.693      6.753
  Name = 
  2 active torsions:
  status: ('A' for Active; 'I' for Inactive)
    1  A    between atoms: C_4  and  C_37
    2  A    between atoms: C_23  and  C_30
                            x       y       z     vdW  Elec       q    Type
                         _______ _______ _______ _____ _____    ______ ____

>  <TORSDO>
F 2

$$$$
=
 OpenBabel11122411403D

 37 44  0  0  1  0  0  0  0  0999 V2000
  183.1590  178.6280  142.4050 C   0  0  0  0  0  2  0  0  0  0  0  0
  182.6460  178.5150  138.0160 C   0  0  0  0  0  0  0  0  0  0  0  0
  186.6250  177.9680  139.3450 C   0  0  0  0  0  0  0  0  0  0  0  0
  182.2690  179.3870  143.3940 C   0  0  2  0  0  3  0  0  0  0  0  0
  187.1160  177.7380  143.0180 C   0  0  0  0  0  3  0  0  0  0  0  0
  185.0130  177.8780  137.5040 C   0  0  1  0  0  3  0  0  0  0  0  0
  186.4720  178.2380  140.6530 C   0  0  2  0  0  3  0  0  0  0  0  0
  184.0230  178.7060  145.0490 C   0  0  0  0  0  0  0  0  0  0  0  0
  185.3970  178.3060  138.6890 C   0  0  0  0  0  0  0  0  0  0  0  0
  187.4790  177.8760  141.7260 C   0  0  0  0  0  0  0  0  0  0  0  0
  185.9490  177.0190  136.6940 C   0  0  0  0  0  2  0  0  0  0  0  0
  182.9870  179.7290  144.7010 C   0  0  0  0  0  2  0  0  0  0  0  0
  184.5140  178.9000  139.6270 C   0  0  0  0  0  0  0  0  0  0  0  0
  181.9950  177.2500  138.5470 C   0  0  0  0  0  1  0  0  0  0  0  0
  189.1150  177.7380  138.8300 C   0  0  0  0  0  2  0  0  0  0  0  0
  187.4310  177.2120  137.0970 C   0  0  0  0  0  2  0  0  0  0  0  0
  183.1510  179.3570  139.2160 C   0  0  0  0  0  2  0  0  0  0  0  0
  185.4260  178.8640  144.5450 C   0  0  1  0  0  3  0  0  0  0  0  0
  185.7170  177.9720  143.4350 C   0  0  1  0  0  3  0  0  0  0  0  0
  187.6980  177.1880  138.6220 C   0  0  2  0  0  3  0  0  0  0  0  0
  185.1070  178.8780  140.8170 C   0  0  0  0  0  0  0  0  0  0  0  0
  183.6980  178.1490  137.0920 O   0  0  0  0  0  0  0  0  0  0  0  0
  188.9120  177.5470  141.3370 C   0  0  1  0  0  3  0  0  0  0  0  0
  181.5950  179.3120  137.2720 C   0  0  0  0  0  1  0  0  0  0  0  0
  185.4950  179.4080  143.1610 N   0  0  1  0  0  0  0  0  0  0  0  0
  183.7240  177.7450  145.7400 O   0  0  0  0  0  0  0  0  0  0  0  0
  184.4690  179.3780  142.0990 C   0  0  2  0  0  3  0  0  0  0  0  0
  189.3810  178.4100  140.1720 C   0  0  0  0  0  2  0  0  0  0  0  0
  190.2870  178.9120  142.9260 C   0  0  0  0  0  3  0  0  0  0  0  0
  189.9010  177.6480  142.4670 C   0  0  0  0  0  0  0  0  0  0  0  0
  190.4490  176.4980  143.0590 C   0  0  0  0  0  3  0  0  0  0  0  0
  192.0550  175.1830  144.8330 Cl  0  0  0  0  0  0  0  0  0  0  0  0
  191.7540  177.8840  144.5560 C   0  0  0  0  0  3  0  0  0  0  0  0
  191.3740  176.6180  144.1000 C   0  0  0  0  0  0  0  0  0  0  0  0
  191.2110  179.0300  143.9680 C   0  0  0  0  0  3  0  0  0  0  0  0
  180.2020  178.3750  142.4320 C   0  0  0  0  0  1  0  0  0  0  0  0
  181.0180  178.5790  143.6950 C   0  0  0  0  0  2  0  0  0  0  0  0
  1  4  1  0  0  0  0
  2 14  1  0  0  0  0
  2 17  1  0  0  0  0
  4 37  1  1  0  0  0
  4 12  1  0  0  0  0
  6 11  1  1  0  0  0
  6  9  1  0  0  0  0
  7  3  1  1  0  0  0
  7 21  1  0  0  0  0
  7 10  1  0  0  0  0
  8 26  2  0  0  0  0
  9  3  2  0  0  0  0
  9 13  1  0  0  0  0
 10  5  2  0  0  0  0
 11 16  1  0  0  0  0
 12  8  1  0  0  0  0
 13 21  2  0  0  0  0
 15 28  1  0  0  0  0
 17 13  1  0  0  0  0
 18  8  1  6  0  0  0
 19  5  1  1  0  0  0
 19 18  1  0  0  0  0
 20 16  1  6  0  0  0
 20 15  1  0  0  0  0
 20  3  1  0  0  0  0
 21 27  1  0  0  0  0
 22  6  1  0  0  0  0
 22  2  1  0  0  0  0
 23 10  1  0  0  0  0
 23 30  1  1  0  0  0
 24  2  1  0  0  0  0
 25 19  1  0  0  0  0
 25 18  1  0  0  0  0
 27  1  1  0  0  0  0
 27 25  1  0  0  0  0
 28 23  1  0  0  0  0
 29 35  1  0  0  0  0
 30 29  2  0  0  0  0
 30 31  1  0  0  0  0
 31 34  2  0  0  0  0
 34 33  1  0  0  0  0
 34 32  1  0  0  0  0
 35 33  2  0  0  0  0
 36 37  1  0  0  0  0
M  END
>  <MODEL>
9

>  <REMARK>
 VINA RESULT:      -8.5      2.917      8.182
  Name = 
  2 active torsions:
  status: ('A' for Active; 'I' for Inactive)
    1  A    between atoms: C_4  and  C_37
    2  A    between atoms: C_23  and  C_30
                            x       y       z     vdW  Elec       q    Type
                         _______ _______ _______ _____ _____    ______ ____

>  <TORSDO>
F 2

$$$$
