=
 OpenBabel11122410433D

 32 38  0  0  1  0  0  0  0  0999 V2000
  189.5940  178.0210  148.1170 C   0  0  1  0  0  3  0  0  0  0  0  0
  186.0470  178.2930  144.3170 C   0  0  0  0  0  0  0  0  0  0  0  0
  188.6770  178.1960  140.1990 C   0  0  0  0  0  3  0  0  0  0  0  0
  187.5290  178.5190  139.4690 O   0  0  0  0  0  0  0  0  0  0  0  0
  183.5750  178.6890  144.2060 C   0  0  0  0  0  0  0  0  0  0  0  0
  182.4630  178.8900  143.3950 C   0  0  0  0  0  0  0  0  0  0  0  0
  187.2220  177.6360  146.4490 C   0  0  1  0  0  3  0  0  0  0  0  0
  188.5630  177.8040  144.3820 C   0  0  0  0  0  2  0  0  0  0  0  0
  181.3280  179.1220  141.5320 N   0  0  0  0  0  0  0  0  0  0  0  0
  189.7850  177.8810  146.6030 C   0  0  2  0  0  3  0  0  0  0  0  0
  188.6070  178.0020  141.5120 C   0  0  0  0  0  3  0  0  0  0  0  0
  187.2820  178.1190  143.6310 C   0  0  0  0  0  0  0  0  0  0  0  0
  187.3220  178.1530  142.2270 C   0  0  0  0  0  0  0  0  0  0  0  0
  184.9200  178.5410  142.1410 C   0  0  0  0  0  0  0  0  0  0  0  0
  180.4600  179.2270  142.5310 N   0  0  0  0  0  0  0  0  0  0  0  0
  188.2990  178.5380  148.4480 O   0  0  0  0  0  0  0  0  0  0  0  0
  188.4920  178.2190  145.8400 C   0  0  2  0  0  3  0  0  0  0  0  0
  181.1290  179.0880  143.7050 C   0  0  0  0  0  3  0  0  0  0  0  0
  187.2270  177.7420  147.9760 C   0  0  0  0  0  2  0  0  0  0  0  0
  189.6710  176.6320  147.4710 C   0  0  1  0  0  3  0  0  0  0  0  0
  186.2110  178.2960  139.9750 C   0  0  0  0  0  2  0  0  0  0  0  0
  186.1500  178.3700  141.4850 C   0  0  0  0  0  0  0  0  0  0  0  0
  183.7510  178.7460  141.3740 C   0  0  0  0  0  3  0  0  0  0  0  0
  186.0370  178.3530  145.8330 C   0  0  0  0  0  2  0  0  0  0  0  0
  183.4000  178.6620  145.5850 O   0  0  0  0  0  1  0  0  0  0  0  0
  180.9690  179.2180  140.1270 C   0  0  0  0  0  1  0  0  0  0  0  0
  184.8500  178.5100  143.5770 C   0  0  0  0  0  0  0  0  0  0  0  0
  182.5490  178.9170  142.0410 C   0  0  0  0  0  0  0  0  0  0  0  0
  190.9940  176.0740  147.6870 N   0  0  0  0  0  2  0  0  0  0  0  0
  191.8630  175.7730  146.5950 C   0  0  0  0  0  0  0  0  0  0  0  0
  191.4640  176.0150  145.2860 O   0  0  0  0  0  0  0  0  0  0  0  0
  193.0010  175.2880  146.8210 O   0  0  0  0  0  1  0  0  0  0  0  0
  1 16  1  6  0  0  0
  2 24  1  0  0  0  0
  3 11  2  0  0  0  0
  4 21  1  0  0  0  0
  4  3  1  0  0  0  0
  5 25  1  0  0  0  0
  6 18  1  0  0  0  0
  6  5  2  0  0  0  0
  7 24  1  6  0  0  0
  7 19  1  0  0  0  0
  8 17  1  0  0  0  0
  9 28  1  0  0  0  0
  9 15  1  0  0  0  0
 10 20  1  0  0  0  0
 10  1  1  0  0  0  0
 11 13  1  0  0  0  0
 12  2  1  0  0  0  0
 12  8  1  0  0  0  0
 13 12  2  0  0  0  0
 14 27  1  0  0  0  0
 15 18  2  0  0  0  0
 17  7  1  0  0  0  0
 17 10  1  0  0  0  0
 19 16  1  0  0  0  0
 20 29  1  0  0  0  0
 20  1  1  0  0  0  0
 21 22  1  0  0  0  0
 22 14  2  0  0  0  0
 22 13  1  0  0  0  0
 23 28  2  0  0  0  0
 23 14  1  0  0  0  0
 26  9  1  0  0  0  0
 27  5  1  0  0  0  0
 27  2  2  0  0  0  0
 28  6  1  0  0  0  0
 30 32  1  0  0  0  0
 30 29  1  0  0  0  0
 31 30  2  0  0  0  0
M  END
>  <MODEL>
1

>  <REMARK>
 VINA RESULT:     -11.4      0.000      0.000
  Name = 
  1 active torsions:
  status: ('A' for Active; 'I' for Inactive)
    1  A    between atoms: C_20  and  N_29
                            x       y       z     vdW  Elec       q    Type
                         _______ _______ _______ _____ _____    ______ ____

>  <TORSDO>
F 1

$$$$
=
 OpenBabel11122410433D

 32 38  0  0  1  0  0  0  0  0999 V2000
  189.0250  178.1010  137.0630 C   0  0  1  0  0  3  0  0  0  0  0  0
  188.1700  177.7690  142.1870 C   0  0  0  0  0  0  0  0  0  0  0  0
  183.4980  179.1010  142.7220 C   0  0  0  0  0  3  0  0  0  0  0  0
  183.6790  179.1430  144.1070 O   0  0  0  0  0  0  0  0  0  0  0  0
  189.5900  177.3700  144.2120 C   0  0  0  0  0  0  0  0  0  0  0  0
  189.6500  177.3210  145.6020 C   0  0  0  0  0  0  0  0  0  0  0  0
  188.9510  177.2230  139.8520 C   0  0  1  0  0  3  0  0  0  0  0  0
  186.6610  178.1020  140.1400 C   0  0  0  0  0  2  0  0  0  0  0  0
  188.9230  177.4420  147.6680 N   0  0  0  0  0  0  0  0  0  0  0  0
  187.7090  178.2460  137.8360 C   0  0  2  0  0  3  0  0  0  0  0  0
  184.4890  178.7100  141.9260 C   0  0  0  0  0  3  0  0  0  0  0  0
  186.8970  178.0970  141.6400 C   0  0  0  0  0  0  0  0  0  0  0  0
  185.8040  178.3410  142.4890 C   0  0  0  0  0  0  0  0  0  0  0  0
  187.2030  177.9530  144.4440 C   0  0  0  0  0  0  0  0  0  0  0  0
  190.2100  177.1230  147.7270 N   0  0  0  0  0  0  0  0  0  0  0  0
  190.1630  178.1260  137.9330 O   0  0  0  0  0  0  0  0  0  0  0  0
  187.9500  178.2600  139.3560 C   0  0  2  0  0  3  0  0  0  0  0  0
  190.6970  177.0380  146.4620 C   0  0  0  0  0  3  0  0  0  0  0  0
  190.1560  177.1070  138.9160 C   0  0  0  0  0  2  0  0  0  0  0  0
  188.0580  176.9160  137.1770 C   0  0  1  0  0  3  0  0  0  0  0  0
  184.7370  178.4430  144.7650 C   0  0  0  0  0  2  0  0  0  0  0  0
  185.9560  178.2770  143.8830 C   0  0  0  0  0  0  0  0  0  0  0  0
  187.3290  177.8830  145.8500 C   0  0  0  0  0  3  0  0  0  0  0  0
  189.3610  177.6070  141.2610 C   0  0  0  0  0  2  0  0  0  0  0  0
  190.7410  177.0930  143.4830 O   0  0  0  0  0  1  0  0  0  0  0  0
  188.0720  177.6180  148.8320 C   0  0  0  0  0  1  0  0  0  0  0  0
  188.3370  177.6980  143.5990 C   0  0  0  0  0  0  0  0  0  0  0  0
  188.5680  177.5660  146.3830 C   0  0  0  0  0  0  0  0  0  0  0  0
  187.3120  176.7820  135.9380 N   0  0  0  0  0  2  0  0  0  0  0  0
  186.0040  176.2140  135.9140 C   0  0  0  0  0  0  0  0  0  0  0  0
  185.4020  175.7740  137.0870 O   0  0  0  0  0  1  0  0  0  0  0  0
  185.3890  176.1120  134.8220 O   0  0  0  0  0  0  0  0  0  0  0  0
  1 20  1  0  0  0  0
  1 10  1  0  0  0  0
  1 16  1  1  0  0  0
  2 27  1  0  0  0  0
  3  4  1  0  0  0  0
  4 21  1  0  0  0  0
  5  6  1  0  0  0  0
  6 28  2  0  0  0  0
  6 18  1  0  0  0  0
  7 19  1  6  0  0  0
  7 24  1  0  0  0  0
  8 12  1  0  0  0  0
  9 15  1  0  0  0  0
  9 26  1  0  0  0  0
 10 17  1  0  0  0  0
 11 13  1  0  0  0  0
 11  3  2  0  0  0  0
 12  2  2  0  0  0  0
 12 13  1  0  0  0  0
 13 22  2  0  0  0  0
 14 23  2  0  0  0  0
 16 19  1  0  0  0  0
 17  7  1  0  0  0  0
 17  8  1  0  0  0  0
 18 15  2  0  0  0  0
 20 10  1  0  0  0  0
 22 14  1  0  0  0  0
 22 21  1  0  0  0  0
 23 28  1  0  0  0  0
 24  2  1  0  0  0  0
 25  5  1  0  0  0  0
 27  5  2  0  0  0  0
 27 14  1  0  0  0  0
 28  9  1  0  0  0  0
 29 20  1  0  0  0  0
 30 29  1  0  0  0  0
 30 31  1  0  0  0  0
 32 30  2  0  0  0  0
M  END
>  <MODEL>
2

>  <REMARK>
 VINA RESULT:     -10.8      2.987      8.163
  Name = 
  1 active torsions:
  status: ('A' for Active; 'I' for Inactive)
    1  A    between atoms: C_20  and  N_29
                            x       y       z     vdW  Elec       q    Type
                         _______ _______ _______ _____ _____    ______ ____

>  <TORSDO>
F 1

$$$$
=
 OpenBabel11122410433D

 32 38  0  0  1  0  0  0  0  0999 V2000
  186.6090  178.6060  137.2490 C   0  0  1  0  0  3  0  0  0  0  0  0
  187.4940  177.9630  142.3380 C   0  0  0  0  0  0  0  0  0  0  0  0
  183.2170  179.0240  144.4530 C   0  0  0  0  0  3  0  0  0  0  0  0
  183.8410  179.0030  145.7040 O   0  0  0  0  0  0  0  0  0  0  0  0
  189.5120  177.5320  143.7600 C   0  0  0  0  0  0  0  0  0  0  0  0
  190.0260  177.4130  145.0470 C   0  0  0  0  0  0  0  0  0  0  0  0
  187.4820  177.5810  139.8460 C   0  0  1  0  0  3  0  0  0  0  0  0
  185.3870  178.3250  140.9220 C   0  0  0  0  0  2  0  0  0  0  0  0
  190.0140  177.3880  147.2410 N   0  0  0  0  0  0  0  0  0  0  0  0
  185.6160  178.6430  138.4160 C   0  0  2  0  0  3  0  0  0  0  0  0
  183.9030  178.7260  143.3540 C   0  0  0  0  0  3  0  0  0  0  0  0
  186.1030  178.2530  142.2590 C   0  0  0  0  0  0  0  0  0  0  0  0
  185.3420  178.3970  143.4320 C   0  0  0  0  0  0  0  0  0  0  0  0
  187.3160  177.9780  144.7950 C   0  0  0  0  0  0  0  0  0  0  0  0
  191.2580  177.1320  146.8560 N   0  0  0  0  0  0  0  0  0  0  0  0
  187.9680  178.6440  137.7010 O   0  0  0  0  0  0  0  0  0  0  0  0
  186.3420  178.5900  139.7730 C   0  0  2  0  0  3  0  0  0  0  0  0
  191.3050  177.1390  145.4990 C   0  0  0  0  0  3  0  0  0  0  0  0
  188.3160  177.5750  138.5620 C   0  0  0  0  0  2  0  0  0  0  0  0
  185.7700  177.3680  137.5930 C   0  0  1  0  0  3  0  0  0  0  0  0
  185.0780  178.3240  145.9320 C   0  0  0  0  0  2  0  0  0  0  0  0
  185.9450  178.2670  144.6930 C   0  0  0  0  0  0  0  0  0  0  0  0
  187.8990  177.8410  146.0750 C   0  0  0  0  0  3  0  0  0  0  0  0
  188.3190  177.9100  141.0660 C   0  0  0  0  0  2  0  0  0  0  0  0
  190.3680  177.3520  142.6790 O   0  0  0  0  0  1  0  0  0  0  0  0
  189.5870  177.4590  148.6280 C   0  0  0  0  0  1  0  0  0  0  0  0
  188.1170  177.8260  143.6110 C   0  0  0  0  0  0  0  0  0  0  0  0
  189.2530  177.5600  146.1530 C   0  0  0  0  0  0  0  0  0  0  0  0
  184.6630  177.2620  136.6590 N   0  0  0  0  0  2  0  0  0  0  0  0
  183.5000  176.4960  136.9670 C   0  0  0  0  0  0  0  0  0  0  0  0
  183.3920  175.8310  138.1820 O   0  0  0  0  0  1  0  0  0  0  0  0
  182.5620  176.4250  136.1320 O   0  0  0  0  0  0  0  0  0  0  0  0
  1 20  1  0  0  0  0
  1 16  1  1  0  0  0
  1 10  1  0  0  0  0
  2 27  1  0  0  0  0
  3  4  1  0  0  0  0
  4 21  1  0  0  0  0
  5  6  1  0  0  0  0
  6 18  1  0  0  0  0
  6 28  2  0  0  0  0
  7 19  1  6  0  0  0
  7 24  1  0  0  0  0
  8 12  1  0  0  0  0
  9 26  1  0  0  0  0
 10 17  1  0  0  0  0
 11 13  1  0  0  0  0
 11  3  2  0  0  0  0
 12  2  2  0  0  0  0
 12 13  1  0  0  0  0
 13 22  2  0  0  0  0
 14 23  2  0  0  0  0
 15  9  1  0  0  0  0
 16 19  1  0  0  0  0
 17  7  1  0  0  0  0
 17  8  1  0  0  0  0
 18 15  2  0  0  0  0
 20 10  1  0  0  0  0
 22 14  1  0  0  0  0
 22 21  1  0  0  0  0
 23 28  1  0  0  0  0
 24  2  1  0  0  0  0
 25  5  1  0  0  0  0
 27  5  2  0  0  0  0
 27 14  1  0  0  0  0
 28  9  1  0  0  0  0
 29 30  1  0  0  0  0
 29 20  1  0  0  0  0
 30 31  1  0  0  0  0
 32 30  2  0  0  0  0
M  END
>  <MODEL>
3

>  <REMARK>
 VINA RESULT:     -10.4      2.603      8.513
  Name = 
  1 active torsions:
  status: ('A' for Active; 'I' for Inactive)
    1  A    between atoms: C_20  and  N_29
                            x       y       z     vdW  Elec       q    Type
                         _______ _______ _______ _____ _____    ______ ____

>  <TORSDO>
F 1

$$$$
=
 OpenBabel11122410433D

 32 38  0  0  1  0  0  0  0  0999 V2000
  184.8450  179.1960  137.9330 C   0  0  1  0  0  3  0  0  0  0  0  0
  187.1660  177.9920  142.4350 C   0  0  0  0  0  0  0  0  0  0  0  0
  183.8050  179.0030  145.8360 C   0  0  0  0  0  3  0  0  0  0  0  0
  184.7710  178.8260  146.8300 O   0  0  0  0  0  0  0  0  0  0  0  0
  189.4810  177.3330  143.1300 C   0  0  0  0  0  0  0  0  0  0  0  0
  190.3480  177.0600  144.1840 C   0  0  0  0  0  0  0  0  0  0  0  0
  186.3810  177.8720  140.0420 C   0  0  1  0  0  3  0  0  0  0  0  0
  184.7630  178.5850  141.7650 C   0  0  0  0  0  2  0  0  0  0  0  0
  190.9910  176.8090  146.2670 N   0  0  0  0  0  0  0  0  0  0  0  0
  184.2530  179.1520  139.3460 C   0  0  2  0  0  3  0  0  0  0  0  0
  184.1070  178.7920  144.5590 C   0  0  0  0  0  3  0  0  0  0  0  0
  185.8390  178.3460  142.8090 C   0  0  0  0  0  0  0  0  0  0  0  0
  185.4760  178.3980  144.1660 C   0  0  0  0  0  0  0  0  0  0  0  0
  187.7330  177.7600  144.8200 C   0  0  0  0  0  0  0  0  0  0  0  0
  192.0420  176.5430  145.5000 N   0  0  0  0  0  0  0  0  0  0  0  0
  186.2770  179.1310  137.9510 O   0  0  0  0  0  0  0  0  0  0  0  0
  185.3450  178.9290  140.4070 C   0  0  2  0  0  3  0  0  0  0  0  0
  191.6810  176.6890  144.1990 C   0  0  0  0  0  3  0  0  0  0  0  0
  186.7900  177.9650  138.5690 C   0  0  0  0  0  2  0  0  0  0  0  0
  184.0630  177.9650  138.4080 C   0  0  1  0  0  3  0  0  0  0  0  0
  185.9690  178.0770  146.6110 C   0  0  0  0  0  2  0  0  0  0  0  0
  186.4190  178.1140  145.1670 C   0  0  0  0  0  0  0  0  0  0  0  0
  188.6610  177.4670  145.8450 C   0  0  0  0  0  3  0  0  0  0  0  0
  187.5670  178.0380  140.9720 C   0  0  0  0  0  2  0  0  0  0  0  0
  189.9590  177.2310  141.8290 O   0  0  0  0  0  1  0  0  0  0  0  0
  191.0060  176.7520  147.7180 C   0  0  0  0  0  1  0  0  0  0  0  0
  188.1300  177.6990  143.4400 C   0  0  0  0  0  0  0  0  0  0  0  0
  189.9540  177.1240  145.4810 C   0  0  0  0  0  0  0  0  0  0  0  0
  182.7230  178.0020  137.8500 N   0  0  0  0  0  2  0  0  0  0  0  0
  181.6110  177.4400  138.5460 C   0  0  0  0  0  0  0  0  0  0  0  0
  181.7830  176.8420  139.7890 O   0  0  0  0  0  1  0  0  0  0  0  0
  180.4650  177.4880  138.0300 O   0  0  0  0  0  0  0  0  0  0  0  0
  1 16  1  1  0  0  0
  1 20  1  0  0  0  0
  1 10  1  0  0  0  0
  2 12  2  0  0  0  0
  2 27  1  0  0  0  0
  3  4  1  0  0  0  0
  5 27  2  0  0  0  0
  5  6  1  0  0  0  0
  6 18  1  0  0  0  0
  6 28  2  0  0  0  0
  7 19  1  6  0  0  0
  7 17  1  0  0  0  0
  7 24  1  0  0  0  0
  8 12  1  0  0  0  0
  9 26  1  0  0  0  0
 10 17  1  0  0  0  0
 11  3  2  0  0  0  0
 12 13  1  0  0  0  0
 13 11  1  0  0  0  0
 13 22  2  0  0  0  0
 14 22  1  0  0  0  0
 14 23  2  0  0  0  0
 15  9  1  0  0  0  0
 16 19  1  0  0  0  0
 17  8  1  0  0  0  0
 18 15  2  0  0  0  0
 20 10  1  0  0  0  0
 21  4  1  0  0  0  0
 22 21  1  0  0  0  0
 24  2  1  0  0  0  0
 25  5  1  0  0  0  0
 27 14  1  0  0  0  0
 28 23  1  0  0  0  0
 28  9  1  0  0  0  0
 29 20  1  0  0  0  0
 29 30  1  0  0  0  0
 30 31  1  0  0  0  0
 32 30  2  0  0  0  0
M  END
>  <MODEL>
4

>  <REMARK>
 VINA RESULT:     -10.2      2.442      8.744
  Name = 
  1 active torsions:
  status: ('A' for Active; 'I' for Inactive)
    1  A    between atoms: C_20  and  N_29
                            x       y       z     vdW  Elec       q    Type
                         _______ _______ _______ _____ _____    ______ ____

>  <TORSDO>
F 1

$$$$
=
 OpenBabel11122410433D

 32 38  0  0  1  0  0  0  0  0999 V2000
  189.7510  177.7990  147.8270 C   0  0  1  0  0  3  0  0  0  0  0  0
  186.9730  177.9450  143.4270 C   0  0  0  0  0  0  0  0  0  0  0  0
  190.3280  177.8480  139.8740 C   0  0  0  0  0  3  0  0  0  0  0  0
  189.3310  178.1370  138.9380 O   0  0  0  0  0  0  0  0  0  0  0  0
  184.5580  178.2860  142.8500 C   0  0  0  0  0  0  0  0  0  0  0  0
  183.6140  178.4530  141.8420 C   0  0  0  0  0  0  0  0  0  0  0  0
  187.7410  177.3410  145.7520 C   0  0  1  0  0  3  0  0  0  0  0  0
  189.4410  177.5100  143.9690 C   0  0  0  0  0  2  0  0  0  0  0  0
  182.8430  178.6350  139.7960 N   0  0  0  0  0  0  0  0  0  0  0  0
  190.2250  177.6430  146.3770 C   0  0  2  0  0  3  0  0  0  0  0  0
  190.0170  177.6700  141.1550 C   0  0  0  0  0  3  0  0  0  0  0  0
  188.3180  177.7880  142.9870 C   0  0  0  0  0  0  0  0  0  0  0  0
  188.6190  177.8040  141.6140 C   0  0  0  0  0  0  0  0  0  0  0  0
  186.2680  178.1390  141.0750 C   0  0  0  0  0  0  0  0  0  0  0  0
  181.8020  178.7350  140.6140 N   0  0  0  0  0  0  0  0  0  0  0  0
  188.4080  178.2920  147.9000 O   0  0  0  0  0  0  0  0  0  0  0  0
  189.0910  177.9430  145.3800 C   0  0  2  0  0  3  0  0  0  0  0  0
  182.2420  178.6260  141.8950 C   0  0  0  0  0  3  0  0  0  0  0  0
  187.4580  177.4680  147.2510 C   0  0  0  0  0  2  0  0  0  0  0  0
  189.9740  176.4040  147.2300 C   0  0  1  0  0  3  0  0  0  0  0  0
  187.9460  177.8920  139.1920 C   0  0  0  0  0  2  0  0  0  0  0  0
  187.6020  177.9850  140.6630 C   0  0  0  0  0  0  0  0  0  0  0  0
  185.2600  178.3080  140.1000 C   0  0  0  0  0  3  0  0  0  0  0  0
  186.6790  178.0250  144.9140 C   0  0  0  0  0  2  0  0  0  0  0  0
  184.1290  178.2740  144.1730 O   0  0  0  0  0  1  0  0  0  0  0  0
  182.7520  178.7040  138.3470 C   0  0  0  0  0  1  0  0  0  0  0  0
  185.9320  178.1260  142.4730 C   0  0  0  0  0  0  0  0  0  0  0  0
  183.9510  178.4630  140.5270 C   0  0  0  0  0  0  0  0  0  0  0  0
  191.2430  175.8770  147.6990 N   0  0  0  0  0  2  0  0  0  0  0  0
  192.2660  175.4770  146.7870 C   0  0  0  0  0  0  0  0  0  0  0  0
  192.0740  175.5890  145.4160 O   0  0  0  0  0  0  0  0  0  0  0  0
  193.3520  175.0230  147.2300 O   0  0  0  0  0  1  0  0  0  0  0  0
  1 16  1  6  0  0  0
  2 24  1  0  0  0  0
  3 11  2  0  0  0  0
  4 21  1  0  0  0  0
  4  3  1  0  0  0  0
  5 25  1  0  0  0  0
  6 18  1  0  0  0  0
  6  5  2  0  0  0  0
  7 24  1  6  0  0  0
  7 19  1  0  0  0  0
  8 17  1  0  0  0  0
  9 28  1  0  0  0  0
  9 15  1  0  0  0  0
 10 20  1  0  0  0  0
 10  1  1  0  0  0  0
 11 13  1  0  0  0  0
 12  2  1  0  0  0  0
 12  8  1  0  0  0  0
 13 12  2  0  0  0  0
 14 27  1  0  0  0  0
 15 18  2  0  0  0  0
 17  7  1  0  0  0  0
 17 10  1  0  0  0  0
 19 16  1  0  0  0  0
 20 29  1  0  0  0  0
 20  1  1  0  0  0  0
 21 22  1  0  0  0  0
 22 14  2  0  0  0  0
 22 13  1  0  0  0  0
 23 28  2  0  0  0  0
 23 14  1  0  0  0  0
 26  9  1  0  0  0  0
 27  5  1  0  0  0  0
 27  2  2  0  0  0  0
 28  6  1  0  0  0  0
 30 32  1  0  0  0  0
 30 29  1  0  0  0  0
 31 30  2  0  0  0  0
M  END
>  <MODEL>
5

>  <REMARK>
 VINA RESULT:      -9.9      1.150      1.525
  Name = 
  1 active torsions:
  status: ('A' for Active; 'I' for Inactive)
    1  A    between atoms: C_20  and  N_29
                            x       y       z     vdW  Elec       q    Type
                         _______ _______ _______ _____ _____    ______ ____

>  <TORSDO>
F 1

$$$$
=
 OpenBabel11122410433D

 32 38  0  0  1  0  0  0  0  0999 V2000
  187.9300  178.3890  147.8230 C   0  0  1  0  0  3  0  0  0  0  0  0
  185.0590  178.4790  143.4810 C   0  0  0  0  0  0  0  0  0  0  0  0
  188.3400  178.3440  139.8600 C   0  0  0  0  0  3  0  0  0  0  0  0
  187.3230  178.6210  138.9420 O   0  0  0  0  0  0  0  0  0  0  0  0
  182.6330  178.8110  142.9510 C   0  0  0  0  0  0  0  0  0  0  0  0
  181.6670  178.9640  141.9610 C   0  0  0  0  0  0  0  0  0  0  0  0
  185.8770  177.9040  145.7960 C   0  0  1  0  0  3  0  0  0  0  0  0
  187.5400  178.0540  143.9760 C   0  0  0  0  0  2  0  0  0  0  0  0
  180.8540  179.1210  139.9290 N   0  0  0  0  0  0  0  0  0  0  0  0
  188.3730  178.2160  146.3660 C   0  0  2  0  0  3  0  0  0  0  0  0
  188.0560  178.1810  141.1490 C   0  0  0  0  0  3  0  0  0  0  0  0
  186.3950  178.3190  143.0150 C   0  0  0  0  0  0  0  0  0  0  0  0
  186.6670  178.3190  141.6360 C   0  0  0  0  0  0  0  0  0  0  0  0
  184.3050  178.6440  141.1420 C   0  0  0  0  0  0  0  0  0  0  0  0
  179.8300  179.2300  140.7680 N   0  0  0  0  0  0  0  0  0  0  0  0
  186.5870  178.8810  147.9190 O   0  0  0  0  0  0  0  0  0  0  0  0
  187.2180  178.5030  145.3890 C   0  0  2  0  0  3  0  0  0  0  0  0
  180.2970  179.1360  142.0400 C   0  0  0  0  0  3  0  0  0  0  0  0
  185.6250  178.0480  147.2990 C   0  0  0  0  0  2  0  0  0  0  0  0
  188.1420  176.9870  147.2380 C   0  0  1  0  0  3  0  0  0  0  0  0
  185.9440  178.3780  139.2280 C   0  0  0  0  0  2  0  0  0  0  0  0
  185.6310  178.4870  140.7040 C   0  0  0  0  0  0  0  0  0  0  0  0
  183.2770  178.8010  140.1860 C   0  0  0  0  0  3  0  0  0  0  0  0
  184.7960  178.5760  144.9720 C   0  0  0  0  0  2  0  0  0  0  0  0
  182.2320  178.8130  144.2820 O   0  0  0  0  0  1  0  0  0  0  0  0
  180.7320  179.1730  138.4820 C   0  0  0  0  0  1  0  0  0  0  0  0
  183.9990  178.6480  142.5470 C   0  0  0  0  0  0  0  0  0  0  0  0
  181.9770  178.9590  140.6390 C   0  0  0  0  0  0  0  0  0  0  0  0
  189.4220  176.4670  147.6860 N   0  0  0  0  0  2  0  0  0  0  0  0
  190.5370  176.3680  146.8010 C   0  0  0  0  0  0  0  0  0  0  0  0
  190.4270  176.7770  145.4780 O   0  0  0  0  0  0  0  0  0  0  0  0
  191.6290  175.9100  147.2250 O   0  0  0  0  0  1  0  0  0  0  0  0
  1 16  1  6  0  0  0
  2 24  1  0  0  0  0
  3 11  2  0  0  0  0
  4 21  1  0  0  0  0
  4  3  1  0  0  0  0
  5 25  1  0  0  0  0
  6 18  1  0  0  0  0
  6  5  2  0  0  0  0
  7 24  1  6  0  0  0
  7 19  1  0  0  0  0
  8 17  1  0  0  0  0
  9 28  1  0  0  0  0
  9 15  1  0  0  0  0
 10 20  1  0  0  0  0
 10  1  1  0  0  0  0
 11 13  1  0  0  0  0
 12  2  1  0  0  0  0
 12  8  1  0  0  0  0
 13 12  2  0  0  0  0
 14 27  1  0  0  0  0
 15 18  2  0  0  0  0
 17  7  1  0  0  0  0
 17 10  1  0  0  0  0
 19 16  1  0  0  0  0
 20 29  1  0  0  0  0
 20  1  1  0  0  0  0
 21 22  1  0  0  0  0
 22 14  2  0  0  0  0
 22 13  1  0  0  0  0
 23 28  2  0  0  0  0
 23 14  1  0  0  0  0
 26  9  1  0  0  0  0
 27  5  1  0  0  0  0
 27  2  2  0  0  0  0
 28  6  1  0  0  0  0
 30 32  1  0  0  0  0
 30 29  1  0  0  0  0
 31 30  2  0  0  0  0
M  END
>  <MODEL>
6

>  <REMARK>
 VINA RESULT:      -9.5      1.198      1.426
  Name = 
  1 active torsions:
  status: ('A' for Active; 'I' for Inactive)
    1  A    between atoms: C_20  and  N_29
                            x       y       z     vdW  Elec       q    Type
                         _______ _______ _______ _____ _____    ______ ____

>  <TORSDO>
F 1

$$$$
=
 OpenBabel11122410433D

 32 38  0  0  1  0  0  0  0  0999 V2000
  191.9080  175.6510  147.0470 C   0  0  1  0  0  3  0  0  0  0  0  0
  188.2920  177.5890  143.8420 C   0  0  0  0  0  0  0  0  0  0  0  0
  184.5160  178.6280  146.7660 C   0  0  0  0  0  3  0  0  0  0  0  0
  183.7190  178.8570  145.6400 O   0  0  0  0  0  0  0  0  0  0  0  0
  188.0410  177.8120  141.3590 C   0  0  0  0  0  0  0  0  0  0  0  0
  187.2150  178.1740  140.2990 C   0  0  0  0  0  0  0  0  0  0  0  0
  190.5120  177.1350  144.9480 C   0  0  1  0  0  3  0  0  0  0  0  0
  188.5350  177.4560  146.3920 C   0  0  0  0  0  2  0  0  0  0  0  0
  185.4050  178.9030  139.2980 N   0  0  0  0  0  0  0  0  0  0  0  0
  190.5590  176.2970  147.3860 C   0  0  2  0  0  3  0  0  0  0  0  0
  185.8050  178.3320  146.6290 C   0  0  0  0  0  3  0  0  0  0  0  0
  187.7220  177.7300  145.1390 C   0  0  0  0  0  0  0  0  0  0  0  0
  186.4090  178.2110  145.2860 C   0  0  0  0  0  0  0  0  0  0  0  0
  186.1860  178.4180  142.8710 C   0  0  0  0  0  0  0  0  0  0  0  0
  186.2910  178.6270  138.3480 N   0  0  0  0  0  0  0  0  0  0  0  0
  192.0180  175.3460  145.6520 O   0  0  0  0  0  0  0  0  0  0  0  0
  189.7260  176.5570  146.1190 C   0  0  2  0  0  3  0  0  0  0  0  0
  187.4290  178.1720  138.9320 C   0  0  0  0  0  3  0  0  0  0  0  0
  191.8850  176.4730  144.8050 C   0  0  0  0  0  2  0  0  0  0  0  0
  191.8360  177.1280  147.4570 C   0  0  1  0  0  3  0  0  0  0  0  0
  184.2730  179.1590  144.3580 C   0  0  0  0  0  2  0  0  0  0  0  0
  185.6420  178.5470  144.1590 C   0  0  0  0  0  0  0  0  0  0  0  0
  185.3990  178.7720  141.7520 C   0  0  0  0  0  3  0  0  0  0  0  0
  189.6720  176.9750  143.6960 C   0  0  0  0  0  2  0  0  0  0  0  0
  189.3280  177.3640  141.0810 O   0  0  0  0  0  1  0  0  0  0  0  0
  184.0690  179.4160  139.0430 C   0  0  0  0  0  1  0  0  0  0  0  0
  187.5260  177.9280  142.6910 C   0  0  0  0  0  0  0  0  0  0  0  0
  185.9530  178.6340  140.4890 C   0  0  0  0  0  0  0  0  0  0  0  0
  192.2460  177.2630  148.8440 N   0  0  0  0  0  2  0  0  0  0  0  0
  193.4680  176.6980  149.3170 C   0  0  0  0  0  0  0  0  0  0  0  0
  194.3070  176.0030  148.4550 O   0  0  0  0  0  0  0  0  0  0  0  0
  193.7890  176.8330  150.5260 O   0  0  0  0  0  1  0  0  0  0  0  0
  1 16  1  6  0  0  0
  1 10  1  0  0  0  0
  1 20  1  0  0  0  0
  2 12  1  0  0  0  0
  4  3  1  0  0  0  0
  5 27  1  0  0  0  0
  6 28  1  0  0  0  0
  6  5  2  0  0  0  0
  7 24  1  6  0  0  0
  7 17  1  0  0  0  0
  9 28  1  0  0  0  0
 10 20  1  0  0  0  0
 11  3  2  0  0  0  0
 12 13  2  0  0  0  0
 12  8  1  0  0  0  0
 13 11  1  0  0  0  0
 14 22  2  0  0  0  0
 15 18  2  0  0  0  0
 15  9  1  0  0  0  0
 17  8  1  0  0  0  0
 17 10  1  0  0  0  0
 18  6  1  0  0  0  0
 19  7  1  0  0  0  0
 19 16  1  0  0  0  0
 20 29  1  0  0  0  0
 21  4  1  0  0  0  0
 22 21  1  0  0  0  0
 22 13  1  0  0  0  0
 23 14  1  0  0  0  0
 24  2  1  0  0  0  0
 25  5  1  0  0  0  0
 26  9  1  0  0  0  0
 27 14  1  0  0  0  0
 27  2  2  0  0  0  0
 28 23  2  0  0  0  0
 29 30  1  0  0  0  0
 30 32  1  0  0  0  0
 31 30  2  0  0  0  0
M  END
>  <MODEL>
7

>  <REMARK>
 VINA RESULT:      -9.3      2.231      4.570
  Name = 
  1 active torsions:
  status: ('A' for Active; 'I' for Inactive)
    1  A    between atoms: C_20  and  N_29
                            x       y       z     vdW  Elec       q    Type
                         _______ _______ _______ _____ _____    ______ ____

>  <TORSDO>
F 1

$$$$
=
 OpenBabel11122410433D

 32 38  0  0  1  0  0  0  0  0999 V2000
  190.0440  178.0220  146.3160 C   0  0  1  0  0  3  0  0  0  0  0  0
  186.4580  178.2320  142.5480 C   0  0  0  0  0  0  0  0  0  0  0  0
  189.0550  178.6280  138.4270 C   0  0  0  0  0  3  0  0  0  0  0  0
  187.8790  178.8970  137.7220 O   0  0  0  0  0  0  0  0  0  0  0  0
  183.9600  178.4200  142.4680 C   0  0  0  0  0  0  0  0  0  0  0  0
  182.8290  178.5770  141.6740 C   0  0  0  0  0  0  0  0  0  0  0  0
  187.7020  177.5430  144.6310 C   0  0  1  0  0  3  0  0  0  0  0  0
  189.0070  177.9590  142.5770 C   0  0  0  0  0  2  0  0  0  0  0  0
  181.6640  178.8290  139.8320 N   0  0  0  0  0  0  0  0  0  0  0  0
  190.2350  177.9970  144.7950 C   0  0  2  0  0  3  0  0  0  0  0  0
  189.0120  178.3440  139.7250 C   0  0  0  0  0  3  0  0  0  0  0  0
  187.6980  178.2100  141.8500 C   0  0  0  0  0  0  0  0  0  0  0  0
  187.7240  178.3380  140.4510 C   0  0  0  0  0  0  0  0  0  0  0  0
  185.2970  178.5210  140.3950 C   0  0  0  0  0  0  0  0  0  0  0  0
  180.7980  178.7940  140.8380 N   0  0  0  0  0  0  0  0  0  0  0  0
  188.7110  178.4030  146.6810 O   0  0  0  0  0  0  0  0  0  0  0  0
  188.9120  178.2710  144.0580 C   0  0  2  0  0  3  0  0  0  0  0  0
  181.4850  178.6380  141.9990 C   0  0  0  0  0  3  0  0  0  0  0  0
  187.7080  177.5500  146.1610 C   0  0  0  0  0  2  0  0  0  0  0  0
  190.2360  176.6900  145.5800 C   0  0  1  0  0  3  0  0  0  0  0  0
  186.5880  178.5290  138.2150 C   0  0  0  0  0  2  0  0  0  0  0  0
  186.5320  178.5000  139.7270 C   0  0  0  0  0  0  0  0  0  0  0  0
  184.1100  178.6740  139.6450 C   0  0  0  0  0  3  0  0  0  0  0  0
  186.4540  178.1930  144.0650 C   0  0  0  0  0  2  0  0  0  0  0  0
  183.7990  178.2890  143.8430 O   0  0  0  0  0  1  0  0  0  0  0  0
  181.2880  178.9840  138.4370 C   0  0  0  0  0  1  0  0  0  0  0  0
  185.2420  178.3930  141.8260 C   0  0  0  0  0  0  0  0  0  0  0  0
  182.9020  178.6970  140.3240 C   0  0  0  0  0  0  0  0  0  0  0  0
  191.6030  176.2350  145.7570 N   0  0  0  0  0  2  0  0  0  0  0  0
  192.0360  175.6330  146.9760 C   0  0  0  0  0  0  0  0  0  0  0  0
  191.1510  175.4590  148.0320 O   0  0  0  0  0  1  0  0  0  0  0  0
  193.2290  175.2530  147.0930 O   0  0  0  0  0  0  0  0  0  0  0  0
  1 16  1  6  0  0  0
  2 24  1  0  0  0  0
  3 11  2  0  0  0  0
  4 21  1  0  0  0  0
  4  3  1  0  0  0  0
  5 25  1  0  0  0  0
  6 18  1  0  0  0  0
  6  5  2  0  0  0  0
  7 24  1  6  0  0  0
  7 19  1  0  0  0  0
  8 17  1  0  0  0  0
  9 28  1  0  0  0  0
  9 15  1  0  0  0  0
 10 20  1  0  0  0  0
 10  1  1  0  0  0  0
 11 13  1  0  0  0  0
 12  2  1  0  0  0  0
 12  8  1  0  0  0  0
 13 12  2  0  0  0  0
 14 27  1  0  0  0  0
 15 18  2  0  0  0  0
 17  7  1  0  0  0  0
 17 10  1  0  0  0  0
 19 16  1  0  0  0  0
 20 29  1  0  0  0  0
 20  1  1  0  0  0  0
 21 22  1  0  0  0  0
 22 14  2  0  0  0  0
 22 13  1  0  0  0  0
 23 28  2  0  0  0  0
 23 14  1  0  0  0  0
 26  9  1  0  0  0  0
 27  5  1  0  0  0  0
 27  2  2  0  0  0  0
 28  6  1  0  0  0  0
 29 30  1  0  0  0  0
 30 32  2  0  0  0  0
 30 31  1  0  0  0  0
M  END
>  <MODEL>
8

>  <REMARK>
 VINA RESULT:      -9.3      1.382      1.816
  Name = 
  1 active torsions:
  status: ('A' for Active; 'I' for Inactive)
    1  A    between atoms: C_20  and  N_29
                            x       y       z     vdW  Elec       q    Type
                         _______ _______ _______ _____ _____    ______ ____

>  <TORSDO>
F 1

$$$$
=
 OpenBabel11122410433D

 32 38  0  0  1  0  0  0  0  0999 V2000
  189.5210  177.9470  146.0350 C   0  0  1  0  0  3  0  0  0  0  0  0
  185.2660  178.3650  143.0640 C   0  0  0  0  0  0  0  0  0  0  0  0
  186.9920  178.5140  138.4940 C   0  0  0  0  0  3  0  0  0  0  0  0
  185.7180  178.8580  138.0340 O   0  0  0  0  0  0  0  0  0  0  0  0
  182.8230  178.7320  143.4850 C   0  0  0  0  0  0  0  0  0  0  0  0
  181.5670  178.9590  142.9310 C   0  0  0  0  0  0  0  0  0  0  0  0
  186.8580  177.6150  144.8710 C   0  0  1  0  0  3  0  0  0  0  0  0
  187.7440  177.9080  142.5850 C   0  0  0  0  0  2  0  0  0  0  0  0
  180.0720  179.2700  141.3550 N   0  0  0  0  0  0  0  0  0  0  0  0
  189.3960  177.8870  144.5080 C   0  0  2  0  0  3  0  0  0  0  0  0
  187.1950  178.2520  139.7820 C   0  0  0  0  0  3  0  0  0  0  0  0
  186.3340  178.2430  142.1310 C   0  0  0  0  0  0  0  0  0  0  0  0
  186.0840  178.3490  140.7520 C   0  0  0  0  0  0  0  0  0  0  0  0
  183.7140  178.7080  141.1820 C   0  0  0  0  0  0  0  0  0  0  0  0
  179.4290  179.3120  142.5160 N   0  0  0  0  0  0  0  0  0  0  0  0
  188.3200  178.4290  146.6510 O   0  0  0  0  0  0  0  0  0  0  0  0
  187.9730  178.2460  144.0450 C   0  0  2  0  0  3  0  0  0  0  0  0
  180.3250  179.1230  143.5190 C   0  0  0  0  0  3  0  0  0  0  0  0
  187.1760  177.6440  146.3680 C   0  0  0  0  0  2  0  0  0  0  0  0
  189.4680  176.5940  145.3130 C   0  0  1  0  0  3  0  0  0  0  0  0
  184.5320  178.5920  138.7870 C   0  0  0  0  0  2  0  0  0  0  0  0
  184.7840  178.5870  140.2790 C   0  0  0  0  0  0  0  0  0  0  0  0
  182.4120  178.9360  140.6830 C   0  0  0  0  0  3  0  0  0  0  0  0
  185.5690  178.3470  144.5510 C   0  0  0  0  0  2  0  0  0  0  0  0
  182.9360  178.6320  144.8670 O   0  0  0  0  0  1  0  0  0  0  0  0
  179.4320  179.4320  140.0610 C   0  0  0  0  0  1  0  0  0  0  0  0
  183.9430  178.6030  142.5980 C   0  0  0  0  0  0  0  0  0  0  0  0
  181.3730  179.0560  141.5910 C   0  0  0  0  0  0  0  0  0  0  0  0
  190.8080  176.0440  145.2230 N   0  0  0  0  0  2  0  0  0  0  0  0
  191.2640  175.3830  144.0430 C   0  0  0  0  0  0  0  0  0  0  0  0
  190.4310  175.2530  142.9390 O   0  0  0  0  0  0  0  0  0  0  0  0
  192.4310  174.9160  144.0030 O   0  0  0  0  0  1  0  0  0  0  0  0
  1 16  1  1  0  0  0
  2 24  1  0  0  0  0
  3 11  2  0  0  0  0
  4  3  1  0  0  0  0
  4 21  1  0  0  0  0
  5 25  1  0  0  0  0
  6  5  1  0  0  0  0
  6 18  1  0  0  0  0
  7 24  1  1  0  0  0
  7 19  1  0  0  0  0
  8 17  1  0  0  0  0
  9 28  1  0  0  0  0
  9 15  1  0  0  0  0
 10 20  1  0  0  0  0
 10  1  1  0  0  0  0
 11 13  1  0  0  0  0
 12  8  1  0  0  0  0
 12  2  2  0  0  0  0
 13 12  1  0  0  0  0
 14 27  1  0  0  0  0
 15 18  2  0  0  0  0
 17 10  1  0  0  0  0
 17  7  1  0  0  0  0
 19 16  1  0  0  0  0
 20  1  1  0  0  0  0
 21 22  1  0  0  0  0
 22 13  2  0  0  0  0
 22 14  1  0  0  0  0
 23 14  2  0  0  0  0
 23 28  1  0  0  0  0
 26  9  1  0  0  0  0
 27  2  1  0  0  0  0
 27  5  2  0  0  0  0
 28  6  2  0  0  0  0
 29 20  1  0  0  0  0
 30 29  1  0  0  0  0
 31 30  2  0  0  0  0
 32 30  1  0  0  0  0
M  END
>  <MODEL>
9

>  <REMARK>
 VINA RESULT:      -9.3      1.440      1.853
  Name = 
  1 active torsions:
  status: ('A' for Active; 'I' for Inactive)
    1  A    between atoms: C_20  and  N_29
                            x       y       z     vdW  Elec       q    Type
                         _______ _______ _______ _____ _____    ______ ____

>  <TORSDO>
F 1

$$$$
