=
 OpenBabel11122410473D

 32 38  0  0  1  0  0  0  0  0999 V2000
  186.0400  178.4950  137.2900 C   0  0  1  0  0  3  0  0  0  0  0  0
  188.2030  177.8400  142.0120 C   0  0  0  0  0  0  0  0  0  0  0  0
  184.5620  178.5480  145.1830 C   0  0  0  0  0  3  0  0  0  0  0  0
  185.4280  178.3130  146.2470 C   0  0  0  0  0  3  0  0  0  0  0  0
  190.3590  177.0550  142.8510 C   0  0  1  0  0  3  0  0  0  0  0  0
  191.2020  176.7340  144.0010 C   0  0  2  0  0  3  0  0  0  0  0  0
  187.6320  177.6090  139.6290 N   0  0  1  0  0  0  0  0  0  0  0  0
  185.8810  178.3990  141.1470 C   0  0  0  0  0  2  0  0  0  0  0  0
  191.5770  176.3330  146.1730 C   0  0  0  0  0  0  0  0  0  0  0  0
  185.4750  178.5490  138.7030 C   0  0  2  0  0  3  0  0  0  0  0  0
  185.0380  178.4980  143.8740 C   0  0  0  0  0  3  0  0  0  0  0  0
  186.8580  178.1770  142.2820 C   0  0  0  0  0  0  0  0  0  0  0  0
  186.3870  178.2060  143.6040 C   0  0  0  0  0  0  0  0  0  0  0  0
  188.6300  177.6720  144.4320 C   0  0  0  0  0  0  0  0  0  0  0  0
  192.1230  175.3980  145.4690 N   0  0  0  0  0  0  0  0  0  0  0  0
  187.5770  178.5370  137.2670 C   0  0  0  0  0  2  0  0  0  0  0  0
  186.5610  178.6050  139.7980 C   0  0  2  0  0  3  0  0  0  0  0  0
  191.8520  175.6240  144.1160 N   0  0  0  0  0  2  0  0  0  0  0  0
  188.2740  177.6440  138.3050 C   0  0  0  0  0  2  0  0  0  0  0  0
  185.4570  177.2380  137.9240 C   0  0  1  0  0  3  0  0  0  0  0  0
  186.7710  178.0240  145.9990 C   0  0  0  0  0  3  0  0  0  0  0  0
  187.2700  177.9610  144.6820 C   0  0  0  0  0  0  0  0  0  0  0  0
  189.4710  177.5150  145.4860 C   0  0  0  0  0  2  0  0  0  0  0  0
  188.6830  177.9430  140.5830 C   0  0  0  0  0  2  0  0  0  0  0  0
  190.8470  176.7690  141.5790 O   0  0  0  0  0  1  0  0  0  0  0  0
  191.7050  176.4120  147.6520 C   0  0  0  0  0  1  0  0  0  0  0  0
  189.1010  177.5420  143.0780 C   0  0  0  0  0  0  0  0  0  0  0  0
  190.9520  177.3740  145.3090 C   0  0  2  0  0  3  0  0  0  0  0  0
  184.1740  177.0200  137.4200 O   0  0  0  0  0  0  0  0  0  0  0  0
  184.1620  175.6750  137.0480 C   0  0  2  0  0  3  0  0  0  0  0  0
  183.2000  174.9130  137.9360 C   0  0  0  0  0  1  0  0  0  0  0  0
  185.4420  175.1410  137.1880 O   0  0  0  0  0  1  0  0  0  0  0  0
  1 16  1  1  0  0  0
  1 20  1  0  0  0  0
  1 10  1  0  0  0  0
  2 12  2  0  0  0  0
  2 27  1  0  0  0  0
  3  4  1  0  0  0  0
  5 25  1  1  0  0  0
  5 27  1  0  0  0  0
  5  6  1  0  0  0  0
  6 18  1  1  0  0  0
  6 28  1  0  0  0  0
  7 19  1  6  0  0  0
  7 17  1  0  0  0  0
  7 24  1  0  0  0  0
  8 12  1  0  0  0  0
  9 26  1  0  0  0  0
 10 17  1  0  0  0  0
 11  3  2  0  0  0  0
 12 13  1  0  0  0  0
 13 11  1  0  0  0  0
 13 22  2  0  0  0  0
 14 22  1  0  0  0  0
 14 23  1  0  0  0  0
 15  9  2  0  0  0  0
 16 19  1  0  0  0  0
 17  8  1  0  0  0  0
 18 15  1  0  0  0  0
 20 10  1  0  0  0  0
 21  4  2  0  0  0  0
 22 21  1  0  0  0  0
 24  2  1  0  0  0  0
 27 14  2  0  0  0  0
 28 23  1  0  0  0  0
 28  9  1  0  0  0  0
 29 20  1  0  0  0  0
 30 32  1  0  0  0  0
 30 29  1  0  0  0  0
 30 31  1  0  0  0  0
M  END
>  <MODEL>
1

>  <REMARK>
 VINA RESULT:     -10.5      0.000      0.000
  Name = 
  2 active torsions:
  status: ('A' for Active; 'I' for Inactive)
    1  A    between atoms: C_20  and  O_29
    2  A    between atoms: O_29  and  C_30
                            x       y       z     vdW  Elec       q    Type
                         _______ _______ _______ _____ _____    ______ ____

>  <TORSDO>
F 2

$$$$
=
 OpenBabel11122410473D

 32 38  0  0  1  0  0  0  0  0999 V2000
  182.8640  179.2250  138.9040 C   0  0  1  0  0  3  0  0  0  0  0  0
  186.6380  178.2000  142.3840 C   0  0  0  0  0  0  0  0  0  0  0  0
  184.4590  178.4960  146.7400 C   0  0  0  0  0  3  0  0  0  0  0  0
  185.6610  178.1890  147.3740 C   0  0  0  0  0  3  0  0  0  0  0  0
  188.9460  177.4070  142.2720 C   0  0  1  0  0  3  0  0  0  0  0  0
  190.1580  177.0070  142.9860 C   0  0  2  0  0  3  0  0  0  0  0  0
  185.2120  178.1750  140.3770 N   0  0  1  0  0  0  0  0  0  0  0  0
  184.1650  178.7650  142.5100 C   0  0  0  0  0  2  0  0  0  0  0  0
  191.3180  176.4170  144.8090 C   0  0  0  0  0  0  0  0  0  0  0  0
  182.8710  179.1300  140.4230 C   0  0  2  0  0  3  0  0  0  0  0  0
  184.4080  178.5830  145.3500 C   0  0  0  0  0  3  0  0  0  0  0  0
  185.4950  178.4680  143.1690 C   0  0  0  0  0  0  0  0  0  0  0  0
  185.5560  178.3600  144.5680 C   0  0  0  0  0  0  0  0  0  0  0  0
  187.9420  177.8200  144.4380 C   0  0  0  0  0  0  0  0  0  0  0  0
  191.5540  175.5690  143.8640 N   0  0  0  0  0  0  0  0  0  0  0  0
  184.2790  179.3170  138.3110 C   0  0  0  0  0  2  0  0  0  0  0  0
  184.2890  179.1170  141.0310 C   0  0  2  0  0  3  0  0  0  0  0  0
  190.7960  175.9110  142.7400 N   0  0  0  0  0  2  0  0  0  0  0  0
  185.3100  178.3530  138.9190 C   0  0  0  0  0  2  0  0  0  0  0  0
  182.5530  177.8980  139.5830 C   0  0  1  0  0  3  0  0  0  0  0  0
  186.8100  177.9670  146.6140 C   0  0  0  0  0  3  0  0  0  0  0  0
  186.7780  178.0430  145.2060 C   0  0  0  0  0  0  0  0  0  0  0  0
  189.1160  177.5910  145.0800 C   0  0  0  0  0  2  0  0  0  0  0  0
  186.5470  178.4500  140.8960 C   0  0  0  0  0  2  0  0  0  0  0  0
  188.9190  177.2570  140.8890 O   0  0  0  0  0  1  0  0  0  0  0  0
  191.9940  176.3610  146.1330 C   0  0  0  0  0  1  0  0  0  0  0  0
  187.8690  177.8320  143.0010 C   0  0  0  0  0  0  0  0  0  0  0  0
  190.4210  177.5130  144.3480 C   0  0  2  0  0  3  0  0  0  0  0  0
  181.1740  177.6880  139.5770 O   0  0  0  0  0  0  0  0  0  0  0  0
  181.0240  176.3010  139.6270 C   0  0  2  0  0  3  0  0  0  0  0  0
  182.3510  175.6380  139.3160 C   0  0  0  0  0  1  0  0  0  0  0  0
  180.0770  175.9010  138.6850 O   0  0  0  0  0  1  0  0  0  0  0  0
  1 16  1  6  0  0  0
  1 20  1  0  0  0  0
  1 10  1  0  0  0  0
  2 27  2  0  0  0  0
  2 12  1  0  0  0  0
  3  4  1  0  0  0  0
  5 25  1  1  0  0  0
  5  6  1  0  0  0  0
  5 27  1  0  0  0  0
  6 18  1  1  0  0  0
  6 28  1  0  0  0  0
  7 19  1  6  0  0  0
  7 24  1  0  0  0  0
  7 17  1  0  0  0  0
  8 12  1  0  0  0  0
  9 26  1  0  0  0  0
 10 17  1  0  0  0  0
 11  3  2  0  0  0  0
 12 13  2  0  0  0  0
 13 22  1  0  0  0  0
 13 11  1  0  0  0  0
 14 23  1  0  0  0  0
 14 22  2  0  0  0  0
 15  9  2  0  0  0  0
 16 19  1  0  0  0  0
 17  8  1  0  0  0  0
 18 15  1  0  0  0  0
 20 10  1  0  0  0  0
 21  4  2  0  0  0  0
 22 21  1  0  0  0  0
 24  2  1  0  0  0  0
 27 14  1  0  0  0  0
 28  9  1  0  0  0  0
 28 23  1  0  0  0  0
 29 20  1  0  0  0  0
 29 30  1  0  0  0  0
 31 30  1  0  0  0  0
 32 30  1  0  0  0  0
M  END
>  <MODEL>
2

>  <REMARK>
 VINA RESULT:     -10.3      1.847      2.397
  Name = 
  2 active torsions:
  status: ('A' for Active; 'I' for Inactive)
    1  A    between atoms: C_20  and  O_29
    2  A    between atoms: O_29  and  C_30
                            x       y       z     vdW  Elec       q    Type
                         _______ _______ _______ _____ _____    ______ ____

>  <TORSDO>
F 2

$$$$
=
 OpenBabel11122410473D

 32 38  0  0  1  0  0  0  0  0999 V2000
  188.5690  177.7830  137.1050 C   0  0  1  0  0  3  0  0  0  0  0  0
  187.9190  177.9840  142.2950 C   0  0  0  0  0  0  0  0  0  0  0  0
  183.1600  178.8480  142.9440 C   0  0  0  0  0  3  0  0  0  0  0  0
  183.3350  178.8370  144.3250 C   0  0  0  0  0  3  0  0  0  0  0  0
  189.3050  177.5000  144.2470 C   0  0  1  0  0  3  0  0  0  0  0  0
  189.4150  177.4150  145.7030 C   0  0  2  0  0  3  0  0  0  0  0  0
  188.6850  177.3700  140.0380 N   0  0  1  0  0  0  0  0  0  0  0  0
  186.4050  178.2280  140.2710 C   0  0  0  0  0  2  0  0  0  0  0  0
  188.5880  177.3600  147.7840 C   0  0  0  0  0  0  0  0  0  0  0  0
  187.3460  177.9940  137.9860 C   0  0  2  0  0  3  0  0  0  0  0  0
  184.2530  178.6490  142.1020 C   0  0  0  0  0  3  0  0  0  0  0  0
  186.6360  178.2480  141.7670 C   0  0  0  0  0  0  0  0  0  0  0  0
  185.5400  178.4290  142.6260 C   0  0  0  0  0  0  0  0  0  0  0  0
  187.0080  178.1980  144.5730 C   0  0  0  0  0  0  0  0  0  0  0  0
  189.4150  176.3800  147.6310 N   0  0  0  0  0  0  0  0  0  0  0  0
  189.8880  177.9430  137.8770 C   0  0  0  0  0  2  0  0  0  0  0  0
  187.6940  178.2920  139.4590 C   0  0  2  0  0  3  0  0  0  0  0  0
  189.8980  176.3880  146.3190 N   0  0  0  0  0  2  0  0  0  0  0  0
  189.9280  177.2660  139.2560 C   0  0  0  0  0  2  0  0  0  0  0  0
  187.7290  176.5880  137.5370 C   0  0  1  0  0  3  0  0  0  0  0  0
  184.6050  178.6230  144.8620 C   0  0  0  0  0  3  0  0  0  0  0  0
  185.7230  178.4120  144.0280 C   0  0  0  0  0  0  0  0  0  0  0  0
  187.1680  178.2600  145.9200 C   0  0  0  0  0  2  0  0  0  0  0  0
  189.0800  177.9190  141.3300 C   0  0  0  0  0  2  0  0  0  0  0  0
  190.3870  177.0750  143.4820 O   0  0  0  0  0  1  0  0  0  0  0  0
  187.9190  177.6600  149.0780 C   0  0  0  0  0  1  0  0  0  0  0  0
  188.1200  177.9140  143.7050 C   0  0  0  0  0  0  0  0  0  0  0  0
  188.5190  178.2130  146.5640 C   0  0  2  0  0  3  0  0  0  0  0  0
  186.9020  176.1990  136.4840 O   0  0  0  0  0  0  0  0  0  0  0  0
  187.1220  174.8280  136.3450 C   0  0  2  0  0  3  0  0  0  0  0  0
  185.9890  174.0650  137.0000 C   0  0  0  0  0  1  0  0  0  0  0  0
  188.3260  174.4850  136.9610 O   0  0  0  0  0  1  0  0  0  0  0  0
  1 20  1  0  0  0  0
  1 16  1  1  0  0  0
  1 10  1  0  0  0  0
  2 27  1  0  0  0  0
  3  4  1  0  0  0  0
  4 21  2  0  0  0  0
  5 25  1  6  0  0  0
  5  6  1  0  0  0  0
  6 18  1  1  0  0  0
  6 28  1  0  0  0  0
  7 19  1  6  0  0  0
  7 24  1  0  0  0  0
  8 12  1  0  0  0  0
  9 26  1  0  0  0  0
 10 17  1  0  0  0  0
 11 13  1  0  0  0  0
 11  3  2  0  0  0  0
 12  2  2  0  0  0  0
 12 13  1  0  0  0  0
 13 22  2  0  0  0  0
 14 23  1  0  0  0  0
 15  9  2  0  0  0  0
 16 19  1  0  0  0  0
 17  7  1  0  0  0  0
 17  8  1  0  0  0  0
 18 15  1  0  0  0  0
 20 10  1  0  0  0  0
 22 14  1  0  0  0  0
 22 21  1  0  0  0  0
 23 28  1  0  0  0  0
 24  2  1  0  0  0  0
 27  5  1  0  0  0  0
 27 14  2  0  0  0  0
 28  9  1  0  0  0  0
 29 20  1  0  0  0  0
 30 29  1  0  0  0  0
 30 32  1  0  0  0  0
 30 31  1  0  0  0  0
M  END
>  <MODEL>
3

>  <REMARK>
 VINA RESULT:     -10.0      1.782      2.401
  Name = 
  2 active torsions:
  status: ('A' for Active; 'I' for Inactive)
    1  A    between atoms: C_20  and  O_29
    2  A    between atoms: O_29  and  C_30
                            x       y       z     vdW  Elec       q    Type
                         _______ _______ _______ _____ _____    ______ ____

>  <TORSDO>
F 2

$$$$
=
 OpenBabel11122410473D

 32 38  0  0  1  0  0  0  0  0999 V2000
  180.6190  179.4660  138.8000 C   0  0  1  0  0  3  0  0  0  0  0  0
  184.3300  178.5110  142.3650 C   0  0  0  0  0  0  0  0  0  0  0  0
  188.4810  178.1880  139.8190 C   0  0  0  0  0  3  0  0  0  0  0  0
  189.1950  177.9510  140.9920 C   0  0  0  0  0  3  0  0  0  0  0  0
  184.4400  178.4830  144.8060 C   0  0  1  0  0  3  0  0  0  0  0  0
  185.2500  178.3140  146.0110 C   0  0  2  0  0  3  0  0  0  0  0  0
  182.3340  179.3770  141.2170 N   0  0  1  0  0  0  0  0  0  0  0  0
  184.2760  178.8010  139.8430 C   0  0  0  0  0  2  0  0  0  0  0  0
  187.1840  178.1390  147.1280 C   0  0  0  0  0  0  0  0  0  0  0  0
  182.1260  179.2780  138.6980 C   0  0  2  0  0  3  0  0  0  0  0  0
  187.1010  178.3760  139.8710 C   0  0  0  0  0  3  0  0  0  0  0  0
  185.0160  178.5070  141.1300 C   0  0  0  0  0  0  0  0  0  0  0  0
  186.4090  178.3350  141.0950 C   0  0  0  0  0  0  0  0  0  0  0  0
  186.4530  178.0500  143.5280 C   0  0  0  0  0  0  0  0  0  0  0  0
  186.4350  179.0120  147.7130 N   0  0  0  0  0  0  0  0  0  0  0  0
  180.0570  179.0090  140.1560 C   0  0  0  0  0  2  0  0  0  0  0  0
  182.7610  178.7010  139.9800 C   0  0  2  0  0  3  0  0  0  0  0  0
  185.2460  179.1550  146.9910 N   0  0  0  0  0  2  0  0  0  0  0  0
  180.8730  179.4420  141.3840 C   0  0  0  0  0  2  0  0  0  0  0  0
  181.5420  180.6750  138.8780 C   0  0  1  0  0  3  0  0  0  0  0  0
  188.5250  177.9050  142.2150 C   0  0  0  0  0  3  0  0  0  0  0  0
  187.1300  178.1000  142.2890 C   0  0  0  0  0  0  0  0  0  0  0  0
  187.1570  177.7490  144.6480 C   0  0  0  0  0  2  0  0  0  0  0  0
  182.8210  178.5780  142.3340 C   0  0  0  0  0  2  0  0  0  0  0  0
  183.1150  178.8800  144.9560 O   0  0  0  0  0  1  0  0  0  0  0  0
  188.5100  177.7230  147.6600 C   0  0  0  0  0  1  0  0  0  0  0  0
  185.0410  178.3230  143.5870 C   0  0  0  0  0  0  0  0  0  0  0  0
  186.4900  177.5120  145.9680 C   0  0  2  0  0  3  0  0  0  0  0  0
  181.5430  181.3360  137.6490 O   0  0  0  0  0  0  0  0  0  0  0  0
  180.7570  182.4700  137.8550 C   0  0  2  0  0  3  0  0  0  0  0  0
  179.5850  182.4550  136.8940 C   0  0  0  0  0  1  0  0  0  0  0  0
  181.5220  183.6150  137.6310 O   0  0  0  0  0  1  0  0  0  0  0  0
  1 20  1  0  0  0  0
  1 16  1  1  0  0  0
  2 27  1  0  0  0  0
  3 11  2  0  0  0  0
  3  4  1  0  0  0  0
  4 21  2  0  0  0  0
  5 25  1  6  0  0  0
  5  6  1  0  0  0  0
  6 18  1  6  0  0  0
  7 19  1  6  0  0  0
  7 24  1  0  0  0  0
  8 17  1  0  0  0  0
  8 12  1  0  0  0  0
  9 26  1  0  0  0  0
  9 15  2  0  0  0  0
 10  1  1  0  0  0  0
 10 20  1  0  0  0  0
 10 17  1  0  0  0  0
 11 13  1  0  0  0  0
 12  2  2  0  0  0  0
 13 12  1  0  0  0  0
 13 22  2  0  0  0  0
 14 27  2  0  0  0  0
 14 23  1  0  0  0  0
 16 19  1  0  0  0  0
 17  7  1  0  0  0  0
 18 15  1  0  0  0  0
 21 22  1  0  0  0  0
 22 14  1  0  0  0  0
 23 28  1  0  0  0  0
 24  2  1  0  0  0  0
 27  5  1  0  0  0  0
 28  6  1  0  0  0  0
 28  9  1  0  0  0  0
 29 30  1  0  0  0  0
 29 20  1  0  0  0  0
 31 30  1  0  0  0  0
 32 30  1  0  0  0  0
M  END
>  <MODEL>
4

>  <REMARK>
 VINA RESULT:      -9.7      4.033      5.735
  Name = 
  2 active torsions:
  status: ('A' for Active; 'I' for Inactive)
    1  A    between atoms: C_20  and  O_29
    2  A    between atoms: O_29  and  C_30
                            x       y       z     vdW  Elec       q    Type
                         _______ _______ _______ _____ _____    ______ ____

>  <TORSDO>
F 2

$$$$
=
 OpenBabel11122410473D

 32 38  0  0  1  0  0  0  0  0999 V2000
  190.5380  176.6280  136.8110 C   0  0  1  0  0  3  0  0  0  0  0  0
  189.3810  177.4350  141.8520 C   0  0  0  0  0  0  0  0  0  0  0  0
  184.6490  178.6280  141.8910 C   0  0  0  0  0  3  0  0  0  0  0  0
  184.6820  178.7590  143.2770 C   0  0  0  0  0  3  0  0  0  0  0  0
  190.5270  177.0940  143.9820 C   0  0  1  0  0  3  0  0  0  0  0  0
  190.4830  177.1640  145.4420 C   0  0  2  0  0  3  0  0  0  0  0  0
  190.3290  176.5350  139.7670 N   0  0  1  0  0  0  0  0  0  0  0  0
  188.0990  177.5380  139.6620 C   0  0  0  0  0  2  0  0  0  0  0  0
  189.4480  177.3850  147.4160 C   0  0  0  0  0  0  0  0  0  0  0  0
  189.2480  177.0020  137.5290 C   0  0  2  0  0  3  0  0  0  0  0  0
  185.8060  178.2770  141.1970 C   0  0  0  0  0  3  0  0  0  0  0  0
  188.1780  177.7110  141.1640 C   0  0  0  0  0  0  0  0  0  0  0  0
  187.0160  178.0460  141.8770 C   0  0  0  0  0  0  0  0  0  0  0  0
  188.2600  177.9500  143.9840 C   0  0  0  0  0  0  0  0  0  0  0  0
  190.2190  176.3500  147.4550 N   0  0  0  0  0  0  0  0  0  0  0  0
  191.7800  176.7990  137.7000 C   0  0  0  0  0  2  0  0  0  0  0  0
  189.4640  177.4410  138.9920 C   0  0  2  0  0  3  0  0  0  0  0  0
  190.8320  176.1860  146.2090 N   0  0  0  0  0  2  0  0  0  0  0  0
  191.6350  176.2770  139.1390 C   0  0  0  0  0  2  0  0  0  0  0  0
  189.5810  175.5360  137.2730 C   0  0  1  0  0  3  0  0  0  0  0  0
  185.8740  178.5350  143.9670 C   0  0  0  0  0  3  0  0  0  0  0  0
  187.0540  178.1730  143.2850 C   0  0  0  0  0  0  0  0  0  0  0  0
  188.2870  178.1510  145.3260 C   0  0  0  0  0  2  0  0  0  0  0  0
  190.6270  177.2000  141.0300 C   0  0  0  0  0  2  0  0  0  0  0  0
  191.6500  176.5280  143.3860 O   0  0  0  0  0  1  0  0  0  0  0  0
  188.6730  177.8610  148.5930 C   0  0  0  0  0  1  0  0  0  0  0  0
  189.4330  177.5100  143.2750 C   0  0  0  0  0  0  0  0  0  0  0  0
  189.5600  178.1010  146.1140 C   0  0  2  0  0  3  0  0  0  0  0  0
  188.8400  175.0800  136.1820 O   0  0  0  0  0  0  0  0  0  0  0  0
  188.8280  173.6910  136.3160 C   0  0  2  0  0  3  0  0  0  0  0  0
  187.4700  173.2420  136.8140 C   0  0  0  0  0  1  0  0  0  0  0  0
  189.8070  173.3020  137.2310 O   0  0  0  0  0  1  0  0  0  0  0  0
  1 20  1  0  0  0  0
  1 10  1  0  0  0  0
  1 16  1  1  0  0  0
  2 27  1  0  0  0  0
  3  4  1  0  0  0  0
  4 21  2  0  0  0  0
  5 25  1  1  0  0  0
  5  6  1  0  0  0  0
  6 28  1  0  0  0  0
  6 18  1  1  0  0  0
  7 19  1  6  0  0  0
  7 24  1  0  0  0  0
  8 12  1  0  0  0  0
  9 15  2  0  0  0  0
  9 26  1  0  0  0  0
 10 17  1  0  0  0  0
 11 13  1  0  0  0  0
 11  3  2  0  0  0  0
 12  2  2  0  0  0  0
 12 13  1  0  0  0  0
 13 22  2  0  0  0  0
 14 23  1  0  0  0  0
 16 19  1  0  0  0  0
 17  8  1  0  0  0  0
 17  7  1  0  0  0  0
 18 15  1  0  0  0  0
 20 10  1  0  0  0  0
 22 21  1  0  0  0  0
 22 14  1  0  0  0  0
 23 28  1  0  0  0  0
 24  2  1  0  0  0  0
 27  5  1  0  0  0  0
 27 14  2  0  0  0  0
 28  9  1  0  0  0  0
 29 30  1  0  0  0  0
 29 20  1  0  0  0  0
 30 31  1  0  0  0  0
 30 32  1  0  0  0  0
M  END
>  <MODEL>
5

>  <REMARK>
 VINA RESULT:      -9.2      2.307      3.148
  Name = 
  2 active torsions:
  status: ('A' for Active; 'I' for Inactive)
    1  A    between atoms: C_20  and  O_29
    2  A    between atoms: O_29  and  C_30
                            x       y       z     vdW  Elec       q    Type
                         _______ _______ _______ _____ _____    ______ ____

>  <TORSDO>
F 2

$$$$
=
 OpenBabel11122410473D

 32 38  0  0  1  0  0  0  0  0999 V2000
  181.3990  179.1550  139.8360 C   0  0  1  0  0  3  0  0  0  0  0  0
  186.5190  178.2460  140.4360 C   0  0  0  0  0  0  0  0  0  0  0  0
  187.1270  177.5330  145.2250 C   0  0  0  0  0  3  0  0  0  0  0  0
  188.4920  177.3330  145.0330 C   0  0  0  0  0  3  0  0  0  0  0  0
  188.4110  177.8630  138.9390 C   0  0  1  0  0  3  0  0  0  0  0  0
  189.8340  177.5630  138.7860 C   0  0  2  0  0  3  0  0  0  0  0  0
  184.2210  178.2910  139.5560 N   0  0  1  0  0  0  0  0  0  0  0  0
  184.5110  178.3790  141.9850 C   0  0  0  0  0  2  0  0  0  0  0  0
  191.8420  176.9020  139.5270 C   0  0  0  0  0  0  0  0  0  0  0  0
  182.2570  178.8370  141.0520 C   0  0  2  0  0  3  0  0  0  0  0  0
  186.3050  177.8170  144.1360 C   0  0  0  0  0  3  0  0  0  0  0  0
  185.9960  178.2060  141.7480 C   0  0  0  0  0  0  0  0  0  0  0  0
  186.8320  177.9010  142.8340 C   0  0  0  0  0  0  0  0  0  0  0  0
  188.7650  177.7800  141.3340 C   0  0  0  0  0  0  0  0  0  0  0  0
  191.5550  176.2550  138.4480 N   0  0  0  0  0  0  0  0  0  0  0  0
  182.2370  179.5620  138.6120 C   0  0  0  0  0  2  0  0  0  0  0  0
  183.7720  178.9630  140.7870 C   0  0  2  0  0  3  0  0  0  0  0  0
  190.2830  176.6340  138.0090 N   0  0  0  0  0  2  0  0  0  0  0  0
  183.4800  178.6980  138.3510 C   0  0  0  0  0  2  0  0  0  0  0  0
  181.5890  177.7090  140.2730 C   0  0  1  0  0  3  0  0  0  0  0  0
  189.0320  177.4160  143.7490 C   0  0  0  0  0  3  0  0  0  0  0  0
  188.2170  177.6950  142.6330 C   0  0  0  0  0  0  0  0  0  0  0  0
  190.1070  177.6520  141.1800 C   0  0  0  0  0  2  0  0  0  0  0  0
  185.6010  178.6980  139.3230 C   0  0  0  0  0  2  0  0  0  0  0  0
  187.6260  177.9190  137.7910 O   0  0  0  0  0  1  0  0  0  0  0  0
  193.1430  176.7600  140.2340 C   0  0  0  0  0  1  0  0  0  0  0  0
  187.9030  177.9940  140.2020 C   0  0  0  0  0  0  0  0  0  0  0  0
  190.7850  177.8960  139.8660 C   0  0  2  0  0  3  0  0  0  0  0  0
  180.4540  177.2810  140.9630 O   0  0  0  0  0  0  0  0  0  0  0  0
  179.8390  176.3690  140.1050 C   0  0  2  0  0  3  0  0  0  0  0  0
  179.2480  175.2330  140.9140 C   0  0  0  0  0  1  0  0  0  0  0  0
  180.7820  175.8590  139.2130 O   0  0  0  0  0  1  0  0  0  0  0  0
  1 16  1  6  0  0  0
  1 20  1  0  0  0  0
  1 10  1  0  0  0  0
  2 12  1  0  0  0  0
  4  3  1  0  0  0  0
  5 25  1  1  0  0  0
  5 27  1  0  0  0  0
  6 18  1  1  0  0  0
  6  5  1  0  0  0  0
  6 28  1  0  0  0  0
  7 19  1  6  0  0  0
  7 17  1  0  0  0  0
  9 28  1  0  0  0  0
  9 26  1  0  0  0  0
 11  3  2  0  0  0  0
 12  8  1  0  0  0  0
 12 13  2  0  0  0  0
 13 11  1  0  0  0  0
 14 22  2  0  0  0  0
 15  9  2  0  0  0  0
 17 10  1  0  0  0  0
 17  8  1  0  0  0  0
 18 15  1  0  0  0  0
 19 16  1  0  0  0  0
 20 29  1  0  0  0  0
 20 10  1  0  0  0  0
 21  4  2  0  0  0  0
 22 13  1  0  0  0  0
 22 21  1  0  0  0  0
 23 14  1  0  0  0  0
 24  7  1  0  0  0  0
 24  2  1  0  0  0  0
 27  2  2  0  0  0  0
 27 14  1  0  0  0  0
 28 23  1  0  0  0  0
 30 31  1  0  0  0  0
 30 29  1  0  0  0  0
 32 30  1  0  0  0  0
M  END
>  <MODEL>
6

>  <REMARK>
 VINA RESULT:      -7.9      2.811      4.484
  Name = 
  2 active torsions:
  status: ('A' for Active; 'I' for Inactive)
    1  A    between atoms: C_20  and  O_29
    2  A    between atoms: O_29  and  C_30
                            x       y       z     vdW  Elec       q    Type
                         _______ _______ _______ _____ _____    ______ ____

>  <TORSDO>
F 2

$$$$
=
 OpenBabel11122410473D

 32 38  0  0  1  0  0  0  0  0999 V2000
  191.0320  176.7090  141.3260 C   0  0  1  0  0  3  0  0  0  0  0  0
  186.0330  178.2600  141.2600 C   0  0  0  0  0  0  0  0  0  0  0  0
  184.6620  178.3150  145.9440 C   0  0  0  0  0  3  0  0  0  0  0  0
  183.3870  178.7400  145.5760 C   0  0  0  0  0  3  0  0  0  0  0  0
  184.5010  179.1420  139.5740 C   0  0  1  0  0  3  0  0  0  0  0  0
  183.1750  179.6680  139.2540 C   0  0  2  0  0  3  0  0  0  0  0  0
  188.4300  178.0120  140.7610 N   0  0  1  0  0  0  0  0  0  0  0  0
  187.6990  177.5970  143.0590 C   0  0  0  0  0  2  0  0  0  0  0  0
  181.1590  180.4960  139.7730 C   0  0  0  0  0  0  0  0  0  0  0  0
  190.0140  176.9610  142.4290 C   0  0  2  0  0  3  0  0  0  0  0  0
  185.6270  178.0830  144.9650 C   0  0  0  0  0  3  0  0  0  0  0  0
  186.3120  178.0210  142.6250 C   0  0  0  0  0  0  0  0  0  0  0  0
  185.3370  178.2770  143.6020 C   0  0  0  0  0  0  0  0  0  0  0  0
  183.7340  178.9090  141.8610 C   0  0  0  0  0  0  0  0  0  0  0  0
  181.7110  181.2510  138.8830 N   0  0  0  0  0  0  0  0  0  0  0  0
  190.3870  176.6210  139.9340 C   0  0  0  0  0  2  0  0  0  0  0  0
  188.5670  177.1010  141.9090 C   0  0  2  0  0  3  0  0  0  0  0  0
  182.9880  180.7600  138.5910 N   0  0  0  0  0  2  0  0  0  0  0  0
  189.3220  177.6890  139.6350 C   0  0  0  0  0  2  0  0  0  0  0  0
  190.9400  178.0840  141.9750 C   0  0  1  0  0  3  0  0  0  0  0  0
  183.0820  178.9360  144.2290 C   0  0  0  0  0  3  0  0  0  0  0  0
  184.0460  178.7130  143.2240 C   0  0  0  0  0  0  0  0  0  0  0  0
  182.4670  179.2560  141.5210 C   0  0  0  0  0  2  0  0  0  0  0  0
  187.0760  177.8530  140.2450 C   0  0  0  0  0  2  0  0  0  0  0  0
  185.4680  179.1470  138.5730 O   0  0  0  0  0  1  0  0  0  0  0  0
  179.7790  180.7190  140.2800 C   0  0  0  0  0  1  0  0  0  0  0  0
  184.7540  178.7450  140.8590 C   0  0  0  0  0  0  0  0  0  0  0  0
  182.0130  179.3180  140.0950 C   0  0  2  0  0  3  0  0  0  0  0  0
  191.9750  178.2280  142.9000 O   0  0  0  0  0  0  0  0  0  0  0  0
  191.3350  178.4920  144.1120 C   0  0  2  0  0  3  0  0  0  0  0  0
  191.3280  179.9850  144.3660 C   0  0  0  0  0  1  0  0  0  0  0  0
  192.0160  177.8510  145.1470 O   0  0  0  0  0  1  0  0  0  0  0  0
  1 16  1  6  0  0  0
  1 20  1  0  0  0  0
  1 10  1  0  0  0  0
  2 12  1  0  0  0  0
  4  3  1  0  0  0  0
  5 25  1  1  0  0  0
  5 27  1  0  0  0  0
  6 18  1  1  0  0  0
  6  5  1  0  0  0  0
  6 28  1  0  0  0  0
  7 19  1  6  0  0  0
  7 17  1  0  0  0  0
  9 28  1  0  0  0  0
  9 26  1  0  0  0  0
 11  3  2  0  0  0  0
 12  8  1  0  0  0  0
 12 13  2  0  0  0  0
 13 11  1  0  0  0  0
 14 22  2  0  0  0  0
 15  9  2  0  0  0  0
 17 10  1  0  0  0  0
 17  8  1  0  0  0  0
 18 15  1  0  0  0  0
 19 16  1  0  0  0  0
 20 10  1  0  0  0  0
 20 29  1  0  0  0  0
 21  4  2  0  0  0  0
 22 13  1  0  0  0  0
 22 21  1  0  0  0  0
 23 14  1  0  0  0  0
 24  7  1  0  0  0  0
 24  2  1  0  0  0  0
 27  2  2  0  0  0  0
 27 14  1  0  0  0  0
 28 23  1  0  0  0  0
 29 30  1  0  0  0  0
 30 31  1  0  0  0  0
 30 32  1  0  0  0  0
M  END
>  <MODEL>
7

>  <REMARK>
 VINA RESULT:      -7.7      2.807      7.489
  Name = 
  2 active torsions:
  status: ('A' for Active; 'I' for Inactive)
    1  A    between atoms: C_20  and  O_29
    2  A    between atoms: O_29  and  C_30
                            x       y       z     vdW  Elec       q    Type
                         _______ _______ _______ _____ _____    ______ ____

>  <TORSDO>
F 2

$$$$
=
 OpenBabel11122410473D

 32 38  0  0  1  0  0  0  0  0999 V2000
  191.1110  177.6400  144.7740 C   0  0  1  0  0  3  0  0  0  0  0  0
  187.1970  178.3200  141.3650 C   0  0  0  0  0  0  0  0  0  0  0  0
  189.2670  177.9240  136.9630 C   0  0  0  0  0  3  0  0  0  0  0  0
  188.0340  178.1380  136.3520 C   0  0  0  0  0  3  0  0  0  0  0  0
  184.7640  178.4890  141.5110 C   0  0  1  0  0  3  0  0  0  0  0  0
  183.4850  178.6260  140.8180 C   0  0  2  0  0  3  0  0  0  0  0  0
  188.5220  177.6550  143.3290 N   0  0  1  0  0  0  0  0  0  0  0  0
  189.6920  177.8780  141.1910 C   0  0  0  0  0  2  0  0  0  0  0  0
  182.1650  178.6140  139.0080 C   0  0  0  0  0  0  0  0  0  0  0  0
  191.0490  177.6190  143.2530 C   0  0  2  0  0  3  0  0  0  0  0  0
  189.3640  177.9250  138.3540 C   0  0  0  0  0  3  0  0  0  0  0  0
  188.3450  178.1530  140.5580 C   0  0  0  0  0  0  0  0  0  0  0  0
  188.2300  178.1360  139.1590 C   0  0  0  0  0  0  0  0  0  0  0  0
  185.8250  178.5670  139.3340 C   0  0  0  0  0  0  0  0  0  0  0  0
  181.6260  177.8870  139.9300 N   0  0  0  0  0  0  0  0  0  0  0  0
  189.8520  178.2530  145.4080 C   0  0  0  0  0  2  0  0  0  0  0  0
  189.7330  178.1870  142.6830 C   0  0  2  0  0  3  0  0  0  0  0  0
  182.4710  177.8580  141.0430 N   0  0  0  0  0  2  0  0  0  0  0  0
  188.5190  177.7960  144.7950 C   0  0  0  0  0  2  0  0  0  0  0  0
  190.8690  176.3260  144.0410 C   0  0  1  0  0  3  0  0  0  0  0  0
  186.8990  178.3510  137.1350 C   0  0  0  0  0  3  0  0  0  0  0  0
  186.9740  178.3490  138.5430 C   0  0  0  0  0  0  0  0  0  0  0  0
  184.6480  178.8430  138.7180 C   0  0  0  0  0  2  0  0  0  0  0  0
  187.3960  178.4520  142.8570 C   0  0  0  0  0  2  0  0  0  0  0  0
  184.7460  178.2820  142.8880 O   0  0  0  0  0  1  0  0  0  0  0  0
  181.5060  178.8820  137.7020 C   0  0  0  0  0  1  0  0  0  0  0  0
  185.9130  178.4890  140.7690 C   0  0  0  0  0  0  0  0  0  0  0  0
  183.4250  179.2520  139.4810 C   0  0  2  0  0  3  0  0  0  0  0  0
  192.0550  175.5930  144.0020 O   0  0  0  0  0  0  0  0  0  0  0  0
  191.9280  174.6550  145.0270 C   0  0  2  0  0  3  0  0  0  0  0  0
  192.4310  175.2530  146.3250 C   0  0  0  0  0  1  0  0  0  0  0  0
  192.6820  173.5230  144.7190 O   0  0  0  0  0  1  0  0  0  0  0  0
  1 16  1  1  0  0  0
  2 24  1  0  0  0  0
  3 11  1  0  0  0  0
  4  3  2  0  0  0  0
  4 21  1  0  0  0  0
  5 25  1  6  0  0  0
  6 18  1  6  0  0  0
  6  5  1  0  0  0  0
  7 24  1  6  0  0  0
  7 19  1  0  0  0  0
  8 17  1  0  0  0  0
  9 28  1  0  0  0  0
  9 15  2  0  0  0  0
 10 20  1  0  0  0  0
 10  1  1  0  0  0  0
 11 13  2  0  0  0  0
 12  8  1  0  0  0  0
 12  2  2  0  0  0  0
 13 12  1  0  0  0  0
 14 27  2  0  0  0  0
 15 18  1  0  0  0  0
 17 10  1  0  0  0  0
 17  7  1  0  0  0  0
 19 16  1  0  0  0  0
 20  1  1  0  0  0  0
 21 22  2  0  0  0  0
 22 13  1  0  0  0  0
 22 14  1  0  0  0  0
 23 14  1  0  0  0  0
 23 28  1  0  0  0  0
 26  9  1  0  0  0  0
 27  2  1  0  0  0  0
 27  5  1  0  0  0  0
 28  6  1  0  0  0  0
 29 20  1  0  0  0  0
 29 30  1  0  0  0  0
 30 31  1  0  0  0  0
 32 30  1  0  0  0  0
M  END
>  <MODEL>
8

>  <REMARK>
 VINA RESULT:      -7.7      2.641      8.351
  Name = 
  2 active torsions:
  status: ('A' for Active; 'I' for Inactive)
    1  A    between atoms: C_20  and  O_29
    2  A    between atoms: O_29  and  C_30
                            x       y       z     vdW  Elec       q    Type
                         _______ _______ _______ _____ _____    ______ ____

>  <TORSDO>
F 2

$$$$
=
 OpenBabel11122410473D

 32 38  0  0  1  0  0  0  0  0999 V2000
  189.3740  177.7350  147.9890 C   0  0  1  0  0  3  0  0  0  0  0  0
  186.9190  178.2450  143.3940 C   0  0  0  0  0  0  0  0  0  0  0  0
  190.3690  177.5030  140.0240 C   0  0  0  0  0  3  0  0  0  0  0  0
  189.4350  177.6970  139.0090 C   0  0  0  0  0  3  0  0  0  0  0  0
  184.5950  178.4680  142.6720 C   0  0  1  0  0  3  0  0  0  0  0  0
  183.6430  178.5790  141.5690 C   0  0  2  0  0  3  0  0  0  0  0  0
  187.4500  177.6950  145.7330 N   0  0  1  0  0  0  0  0  0  0  0  0
  189.2980  177.7470  144.1290 C   0  0  0  0  0  2  0  0  0  0  0  0
  183.0340  178.4640  139.4160 C   0  0  0  0  0  0  0  0  0  0  0  0
  189.8440  177.6080  146.5460 C   0  0  2  0  0  3  0  0  0  0  0  0
  189.9780  177.6000  141.3580 C   0  0  0  0  0  3  0  0  0  0  0  0
  188.2670  178.0010  143.0500 C   0  0  0  0  0  0  0  0  0  0  0  0
  188.6440  177.8880  141.7020 C   0  0  0  0  0  0  0  0  0  0  0  0
  186.3480  178.3740  141.0010 C   0  0  0  0  0  0  0  0  0  0  0  0
  182.1800  177.8130  140.1330 N   0  0  0  0  0  0  0  0  0  0  0  0
  188.0000  178.4140  148.1060 C   0  0  0  0  0  2  0  0  0  0  0  0
  188.8310  178.1590  145.5200 C   0  0  2  0  0  3  0  0  0  0  0  0
  182.5830  177.8480  141.4710 N   0  0  0  0  0  2  0  0  0  0  0  0
  186.9450  177.9390  147.0940 C   0  0  0  0  0  2  0  0  0  0  0  0
  189.3470  176.3780  147.2970 C   0  0  1  0  0  3  0  0  0  0  0  0
  188.1080  177.9850  139.3320 C   0  0  0  0  0  3  0  0  0  0  0  0
  187.6900  178.0800  140.6760 C   0  0  0  0  0  0  0  0  0  0  0  0
  185.4710  178.6280  139.9970 C   0  0  0  0  0  2  0  0  0  0  0  0
  186.5930  178.4780  144.8510 C   0  0  0  0  0  2  0  0  0  0  0  0
  184.0920  178.3590  143.9650 O   0  0  0  0  0  1  0  0  0  0  0  0
  182.8810  178.6520  137.9480 C   0  0  0  0  0  1  0  0  0  0  0  0
  185.9300  178.3950  142.3780 C   0  0  0  0  0  0  0  0  0  0  0  0
  184.0770  179.1110  140.2610 C   0  0  2  0  0  3  0  0  0  0  0  0
  190.4420  175.6230  147.7190 O   0  0  0  0  0  0  0  0  0  0  0  0
  191.5480  176.2470  147.1410 C   0  0  2  0  0  3  0  0  0  0  0  0
  192.0560  175.4100  145.9850 C   0  0  0  0  0  1  0  0  0  0  0  0
  192.5590  176.3780  148.0930 O   0  0  0  0  0  1  0  0  0  0  0  0
  1 16  1  6  0  0  0
  2 24  1  0  0  0  0
  3 11  2  0  0  0  0
  4 21  2  0  0  0  0
  4  3  1  0  0  0  0
  5 25  1  6  0  0  0
  6 18  1  6  0  0  0
  6  5  1  0  0  0  0
  7 24  1  6  0  0  0
  7 19  1  0  0  0  0
  8 17  1  0  0  0  0
  9 15  2  0  0  0  0
  9 28  1  0  0  0  0
 10 20  1  0  0  0  0
 10  1  1  0  0  0  0
 11 13  1  0  0  0  0
 12  2  1  0  0  0  0
 12  8  1  0  0  0  0
 13 12  2  0  0  0  0
 14 27  1  0  0  0  0
 15 18  1  0  0  0  0
 17  7  1  0  0  0  0
 17 10  1  0  0  0  0
 19 16  1  0  0  0  0
 20 29  1  0  0  0  0
 20  1  1  0  0  0  0
 21 22  1  0  0  0  0
 22 14  2  0  0  0  0
 22 13  1  0  0  0  0
 23 28  1  0  0  0  0
 23 14  1  0  0  0  0
 26  9  1  0  0  0  0
 27  5  1  0  0  0  0
 27  2  2  0  0  0  0
 28  6  1  0  0  0  0
 30 29  1  0  0  0  0
 30 32  1  0  0  0  0
 31 30  1  0  0  0  0
M  END
>  <MODEL>
9

>  <REMARK>
 VINA RESULT:      -7.6      3.062      8.522
  Name = 
  2 active torsions:
  status: ('A' for Active; 'I' for Inactive)
    1  A    between atoms: C_20  and  O_29
    2  A    between atoms: O_29  and  C_30
                            x       y       z     vdW  Elec       q    Type
                         _______ _______ _______ _____ _____    ______ ____

>  <TORSDO>
F 2

$$$$
