=
 OpenBabel11122410563D

 31 35  0  0  1  0  0  0  0  0999 V2000
  191.5600  178.1120  143.8470 C   0  0  2  0  0  3  0  0  0  0  0  0
  189.8430  177.8970  140.5360 C   0  0  2  0  0  3  0  0  0  0  0  0
  189.6640  176.6560  139.6520 C   0  0  2  0  0  3  0  0  0  0  0  0
  190.9180  175.0980  138.1240 C   0  0  0  0  0  0  0  0  0  0  0  0
  190.2710  177.4950  141.9570 C   0  0  1  0  0  3  0  0  0  0  0  0
  190.4340  177.8410  144.8560 C   0  0  0  0  0  2  0  0  0  0  0  0
  191.0350  176.1070  139.2330 C   0  0  0  0  0  2  0  0  0  0  0  0
  187.5010  178.3070  141.4720 C   0  0  0  0  0  0  0  0  0  0  0  0
  192.4310  179.0490  144.3670 F   0  0  0  0  0  0  0  0  0  0  0  0
  187.6870  177.9420  138.6070 C   0  0  0  0  0  2  0  0  0  0  0  0
  191.8680  174.1430  137.9860 F   0  0  0  0  0  0  0  0  0  0  0  0
  187.7280  177.0190  142.2110 C   0  0  0  0  0  2  0  0  0  0  0  0
  188.5900  178.8060  140.5570 C   0  0  2  0  0  3  0  0  0  0  0  0
  186.4020  178.9960  141.5770 N   0  0  0  0  0  0  0  0  0  0  0  0
  191.0330  178.5850  142.5690 N   0  0  0  0  0  2  0  0  0  0  0  0
  189.9470  175.2010  137.2120 C   0  0  0  0  0  3  0  0  0  0  0  0
  189.1060  177.0070  142.8770 C   0  0  2  0  0  3  0  0  0  0  0  0
  189.0550  177.7750  144.1990 C   0  0  0  0  0  2  0  0  0  0  0  0
  188.1340  179.1160  139.2500 O   0  0  0  0  0  0  0  0  0  0  0  0
  188.8050  176.9650  138.4490 C   0  0  0  0  0  0  0  0  0  0  0  0
  188.8990  176.2290  137.3400 C   0  0  0  0  0  3  0  0  0  0  0  0
  184.6420  177.6040  142.2880 O   0  0  0  0  0  0  0  0  0  0  0  0
  185.2550  178.7010  142.3920 C   0  0  0  0  0  0  0  0  0  0  0  0
  184.5210  178.4370  145.9690 C   0  0  0  0  0  0  0  0  0  0  0  0
  185.7890  179.9780  144.4940 C   0  0  0  0  0  2  0  0  0  0  0  0
  182.4500  179.1180  142.9730 O   0  0  0  0  0  1  0  0  0  0  0  0
  184.3170  178.2500  147.1560 O   0  0  0  0  0  0  0  0  0  0  0  0
  185.8870  178.8170  145.4870 C   0  0  0  0  0  2  0  0  0  0  0  0
  183.3780  179.3800  143.9820 C   0  0  2  0  0  3  0  0  0  0  0  0
  184.7600  179.7110  143.3880 C   0  0  2  0  0  3  0  0  0  0  0  0
  183.4270  178.2140  144.9700 C   0  0  0  0  0  2  0  0  0  0  0  0
  1  9  1  1  0  0  0
  1  6  1  0  0  0  0
  2 13  1  0  0  0  0
  2  5  1  0  0  0  0
  3  2  1  0  0  0  0
  4  7  1  0  0  0  0
  5 15  1  0  0  0  0
  5 17  1  0  0  0  0
  7  3  1  0  0  0  0
  8 14  2  0  0  0  0
  8 12  1  0  0  0  0
 10 19  1  0  0  0  0
 11  4  1  0  0  0  0
 12 17  1  0  0  0  0
 13  8  1  0  0  0  0
 14 23  1  0  0  0  0
 15  1  1  0  0  0  0
 16 21  1  0  0  0  0
 16  4  2  0  0  0  0
 17 18  1  0  0  0  0
 18  6  1  0  0  0  0
 19 13  1  0  0  0  0
 20 10  1  0  0  0  0
 20  3  1  0  0  0  0
 21 20  2  0  0  0  0
 22 23  2  0  0  0  0
 23 30  1  0  0  0  0
 24 27  2  0  0  0  0
 25 28  1  0  0  0  0
 26 29  1  0  0  0  0
 28 24  1  0  0  0  0
 29 31  1  0  0  0  0
 30 29  1  0  0  0  0
 30 25  1  0  0  0  0
 31 24  1  0  0  0  0
M  END
>  <MODEL>
1

>  <REMARK>
 VINA RESULT:      -7.3      0.000      0.000
  Name = 
  2 active torsions:
  status: ('A' for Active; 'I' for Inactive)
    1  A    between atoms: C_5  and  N_16
    2  A    between atoms: C_5  and  C_30
                            x       y       z     vdW  Elec       q    Type
                         _______ _______ _______ _____ _____    ______ ____

>  <TORSDO>
F 2

$$$$
=
 OpenBabel11122410563D

 31 35  0  0  1  0  0  0  0  0999 V2000
  185.3710  178.4580  145.8130 C   0  0  2  0  0  3  0  0  0  0  0  0
  189.0290  178.0810  145.1570 C   0  0  2  0  0  3  0  0  0  0  0  0
  189.8980  176.8370  145.3850 C   0  0  2  0  0  3  0  0  0  0  0  0
  190.9670  175.4540  147.1970 C   0  0  0  0  0  0  0  0  0  0  0  0
  187.5360  177.7160  145.2020 C   0  0  1  0  0  3  0  0  0  0  0  0
  184.7210  178.0460  144.4840 C   0  0  0  0  0  2  0  0  0  0  0  0
  189.8940  176.4580  146.8730 C   0  0  0  0  0  2  0  0  0  0  0  0
  188.8140  178.2040  142.6140 C   0  0  0  0  0  0  0  0  0  0  0  0
  184.6440  179.4850  146.3840 F   0  0  0  0  0  0  0  0  0  0  0  0
  191.4960  177.8950  143.6570 C   0  0  0  0  0  2  0  0  0  0  0  0
  190.8040  174.6190  148.2500 F   0  0  0  0  0  0  0  0  0  0  0  0
  188.0110  176.9420  142.7660 C   0  0  0  0  0  2  0  0  0  0  0  0
  189.3890  178.8370  143.8560 C   0  0  2  0  0  3  0  0  0  0  0  0
  189.0440  178.7580  141.4600 N   0  0  0  0  0  0  0  0  0  0  0  0
  186.7560  178.8800  145.6260 N   0  0  0  0  0  2  0  0  0  0  0  0
  192.1210  175.4530  146.5240 C   0  0  0  0  0  3  0  0  0  0  0  0
  186.9780  177.0850  143.8870 C   0  0  2  0  0  3  0  0  0  0  0  0
  185.7440  177.8270  143.3700 C   0  0  0  0  0  2  0  0  0  0  0  0
  190.7780  179.1060  143.7620 O   0  0  0  0  0  0  0  0  0  0  0  0
  191.3040  177.0570  144.8790 C   0  0  0  0  0  0  0  0  0  0  0  0
  192.3230  176.3500  145.3720 C   0  0  0  0  0  3  0  0  0  0  0  0
  187.3810  178.0080  139.9730 O   0  0  0  0  0  0  0  0  0  0  0  0
  188.5860  178.3210  140.1690 C   0  0  0  0  0  0  0  0  0  0  0  0
  188.2960  176.7730  136.8640 C   0  0  0  0  0  0  0  0  0  0  0  0
  189.0380  178.9590  137.7760 C   0  0  0  0  0  2  0  0  0  0  0  0
  190.4280  176.1150  139.8210 O   0  0  0  0  0  1  0  0  0  0  0  0
  188.0960  176.2390  135.7860 O   0  0  0  0  0  0  0  0  0  0  0  0
  187.9010  178.2010  137.0860 C   0  0  0  0  0  2  0  0  0  0  0  0
  189.9800  176.7850  138.6820 C   0  0  2  0  0  3  0  0  0  0  0  0
  189.5520  178.2250  139.0220 C   0  0  2  0  0  3  0  0  0  0  0  0
  188.8680  175.9850  138.0030 C   0  0  0  0  0  2  0  0  0  0  0  0
  1  9  1  6  0  0  0
  2  5  1  0  0  0  0
  2  3  1  0  0  0  0
  3  7  1  0  0  0  0
  4 11  1  0  0  0  0
  5 15  1  0  0  0  0
  6  1  1  0  0  0  0
  7  4  1  0  0  0  0
  8 12  1  0  0  0  0
  8 13  1  0  0  0  0
 10 19  1  0  0  0  0
 10 20  1  0  0  0  0
 12 17  1  0  0  0  0
 13  2  1  0  0  0  0
 14  8  2  0  0  0  0
 15  1  1  0  0  0  0
 16  4  2  0  0  0  0
 17  5  1  0  0  0  0
 18 17  1  0  0  0  0
 18  6  1  0  0  0  0
 19 13  1  0  0  0  0
 20 21  2  0  0  0  0
 20  3  1  0  0  0  0
 21 16  1  0  0  0  0
 22 23  2  0  0  0  0
 23 14  1  0  0  0  0
 24 28  1  0  0  0  0
 24 31  1  0  0  0  0
 25 30  1  0  0  0  0
 27 24  2  0  0  0  0
 28 25  1  0  0  0  0
 29 30  1  0  0  0  0
 29 26  1  0  0  0  0
 30 23  1  0  0  0  0
 31 29  1  0  0  0  0
M  END
>  <MODEL>
2

>  <REMARK>
 VINA RESULT:      -7.3      3.127      6.976
  Name = 
  2 active torsions:
  status: ('A' for Active; 'I' for Inactive)
    1  A    between atoms: C_5  and  N_16
    2  A    between atoms: C_5  and  C_30
                            x       y       z     vdW  Elec       q    Type
                         _______ _______ _______ _____ _____    ______ ____

>  <TORSDO>
F 2

$$$$
=
 OpenBabel11122410563D

 31 35  0  0  1  0  0  0  0  0999 V2000
  179.7770  179.2350  140.5660 C   0  0  2  0  0  3  0  0  0  0  0  0
  183.4340  179.1580  141.3230 C   0  0  2  0  0  3  0  0  0  0  0  0
  184.1400  178.4020  142.4570 C   0  0  2  0  0  3  0  0  0  0  0  0
  184.5120  178.4320  144.9460 C   0  0  0  0  0  0  0  0  0  0  0  0
  181.9980  178.6410  141.1390 C   0  0  1  0  0  3  0  0  0  0  0  0
  179.5850  178.0640  139.5920 C   0  0  0  0  0  2  0  0  0  0  0  0
  183.6370  178.9050  143.8180 C   0  0  0  0  0  2  0  0  0  0  0  0
  184.0670  177.8310  139.2340 C   0  0  0  0  0  0  0  0  0  0  0  0
  178.9370  180.2730  140.2120 F   0  0  0  0  0  0  0  0  0  0  0  0
  186.2490  178.5820  140.9810 C   0  0  0  0  0  2  0  0  0  0  0  0
  183.9870  178.2970  146.1870 F   0  0  0  0  0  0  0  0  0  0  0  0
  183.2190  176.7490  139.8400 C   0  0  0  0  0  2  0  0  0  0  0  0
  184.2240  179.1240  139.9940 C   0  0  2  0  0  3  0  0  0  0  0  0
  184.6800  177.6910  138.0950 N   0  0  0  0  0  0  0  0  0  0  0  0
  181.1600  179.7030  140.5770 N   0  0  0  0  0  2  0  0  0  0  0  0
  185.8220  178.2500  144.7600 C   0  0  0  0  0  3  0  0  0  0  0  0
  181.8810  177.3130  140.3260 C   0  0  2  0  0  3  0  0  0  0  0  0
  180.9080  177.4380  139.1510 C   0  0  0  0  0  2  0  0  0  0  0  0
  185.5760  179.5180  140.1660 O   0  0  0  0  0  0  0  0  0  0  0  0
  185.6400  178.5330  142.3440 C   0  0  0  0  0  0  0  0  0  0  0  0
  186.4180  178.3870  143.4190 C   0  0  0  0  0  3  0  0  0  0  0  0
  183.6310  175.8250  137.1170 O   0  0  0  0  0  0  0  0  0  0  0  0
  184.6560  176.5510  137.2190 C   0  0  0  0  0  0  0  0  0  0  0  0
  187.9660  178.1000  136.9950 C   0  0  0  0  0  0  0  0  0  0  0  0
  187.0600  175.8090  137.2910 C   0  0  0  0  0  2  0  0  0  0  0  0
  185.1810  177.6520  134.5940 O   0  0  0  0  0  1  0  0  0  0  0  0
  189.0390  178.6800  137.0020 O   0  0  0  0  0  0  0  0  0  0  0  0
  187.6850  177.0180  137.9910 C   0  0  0  0  0  2  0  0  0  0  0  0
  186.2710  177.2820  135.3830 C   0  0  2  0  0  3  0  0  0  0  0  0
  185.8710  176.2020  136.4060 C   0  0  2  0  0  3  0  0  0  0  0  0
  186.8880  178.5160  136.0420 C   0  0  0  0  0  2  0  0  0  0  0  0
  1  9  1  6  0  0  0
  1 15  1  0  0  0  0
  2  3  1  0  0  0  0
  3  7  1  0  0  0  0
  4 11  1  0  0  0  0
  5  2  1  0  0  0  0
  6  1  1  0  0  0  0
  7  4  1  0  0  0  0
  8 12  1  0  0  0  0
  8 13  1  0  0  0  0
 10 20  1  0  0  0  0
 12 17  1  0  0  0  0
 13 19  1  0  0  0  0
 13  2  1  0  0  0  0
 14  8  2  0  0  0  0
 15  5  1  0  0  0  0
 16  4  2  0  0  0  0
 17  5  1  0  0  0  0
 18  6  1  0  0  0  0
 18 17  1  0  0  0  0
 19 10  1  0  0  0  0
 20  3  1  0  0  0  0
 20 21  2  0  0  0  0
 21 16  1  0  0  0  0
 22 23  2  0  0  0  0
 23 14  1  0  0  0  0
 24 27  2  0  0  0  0
 24 28  1  0  0  0  0
 25 28  1  0  0  0  0
 26 29  1  0  0  0  0
 29 31  1  0  0  0  0
 29 30  1  0  0  0  0
 30 23  1  0  0  0  0
 30 25  1  0  0  0  0
 31 24  1  0  0  0  0
M  END
>  <MODEL>
3

>  <REMARK>
 VINA RESULT:      -7.2      4.452      8.469
  Name = 
  2 active torsions:
  status: ('A' for Active; 'I' for Inactive)
    1  A    between atoms: C_5  and  N_16
    2  A    between atoms: C_5  and  C_30
                            x       y       z     vdW  Elec       q    Type
                         _______ _______ _______ _____ _____    ______ ____

>  <TORSDO>
F 2

$$$$
=
 OpenBabel11122410563D

 31 35  0  0  1  0  0  0  0  0999 V2000
  192.5550  175.6510  135.4660 C   0  0  2  0  0  3  0  0  0  0  0  0
  189.3190  177.0640  136.6850 C   0  0  2  0  0  3  0  0  0  0  0  0
  187.9730  176.3390  136.8240 C   0  0  2  0  0  3  0  0  0  0  0  0
  186.0590  175.4100  135.4790 C   0  0  0  0  0  0  0  0  0  0  0  0
  190.4630  176.0530  136.5040 C   0  0  1  0  0  3  0  0  0  0  0  0
  193.2290  175.1350  136.7450 C   0  0  0  0  0  2  0  0  0  0  0  0
  187.5010  175.8400  135.4510 C   0  0  0  0  0  2  0  0  0  0  0  0
  190.0960  177.3500  139.1020 C   0  0  0  0  0  0  0  0  0  0  0  0
  193.5140  176.1620  134.6130 F   0  0  0  0  0  0  0  0  0  0  0  0
  187.3890  178.1910  138.5220 C   0  0  0  0  0  2  0  0  0  0  0  0
  185.6210  174.4830  134.5940 F   0  0  0  0  0  0  0  0  0  0  0  0
  190.2280  175.8530  139.0850 C   0  0  0  0  0  2  0  0  0  0  0  0
  189.6020  178.0370  137.8540 C   0  0  2  0  0  3  0  0  0  0  0  0
  190.3760  178.0700  140.1490 N   0  0  0  0  0  0  0  0  0  0  0  0
  191.5590  176.6780  135.7600 N   0  0  0  0  0  2  0  0  0  0  0  0
  185.1870  176.0100  136.2930 C   0  0  0  0  0  3  0  0  0  0  0  0
  190.9600  175.3840  137.8250 C   0  0  2  0  0  3  0  0  0  0  0  0
  192.4720  175.5300  138.0130 C   0  0  0  0  0  2  0  0  0  0  0  0
  188.5170  178.9200  138.0870 O   0  0  0  0  0  0  0  0  0  0  0  0
  186.9400  177.2310  137.4690 C   0  0  0  0  0  0  0  0  0  0  0  0
  185.6380  177.0190  137.2680 C   0  0  0  0  0  3  0  0  0  0  0  0
  192.0400  177.1860  141.5590 O   0  0  0  0  0  0  0  0  0  0  0  0
  190.8630  177.6160  141.4230 C   0  0  0  0  0  0  0  0  0  0  0  0
  191.5670  177.3030  145.0020 C   0  0  0  0  0  0  0  0  0  0  0  0
  190.2660  178.8330  143.5440 C   0  0  0  0  0  2  0  0  0  0  0  0
  189.6780  175.2390  142.5740 O   0  0  0  0  0  1  0  0  0  0  0  0
  191.9050  177.2010  146.1690 O   0  0  0  0  0  0  0  0  0  0  0  0
  191.5660  178.6410  144.3290 C   0  0  0  0  0  2  0  0  0  0  0  0
  189.9340  176.3210  143.4170 C   0  0  2  0  0  3  0  0  0  0  0  0
  189.9620  177.6430  142.6250 C   0  0  2  0  0  3  0  0  0  0  0  0
  191.2220  176.0820  144.2060 C   0  0  0  0  0  2  0  0  0  0  0  0
  1  9  1  6  0  0  0
  1 15  1  0  0  0  0
  1  6  1  0  0  0  0
  2  3  1  0  0  0  0
  2 13  1  0  0  0  0
  3 20  1  0  0  0  0
  4 16  2  0  0  0  0
  5  2  1  0  0  0  0
  5 17  1  0  0  0  0
  6 18  1  0  0  0  0
  7  4  1  0  0  0  0
  7  3  1  0  0  0  0
  8 14  2  0  0  0  0
 11  4  1  0  0  0  0
 12  8  1  0  0  0  0
 13 19  1  0  0  0  0
 13  8  1  0  0  0  0
 14 23  1  0  0  0  0
 15  5  1  0  0  0  0
 16 21  1  0  0  0  0
 17 18  1  0  0  0  0
 17 12  1  0  0  0  0
 19 10  1  0  0  0  0
 20 10  1  0  0  0  0
 21 20  2  0  0  0  0
 23 22  2  0  0  0  0
 23 30  1  0  0  0  0
 24 27  2  0  0  0  0
 25 28  1  0  0  0  0
 26 29  1  0  0  0  0
 28 24  1  0  0  0  0
 29 31  1  0  0  0  0
 30 29  1  0  0  0  0
 30 25  1  0  0  0  0
 31 24  1  0  0  0  0
M  END
>  <MODEL>
4

>  <REMARK>
 VINA RESULT:      -7.0      4.272      6.066
  Name = 
  2 active torsions:
  status: ('A' for Active; 'I' for Inactive)
    1  A    between atoms: C_5  and  N_16
    2  A    between atoms: C_5  and  C_30
                            x       y       z     vdW  Elec       q    Type
                         _______ _______ _______ _____ _____    ______ ____

>  <TORSDO>
F 2

$$$$
=
 OpenBabel11122410563D

 31 35  0  0  1  0  0  0  0  0999 V2000
  187.3590  178.8910  136.8020 C   0  0  2  0  0  3  0  0  0  0  0  0
  189.2720  178.0550  139.9000 C   0  0  2  0  0  3  0  0  0  0  0  0
  188.7770  177.2750  141.1250 C   0  0  2  0  0  3  0  0  0  0  0  0
  187.2860  177.4680  143.1440 C   0  0  0  0  0  0  0  0  0  0  0  0
  188.3150  177.8650  138.7120 C   0  0  1  0  0  3  0  0  0  0  0  0
  187.6420  177.7040  135.8710 C   0  0  0  0  0  2  0  0  0  0  0  0
  187.5990  178.0130  141.7770 C   0  0  0  0  0  2  0  0  0  0  0  0
  190.8570  176.4150  138.7480 C   0  0  0  0  0  0  0  0  0  0  0  0
  187.2830  180.0540  136.0590 F   0  0  0  0  0  0  0  0  0  0  0  0
  191.2740  176.8170  141.5830 C   0  0  0  0  0  2  0  0  0  0  0  0
  186.0300  177.5820  143.6370 F   0  0  0  0  0  0  0  0  0  0  0  0
  189.6090  175.6220  138.4770 C   0  0  0  0  0  2  0  0  0  0  0  0
  190.7300  177.7070  139.5140 C   0  0  2  0  0  3  0  0  0  0  0  0
  192.0370  176.0240  138.3620 N   0  0  0  0  0  0  0  0  0  0  0  0
  188.3910  179.0290  137.8260 N   0  0  0  0  0  2  0  0  0  0  0  0
  188.2570  176.9730  143.9160 C   0  0  0  0  0  3  0  0  0  0  0  0
  188.4980  176.5240  137.9320 C   0  0  2  0  0  3  0  0  0  0  0  0
  188.6970  176.7510  136.4320 C   0  0  0  0  0  2  0  0  0  0  0  0
  191.6110  177.7960  140.6220 O   0  0  0  0  0  0  0  0  0  0  0  0
  189.8960  177.0460  142.1120 C   0  0  0  0  0  0  0  0  0  0  0  0
  189.6320  176.8340  143.4030 C   0  0  0  0  0  3  0  0  0  0  0  0
  191.6250  173.8220  137.6390 O   0  0  0  0  0  0  0  0  0  0  0  0
  192.3710  174.8380  137.6210 C   0  0  0  0  0  0  0  0  0  0  0  0
  194.7410  172.1280  136.9580 C   0  0  0  0  0  0  0  0  0  0  0  0
  193.5170  173.8240  135.6230 C   0  0  0  0  0  2  0  0  0  0  0  0
  194.9930  175.3760  138.7230 O   0  0  0  0  0  1  0  0  0  0  0  0
  195.4630  171.1600  136.7880 O   0  0  0  0  0  0  0  0  0  0  0  0
  193.5620  172.3590  136.0650 C   0  0  0  0  0  2  0  0  0  0  0  0
  194.9010  174.5070  137.6350 C   0  0  2  0  0  3  0  0  0  0  0  0
  193.6330  174.7910  136.8070 C   0  0  2  0  0  3  0  0  0  0  0  0
  194.9810  173.0560  138.1100 C   0  0  0  0  0  2  0  0  0  0  0  0
  1  9  1  6  0  0  0
  1 15  1  0  0  0  0
  2  3  1  0  0  0  0
  3  7  1  0  0  0  0
  3 20  1  0  0  0  0
  4 11  1  0  0  0  0
  4 16  2  0  0  0  0
  5  2  1  0  0  0  0
  6 18  1  0  0  0  0
  6  1  1  0  0  0  0
  7  4  1  0  0  0  0
  8 13  1  0  0  0  0
 10 20  1  0  0  0  0
 12  8  1  0  0  0  0
 13  2  1  0  0  0  0
 13 19  1  0  0  0  0
 14  8  2  0  0  0  0
 15  5  1  0  0  0  0
 17 12  1  0  0  0  0
 17  5  1  0  0  0  0
 18 17  1  0  0  0  0
 19 10  1  0  0  0  0
 20 21  2  0  0  0  0
 21 16  1  0  0  0  0
 23 22  2  0  0  0  0
 23 14  1  0  0  0  0
 24 31  1  0  0  0  0
 25 28  1  0  0  0  0
 25 30  1  0  0  0  0
 27 24  2  0  0  0  0
 28 24  1  0  0  0  0
 29 31  1  0  0  0  0
 29 26  1  0  0  0  0
 30 23  1  0  0  0  0
 30 29  1  0  0  0  0
M  END
>  <MODEL>
5

>  <REMARK>
 VINA RESULT:      -7.0      4.099      9.085
  Name = 
  2 active torsions:
  status: ('A' for Active; 'I' for Inactive)
    1  A    between atoms: C_5  and  N_16
    2  A    between atoms: C_5  and  C_30
                            x       y       z     vdW  Elec       q    Type
                         _______ _______ _______ _____ _____    ______ ____

>  <TORSDO>
F 2

$$$$
=
 OpenBabel11122410563D

 31 35  0  0  1  0  0  0  0  0999 V2000
  179.7990  178.8050  137.3550 C   0  0  2  0  0  3  0  0  0  0  0  0
  182.6040  179.2100  139.7890 C   0  0  2  0  0  3  0  0  0  0  0  0
  182.7350  178.5780  141.1820 C   0  0  2  0  0  3  0  0  0  0  0  0
  181.8340  178.7150  143.5280 C   0  0  0  0  0  0  0  0  0  0  0  0
  181.5010  178.5120  138.9770 C   0  0  1  0  0  3  0  0  0  0  0  0
  180.2250  177.5960  136.5110 C   0  0  0  0  0  2  0  0  0  0  0  0
  181.5830  179.0460  142.0820 C   0  0  0  0  0  2  0  0  0  0  0  0
  184.3070  177.9230  138.3850 C   0  0  0  0  0  0  0  0  0  0  0  0
  179.1430  179.7200  136.5550 F   0  0  0  0  0  0  0  0  0  0  0  0
  185.2670  178.9870  140.8990 C   0  0  0  0  0  2  0  0  0  0  0  0
  180.7850  178.5450  144.3670 F   0  0  0  0  0  0  0  0  0  0  0  0
  183.3810  176.7570  138.5930 C   0  0  0  0  0  2  0  0  0  0  0  0
  183.9430  179.2430  139.0150 C   0  0  2  0  0  3  0  0  0  0  0  0
  185.4090  177.8340  137.7000 N   0  0  0  0  0  0  0  0  0  0  0  0
  180.9460  179.4450  137.9950 N   0  0  0  0  0  2  0  0  0  0  0  0
  183.0790  178.6950  144.0140 C   0  0  0  0  0  3  0  0  0  0  0  0
  181.9290  177.1590  138.3230 C   0  0  2  0  0  3  0  0  0  0  0  0
  181.6490  177.1320  136.8190 C   0  0  0  0  0  2  0  0  0  0  0  0
  184.9910  179.8100  139.7860 O   0  0  0  0  0  0  0  0  0  0  0  0
  184.0770  178.8940  141.7970 C   0  0  0  0  0  0  0  0  0  0  0  0
  184.2390  178.8740  143.1220 C   0  0  0  0  0  3  0  0  0  0  0  0
  185.3430  176.1900  136.0170 O   0  0  0  0  0  0  0  0  0  0  0  0
  185.9290  176.6790  137.0200 C   0  0  0  0  0  0  0  0  0  0  0  0
  189.3120  176.5860  135.6210 C   0  0  0  0  0  0  0  0  0  0  0  0
  188.2830  177.0580  137.8290 C   0  0  0  0  0  2  0  0  0  0  0  0
  186.7320  174.0040  136.2560 O   0  0  0  0  0  1  0  0  0  0  0  0
  190.4040  176.6250  135.0810 O   0  0  0  0  0  0  0  0  0  0  0  0
  188.8970  177.6700  136.5680 C   0  0  0  0  0  2  0  0  0  0  0  0
  187.7310  174.9290  136.5660 C   0  0  2  0  0  3  0  0  0  0  0  0
  187.1940  176.0270  137.5040 C   0  0  2  0  0  3  0  0  0  0  0  0
  188.3410  175.4960  135.2840 C   0  0  0  0  0  2  0  0  0  0  0  0
  1  9  1  6  0  0  0
  1 15  1  0  0  0  0
  2  3  1  0  0  0  0
  3 20  1  0  0  0  0
  3  7  1  0  0  0  0
  4 16  2  0  0  0  0
  4 11  1  0  0  0  0
  5  2  1  0  0  0  0
  6 18  1  0  0  0  0
  6  1  1  0  0  0  0
  7  4  1  0  0  0  0
  8 12  1  0  0  0  0
  8 13  1  0  0  0  0
 10 20  1  0  0  0  0
 13 19  1  0  0  0  0
 13  2  1  0  0  0  0
 14  8  2  0  0  0  0
 15  5  1  0  0  0  0
 17 12  1  0  0  0  0
 17  5  1  0  0  0  0
 18 17  1  0  0  0  0
 19 10  1  0  0  0  0
 20 21  2  0  0  0  0
 21 16  1  0  0  0  0
 22 23  2  0  0  0  0
 23 30  1  0  0  0  0
 23 14  1  0  0  0  0
 24 28  1  0  0  0  0
 26 29  1  0  0  0  0
 27 24  2  0  0  0  0
 28 25  1  0  0  0  0
 29 30  1  0  0  0  0
 30 25  1  0  0  0  0
 31 24  1  0  0  0  0
 31 29  1  0  0  0  0
M  END
>  <MODEL>
6

>  <REMARK>
 VINA RESULT:      -6.8      5.123      9.393
  Name = 
  2 active torsions:
  status: ('A' for Active; 'I' for Inactive)
    1  A    between atoms: C_5  and  N_16
    2  A    between atoms: C_5  and  C_30
                            x       y       z     vdW  Elec       q    Type
                         _______ _______ _______ _____ _____    ______ ____

>  <TORSDO>
F 2

$$$$
=
 OpenBabel11122410563D

 31 35  0  0  1  0  0  0  0  0999 V2000
  191.2440  177.6610  143.9650 C   0  0  2  0  0  3  0  0  0  0  0  0
  190.0860  177.8600  140.4180 C   0  0  2  0  0  3  0  0  0  0  0  0
  189.9540  176.7100  139.4100 C   0  0  2  0  0  3  0  0  0  0  0  0
  191.3110  175.1570  137.9660 C   0  0  0  0  0  0  0  0  0  0  0  0
  190.2390  177.3130  141.8470 C   0  0  1  0  0  3  0  0  0  0  0  0
  189.9490  177.4250  144.7550 C   0  0  0  0  0  2  0  0  0  0  0  0
  191.3260  176.0650  139.1660 C   0  0  0  0  0  2  0  0  0  0  0  0
  187.6640  178.4220  141.0050 C   0  0  0  0  0  0  0  0  0  0  0  0
  192.0920  178.4690  144.6970 F   0  0  0  0  0  0  0  0  0  0  0  0
  188.2900  178.2540  138.1850 C   0  0  0  0  0  2  0  0  0  0  0  0
  192.1880  174.1280  137.8960 F   0  0  0  0  0  0  0  0  0  0  0  0
  187.6580  177.0660  141.6530 C   0  0  0  0  0  2  0  0  0  0  0  0
  188.9270  178.8800  140.3220 C   0  0  2  0  0  3  0  0  0  0  0  0
  186.6230  179.2030  140.9960 N   0  0  0  0  0  0  0  0  0  0  0  0
  190.9770  178.2760  142.6670 N   0  0  0  0  0  2  0  0  0  0  0  0
  190.5160  175.4200  136.9250 C   0  0  0  0  0  3  0  0  0  0  0  0
  188.9020  176.8730  142.5250 C   0  0  2  0  0  3  0  0  0  0  0  0
  188.6970  177.5410  143.8860 C   0  0  0  0  0  2  0  0  0  0  0  0
  188.7210  179.3290  138.9920 O   0  0  0  0  0  0  0  0  0  0  0  0
  189.3350  177.1890  138.1190 C   0  0  0  0  0  0  0  0  0  0  0  0
  189.5500  176.5320  136.9770 C   0  0  0  0  0  3  0  0  0  0  0  0
  185.0220  179.4650  142.7000 O   0  0  0  0  0  0  0  0  0  0  0  0
  185.3370  178.9590  141.5900 C   0  0  0  0  0  0  0  0  0  0  0  0
  182.8360  179.6900  139.0180 C   0  0  0  0  0  0  0  0  0  0  0  0
  184.6110  177.9950  139.3810 C   0  0  0  0  0  2  0  0  0  0  0  0
  182.6320  178.5550  142.5390 O   0  0  0  0  0  1  0  0  0  0  0  0
  182.0440  180.0320  138.1560 O   0  0  0  0  0  0  0  0  0  0  0  0
  184.2280  179.2830  138.6480 C   0  0  0  0  0  2  0  0  0  0  0  0
  182.8710  178.4570  141.1670 C   0  0  2  0  0  3  0  0  0  0  0  0
  184.3390  178.0820  140.8880 C   0  0  2  0  0  3  0  0  0  0  0  0
  182.4490  179.7480  140.4640 C   0  0  0  0  0  2  0  0  0  0  0  0
  1  9  1  1  0  0  0
  1  6  1  0  0  0  0
  2  5  1  0  0  0  0
  3  2  1  0  0  0  0
  4  7  1  0  0  0  0
  5 17  1  0  0  0  0
  5 15  1  0  0  0  0
  7  3  1  0  0  0  0
  8 12  1  0  0  0  0
 10 19  1  0  0  0  0
 11  4  1  0  0  0  0
 12 17  1  0  0  0  0
 13  2  1  0  0  0  0
 13  8  1  0  0  0  0
 14  8  2  0  0  0  0
 14 23  1  0  0  0  0
 15  1  1  0  0  0  0
 16 21  1  0  0  0  0
 16  4  2  0  0  0  0
 17 18  1  0  0  0  0
 18  6  1  0  0  0  0
 19 13  1  0  0  0  0
 20 10  1  0  0  0  0
 20  3  1  0  0  0  0
 21 20  2  0  0  0  0
 23 22  2  0  0  0  0
 24 31  1  0  0  0  0
 25 30  1  0  0  0  0
 27 24  2  0  0  0  0
 28 24  1  0  0  0  0
 28 25  1  0  0  0  0
 29 26  1  0  0  0  0
 30 29  1  0  0  0  0
 30 23  1  0  0  0  0
 31 29  1  0  0  0  0
M  END
>  <MODEL>
7

>  <REMARK>
 VINA RESULT:      -6.4      1.823      2.986
  Name = 
  2 active torsions:
  status: ('A' for Active; 'I' for Inactive)
    1  A    between atoms: C_5  and  N_16
    2  A    between atoms: C_5  and  C_30
                            x       y       z     vdW  Elec       q    Type
                         _______ _______ _______ _____ _____    ______ ____

>  <TORSDO>
F 2

$$$$
=
 OpenBabel11122410563D

 31 35  0  0  1  0  0  0  0  0999 V2000
  191.2550  178.1230  143.7280 C   0  0  2  0  0  3  0  0  0  0  0  0
  189.9320  177.8770  140.2430 C   0  0  2  0  0  3  0  0  0  0  0  0
  189.8670  176.6300  139.3520 C   0  0  2  0  0  3  0  0  0  0  0  0
  191.3020  175.0760  137.9860 C   0  0  0  0  0  0  0  0  0  0  0  0
  190.1980  177.4850  141.7060 C   0  0  1  0  0  3  0  0  0  0  0  0
  190.0240  177.8460  144.6030 C   0  0  0  0  0  2  0  0  0  0  0  0
  191.2820  176.0920  139.0960 C   0  0  0  0  0  2  0  0  0  0  0  0
  187.4950  178.2700  140.9010 C   0  0  0  0  0  0  0  0  0  0  0  0
  192.0530  179.0700  144.3400 F   0  0  0  0  0  0  0  0  0  0  0  0
  188.0120  177.8930  138.0790 C   0  0  0  0  0  2  0  0  0  0  0  0
  192.2700  174.1300  137.9640 F   0  0  0  0  0  0  0  0  0  0  0  0
  187.6460  176.9870  141.6700 C   0  0  0  0  0  2  0  0  0  0  0  0
  188.6780  178.7740  140.1150 C   0  0  2  0  0  3  0  0  0  0  0  0
  186.3850  178.9490  140.8760 N   0  0  0  0  0  0  0  0  0  0  0  0
  190.8760  178.5850  142.3960 N   0  0  0  0  0  2  0  0  0  0  0  0
  190.4420  175.1660  136.9680 C   0  0  0  0  0  3  0  0  0  0  0  0
  188.9390  176.9910  142.4890 C   0  0  2  0  0  3  0  0  0  0  0  0
  188.7300  177.7650  143.7930 C   0  0  0  0  0  2  0  0  0  0  0  0
  188.3730  179.0740  138.7630 O   0  0  0  0  0  0  0  0  0  0  0  0
  189.1500  176.9260  138.0570 C   0  0  0  0  0  0  0  0  0  0  0  0
  189.3770  176.1850  136.9690 C   0  0  0  0  0  3  0  0  0  0  0  0
  185.1480  178.0390  142.6590 O   0  0  0  0  0  0  0  0  0  0  0  0
  185.1550  178.6470  141.5550 C   0  0  0  0  0  0  0  0  0  0  0  0
  182.9790  176.9870  139.1240 C   0  0  0  0  0  0  0  0  0  0  0  0
  182.7100  178.0900  141.3300 C   0  0  0  0  0  2  0  0  0  0  0  0
  184.9400  180.1290  139.0780 O   0  0  0  0  0  1  0  0  0  0  0  0
  182.3190  176.3490  138.3210 O   0  0  0  0  0  0  0  0  0  0  0  0
  182.8150  176.7520  140.5930 C   0  0  0  0  0  2  0  0  0  0  0  0
  183.8970  179.2690  139.4230 C   0  0  2  0  0  3  0  0  0  0  0  0
  183.8420  179.0530  140.9480 C   0  0  2  0  0  3  0  0  0  0  0  0
  184.0160  177.9570  138.6470 C   0  0  0  0  0  2  0  0  0  0  0  0
  1  9  1  1  0  0  0
  1  6  1  0  0  0  0
  2  5  1  0  0  0  0
  3  2  1  0  0  0  0
  4  7  1  0  0  0  0
  5 15  1  0  0  0  0
  5 17  1  0  0  0  0
  7  3  1  0  0  0  0
  8 12  1  0  0  0  0
 10 19  1  0  0  0  0
 11  4  1  0  0  0  0
 12 17  1  0  0  0  0
 13  2  1  0  0  0  0
 13  8  1  0  0  0  0
 14  8  2  0  0  0  0
 14 23  1  0  0  0  0
 15  1  1  0  0  0  0
 16 21  1  0  0  0  0
 16  4  2  0  0  0  0
 17 18  1  0  0  0  0
 18  6  1  0  0  0  0
 19 13  1  0  0  0  0
 20 10  1  0  0  0  0
 20  3  1  0  0  0  0
 21 20  2  0  0  0  0
 23 22  2  0  0  0  0
 24 28  1  0  0  0  0
 26 29  1  0  0  0  0
 27 24  2  0  0  0  0
 28 25  1  0  0  0  0
 29 30  1  0  0  0  0
 30 25  1  0  0  0  0
 30 23  1  0  0  0  0
 31 24  1  0  0  0  0
 31 29  1  0  0  0  0
M  END
>  <MODEL>
8

>  <REMARK>
 VINA RESULT:      -6.4      1.869      3.083
  Name = 
  2 active torsions:
  status: ('A' for Active; 'I' for Inactive)
    1  A    between atoms: C_5  and  N_16
    2  A    between atoms: C_5  and  C_30
                            x       y       z     vdW  Elec       q    Type
                         _______ _______ _______ _____ _____    ______ ____

>  <TORSDO>
F 2

$$$$
=
 OpenBabel11122410563D

 31 35  0  0  1  0  0  0  0  0999 V2000
  184.2300  178.6880  142.8480 C   0  0  2  0  0  3  0  0  0  0  0  0
  182.2330  178.5660  139.6940 C   0  0  2  0  0  3  0  0  0  0  0  0
  181.6360  179.7470  138.9160 C   0  0  2  0  0  3  0  0  0  0  0  0
  179.7910  181.4570  138.9920 C   0  0  0  0  0  0  0  0  0  0  0  0
  183.2750  179.0570  140.7110 C   0  0  1  0  0  3  0  0  0  0  0  0
  185.6800  178.7940  142.3540 C   0  0  0  0  0  2  0  0  0  0  0  0
  180.6270  180.5000  139.7960 C   0  0  0  0  0  2  0  0  0  0  0  0
  184.1800  177.8050  138.2250 C   0  0  0  0  0  0  0  0  0  0  0  0
  184.1870  177.9110  143.9900 F   0  0  0  0  0  0  0  0  0  0  0  0
  181.6320  178.1440  136.8950 C   0  0  0  0  0  2  0  0  0  0  0  0
  179.2600  182.5480  139.5930 F   0  0  0  0  0  0  0  0  0  0  0  0
  184.7900  179.1270  138.6000 C   0  0  0  0  0  2  0  0  0  0  0  0
  182.8150  177.4700  138.7700 C   0  0  2  0  0  3  0  0  0  0  0  0
  184.7730  176.9530  137.4410 N   0  0  0  0  0  0  0  0  0  0  0  0
  183.3560  178.1140  141.8290 N   0  0  0  0  0  2  0  0  0  0  0  0
  179.4770  181.1840  137.7220 C   0  0  0  0  0  3  0  0  0  0  0  0
  184.6820  179.3700  140.1070 C   0  0  2  0  0  3  0  0  0  0  0  0
  185.8020  178.6280  140.8390 C   0  0  0  0  0  2  0  0  0  0  0  0
  181.8910  177.0680  137.7720 O   0  0  0  0  0  0  0  0  0  0  0  0
  181.0030  179.2830  137.6270 C   0  0  0  0  0  0  0  0  0  0  0  0
  180.0430  180.0050  137.0430 C   0  0  0  0  0  3  0  0  0  0  0  0
  186.1950  177.5000  135.6480 O   0  0  0  0  0  0  0  0  0  0  0  0
  186.0670  177.0760  136.8280 C   0  0  0  0  0  0  0  0  0  0  0  0
  189.5250  176.5260  135.7570 C   0  0  0  0  0  0  0  0  0  0  0  0
  188.3690  177.7930  137.5510 C   0  0  0  0  0  2  0  0  0  0  0  0
  186.9140  174.3340  137.2070 O   0  0  0  0  0  1  0  0  0  0  0  0
  190.6470  176.3780  135.3040 O   0  0  0  0  0  0  0  0  0  0  0  0
  189.0560  177.8820  136.1860 C   0  0  0  0  0  2  0  0  0  0  0  0
  187.8930  175.3290  137.1870 C   0  0  2  0  0  3  0  0  0  0  0  0
  187.3020  176.6920  137.5940 C   0  0  2  0  0  3  0  0  0  0  0  0
  188.5760  175.3680  135.8200 C   0  0  0  0  0  2  0  0  0  0  0  0
  1  9  1  1  0  0  0
  2  5  1  0  0  0  0
  3  2  1  0  0  0  0
  3  7  1  0  0  0  0
  4 11  1  0  0  0  0
  4  7  1  0  0  0  0
  5 15  1  0  0  0  0
  6  1  1  0  0  0  0
  8 12  1  0  0  0  0
  8 13  1  0  0  0  0
 10 20  1  0  0  0  0
 10 19  1  0  0  0  0
 12 17  1  0  0  0  0
 13  2  1  0  0  0  0
 14  8  2  0  0  0  0
 15  1  1  0  0  0  0
 16  4  2  0  0  0  0
 17  5  1  0  0  0  0
 17 18  1  0  0  0  0
 18  6  1  0  0  0  0
 19 13  1  0  0  0  0
 20  3  1  0  0  0  0
 21 20  2  0  0  0  0
 21 16  1  0  0  0  0
 22 23  2  0  0  0  0
 23 14  1  0  0  0  0
 23 30  1  0  0  0  0
 24 31  1  0  0  0  0
 24 28  1  0  0  0  0
 25 30  1  0  0  0  0
 27 24  2  0  0  0  0
 28 25  1  0  0  0  0
 29 26  1  0  0  0  0
 29 30  1  0  0  0  0
 31 29  1  0  0  0  0
M  END
>  <MODEL>
9

>  <REMARK>
 VINA RESULT:      -6.3      5.103      8.731
  Name = 
  2 active torsions:
  status: ('A' for Active; 'I' for Inactive)
    1  A    between atoms: C_5  and  N_16
    2  A    between atoms: C_5  and  C_30
                            x       y       z     vdW  Elec       q    Type
                         _______ _______ _______ _____ _____    ______ ____

>  <TORSDO>
F 2

$$$$
