=
 OpenBabel11122410473D

 32 37  0  0  1  0  0  0  0  0999 V2000
  187.0300  177.8360  141.3100 C   0  0  2  0  0  3  0  0  0  0  0  0
  184.9010  178.4690  145.7210 C   0  0  0  0  0  3  0  0  0  0  0  0
  183.7570  178.9700  145.1030 C   0  0  0  0  0  3  0  0  0  0  0  0
  185.6130  178.4970  139.3310 C   0  0  0  0  0  0  0  0  0  0  0  0
  184.3560  179.0910  138.7540 C   0  0  1  0  0  3  0  0  0  0  0  0
  189.4660  177.7330  141.3650 N   0  0  0  0  0  0  0  0  0  0  0  0
  188.3230  177.4260  143.4640 C   0  0  0  0  0  3  0  0  0  0  0  0
  182.2730  179.9250  139.2070 N   0  0  0  0  0  0  0  0  0  0  0  0
  186.0000  178.0940  144.9490 C   0  0  0  0  0  3  0  0  0  0  0  0
  187.0560  177.8430  142.8210 C   0  0  0  0  0  0  0  0  0  0  0  0
  185.9760  178.2030  143.5460 C   0  0  0  0  0  0  0  0  0  0  0  0
  184.7620  178.9080  141.5870 C   0  0  0  0  0  0  0  0  0  0  0  0
  182.0940  178.7850  138.3850 N   0  0  0  0  0  2  0  0  0  0  0  0
  189.4580  177.3360  142.7560 C   0  0  0  0  0  0  0  0  0  0  0  0
  183.3640  178.0830  138.3100 C   0  0  0  0  0  2  0  0  0  0  0  0
  183.7170  179.1020  143.7150 C   0  0  0  0  0  3  0  0  0  0  0  0
  184.8140  178.7280  142.9200 C   0  0  0  0  0  0  0  0  0  0  0  0
  183.5980  179.4620  140.9670 N   0  0  0  0  0  2  0  0  0  0  0  0
  188.3280  178.4570  140.8000 C   0  0  0  0  0  2  0  0  0  0  0  0
  186.4510  177.9740  138.5470 O   0  0  0  0  0  0  0  0  0  0  0  0
  182.0460  181.0990  138.3770 C   0  0  0  0  0  1  0  0  0  0  0  0
  185.8480  178.5030  140.7490 N   0  0  0  0  0  0  0  0  0  0  0  0
  183.6130  179.9700  139.6520 N   0  0  1  0  0  0  0  0  0  0  0  0
  191.4950  178.0700  143.7760 O   0  0  0  0  0  0  0  0  0  0  0  0
  190.7290  176.9310  143.4490 C   0  0  1  0  0  3  0  0  0  0  0  0
  190.7710  177.4790  144.8250 C   0  0  1  0  0  3  0  0  0  0  0  0
  191.7200  176.6590  145.6780 C   0  0  0  0  0  2  0  0  0  0  0  0
  191.2830  176.6900  147.1010 C   0  0  0  0  0  0  0  0  0  0  0  0
  192.1390  176.7170  148.0230 O   0  0  0  0  0  1  0  0  0  0  0  0
  189.9300  176.7230  147.4090 O   0  0  0  0  0  0  0  0  0  0  0  0
  190.5460  176.2210  139.9580 O   0  0  0  0  0  1  0  0  0  0  0  0
  190.6170  177.5010  140.5050 C   0  0  0  0  0  2  0  0  0  0  0  0
  1 19  1  6  0  0  0
  1 10  1  0  0  0  0
  3  2  1  0  0  0  0
  4 22  1  0  0  0  0
  5 15  1  1  0  0  0
  5  4  1  0  0  0  0
  5 23  1  0  0  0  0
  6 14  1  0  0  0  0
  8 23  1  0  0  0  0
  9  2  2  0  0  0  0
 10  7  1  0  0  0  0
 10 11  2  0  0  0  0
 11  9  1  0  0  0  0
 12 17  2  0  0  0  0
 13  8  1  0  0  0  0
 14  7  2  0  0  0  0
 15 13  1  0  0  0  0
 16  3  2  0  0  0  0
 17 11  1  0  0  0  0
 17 16  1  0  0  0  0
 18 12  1  0  0  0  0
 19  6  1  0  0  0  0
 20  4  2  0  0  0  0
 21  8  1  0  0  0  0
 22  1  1  0  0  0  0
 22 12  1  0  0  0  0
 23 18  1  1  0  0  0
 24 26  1  0  0  0  0
 25 14  1  6  0  0  0
 25 24  1  0  0  0  0
 25 26  1  0  0  0  0
 26 27  1  1  0  0  0
 27 28  1  0  0  0  0
 28 30  2  0  0  0  0
 28 29  1  0  0  0  0
 31 32  1  0  0  0  0
 32  6  1  0  0  0  0
M  END
>  <MODEL>
1

>  <REMARK>
 VINA RESULT:      -9.7      0.000      0.000
  Name = 
  4 active torsions:
  status: ('A' for Active; 'I' for Inactive)
    1  A    between atoms: N_7  and  C_19
    2  A    between atoms: C_10  and  C_17
    3  A    between atoms: C_20  and  C_29
    4  A    between atoms: C_29  and  C_30
                            x       y       z     vdW  Elec       q    Type
                         _______ _______ _______ _____ _____    ______ ____

>  <TORSDO>
F 4

$$$$
=
 OpenBabel11122410473D

 32 37  0  0  1  0  0  0  0  0999 V2000
  185.2510  178.0770  141.6550 C   0  0  2  0  0  3  0  0  0  0  0  0
  186.3220  178.2150  146.4740 C   0  0  0  0  0  3  0  0  0  0  0  0
  184.9930  178.5100  146.7670 C   0  0  0  0  0  3  0  0  0  0  0  0
  182.8330  178.5100  141.0820 C   0  0  0  0  0  0  0  0  0  0  0  0
  181.4310  178.8750  141.4880 C   0  0  1  0  0  3  0  0  0  0  0  0
  187.1630  178.4220  140.1810 N   0  0  0  0  0  0  0  0  0  0  0  0
  187.6520  177.8650  142.4740 C   0  0  0  0  0  3  0  0  0  0  0  0
  180.0150  179.3030  143.2360 N   0  0  0  0  0  0  0  0  0  0  0  0
  186.7250  178.0640  145.1480 C   0  0  0  0  0  3  0  0  0  0  0  0
  186.2230  178.0560  142.8120 C   0  0  0  0  0  0  0  0  0  0  0  0
  185.8070  178.1970  144.0880 C   0  0  0  0  0  0  0  0  0  0  0  0
  183.5520  178.7100  143.4120 C   0  0  0  0  0  0  0  0  0  0  0  0
  179.5070  178.1670  142.5580 N   0  0  0  0  0  2  0  0  0  0  0  0
  188.0850  178.0000  141.2120 C   0  0  0  0  0  0  0  0  0  0  0  0
  180.5210  177.7120  141.6230 C   0  0  0  0  0  2  0  0  0  0  0  0
  184.0700  178.6620  145.7330 C   0  0  0  0  0  3  0  0  0  0  0  0
  184.4560  178.5130  144.3900 C   0  0  0  0  0  0  0  0  0  0  0  0
  182.1990  179.0540  143.7220 N   0  0  0  0  0  2  0  0  0  0  0  0
  185.8430  178.9370  140.5400 C   0  0  0  0  0  2  0  0  0  0  0  0
  183.0470  178.1660  139.8880 O   0  0  0  0  0  0  0  0  0  0  0  0
  179.1670  180.4330  142.8880 C   0  0  0  0  0  1  0  0  0  0  0  0
  183.9070  178.5280  142.0370 N   0  0  0  0  0  0  0  0  0  0  0  0
  181.3150  179.5840  142.7600 N   0  0  1  0  0  0  0  0  0  0  0  0
  190.0490  176.6800  141.5750 O   0  0  0  0  0  0  0  0  0  0  0  0
  189.5470  177.8200  140.9110 C   0  0  1  0  0  3  0  0  0  0  0  0
  189.7820  176.5400  140.2020 C   0  0  1  0  0  3  0  0  0  0  0  0
  191.0890  176.6080  139.4370 C   0  0  0  0  0  2  0  0  0  0  0  0
  190.9510  175.9080  138.1290 C   0  0  0  0  0  0  0  0  0  0  0  0
  190.9890  174.6510  138.0800 O   0  0  0  0  0  1  0  0  0  0  0  0
  190.7450  176.6420  136.9690 O   0  0  0  0  0  0  0  0  0  0  0  0
  186.4040  178.6790  137.9920 O   0  0  0  0  0  1  0  0  0  0  0  0
  187.5310  178.4230  138.7730 C   0  0  0  0  0  2  0  0  0  0  0  0
  1 19  1  6  0  0  0
  1 22  1  0  0  0  0
  1 10  1  0  0  0  0
  2  3  1  0  0  0  0
  4  5  1  0  0  0  0
  4 22  1  0  0  0  0
  5 15  1  1  0  0  0
  5 23  1  0  0  0  0
  6 19  1  0  0  0  0
  6 14  1  0  0  0  0
  7 10  1  0  0  0  0
  9  2  2  0  0  0  0
 10 11  2  0  0  0  0
 11 17  1  0  0  0  0
 11  9  1  0  0  0  0
 12 18  1  0  0  0  0
 12 17  2  0  0  0  0
 13  8  1  0  0  0  0
 14  7  2  0  0  0  0
 15 13  1  0  0  0  0
 16  3  2  0  0  0  0
 17 16  1  0  0  0  0
 20  4  2  0  0  0  0
 21  8  1  0  0  0  0
 22 12  1  0  0  0  0
 23  8  1  0  0  0  0
 23 18  1  1  0  0  0
 25 14  1  1  0  0  0
 25 24  1  0  0  0  0
 26 27  1  6  0  0  0
 26 25  1  0  0  0  0
 26 24  1  0  0  0  0
 28 27  1  0  0  0  0
 29 28  1  0  0  0  0
 30 28  2  0  0  0  0
 31 32  1  0  0  0  0
 32  6  1  0  0  0  0
M  END
>  <MODEL>
2

>  <REMARK>
 VINA RESULT:      -9.4      2.866      4.418
  Name = 
  4 active torsions:
  status: ('A' for Active; 'I' for Inactive)
    1  A    between atoms: N_7  and  C_19
    2  A    between atoms: C_10  and  C_17
    3  A    between atoms: C_20  and  C_29
    4  A    between atoms: C_29  and  C_30
                            x       y       z     vdW  Elec       q    Type
                         _______ _______ _______ _____ _____    ______ ____

>  <TORSDO>
F 4

$$$$
=
 OpenBabel11122410473D

 32 37  0  0  1  0  0  0  0  0999 V2000
  188.3790  177.5850  142.1700 C   0  0  2  0  0  3  0  0  0  0  0  0
  183.7940  178.7530  143.5880 C   0  0  0  0  0  3  0  0  0  0  0  0
  183.4090  178.8830  142.2560 C   0  0  0  0  0  3  0  0  0  0  0  0
  188.7460  177.5220  139.6760 C   0  0  0  0  0  0  0  0  0  0  0  0
  188.2530  177.7300  138.2690 C   0  0  1  0  0  3  0  0  0  0  0  0
  190.0910  177.9560  143.8680 N   0  0  0  0  0  0  0  0  0  0  0  0
  187.8050  177.9040  144.6300 C   0  0  0  0  0  3  0  0  0  0  0  0
  186.4540  178.2360  136.9460 N   0  0  0  0  0  0  0  0  0  0  0  0
  185.1140  178.4320  143.9020 C   0  0  0  0  0  3  0  0  0  0  0  0
  187.3480  177.9250  143.2220 C   0  0  0  0  0  0  0  0  0  0  0  0
  186.0740  178.2260  142.8930 C   0  0  0  0  0  0  0  0  0  0  0  0
  186.5730  178.2480  140.5360 C   0  0  0  0  0  0  0  0  0  0  0  0
  186.8770  176.9320  136.5910 N   0  0  0  0  0  2  0  0  0  0  0  0
  189.1120  177.8760  144.9300 C   0  0  0  0  0  0  0  0  0  0  0  0
  187.8310  176.4810  137.5900 C   0  0  0  0  0  2  0  0  0  0  0  0
  184.3470  178.7000  141.2400 C   0  0  0  0  0  3  0  0  0  0  0  0
  185.6810  178.3740  141.5360 C   0  0  0  0  0  0  0  0  0  0  0  0
  186.1770  178.4250  139.1730 N   0  0  0  0  0  2  0  0  0  0  0  0
  189.6780  178.3130  142.5110 C   0  0  0  0  0  2  0  0  0  0  0  0
  189.8840  177.0080  139.8490 O   0  0  0  0  0  0  0  0  0  0  0  0
  186.8870  179.1370  135.8890 C   0  0  0  0  0  1  0  0  0  0  0  0
  187.9300  177.8800  140.8040 N   0  0  0  0  0  0  0  0  0  0  0  0
  187.1100  178.6280  138.1350 N   0  0  1  0  0  0  0  0  0  0  0  0
  188.7700  176.9550  147.1120 O   0  0  0  0  0  0  0  0  0  0  0  0
  189.5380  177.8780  146.3710 C   0  0  1  0  0  3  0  0  0  0  0  0
  190.0690  176.5500  146.7610 C   0  0  1  0  0  3  0  0  0  0  0  0
  190.9720  176.6920  147.9710 C   0  0  0  0  0  2  0  0  0  0  0  0
  192.2590  175.9830  147.7320 C   0  0  0  0  0  0  0  0  0  0  0  0
  193.1810  176.0420  148.5870 O   0  0  0  0  0  1  0  0  0  0  0  0
  192.4300  175.2260  146.5810 O   0  0  0  0  0  0  0  0  0  0  0  0
  191.9080  176.5140  143.6340 O   0  0  0  0  0  1  0  0  0  0  0  0
  191.5110  177.7630  144.1140 C   0  0  0  0  0  2  0  0  0  0  0  0
  1 19  1  1  0  0  0
  1 10  1  0  0  0  0
  2  9  2  0  0  0  0
  3  2  1  0  0  0  0
  4 20  2  0  0  0  0
  4 22  1  0  0  0  0
  5 15  1  1  0  0  0
  5  4  1  0  0  0  0
  6 32  1  0  0  0  0
  6 14  1  0  0  0  0
  7 14  2  0  0  0  0
  8 23  1  0  0  0  0
 10  7  1  0  0  0  0
 11 10  2  0  0  0  0
 11  9  1  0  0  0  0
 12 22  1  0  0  0  0
 12 17  2  0  0  0  0
 13  8  1  0  0  0  0
 13 15  1  0  0  0  0
 16 17  1  0  0  0  0
 16  3  2  0  0  0  0
 17 11  1  0  0  0  0
 18 12  1  0  0  0  0
 19  6  1  0  0  0  0
 21  8  1  0  0  0  0
 22  1  1  0  0  0  0
 23  5  1  0  0  0  0
 23 18  1  1  0  0  0
 25 14  1  6  0  0  0
 25 26  1  0  0  0  0
 25 24  1  0  0  0  0
 26 24  1  0  0  0  0
 26 27  1  1  0  0  0
 28 27  1  0  0  0  0
 28 29  1  0  0  0  0
 30 28  2  0  0  0  0
 31 32  1  0  0  0  0
M  END
>  <MODEL>
3

>  <REMARK>
 VINA RESULT:      -9.1      2.143      3.172
  Name = 
  4 active torsions:
  status: ('A' for Active; 'I' for Inactive)
    1  A    between atoms: N_7  and  C_19
    2  A    between atoms: C_10  and  C_17
    3  A    between atoms: C_20  and  C_29
    4  A    between atoms: C_29  and  C_30
                            x       y       z     vdW  Elec       q    Type
                         _______ _______ _______ _____ _____    ______ ____

>  <TORSDO>
F 4

$$$$
=
 OpenBabel11122410473D

 32 37  0  0  1  0  0  0  0  0999 V2000
  187.5090  178.4760  141.8260 C   0  0  2  0  0  3  0  0  0  0  0  0
  184.1800  178.6790  145.4680 C   0  0  0  0  0  3  0  0  0  0  0  0
  185.1430  178.2530  146.3800 C   0  0  0  0  0  3  0  0  0  0  0  0
  189.8220  177.7540  142.5270 C   0  0  0  0  0  0  0  0  0  0  0  0
  190.7830  177.2550  143.5720 C   0  0  1  0  0  3  0  0  0  0  0  0
  186.5550  178.2780  139.5900 N   0  0  0  0  0  0  0  0  0  0  0  0
  185.0630  178.9900  141.3430 C   0  0  0  0  0  3  0  0  0  0  0  0
  191.0830  176.7530  145.7860 N   0  0  0  0  0  0  0  0  0  0  0  0
  184.5100  178.8120  144.1200 C   0  0  0  0  0  3  0  0  0  0  0  0
  186.1020  178.6580  142.3450 C   0  0  0  0  0  0  0  0  0  0  0  0
  185.8090  178.5310  143.6570 C   0  0  0  0  0  0  0  0  0  0  0  0
  188.0230  177.7420  144.1850 C   0  0  0  0  0  0  0  0  0  0  0  0
  191.9910  177.7940  145.4680 N   0  0  0  0  0  2  0  0  0  0  0  0
  185.3010  178.8460  140.0310 C   0  0  0  0  0  0  0  0  0  0  0  0
  191.6360  178.3150  144.1600 C   0  0  0  0  0  2  0  0  0  0  0  0
  186.4320  177.9520  145.9410 C   0  0  0  0  0  3  0  0  0  0  0  0
  186.7840  178.0820  144.5860 C   0  0  0  0  0  0  0  0  0  0  0  0
  188.9920  177.2650  145.1230 N   0  0  0  0  0  2  0  0  0  0  0  0
  187.4520  177.6370  140.5520 C   0  0  0  0  0  2  0  0  0  0  0  0
  190.2710  178.0630  141.3900 O   0  0  0  0  0  0  0  0  0  0  0  0
  191.8510  175.5220  145.8890 C   0  0  0  0  0  1  0  0  0  0  0  0
  188.4220  177.8980  142.8200 N   0  0  0  0  0  0  0  0  0  0  0  0
  190.1670  176.5970  144.7210 N   0  0  1  0  0  0  0  0  0  0  0  0
  183.5650  177.9930  138.6210 O   0  0  0  0  0  0  0  0  0  0  0  0
  184.2140  179.1720  139.0450 C   0  0  1  0  0  3  0  0  0  0  0  0
  182.8890  178.7710  139.5760 C   0  0  1  0  0  3  0  0  0  0  0  0
  181.7960  179.5620  138.8840 C   0  0  0  0  0  2  0  0  0  0  0  0
  180.8080  180.0510  139.8850 C   0  0  0  0  0  0  0  0  0  0  0  0
  180.5960  179.3910  140.9360 O   0  0  0  0  0  1  0  0  0  0  0  0
  180.1480  181.2540  139.6760 O   0  0  0  0  0  0  0  0  0  0  0  0
  188.1180  178.9740  138.0060 O   0  0  0  0  0  1  0  0  0  0  0  0
  186.9370  178.2530  138.1870 C   0  0  0  0  0  2  0  0  0  0  0  0
  1 19  1  6  0  0  0
  1 10  1  0  0  0  0
  1 22  1  0  0  0  0
  2  3  1  0  0  0  0
  4 22  1  0  0  0  0
  4  5  1  0  0  0  0
  5 15  1  1  0  0  0
  5 23  1  0  0  0  0
  6 14  1  0  0  0  0
  6 19  1  0  0  0  0
  7 10  1  0  0  0  0
  8 21  1  0  0  0  0
  9  2  2  0  0  0  0
 10 11  2  0  0  0  0
 11  9  1  0  0  0  0
 11 17  1  0  0  0  0
 12 17  2  0  0  0  0
 12 18  1  0  0  0  0
 13  8  1  0  0  0  0
 14  7  2  0  0  0  0
 15 13  1  0  0  0  0
 16  3  2  0  0  0  0
 17 16  1  0  0  0  0
 20  4  2  0  0  0  0
 22 12  1  0  0  0  0
 23 18  1  1  0  0  0
 23  8  1  0  0  0  0
 24 25  1  0  0  0  0
 24 26  1  0  0  0  0
 25 26  1  0  0  0  0
 25 14  1  1  0  0  0
 26 27  1  6  0  0  0
 27 28  1  0  0  0  0
 28 29  1  0  0  0  0
 30 28  2  0  0  0  0
 31 32  1  0  0  0  0
 32  6  1  0  0  0  0
M  END
>  <MODEL>
4

>  <REMARK>
 VINA RESULT:      -8.5      2.601      7.733
  Name = 
  4 active torsions:
  status: ('A' for Active; 'I' for Inactive)
    1  A    between atoms: N_7  and  C_19
    2  A    between atoms: C_10  and  C_17
    3  A    between atoms: C_20  and  C_29
    4  A    between atoms: C_29  and  C_30
                            x       y       z     vdW  Elec       q    Type
                         _______ _______ _______ _____ _____    ______ ____

>  <TORSDO>
F 4

$$$$
=
 OpenBabel11122410473D

 32 37  0  0  1  0  0  0  0  0999 V2000
  186.4140  178.6640  141.7210 C   0  0  2  0  0  3  0  0  0  0  0  0
  184.1210  178.6280  146.0950 C   0  0  0  0  0  3  0  0  0  0  0  0
  185.2890  178.1830  146.7100 C   0  0  0  0  0  3  0  0  0  0  0  0
  188.8360  177.9640  141.7750 C   0  0  0  0  0  0  0  0  0  0  0  0
  190.0380  177.4410  142.5150 C   0  0  1  0  0  3  0  0  0  0  0  0
  184.9240  178.5440  139.7940 N   0  0  0  0  0  0  0  0  0  0  0  0
  183.9200  179.1420  141.9010 C   0  0  0  0  0  3  0  0  0  0  0  0
  190.8970  176.8480  144.5530 N   0  0  0  0  0  0  0  0  0  0  0  0
  184.0950  178.8290  144.7160 C   0  0  0  0  0  3  0  0  0  0  0  0
  185.1830  178.7900  142.5890 C   0  0  0  0  0  0  0  0  0  0  0  0
  185.2360  178.5980  143.9240 C   0  0  0  0  0  0  0  0  0  0  0  0
  187.5200  177.8370  143.8330 C   0  0  0  0  0  0  0  0  0  0  0  0
  191.6830  177.9220  144.0670 N   0  0  0  0  0  2  0  0  0  0  0  0
  183.8170  179.0630  140.5660 C   0  0  0  0  0  0  0  0  0  0  0  0
  191.0010  178.4930  142.9180 C   0  0  0  0  0  2  0  0  0  0  0  0
  186.4270  177.9320  145.9430 C   0  0  0  0  0  3  0  0  0  0  0  0
  186.4210  178.1300  144.5520 C   0  0  0  0  0  0  0  0  0  0  0  0
  188.7010  177.3410  144.4690 N   0  0  0  0  0  2  0  0  0  0  0  0
  186.0420  177.8820  140.4630 C   0  0  0  0  0  2  0  0  0  0  0  0
  188.9780  178.3340  140.5780 O   0  0  0  0  0  0  0  0  0  0  0  0
  191.6800  175.6310  144.3970 C   0  0  0  0  0  1  0  0  0  0  0  0
  187.5560  178.0630  142.4200 N   0  0  0  0  0  0  0  0  0  0  0  0
  189.7420  176.7180  143.7490 N   0  0  1  0  0  0  0  0  0  0  0  0
  181.7730  178.2360  139.6340 O   0  0  0  0  0  0  0  0  0  0  0  0
  182.5110  179.4080  139.9070 C   0  0  1  0  0  3  0  0  0  0  0  0
  181.3700  178.9850  140.7530 C   0  0  1  0  0  3  0  0  0  0  0  0
  180.1350  179.7860  140.3900 C   0  0  0  0  0  2  0  0  0  0  0  0
  179.7410  180.6600  141.5300 C   0  0  0  0  0  0  0  0  0  0  0  0
  178.9450  181.6170  141.3450 O   0  0  0  0  0  0  0  0  0  0  0  0
  180.2230  180.3960  142.8040 O   0  0  0  0  0  1  0  0  0  0  0  0
  186.2500  178.6710  137.8810 O   0  0  0  0  0  1  0  0  0  0  0  0
  184.9350  178.5900  138.3400 C   0  0  0  0  0  2  0  0  0  0  0  0
  1 19  1  6  0  0  0
  1 22  1  0  0  0  0
  1 10  1  0  0  0  0
  2  3  1  0  0  0  0
  4 22  1  0  0  0  0
  4  5  1  0  0  0  0
  5 15  1  1  0  0  0
  5 23  1  0  0  0  0
  6 19  1  0  0  0  0
  6 14  1  0  0  0  0
  7 10  1  0  0  0  0
  9  2  2  0  0  0  0
 10 11  2  0  0  0  0
 11 17  1  0  0  0  0
 11  9  1  0  0  0  0
 12 18  1  0  0  0  0
 12 17  2  0  0  0  0
 13  8  1  0  0  0  0
 14  7  2  0  0  0  0
 15 13  1  0  0  0  0
 16  3  2  0  0  0  0
 17 16  1  0  0  0  0
 20  4  2  0  0  0  0
 21  8  1  0  0  0  0
 22 12  1  0  0  0  0
 23 18  1  1  0  0  0
 23  8  1  0  0  0  0
 24 25  1  0  0  0  0
 24 26  1  0  0  0  0
 25 14  1  1  0  0  0
 25 26  1  0  0  0  0
 26 27  1  6  0  0  0
 27 28  1  0  0  0  0
 28 30  1  0  0  0  0
 29 28  2  0  0  0  0
 31 32  1  0  0  0  0
 32  6  1  0  0  0  0
M  END
>  <MODEL>
5

>  <REMARK>
 VINA RESULT:      -8.5      2.961      7.717
  Name = 
  4 active torsions:
  status: ('A' for Active; 'I' for Inactive)
    1  A    between atoms: N_7  and  C_19
    2  A    between atoms: C_10  and  C_17
    3  A    between atoms: C_20  and  C_29
    4  A    between atoms: C_29  and  C_30
                            x       y       z     vdW  Elec       q    Type
                         _______ _______ _______ _____ _____    ______ ____

>  <TORSDO>
F 4

$$$$
=
 OpenBabel11122410473D

 32 37  0  0  1  0  0  0  0  0999 V2000
  186.6540  178.6280  141.4350 C   0  0  2  0  0  3  0  0  0  0  0  0
  183.8140  178.6280  145.4750 C   0  0  0  0  0  3  0  0  0  0  0  0
  184.9140  178.2780  146.2550 C   0  0  0  0  0  3  0  0  0  0  0  0
  189.0830  178.0760  141.8320 C   0  0  0  0  0  0  0  0  0  0  0  0
  190.2030  177.6550  142.7450 C   0  0  1  0  0  3  0  0  0  0  0  0
  185.4380  178.3440  139.3400 N   0  0  0  0  0  0  0  0  0  0  0  0
  184.1360  178.9640  141.2710 C   0  0  0  0  0  3  0  0  0  0  0  0
  190.8190  177.1950  144.9010 N   0  0  0  0  0  0  0  0  0  0  0  0
  183.9580  178.7720  144.0960 C   0  0  0  0  0  3  0  0  0  0  0  0
  185.3160  178.7150  142.1300 C   0  0  0  0  0  0  0  0  0  0  0  0
  185.2040  178.5790  143.4690 C   0  0  0  0  0  0  0  0  0  0  0  0
  187.5180  177.9520  143.7080 C   0  0  0  0  0  0  0  0  0  0  0  0
  191.6030  178.2940  144.4700 N   0  0  0  0  0  2  0  0  0  0  0  0
  184.2130  178.8260  139.9390 C   0  0  0  0  0  0  0  0  0  0  0  0
  191.0480  178.7780  143.2190 C   0  0  0  0  0  2  0  0  0  0  0  0
  186.1540  178.0650  145.6540 C   0  0  0  0  0  3  0  0  0  0  0  0
  186.3190  178.2070  144.2650 C   0  0  0  0  0  0  0  0  0  0  0  0
  188.6300  177.5520  144.5130 N   0  0  0  0  0  2  0  0  0  0  0  0
  186.4930  177.7760  140.1780 C   0  0  0  0  0  2  0  0  0  0  0  0
  189.3600  178.4070  140.6470 O   0  0  0  0  0  0  0  0  0  0  0  0
  191.6800  176.0220  144.9040 C   0  0  0  0  0  1  0  0  0  0  0  0
  187.7260  178.1240  142.3030 N   0  0  0  0  0  0  0  0  0  0  0  0
  189.7880  176.9650  143.9630 N   0  0  1  0  0  0  0  0  0  0  0  0
  181.9250  179.5300  139.9060 O   0  0  0  0  0  0  0  0  0  0  0  0
  182.9880  179.0670  139.1010 C   0  0  1  0  0  3  0  0  0  0  0  0
  182.6000  180.4970  139.1410 C   0  0  1  0  0  3  0  0  0  0  0  0
  181.7600  180.8360  137.9250 C   0  0  0  0  0  2  0  0  0  0  0  0
  180.9690  182.0710  138.1800 C   0  0  0  0  0  0  0  0  0  0  0  0
  181.2380  183.1320  137.5600 O   0  0  0  0  0  0  0  0  0  0  0  0
  179.9100  182.0420  139.0780 O   0  0  0  0  0  1  0  0  0  0  0  0
  186.8940  178.8570  137.5930 O   0  0  0  0  0  1  0  0  0  0  0  0
  185.6370  178.3330  137.8990 C   0  0  0  0  0  2  0  0  0  0  0  0
  1 19  1  6  0  0  0
  1 10  1  0  0  0  0
  1 22  1  0  0  0  0
  2  3  1  0  0  0  0
  4 22  1  0  0  0  0
  4  5  1  0  0  0  0
  5 15  1  1  0  0  0
  5 23  1  0  0  0  0
  6 14  1  0  0  0  0
  6 19  1  0  0  0  0
  7 10  1  0  0  0  0
  8 21  1  0  0  0  0
  9  2  2  0  0  0  0
 10 11  2  0  0  0  0
 11  9  1  0  0  0  0
 11 17  1  0  0  0  0
 12 17  2  0  0  0  0
 12 18  1  0  0  0  0
 13  8  1  0  0  0  0
 14  7  2  0  0  0  0
 15 13  1  0  0  0  0
 16  3  2  0  0  0  0
 17 16  1  0  0  0  0
 20  4  2  0  0  0  0
 22 12  1  0  0  0  0
 23 18  1  1  0  0  0
 23  8  1  0  0  0  0
 25 26  1  0  0  0  0
 25 24  1  0  0  0  0
 25 14  1  1  0  0  0
 26 27  1  6  0  0  0
 26 24  1  0  0  0  0
 27 28  1  0  0  0  0
 28 30  1  0  0  0  0
 29 28  2  0  0  0  0
 31 32  1  0  0  0  0
 32  6  1  0  0  0  0
M  END
>  <MODEL>
6

>  <REMARK>
 VINA RESULT:      -8.4      2.645      7.967
  Name = 
  4 active torsions:
  status: ('A' for Active; 'I' for Inactive)
    1  A    between atoms: N_7  and  C_19
    2  A    between atoms: C_10  and  C_17
    3  A    between atoms: C_20  and  C_29
    4  A    between atoms: C_29  and  C_30
                            x       y       z     vdW  Elec       q    Type
                         _______ _______ _______ _____ _____    ______ ____

>  <TORSDO>
F 4

$$$$
=
 OpenBabel11122410473D

 32 37  0  0  1  0  0  0  0  0999 V2000
  187.0740  178.5920  141.4880 C   0  0  2  0  0  3  0  0  0  0  0  0
  184.0250  178.7050  145.3710 C   0  0  0  0  0  3  0  0  0  0  0  0
  185.0580  178.2770  146.2020 C   0  0  0  0  0  3  0  0  0  0  0  0
  189.4400  177.8860  142.0030 C   0  0  0  0  0  0  0  0  0  0  0  0
  190.4820  177.3830  142.9650 C   0  0  1  0  0  3  0  0  0  0  0  0
  185.9570  178.4150  139.3260 N   0  0  0  0  0  0  0  0  0  0  0  0
  184.5930  179.0850  141.1960 C   0  0  0  0  0  3  0  0  0  0  0  0
  190.9520  176.8540  145.1420 N   0  0  0  0  0  0  0  0  0  0  0  0
  184.2520  178.8620  144.0040 C   0  0  0  0  0  3  0  0  0  0  0  0
  185.7080  178.7500  142.1130 C   0  0  0  0  0  0  0  0  0  0  0  0
  185.5160  178.6010  143.4410 C   0  0  0  0  0  0  0  0  0  0  0  0
  187.7710  177.8300  143.7900 C   0  0  0  0  0  0  0  0  0  0  0  0
  191.8220  177.9090  144.7740 N   0  0  0  0  0  2  0  0  0  0  0  0
  184.7340  178.9630  139.8680 C   0  0  0  0  0  0  0  0  0  0  0  0
  191.3660  178.4450  143.5040 C   0  0  0  0  0  2  0  0  0  0  0  0
  186.3140  177.9970  145.6630 C   0  0  0  0  0  3  0  0  0  0  0  0
  186.5620  178.1500  144.2880 C   0  0  0  0  0  0  0  0  0  0  0  0
  188.8120  177.3510  144.6460 N   0  0  0  0  0  2  0  0  0  0  0  0
  186.9300  177.7710  140.2080 C   0  0  0  0  0  2  0  0  0  0  0  0
  189.8000  178.2170  140.8400 O   0  0  0  0  0  0  0  0  0  0  0  0
  191.7380  175.6300  145.1700 C   0  0  0  0  0  1  0  0  0  0  0  0
  188.0650  178.0100  142.4020 N   0  0  0  0  0  0  0  0  0  0  0  0
  189.9610  176.7020  144.1470 N   0  0  1  0  0  0  0  0  0  0  0  0
  183.1640  178.1440  138.2570 O   0  0  0  0  0  0  0  0  0  0  0  0
  183.5730  179.2900  138.9720 C   0  0  1  0  0  3  0  0  0  0  0  0
  182.3750  178.5090  139.3610 C   0  0  1  0  0  3  0  0  0  0  0  0
  181.1220  179.2030  138.8630 C   0  0  0  0  0  2  0  0  0  0  0  0
  179.9290  178.3510  139.1210 C   0  0  0  0  0  0  0  0  0  0  0  0
  179.2150  178.5580  140.1370 O   0  0  0  0  0  1  0  0  0  0  0  0
  179.5840  177.3510  138.2230 O   0  0  0  0  0  0  0  0  0  0  0  0
  186.4680  177.1090  137.4640 O   0  0  0  0  0  1  0  0  0  0  0  0
  186.2340  178.4140  137.8980 C   0  0  0  0  0  2  0  0  0  0  0  0
  1 19  1  6  0  0  0
  1 10  1  0  0  0  0
  1 22  1  0  0  0  0
  2  3  1  0  0  0  0
  4 22  1  0  0  0  0
  4  5  1  0  0  0  0
  5 15  1  1  0  0  0
  5 23  1  0  0  0  0
  6 14  1  0  0  0  0
  6 19  1  0  0  0  0
  7 10  1  0  0  0  0
  8 21  1  0  0  0  0
  9  2  2  0  0  0  0
 10 11  2  0  0  0  0
 11  9  1  0  0  0  0
 11 17  1  0  0  0  0
 12 17  2  0  0  0  0
 12 18  1  0  0  0  0
 13  8  1  0  0  0  0
 14  7  2  0  0  0  0
 15 13  1  0  0  0  0
 16  3  2  0  0  0  0
 17 16  1  0  0  0  0
 20  4  2  0  0  0  0
 22 12  1  0  0  0  0
 23 18  1  1  0  0  0
 23  8  1  0  0  0  0
 24 25  1  0  0  0  0
 24 26  1  0  0  0  0
 25 26  1  0  0  0  0
 25 14  1  1  0  0  0
 26 27  1  6  0  0  0
 27 28  1  0  0  0  0
 28 29  1  0  0  0  0
 30 28  2  0  0  0  0
 31 32  1  0  0  0  0
 32  6  1  0  0  0  0
M  END
>  <MODEL>
7

>  <REMARK>
 VINA RESULT:      -7.9      2.603      7.850
  Name = 
  4 active torsions:
  status: ('A' for Active; 'I' for Inactive)
    1  A    between atoms: N_7  and  C_19
    2  A    between atoms: C_10  and  C_17
    3  A    between atoms: C_20  and  C_29
    4  A    between atoms: C_29  and  C_30
                            x       y       z     vdW  Elec       q    Type
                         _______ _______ _______ _____ _____    ______ ____

>  <TORSDO>
F 4

$$$$
=
 OpenBabel11122410473D

 32 37  0  0  1  0  0  0  0  0999 V2000
  188.7000  178.0530  141.0550 C   0  0  2  0  0  3  0  0  0  0  0  0
  193.4220  176.9080  140.1660 C   0  0  0  0  0  3  0  0  0  0  0  0
  193.1220  176.6890  138.8230 C   0  0  0  0  0  3  0  0  0  0  0  0
  187.1790  177.9640  139.0450 C   0  0  0  0  0  0  0  0  0  0  0  0
  186.9390  177.6610  137.5900 C   0  0  1  0  0  3  0  0  0  0  0  0
  188.0210  177.8160  143.3860 N   0  0  0  0  0  0  0  0  0  0  0  0
  190.3900  177.8810  142.9510 C   0  0  0  0  0  3  0  0  0  0  0  0
  187.8900  177.0450  135.6010 N   0  0  0  0  0  0  0  0  0  0  0  0
  192.4100  177.2680  141.0540 C   0  0  0  0  0  3  0  0  0  0  0  0
  190.1150  177.7640  141.5010 C   0  0  0  0  0  0  0  0  0  0  0  0
  191.0800  177.4240  140.6190 C   0  0  0  0  0  0  0  0  0  0  0  0
  189.5100  177.2620  138.7990 C   0  0  0  0  0  0  0  0  0  0  0  0
  187.3260  178.3310  135.4120 N   0  0  0  0  0  2  0  0  0  0  0  0
  189.3880  177.9470  143.8390 C   0  0  0  0  0  0  0  0  0  0  0  0
  186.9620  178.8580  136.7150 C   0  0  0  0  0  2  0  0  0  0  0  0
  191.8080  176.8210  138.3730 C   0  0  0  0  0  3  0  0  0  0  0  0
  190.7750  177.1850  139.2530 C   0  0  0  0  0  0  0  0  0  0  0  0
  189.2060  176.9930  137.4270 N   0  0  0  0  0  2  0  0  0  0  0  0
  187.7380  177.3680  142.0220 C   0  0  0  0  0  2  0  0  0  0  0  0
  186.2550  178.5050  139.7110 O   0  0  0  0  0  0  0  0  0  0  0  0
  187.0180  176.0860  134.9400 C   0  0  0  0  0  1  0  0  0  0  0  0
  188.4420  177.6660  139.6620 N   0  0  0  0  0  0  0  0  0  0  0  0
  187.8930  176.7390  136.9800 N   0  0  1  0  0  0  0  0  0  0  0  0
  188.9540  177.0990  146.0350 O   0  0  0  0  0  0  0  0  0  0  0  0
  189.7070  178.0430  145.3050 C   0  0  1  0  0  3  0  0  0  0  0  0
  190.3010  176.7760  145.7950 C   0  0  1  0  0  3  0  0  0  0  0  0
  191.1020  177.0360  147.0550 C   0  0  0  0  0  2  0  0  0  0  0  0
  192.1500  175.9900  147.2180 C   0  0  0  0  0  0  0  0  0  0  0  0
  192.3430  175.1440  146.3060 O   0  0  0  0  0  0  0  0  0  0  0  0
  192.9370  175.9700  148.3610 O   0  0  0  0  0  1  0  0  0  0  0  0
  185.7040  178.0190  143.5390 O   0  0  0  0  0  1  0  0  0  0  0  0
  186.8900  178.0450  144.2720 C   0  0  0  0  0  2  0  0  0  0  0  0
  1 10  1  0  0  0  0
  1 19  1  1  0  0  0
  2  9  2  0  0  0  0
  3  2  1  0  0  0  0
  4 22  1  0  0  0  0
  4 20  2  0  0  0  0
  5 15  1  6  0  0  0
  5  4  1  0  0  0  0
  6 14  1  0  0  0  0
  6 32  1  0  0  0  0
  7 14  2  0  0  0  0
  8 23  1  0  0  0  0
 10  7  1  0  0  0  0
 11  9  1  0  0  0  0
 11 10  2  0  0  0  0
 12 17  2  0  0  0  0
 12 22  1  0  0  0  0
 13  8  1  0  0  0  0
 13 15  1  0  0  0  0
 16  3  2  0  0  0  0
 16 17  1  0  0  0  0
 17 11  1  0  0  0  0
 18 12  1  0  0  0  0
 19  6  1  0  0  0  0
 21  8  1  0  0  0  0
 22  1  1  0  0  0  0
 23 18  1  1  0  0  0
 23  5  1  0  0  0  0
 25 14  1  6  0  0  0
 25 26  1  0  0  0  0
 25 24  1  0  0  0  0
 26 24  1  0  0  0  0
 26 27  1  1  0  0  0
 27 28  1  0  0  0  0
 28 30  1  0  0  0  0
 29 28  2  0  0  0  0
 31 32  1  0  0  0  0
M  END
>  <MODEL>
8

>  <REMARK>
 VINA RESULT:      -7.8      3.106      5.382
  Name = 
  4 active torsions:
  status: ('A' for Active; 'I' for Inactive)
    1  A    between atoms: N_7  and  C_19
    2  A    between atoms: C_10  and  C_17
    3  A    between atoms: C_20  and  C_29
    4  A    between atoms: C_29  and  C_30
                            x       y       z     vdW  Elec       q    Type
                         _______ _______ _______ _____ _____    ______ ____

>  <TORSDO>
F 4

$$$$
=
 OpenBabel11122410473D

 32 37  0  0  1  0  0  0  0  0999 V2000
  188.9810  176.7770  138.0060 C   0  0  2  0  0  3  0  0  0  0  0  0
  190.4870  177.7100  142.6160 C   0  0  0  0  0  3  0  0  0  0  0  0
  189.2410  178.2530  142.9190 C   0  0  0  0  0  3  0  0  0  0  0  0
  186.6030  177.4450  137.5000 C   0  0  0  0  0  0  0  0  0  0  0  0
  185.3040  178.0910  137.9030 C   0  0  1  0  0  3  0  0  0  0  0  0
  190.7830  176.5300  136.3810 N   0  0  0  0  0  0  0  0  0  0  0  0
  191.3960  176.3740  138.7060 C   0  0  0  0  0  3  0  0  0  0  0  0
  184.1210  179.0660  139.6030 N   0  0  0  0  0  0  0  0  0  0  0  0
  190.7460  177.2390  141.3290 C   0  0  0  0  0  3  0  0  0  0  0  0
  190.0410  176.8410  139.0810 C   0  0  0  0  0  0  0  0  0  0  0  0
  189.7640  177.2940  140.3220 C   0  0  0  0  0  0  0  0  0  0  0  0
  187.5470  177.9950  139.6880 C   0  0  0  0  0  0  0  0  0  0  0  0
  183.4060  177.9080  139.2100 N   0  0  0  0  0  2  0  0  0  0  0  0
  191.7290  176.1880  137.4200 C   0  0  0  0  0  0  0  0  0  0  0  0
  184.2620  177.1280  138.3330 C   0  0  0  0  0  2  0  0  0  0  0  0
  188.2590  178.3340  141.9330 C   0  0  0  0  0  3  0  0  0  0  0  0
  188.5000  177.8630  140.6300 C   0  0  0  0  0  0  0  0  0  0  0  0
  186.2860  178.5930  140.0000 N   0  0  0  0  0  2  0  0  0  0  0  0
  189.5820  177.2990  136.7020 C   0  0  0  0  0  2  0  0  0  0  0  0
  186.6610  176.8430  136.3930 O   0  0  0  0  0  0  0  0  0  0  0  0
  183.4050  180.2180  139.0760 C   0  0  0  0  0  1  0  0  0  0  0  0
  187.7490  177.4920  138.3640 N   0  0  0  0  0  0  0  0  0  0  0  0
  185.3990  179.0480  139.0020 N   0  0  1  0  0  0  0  0  0  0  0  0
  193.9890  175.9450  138.1700 O   0  0  0  0  0  0  0  0  0  0  0  0
  193.1200  175.7350  137.0780 C   0  0  1  0  0  3  0  0  0  0  0  0
  193.5430  174.6270  137.9680 C   0  0  1  0  0  3  0  0  0  0  0  0
  194.6500  173.8290  137.3070 C   0  0  0  0  0  2  0  0  0  0  0  0
  195.4300  173.0890  138.3370 C   0  0  0  0  0  0  0  0  0  0  0  0
  195.4300  171.8300  138.3430 O   0  0  0  0  0  0  0  0  0  0  0  0
  196.1840  173.7870  139.2700 O   0  0  0  0  0  1  0  0  0  0  0  0
  190.6790  174.8630  134.7540 O   0  0  0  0  0  1  0  0  0  0  0  0
  191.0210  176.1960  134.9850 C   0  0  0  0  0  2  0  0  0  0  0  0
  1 19  1  6  0  0  0
  1 22  1  0  0  0  0
  1 10  1  0  0  0  0
  2  3  1  0  0  0  0
  4  5  1  0  0  0  0
  4 22  1  0  0  0  0
  5 15  1  1  0  0  0
  5 23  1  0  0  0  0
  6 19  1  0  0  0  0
  6 14  1  0  0  0  0
  7 10  1  0  0  0  0
  9  2  2  0  0  0  0
 10 11  2  0  0  0  0
 11 17  1  0  0  0  0
 11  9  1  0  0  0  0
 12 18  1  0  0  0  0
 12 17  2  0  0  0  0
 13  8  1  0  0  0  0
 14  7  2  0  0  0  0
 15 13  1  0  0  0  0
 16  3  2  0  0  0  0
 17 16  1  0  0  0  0
 20  4  2  0  0  0  0
 21  8  1  0  0  0  0
 22 12  1  0  0  0  0
 23  8  1  0  0  0  0
 23 18  1  1  0  0  0
 25 14  1  1  0  0  0
 25 26  1  0  0  0  0
 25 24  1  0  0  0  0
 26 27  1  6  0  0  0
 26 24  1  0  0  0  0
 27 28  1  0  0  0  0
 28 29  2  0  0  0  0
 28 30  1  0  0  0  0
 31 32  1  0  0  0  0
 32  6  1  0  0  0  0
M  END
>  <MODEL>
9

>  <REMARK>
 VINA RESULT:      -7.7      3.843      5.730
  Name = 
  4 active torsions:
  status: ('A' for Active; 'I' for Inactive)
    1  A    between atoms: N_7  and  C_19
    2  A    between atoms: C_10  and  C_17
    3  A    between atoms: C_20  and  C_29
    4  A    between atoms: C_29  and  C_30
                            x       y       z     vdW  Elec       q    Type
                         _______ _______ _______ _____ _____    ______ ____

>  <TORSDO>
F 4

$$$$
