=
 OpenBabel11122410593D

 31 35  0  0  1  0  0  0  0  0999 V2000
  188.6320  178.1340  140.1080 C   0  0  0  0  0  0  0  0  0  0  0  0
  185.9290  178.6890  142.6620 N   0  0  0  0  0  0  0  0  0  0  0  0
  184.6410  178.7260  142.0010 C   0  0  0  0  0  0  0  0  0  0  0  0
  183.2690  178.6480  139.9920 C   0  0  0  0  0  0  0  0  0  0  0  0
  187.1040  178.1880  141.9930 C   0  0  0  0  0  0  0  0  0  0  0  0
  189.4170  177.1830  140.7690 C   0  0  0  0  0  3  0  0  0  0  0  0
  184.5250  178.6850  140.6010 C   0  0  0  0  0  3  0  0  0  0  0  0
  186.3390  177.2340  144.5780 C   0  0  2  0  0  3  0  0  0  0  0  0
  189.0920  178.6930  138.5150 Cl  0  0  0  0  0  0  0  0  0  0  0  0
  183.5610  178.7700  144.1660 O   0  0  0  0  0  0  0  0  0  0  0  0
  183.1460  178.6000  138.2470 Cl  0  0  0  0  0  0  0  0  0  0  0  0
  187.5520  176.8100  143.9460 O   0  0  0  0  0  0  0  0  0  0  0  0
  186.0030  178.6600  144.1320 C   0  0  2  0  0  3  0  0  0  0  0  0
  187.4810  178.6390  140.7200 C   0  0  0  0  0  3  0  0  0  0  0  0
  182.1120  178.6330  140.7750 C   0  0  0  0  0  3  0  0  0  0  0  0
  187.9040  177.2370  142.6570 C   0  0  0  0  0  0  0  0  0  0  0  0
  189.0540  176.7370  142.0430 C   0  0  0  0  0  3  0  0  0  0  0  0
  184.7470  179.2320  144.8020 C   0  0  0  0  0  2  0  0  0  0  0  0
  183.4690  178.7270  142.7770 C   0  0  0  0  0  0  0  0  0  0  0  0
  182.2130  178.6700  142.1670 C   0  0  0  0  0  3  0  0  0  0  0  0
  186.4900  177.1670  146.0240 N   0  0  0  0  0  2  0  0  0  0  0  0
  187.0590  178.8550  147.6870 C   0  0  0  0  0  1  0  0  0  0  0  0
  187.4830  178.1620  146.4040 C   0  0  1  0  0  3  0  0  0  0  0  0
  191.3540  176.4090  146.9160 C   0  0  0  0  0  0  0  0  0  0  0  0
  189.0440  176.6000  147.5650 C   0  0  0  0  0  3  0  0  0  0  0  0
  189.7770  178.8120  144.7420 F   0  0  0  0  0  0  0  0  0  0  0  0
  192.6450  175.8400  147.0930 N   0  0  0  0  0  1  0  0  0  0  0  0
  190.3040  176.0300  147.7520 C   0  0  0  0  0  3  0  0  0  0  0  0
  189.9260  177.8950  145.7300 C   0  0  0  0  0  0  0  0  0  0  0  0
  188.8410  177.5380  146.5500 C   0  0  0  0  0  0  0  0  0  0  0  0
  191.1460  177.3260  145.9320 N   0  0  0  0  0  0  0  0  0  0  0  0
  1 14  2  0  0  0  0
  1  6  1  0  0  0  0
  2 13  1  0  0  0  0
  3  2  1  0  0  0  0
  3 19  1  0  0  0  0
  4  7  1  0  0  0  0
  4 15  2  0  0  0  0
  5 16  2  0  0  0  0
  5  2  1  0  0  0  0
  6 17  2  0  0  0  0
  7  3  2  0  0  0  0
  8 21  1  1  0  0  0
  9  1  1  0  0  0  0
 10 18  1  0  0  0  0
 11  4  1  0  0  0  0
 12  8  1  0  0  0  0
 13  8  1  0  0  0  0
 13 18  1  1  0  0  0
 14  5  1  0  0  0  0
 15 20  1  0  0  0  0
 16 12  1  0  0  0  0
 17 16  1  0  0  0  0
 19 10  1  0  0  0  0
 20 19  2  0  0  0  0
 21 23  1  0  0  0  0
 23 30  1  0  0  0  0
 23 22  1  1  0  0  0
 24 27  1  0  0  0  0
 24 28  1  0  0  0  0
 25 28  2  0  0  0  0
 26 29  1  0  0  0  0
 29 31  1  0  0  0  0
 29 30  2  0  0  0  0
 30 25  1  0  0  0  0
 31 24  2  0  0  0  0
M  END
>  <MODEL>
1

>  <REMARK>
 VINA RESULT:      -9.3      0.000      0.000
  Name = 
  3 active torsions:
  status: ('A' for Active; 'I' for Inactive)
    1  A    between atoms: C_5  and  N_16
    2  A    between atoms: C_5  and  C_30
    3  A    between atoms: C_10  and  N_16
                            x       y       z     vdW  Elec       q    Type
                         _______ _______ _______ _____ _____    ______ ____

>  <TORSDO>
F 3

$$$$
=
 OpenBabel11122410593D

 31 35  0  0  1  0  0  0  0  0999 V2000
  187.6350  177.9300  136.3000 C   0  0  0  0  0  0  0  0  0  0  0  0
  186.2150  178.5680  139.7230 N   0  0  0  0  0  0  0  0  0  0  0  0
  184.8080  178.2270  139.7320 C   0  0  0  0  0  0  0  0  0  0  0  0
  182.7890  177.4560  138.6110 C   0  0  0  0  0  0  0  0  0  0  0  0
  187.0850  178.1420  138.6540 C   0  0  0  0  0  0  0  0  0  0  0  0
  188.8410  177.3070  136.6350 C   0  0  0  0  0  3  0  0  0  0  0  0
  184.1290  177.8500  138.5620 C   0  0  0  0  0  3  0  0  0  0  0  0
  187.7540  177.6810  141.3960 C   0  0  2  0  0  3  0  0  0  0  0  0
  187.2190  178.1850  134.6200 Cl  0  0  0  0  0  0  0  0  0  0  0  0
  184.7690  178.5710  142.1280 O   0  0  0  0  0  0  0  0  0  0  0  0
  181.9610  176.9930  137.1410 Cl  0  0  0  0  0  0  0  0  0  0  0  0
  188.6520  177.3440  140.3330 O   0  0  0  0  0  0  0  0  0  0  0  0
  186.9050  178.8860  140.9840 C   0  0  2  0  0  3  0  0  0  0  0  0
  186.7600  178.3510  137.3060 C   0  0  0  0  0  3  0  0  0  0  0  0
  182.1170  177.4160  139.8350 C   0  0  0  0  0  3  0  0  0  0  0  0
  188.3060  177.5220  138.9860 C   0  0  0  0  0  0  0  0  0  0  0  0
  189.1770  177.1050  137.9770 C   0  0  0  0  0  3  0  0  0  0  0  0
  185.9470  179.3660  142.0810 C   0  0  0  0  0  2  0  0  0  0  0  0
  184.1140  178.1990  140.9550 C   0  0  0  0  0  0  0  0  0  0  0  0
  182.7810  177.7850  141.0070 C   0  0  0  0  0  3  0  0  0  0  0  0
  188.5120  177.9710  142.6040 N   0  0  0  0  0  2  0  0  0  0  0  0
  189.7370  175.9410  143.1690 C   0  0  0  0  0  1  0  0  0  0  0  0
  188.4920  176.7700  143.4280 C   0  0  1  0  0  3  0  0  0  0  0  0
  188.1830  177.6810  147.5990 C   0  0  0  0  0  0  0  0  0  0  0  0
  189.5160  177.1060  145.6780 C   0  0  0  0  0  3  0  0  0  0  0  0
  185.9890  177.4260  144.7520 F   0  0  0  0  0  0  0  0  0  0  0  0
  188.0760  177.9700  148.9870 N   0  0  0  0  0  1  0  0  0  0  0  0
  189.4280  177.3890  147.0420 C   0  0  0  0  0  3  0  0  0  0  0  0
  187.1300  177.4170  145.4840 C   0  0  0  0  0  0  0  0  0  0  0  0
  188.3670  177.1200  144.8830 C   0  0  0  0  0  0  0  0  0  0  0  0
  187.0700  177.6890  146.8160 N   0  0  0  0  0  0  0  0  0  0  0  0
  1  6  2  0  0  0  0
  1 14  1  0  0  0  0
  2  3  1  0  0  0  0
  2 13  1  0  0  0  0
  3 19  1  0  0  0  0
  4 15  2  0  0  0  0
  5 16  1  0  0  0  0
  5  2  1  0  0  0  0
  6 17  1  0  0  0  0
  7  4  1  0  0  0  0
  7  3  2  0  0  0  0
  8 21  1  1  0  0  0
  9  1  1  0  0  0  0
 11  4  1  0  0  0  0
 12  8  1  0  0  0  0
 13  8  1  0  0  0  0
 13 18  1  1  0  0  0
 14  5  2  0  0  0  0
 15 20  1  0  0  0  0
 16 12  1  0  0  0  0
 17 16  2  0  0  0  0
 18 10  1  0  0  0  0
 19 20  2  0  0  0  0
 19 10  1  0  0  0  0
 21 23  1  0  0  0  0
 23 22  1  1  0  0  0
 23 30  1  0  0  0  0
 24 27  1  0  0  0  0
 25 28  2  0  0  0  0
 26 29  1  0  0  0  0
 28 24  1  0  0  0  0
 29 31  1  0  0  0  0
 30 29  2  0  0  0  0
 30 25  1  0  0  0  0
 31 24  2  0  0  0  0
M  END
>  <MODEL>
2

>  <REMARK>
 VINA RESULT:      -8.7      2.331      3.371
  Name = 
  3 active torsions:
  status: ('A' for Active; 'I' for Inactive)
    1  A    between atoms: C_5  and  N_16
    2  A    between atoms: C_5  and  C_30
    3  A    between atoms: C_10  and  N_16
                            x       y       z     vdW  Elec       q    Type
                         _______ _______ _______ _____ _____    ______ ____

>  <TORSDO>
F 3

$$$$
=
 OpenBabel11122410593D

 31 35  0  0  1  0  0  0  0  0999 V2000
  190.0420  176.2660  142.6720 C   0  0  0  0  0  0  0  0  0  0  0  0
  186.5220  177.5640  142.9240 N   0  0  0  0  0  0  0  0  0  0  0  0
  186.2400  177.9300  144.2960 C   0  0  0  0  0  0  0  0  0  0  0  0
  186.8900  178.1100  146.6350 C   0  0  0  0  0  0  0  0  0  0  0  0
  187.8710  177.3310  142.4690 C   0  0  0  0  0  0  0  0  0  0  0  0
  190.4700  176.9120  141.5070 C   0  0  0  0  0  3  0  0  0  0  0  0
  187.1550  177.6810  145.3330 C   0  0  0  0  0  3  0  0  0  0  0  0
  186.1140  179.1100  141.0800 C   0  0  2  0  0  3  0  0  0  0  0  0
  191.1310  175.2000  143.5310 Cl  0  0  0  0  0  0  0  0  0  0  0  0
  184.1310  178.8780  143.5810 O   0  0  0  0  0  0  0  0  0  0  0  0
  188.0410  177.7870  147.9130 Cl  0  0  0  0  0  0  0  0  0  0  0  0
  187.4230  178.8030  140.5860 O   0  0  0  0  0  0  0  0  0  0  0  0
  185.5670  177.9100  141.8570 C   0  0  2  0  0  3  0  0  0  0  0  0
  188.7440  176.4710  143.1500 C   0  0  0  0  0  3  0  0  0  0  0  0
  185.7140  178.8120  146.9140 C   0  0  0  0  0  3  0  0  0  0  0  0
  188.3040  177.9710  141.2910 C   0  0  0  0  0  0  0  0  0  0  0  0
  189.6010  177.7610  140.8160 C   0  0  0  0  0  3  0  0  0  0  0  0
  184.1400  178.1160  142.3810 C   0  0  0  0  0  2  0  0  0  0  0  0
  185.0530  178.6220  144.5940 C   0  0  0  0  0  0  0  0  0  0  0  0
  184.7980  179.0690  145.8930 C   0  0  0  0  0  3  0  0  0  0  0  0
  185.2380  179.4500  139.9690 N   0  0  0  0  0  2  0  0  0  0  0  0
  183.3510  178.2410  139.0120 C   0  0  0  0  0  1  0  0  0  0  0  0
  184.8330  178.2020  139.3370 C   0  0  1  0  0  3  0  0  0  0  0  0
  187.1290  177.5220  135.7900 C   0  0  0  0  0  0  0  0  0  0  0  0
  186.5240  178.9240  137.6510 C   0  0  0  0  0  3  0  0  0  0  0  0
  184.6900  175.7590  137.7710 F   0  0  0  0  0  0  0  0  0  0  0  0
  187.8790  177.3000  134.6020 N   0  0  0  0  0  1  0  0  0  0  0  0
  187.2690  178.7210  136.4890 C   0  0  0  0  0  3  0  0  0  0  0  0
  185.5360  176.7390  137.3720 C   0  0  0  0  0  0  0  0  0  0  0  0
  185.6510  177.9340  138.1070 C   0  0  0  0  0  0  0  0  0  0  0  0
  186.2730  176.5650  136.2400 N   0  0  0  0  0  0  0  0  0  0  0  0
  1 14  1  0  0  0  0
  1  9  1  0  0  0  0
  2  3  1  0  0  0  0
  3 19  2  0  0  0  0
  3  7  1  0  0  0  0
  4 15  1  0  0  0  0
  4 11  1  0  0  0  0
  5  2  1  0  0  0  0
  5 14  2  0  0  0  0
  6  1  2  0  0  0  0
  7  4  2  0  0  0  0
  8 21  1  6  0  0  0
  8 13  1  0  0  0  0
 10 19  1  0  0  0  0
 12  8  1  0  0  0  0
 12 16  1  0  0  0  0
 13 18  1  1  0  0  0
 13  2  1  0  0  0  0
 16  5  1  0  0  0  0
 17 16  2  0  0  0  0
 17  6  1  0  0  0  0
 18 10  1  0  0  0  0
 19 20  1  0  0  0  0
 20 15  2  0  0  0  0
 23 22  1  6  0  0  0
 23 21  1  0  0  0  0
 24 31  2  0  0  0  0
 24 28  1  0  0  0  0
 25 30  1  0  0  0  0
 27 24  1  0  0  0  0
 28 25  2  0  0  0  0
 29 26  1  0  0  0  0
 29 30  2  0  0  0  0
 30 23  1  0  0  0  0
 31 29  1  0  0  0  0
M  END
>  <MODEL>
3

>  <REMARK>
 VINA RESULT:      -8.4      3.806      7.080
  Name = 
  3 active torsions:
  status: ('A' for Active; 'I' for Inactive)
    1  A    between atoms: C_5  and  N_16
    2  A    between atoms: C_5  and  C_30
    3  A    between atoms: C_10  and  N_16
                            x       y       z     vdW  Elec       q    Type
                         _______ _______ _______ _____ _____    ______ ____

>  <TORSDO>
F 3

$$$$
=
 OpenBabel11122410593D

 31 35  0  0  1  0  0  0  0  0999 V2000
  189.8090  176.9020  136.3590 C   0  0  0  0  0  0  0  0  0  0  0  0
  188.1240  178.2930  139.4180 N   0  0  0  0  0  0  0  0  0  0  0  0
  186.6870  178.2430  139.2420 C   0  0  0  0  0  0  0  0  0  0  0  0
  184.7150  177.7340  137.9090 C   0  0  0  0  0  0  0  0  0  0  0  0
  189.0130  177.5540  138.5560 C   0  0  0  0  0  0  0  0  0  0  0  0
  190.7960  176.1060  136.9490 C   0  0  0  0  0  3  0  0  0  0  0  0
  186.1030  177.8440  138.0290 C   0  0  0  0  0  3  0  0  0  0  0  0
  189.1990  177.3680  141.4040 C   0  0  2  0  0  3  0  0  0  0  0  0
  189.6840  176.9900  134.6160 Cl  0  0  0  0  0  0  0  0  0  0  0  0
  186.4090  178.9290  141.5470 O   0  0  0  0  0  0  0  0  0  0  0  0
  184.0070  177.2380  136.3880 Cl  0  0  0  0  0  0  0  0  0  0  0  0
  190.1350  176.7110  140.5420 O   0  0  0  0  0  0  0  0  0  0  0  0
  188.6940  178.6460  140.7290 C   0  0  2  0  0  3  0  0  0  0  0  0
  188.9220  177.6280  137.1590 C   0  0  0  0  0  3  0  0  0  0  0  0
  183.8950  178.0050  139.0080 C   0  0  0  0  0  3  0  0  0  0  0  0
  190.0150  176.7580  139.1460 C   0  0  0  0  0  0  0  0  0  0  0  0
  190.9010  176.0370  138.3420 C   0  0  0  0  0  3  0  0  0  0  0  0
  187.7270  179.4590  141.5990 C   0  0  0  0  0  2  0  0  0  0  0  0
  185.8500  178.5290  140.3350 C   0  0  0  0  0  0  0  0  0  0  0  0
  184.4630  178.3990  140.2200 C   0  0  0  0  0  3  0  0  0  0  0  0
  189.8360  177.6720  142.6770 N   0  0  0  0  0  2  0  0  0  0  0  0
  190.9420  175.7100  143.6080 C   0  0  0  0  0  1  0  0  0  0  0  0
  189.6550  176.5140  143.5410 C   0  0  1  0  0  3  0  0  0  0  0  0
  188.4100  177.6180  147.4840 C   0  0  0  0  0  0  0  0  0  0  0  0
  190.1290  176.8990  145.9600 C   0  0  0  0  0  3  0  0  0  0  0  0
  186.9500  177.3440  144.2010 F   0  0  0  0  0  0  0  0  0  0  0  0
  187.9900  177.9710  148.7960 N   0  0  0  0  0  1  0  0  0  0  0  0
  189.7340  177.2440  147.2530 C   0  0  0  0  0  3  0  0  0  0  0  0
  187.8810  177.3130  145.1870 C   0  0  0  0  0  0  0  0  0  0  0  0
  189.2070  176.9320  144.9110 C   0  0  0  0  0  0  0  0  0  0  0  0
  187.5190  177.6440  146.4560 N   0  0  0  0  0  0  0  0  0  0  0  0
  1  6  2  0  0  0  0
  1 14  1  0  0  0  0
  2 13  1  0  0  0  0
  3  2  1  0  0  0  0
  3 19  1  0  0  0  0
  4  7  1  0  0  0  0
  4 15  2  0  0  0  0
  5 16  1  0  0  0  0
  5  2  1  0  0  0  0
  6 17  1  0  0  0  0
  7  3  2  0  0  0  0
  8 21  1  1  0  0  0
  9  1  1  0  0  0  0
 10 18  1  0  0  0  0
 11  4  1  0  0  0  0
 12  8  1  0  0  0  0
 13  8  1  0  0  0  0
 13 18  1  1  0  0  0
 14  5  2  0  0  0  0
 15 20  1  0  0  0  0
 16 12  1  0  0  0  0
 17 16  2  0  0  0  0
 19 10  1  0  0  0  0
 20 19  2  0  0  0  0
 21 23  1  0  0  0  0
 23 22  1  1  0  0  0
 23 30  1  0  0  0  0
 24 27  1  0  0  0  0
 25 28  2  0  0  0  0
 26 29  1  0  0  0  0
 28 24  1  0  0  0  0
 29 31  1  0  0  0  0
 30 29  2  0  0  0  0
 30 25  1  0  0  0  0
 31 24  2  0  0  0  0
M  END
>  <MODEL>
4

>  <REMARK>
 VINA RESULT:      -8.3      2.589      3.785
  Name = 
  3 active torsions:
  status: ('A' for Active; 'I' for Inactive)
    1  A    between atoms: C_5  and  N_16
    2  A    between atoms: C_5  and  C_30
    3  A    between atoms: C_10  and  N_16
                            x       y       z     vdW  Elec       q    Type
                         _______ _______ _______ _____ _____    ______ ____

>  <TORSDO>
F 3

$$$$
=
 OpenBabel11122410593D

 31 35  0  0  1  0  0  0  0  0999 V2000
  188.8360  177.1300  141.7590 C   0  0  0  0  0  0  0  0  0  0  0  0
  186.4480  177.8100  144.5820 N   0  0  0  0  0  0  0  0  0  0  0  0
  187.1820  177.8740  145.8290 C   0  0  0  0  0  0  0  0  0  0  0  0
  189.2530  177.7200  147.0990 C   0  0  0  0  0  0  0  0  0  0  0  0
  187.1230  177.8720  143.3090 C   0  0  0  0  0  0  0  0  0  0  0  0
  188.3650  178.0340  140.8010 C   0  0  0  0  0  3  0  0  0  0  0  0
  188.5540  177.5810  145.8980 C   0  0  0  0  0  3  0  0  0  0  0  0
  184.9160  179.5870  143.9120 C   0  0  2  0  0  3  0  0  0  0  0  0
  190.2040  176.1020  141.3930 Cl  0  0  0  0  0  0  0  0  0  0  0  0
  185.1640  178.6040  146.9470 O   0  0  0  0  0  0  0  0  0  0  0  0
  190.9610  177.3480  147.1640 Cl  0  0  0  0  0  0  0  0  0  0  0  0
  185.5320  179.5770  142.6200 O   0  0  0  0  0  0  0  0  0  0  0  0
  185.0280  178.1960  144.5420 C   0  0  2  0  0  3  0  0  0  0  0  0
  188.2150  177.0450  143.0080 C   0  0  0  0  0  3  0  0  0  0  0  0
  188.5910  178.1720  148.2440 C   0  0  0  0  0  3  0  0  0  0  0  0
  186.6470  178.7750  142.3370 C   0  0  0  0  0  0  0  0  0  0  0  0
  187.2700  178.8540  141.0890 C   0  0  0  0  0  3  0  0  0  0  0  0
  184.3420  178.0840  145.9090 C   0  0  0  0  0  2  0  0  0  0  0  0
  186.5240  178.3110  146.9930 C   0  0  0  0  0  0  0  0  0  0  0  0
  187.2290  178.4700  148.1890 C   0  0  0  0  0  3  0  0  0  0  0  0
  183.5220  179.9870  143.7860 N   0  0  0  0  0  2  0  0  0  0  0  0
  181.5780  178.6260  144.3450 C   0  0  0  0  0  1  0  0  0  0  0  0
  182.7620  178.8020  143.4100 C   0  0  1  0  0  3  0  0  0  0  0  0
  181.3960  179.0020  139.3590 C   0  0  0  0  0  0  0  0  0  0  0  0
  181.1560  179.6050  141.6780 C   0  0  0  0  0  3  0  0  0  0  0  0
  184.1130  177.5020  141.1900 F   0  0  0  0  0  0  0  0  0  0  0  0
  180.9360  179.0540  138.0150 N   0  0  0  0  0  1  0  0  0  0  0  0
  180.6920  179.6670  140.3630 C   0  0  0  0  0  3  0  0  0  0  0  0
  182.9940  178.2250  140.9390 C   0  0  0  0  0  0  0  0  0  0  0  0
  182.3140  178.8840  141.9800 C   0  0  0  0  0  0  0  0  0  0  0  0
  182.5210  178.3000  139.6640 N   0  0  0  0  0  0  0  0  0  0  0  0
  1 14  1  0  0  0  0
  2  3  1  0  0  0  0
  3  7  2  0  0  0  0
  3 19  1  0  0  0  0
  4 11  1  0  0  0  0
  4 15  2  0  0  0  0
  5  2  1  0  0  0  0
  6 17  1  0  0  0  0
  6  1  2  0  0  0  0
  7  4  1  0  0  0  0
  8 21  1  6  0  0  0
  8 13  1  0  0  0  0
  9  1  1  0  0  0  0
 10 19  1  0  0  0  0
 12  8  1  0  0  0  0
 13  2  1  0  0  0  0
 13 18  1  1  0  0  0
 14  5  2  0  0  0  0
 16 12  1  0  0  0  0
 16  5  1  0  0  0  0
 17 16  2  0  0  0  0
 18 10  1  0  0  0  0
 19 20  2  0  0  0  0
 20 15  1  0  0  0  0
 23 21  1  0  0  0  0
 23 22  1  1  0  0  0
 24 31  2  0  0  0  0
 24 28  1  0  0  0  0
 25 30  1  0  0  0  0
 27 24  1  0  0  0  0
 28 25  2  0  0  0  0
 29 26  1  0  0  0  0
 29 30  2  0  0  0  0
 30 23  1  0  0  0  0
 31 29  1  0  0  0  0
M  END
>  <MODEL>
5

>  <REMARK>
 VINA RESULT:      -8.0      2.942      7.228
  Name = 
  3 active torsions:
  status: ('A' for Active; 'I' for Inactive)
    1  A    between atoms: C_5  and  N_16
    2  A    between atoms: C_5  and  C_30
    3  A    between atoms: C_10  and  N_16
                            x       y       z     vdW  Elec       q    Type
                         _______ _______ _______ _____ _____    ______ ____

>  <TORSDO>
F 3

$$$$
=
 OpenBabel11122410593D

 31 35  0  0  1  0  0  0  0  0999 V2000
  185.2210  178.6090  144.2760 C   0  0  0  0  0  0  0  0  0  0  0  0
  188.9550  178.3270  143.9350 N   0  0  0  0  0  0  0  0  0  0  0  0
  189.5030  177.7100  145.1250 C   0  0  0  0  0  0  0  0  0  0  0  0
  189.2410  176.7530  147.3480 C   0  0  0  0  0  0  0  0  0  0  0  0
  187.5430  178.2850  143.6470 C   0  0  0  0  0  0  0  0  0  0  0  0
  184.8160  178.1960  143.0020 C   0  0  0  0  0  3  0  0  0  0  0  0
  188.7030  177.4150  146.2420 C   0  0  0  0  0  3  0  0  0  0  0  0
  189.4860  177.4920  141.7050 C   0  0  2  0  0  3  0  0  0  0  0  0
  184.0260  179.0670  145.4680 Cl  0  0  0  0  0  0  0  0  0  0  0  0
  191.6660  177.6100  144.0450 O   0  0  0  0  0  0  0  0  0  0  0  0
  188.2290  176.3980  148.7300 Cl  0  0  0  0  0  0  0  0  0  0  0  0
  188.0880  177.5390  141.3980 O   0  0  0  0  0  0  0  0  0  0  0  0
  189.8130  178.5520  142.7600 C   0  0  2  0  0  3  0  0  0  0  0  0
  186.5810  178.6580  144.5970 C   0  0  0  0  0  3  0  0  0  0  0  0
  190.5820  176.3610  147.3430 C   0  0  0  0  0  3  0  0  0  0  0  0
  187.1290  177.8780  142.3630 C   0  0  0  0  0  0  0  0  0  0  0  0
  185.7690  177.8340  142.0460 C   0  0  0  0  0  3  0  0  0  0  0  0
  191.3030  178.6240  143.1160 C   0  0  0  0  0  2  0  0  0  0  0  0
  190.8550  177.3250  145.1410 C   0  0  0  0  0  0  0  0  0  0  0  0
  191.3870  176.6440  146.2390 C   0  0  0  0  0  3  0  0  0  0  0  0
  190.2610  177.7120  140.4930 N   0  0  0  0  0  2  0  0  0  0  0  0
  189.1140  178.6280  138.5470 C   0  0  0  0  0  1  0  0  0  0  0  0
  189.4040  177.3810  139.3620 C   0  0  1  0  0  3  0  0  0  0  0  0
  191.2420  174.4020  136.8990 C   0  0  0  0  0  0  0  0  0  0  0  0
  191.4140  176.1460  138.5490 C   0  0  0  0  0  3  0  0  0  0  0  0
  187.9240  175.6390  137.5680 F   0  0  0  0  0  0  0  0  0  0  0  0
  191.8510  173.4220  136.0690 N   0  0  0  0  0  1  0  0  0  0  0  0
  192.0280  175.1870  137.7420 C   0  0  0  0  0  3  0  0  0  0  0  0
  189.2710  175.5010  137.6470 C   0  0  0  0  0  0  0  0  0  0  0  0
  190.0280  176.3120  138.5120 C   0  0  0  0  0  0  0  0  0  0  0  0
  189.8930  174.5730  136.8680 N   0  0  0  0  0  0  0  0  0  0  0  0
  1 14  1  0  0  0  0
  1  9  1  0  0  0  0
  2  3  1  0  0  0  0
  3 19  2  0  0  0  0
  3  7  1  0  0  0  0
  4 11  1  0  0  0  0
  5  2  1  0  0  0  0
  5 14  2  0  0  0  0
  6  1  2  0  0  0  0
  7  4  2  0  0  0  0
  8 21  1  6  0  0  0
  8 13  1  0  0  0  0
 10 19  1  0  0  0  0
 12  8  1  0  0  0  0
 12 16  1  0  0  0  0
 13 18  1  1  0  0  0
 13  2  1  0  0  0  0
 15  4  1  0  0  0  0
 16  5  1  0  0  0  0
 17 16  2  0  0  0  0
 17  6  1  0  0  0  0
 18 10  1  0  0  0  0
 19 20  1  0  0  0  0
 20 15  2  0  0  0  0
 23 22  1  6  0  0  0
 23 21  1  0  0  0  0
 24 28  1  0  0  0  0
 26 29  1  0  0  0  0
 27 24  1  0  0  0  0
 28 25  2  0  0  0  0
 29 30  2  0  0  0  0
 30 25  1  0  0  0  0
 30 23  1  0  0  0  0
 31 24  2  0  0  0  0
 31 29  1  0  0  0  0
M  END
>  <MODEL>
6

>  <REMARK>
 VINA RESULT:      -8.0      4.266      7.705
  Name = 
  3 active torsions:
  status: ('A' for Active; 'I' for Inactive)
    1  A    between atoms: C_5  and  N_16
    2  A    between atoms: C_5  and  C_30
    3  A    between atoms: C_10  and  N_16
                            x       y       z     vdW  Elec       q    Type
                         _______ _______ _______ _____ _____    ______ ____

>  <TORSDO>
F 3

$$$$
=
 OpenBabel11122410593D

 31 35  0  0  1  0  0  0  0  0999 V2000
  190.6360  176.4740  143.4480 C   0  0  0  0  0  0  0  0  0  0  0  0
  187.0360  177.5370  143.2410 N   0  0  0  0  0  0  0  0  0  0  0  0
  186.5700  177.9210  144.5580 C   0  0  0  0  0  0  0  0  0  0  0  0
  186.9240  178.2070  146.9490 C   0  0  0  0  0  0  0  0  0  0  0  0
  188.4410  177.3840  142.9560 C   0  0  0  0  0  0  0  0  0  0  0  0
  191.1580  177.1150  142.3200 C   0  0  0  0  0  3  0  0  0  0  0  0
  187.3690  177.7610  145.7020 C   0  0  0  0  0  3  0  0  0  0  0  0
  186.7530  179.0030  141.3110 C   0  0  2  0  0  3  0  0  0  0  0  0
  191.6810  175.5060  144.4660 Cl  0  0  0  0  0  0  0  0  0  0  0  0
  184.5050  178.7050  143.5690 O   0  0  0  0  0  0  0  0  0  0  0  0
  187.9330  177.9970  148.3630 Cl  0  0  0  0  0  0  0  0  0  0  0  0
  188.1280  178.7710  140.9840 O   0  0  0  0  0  0  0  0  0  0  0  0
  186.1950  177.7900  142.0590 C   0  0  2  0  0  3  0  0  0  0  0  0
  189.2810  176.6040  143.7640 C   0  0  0  0  0  3  0  0  0  0  0  0
  185.6810  178.8350  147.0640 C   0  0  0  0  0  3  0  0  0  0  0  0
  188.9700  178.0200  141.8160 C   0  0  0  0  0  0  0  0  0  0  0  0
  190.3250  177.8850  141.5030 C   0  0  0  0  0  3  0  0  0  0  0  0
  184.7060  177.9130  142.4050 C   0  0  0  0  0  2  0  0  0  0  0  0
  185.3140  178.5390  144.6910 C   0  0  0  0  0  0  0  0  0  0  0  0
  184.8790  179.0030  145.9350 C   0  0  0  0  0  3  0  0  0  0  0  0
  185.9960  179.2530  140.0940 N   0  0  0  0  0  2  0  0  0  0  0  0
  184.4390  177.7740  138.9410 C   0  0  0  0  0  1  0  0  0  0  0  0
  185.8740  177.9840  139.3890 C   0  0  1  0  0  3  0  0  0  0  0  0
  188.4900  177.7900  136.0070 C   0  0  0  0  0  0  0  0  0  0  0  0
  186.5110  178.6540  137.0710 C   0  0  0  0  0  3  0  0  0  0  0  0
  188.3060  176.3940  139.3240 F   0  0  0  0  0  0  0  0  0  0  0  0
  189.3530  177.7120  134.8790 N   0  0  0  0  0  1  0  0  0  0  0  0
  187.3480  178.5900  135.9570 C   0  0  0  0  0  3  0  0  0  0  0  0
  187.9780  177.1290  138.2320 C   0  0  0  0  0  0  0  0  0  0  0  0
  186.8180  177.9250  138.2230 C   0  0  0  0  0  0  0  0  0  0  0  0
  188.7790  177.0820  137.1320 N   0  0  0  0  0  0  0  0  0  0  0  0
  1 14  1  0  0  0  0
  1  9  1  0  0  0  0
  2  3  1  0  0  0  0
  3 19  2  0  0  0  0
  3  7  1  0  0  0  0
  4 15  1  0  0  0  0
  4 11  1  0  0  0  0
  5  2  1  0  0  0  0
  5 14  2  0  0  0  0
  6  1  2  0  0  0  0
  7  4  2  0  0  0  0
  8 21  1  6  0  0  0
  8 13  1  0  0  0  0
 10 19  1  0  0  0  0
 12  8  1  0  0  0  0
 12 16  1  0  0  0  0
 13 18  1  1  0  0  0
 13  2  1  0  0  0  0
 16  5  1  0  0  0  0
 17 16  2  0  0  0  0
 17  6  1  0  0  0  0
 18 10  1  0  0  0  0
 19 20  1  0  0  0  0
 20 15  2  0  0  0  0
 23 22  1  6  0  0  0
 23 21  1  0  0  0  0
 24 31  1  0  0  0  0
 25 30  2  0  0  0  0
 27 24  1  0  0  0  0
 28 24  2  0  0  0  0
 28 25  1  0  0  0  0
 29 26  1  0  0  0  0
 30 29  1  0  0  0  0
 30 23  1  0  0  0  0
 31 29  2  0  0  0  0
M  END
>  <MODEL>
7

>  <REMARK>
 VINA RESULT:      -7.9      3.686      6.858
  Name = 
  3 active torsions:
  status: ('A' for Active; 'I' for Inactive)
    1  A    between atoms: C_5  and  N_16
    2  A    between atoms: C_5  and  C_30
    3  A    between atoms: C_10  and  N_16
                            x       y       z     vdW  Elec       q    Type
                         _______ _______ _______ _____ _____    ______ ____

>  <TORSDO>
F 3

$$$$
=
 OpenBabel11122410593D

 31 35  0  0  1  0  0  0  0  0999 V2000
  183.2670  178.7370  138.6050 C   0  0  0  0  0  0  0  0  0  0  0  0
  186.9340  178.4280  139.3730 N   0  0  0  0  0  0  0  0  0  0  0  0
  187.1180  178.3000  140.8040 C   0  0  0  0  0  0  0  0  0  0  0  0
  186.2370  178.2160  143.0720 C   0  0  0  0  0  0  0  0  0  0  0  0
  185.6400  178.2530  138.7620 C   0  0  0  0  0  0  0  0  0  0  0  0
  183.1620  177.8790  137.5050 C   0  0  0  0  0  3  0  0  0  0  0  0
  186.0450  178.4170  141.7020 C   0  0  0  0  0  3  0  0  0  0  0  0
  187.9400  176.8460  137.8100 C   0  0  2  0  0  3  0  0  0  0  0  0
  181.8500  179.5740  139.1990 Cl  0  0  0  0  0  0  0  0  0  0  0  0
  189.4690  177.8560  140.4340 O   0  0  0  0  0  0  0  0  0  0  0  0
  184.8870  178.3700  144.1740 Cl  0  0  0  0  0  0  0  0  0  0  0  0
  186.6710  176.7490  137.1540 O   0  0  0  0  0  0  0  0  0  0  0  0
  188.0740  178.2250  138.4620 C   0  0  2  0  0  3  0  0  0  0  0  0
  184.5030  178.9280  139.2300 C   0  0  0  0  0  3  0  0  0  0  0  0
  187.5030  177.8780  143.5570 C   0  0  0  0  0  3  0  0  0  0  0  0
  185.5300  177.3970  137.6490 C   0  0  0  0  0  0  0  0  0  0  0  0
  184.2940  177.2110  137.0260 C   0  0  0  0  0  3  0  0  0  0  0  0
  189.4280  178.4530  139.1440 C   0  0  0  0  0  2  0  0  0  0  0  0
  188.3900  177.9750  141.3080 C   0  0  0  0  0  0  0  0  0  0  0  0
  188.5770  177.7550  142.6750 C   0  0  0  0  0  3  0  0  0  0  0  0
  189.0080  176.6240  136.8470 N   0  0  0  0  0  2  0  0  0  0  0  0
  189.5270  174.2550  137.0920 C   0  0  0  0  0  1  0  0  0  0  0  0
  189.9390  175.6740  137.4410 C   0  0  1  0  0  3  0  0  0  0  0  0
  193.9550  176.3780  136.1420 C   0  0  0  0  0  0  0  0  0  0  0  0
  191.6840  175.7410  135.6600 C   0  0  0  0  0  3  0  0  0  0  0  0
  192.0640  176.5810  139.2020 F   0  0  0  0  0  0  0  0  0  0  0  0
  195.2940  176.5980  135.7160 N   0  0  0  0  0  1  0  0  0  0  0  0
  192.9930  175.9540  135.2250 C   0  0  0  0  0  3  0  0  0  0  0  0
  192.3460  176.3780  137.8920 C   0  0  0  0  0  0  0  0  0  0  0  0
  191.3460  175.9530  136.9990 C   0  0  0  0  0  0  0  0  0  0  0  0
  193.6160  176.5780  137.4440 N   0  0  0  0  0  0  0  0  0  0  0  0
  1  9  1  0  0  0  0
  1 14  1  0  0  0  0
  2  3  1  0  0  0  0
  3 19  2  0  0  0  0
  3  7  1  0  0  0  0
  4 15  1  0  0  0  0
  4 11  1  0  0  0  0
  5 14  2  0  0  0  0
  5  2  1  0  0  0  0
  6  1  2  0  0  0  0
  7  4  2  0  0  0  0
  8 21  1  6  0  0  0
  8 13  1  0  0  0  0
 10 19  1  0  0  0  0
 12 16  1  0  0  0  0
 12  8  1  0  0  0  0
 13 18  1  1  0  0  0
 13  2  1  0  0  0  0
 16  5  1  0  0  0  0
 17  6  1  0  0  0  0
 17 16  2  0  0  0  0
 18 10  1  0  0  0  0
 19 20  1  0  0  0  0
 20 15  2  0  0  0  0
 21 23  1  0  0  0  0
 23 22  1  6  0  0  0
 24 31  1  0  0  0  0
 25 30  2  0  0  0  0
 27 24  1  0  0  0  0
 28 25  1  0  0  0  0
 28 24  2  0  0  0  0
 29 26  1  0  0  0  0
 30 23  1  0  0  0  0
 30 29  1  0  0  0  0
 31 29  2  0  0  0  0
M  END
>  <MODEL>
8

>  <REMARK>
 VINA RESULT:      -7.7      4.607      7.716
  Name = 
  3 active torsions:
  status: ('A' for Active; 'I' for Inactive)
    1  A    between atoms: C_5  and  N_16
    2  A    between atoms: C_5  and  C_30
    3  A    between atoms: C_10  and  N_16
                            x       y       z     vdW  Elec       q    Type
                         _______ _______ _______ _____ _____    ______ ____

>  <TORSDO>
F 3

$$$$
=
 OpenBabel11122410593D

 31 35  0  0  1  0  0  0  0  0999 V2000
  189.3110  177.3350  137.2860 C   0  0  0  0  0  0  0  0  0  0  0  0
  185.7880  178.2660  138.2150 N   0  0  0  0  0  0  0  0  0  0  0  0
  184.8620  177.3670  137.5580 C   0  0  0  0  0  0  0  0  0  0  0  0
  184.3920  175.5030  136.0640 C   0  0  0  0  0  0  0  0  0  0  0  0
  187.1970  177.9690  138.2960 C   0  0  0  0  0  0  0  0  0  0  0  0
  189.9370  177.4280  138.5330 C   0  0  0  0  0  3  0  0  0  0  0  0
  185.2960  176.4070  136.6280 C   0  0  0  0  0  3  0  0  0  0  0  0
  185.6840  178.6730  140.6190 C   0  0  2  0  0  3  0  0  0  0  0  0
  190.2370  176.8780  135.8740 Cl  0  0  0  0  0  0  0  0  0  0  0  0
  183.0510  178.3470  138.8290 O   0  0  0  0  0  0  0  0  0  0  0  0
  184.9510  174.3160  134.9070 Cl  0  0  0  0  0  0  0  0  0  0  0  0
  187.0990  178.4640  140.6750 O   0  0  0  0  0  0  0  0  0  0  0  0
  185.3010  179.2080  139.2370 C   0  0  2  0  0  3  0  0  0  0  0  0
  187.9450  177.6090  137.1660 C   0  0  0  0  0  3  0  0  0  0  0  0
  183.0460  175.5360  136.4370 C   0  0  0  0  0  3  0  0  0  0  0  0
  187.8350  178.0690  139.5480 C   0  0  0  0  0  0  0  0  0  0  0  0
  189.2000  177.7970  139.6630 C   0  0  0  0  0  3  0  0  0  0  0  0
  183.8070  179.5220  139.0920 C   0  0  0  0  0  2  0  0  0  0  0  0
  183.5020  177.4010  137.9110 C   0  0  0  0  0  0  0  0  0  0  0  0
  182.6030  176.4830  137.3620 C   0  0  0  0  0  3  0  0  0  0  0  0
  185.2840  179.6040  141.6630 N   0  0  0  0  0  2  0  0  0  0  0  0
  183.9630  177.5730  141.9320 C   0  0  0  0  0  1  0  0  0  0  0  0
  184.3810  178.8920  142.5570 C   0  0  1  0  0  3  0  0  0  0  0  0
  186.2080  178.1850  146.3620 C   0  0  0  0  0  0  0  0  0  0  0  0
  186.3070  178.1490  143.9580 C   0  0  0  0  0  3  0  0  0  0  0  0
  183.0790  179.4460  145.0960 F   0  0  0  0  0  0  0  0  0  0  0  0
  186.8060  177.9370  147.6280 N   0  0  0  0  0  1  0  0  0  0  0  0
  186.9100  177.9020  145.1910 C   0  0  0  0  0  3  0  0  0  0  0  0
  184.3400  178.9470  145.1050 C   0  0  0  0  0  0  0  0  0  0  0  0
  185.0150  178.6770  143.9010 C   0  0  0  0  0  0  0  0  0  0  0  0
  184.9490  178.6960  146.2960 N   0  0  0  0  0  0  0  0  0  0  0  0
  1  6  1  0  0  0  0
  2  5  1  0  0  0  0
  2 13  1  0  0  0  0
  3 19  1  0  0  0  0
  3  2  1  0  0  0  0
  4 15  2  0  0  0  0
  4  7  1  0  0  0  0
  5 16  2  0  0  0  0
  6 17  2  0  0  0  0
  7  3  2  0  0  0  0
  8 12  1  0  0  0  0
  8 21  1  1  0  0  0
  9  1  1  0  0  0  0
 10 18  1  0  0  0  0
 11  4  1  0  0  0  0
 13 18  1  1  0  0  0
 13  8  1  0  0  0  0
 14  1  2  0  0  0  0
 14  5  1  0  0  0  0
 15 20  1  0  0  0  0
 16 17  1  0  0  0  0
 16 12  1  0  0  0  0
 19 10  1  0  0  0  0
 20 19  2  0  0  0  0
 21 23  1  0  0  0  0
 23 22  1  6  0  0  0
 23 30  1  0  0  0  0
 24 27  1  0  0  0  0
 25 28  1  0  0  0  0
 26 29  1  0  0  0  0
 28 24  2  0  0  0  0
 29 31  2  0  0  0  0
 30 25  2  0  0  0  0
 30 29  1  0  0  0  0
 31 24  1  0  0  0  0
M  END
>  <MODEL>
9

>  <REMARK>
 VINA RESULT:      -7.6      3.159      4.904
  Name = 
  3 active torsions:
  status: ('A' for Active; 'I' for Inactive)
    1  A    between atoms: C_5  and  N_16
    2  A    between atoms: C_5  and  C_30
    3  A    between atoms: C_10  and  N_16
                            x       y       z     vdW  Elec       q    Type
                         _______ _______ _______ _____ _____    ______ ____

>  <TORSDO>
F 3

$$$$
