=
 OpenBabel11122410453D

 32 37  0  0  1  0  0  0  0  0999 V2000
  189.3720  176.6760  147.3150 C   0  0  0  0  0  2  0  0  0  0  0  0
  189.0460  178.0670  141.9820 C   0  0  2  0  0  3  0  0  0  0  0  0
  193.1490  176.9730  139.6760 C   0  0  0  0  0  2  0  0  0  0  0  0
  192.3510  176.7220  138.4120 C   0  0  0  0  0  3  0  0  0  0  0  0
  186.9040  178.4880  140.6620 C   0  0  0  0  0  0  0  0  0  0  0  0
  186.1400  178.2830  139.4360 C   0  0  0  0  0  0  0  0  0  0  0  0
  189.0740  178.0210  144.5100 C   0  0  2  0  0  3  0  0  0  0  0  0
  191.0100  177.2140  143.3100 C   0  0  0  0  0  2  0  0  0  0  0  0
  185.7290  177.8820  137.3020 C   0  0  0  0  0  0  0  0  0  0  0  0
  191.1020  177.4170  145.5970 C   0  0  0  0  0  2  0  0  0  0  0  0
  192.2820  177.5060  140.8310 C   0  0  0  0  0  2  0  0  0  0  0  0
  190.1770  177.0290  142.0400 C   0  0  2  0  0  3  0  0  0  0  0  0
  190.9660  176.8590  140.7940 N   0  0  1  0  0  0  0  0  0  0  0  0
  188.7890  177.1500  139.6140 C   0  0  2  0  0  3  0  0  0  0  0  0
  184.6080  178.3750  137.7120 N   0  0  0  0  0  0  0  0  0  0  0  0
  188.7760  177.9600  146.9710 N   0  0  0  0  0  2  0  0  0  0  0  0
  190.1940  177.0510  144.5150 N   0  0  1  0  0  0  0  0  0  0  0  0
  184.7300  178.6830  139.1370 C   0  0  0  0  0  2  0  0  0  0  0  0
  188.1180  177.7800  145.6860 C   0  0  0  0  0  2  0  0  0  0  0  0
  190.8310  176.5990  146.8620 C   0  0  1  0  0  3  0  0  0  0  0  0
  191.0160  176.8690  138.3710 C   0  0  0  0  0  3  0  0  0  0  0  0
  190.3030  177.3810  139.5940 C   0  0  2  0  0  3  0  0  0  0  0  0
  188.1760  177.5700  138.2560 C   0  0  0  0  0  2  0  0  0  0  0  0
  188.2200  177.8640  143.2500 C   0  0  0  0  0  2  0  0  0  0  0  0
  186.4210  179.1900  141.5910 O   0  0  0  0  0  0  0  0  0  0  0  0
  185.9580  177.5060  135.9480 N   0  0  0  0  0  1  0  0  0  0  0  0
  188.2240  177.8990  140.7640 N   0  0  0  0  0  0  0  0  0  0  0  0
  186.7050  177.7920  138.3630 C   0  0  0  0  0  0  0  0  0  0  0  0
  191.6960  177.0580  147.9380 N   0  0  0  0  0  2  0  0  0  0  0  0
  192.8250  176.3110  148.3930 C   0  0  0  0  0  0  0  0  0  0  0  0
  193.1030  175.1920  147.8830 O   0  0  0  0  0  0  0  0  0  0  0  0
  193.6200  176.8190  149.4110 O   0  0  0  0  0  1  0  0  0  0  0  0
  2 12  1  0  0  0  0
  2 24  1  1  0  0  0
  3 11  1  0  0  0  0
  4  3  1  0  0  0  0
  5 27  1  0  0  0  0
  5 25  2  0  0  0  0
  6  5  1  0  0  0  0
  7 24  1  6  0  0  0
  7 17  1  0  0  0  0
  7 19  1  0  0  0  0
  9 15  2  0  0  0  0
  9 28  1  0  0  0  0
 10 20  1  0  0  0  0
 12  8  1  1  0  0  0
 13 11  1  1  0  0  0
 13 12  1  0  0  0  0
 14 23  1  6  0  0  0
 14 27  1  0  0  0  0
 15 18  1  0  0  0  0
 16  1  1  0  0  0  0
 17  8  1  6  0  0  0
 17 10  1  0  0  0  0
 18  6  1  0  0  0  0
 19 16  1  0  0  0  0
 20  1  1  0  0  0  0
 20 29  1  1  0  0  0
 21  4  2  0  0  0  0
 22 21  1  6  0  0  0
 22 14  1  0  0  0  0
 22 13  1  0  0  0  0
 23 28  1  0  0  0  0
 26  9  1  0  0  0  0
 27  2  1  0  0  0  0
 28  6  2  0  0  0  0
 29 30  1  0  0  0  0
 30 32  1  0  0  0  0
 31 30  2  0  0  0  0
M  END
>  <MODEL>
1

>  <REMARK>
 VINA RESULT:      -9.5      0.000      0.000
  Name = 
  1 active torsions:
  status: ('A' for Active; 'I' for Inactive)
    1  A    between atoms: C_20  and  N_29
                            x       y       z     vdW  Elec       q    Type
                         _______ _______ _______ _____ _____    ______ ____

>  <TORSDO>
F 1

$$$$
=
 OpenBabel11122410453D

 32 37  0  0  1  0  0  0  0  0999 V2000
  188.4050  176.6300  148.0340 C   0  0  0  0  0  2  0  0  0  0  0  0
  185.7880  178.7280  143.6490 C   0  0  2  0  0  3  0  0  0  0  0  0
  188.5440  178.3980  139.6940 C   0  0  0  0  0  2  0  0  0  0  0  0
  187.2900  178.2510  138.8540 C   0  0  0  0  0  3  0  0  0  0  0  0
  183.2750  179.1140  143.4350 C   0  0  0  0  0  0  0  0  0  0  0  0
  182.0670  179.0100  142.6230 C   0  0  0  0  0  0  0  0  0  0  0  0
  186.8950  178.3240  145.8870 C   0  0  2  0  0  3  0  0  0  0  0  0
  188.1570  177.8990  143.8700 C   0  0  0  0  0  2  0  0  0  0  0  0
  180.7960  178.8790  140.8200 C   0  0  0  0  0  0  0  0  0  0  0  0
  189.2110  177.7800  145.9080 C   0  0  0  0  0  2  0  0  0  0  0  0
  188.2370  178.6690  141.1780 C   0  0  0  0  0  2  0  0  0  0  0  0
  186.8670  177.8130  143.0510 C   0  0  2  0  0  3  0  0  0  0  0  0
  187.0530  177.9040  141.5810 N   0  0  1  0  0  0  0  0  0  0  0  0
  184.5730  178.1380  141.4840 C   0  0  2  0  0  3  0  0  0  0  0  0
  179.9430  179.1920  141.7380 N   0  0  0  0  0  0  0  0  0  0  0  0
  187.6800  177.8820  148.1970 N   0  0  0  0  0  2  0  0  0  0  0  0
  187.9390  177.4830  145.2570 N   0  0  1  0  0  0  0  0  0  0  0  0
  180.6530  179.3030  143.0120 C   0  0  0  0  0  2  0  0  0  0  0  0
  186.5410  177.8220  147.2920 C   0  0  0  0  0  2  0  0  0  0  0  0
  189.5310  176.7670  147.0090 C   0  0  1  0  0  3  0  0  0  0  0  0
  186.0630  178.2660  139.3990 C   0  0  0  0  0  3  0  0  0  0  0  0
  185.9240  178.5220  140.8760 C   0  0  2  0  0  3  0  0  0  0  0  0
  183.4250  178.6840  140.6000 C   0  0  0  0  0  2  0  0  0  0  0  0
  185.5890  178.2640  145.0900 C   0  0  0  0  0  2  0  0  0  0  0  0
  183.2130  179.6240  144.5870 O   0  0  0  0  0  0  0  0  0  0  0  0
  180.4360  178.7250  139.4510 N   0  0  0  0  0  1  0  0  0  0  0  0
  184.5300  178.6540  142.8750 N   0  0  0  0  0  0  0  0  0  0  0  0
  182.1340  178.7380  141.3450 C   0  0  0  0  0  0  0  0  0  0  0  0
  190.7590  177.1530  147.6890 N   0  0  0  0  0  2  0  0  0  0  0  0
  191.8510  176.2520  147.8810 C   0  0  0  0  0  0  0  0  0  0  0  0
  191.7790  175.0590  147.4800 O   0  0  0  0  0  0  0  0  0  0  0  0
  193.0010  176.6940  148.5200 O   0  0  0  0  0  1  0  0  0  0  0  0
  1 16  1  0  0  0  0
  2 24  1  1  0  0  0
  3 11  1  0  0  0  0
  4 21  2  0  0  0  0
  4  3  1  0  0  0  0
  5 25  2  0  0  0  0
  6 18  1  0  0  0  0
  6  5  1  0  0  0  0
  7 24  1  6  0  0  0
  7 19  1  0  0  0  0
  9 28  1  0  0  0  0
  9 15  2  0  0  0  0
 10 20  1  0  0  0  0
 12  2  1  0  0  0  0
 12  8  1  1  0  0  0
 13 11  1  1  0  0  0
 13 12  1  0  0  0  0
 14 23  1  6  0  0  0
 14 27  1  0  0  0  0
 15 18  1  0  0  0  0
 17  8  1  6  0  0  0
 17  7  1  0  0  0  0
 17 10  1  0  0  0  0
 19 16  1  0  0  0  0
 20 29  1  1  0  0  0
 20  1  1  0  0  0  0
 22 21  1  6  0  0  0
 22 14  1  0  0  0  0
 22 13  1  0  0  0  0
 23 28  1  0  0  0  0
 26  9  1  0  0  0  0
 27  5  1  0  0  0  0
 27  2  1  0  0  0  0
 28  6  2  0  0  0  0
 29 30  1  0  0  0  0
 30 32  1  0  0  0  0
 31 30  2  0  0  0  0
M  END
>  <MODEL>
2

>  <REMARK>
 VINA RESULT:      -9.3      2.817      4.092
  Name = 
  1 active torsions:
  status: ('A' for Active; 'I' for Inactive)
    1  A    between atoms: C_20  and  N_29
                            x       y       z     vdW  Elec       q    Type
                         _______ _______ _______ _____ _____    ______ ____

>  <TORSDO>
F 1

$$$$
=
 OpenBabel11122410453D

 32 37  0  0  1  0  0  0  0  0999 V2000
  189.8820  177.8770  136.9510 C   0  0  0  0  0  2  0  0  0  0  0  0
  188.4030  176.9580  142.1900 C   0  0  2  0  0  3  0  0  0  0  0  0
  192.2130  175.5870  144.8260 C   0  0  0  0  0  2  0  0  0  0  0  0
  191.5930  176.2540  146.0390 C   0  0  0  0  0  3  0  0  0  0  0  0
  186.2930  177.8220  143.3360 C   0  0  0  0  0  0  0  0  0  0  0  0
  185.6780  178.4320  144.5100 C   0  0  0  0  0  0  0  0  0  0  0  0
  188.6560  176.9570  139.6740 C   0  0  2  0  0  3  0  0  0  0  0  0
  190.6080  176.5510  141.0410 C   0  0  0  0  0  2  0  0  0  0  0  0
  185.3900  179.0150  146.6220 C   0  0  0  0  0  0  0  0  0  0  0  0
  190.7560  176.3100  138.7610 C   0  0  0  0  0  2  0  0  0  0  0  0
  191.2930  175.6210  143.5930 C   0  0  0  0  0  2  0  0  0  0  0  0
  189.9210  177.1840  142.2540 C   0  0  2  0  0  3  0  0  0  0  0  0
  190.5670  176.8940  143.5590 N   0  0  1  0  0  0  0  0  0  0  0  0
  188.5120  177.8840  144.5670 C   0  0  2  0  0  3  0  0  0  0  0  0
  184.2230  179.2310  146.1140 N   0  0  0  0  0  0  0  0  0  0  0  0
  188.6440  177.1510  137.2020 N   0  0  0  0  0  2  0  0  0  0  0  0
  190.1230  177.1320  139.7870 N   0  0  1  0  0  0  0  0  0  0  0  0
  184.2670  178.8940  144.6910 C   0  0  0  0  0  3  0  0  0  0  0  0
  188.0980  177.6810  138.4430 C   0  0  0  0  0  2  0  0  0  0  0  0
  191.0910  177.1280  137.5110 C   0  0  1  0  0  3  0  0  0  0  0  0
  190.4060  176.8810  145.9770 C   0  0  0  0  0  3  0  0  0  0  0  0
  189.6300  176.8450  144.6870 C   0  0  2  0  0  3  0  0  0  0  0  0
  187.6620  177.8930  145.8600 C   0  0  0  0  0  2  0  0  0  0  0  0
  187.9370  177.5770  140.8750 C   0  0  0  0  0  2  0  0  0  0  0  0
  185.5770  177.5030  142.3490 O   0  0  0  0  0  0  0  0  0  0  0  0
  185.6800  179.2110  148.0020 N   0  0  0  0  0  1  0  0  0  0  0  0
  187.7200  177.5690  143.3510 N   0  0  0  0  0  0  0  0  0  0  0  0
  186.3320  178.5320  145.6390 C   0  0  1  0  0  3  0  0  0  0  0  0
  191.6350  176.2530  136.4840 N   0  0  0  0  0  2  0  0  0  0  0  0
  193.0350  176.0030  136.3440 C   0  0  0  0  0  0  0  0  0  0  0  0
  193.8670  176.5630  137.1070 O   0  0  0  0  0  1  0  0  0  0  0  0
  193.4830  175.1390  135.3540 O   0  0  0  0  0  0  0  0  0  0  0  0
  1 16  1  0  0  0  0
  1 20  1  0  0  0  0
  2 24  1  6  0  0  0
  2 12  1  0  0  0  0
  2 27  1  0  0  0  0
  3  4  1  0  0  0  0
  5 27  1  0  0  0  0
  5  6  1  0  0  0  0
  6 18  2  0  0  0  0
  6 28  1  0  0  0  0
  7 19  1  6  0  0  0
  7 17  1  0  0  0  0
  7 24  1  0  0  0  0
  9 26  1  0  0  0  0
 11  3  1  0  0  0  0
 12  8  1  6  0  0  0
 12 13  1  0  0  0  0
 13 11  1  6  0  0  0
 13 22  1  0  0  0  0
 14 22  1  0  0  0  0
 14 23  1  1  0  0  0
 15  9  2  0  0  0  0
 16 19  1  0  0  0  0
 17 10  1  6  0  0  0
 17  8  1  0  0  0  0
 18 15  1  0  0  0  0
 20 29  1  6  0  0  0
 20 10  1  0  0  0  0
 21  4  2  0  0  0  0
 22 21  1  1  0  0  0
 25  5  2  0  0  0  0
 27 14  1  0  0  0  0
 28 23  1  1  0  0  0
 28  9  1  0  0  0  0
 30 29  1  0  0  0  0
 30 31  1  0  0  0  0
 32 30  2  0  0  0  0
M  END
>  <MODEL>
3

>  <REMARK>
 VINA RESULT:      -8.6      3.273      7.426
  Name = 
  1 active torsions:
  status: ('A' for Active; 'I' for Inactive)
    1  A    between atoms: C_20  and  N_29
                            x       y       z     vdW  Elec       q    Type
                         _______ _______ _______ _____ _____    ______ ____

>  <TORSDO>
F 1

$$$$
=
 OpenBabel11122410453D

 32 37  0  0  1  0  0  0  0  0999 V2000
  181.5570  178.3860  141.2390 C   0  0  0  0  0  2  0  0  0  0  0  0
  187.0770  178.4460  141.1380 C   0  0  2  0  0  3  0  0  0  0  0  0
  188.8760  177.7110  145.5620 C   0  0  0  0  0  2  0  0  0  0  0  0
  190.0780  177.0260  144.9410 C   0  0  0  0  0  3  0  0  0  0  0  0
  188.5520  178.1180  139.0820 C   0  0  0  0  0  0  0  0  0  0  0  0
  189.7260  177.4930  138.4820 C   0  0  0  0  0  0  0  0  0  0  0  0
  184.6120  178.9760  140.9480 C   0  0  2  0  0  3  0  0  0  0  0  0
  185.5010  178.3280  143.1000 C   0  0  0  0  0  2  0  0  0  0  0  0
  191.7180  176.5480  138.3440 C   0  0  0  0  0  0  0  0  0  0  0  0
  183.3260  179.0540  142.9480 C   0  0  0  0  0  2  0  0  0  0  0  0
  187.9200  178.3040  144.5110 C   0  0  0  0  0  2  0  0  0  0  0  0
  186.7250  177.6970  142.4320 C   0  0  2  0  0  3  0  0  0  0  0  0
  187.8590  177.4140  143.3480 N   0  0  1  0  0  0  0  0  0  0  0  0
  189.1680  176.9870  141.2690 C   0  0  2  0  0  3  0  0  0  0  0  0
  191.4860  176.8840  137.1190 N   0  0  0  0  0  0  0  0  0  0  0  0
  182.2230  179.4130  140.4480 N   0  0  0  0  0  2  0  0  0  0  0  0
  184.3280  178.2790  142.2240 N   0  0  1  0  0  0  0  0  0  0  0  0
  190.1720  177.5220  137.0550 C   0  0  0  0  0  3  0  0  0  0  0  0
  183.4560  178.8190  139.9530 C   0  0  0  0  0  2  0  0  0  0  0  0
  181.9160  178.5040  142.7210 C   0  0  1  0  0  3  0  0  0  0  0  0
  190.2100  176.8880  143.6120 C   0  0  0  0  0  3  0  0  0  0  0  0
  189.1760  177.5070  142.7090 C   0  0  2  0  0  3  0  0  0  0  0  0
  190.6110  176.9580  140.7120 C   0  0  0  0  0  2  0  0  0  0  0  0
  185.8350  178.3710  140.2540 C   0  0  0  0  0  2  0  0  0  0  0  0
  187.8390  178.8990  138.3960 O   0  0  0  0  0  0  0  0  0  0  0  0
  192.9320  175.9300  138.7600 N   0  0  0  0  0  1  0  0  0  0  0  0
  188.2550  177.8460  140.4740 N   0  0  0  0  0  0  0  0  0  0  0  0
  190.6250  176.8970  139.2220 C   0  0  1  0  0  3  0  0  0  0  0  0
  180.9430  179.3580  143.3860 N   0  0  0  0  0  2  0  0  0  0  0  0
  179.8110  178.8400  144.0860 C   0  0  0  0  0  0  0  0  0  0  0  0
  179.5970  177.5990  144.1330 O   0  0  0  0  0  0  0  0  0  0  0  0
  178.9340  179.7120  144.7170 O   0  0  0  0  0  1  0  0  0  0  0  0
  1 20  1  0  0  0  0
  2 24  1  6  0  0  0
  2 12  1  0  0  0  0
  4  3  1  0  0  0  0
  5 27  1  0  0  0  0
  6  5  1  0  0  0  0
  6 28  1  0  0  0  0
  7 19  1  6  0  0  0
  7 17  1  0  0  0  0
  9 26  1  0  0  0  0
  9 28  1  0  0  0  0
 11  3  1  0  0  0  0
 12  8  1  1  0  0  0
 12 13  1  0  0  0  0
 13 11  1  1  0  0  0
 14 23  1  6  0  0  0
 14 22  1  0  0  0  0
 15  9  2  0  0  0  0
 16  1  1  0  0  0  0
 17 10  1  1  0  0  0
 17  8  1  0  0  0  0
 18 15  1  0  0  0  0
 18  6  2  0  0  0  0
 19 16  1  0  0  0  0
 20 10  1  0  0  0  0
 20 29  1  1  0  0  0
 21  4  2  0  0  0  0
 22 13  1  0  0  0  0
 22 21  1  1  0  0  0
 24  7  1  0  0  0  0
 25  5  2  0  0  0  0
 27  2  1  0  0  0  0
 27 14  1  0  0  0  0
 28 23  1  1  0  0  0
 29 30  1  0  0  0  0
 30 31  2  0  0  0  0
 30 32  1  0  0  0  0
M  END
>  <MODEL>
4

>  <REMARK>
 VINA RESULT:      -8.6      3.844      7.447
  Name = 
  1 active torsions:
  status: ('A' for Active; 'I' for Inactive)
    1  A    between atoms: C_20  and  N_29
                            x       y       z     vdW  Elec       q    Type
                         _______ _______ _______ _____ _____    ______ ____

>  <TORSDO>
F 1

$$$$
=
 OpenBabel11122410453D

 32 37  0  0  1  0  0  0  0  0999 V2000
  188.6600  178.8080  137.3660 C   0  0  0  0  0  2  0  0  0  0  0  0
  184.8210  178.0220  141.2550 C   0  0  2  0  0  3  0  0  0  0  0  0
  186.8520  177.7390  145.6300 C   0  0  0  0  0  2  0  0  0  0  0  0
  185.6020  178.3510  146.2310 C   0  0  0  0  0  3  0  0  0  0  0  0
  182.3240  178.4940  141.0270 C   0  0  0  0  0  0  0  0  0  0  0  0
  181.1060  179.0480  141.6090 C   0  0  0  0  0  0  0  0  0  0  0  0
  186.3450  177.8700  139.2420 C   0  0  2  0  0  3  0  0  0  0  0  0
  187.3330  178.0140  141.4430 C   0  0  0  0  0  2  0  0  0  0  0  0
  179.6790  179.7250  143.1540 C   0  0  0  0  0  0  0  0  0  0  0  0
  188.6810  177.6250  139.6230 C   0  0  0  0  0  2  0  0  0  0  0  0
  186.7160  177.4690  144.1210 C   0  0  0  0  0  2  0  0  0  0  0  0
  186.0320  178.5780  142.0180 C   0  0  2  0  0  3  0  0  0  0  0  0
  185.9380  178.5450  143.4990 N   0  0  1  0  0  0  0  0  0  0  0  0
  183.5410  179.1410  143.1590 C   0  0  2  0  0  3  0  0  0  0  0  0
  178.9310  179.6380  142.1060 N   0  0  0  0  0  0  0  0  0  0  0  0
  187.5940  177.8520  137.1000 N   0  0  0  0  0  2  0  0  0  0  0  0
  187.4940  178.3700  140.0320 N   0  0  1  0  0  0  0  0  0  0  0  0
  179.7580  179.2040  140.9800 C   0  0  0  0  0  3  0  0  0  0  0  0
  186.4110  178.3500  137.7870 C   0  0  0  0  0  2  0  0  0  0  0  0
  189.4950  178.3910  138.5770 C   0  0  1  0  0  3  0  0  0  0  0  0
  184.5450  178.6950  145.4770 C   0  0  0  0  0  3  0  0  0  0  0  0
  184.5690  178.3850  144.0040 C   0  0  2  0  0  3  0  0  0  0  0  0
  182.1500  179.0690  143.8350 C   0  0  0  0  0  2  0  0  0  0  0  0
  185.0240  178.4140  139.7930 C   0  0  0  0  0  2  0  0  0  0  0  0
  182.2820  177.9460  139.8920 O   0  0  0  0  0  0  0  0  0  0  0  0
  179.1760  180.0930  144.4340 N   0  0  0  0  0  1  0  0  0  0  0  0
  183.5530  178.5620  141.7910 N   0  0  0  0  0  0  0  0  0  0  0  0
  181.0540  179.3820  142.8730 C   0  0  1  0  0  3  0  0  0  0  0  0
  190.6150  177.5750  138.1340 N   0  0  0  0  0  2  0  0  0  0  0  0
  191.6600  177.1540  139.0120 C   0  0  0  0  0  0  0  0  0  0  0  0
  191.6600  177.5020  140.2240 O   0  0  0  0  0  1  0  0  0  0  0  0
  192.6870  176.3580  138.5260 O   0  0  0  0  0  0  0  0  0  0  0  0
  1 20  1  0  0  0  0
  2 24  1  6  0  0  0
  2 27  1  0  0  0  0
  2 12  1  0  0  0  0
  3  4  1  0  0  0  0
  5  6  1  0  0  0  0
  5 27  1  0  0  0  0
  6 28  1  0  0  0  0
  7 19  1  6  0  0  0
  7 24  1  0  0  0  0
  7 17  1  0  0  0  0
  9 26  1  0  0  0  0
 11  3  1  0  0  0  0
 12  8  1  1  0  0  0
 12 13  1  0  0  0  0
 13 22  1  0  0  0  0
 13 11  1  6  0  0  0
 14 23  1  1  0  0  0
 14 22  1  0  0  0  0
 15  9  2  0  0  0  0
 16  1  1  0  0  0  0
 16 19  1  0  0  0  0
 17 10  1  6  0  0  0
 17  8  1  0  0  0  0
 18  6  2  0  0  0  0
 18 15  1  0  0  0  0
 20 29  1  6  0  0  0
 20 10  1  0  0  0  0
 21  4  2  0  0  0  0
 22 21  1  1  0  0  0
 25  5  2  0  0  0  0
 27 14  1  0  0  0  0
 28  9  1  0  0  0  0
 28 23  1  1  0  0  0
 29 30  1  0  0  0  0
 30 31  1  0  0  0  0
 32 30  2  0  0  0  0
M  END
>  <MODEL>
5

>  <REMARK>
 VINA RESULT:      -8.5      4.014      7.617
  Name = 
  1 active torsions:
  status: ('A' for Active; 'I' for Inactive)
    1  A    between atoms: C_20  and  N_29
                            x       y       z     vdW  Elec       q    Type
                         _______ _______ _______ _____ _____    ______ ____

>  <TORSDO>
F 1

$$$$
=
 OpenBabel11122410453D

 32 37  0  0  1  0  0  0  0  0999 V2000
  181.7880  178.1500  138.0660 C   0  0  0  0  0  2  0  0  0  0  0  0
  185.9240  178.6930  141.6830 C   0  0  2  0  0  3  0  0  0  0  0  0
  184.2310  178.8540  146.2050 C   0  0  0  0  0  2  0  0  0  0  0  0
  185.5060  178.1900  146.6880 C   0  0  0  0  0  3  0  0  0  0  0  0
  188.3840  178.1720  141.2510 C   0  0  0  0  0  0  0  0  0  0  0  0
  189.6270  177.5670  141.7190 C   0  0  0  0  0  0  0  0  0  0  0  0
  184.2610  178.9600  139.7970 C   0  0  2  0  0  3  0  0  0  0  0  0
  183.4340  178.7530  142.0590 C   0  0  0  0  0  2  0  0  0  0  0  0
  191.1460  176.7970  143.1270 C   0  0  0  0  0  0  0  0  0  0  0  0
  181.9660  179.2440  140.3610 C   0  0  0  0  0  2  0  0  0  0  0  0
  184.2620  179.1790  144.7010 C   0  0  0  0  0  2  0  0  0  0  0  0
  184.7590  178.1360  142.5140 C   0  0  2  0  0  3  0  0  0  0  0  0
  184.9640  178.1100  143.9840 N   0  0  1  0  0  0  0  0  0  0  0  0
  187.3120  177.4710  143.4420 C   0  0  2  0  0  3  0  0  0  0  0  0
  191.8170  176.9070  142.0290 N   0  0  0  0  0  0  0  0  0  0  0  0
  182.8570  179.0900  137.7570 N   0  0  0  0  0  2  0  0  0  0  0  0
  183.1600  178.4560  140.6520 N   0  0  1  0  0  0  0  0  0  0  0  0
  190.9200  177.4040  140.9860 C   0  0  0  0  0  3  0  0  0  0  0  0
  184.0740  178.5380  138.3350 C   0  0  0  0  0  2  0  0  0  0  0  0
  181.0570  178.5390  139.3520 C   0  0  1  0  0  3  0  0  0  0  0  0
  186.4940  177.8500  145.8440 C   0  0  0  0  0  3  0  0  0  0  0  0
  186.3690  178.2170  144.3900 C   0  0  2  0  0  3  0  0  0  0  0  0
  188.7500  177.4840  144.0150 C   0  0  0  0  0  2  0  0  0  0  0  0
  185.6030  178.3640  140.2270 C   0  0  0  0  0  2  0  0  0  0  0  0
  188.3560  178.7630  140.1370 O   0  0  0  0  0  0  0  0  0  0  0  0
  191.7330  176.3680  144.3510 N   0  0  0  0  0  1  0  0  0  0  0  0
  187.2140  178.1040  142.1020 N   0  0  0  0  0  0  0  0  0  0  0  0
  189.7640  177.1830  142.9620 C   0  0  1  0  0  3  0  0  0  0  0  0
  179.9290  179.3980  139.0240 N   0  0  0  0  0  2  0  0  0  0  0  0
  180.0470  180.8170  138.9080 C   0  0  0  0  0  0  0  0  0  0  0  0
  181.1510  181.3890  139.1130 O   0  0  0  0  0  1  0  0  0  0  0  0
  178.9340  181.5740  138.5700 O   0  0  0  0  0  0  0  0  0  0  0  0
  1 20  1  0  0  0  0
  2 24  1  6  0  0  0
  2 27  1  0  0  0  0
  2 12  1  0  0  0  0
  3  4  1  0  0  0  0
  5  6  1  0  0  0  0
  5 27  1  0  0  0  0
  6 28  1  0  0  0  0
  7 19  1  6  0  0  0
  7 24  1  0  0  0  0
  7 17  1  0  0  0  0
  9 26  1  0  0  0  0
 11  3  1  0  0  0  0
 12  8  1  1  0  0  0
 12 13  1  0  0  0  0
 13 22  1  0  0  0  0
 13 11  1  1  0  0  0
 14 23  1  1  0  0  0
 14 22  1  0  0  0  0
 15  9  2  0  0  0  0
 16  1  1  0  0  0  0
 16 19  1  0  0  0  0
 17 10  1  6  0  0  0
 17  8  1  0  0  0  0
 18  6  2  0  0  0  0
 18 15  1  0  0  0  0
 20 29  1  6  0  0  0
 20 10  1  0  0  0  0
 21  4  2  0  0  0  0
 22 21  1  1  0  0  0
 25  5  2  0  0  0  0
 27 14  1  0  0  0  0
 28  9  1  0  0  0  0
 28 23  1  1  0  0  0
 30 29  1  0  0  0  0
 30 31  1  0  0  0  0
 32 30  2  0  0  0  0
M  END
>  <MODEL>
6

>  <REMARK>
 VINA RESULT:      -8.5      3.530      9.413
  Name = 
  1 active torsions:
  status: ('A' for Active; 'I' for Inactive)
    1  A    between atoms: C_20  and  N_29
                            x       y       z     vdW  Elec       q    Type
                         _______ _______ _______ _____ _____    ______ ____

>  <TORSDO>
F 1

$$$$
=
 OpenBabel11122410453D

 32 37  0  0  1  0  0  0  0  0999 V2000
  180.7400  180.1280  141.0200 C   0  0  0  0  0  2  0  0  0  0  0  0
  185.7400  177.9220  141.8030 C   0  0  2  0  0  3  0  0  0  0  0  0
  188.3100  178.0140  137.7120 C   0  0  0  0  0  2  0  0  0  0  0  0
  189.5770  178.1610  138.5320 C   0  0  0  0  0  3  0  0  0  0  0  0
  186.9100  177.5950  144.0470 C   0  0  0  0  0  0  0  0  0  0  0  0
  188.1320  177.6980  144.8380 C   0  0  0  0  0  0  0  0  0  0  0  0
  183.2600  178.3880  141.6410 C   0  0  2  0  0  3  0  0  0  0  0  0
  184.6330  178.6950  139.6760 C   0  0  0  0  0  2  0  0  0  0  0  0
  190.2920  177.7890  145.2980 C   0  0  0  0  0  0  0  0  0  0  0  0
  182.3490  178.8690  139.4970 C   0  0  0  0  0  2  0  0  0  0  0  0
  187.0570  177.8130  138.5840 C   0  0  0  0  0  2  0  0  0  0  0  0
  185.8940  178.7820  140.5400 C   0  0  2  0  0  3  0  0  0  0  0  0
  187.1710  178.6260  139.7990 N   0  0  1  0  0  0  0  0  0  0  0  0
  188.2240  178.4550  142.0530 C   0  0  2  0  0  3  0  0  0  0  0  0
  189.7730  177.5370  146.4540 N   0  0  0  0  0  0  0  0  0  0  0  0
  180.8400  178.9030  141.8020 N   0  0  0  0  0  2  0  0  0  0  0  0
  183.4540  179.1730  140.4000 N   0  0  1  0  0  0  0  0  0  0  0  0
  188.3190  177.4600  146.3020 C   0  0  0  0  0  2  0  0  0  0  0  0
  182.1190  178.9570  142.4940 C   0  0  0  0  0  2  0  0  0  0  0  0
  181.2390  179.9180  139.5900 C   0  0  1  0  0  3  0  0  0  0  0  0
  189.5550  178.2010  139.8740 C   0  0  0  0  0  3  0  0  0  0  0  0
  188.2440  178.0100  140.5880 C   0  0  2  0  0  3  0  0  0  0  0  0
  189.4710  177.9040  142.7850 C   0  0  0  0  0  2  0  0  0  0  0  0
  184.5050  178.4500  142.5290 C   0  0  0  0  0  2  0  0  0  0  0  0
  185.8610  177.1350  144.5740 O   0  0  0  0  0  0  0  0  0  0  0  0
  191.6960  177.8960  145.0890 N   0  0  0  0  0  1  0  0  0  0  0  0
  186.9460  177.9980  142.6560 N   0  0  0  0  0  0  0  0  0  0  0  0
  189.2890  177.9160  144.2660 C   0  0  0  0  0  0  0  0  0  0  0  0
  180.1230  179.5280  138.7420 N   0  0  0  0  0  2  0  0  0  0  0  0
  180.0120  179.9320  137.3760 C   0  0  0  0  0  0  0  0  0  0  0  0
  180.8850  180.6760  136.8530 O   0  0  0  0  0  1  0  0  0  0  0  0
  178.9310  179.5040  136.6180 O   0  0  0  0  0  0  0  0  0  0  0  0
  1 16  1  0  0  0  0
  2 24  1  1  0  0  0
  2 27  1  0  0  0  0
  3  4  1  0  0  0  0
  3 11  1  0  0  0  0
  4 21  2  0  0  0  0
  5 25  2  0  0  0  0
  5  6  1  0  0  0  0
  6 18  1  0  0  0  0
  7 19  1  1  0  0  0
  7 24  1  0  0  0  0
  8 17  1  0  0  0  0
  9 15  2  0  0  0  0
 10 20  1  0  0  0  0
 12  8  1  6  0  0  0
 12  2  1  0  0  0  0
 13 11  1  6  0  0  0
 13 12  1  0  0  0  0
 13 22  1  0  0  0  0
 14 27  1  0  0  0  0
 14 23  1  1  0  0  0
 16 19  1  0  0  0  0
 17 10  1  6  0  0  0
 17  7  1  0  0  0  0
 18 15  1  0  0  0  0
 20 29  1  6  0  0  0
 20  1  1  0  0  0  0
 22 21  1  6  0  0  0
 22 14  1  0  0  0  0
 23 28  1  0  0  0  0
 26  9  1  0  0  0  0
 27  5  1  0  0  0  0
 28  6  2  0  0  0  0
 28  9  1  0  0  0  0
 30 29  1  0  0  0  0
 31 30  1  0  0  0  0
 32 30  2  0  0  0  0
M  END
>  <MODEL>
7

>  <REMARK>
 VINA RESULT:      -8.4      3.289      8.961
  Name = 
  1 active torsions:
  status: ('A' for Active; 'I' for Inactive)
    1  A    between atoms: C_20  and  N_29
                            x       y       z     vdW  Elec       q    Type
                         _______ _______ _______ _____ _____    ______ ____

>  <TORSDO>
F 1

$$$$
=
 OpenBabel11122410453D

 32 37  0  0  1  0  0  0  0  0999 V2000
  182.3080  180.0980  140.3250 C   0  0  0  0  0  2  0  0  0  0  0  0
  186.7300  177.6360  142.5310 C   0  0  2  0  0  3  0  0  0  0  0  0
  190.2650  177.2230  139.2630 C   0  0  0  0  0  2  0  0  0  0  0  0
  191.2860  177.3510  140.3770 C   0  0  0  0  0  3  0  0  0  0  0  0
  187.2500  177.4170  145.0190 C   0  0  0  0  0  0  0  0  0  0  0  0
  188.2310  177.5030  146.0960 C   0  0  0  0  0  0  0  0  0  0  0  0
  184.4240  178.2510  141.6940 C   0  0  2  0  0  3  0  0  0  0  0  0
  186.2790  178.3050  140.1440 C   0  0  0  0  0  2  0  0  0  0  0  0
  190.1990  177.4880  147.1020 C   0  0  0  0  0  0  0  0  0  0  0  0
  184.1420  178.6150  139.3590 C   0  0  0  0  0  2  0  0  0  0  0  0
  188.8180  177.1770  139.7850 C   0  0  0  0  0  2  0  0  0  0  0  0
  187.2770  178.3780  141.3020 C   0  0  2  0  0  3  0  0  0  0  0  0
  188.6830  178.0780  140.9350 N   0  0  1  0  0  0  0  0  0  0  0  0
  189.1020  178.0220  143.3920 C   0  0  2  0  0  3  0  0  0  0  0  0
  189.3800  177.3670  148.0930 N   0  0  0  0  0  0  0  0  0  0  0  0
  182.0980  178.9380  141.1790 N   0  0  0  0  0  2  0  0  0  0  0  0
  184.9980  178.9190  140.5010 N   0  0  1  0  0  0  0  0  0  0  0  0
  188.0140  177.3740  147.5700 C   0  0  0  0  0  2  0  0  0  0  0  0
  183.1560  178.9630  142.1790 C   0  0  0  0  0  2  0  0  0  0  0  0
  183.1390  179.7400  139.0920 C   0  0  1  0  0  3  0  0  0  0  0  0
  190.9230  177.5030  141.6610 C   0  0  0  0  0  3  0  0  0  0  0  0
  189.4600  177.4580  142.0140 C   0  0  2  0  0  3  0  0  0  0  0  0
  190.0660  177.4510  144.4600 C   0  0  0  0  0  2  0  0  0  0  0  0
  185.4000  178.3040  142.8720 C   0  0  0  0  0  2  0  0  0  0  0  0
  186.0650  177.0730  145.2780 O   0  0  0  0  0  0  0  0  0  0  0  0
  191.6130  177.4840  147.2630 N   0  0  0  0  0  1  0  0  0  0  0  0
  187.6780  177.7020  143.6650 N   0  0  0  0  0  0  0  0  0  0  0  0
  189.5100  177.5960  145.8370 C   0  0  0  0  0  0  0  0  0  0  0  0
  182.2500  179.3570  138.0060 N   0  0  0  0  0  2  0  0  0  0  0  0
  181.3930  180.2890  137.3430 C   0  0  0  0  0  0  0  0  0  0  0  0
  181.3600  181.4970  137.7010 O   0  0  0  0  0  1  0  0  0  0  0  0
  180.5860  179.8590  136.3000 O   0  0  0  0  0  0  0  0  0  0  0  0
  1 16  1  0  0  0  0
  2 24  1  1  0  0  0
  2 27  1  0  0  0  0
  3 11  1  0  0  0  0
  3  4  1  0  0  0  0
  4 21  2  0  0  0  0
  5 25  2  0  0  0  0
  5  6  1  0  0  0  0
  6 18  1  0  0  0  0
  7 19  1  1  0  0  0
  7 24  1  0  0  0  0
  8 17  1  0  0  0  0
  9 26  1  0  0  0  0
  9 15  2  0  0  0  0
 12  8  1  6  0  0  0
 12  2  1  0  0  0  0
 13 11  1  6  0  0  0
 13 12  1  0  0  0  0
 13 22  1  0  0  0  0
 14 27  1  0  0  0  0
 14 23  1  1  0  0  0
 16 19  1  0  0  0  0
 17 10  1  6  0  0  0
 17  7  1  0  0  0  0
 18 15  1  0  0  0  0
 20 29  1  6  0  0  0
 20 10  1  0  0  0  0
 20  1  1  0  0  0  0
 22 21  1  6  0  0  0
 22 14  1  0  0  0  0
 23 28  1  0  0  0  0
 27  5  1  0  0  0  0
 28  6  2  0  0  0  0
 28  9  1  0  0  0  0
 30 31  1  0  0  0  0
 30 29  1  0  0  0  0
 32 30  2  0  0  0  0
M  END
>  <MODEL>
8

>  <REMARK>
 VINA RESULT:      -8.4      2.772      8.724
  Name = 
  1 active torsions:
  status: ('A' for Active; 'I' for Inactive)
    1  A    between atoms: C_20  and  N_29
                            x       y       z     vdW  Elec       q    Type
                         _______ _______ _______ _____ _____    ______ ____

>  <TORSDO>
F 1

$$$$
=
 OpenBabel11122410453D

 32 37  0  0  1  0  0  0  0  0999 V2000
  184.8150  177.4470  137.1890 C   0  0  0  0  0  2  0  0  0  0  0  0
  186.9580  178.4230  142.1830 C   0  0  2  0  0  3  0  0  0  0  0  0
  183.4570  179.0030  145.4620 C   0  0  0  0  0  2  0  0  0  0  0  0
  184.3720  178.4130  146.5170 C   0  0  0  0  0  3  0  0  0  0  0  0
  189.3420  177.9050  142.9280 C   0  0  0  0  0  0  0  0  0  0  0  0
  190.2360  177.3720  143.9510 C   0  0  0  0  0  0  0  0  0  0  0  0
  186.2980  178.4700  139.7420 C   0  0  2  0  0  3  0  0  0  0  0  0
  184.5580  178.4750  141.4190 C   0  0  0  0  0  2  0  0  0  0  0  0
  190.9610  176.7740  145.9510 C   0  0  0  0  0  0  0  0  0  0  0  0
  183.9980  178.7680  139.2100 C   0  0  0  0  0  2  0  0  0  0  0  0
  184.1540  179.1770  144.1010 C   0  0  0  0  0  2  0  0  0  0  0  0
  185.5310  177.9310  142.4670 C   0  0  2  0  0  3  0  0  0  0  0  0
  185.0690  178.0540  143.8720 N   0  0  1  0  0  0  0  0  0  0  0  0
  187.3980  177.4080  144.4830 C   0  0  2  0  0  3  0  0  0  0  0  0
  192.0490  176.7860  145.2550 N   0  0  0  0  0  0  0  0  0  0  0  0
  185.9360  178.3710  137.2910 N   0  0  0  0  0  2  0  0  0  0  0  0
  184.9210  178.0350  140.0700 N   0  0  1  0  0  0  0  0  0  0  0  0
  191.7150  177.1610  143.8800 C   0  0  0  0  0  3  0  0  0  0  0  0
  186.7610  177.9010  138.3950 C   0  0  0  0  0  2  0  0  0  0  0  0
  183.6050  177.9500  137.9780 C   0  0  1  0  0  3  0  0  0  0  0  0
  185.6200  178.0090  146.2320 C   0  0  0  0  0  3  0  0  0  0  0  0
  186.1560  178.2270  144.8420 C   0  0  2  0  0  3  0  0  0  0  0  0
  188.4390  177.5030  145.6250 C   0  0  0  0  0  2  0  0  0  0  0  0
  187.2990  177.9440  140.7740 C   0  0  0  0  0  2  0  0  0  0  0  0
  189.8220  178.3820  141.8640 O   0  0  0  0  0  0  0  0  0  0  0  0
  190.9390  176.4800  147.3440 N   0  0  0  0  0  1  0  0  0  0  0  0
  187.9160  177.9010  143.1820 N   0  0  0  0  0  0  0  0  0  0  0  0
  189.8030  177.1170  145.1590 C   0  0  1  0  0  3  0  0  0  0  0  0
  182.7600  178.7510  137.1060 N   0  0  0  0  0  2  0  0  0  0  0  0
  181.3360  178.7800  137.2230 C   0  0  0  0  0  0  0  0  0  0  0  0
  180.7490  178.0790  138.0910 O   0  0  0  0  0  1  0  0  0  0  0  0
  180.5930  179.5850  136.3720 O   0  0  0  0  0  0  0  0  0  0  0  0
  1 16  1  0  0  0  0
  1 20  1  0  0  0  0
  2 24  1  6  0  0  0
  2 12  1  0  0  0  0
  2 27  1  0  0  0  0
  3  4  1  0  0  0  0
  5 27  1  0  0  0  0
  5  6  1  0  0  0  0
  6 28  1  0  0  0  0
  7 19  1  6  0  0  0
  7 17  1  0  0  0  0
  7 24  1  0  0  0  0
  9 26  1  0  0  0  0
 11  3  1  0  0  0  0
 12  8  1  6  0  0  0
 12 13  1  0  0  0  0
 13 11  1  6  0  0  0
 13 22  1  0  0  0  0
 14 22  1  0  0  0  0
 14 23  1  1  0  0  0
 15  9  2  0  0  0  0
 16 19  1  0  0  0  0
 17 10  1  6  0  0  0
 17  8  1  0  0  0  0
 18  6  2  0  0  0  0
 18 15  1  0  0  0  0
 20 29  1  6  0  0  0
 20 10  1  0  0  0  0
 21  4  2  0  0  0  0
 22 21  1  1  0  0  0
 25  5  2  0  0  0  0
 27 14  1  0  0  0  0
 28 23  1  1  0  0  0
 28  9  1  0  0  0  0
 29 30  1  0  0  0  0
 30 31  1  0  0  0  0
 32 30  2  0  0  0  0
M  END
>  <MODEL>
9

>  <REMARK>
 VINA RESULT:      -8.3      3.080      9.540
  Name = 
  1 active torsions:
  status: ('A' for Active; 'I' for Inactive)
    1  A    between atoms: C_20  and  N_29
                            x       y       z     vdW  Elec       q    Type
                         _______ _______ _______ _____ _____    ______ ____

>  <TORSDO>
F 1

$$$$
