=
 OpenBabel11122410403D

 32 37  0  0  1  0  0  0  0  0999 V2000
  190.4350  176.1150  138.9630 O   0  0  0  0  0  0  0  0  0  0  0  0
  186.7680  178.5550  141.5690 N   0  0  1  0  0  0  0  0  0  0  0  0
  187.4310  177.5100  146.3390 C   0  0  0  0  0  3  0  0  0  0  0  0
  186.1920  178.0810  146.6270 C   0  0  0  0  0  3  0  0  0  0  0  0
  184.4560  179.1470  140.7860 C   0  0  0  0  0  0  0  0  0  0  0  0
  182.9690  179.1710  141.0140 C   0  0  1  0  0  3  0  0  0  0  0  0
  188.5820  178.3250  139.9470 C   0  0  1  0  0  3  0  0  0  0  0  0
  189.0140  177.9190  142.3770 C   0  0  0  0  0  2  0  0  0  0  0  0
  181.2520  178.8170  142.5350 C   0  0  2  0  0  3  0  0  0  0  0  0
  190.9280  177.6700  140.7410 C   0  0  0  0  0  2  0  0  0  0  0  0
  187.8570  177.4040  145.0130 C   0  0  0  0  0  3  0  0  0  0  0  0
  187.5010  177.6950  142.5280 C   0  0  1  0  0  3  0  0  0  0  0  0
  187.0550  177.8800  143.9620 C   0  0  0  0  0  0  0  0  0  0  0  0
  184.9140  178.9390  143.1510 C   0  0  2  0  0  3  0  0  0  0  0  0
  181.0060  177.9000  141.3440 C   0  0  0  0  0  2  0  0  0  0  0  0
  189.4450  176.6680  138.1100 C   0  0  0  0  0  2  0  0  0  0  0  0
  189.4200  177.5390  140.9610 C   0  0  2  0  0  3  0  0  0  0  0  0
  182.2810  177.9160  140.5390 C   0  0  0  0  0  2  0  0  0  0  0  0
  188.9370  178.0840  138.4710 C   0  0  0  0  0  2  0  0  0  0  0  0
  191.3330  177.1240  139.3670 C   0  0  1  0  0  3  0  0  0  0  0  0
  185.3720  178.5300  145.5900 C   0  0  0  0  0  3  0  0  0  0  0  0
  185.7790  178.3990  144.2530 C   0  0  0  0  0  0  0  0  0  0  0  0
  183.4310  178.6230  143.3580 C   0  0  0  0  0  2  0  0  0  0  0  0
  187.1080  178.0610  140.2250 C   0  0  0  0  0  2  0  0  0  0  0  0
  184.9310  179.7530  139.8390 O   0  0  0  0  0  0  0  0  0  0  0  0
  180.3060  179.8410  142.5410 O   0  0  0  0  0  1  0  0  0  0  0  0
  185.3170  178.3980  141.7790 C   0  0  2  0  0  3  0  0  0  0  0  0
  182.5920  179.3880  142.4210 N   0  0  1  0  0  0  0  0  0  0  0  0
  192.7480  176.5760  139.4350 C   0  0  0  0  0  2  0  0  0  0  0  0
  193.1500  176.0030  138.1200 C   0  0  0  0  0  0  0  0  0  0  0  0
  193.6140  176.7530  137.2220 O   0  0  0  0  0  0  0  0  0  0  0  0
  193.0450  174.6360  137.8960 O   0  0  0  0  0  1  0  0  0  0  0  0
  1 20  1  0  0  0  0
  2 24  1  6  0  0  0
  2 27  1  0  0  0  0
  2 12  1  0  0  0  0
  3  4  1  0  0  0  0
  5  6  1  0  0  0  0
  6 18  1  1  0  0  0
  6 28  1  0  0  0  0
  7 19  1  6  0  0  0
  7 24  1  0  0  0  0
  7 17  1  0  0  0  0
  9 26  1  6  0  0  0
 11  3  2  0  0  0  0
 12  8  1  1  0  0  0
 12 13  1  0  0  0  0
 13 22  2  0  0  0  0
 13 11  1  0  0  0  0
 14 23  1  1  0  0  0
 14 22  1  0  0  0  0
 15  9  1  0  0  0  0
 16 19  1  0  0  0  0
 16  1  1  0  0  0  0
 17 10  1  1  0  0  0
 17  8  1  0  0  0  0
 18 15  1  0  0  0  0
 20 29  1  1  0  0  0
 20 10  1  0  0  0  0
 21  4  2  0  0  0  0
 22 21  1  0  0  0  0
 25  5  2  0  0  0  0
 27  5  1  6  0  0  0
 27 14  1  0  0  0  0
 28  9  1  0  0  0  0
 28 23  1  1  0  0  0
 30 29  1  0  0  0  0
 31 30  2  0  0  0  0
 32 30  1  0  0  0  0
M  END
>  <MODEL>
1

>  <REMARK>
 VINA RESULT:     -10.1      0.000      0.000
  Name = 
  2 active torsions:
  status: ('A' for Active; 'I' for Inactive)
    1  A    between atoms: C_20  and  C_29
    2  A    between atoms: C_29  and  C_30
                            x       y       z     vdW  Elec       q    Type
                         _______ _______ _______ _____ _____    ______ ____

>  <TORSDO>
F 2

$$$$
=
 OpenBabel11122410403D

 32 37  0  0  1  0  0  0  0  0999 V2000
  190.9670  175.7890  145.4800 O   0  0  0  0  0  0  0  0  0  0  0  0
  188.3460  178.1580  141.7770 N   0  0  1  0  0  0  0  0  0  0  0  0
  183.7010  178.6280  143.3520 C   0  0  0  0  0  3  0  0  0  0  0  0
  183.3160  179.0240  142.0720 C   0  0  0  0  0  3  0  0  0  0  0  0
  188.7650  178.0790  139.3010 C   0  0  0  0  0  0  0  0  0  0  0  0
  188.2550  177.8970  137.8980 C   0  0  1  0  0  3  0  0  0  0  0  0
  190.1960  177.8140  143.3370 C   0  0  1  0  0  3  0  0  0  0  0  0
  187.8800  178.1890  144.2020 C   0  0  0  0  0  2  0  0  0  0  0  0
  186.3780  177.6790  136.5490 C   0  0  2  0  0  3  0  0  0  0  0  0
  189.7580  177.8420  145.8610 C   0  0  0  0  0  2  0  0  0  0  0  0
  185.0190  178.2330  143.5920 C   0  0  0  0  0  3  0  0  0  0  0  0
  187.3760  177.7480  142.8190 C   0  0  1  0  0  3  0  0  0  0  0  0
  185.9690  178.2430  142.5580 C   0  0  0  0  0  0  0  0  0  0  0  0
  186.5640  178.6280  140.1360 C   0  0  2  0  0  3  0  0  0  0  0  0
  187.2350  176.4360  136.3460 C   0  0  0  0  0  2  0  0  0  0  0  0
  191.7100  175.8930  144.2760 C   0  0  0  0  0  2  0  0  0  0  0  0
  189.2120  177.5080  144.4720 C   0  0  2  0  0  3  0  0  0  0  0  0
  188.2610  176.4560  137.4520 C   0  0  0  0  0  2  0  0  0  0  0  0
  191.6090  177.2380  143.5170 C   0  0  0  0  0  2  0  0  0  0  0  0
  191.0100  177.0160  146.1740 C   0  0  1  0  0  3  0  0  0  0  0  0
  184.2430  179.0080  141.0290 C   0  0  0  0  0  3  0  0  0  0  0  0
  185.5620  178.5840  141.2540 C   0  0  0  0  0  0  0  0  0  0  0  0
  185.9910  178.1200  138.8110 C   0  0  0  0  0  2  0  0  0  0  0  0
  189.5700  177.3770  142.0190 C   0  0  0  0  0  2  0  0  0  0  0  0
  189.9080  178.4710  139.4810 O   0  0  0  0  0  0  0  0  0  0  0  0
  186.4310  178.4760  135.4060 O   0  0  0  0  0  1  0  0  0  0  0  0
  187.8160  177.8070  140.4460 C   0  0  2  0  0  3  0  0  0  0  0  0
  186.8960  178.4270  137.6920 N   0  0  1  0  0  0  0  0  0  0  0  0
  191.0980  176.7730  147.6710 C   0  0  0  0  0  2  0  0  0  0  0  0
  192.4300  176.2120  148.0310 C   0  0  0  0  0  0  0  0  0  0  0  0
  192.9080  175.2530  147.3720 O   0  0  0  0  0  0  0  0  0  0  0  0
  193.1600  176.7690  149.0740 O   0  0  0  0  0  1  0  0  0  0  0  0
  1 20  1  0  0  0  0
  2 24  1  1  0  0  0
  2 12  1  0  0  0  0
  3 11  1  0  0  0  0
  4  3  2  0  0  0  0
  5 25  2  0  0  0  0
  6 18  1  1  0  0  0
  6  5  1  0  0  0  0
  7 24  1  6  0  0  0
  7 19  1  0  0  0  0
  7 17  1  0  0  0  0
  9 26  1  6  0  0  0
  9 28  1  0  0  0  0
 10 20  1  0  0  0  0
 12  8  1  1  0  0  0
 13 12  1  0  0  0  0
 13 11  2  0  0  0  0
 14 23  1  6  0  0  0
 14 27  1  0  0  0  0
 14 22  1  0  0  0  0
 15  9  1  0  0  0  0
 15 18  1  0  0  0  0
 16  1  1  0  0  0  0
 17  8  1  6  0  0  0
 17 10  1  0  0  0  0
 19 16  1  0  0  0  0
 20 29  1  1  0  0  0
 21 22  2  0  0  0  0
 21  4  1  0  0  0  0
 22 13  1  0  0  0  0
 27  5  1  6  0  0  0
 27  2  1  0  0  0  0
 28  6  1  0  0  0  0
 28 23  1  1  0  0  0
 29 30  1  0  0  0  0
 30 32  1  0  0  0  0
 31 30  2  0  0  0  0
M  END
>  <MODEL>
2

>  <REMARK>
 VINA RESULT:      -9.0      3.529      6.089
  Name = 
  2 active torsions:
  status: ('A' for Active; 'I' for Inactive)
    1  A    between atoms: C_20  and  C_29
    2  A    between atoms: C_29  and  C_30
                            x       y       z     vdW  Elec       q    Type
                         _______ _______ _______ _____ _____    ______ ____

>  <TORSDO>
F 2

$$$$
=
 OpenBabel11122410403D

 32 37  0  0  1  0  0  0  0  0999 V2000
  187.8300  176.4660  143.8030 O   0  0  0  0  0  0  0  0  0  0  0  0
  190.2420  177.2910  139.3650 N   0  0  1  0  0  0  0  0  0  0  0  0
  186.8040  177.3960  135.8360 C   0  0  0  0  0  3  0  0  0  0  0  0
  187.8080  177.3650  134.8690 C   0  0  0  0  0  3  0  0  0  0  0  0
  192.5800  176.6210  138.7340 C   0  0  0  0  0  0  0  0  0  0  0  0
  193.5370  175.9880  137.7620 C   0  0  1  0  0  3  0  0  0  0  0  0
  189.6790  177.6870  141.7100 C   0  0  1  0  0  3  0  0  0  0  0  0
  187.9180  177.8940  139.9450 C   0  0  0  0  0  2  0  0  0  0  0  0
  193.8110  175.1120  135.6300 C   0  0  2  0  0  3  0  0  0  0  0  0
  187.2810  178.3170  142.3560 C   0  0  0  0  0  2  0  0  0  0  0  0
  187.1380  177.3020  137.1890 C   0  0  0  0  0  3  0  0  0  0  0  0
  188.8180  177.0210  139.0560 C   0  0  1  0  0  3  0  0  0  0  0  0
  188.4790  177.1900  137.5900 C   0  0  0  0  0  0  0  0  0  0  0  0
  190.9280  177.0040  137.0120 C   0  0  2  0  0  3  0  0  0  0  0  0
  194.1770  174.0180  136.6260 C   0  0  0  0  0  2  0  0  0  0  0  0
  189.2400  176.3640  143.9280 C   0  0  0  0  0  2  0  0  0  0  0  0
  188.1850  177.5390  141.4000 C   0  0  2  0  0  3  0  0  0  0  0  0
  193.6900  174.5020  137.9690 C   0  0  0  0  0  2  0  0  0  0  0  0
  190.0780  177.4200  143.1690 C   0  0  0  0  0  2  0  0  0  0  0  0
  187.4490  177.8230  143.7980 C   0  0  1  0  0  3  0  0  0  0  0  0
  189.1430  177.2230  135.2530 C   0  0  0  0  0  3  0  0  0  0  0  0
  189.4850  177.0970  136.6090 C   0  0  0  0  0  0  0  0  0  0  0  0
  191.7340  176.0730  136.1040 C   0  0  0  0  0  2  0  0  0  0  0  0
  190.4660  176.8150  140.7390 C   0  0  0  0  0  2  0  0  0  0  0  0
  193.0150  177.2290  139.7000 O   0  0  0  0  0  0  0  0  0  0  0  0
  194.9640  175.5700  134.9940 O   0  0  0  0  0  1  0  0  0  0  0  0
  191.0990  176.5140  138.4500 C   0  0  2  0  0  3  0  0  0  0  0  0
  193.1780  176.2130  136.3510 N   0  0  1  0  0  0  0  0  0  0  0  0
  186.1450  178.0090  144.5540 C   0  0  0  0  0  2  0  0  0  0  0  0
  186.4090  178.4760  145.9440 C   0  0  0  0  0  0  0  0  0  0  0  0
  185.6910  179.3750  146.4520 O   0  0  0  0  0  0  0  0  0  0  0  0
  187.4260  177.8950  146.6900 O   0  0  0  0  0  1  0  0  0  0  0  0
  1 16  1  0  0  0  0
  2 24  1  1  0  0  0
  3 11  1  0  0  0  0
  4 21  1  0  0  0  0
  4  3  2  0  0  0  0
  5 25  2  0  0  0  0
  6 18  1  1  0  0  0
  6  5  1  0  0  0  0
  7 24  1  6  0  0  0
  7 19  1  0  0  0  0
  9 26  1  1  0  0  0
  9 28  1  0  0  0  0
  9 15  1  0  0  0  0
 10 20  1  0  0  0  0
 11 13  2  0  0  0  0
 12  2  1  0  0  0  0
 12  8  1  1  0  0  0
 13 12  1  0  0  0  0
 14 23  1  6  0  0  0
 14 27  1  0  0  0  0
 15 18  1  0  0  0  0
 17  8  1  6  0  0  0
 17  7  1  0  0  0  0
 17 10  1  0  0  0  0
 19 16  1  0  0  0  0
 20  1  1  0  0  0  0
 20 29  1  1  0  0  0
 21 22  2  0  0  0  0
 22 14  1  0  0  0  0
 22 13  1  0  0  0  0
 27  5  1  1  0  0  0
 27  2  1  0  0  0  0
 28 23  1  1  0  0  0
 28  6  1  0  0  0  0
 29 30  1  0  0  0  0
 30 31  2  0  0  0  0
 30 32  1  0  0  0  0
M  END
>  <MODEL>
3

>  <REMARK>
 VINA RESULT:      -8.3      3.331      9.310
  Name = 
  2 active torsions:
  status: ('A' for Active; 'I' for Inactive)
    1  A    between atoms: C_20  and  C_29
    2  A    between atoms: C_29  and  C_30
                            x       y       z     vdW  Elec       q    Type
                         _______ _______ _______ _____ _____    ______ ____

>  <TORSDO>
F 2

$$$$
=
 OpenBabel11122410403D

 32 37  0  0  1  0  0  0  0  0999 V2000
  190.4340  176.3570  141.0400 O   0  0  0  0  0  0  0  0  0  0  0  0
  185.8810  178.6900  140.9050 N   0  0  1  0  0  0  0  0  0  0  0  0
  184.0360  178.5490  145.4720 C   0  0  0  0  0  3  0  0  0  0  0  0
  182.8080  178.9920  144.9810 C   0  0  0  0  0  3  0  0  0  0  0  0
  184.2800  178.8340  138.9740 C   0  0  0  0  0  0  0  0  0  0  0  0
  182.8860  178.6990  138.4230 C   0  0  1  0  0  3  0  0  0  0  0  0
  188.2750  178.4350  140.4860 C   0  0  1  0  0  3  0  0  0  0  0  0
  187.4130  178.4990  142.8330 C   0  0  0  0  0  2  0  0  0  0  0  0
  180.6440  178.3790  138.9290 C   0  0  2  0  0  3  0  0  0  0  0  0
  189.9000  178.2360  142.4560 C   0  0  0  0  0  2  0  0  0  0  0  0
  185.0830  178.2810  144.5880 C   0  0  0  0  0  3  0  0  0  0  0  0
  186.0430  178.1060  142.2570 C   0  0  1  0  0  3  0  0  0  0  0  0
  184.9200  178.4660  143.2060 C   0  0  0  0  0  0  0  0  0  0  0  0
  183.4670  179.0840  141.2370 C   0  0  2  0  0  3  0  0  0  0  0  0
  181.0690  177.2520  137.9960 C   0  0  0  0  0  2  0  0  0  0  0  0
  190.0040  176.6250  139.7140 C   0  0  0  0  0  2  0  0  0  0  0  0
  188.4980  177.9460  141.9210 C   0  0  2  0  0  3  0  0  0  0  0  0
  182.5750  177.3030  137.9460 C   0  0  0  0  0  2  0  0  0  0  0  0
  189.3420  178.0010  139.4690 C   0  0  0  0  0  2  0  0  0  0  0  0
  190.9680  177.5280  141.6140 C   0  0  1  0  0  3  0  0  0  0  0  0
  182.6230  179.1490  143.6060 C   0  0  0  0  0  3  0  0  0  0  0  0
  183.6600  178.8530  142.7090 C   0  0  0  0  0  0  0  0  0  0  0  0
  182.0980  178.6130  140.7430 C   0  0  0  0  0  2  0  0  0  0  0  0
  186.8750  178.0290  140.0450 C   0  0  0  0  0  2  0  0  0  0  0  0
  185.1560  179.3310  138.2840 O   0  0  0  0  0  0  0  0  0  0  0  0
  179.7990  179.2560  138.2490 O   0  0  0  0  0  1  0  0  0  0  0  0
  184.5320  178.3810  140.3950 C   0  0  2  0  0  3  0  0  0  0  0  0
  181.8350  179.0950  139.3770 N   0  0  1  0  0  0  0  0  0  0  0  0
  192.1630  177.1900  142.4890 C   0  0  0  0  0  2  0  0  0  0  0  0
  191.7140  176.6280  143.7930 C   0  0  0  0  0  0  0  0  0  0  0  0
  191.3600  175.4230  143.8710 O   0  0  0  0  0  0  0  0  0  0  0  0
  191.7180  177.4250  144.9310 O   0  0  0  0  0  1  0  0  0  0  0  0
  1 20  1  0  0  0  0
  2 24  1  6  0  0  0
  2 12  1  0  0  0  0
  4  3  1  0  0  0  0
  6 18  1  1  0  0  0
  6  5  1  0  0  0  0
  6 28  1  0  0  0  0
  7 19  1  6  0  0  0
  7 17  1  0  0  0  0
  9 26  1  6  0  0  0
  9 28  1  0  0  0  0
 11  3  2  0  0  0  0
 12  8  1  1  0  0  0
 12 13  1  0  0  0  0
 13 11  1  0  0  0  0
 14 23  1  6  0  0  0
 14 22  1  0  0  0  0
 15  9  1  0  0  0  0
 16  1  1  0  0  0  0
 17 10  1  1  0  0  0
 17  8  1  0  0  0  0
 18 15  1  0  0  0  0
 19 16  1  0  0  0  0
 20 10  1  0  0  0  0
 20 29  1  1  0  0  0
 21  4  2  0  0  0  0
 22 13  2  0  0  0  0
 22 21  1  0  0  0  0
 24  7  1  0  0  0  0
 25  5  2  0  0  0  0
 27  5  1  6  0  0  0
 27  2  1  0  0  0  0
 27 14  1  0  0  0  0
 28 23  1  1  0  0  0
 29 30  1  0  0  0  0
 30 31  2  0  0  0  0
 30 32  1  0  0  0  0
M  END
>  <MODEL>
4

>  <REMARK>
 VINA RESULT:      -8.2      2.260      3.234
  Name = 
  2 active torsions:
  status: ('A' for Active; 'I' for Inactive)
    1  A    between atoms: C_20  and  C_29
    2  A    between atoms: C_29  and  C_30
                            x       y       z     vdW  Elec       q    Type
                         _______ _______ _______ _____ _____    ______ ____

>  <TORSDO>
F 2

$$$$
=
 OpenBabel11122410403D

 32 37  0  0  1  0  0  0  0  0999 V2000
  190.7780  175.6040  144.0860 O   0  0  0  0  0  0  0  0  0  0  0  0
  186.9230  178.3310  142.1140 N   0  0  1  0  0  0  0  0  0  0  0  0
  183.4640  178.6990  145.6040 C   0  0  0  0  0  3  0  0  0  0  0  0
  182.5780  179.2150  144.6600 C   0  0  0  0  0  3  0  0  0  0  0  0
  186.2120  178.4780  139.7090 C   0  0  0  0  0  0  0  0  0  0  0  0
  185.1310  178.4310  138.6630 C   0  0  1  0  0  3  0  0  0  0  0  0
  189.2490  177.8260  142.6680 C   0  0  1  0  0  3  0  0  0  0  0  0
  187.5660  178.1420  144.4910 C   0  0  0  0  0  2  0  0  0  0  0  0
  182.8450  178.3580  138.2660 C   0  0  2  0  0  3  0  0  0  0  0  0
  189.9600  177.6240  145.1210 C   0  0  0  0  0  2  0  0  0  0  0  0
  184.7330  178.2710  145.2070 C   0  0  0  0  0  3  0  0  0  0  0  0
  186.4870  177.8360  143.4400 C   0  0  1  0  0  3  0  0  0  0  0  0
  185.1340  178.3670  143.8650 C   0  0  0  0  0  0  0  0  0  0  0  0
  184.6280  178.9690  141.4670 C   0  0  2  0  0  3  0  0  0  0  0  0
  183.4640  177.1310  137.6090 C   0  0  0  0  0  2  0  0  0  0  0  0
  190.9240  175.8110  142.6900 C   0  0  0  0  0  2  0  0  0  0  0  0
  188.8470  177.4260  144.0920 C   0  0  2  0  0  3  0  0  0  0  0  0
  184.8700  177.0380  138.1480 C   0  0  0  0  0  2  0  0  0  0  0  0
  190.5670  177.2210  142.1620 C   0  0  0  0  0  2  0  0  0  0  0  0
  191.1810  176.7600  144.7840 C   0  0  1  0  0  3  0  0  0  0  0  0
  182.9530  179.2870  143.3170 C   0  0  0  0  0  3  0  0  0  0  0  0
  184.2150  178.8310  142.9040 C   0  0  0  0  0  0  0  0  0  0  0  0
  183.5090  178.5910  140.4950 C   0  0  0  0  0  2  0  0  0  0  0  0
  188.0880  177.5190  141.7300 C   0  0  0  0  0  2  0  0  0  0  0  0
  187.3360  178.8390  139.3980 O   0  0  0  0  0  0  0  0  0  0  0  0
  182.4320  179.2570  137.2830 O   0  0  0  0  0  1  0  0  0  0  0  0
  185.8470  178.1100  141.1290 C   0  0  2  0  0  3  0  0  0  0  0  0
  183.8470  178.9920  139.1190 N   0  0  1  0  0  0  0  0  0  0  0  0
  191.9030  176.3790  146.0650 C   0  0  0  0  0  2  0  0  0  0  0  0
  191.0900  176.7570  147.2550 C   0  0  0  0  0  0  0  0  0  0  0  0
  189.9980  176.1740  147.4820 O   0  0  0  0  0  0  0  0  0  0  0  0
  191.5530  177.7290  148.1330 O   0  0  0  0  0  1  0  0  0  0  0  0
  1 20  1  0  0  0  0
  2 24  1  6  0  0  0
  2 12  1  0  0  0  0
  4  3  2  0  0  0  0
  6 18  1  1  0  0  0
  6 28  1  0  0  0  0
  6  5  1  0  0  0  0
  7 24  1  6  0  0  0
  7 17  1  0  0  0  0
  9 26  1  6  0  0  0
  9 28  1  0  0  0  0
 11  3  1  0  0  0  0
 12 13  1  0  0  0  0
 12  8  1  1  0  0  0
 13 11  2  0  0  0  0
 14 23  1  6  0  0  0
 14 22  1  0  0  0  0
 15 18  1  0  0  0  0
 15  9  1  0  0  0  0
 16  1  1  0  0  0  0
 17  8  1  1  0  0  0
 17 10  1  0  0  0  0
 19  7  1  0  0  0  0
 19 16  1  0  0  0  0
 20 10  1  0  0  0  0
 20 29  1  1  0  0  0
 21  4  1  0  0  0  0
 22 21  2  0  0  0  0
 22 13  1  0  0  0  0
 25  5  2  0  0  0  0
 27  5  1  6  0  0  0
 27 14  1  0  0  0  0
 27  2  1  0  0  0  0
 28 23  1  1  0  0  0
 29 30  1  0  0  0  0
 30 31  2  0  0  0  0
 30 32  1  0  0  0  0
M  END
>  <MODEL>
5

>  <REMARK>
 VINA RESULT:      -8.1      3.200      4.732
  Name = 
  2 active torsions:
  status: ('A' for Active; 'I' for Inactive)
    1  A    between atoms: C_20  and  C_29
    2  A    between atoms: C_29  and  C_30
                            x       y       z     vdW  Elec       q    Type
                         _______ _______ _______ _____ _____    ______ ____

>  <TORSDO>
F 2

$$$$
=
 OpenBabel11122410403D

 32 37  0  0  1  0  0  0  0  0999 V2000
  191.0220  175.3880  137.6730 O   0  0  0  0  0  0  0  0  0  0  0  0
  188.6270  178.0050  141.3610 N   0  0  1  0  0  0  0  0  0  0  0  0
  190.5900  176.5960  145.6560 C   0  0  0  0  0  3  0  0  0  0  0  0
  189.5720  177.2670  146.3320 C   0  0  0  0  0  3  0  0  0  0  0  0
  186.2690  178.8700  141.3540 C   0  0  0  0  0  0  0  0  0  0  0  0
  184.9350  179.0260  142.0320 C   0  0  1  0  0  3  0  0  0  0  0  0
  189.8200  177.7020  139.2510 C   0  0  1  0  0  3  0  0  0  0  0  0
  190.9250  177.1000  141.4130 C   0  0  0  0  0  2  0  0  0  0  0  0
  183.7360  178.7460  143.9990 C   0  0  2  0  0  3  0  0  0  0  0  0
  192.2070  176.7690  139.2570 C   0  0  0  0  0  2  0  0  0  0  0  0
  190.5760  176.5340  144.2610 C   0  0  0  0  0  3  0  0  0  0  0  0
  189.5150  177.0170  142.0190 C   0  0  1  0  0  3  0  0  0  0  0  0
  189.5520  177.1530  143.5260 C   0  0  0  0  0  0  0  0  0  0  0  0
  187.4000  178.4670  143.4520 C   0  0  2  0  0  3  0  0  0  0  0  0
  183.0350  177.9360  142.9160 C   0  0  0  0  0  2  0  0  0  0  0  0
  189.8880  176.0890  137.1870 C   0  0  0  0  0  2  0  0  0  0  0  0
  190.8340  176.7730  139.9300 C   0  0  2  0  0  3  0  0  0  0  0  0
  183.9970  177.8780  141.7560 C   0  0  0  0  0  2  0  0  0  0  0  0
  189.6790  177.5220  137.7310 C   0  0  0  0  0  2  0  0  0  0  0  0
  192.1090  176.2750  137.8090 C   0  0  1  0  0  3  0  0  0  0  0  0
  188.5310  177.8600  145.6150 C   0  0  0  0  0  3  0  0  0  0  0  0
  188.4920  177.7750  144.2140 C   0  0  0  0  0  0  0  0  0  0  0  0
  186.0250  178.2860  144.0990 C   0  0  0  0  0  2  0  0  0  0  0  0
  188.4820  177.5670  139.9640 C   0  0  0  0  0  2  0  0  0  0  0  0
  186.4970  179.4860  140.3240 O   0  0  0  0  0  0  0  0  0  0  0  0
  182.9590  179.8560  144.3290 O   0  0  0  0  0  1  0  0  0  0  0  0
  187.3010  177.9790  142.0070 C   0  0  2  0  0  3  0  0  0  0  0  0
  185.0320  179.1880  143.4930 N   0  0  1  0  0  0  0  0  0  0  0  0
  193.4050  175.5870  137.4180 C   0  0  0  0  0  2  0  0  0  0  0  0
  193.3620  175.1640  135.9900 C   0  0  0  0  0  0  0  0  0  0  0  0
  193.4390  173.9440  135.6920 O   0  0  0  0  0  1  0  0  0  0  0  0
  193.2050  176.1140  134.9890 O   0  0  0  0  0  0  0  0  0  0  0  0
  1 20  1  0  0  0  0
  2 24  1  6  0  0  0
  2 27  1  0  0  0  0
  2 12  1  0  0  0  0
  3  4  1  0  0  0  0
  5  6  1  0  0  0  0
  6 18  1  1  0  0  0
  6 28  1  0  0  0  0
  7 19  1  6  0  0  0
  7 17  1  0  0  0  0
  7 24  1  0  0  0  0
  9 26  1  6  0  0  0
 11  3  2  0  0  0  0
 12  8  1  6  0  0  0
 12 13  1  0  0  0  0
 13 22  2  0  0  0  0
 13 11  1  0  0  0  0
 14 23  1  1  0  0  0
 14 22  1  0  0  0  0
 15  9  1  0  0  0  0
 16  1  1  0  0  0  0
 16 19  1  0  0  0  0
 17 10  1  6  0  0  0
 17  8  1  0  0  0  0
 18 15  1  0  0  0  0
 20 29  1  1  0  0  0
 20 10  1  0  0  0  0
 21  4  2  0  0  0  0
 22 21  1  0  0  0  0
 25  5  2  0  0  0  0
 27  5  1  6  0  0  0
 27 14  1  0  0  0  0
 28  9  1  0  0  0  0
 28 23  1  1  0  0  0
 30 29  1  0  0  0  0
 31 30  1  0  0  0  0
 32 30  2  0  0  0  0
M  END
>  <MODEL>
6

>  <REMARK>
 VINA RESULT:      -8.1      1.622      2.443
  Name = 
  2 active torsions:
  status: ('A' for Active; 'I' for Inactive)
    1  A    between atoms: C_20  and  C_29
    2  A    between atoms: C_29  and  C_30
                            x       y       z     vdW  Elec       q    Type
                         _______ _______ _______ _____ _____    ______ ____

>  <TORSDO>
F 2

$$$$
=
 OpenBabel11122410403D

 32 37  0  0  1  0  0  0  0  0999 V2000
  188.7620  179.2620  137.7480 O   0  0  0  0  0  0  0  0  0  0  0  0
  187.2130  177.5550  142.3170 N   0  0  1  0  0  0  0  0  0  0  0  0
  182.7190  179.4110  143.1170 C   0  0  0  0  0  3  0  0  0  0  0  0
  182.7840  178.9750  144.4400 C   0  0  0  0  0  3  0  0  0  0  0  0
  188.6330  176.9670  144.3040 C   0  0  0  0  0  0  0  0  0  0  0  0
  188.9220  177.0720  145.7770 C   0  0  1  0  0  3  0  0  0  0  0  0
  188.1400  177.3800  140.0630 C   0  0  1  0  0  3  0  0  0  0  0  0
  185.8000  178.1960  140.3960 C   0  0  0  0  0  2  0  0  0  0  0  0
  188.1450  177.7960  147.8400 C   0  0  2  0  0  3  0  0  0  0  0  0
  186.7080  178.0310  138.0410 C   0  0  0  0  0  2  0  0  0  0  0  0
  183.8220  179.2490  142.2760 C   0  0  0  0  0  3  0  0  0  0  0  0
  186.2060  178.5310  141.8400 C   0  0  1  0  0  3  0  0  0  0  0  0
  184.9960  178.6370  142.7440 C   0  0  0  0  0  0  0  0  0  0  0  0
  186.3140  177.5750  144.6150 C   0  0  2  0  0  3  0  0  0  0  0  0
  189.4740  178.4940  147.5800 C   0  0  0  0  0  2  0  0  0  0  0  0
  189.8060  178.6220  138.4660 C   0  0  0  0  0  2  0  0  0  0  0  0
  187.0340  178.2880  139.5120 C   0  0  2  0  0  3  0  0  0  0  0  0
  189.7870  178.2570  146.1240 C   0  0  0  0  0  2  0  0  0  0  0  0
  189.4270  177.3280  139.2240 C   0  0  0  0  0  2  0  0  0  0  0  0
  187.9290  178.2940  137.1520 C   0  0  1  0  0  3  0  0  0  0  0  0
  183.9560  178.3940  144.9260 C   0  0  0  0  0  3  0  0  0  0  0  0
  185.0800  178.2550  144.0970 C   0  0  0  0  0  0  0  0  0  0  0  0
  186.6720  178.0090  146.0380 C   0  0  0  0  0  2  0  0  0  0  0  0
  188.4210  177.7760  141.5060 C   0  0  0  0  0  2  0  0  0  0  0  0
  189.2600  176.1720  143.6210 O   0  0  0  0  0  0  0  0  0  0  0  0
  188.3050  176.8470  148.8490 O   0  0  0  0  0  1  0  0  0  0  0  0
  187.5340  177.8320  143.7300 C   0  0  2  0  0  3  0  0  0  0  0  0
  187.7100  177.1370  146.6120 N   0  0  1  0  0  0  0  0  0  0  0  0
  187.4700  178.7620  135.7820 C   0  0  0  0  0  2  0  0  0  0  0  0
  187.0000  177.6070  134.9660 C   0  0  0  0  0  0  0  0  0  0  0  0
  187.8120  176.7100  134.6190 O   0  0  0  0  0  1  0  0  0  0  0  0
  185.6600  177.5030  134.6160 O   0  0  0  0  0  0  0  0  0  0  0  0
  1 16  1  0  0  0  0
  2 24  1  6  0  0  0
  2 27  1  0  0  0  0
  3  4  1  0  0  0  0
  4 21  2  0  0  0  0
  5  6  1  0  0  0  0
  6 18  1  6  0  0  0
  6 28  1  0  0  0  0
  7 19  1  6  0  0  0
  7 24  1  0  0  0  0
  9 26  1  1  0  0  0
 11 13  1  0  0  0  0
 11  3  2  0  0  0  0
 12  8  1  6  0  0  0
 12  2  1  0  0  0  0
 12 13  1  0  0  0  0
 13 22  2  0  0  0  0
 14 23  1  1  0  0  0
 15  9  1  0  0  0  0
 16 19  1  0  0  0  0
 17 10  1  6  0  0  0
 17  7  1  0  0  0  0
 17  8  1  0  0  0  0
 18 15  1  0  0  0  0
 20 29  1  6  0  0  0
 20  1  1  0  0  0  0
 20 10  1  0  0  0  0
 22 14  1  0  0  0  0
 22 21  1  0  0  0  0
 25  5  2  0  0  0  0
 27  5  1  1  0  0  0
 27 14  1  0  0  0  0
 28 23  1  6  0  0  0
 28  9  1  0  0  0  0
 30 29  1  0  0  0  0
 31 30  1  0  0  0  0
 32 30  2  0  0  0  0
M  END
>  <MODEL>
7

>  <REMARK>
 VINA RESULT:      -7.9      3.068      5.611
  Name = 
  2 active torsions:
  status: ('A' for Active; 'I' for Inactive)
    1  A    between atoms: C_20  and  C_29
    2  A    between atoms: C_29  and  C_30
                            x       y       z     vdW  Elec       q    Type
                         _______ _______ _______ _____ _____    ______ ____

>  <TORSDO>
F 2

$$$$
=
 OpenBabel11122410403D

 32 37  0  0  1  0  0  0  0  0999 V2000
  190.3280  176.2440  146.3240 O   0  0  0  0  0  0  0  0  0  0  0  0
  189.3580  177.8490  141.5620 N   0  0  1  0  0  0  0  0  0  0  0  0
  184.5330  178.8160  141.3070 C   0  0  0  0  0  3  0  0  0  0  0  0
  184.6390  178.9390  139.9220 C   0  0  0  0  0  3  0  0  0  0  0  0
  190.5630  177.2220  139.4490 C   0  0  0  0  0  0  0  0  0  0  0  0
  190.5310  176.7590  138.0180 C   0  0  1  0  0  3  0  0  0  0  0  0
  190.5360  177.7840  143.7020 C   0  0  1  0  0  3  0  0  0  0  0  0
  188.1190  178.4210  143.6210 C   0  0  0  0  0  2  0  0  0  0  0  0
  189.1970  176.3230  136.1700 C   0  0  2  0  0  3  0  0  0  0  0  0
  189.2910  178.3730  145.8630 C   0  0  0  0  0  2  0  0  0  0  0  0
  185.6460  178.4350  142.0600 C   0  0  0  0  0  3  0  0  0  0  0  0
  188.0580  177.7090  142.2600 C   0  0  1  0  0  3  0  0  0  0  0  0
  186.8800  178.1870  141.4380 C   0  0  0  0  0  0  0  0  0  0  0  0
  188.2830  178.0170  139.3480 C   0  0  2  0  0  3  0  0  0  0  0  0
  189.9330  175.0360  136.5180 C   0  0  0  0  0  2  0  0  0  0  0  0
  191.4360  176.0580  145.4570 C   0  0  0  0  0  2  0  0  0  0  0  0
  189.2040  177.7660  144.4620 C   0  0  2  0  0  3  0  0  0  0  0  0
  190.5290  175.2570  137.8860 C   0  0  0  0  0  2  0  0  0  0  0  0
  191.7380  177.2090  144.4680 C   0  0  0  0  0  2  0  0  0  0  0  0
  190.2710  177.5890  146.7420 C   0  0  1  0  0  3  0  0  0  0  0  0
  185.8530  178.6650  139.2890 C   0  0  0  0  0  3  0  0  0  0  0  0
  186.9680  178.2520  140.0340 C   0  0  0  0  0  0  0  0  0  0  0  0
  188.1300  177.2560  138.0290 C   0  0  0  0  0  2  0  0  0  0  0  0
  190.3390  177.0950  142.3580 C   0  0  0  0  0  2  0  0  0  0  0  0
  191.6170  177.6010  139.9370 O   0  0  0  0  0  0  0  0  0  0  0  0
  189.7120  176.8510  134.9870 O   0  0  0  0  0  1  0  0  0  0  0  0
  189.2640  177.2380  140.2230 C   0  0  2  0  0  3  0  0  0  0  0  0
  189.3830  177.2810  137.2560 N   0  0  1  0  0  0  0  0  0  0  0  0
  189.8310  177.6730  148.1940 C   0  0  0  0  0  2  0  0  0  0  0  0
  188.3520  177.5270  148.3000 C   0  0  0  0  0  0  0  0  0  0  0  0
  187.8280  176.3840  148.2700 O   0  0  0  0  0  0  0  0  0  0  0  0
  187.5530  178.6520  148.4670 O   0  0  0  0  0  1  0  0  0  0  0  0
  1 20  1  0  0  0  0
  2 12  1  0  0  0  0
  2 24  1  1  0  0  0
  3 11  1  0  0  0  0
  4  3  2  0  0  0  0
  5 25  2  0  0  0  0
  6 18  1  1  0  0  0
  6  5  1  0  0  0  0
  7 24  1  6  0  0  0
  7 17  1  0  0  0  0
  7 19  1  0  0  0  0
  9 26  1  6  0  0  0
  9 15  1  0  0  0  0
  9 28  1  0  0  0  0
 10 20  1  0  0  0  0
 12  8  1  1  0  0  0
 13 11  2  0  0  0  0
 13 12  1  0  0  0  0
 14 23  1  6  0  0  0
 14 22  1  0  0  0  0
 14 27  1  0  0  0  0
 15 18  1  0  0  0  0
 16  1  1  0  0  0  0
 17  8  1  6  0  0  0
 17 10  1  0  0  0  0
 19 16  1  0  0  0  0
 20 29  1  1  0  0  0
 21  4  1  0  0  0  0
 21 22  2  0  0  0  0
 22 13  1  0  0  0  0
 27  5  1  6  0  0  0
 27  2  1  0  0  0  0
 28  6  1  0  0  0  0
 28 23  1  1  0  0  0
 29 30  1  0  0  0  0
 30 32  1  0  0  0  0
 31 30  2  0  0  0  0
M  END
>  <MODEL>
8

>  <REMARK>
 VINA RESULT:      -7.7      3.400      7.478
  Name = 
  2 active torsions:
  status: ('A' for Active; 'I' for Inactive)
    1  A    between atoms: C_20  and  C_29
    2  A    between atoms: C_29  and  C_30
                            x       y       z     vdW  Elec       q    Type
                         _______ _______ _______ _____ _____    ______ ____

>  <TORSDO>
F 2

$$$$
=
 OpenBabel11122410403D

 32 37  0  0  1  0  0  0  0  0999 V2000
  193.2800  173.7420  136.3240 O   0  0  0  0  0  0  0  0  0  0  0  0
  190.0100  177.2200  138.1680 N   0  0  1  0  0  0  0  0  0  0  0  0
  190.5860  177.3100  143.0610 C   0  0  0  0  0  3  0  0  0  0  0  0
  189.4390  178.0950  143.1730 C   0  0  0  0  0  3  0  0  0  0  0  0
  187.7880  177.9030  137.2140 C   0  0  0  0  0  0  0  0  0  0  0  0
  186.3210  178.1810  137.3970 C   0  0  1  0  0  3  0  0  0  0  0  0
  191.7540  176.3540  136.6910 C   0  0  1  0  0  3  0  0  0  0  0  0
  192.1590  176.5080  139.1550 C   0  0  0  0  0  2  0  0  0  0  0  0
  184.5920  178.4480  138.9220 C   0  0  2  0  0  3  0  0  0  0  0  0
  194.0000  175.6080  137.6720 C   0  0  0  0  0  2  0  0  0  0  0  0
  190.9760  176.8230  141.8120 C   0  0  0  0  0  3  0  0  0  0  0  0
  190.6320  176.5340  139.3250 C   0  0  1  0  0  3  0  0  0  0  0  0
  190.2330  177.1260  140.6590 C   0  0  0  0  0  0  0  0  0  0  0  0
  188.2440  178.2280  139.5660 C   0  0  2  0  0  3  0  0  0  0  0  0
  184.2090  177.3060  137.9900 C   0  0  0  0  0  2  0  0  0  0  0  0
  192.3630  174.1940  135.3400 C   0  0  0  0  0  2  0  0  0  0  0  0
  192.4920  175.7390  137.8860 C   0  0  2  0  0  3  0  0  0  0  0  0
  185.4640  176.9510  137.2330 C   0  0  0  0  0  2  0  0  0  0  0  0
  192.0550  175.7100  135.3290 C   0  0  0  0  0  2  0  0  0  0  0  0
  194.3110  174.6900  136.4850 C   0  0  1  0  0  3  0  0  0  0  0  0
  188.6740  178.3780  142.0400 C   0  0  0  0  0  3  0  0  0  0  0  0
  189.0420  177.8670  140.7860 C   0  0  0  0  0  0  0  0  0  0  0  0
  186.7350  178.1740  139.8140 C   0  0  0  0  0  2  0  0  0  0  0  0
  190.2620  176.3670  136.9950 C   0  0  0  0  0  2  0  0  0  0  0  0
  188.3280  178.1860  136.1560 O   0  0  0  0  0  0  0  0  0  0  0  0
  183.7920  179.5590  138.6540 O   0  0  0  0  0  1  0  0  0  0  0  0
  188.5530  177.3150  138.3790 C   0  0  2  0  0  3  0  0  0  0  0  0
  185.9950  178.7890  138.6990 N   0  0  1  0  0  0  0  0  0  0  0  0
  195.6400  173.9910  136.7160 C   0  0  0  0  0  2  0  0  0  0  0  0
  196.7730  174.8960  136.3730 C   0  0  0  0  0  0  0  0  0  0  0  0
  196.9180  175.3020  135.1910 O   0  0  0  0  0  0  0  0  0  0  0  0
  197.6490  175.3190  137.3640 O   0  0  0  0  0  1  0  0  0  0  0  0
  1 20  1  0  0  0  0
  2 24  1  6  0  0  0
  2 27  1  0  0  0  0
  2 12  1  0  0  0  0
  3  4  1  0  0  0  0
  5  6  1  0  0  0  0
  6 18  1  1  0  0  0
  6 28  1  0  0  0  0
  7 19  1  6  0  0  0
  7 24  1  0  0  0  0
  7 17  1  0  0  0  0
  9 26  1  6  0  0  0
 11  3  2  0  0  0  0
 12  8  1  6  0  0  0
 12 13  1  0  0  0  0
 13 22  2  0  0  0  0
 13 11  1  0  0  0  0
 14 23  1  1  0  0  0
 14 22  1  0  0  0  0
 15  9  1  0  0  0  0
 16  1  1  0  0  0  0
 17 10  1  6  0  0  0
 17  8  1  0  0  0  0
 18 15  1  0  0  0  0
 19 16  1  0  0  0  0
 20 29  1  1  0  0  0
 20 10  1  0  0  0  0
 21  4  2  0  0  0  0
 22 21  1  0  0  0  0
 25  5  2  0  0  0  0
 27  5  1  6  0  0  0
 27 14  1  0  0  0  0
 28  9  1  0  0  0  0
 28 23  1  1  0  0  0
 30 29  1  0  0  0  0
 30 32  1  0  0  0  0
 31 30  2  0  0  0  0
M  END
>  <MODEL>
9

>  <REMARK>
 VINA RESULT:      -7.7      3.027      4.787
  Name = 
  2 active torsions:
  status: ('A' for Active; 'I' for Inactive)
    1  A    between atoms: C_20  and  C_29
    2  A    between atoms: C_29  and  C_30
                            x       y       z     vdW  Elec       q    Type
                         _______ _______ _______ _____ _____    ______ ____

>  <TORSDO>
F 2

$$$$
