=
 OpenBabel11122411143D

 31 35  0  0  1  0  0  0  0  0999 V2000
  185.2300  178.1790  144.9390 C   0  0  0  0  0  0  0  0  0  0  0  0
  188.7870  177.7580  143.8200 C   0  0  0  0  0  0  0  0  0  0  0  0
  189.5420  177.4280  145.0740 C   0  0  0  0  0  0  0  0  0  0  0  0
  189.8650  177.6270  147.4820 C   0  0  0  0  0  0  0  0  0  0  0  0
  187.3810  177.9770  143.8050 C   0  0  0  0  0  0  0  0  0  0  0  0
  184.5940  178.3930  143.7170 C   0  0  0  0  0  3  0  0  0  0  0  0
  189.1500  177.9380  146.3230 C   0  0  0  0  0  3  0  0  0  0  0  0
  188.8030  177.9170  141.3670 C   0  0  0  0  0  0  0  0  0  0  0  0
  184.5100  178.1750  146.0860 F   0  0  0  0  0  0  0  0  0  0  0  0
  191.1940  176.1070  143.6990 C   0  0  0  0  0  2  0  0  0  0  0  0
  189.4550  178.1330  148.7070 O   0  0  0  0  0  1  0  0  0  0  0  0
  187.4250  178.1410  141.3770 C   0  0  0  0  0  3  0  0  0  0  0  0
  189.4860  177.7420  142.5840 C   0  0  0  0  0  0  0  0  0  0  0  0
  186.6100  177.9690  144.9810 C   0  0  0  0  0  3  0  0  0  0  0  0
  190.9920  176.8060  147.4080 C   0  0  0  0  0  3  0  0  0  0  0  0
  186.7150  178.1780  142.5710 C   0  0  0  0  0  0  0  0  0  0  0  0
  185.3340  178.3890  142.5340 C   0  0  0  0  0  3  0  0  0  0  0  0
  191.2780  177.5130  142.5570 S   0  0  0  0  0  0  0  0  0  0  0  0
  190.6980  176.6170  145.0110 C   0  0  0  0  0  0  0  0  0  0  0  0
  191.4090  176.3060  146.1740 C   0  0  0  0  0  3  0  0  0  0  0  0
  187.9380  176.8590  138.7510 O   0  0  0  0  0  0  0  0  0  0  0  0
  189.0880  177.3590  138.8750 C   0  0  0  0  0  0  0  0  0  0  0  0
  189.5380  177.8800  140.1320 N   0  0  0  0  0  2  0  0  0  0  0  0
  189.0060  175.9800  135.4020 C   0  0  1  0  0  3  0  0  0  0  0  0
  189.3500  178.0730  136.4820 C   0  0  0  0  0  2  0  0  0  0  0  0
  191.0990  175.3800  138.4270 O   0  0  0  0  0  1  0  0  0  0  0  0
  188.0010  175.1200  134.6670 C   0  0  0  0  0  1  0  0  0  0  0  0
  188.3430  177.1860  135.8960 N   0  0  0  0  0  2  0  0  0  0  0  0
  190.6090  176.0550  137.3070 C   0  0  2  0  0  3  0  0  0  0  0  0
  190.0180  177.4200  137.6970 C   0  0  2  0  0  3  0  0  0  0  0  0
  189.5910  175.1900  136.5700 C   0  0  0  0  0  2  0  0  0  0  0  0
  1 14  1  0  0  0  0
  1  9  1  0  0  0  0
  2  3  1  0  0  0  0
  3  7  1  0  0  0  0
  4 11  1  0  0  0  0
  5  2  1  0  0  0  0
  5 14  2  0  0  0  0
  6  1  2  0  0  0  0
  7  4  2  0  0  0  0
  8 12  2  0  0  0  0
  8 13  1  0  0  0  0
 10 19  1  0  0  0  0
 12 16  1  0  0  0  0
 13  2  2  0  0  0  0
 15  4  1  0  0  0  0
 16  5  1  0  0  0  0
 17 16  2  0  0  0  0
 17  6  1  0  0  0  0
 18 13  1  0  0  0  0
 18 10  1  0  0  0  0
 19  3  2  0  0  0  0
 19 20  1  0  0  0  0
 20 15  2  0  0  0  0
 21 22  2  0  0  0  0
 22 23  1  0  0  0  0
 23  8  1  0  0  0  0
 24 27  1  1  0  0  0
 24 28  1  0  0  0  0
 24 31  1  0  0  0  0
 25 30  1  0  0  0  0
 28 25  1  0  0  0  0
 29 30  1  0  0  0  0
 29 26  1  1  0  0  0
 30 22  1  1  0  0  0
 31 29  1  0  0  0  0
M  END
>  <MODEL>
1

>  <REMARK>
 VINA RESULT:     -10.9      0.000      0.000
  Name = 
  2 active torsions:
  status: ('A' for Active; 'I' for Inactive)
    1  A    between atoms: C_5  and  C_30
    2  A    between atoms: C_10  and  N_16
                            x       y       z     vdW  Elec       q    Type
                         _______ _______ _______ _____ _____    ______ ____

>  <TORSDO>
F 2

$$$$
=
 OpenBabel11122411143D

 31 35  0  0  1  0  0  0  0  0999 V2000
  181.7300  178.7630  143.0040 C   0  0  0  0  0  0  0  0  0  0  0  0
  185.4250  178.5660  142.3830 C   0  0  0  0  0  0  0  0  0  0  0  0
  186.0230  178.3150  143.7350 C   0  0  0  0  0  0  0  0  0  0  0  0
  186.0050  178.5840  146.1580 C   0  0  0  0  0  0  0  0  0  0  0  0
  184.0220  178.6880  142.1740 C   0  0  0  0  0  0  0  0  0  0  0  0
  181.2510  178.9080  141.7030 C   0  0  0  0  0  3  0  0  0  0  0  0
  185.4330  178.8220  144.9050 C   0  0  0  0  0  3  0  0  0  0  0  0
  185.7620  178.6770  139.9500 C   0  0  0  0  0  0  0  0  0  0  0  0
  180.8630  178.7330  144.0450 F   0  0  0  0  0  0  0  0  0  0  0  0
  187.9290  177.0840  142.6330 C   0  0  0  0  0  2  0  0  0  0  0  0
  185.4010  179.0860  147.3020 O   0  0  0  0  0  1  0  0  0  0  0  0
  184.3830  178.8060  139.7700 C   0  0  0  0  0  3  0  0  0  0  0  0
  186.2840  178.5740  141.2520 C   0  0  0  0  0  0  0  0  0  0  0  0
  183.1020  178.6500  143.2360 C   0  0  0  0  0  3  0  0  0  0  0  0
  187.1830  177.8420  146.2590 C   0  0  0  0  0  3  0  0  0  0  0  0
  183.5180  178.8180  140.8570 C   0  0  0  0  0  0  0  0  0  0  0  0
  182.1430  178.9320  140.6300 C   0  0  0  0  0  3  0  0  0  0  0  0
  188.0740  178.4690  141.4710 S   0  0  0  0  0  0  0  0  0  0  0  0
  187.2280  177.5850  143.8510 C   0  0  0  0  0  0  0  0  0  0  0  0
  187.7950  177.3470  145.1070 C   0  0  0  0  0  3  0  0  0  0  0  0
  185.7000  176.9260  137.5760 O   0  0  0  0  0  0  0  0  0  0  0  0
  186.6000  177.8020  137.6850 C   0  0  0  0  0  0  0  0  0  0  0  0
  186.6570  178.6670  138.8260 N   0  0  0  0  0  2  0  0  0  0  0  0
  189.8140  176.0710  136.8820 C   0  0  1  0  0  3  0  0  0  0  0  0
  187.7930  176.6780  135.7820 C   0  0  0  0  0  2  0  0  0  0  0  0
  188.8770  179.4960  138.0130 O   0  0  0  0  0  1  0  0  0  0  0  0
  190.5630  174.9400  137.5550 C   0  0  0  0  0  1  0  0  0  0  0  0
  188.4590  175.6280  136.5550 N   0  0  0  0  0  2  0  0  0  0  0  0
  189.0090  178.4130  137.1400 C   0  0  2  0  0  3  0  0  0  0  0  0
  187.6390  177.9580  136.6110 C   0  0  2  0  0  3  0  0  0  0  0  0
  189.7590  177.2720  137.8210 C   0  0  0  0  0  2  0  0  0  0  0  0
  1 14  1  0  0  0  0
  1  9  1  0  0  0  0
  2  3  1  0  0  0  0
  3 19  2  0  0  0  0
  3  7  1  0  0  0  0
  4 15  1  0  0  0  0
  4 11  1  0  0  0  0
  5  2  1  0  0  0  0
  5 14  2  0  0  0  0
  6  1  2  0  0  0  0
  7  4  2  0  0  0  0
  8 13  1  0  0  0  0
 10 19  1  0  0  0  0
 12  8  2  0  0  0  0
 12 16  1  0  0  0  0
 13 18  1  0  0  0  0
 13  2  2  0  0  0  0
 16  5  1  0  0  0  0
 17 16  2  0  0  0  0
 17  6  1  0  0  0  0
 18 10  1  0  0  0  0
 19 20  1  0  0  0  0
 20 15  2  0  0  0  0
 21 22  2  0  0  0  0
 22 23  1  0  0  0  0
 23  8  1  0  0  0  0
 24 27  1  1  0  0  0
 24 31  1  0  0  0  0
 25 28  1  0  0  0  0
 25 30  1  0  0  0  0
 28 24  1  0  0  0  0
 29 31  1  0  0  0  0
 29 26  1  1  0  0  0
 30 29  1  0  0  0  0
 30 22  1  1  0  0  0
M  END
>  <MODEL>
2

>  <REMARK>
 VINA RESULT:     -10.7      2.449      3.556
  Name = 
  2 active torsions:
  status: ('A' for Active; 'I' for Inactive)
    1  A    between atoms: C_5  and  C_30
    2  A    between atoms: C_10  and  N_16
                            x       y       z     vdW  Elec       q    Type
                         _______ _______ _______ _____ _____    ______ ____

>  <TORSDO>
F 2

$$$$
=
 OpenBabel11122411143D

 31 35  0  0  1  0  0  0  0  0999 V2000
  186.4050  177.9850  147.1910 C   0  0  0  0  0  0  0  0  0  0  0  0
  187.7620  178.0380  143.6930 C   0  0  0  0  0  0  0  0  0  0  0  0
  189.1220  177.4150  143.8050 C   0  0  0  0  0  0  0  0  0  0  0  0
  191.1650  176.9680  145.0570 C   0  0  0  0  0  0  0  0  0  0  0  0
  186.8930  178.1910  144.8100 C   0  0  0  0  0  0  0  0  0  0  0  0
  185.1230  178.4940  146.9840 C   0  0  0  0  0  3  0  0  0  0  0  0
  189.8980  177.5500  144.9680 C   0  0  0  0  0  3  0  0  0  0  0  0
  185.9660  178.8550  142.2270 C   0  0  0  0  0  0  0  0  0  0  0  0
  186.8020  177.6400  148.4390 F   0  0  0  0  0  0  0  0  0  0  0  0
  188.9090  176.5880  141.4310 C   0  0  0  0  0  2  0  0  0  0  0  0
  191.9120  177.1060  146.2180 O   0  0  0  0  0  1  0  0  0  0  0  0
  185.1350  179.0080  143.3380 C   0  0  0  0  0  3  0  0  0  0  0  0
  187.2810  178.3880  142.4040 C   0  0  0  0  0  0  0  0  0  0  0  0
  187.2790  177.8320  146.1130 C   0  0  0  0  0  3  0  0  0  0  0  0
  191.6810  176.2480  143.9780 C   0  0  0  0  0  3  0  0  0  0  0  0
  185.5820  178.6900  144.6150 C   0  0  0  0  0  0  0  0  0  0  0  0
  184.7110  178.8420  145.6970 C   0  0  0  0  0  3  0  0  0  0  0  0
  188.3620  178.2530  140.9630 S   0  0  0  0  0  0  0  0  0  0  0  0
  189.6660  176.7020  142.7120 C   0  0  0  0  0  0  0  0  0  0  0  0
  190.9330  176.1190  142.8060 C   0  0  0  0  0  3  0  0  0  0  0  0
  183.7090  177.6860  140.7280 O   0  0  0  0  0  0  0  0  0  0  0  0
  184.4020  178.5990  140.2050 C   0  0  0  0  0  0  0  0  0  0  0  0
  185.5050  179.1860  140.9070 N   0  0  0  0  0  2  0  0  0  0  0  0
  181.9290  177.6180  137.5790 C   0  0  1  0  0  3  0  0  0  0  0  0
  182.6340  179.5850  138.7180 C   0  0  0  0  0  2  0  0  0  0  0  0
  185.6420  177.5030  137.8760 O   0  0  0  0  0  1  0  0  0  0  0  0
  180.8740  176.5340  137.5220 C   0  0  0  0  0  1  0  0  0  0  0  0
  181.6960  178.4620  138.7500 N   0  0  0  0  0  2  0  0  0  0  0  0
  184.3750  178.0680  137.7170 C   0  0  2  0  0  3  0  0  0  0  0  0
  184.0830  179.0950  138.8230 C   0  0  2  0  0  3  0  0  0  0  0  0
  183.3110  176.9750  137.6650 C   0  0  0  0  0  2  0  0  0  0  0  0
  1  9  1  0  0  0  0
  2  3  1  0  0  0  0
  2  5  1  0  0  0  0
  3  7  1  0  0  0  0
  4 11  1  0  0  0  0
  5 14  1  0  0  0  0
  6  1  1  0  0  0  0
  7  4  2  0  0  0  0
  8 13  1  0  0  0  0
  8 12  2  0  0  0  0
 10 19  1  0  0  0  0
 12 16  1  0  0  0  0
 13  2  2  0  0  0  0
 14  1  2  0  0  0  0
 15  4  1  0  0  0  0
 16  5  2  0  0  0  0
 16 17  1  0  0  0  0
 17  6  2  0  0  0  0
 18 10  1  0  0  0  0
 18 13  1  0  0  0  0
 19 20  1  0  0  0  0
 19  3  2  0  0  0  0
 20 15  2  0  0  0  0
 22 21  2  0  0  0  0
 22 23  1  0  0  0  0
 23  8  1  0  0  0  0
 24 27  1  1  0  0  0
 24 31  1  0  0  0  0
 24 28  1  0  0  0  0
 25 28  1  0  0  0  0
 25 30  1  0  0  0  0
 29 26  1  1  0  0  0
 29 30  1  0  0  0  0
 30 22  1  1  0  0  0
 31 29  1  0  0  0  0
M  END
>  <MODEL>
3

>  <REMARK>
 VINA RESULT:     -10.3      3.314      4.414
  Name = 
  2 active torsions:
  status: ('A' for Active; 'I' for Inactive)
    1  A    between atoms: C_5  and  C_30
    2  A    between atoms: C_10  and  N_16
                            x       y       z     vdW  Elec       q    Type
                         _______ _______ _______ _____ _____    ______ ____

>  <TORSDO>
F 2

$$$$
=
 OpenBabel11122411143D

 31 35  0  0  1  0  0  0  0  0999 V2000
  190.1050  177.1890  146.5370 C   0  0  0  0  0  0  0  0  0  0  0  0
  187.7960  177.6830  143.6220 C   0  0  0  0  0  0  0  0  0  0  0  0
  186.5180  178.1820  144.2310 C   0  0  0  0  0  0  0  0  0  0  0  0
  184.9190  178.2540  146.0680 C   0  0  0  0  0  0  0  0  0  0  0  0
  188.9520  177.3880  144.3970 C   0  0  0  0  0  0  0  0  0  0  0  0
  191.2780  176.8140  145.8840 C   0  0  0  0  0  3  0  0  0  0  0  0
  186.1130  177.7850  145.5160 C   0  0  0  0  0  3  0  0  0  0  0  0
  189.1010  177.2700  141.5800 C   0  0  0  0  0  0  0  0  0  0  0  0
  190.0810  177.2740  147.8890 F   0  0  0  0  0  0  0  0  0  0  0  0
  186.0260  179.4400  142.1000 C   0  0  0  0  0  2  0  0  0  0  0  0
  184.5410  177.8560  147.3440 O   0  0  0  0  0  1  0  0  0  0  0  0
  190.2200  176.9740  142.3610 C   0  0  0  0  0  3  0  0  0  0  0  0
  187.8880  177.6080  142.2070 C   0  0  0  0  0  0  0  0  0  0  0  0
  188.9550  177.4770  145.8000 C   0  0  0  0  0  3  0  0  0  0  0  0
  184.1050  179.1220  145.3390 C   0  0  0  0  0  3  0  0  0  0  0  0
  190.1570  177.0230  143.7480 C   0  0  0  0  0  0  0  0  0  0  0  0
  191.3060  176.7350  144.4910 C   0  0  0  0  0  3  0  0  0  0  0  0
  186.4340  177.9300  141.1840 S   0  0  0  0  0  0  0  0  0  0  0  0
  185.6730  179.0440  143.4950 C   0  0  0  0  0  0  0  0  0  0  0  0
  184.4800  179.5130  144.0530 C   0  0  0  0  0  3  0  0  0  0  0  0
  191.4750  177.5030  139.8430 O   0  0  0  0  0  0  0  0  0  0  0  0
  190.3370  177.3330  139.3280 C   0  0  0  0  0  0  0  0  0  0  0  0
  189.1650  177.2170  140.1460 N   0  0  0  0  0  2  0  0  0  0  0  0
  187.4180  177.2190  136.9980 C   0  0  1  0  0  3  0  0  0  0  0  0
  189.4300  178.4580  137.2740 C   0  0  0  0  0  2  0  0  0  0  0  0
  190.1090  174.8310  137.9680 O   0  0  0  0  0  1  0  0  0  0  0  0
  185.9220  177.2240  137.2300 C   0  0  0  0  0  1  0  0  0  0  0  0
  188.0100  178.4000  137.6240 N   0  0  0  0  0  2  0  0  0  0  0  0
  189.5260  175.9440  137.3580 C   0  0  2  0  0  3  0  0  0  0  0  0
  190.1850  177.2480  137.8360 C   0  0  2  0  0  3  0  0  0  0  0  0
  188.0190  175.9510  137.5970 C   0  0  0  0  0  2  0  0  0  0  0  0
  1  9  1  0  0  0  0
  2  3  1  0  0  0  0
  2  5  1  0  0  0  0
  3  7  1  0  0  0  0
  4 11  1  0  0  0  0
  5 14  1  0  0  0  0
  6  1  1  0  0  0  0
  7  4  2  0  0  0  0
  8 13  1  0  0  0  0
  8 12  2  0  0  0  0
 10 19  1  0  0  0  0
 12 16  1  0  0  0  0
 13  2  2  0  0  0  0
 14  1  2  0  0  0  0
 15  4  1  0  0  0  0
 16  5  2  0  0  0  0
 16 17  1  0  0  0  0
 17  6  2  0  0  0  0
 18 10  1  0  0  0  0
 18 13  1  0  0  0  0
 19 20  1  0  0  0  0
 19  3  2  0  0  0  0
 20 15  2  0  0  0  0
 22 21  2  0  0  0  0
 22 23  1  0  0  0  0
 23  8  1  0  0  0  0
 24 27  1  1  0  0  0
 24 31  1  0  0  0  0
 24 28  1  0  0  0  0
 25 28  1  0  0  0  0
 25 30  1  0  0  0  0
 29 31  1  0  0  0  0
 29 30  1  0  0  0  0
 29 26  1  1  0  0  0
 30 22  1  1  0  0  0
M  END
>  <MODEL>
4

>  <REMARK>
 VINA RESULT:      -9.9      2.149      4.166
  Name = 
  2 active torsions:
  status: ('A' for Active; 'I' for Inactive)
    1  A    between atoms: C_5  and  C_30
    2  A    between atoms: C_10  and  N_16
                            x       y       z     vdW  Elec       q    Type
                         _______ _______ _______ _____ _____    ______ ____

>  <TORSDO>
F 2

$$$$
=
 OpenBabel11122411143D

 31 35  0  0  1  0  0  0  0  0999 V2000
  189.5650  177.8850  141.5090 C   0  0  0  0  0  0  0  0  0  0  0  0
  186.1490  178.2770  143.0110 C   0  0  0  0  0  0  0  0  0  0  0  0
  186.3810  178.2460  144.4930 C   0  0  0  0  0  0  0  0  0  0  0  0
  187.6240  177.4700  146.4400 C   0  0  0  0  0  0  0  0  0  0  0  0
  187.2080  178.1770  142.0650 C   0  0  0  0  0  0  0  0  0  0  0  0
  189.2720  178.0100  140.1520 C   0  0  0  0  0  3  0  0  0  0  0  0
  187.4230  177.4930  145.0580 C   0  0  0  0  0  3  0  0  0  0  0  0
  184.5820  178.6900  141.1620 C   0  0  0  0  0  0  0  0  0  0  0  0
  190.8420  177.6780  141.9100 F   0  0  0  0  0  0  0  0  0  0  0  0
  184.3570  179.7180  144.8120 C   0  0  0  0  0  2  0  0  0  0  0  0
  188.6660  176.7270  146.9780 O   0  0  0  0  0  1  0  0  0  0  0  0
  185.6350  178.5770  140.2520 C   0  0  0  0  0  3  0  0  0  0  0  0
  184.8340  178.5240  142.5360 C   0  0  0  0  0  0  0  0  0  0  0  0
  188.5420  177.9710  142.4560 C   0  0  0  0  0  3  0  0  0  0  0  0
  186.7790  178.1960  147.2820 C   0  0  0  0  0  3  0  0  0  0  0  0
  186.9300  178.3190  140.6840 C   0  0  0  0  0  0  0  0  0  0  0  0
  187.9570  178.2300  139.7400 C   0  0  0  0  0  3  0  0  0  0  0  0
  183.4510  178.6140  143.6950 S   0  0  0  0  0  0  0  0  0  0  0  0
  185.5190  178.9580  145.3590 C   0  0  0  0  0  0  0  0  0  0  0  0
  185.7260  178.9350  146.7410 C   0  0  0  0  0  3  0  0  0  0  0  0
  182.6160  176.7930  140.0470 O   0  0  0  0  0  0  0  0  0  0  0  0
  182.3090  178.0090  140.1770 C   0  0  0  0  0  0  0  0  0  0  0  0
  183.2430  178.9550  140.7150 N   0  0  0  0  0  2  0  0  0  0  0  0
  179.3280  179.2980  142.0250 C   0  0  1  0  0  3  0  0  0  0  0  0
  180.7120  179.9470  140.2010 C   0  0  0  0  0  2  0  0  0  0  0  0
  180.0610  176.2540  140.0050 O   0  0  0  0  0  1  0  0  0  0  0  0
  179.0470  179.5060  143.4980 C   0  0  0  0  0  1  0  0  0  0  0  0
  180.5310  180.0390  141.6510 N   0  0  0  0  0  2  0  0  0  0  0  0
  179.8000  177.6010  140.2650 C   0  0  2  0  0  3  0  0  0  0  0  0
  180.9480  178.4940  139.7690 C   0  0  2  0  0  3  0  0  0  0  0  0
  179.5240  177.8100  141.7510 C   0  0  0  0  0  2  0  0  0  0  0  0
  1  9  1  0  0  0  0
  1 14  1  0  0  0  0
  2  3  1  0  0  0  0
  3  7  2  0  0  0  0
  3 19  1  0  0  0  0
  4 11  1  0  0  0  0
  4 15  2  0  0  0  0
  5 14  2  0  0  0  0
  5  2  1  0  0  0  0
  6  1  2  0  0  0  0
  7  4  1  0  0  0  0
  8 13  1  0  0  0  0
 10 19  1  0  0  0  0
 12 16  1  0  0  0  0
 12  8  2  0  0  0  0
 13  2  2  0  0  0  0
 13 18  1  0  0  0  0
 16  5  1  0  0  0  0
 17  6  1  0  0  0  0
 17 16  2  0  0  0  0
 18 10  1  0  0  0  0
 19 20  2  0  0  0  0
 20 15  1  0  0  0  0
 21 22  2  0  0  0  0
 22 23  1  0  0  0  0
 23  8  1  0  0  0  0
 24 27  1  1  0  0  0
 25 28  1  0  0  0  0
 28 24  1  0  0  0  0
 29 26  1  1  0  0  0
 29 31  1  0  0  0  0
 30 22  1  1  0  0  0
 30 25  1  0  0  0  0
 30 29  1  0  0  0  0
 31 24  1  0  0  0  0
M  END
>  <MODEL>
5

>  <REMARK>
 VINA RESULT:      -9.7      4.335      7.110
  Name = 
  2 active torsions:
  status: ('A' for Active; 'I' for Inactive)
    1  A    between atoms: C_5  and  C_30
    2  A    between atoms: C_10  and  N_16
                            x       y       z     vdW  Elec       q    Type
                         _______ _______ _______ _____ _____    ______ ____

>  <TORSDO>
F 2

$$$$
=
 OpenBabel11122411143D

 31 35  0  0  1  0  0  0  0  0999 V2000
  190.1410  177.6190  141.8700 C   0  0  0  0  0  0  0  0  0  0  0  0
  186.9240  178.0430  143.7550 C   0  0  0  0  0  0  0  0  0  0  0  0
  187.3090  177.8960  145.1980 C   0  0  0  0  0  0  0  0  0  0  0  0
  188.7100  176.9300  146.9430 C   0  0  0  0  0  0  0  0  0  0  0  0
  187.8720  177.9680  142.6960 C   0  0  0  0  0  0  0  0  0  0  0  0
  189.7140  177.8540  140.5640 C   0  0  0  0  0  3  0  0  0  0  0  0
  188.3660  177.0610  145.5950 C   0  0  0  0  0  3  0  0  0  0  0  0
  185.1950  178.6540  142.1180 C   0  0  0  0  0  0  0  0  0  0  0  0
  191.4410  177.3310  142.1150 F   0  0  0  0  0  0  0  0  0  0  0  0
  185.4030  179.4240  145.8320 C   0  0  0  0  0  2  0  0  0  0  0  0
  189.7640  176.1070  147.3130 O   0  0  0  0  0  1  0  0  0  0  0  0
  186.1400  178.5630  141.0940 C   0  0  0  0  0  3  0  0  0  0  0  0
  185.5800  178.3790  143.4420 C   0  0  0  0  0  0  0  0  0  0  0  0
  189.2290  177.6790  142.9260 C   0  0  0  0  0  3  0  0  0  0  0  0
  187.9940  177.6270  147.9170 C   0  0  0  0  0  3  0  0  0  0  0  0
  187.4590  178.2210  141.3650 C   0  0  0  0  0  0  0  0  0  0  0  0
  188.3750  178.1580  140.3120 C   0  0  0  0  0  3  0  0  0  0  0  0
  184.3330  178.4410  144.7470 S   0  0  0  0  0  0  0  0  0  0  0  0
  186.5780  178.5780  146.1970 C   0  0  0  0  0  0  0  0  0  0  0  0
  186.9270  178.4470  147.5450 C   0  0  0  0  0  3  0  0  0  0  0  0
  183.2570  177.2400  140.3990 O   0  0  0  0  0  0  0  0  0  0  0  0
  182.9120  178.2950  140.9960 C   0  0  0  0  0  0  0  0  0  0  0  0
  183.8300  179.0050  141.8370 N   0  0  0  0  0  2  0  0  0  0  0  0
  179.9170  177.2630  139.0120 C   0  0  1  0  0  3  0  0  0  0  0  0
  180.4620  177.8090  141.2640 C   0  0  0  0  0  2  0  0  0  0  0  0
  182.2390  180.1770  138.9540 O   0  0  0  0  0  1  0  0  0  0  0  0
  179.6750  176.1280  138.0400 C   0  0  0  0  0  1  0  0  0  0  0  0
  180.3670  176.7180  140.2920 N   0  0  0  0  0  2  0  0  0  0  0  0
  181.2150  179.3490  139.4200 C   0  0  2  0  0  3  0  0  0  0  0  0
  181.5190  178.8350  140.8360 C   0  0  2  0  0  3  0  0  0  0  0  0
  180.9770  178.2020  138.4420 C   0  0  0  0  0  2  0  0  0  0  0  0
  1  9  1  0  0  0  0
  1 14  1  0  0  0  0
  2  3  1  0  0  0  0
  3  7  2  0  0  0  0
  3 19  1  0  0  0  0
  4 11  1  0  0  0  0
  4 15  2  0  0  0  0
  5 14  2  0  0  0  0
  5  2  1  0  0  0  0
  6  1  2  0  0  0  0
  7  4  1  0  0  0  0
  8 13  1  0  0  0  0
 10 19  1  0  0  0  0
 12 16  1  0  0  0  0
 12  8  2  0  0  0  0
 13  2  2  0  0  0  0
 13 18  1  0  0  0  0
 16  5  1  0  0  0  0
 17  6  1  0  0  0  0
 17 16  2  0  0  0  0
 18 10  1  0  0  0  0
 19 20  2  0  0  0  0
 20 15  1  0  0  0  0
 21 22  2  0  0  0  0
 22 23  1  0  0  0  0
 23  8  1  0  0  0  0
 24 27  1  6  0  0  0
 24 28  1  0  0  0  0
 28 25  1  0  0  0  0
 29 26  1  6  0  0  0
 29 30  1  0  0  0  0
 30 22  1  6  0  0  0
 30 25  1  0  0  0  0
 31 24  1  0  0  0  0
 31 29  1  0  0  0  0
M  END
>  <MODEL>
6

>  <REMARK>
 VINA RESULT:      -9.5      4.223      6.279
  Name = 
  2 active torsions:
  status: ('A' for Active; 'I' for Inactive)
    1  A    between atoms: C_5  and  C_30
    2  A    between atoms: C_10  and  N_16
                            x       y       z     vdW  Elec       q    Type
                         _______ _______ _______ _____ _____    ______ ____

>  <TORSDO>
F 2

$$$$
=
 OpenBabel11122411143D

 31 35  0  0  1  0  0  0  0  0999 V2000
  190.8330  177.0160  144.6840 C   0  0  0  0  0  0  0  0  0  0  0  0
  189.4780  177.6630  141.2460 C   0  0  0  0  0  0  0  0  0  0  0  0
  190.6030  177.3000  140.3210 C   0  0  0  0  0  0  0  0  0  0  0  0
  192.9830  177.1280  139.8240 C   0  0  0  0  0  0  0  0  0  0  0  0
  189.5770  177.5400  142.6600 C   0  0  0  0  0  0  0  0  0  0  0  0
  189.7110  177.2910  145.4650 C   0  0  0  0  0  3  0  0  0  0  0  0
  191.9460  177.4660  140.6970 C   0  0  0  0  0  3  0  0  0  0  0  0
  187.1080  178.2640  141.4970 C   0  0  0  0  0  0  0  0  0  0  0  0
  191.9910  176.6320  145.2740 F   0  0  0  0  0  0  0  0  0  0  0  0
  188.9120  176.6820  138.5530 C   0  0  0  0  0  2  0  0  0  0  0  0
  194.3030  177.2910  140.2190 O   0  0  0  0  0  1  0  0  0  0  0  0
  187.2310  178.1490  142.8830 C   0  0  0  0  0  3  0  0  0  0  0  0
  188.2310  178.0380  140.6810 C   0  0  0  0  0  0  0  0  0  0  0  0
  190.7640  177.1360  143.2950 C   0  0  0  0  0  3  0  0  0  0  0  0
  192.6920  176.6260  138.5550 C   0  0  0  0  0  3  0  0  0  0  0  0
  188.4420  177.7990  143.4670 C   0  0  0  0  0  0  0  0  0  0  0  0
  188.5170  177.6780  144.8580 C   0  0  0  0  0  3  0  0  0  0  0  0
  188.0690  178.2510  138.8940 S   0  0  0  0  0  0  0  0  0  0  0  0
  190.3220  176.8120  139.0240 C   0  0  0  0  0  0  0  0  0  0  0  0
  191.3630  176.4720  138.1540 C   0  0  0  0  0  3  0  0  0  0  0  0
  184.3830  177.9030  142.5700 O   0  0  0  0  0  0  0  0  0  0  0  0
  184.5450  178.4400  141.4420 C   0  0  0  0  0  0  0  0  0  0  0  0
  185.8560  178.6290  140.8940 N   0  0  0  0  0  2  0  0  0  0  0  0
  182.7360  177.1160  138.4520 C   0  0  1  0  0  3  0  0  0  0  0  0
  182.2320  177.8570  140.6560 C   0  0  0  0  0  2  0  0  0  0  0  0
  184.8170  180.1270  139.1520 O   0  0  0  0  0  1  0  0  0  0  0  0
  182.9580  175.9010  137.5770 C   0  0  0  0  0  1  0  0  0  0  0  0
  182.5850  176.6920  139.8420 N   0  0  0  0  0  2  0  0  0  0  0  0
  183.7020  179.2870  139.1970 C   0  0  2  0  0  3  0  0  0  0  0  0
  183.3580  178.8970  140.6430 C   0  0  2  0  0  3  0  0  0  0  0  0
  183.9290  178.0600  138.3190 C   0  0  0  0  0  2  0  0  0  0  0  0
  1  9  1  0  0  0  0
  1  6  1  0  0  0  0
  2  5  1  0  0  0  0
  3  7  1  0  0  0  0
  3  2  1  0  0  0  0
  4 11  1  0  0  0  0
  4  7  2  0  0  0  0
  5 14  1  0  0  0  0
  5 16  2  0  0  0  0
  8 12  2  0  0  0  0
 10 18  1  0  0  0  0
 10 19  1  0  0  0  0
 12 16  1  0  0  0  0
 13  2  2  0  0  0  0
 13  8  1  0  0  0  0
 14  1  2  0  0  0  0
 15  4  1  0  0  0  0
 16 17  1  0  0  0  0
 17  6  2  0  0  0  0
 18 13  1  0  0  0  0
 19  3  2  0  0  0  0
 20 15  2  0  0  0  0
 20 19  1  0  0  0  0
 22 21  2  0  0  0  0
 23 22  1  0  0  0  0
 23  8  1  0  0  0  0
 24 27  1  6  0  0  0
 24 28  1  0  0  0  0
 28 25  1  0  0  0  0
 29 26  1  1  0  0  0
 29 30  1  0  0  0  0
 30 25  1  0  0  0  0
 30 22  1  6  0  0  0
 31 24  1  0  0  0  0
 31 29  1  0  0  0  0
M  END
>  <MODEL>
7

>  <REMARK>
 VINA RESULT:      -9.2      3.466      6.088
  Name = 
  2 active torsions:
  status: ('A' for Active; 'I' for Inactive)
    1  A    between atoms: C_5  and  C_30
    2  A    between atoms: C_10  and  N_16
                            x       y       z     vdW  Elec       q    Type
                         _______ _______ _______ _____ _____    ______ ____

>  <TORSDO>
F 2

$$$$
=
 OpenBabel11122411143D

 31 35  0  0  1  0  0  0  0  0999 V2000
  190.5220  176.9710  144.4270 C   0  0  0  0  0  0  0  0  0  0  0  0
  189.4400  177.6970  140.9090 C   0  0  0  0  0  0  0  0  0  0  0  0
  190.6110  177.2930  140.0620 C   0  0  0  0  0  0  0  0  0  0  0  0
  193.0100  177.0240  139.7310 C   0  0  0  0  0  0  0  0  0  0  0  0
  189.4340  177.5620  142.3260 C   0  0  0  0  0  0  0  0  0  0  0  0
  189.3610  177.2890  145.1310 C   0  0  0  0  0  3  0  0  0  0  0  0
  191.9300  177.3990  140.5330 C   0  0  0  0  0  3  0  0  0  0  0  0
  187.0860  178.3980  141.0000 C   0  0  0  0  0  0  0  0  0  0  0  0
  191.6190  176.5350  145.0930 F   0  0  0  0  0  0  0  0  0  0  0  0
  189.0240  176.7590  138.1740 C   0  0  0  0  0  2  0  0  0  0  0  0
  194.3060  177.1280  140.2190 O   0  0  0  0  0  1  0  0  0  0  0  0
  187.1060  178.2680  142.3900 C   0  0  0  0  0  3  0  0  0  0  0  0
  188.2530  178.1290  140.2620 C   0  0  0  0  0  0  0  0  0  0  0  0
  190.5560  177.1030  143.0380 C   0  0  0  0  0  3  0  0  0  0  0  0
  192.7890  176.5430  138.4390 C   0  0  0  0  0  3  0  0  0  0  0  0
  188.2580  177.8630  143.0540 C   0  0  0  0  0  0  0  0  0  0  0  0
  188.2290  177.7310  144.4450 C   0  0  0  0  0  3  0  0  0  0  0  0
  188.2260  178.3600  138.4700 S   0  0  0  0  0  0  0  0  0  0  0  0
  190.4020  176.8260  138.7430 C   0  0  0  0  0  0  0  0  0  0  0  0
  191.4860  176.4480  137.9460 C   0  0  0  0  0  3  0  0  0  0  0  0
  184.2730  177.8780  141.7240 O   0  0  0  0  0  0  0  0  0  0  0  0
  184.5390  178.5500  140.6920 C   0  0  0  0  0  0  0  0  0  0  0  0
  185.8960  178.8190  140.3140 N   0  0  0  0  0  2  0  0  0  0  0  0
  181.2150  177.2480  139.5890 C   0  0  1  0  0  3  0  0  0  0  0  0
  182.1150  179.2010  140.6080 C   0  0  0  0  0  2  0  0  0  0  0  0
  184.4270  178.0550  137.8800 O   0  0  0  0  0  1  0  0  0  0  0  0
  180.4910  175.9430  139.8430 C   0  0  0  0  0  1  0  0  0  0  0  0
  181.5440  177.8780  140.8660 N   0  0  0  0  0  2  0  0  0  0  0  0
  183.2160  178.2900  138.5350 C   0  0  2  0  0  3  0  0  0  0  0  0
  183.4320  179.0880  139.8310 C   0  0  2  0  0  3  0  0  0  0  0  0
  182.4900  176.9740  138.7970 C   0  0  0  0  0  2  0  0  0  0  0  0
  1  9  1  0  0  0  0
  1  6  1  0  0  0  0
  2  5  1  0  0  0  0
  3  7  1  0  0  0  0
  3  2  1  0  0  0  0
  4 11  1  0  0  0  0
  4  7  2  0  0  0  0
  5 14  1  0  0  0  0
  5 16  2  0  0  0  0
  8 12  2  0  0  0  0
 10 18  1  0  0  0  0
 10 19  1  0  0  0  0
 12 16  1  0  0  0  0
 13  2  2  0  0  0  0
 13  8  1  0  0  0  0
 14  1  2  0  0  0  0
 15  4  1  0  0  0  0
 16 17  1  0  0  0  0
 17  6  2  0  0  0  0
 18 13  1  0  0  0  0
 19  3  2  0  0  0  0
 20 15  2  0  0  0  0
 20 19  1  0  0  0  0
 22 21  2  0  0  0  0
 23 22  1  0  0  0  0
 23  8  1  0  0  0  0
 24 27  1  1  0  0  0
 24 28  1  0  0  0  0
 25 28  1  0  0  0  0
 29 26  1  1  0  0  0
 29 31  1  0  0  0  0
 29 30  1  0  0  0  0
 30 25  1  0  0  0  0
 30 22  1  1  0  0  0
 31 24  1  0  0  0  0
M  END
>  <MODEL>
8

>  <REMARK>
 VINA RESULT:      -9.0      3.573      6.353
  Name = 
  2 active torsions:
  status: ('A' for Active; 'I' for Inactive)
    1  A    between atoms: C_5  and  C_30
    2  A    between atoms: C_10  and  N_16
                            x       y       z     vdW  Elec       q    Type
                         _______ _______ _______ _____ _____    ______ ____

>  <TORSDO>
F 2

$$$$
=
 OpenBabel11122411143D

 31 35  0  0  1  0  0  0  0  0999 V2000
  191.2000  177.5240  144.2540 C   0  0  0  0  0  0  0  0  0  0  0  0
  187.6990  178.0140  142.9970 C   0  0  0  0  0  0  0  0  0  0  0  0
  186.8740  178.2020  144.2360 C   0  0  0  0  0  0  0  0  0  0  0  0
  186.4310  177.7530  146.5900 C   0  0  0  0  0  0  0  0  0  0  0  0
  189.1080  177.8150  143.0340 C   0  0  0  0  0  0  0  0  0  0  0  0
  191.9030  177.4450  143.0530 C   0  0  0  0  0  3  0  0  0  0  0  0
  187.2110  177.5720  145.4450 C   0  0  0  0  0  3  0  0  0  0  0  0
  187.8120  178.1080  140.5430 C   0  0  0  0  0  0  0  0  0  0  0  0
  191.8600  177.4190  145.4330 F   0  0  0  0  0  0  0  0  0  0  0  0
  185.2720  179.6380  142.9170 C   0  0  0  0  0  2  0  0  0  0  0  0
  186.7860  177.1280  147.7770 O   0  0  0  0  0  1  0  0  0  0  0  0
  189.1920  177.9010  140.6030 C   0  0  0  0  0  3  0  0  0  0  0  0
  187.0650  178.1480  141.7340 C   0  0  0  0  0  0  0  0  0  0  0  0
  189.8160  177.7110  144.2440 C   0  0  0  0  0  3  0  0  0  0  0  0
  185.2950  178.5620  146.5410 C   0  0  0  0  0  3  0  0  0  0  0  0
  189.8400  177.7500  141.8240 C   0  0  0  0  0  0  0  0  0  0  0  0
  191.2240  177.5620  141.8390 C   0  0  0  0  0  3  0  0  0  0  0  0
  185.2730  178.3560  141.6340 S   0  0  0  0  0  0  0  0  0  0  0  0
  185.7090  179.0010  144.1950 C   0  0  0  0  0  0  0  0  0  0  0  0
  184.9330  179.1820  145.3440 C   0  0  0  0  0  3  0  0  0  0  0  0
  188.0750  176.4510  138.1160 O   0  0  0  0  0  0  0  0  0  0  0  0
  187.2910  177.4380  138.1180 C   0  0  0  0  0  0  0  0  0  0  0  0
  187.1420  178.2620  139.2810 N   0  0  0  0  0  2  0  0  0  0  0  0
  185.7210  175.4250  135.3890 C   0  0  1  0  0  3  0  0  0  0  0  0
  185.1000  177.1270  136.9310 C   0  0  0  0  0  2  0  0  0  0  0  0
  188.5200  177.8780  135.5770 O   0  0  0  0  0  1  0  0  0  0  0  0
  185.6810  173.9380  135.1070 C   0  0  0  0  0  1  0  0  0  0  0  0
  185.1870  175.6800  136.7250 N   0  0  0  0  0  2  0  0  0  0  0  0
  187.2010  177.4190  135.5760 C   0  0  2  0  0  3  0  0  0  0  0  0
  186.4900  177.7720  136.8920 C   0  0  2  0  0  3  0  0  0  0  0  0
  187.1620  175.9190  135.2980 C   0  0  0  0  0  2  0  0  0  0  0  0
  1  9  1  0  0  0  0
  2  5  1  0  0  0  0
  2  3  1  0  0  0  0
  3  7  1  0  0  0  0
  4 11  1  0  0  0  0
  5 14  2  0  0  0  0
  6  1  2  0  0  0  0
  7  4  2  0  0  0  0
  8 12  2  0  0  0  0
  8 13  1  0  0  0  0
 10 19  1  0  0  0  0
 12 16  1  0  0  0  0
 13  2  2  0  0  0  0
 14  1  1  0  0  0  0
 15  4  1  0  0  0  0
 16 17  2  0  0  0  0
 16  5  1  0  0  0  0
 17  6  1  0  0  0  0
 18 13  1  0  0  0  0
 18 10  1  0  0  0  0
 19  3  2  0  0  0  0
 19 20  1  0  0  0  0
 20 15  2  0  0  0  0
 21 22  2  0  0  0  0
 22 23  1  0  0  0  0
 23  8  1  0  0  0  0
 24 27  1  1  0  0  0
 24 28  1  0  0  0  0
 28 25  1  0  0  0  0
 29 26  1  1  0  0  0
 29 30  1  0  0  0  0
 30 25  1  0  0  0  0
 30 22  1  1  0  0  0
 31 24  1  0  0  0  0
 31 29  1  0  0  0  0
M  END
>  <MODEL>
9

>  <REMARK>
 VINA RESULT:      -8.9      2.665      4.326
  Name = 
  2 active torsions:
  status: ('A' for Active; 'I' for Inactive)
    1  A    between atoms: C_5  and  C_30
    2  A    between atoms: C_10  and  N_16
                            x       y       z     vdW  Elec       q    Type
                         _______ _______ _______ _____ _____    ______ ____

>  <TORSDO>
F 2

$$$$
