=
 OpenBabel11122411593D

 28 33  0  0  1  0  0  0  0  0999 V2000
  191.1130  174.4640  137.3810 C   0  0  0  0  0  0  0  0  0  0  0  0
  190.2730  175.9550  141.2280 O   0  0  0  0  0  0  0  0  0  0  0  0
  185.7350  176.8120  137.7650 C   0  0  0  0  0  1  0  0  0  0  0  0
  193.6650  175.4480  137.9810 C   0  0  0  0  0  3  0  0  0  0  0  0
  187.3360  178.5830  137.0950 C   0  0  1  0  0  3  0  0  0  0  0  0
  189.7460  173.9800  136.9980 C   0  0  1  0  0  3  0  0  0  0  0  0
  191.8780  177.8080  141.3890 O   0  0  0  0  0  0  0  0  0  0  0  0
  190.4980  177.4150  140.9490 S   0  0  0  0  0  0  0  0  0  0  0  0
  187.9970  178.2800  141.0630 C   0  0  0  0  0  0  0  0  0  0  0  0
  190.2860  177.7800  139.2090 C   0  0  2  0  0  3  0  0  0  0  0  0
  190.3750  175.3230  134.9800 O   0  0  0  0  0  1  0  0  0  0  0  0
  189.2010  177.0400  137.1570 C   0  0  2  0  0  3  0  0  0  0  0  0
  187.9530  178.3910  139.7780 N   0  0  0  0  0  0  0  0  0  0  0  0
  189.2890  178.3870  141.8100 C   0  0  0  0  0  2  0  0  0  0  0  0
  189.3610  174.6530  135.6750 C   0  0  2  0  0  0  0  0  0  0  0  0
  191.2460  175.7380  137.9850 C   0  0  0  0  0  0  0  0  0  0  0  0
  186.8650  177.1670  136.8190 C   0  0  1  0  0  3  0  0  0  0  0  0
  186.7600  177.9210  141.8090 C   0  0  0  0  0  1  0  0  0  0  0  0
  188.0270  175.3820  135.8140 C   0  0  0  0  0  2  0  0  0  0  0  0
  192.5360  176.2180  138.2720 C   0  0  0  0  0  3  0  0  0  0  0  0
  192.2490  173.6940  137.1020 C   0  0  0  0  0  3  0  0  0  0  0  0
  193.5220  174.1850  137.4030 C   0  0  0  0  0  3  0  0  0  0  0  0
  189.5530  173.1560  135.7260 C   0  0  0  0  0  2  0  0  0  0  0  0
  188.8000  178.4710  137.4620 C   0  0  2  0  0  3  0  0  0  0  0  0
  187.9760  176.2380  137.0120 N   0  0  1  0  0  0  0  0  0  0  0  0
  189.1050  178.7160  138.9440 C   0  0  2  0  0  3  0  0  0  0  0  0
  187.1930  179.4150  135.8370 C   0  0  0  0  0  1  0  0  0  0  0  0
  190.0110  176.5450  138.3630 C   0  0  1  0  0  3  0  0  0  0  0  0
  1 16  1  0  0  0  0
  4 20  1  0  0  0  0
  5 27  1  6  0  0  0
  5 24  1  0  0  0  0
  6 23  1  6  0  0  0
  6  1  1  0  0  0  0
  8  2  2  0  0  0  0
  8  7  2  0  0  0  0
  8 14  1  0  0  0  0
  9 18  1  0  0  0  0
  9 14  1  0  0  0  0
 10  8  1  1  0  0  0
 11 15  1  0  0  0  0
 12 24  1  0  0  0  0
 12 28  1  0  0  0  0
 13  9  2  0  0  0  0
 15 23  1  0  0  0  0
 15 19  1  0  0  0  0
 15  6  1  0  0  0  0
 16 20  2  0  0  0  0
 16 28  1  0  0  0  0
 17 25  1  0  0  0  0
 17  5  1  0  0  0  0
 17  3  1  0  0  0  0
 19 25  1  0  0  0  0
 21  1  2  0  0  0  0
 21 22  1  0  0  0  0
 22  4  2  0  0  0  0
 24 26  1  0  0  0  0
 25 12  1  0  0  0  0
 26 10  1  0  0  0  0
 26 13  1  0  0  0  0
 28 10  1  0  0  0  0
M  END
>  <MODEL>
1

>  <REMARK>
 VINA RESULT:      -6.4      0.000      0.000
  Name = 
  0 active torsions:
  status: ('A' for Active; 'I' for Inactive)
                            x       y       z     vdW  Elec       q    Type
                         _______ _______ _______ _____ _____    ______ ____

>  <TORSDO>
F 0

$$$$
=
 OpenBabel11122411593D

 28 33  0  0  1  0  0  0  0  0999 V2000
  183.0850  177.8200  139.1470 C   0  0  0  0  0  0  0  0  0  0  0  0
  184.2160  174.3210  137.0960 O   0  0  0  0  0  0  0  0  0  0  0  0
  188.8650  176.7830  139.4700 C   0  0  0  0  0  1  0  0  0  0  0  0
  181.3110  178.0430  136.9930 C   0  0  0  0  0  3  0  0  0  0  0  0
  188.4120  178.1760  137.4690 C   0  0  1  0  0  3  0  0  0  0  0  0
  184.0620  177.7680  140.2840 C   0  0  1  0  0  3  0  0  0  0  0  0
  183.7270  174.9450  134.7700 O   0  0  0  0  0  0  0  0  0  0  0  0
  184.7660  174.9650  135.8540 S   0  0  0  0  0  0  0  0  0  0  0  0
  187.3470  174.4930  136.2140 C   0  0  0  0  0  0  0  0  0  0  0  0
  185.2800  176.6490  136.1740 C   0  0  2  0  0  3  0  0  0  0  0  0
  184.3560  180.1250  139.4900 O   0  0  0  0  0  1  0  0  0  0  0  0
  186.0310  178.1860  137.9090 C   0  0  2  0  0  3  0  0  0  0  0  0
  187.5510  175.7260  136.5340 N   0  0  0  0  0  0  0  0  0  0  0  0
  186.2170  174.0970  135.3170 C   0  0  0  0  0  2  0  0  0  0  0  0
  184.8430  179.0880  140.2960 C   0  0  2  0  0  0  0  0  0  0  0  0
  183.5470  177.5640  137.8320 C   0  0  0  0  0  0  0  0  0  0  0  0
  188.1440  178.0130  138.9540 C   0  0  1  0  0  3  0  0  0  0  0  0
  188.1750  173.4280  136.8440 C   0  0  0  0  0  1  0  0  0  0  0  0
  186.3450  178.8230  140.2390 C   0  0  0  0  0  2  0  0  0  0  0  0
  182.6430  177.6880  136.7630 C   0  0  0  0  0  3  0  0  0  0  0  0
  181.7460  178.1650  139.3690 C   0  0  0  0  0  3  0  0  0  0  0  0
  180.8610  178.2750  138.2940 C   0  0  0  0  0  3  0  0  0  0  0  0
  183.9330  178.7450  141.4510 C   0  0  0  0  0  2  0  0  0  0  0  0
  187.0580  178.1300  136.7940 C   0  0  2  0  0  3  0  0  0  0  0  0
  186.7080  177.8680  139.1760 N   0  0  1  0  0  0  0  0  0  0  0  0
  186.7860  176.8480  135.9990 C   0  0  2  0  0  3  0  0  0  0  0  0
  189.0550  179.5250  137.2180 C   0  0  0  0  0  1  0  0  0  0  0  0
  184.9820  177.1110  137.5930 C   0  0  1  0  0  3  0  0  0  0  0  0
  1 21  1  0  0  0  0
  1  6  1  0  0  0  0
  4 22  1  0  0  0  0
  5 27  1  1  0  0  0
  5 17  1  0  0  0  0
  6 15  1  0  0  0  0
  6 23  1  1  0  0  0
  7  8  2  0  0  0  0
  8  2  2  0  0  0  0
  9 13  2  0  0  0  0
  9 18  1  0  0  0  0
 10  8  1  1  0  0  0
 10 28  1  0  0  0  0
 11 15  1  0  0  0  0
 12 25  1  0  0  0  0
 14  8  1  0  0  0  0
 14  9  1  0  0  0  0
 15 23  1  0  0  0  0
 16  1  2  0  0  0  0
 17 25  1  0  0  0  0
 17  3  1  0  0  0  0
 19 15  1  0  0  0  0
 20  4  2  0  0  0  0
 20 16  1  0  0  0  0
 22 21  2  0  0  0  0
 24  5  1  0  0  0  0
 24 12  1  0  0  0  0
 25 19  1  0  0  0  0
 26 10  1  0  0  0  0
 26 13  1  0  0  0  0
 26 24  1  0  0  0  0
 28 16  1  0  0  0  0
 28 12  1  0  0  0  0
M  END
>  <MODEL>
2

>  <REMARK>
 VINA RESULT:      -5.6      3.686      7.532
  Name = 
  0 active torsions:
  status: ('A' for Active; 'I' for Inactive)
                            x       y       z     vdW  Elec       q    Type
                         _______ _______ _______ _____ _____    ______ ____

>  <TORSDO>
F 0

$$$$
=
 OpenBabel11122411593D

 28 33  0  0  1  0  0  0  0  0999 V2000
  186.5720  177.7310  143.1700 C   0  0  0  0  0  0  0  0  0  0  0  0
  183.3470  176.7190  140.6610 O   0  0  0  0  0  0  0  0  0  0  0  0
  188.3320  175.8110  137.8970 C   0  0  0  0  0  1  0  0  0  0  0  0
  184.8120  179.7580  143.9650 C   0  0  0  0  0  3  0  0  0  0  0  0
  188.0360  178.2710  137.7960 C   0  0  1  0  0  3  0  0  0  0  0  0
  187.5660  176.6980  142.7270 C   0  0  1  0  0  3  0  0  0  0  0  0
  182.2980  178.9140  140.3120 O   0  0  0  0  0  0  0  0  0  0  0  0
  183.3380  177.9560  139.8080 S   0  0  0  0  0  0  0  0  0  0  0  0
  184.2380  176.9350  137.5360 C   0  0  0  0  0  0  0  0  0  0  0  0
  184.9440  178.7480  139.8030 C   0  0  2  0  0  3  0  0  0  0  0  0
  188.9450  178.7860  142.6170 O   0  0  0  0  0  1  0  0  0  0  0  0
  187.3300  178.3680  140.1100 C   0  0  2  0  0  3  0  0  0  0  0  0
  185.3920  177.4820  137.7210 N   0  0  0  0  0  0  0  0  0  0  0  0
  182.9940  177.5240  138.1210 C   0  0  0  0  0  2  0  0  0  0  0  0
  188.8420  177.4280  142.2910 C   0  0  2  0  0  0  0  0  0  0  0  0
  185.8370  178.4420  142.1900 C   0  0  0  0  0  0  0  0  0  0  0  0
  188.6420  177.1250  138.5860 C   0  0  1  0  0  3  0  0  0  0  0  0
  184.1540  175.6280  136.8270 C   0  0  0  0  0  1  0  0  0  0  0  0
  189.2230  177.0340  140.8660 C   0  0  0  0  0  2  0  0  0  0  0  0
  184.9640  179.4600  142.6080 C   0  0  0  0  0  3  0  0  0  0  0  0
  186.4070  178.0290  144.5290 C   0  0  0  0  0  3  0  0  0  0  0  0
  185.5280  179.0390  144.9250 C   0  0  0  0  0  3  0  0  0  0  0  0
  188.8740  176.5150  143.4930 C   0  0  0  0  0  2  0  0  0  0  0  0
  187.0790  178.9670  138.7400 C   0  0  2  0  0  3  0  0  0  0  0  0
  188.0840  177.1160  139.9360 N   0  0  1  0  0  0  0  0  0  0  0  0
  185.5960  178.7460  138.4200 C   0  0  2  0  0  3  0  0  0  0  0  0
  189.1310  179.2340  137.3850 C   0  0  0  0  0  1  0  0  0  0  0  0
  185.9530  178.0690  140.7170 C   0  0  1  0  0  3  0  0  0  0  0  0
  1 21  1  0  0  0  0
  3 17  1  0  0  0  0
  4 22  1  0  0  0  0
  5 27  1  1  0  0  0
  5 17  1  0  0  0  0
  5 24  1  0  0  0  0
  6  1  1  0  0  0  0
  6 23  1  1  0  0  0
  8  7  2  0  0  0  0
  8  2  2  0  0  0  0
  9 13  2  0  0  0  0
  9 14  1  0  0  0  0
 10  8  1  6  0  0  0
 10 28  1  0  0  0  0
 12 28  1  0  0  0  0
 13 26  1  0  0  0  0
 14  8  1  0  0  0  0
 15 11  1  0  0  0  0
 15  6  1  0  0  0  0
 15 23  1  0  0  0  0
 16 20  1  0  0  0  0
 16  1  2  0  0  0  0
 17 25  1  0  0  0  0
 18  9  1  0  0  0  0
 19 15  1  0  0  0  0
 20  4  2  0  0  0  0
 21 22  2  0  0  0  0
 24 12  1  0  0  0  0
 25 12  1  0  0  0  0
 25 19  1  0  0  0  0
 26 24  1  0  0  0  0
 26 10  1  0  0  0  0
 28 16  1  0  0  0  0
M  END
>  <MODEL>
3

>  <REMARK>
 VINA RESULT:      -5.4      3.439      6.825
  Name = 
  0 active torsions:
  status: ('A' for Active; 'I' for Inactive)
                            x       y       z     vdW  Elec       q    Type
                         _______ _______ _______ _____ _____    ______ ____

>  <TORSDO>
F 0

$$$$
=
 OpenBabel11122411593D

 28 33  0  0  1  0  0  0  0  0999 V2000
  182.4820  178.3460  140.3090 C   0  0  0  0  0  0  0  0  0  0  0  0
  181.0150  174.5940  139.0860 O   0  0  0  0  0  0  0  0  0  0  0  0
  186.3760  175.3420  137.0830 C   0  0  0  0  0  1  0  0  0  0  0  0
  179.8220  179.0970  139.8650 C   0  0  0  0  0  3  0  0  0  0  0  0
  184.9780  176.7240  135.5710 C   0  0  1  0  0  3  0  0  0  0  0  0
  183.9290  177.9970  140.4990 C   0  0  1  0  0  3  0  0  0  0  0  0
  179.1920  175.2560  137.5780 O   0  0  0  0  0  0  0  0  0  0  0  0
  180.6590  174.9510  137.6710 S   0  0  0  0  0  0  0  0  0  0  0  0
  182.5470  173.6100  136.3860 C   0  0  0  0  0  0  0  0  0  0  0  0
  181.6110  176.3550  137.0990 C   0  0  2  0  0  3  0  0  0  0  0  0
  184.1010  180.0630  139.0940 O   0  0  0  0  0  1  0  0  0  0  0  0
  183.6830  177.5940  137.4220 C   0  0  2  0  0  3  0  0  0  0  0  0
  183.1880  174.7020  136.1400 N   0  0  0  0  0  0  0  0  0  0  0  0
  181.0650  173.6040  136.5890 C   0  0  0  0  0  2  0  0  0  0  0  0
  184.7620  178.9540  139.6380 C   0  0  2  0  0  0  0  0  0  0  0  0
  181.8130  177.8900  139.1470 C   0  0  0  0  0  0  0  0  0  0  0  0
  185.8050  176.7260  136.8440 C   0  0  1  0  0  3  0  0  0  0  0  0
  183.3080  172.3460  136.5910 C   0  0  0  0  0  1  0  0  0  0  0  0
  185.6760  178.1720  138.6980 C   0  0  0  0  0  2  0  0  0  0  0  0
  180.4800  178.2840  138.9380 C   0  0  0  0  0  3  0  0  0  0  0  0
  181.8130  179.1510  141.2380 C   0  0  0  0  0  3  0  0  0  0  0  0
  180.4850  179.5250  141.0170 C   0  0  0  0  0  3  0  0  0  0  0  0
  184.8820  179.0030  141.1420 C   0  0  0  0  0  2  0  0  0  0  0  0
  183.5800  177.1330  135.9810 C   0  0  2  0  0  3  0  0  0  0  0  0
  184.9590  177.1090  137.9720 N   0  0  1  0  0  0  0  0  0  0  0  0
  182.5490  176.0000  135.9450 C   0  0  2  0  0  3  0  0  0  0  0  0
  185.5410  177.7450  134.6040 C   0  0  0  0  0  1  0  0  0  0  0  0
  182.5110  176.9490  138.1730 C   0  0  1  0  0  3  0  0  0  0  0  0
  1  6  1  0  0  0  0
  1 21  1  0  0  0  0
  4 22  1  0  0  0  0
  5 27  1  6  0  0  0
  5 24  1  0  0  0  0
  5 17  1  0  0  0  0
  6 23  1  1  0  0  0
  7  8  2  0  0  0  0
  8  2  2  0  0  0  0
  9 14  1  0  0  0  0
  9 18  1  0  0  0  0
 10  8  1  1  0  0  0
 10 28  1  0  0  0  0
 11 15  1  0  0  0  0
 12 25  1  0  0  0  0
 12 28  1  0  0  0  0
 13  9  2  0  0  0  0
 14  8  1  0  0  0  0
 15  6  1  0  0  0  0
 15 23  1  0  0  0  0
 16  1  2  0  0  0  0
 17  3  1  0  0  0  0
 17 25  1  0  0  0  0
 19 15  1  0  0  0  0
 20 16  1  0  0  0  0
 20  4  2  0  0  0  0
 22 21  2  0  0  0  0
 24 12  1  0  0  0  0
 25 19  1  0  0  0  0
 26 24  1  0  0  0  0
 26 13  1  0  0  0  0
 26 10  1  0  0  0  0
 28 16  1  0  0  0  0
M  END
>  <MODEL>
4

>  <REMARK>
 VINA RESULT:      -5.4      5.337      8.892
  Name = 
  0 active torsions:
  status: ('A' for Active; 'I' for Inactive)
                            x       y       z     vdW  Elec       q    Type
                         _______ _______ _______ _____ _____    ______ ____

>  <TORSDO>
F 0

$$$$
=
 OpenBabel11122411593D

 28 33  0  0  1  0  0  0  0  0999 V2000
  181.7710  179.0730  142.2840 C   0  0  0  0  0  0  0  0  0  0  0  0
  183.9660  179.6510  138.7390 O   0  0  0  0  0  0  0  0  0  0  0  0
  178.9310  177.1040  137.5260 C   0  0  0  0  0  1  0  0  0  0  0  0
  184.3220  178.5670  143.3210 C   0  0  0  0  0  3  0  0  0  0  0  0
  180.3190  175.2670  138.4470 C   0  0  1  0  0  3  0  0  0  0  0  0
  180.3820  179.2760  141.7540 C   0  0  1  0  0  3  0  0  0  0  0  0
  185.8790  178.1530  139.1040 O   0  0  0  0  0  0  0  0  0  0  0  0
  184.4790  178.2490  138.5690 S   0  0  0  0  0  0  0  0  0  0  0  0
  183.0400  177.4990  136.4760 C   0  0  0  0  0  0  0  0  0  0  0  0
  183.4240  177.0700  139.4070 C   0  0  2  0  0  3  0  0  0  0  0  0
  180.1170  177.1280  143.0120 O   0  0  0  0  0  1  0  0  0  0  0  0
  181.1620  176.6800  140.2230 C   0  0  2  0  0  3  0  0  0  0  0  0
  182.2860  176.7690  137.2270 N   0  0  0  0  0  0  0  0  0  0  0  0
  184.4560  177.8020  136.8520 C   0  0  0  0  0  2  0  0  0  0  0  0
  179.5570  178.0310  142.1000 C   0  0  2  0  0  0  0  0  0  0  0  0
  182.6740  178.2640  141.5520 C   0  0  0  0  0  0  0  0  0  0  0  0
  179.3140  176.3540  138.7860 C   0  0  1  0  0  3  0  0  0  0  0  0
  182.4580  178.1530  135.2710 C   0  0  0  0  0  1  0  0  0  0  0  0
  178.9310  177.4370  140.8420 C   0  0  0  0  0  2  0  0  0  0  0  0
  183.9480  178.0160  142.0920 C   0  0  0  0  0  3  0  0  0  0  0  0
  182.1570  179.6290  143.5100 C   0  0  0  0  0  3  0  0  0  0  0  0
  183.4300  179.3780  144.0260 C   0  0  0  0  0  3  0  0  0  0  0  0
  179.1990  179.3630  142.7150 C   0  0  0  0  0  2  0  0  0  0  0  0
  181.5570  175.5770  139.2600 C   0  0  2  0  0  3  0  0  0  0  0  0
  179.9060  177.2800  139.7480 N   0  0  1  0  0  0  0  0  0  0  0  0
  182.7420  176.1010  138.4410 C   0  0  2  0  0  3  0  0  0  0  0  0
  179.7640  173.9210  138.8650 C   0  0  0  0  0  1  0  0  0  0  0  0
  182.2880  177.7220  140.1820 C   0  0  1  0  0  3  0  0  0  0  0  0
  1 21  1  0  0  0  0
  3 17  1  0  0  0  0
  4 22  1  0  0  0  0
  5 17  1  0  0  0  0
  5 27  1  1  0  0  0
  5 24  1  0  0  0  0
  6 15  1  0  0  0  0
  6  1  1  0  0  0  0
  6 23  1  1  0  0  0
  8  2  2  0  0  0  0
  8  7  2  0  0  0  0
  9 14  1  0  0  0  0
  9 13  2  0  0  0  0
 10  8  1  6  0  0  0
 10 28  1  0  0  0  0
 13 26  1  0  0  0  0
 14  8  1  0  0  0  0
 15 23  1  0  0  0  0
 15 11  1  0  0  0  0
 16 20  1  0  0  0  0
 16  1  2  0  0  0  0
 17 25  1  0  0  0  0
 18  9  1  0  0  0  0
 19 15  1  0  0  0  0
 20  4  2  0  0  0  0
 21 22  2  0  0  0  0
 24 12  1  0  0  0  0
 25 12  1  0  0  0  0
 25 19  1  0  0  0  0
 26 24  1  0  0  0  0
 26 10  1  0  0  0  0
 28 12  1  0  0  0  0
 28 16  1  0  0  0  0
M  END
>  <MODEL>
5

>  <REMARK>
 VINA RESULT:      -5.3      6.113      9.518
  Name = 
  0 active torsions:
  status: ('A' for Active; 'I' for Inactive)
                            x       y       z     vdW  Elec       q    Type
                         _______ _______ _______ _____ _____    ______ ____

>  <TORSDO>
F 0

$$$$
=
 OpenBabel11122411593D

 28 33  0  0  1  0  0  0  0  0999 V2000
  182.6670  175.9710  138.9520 C   0  0  0  0  0  0  0  0  0  0  0  0
  185.2750  172.7340  138.2830 O   0  0  0  0  0  0  0  0  0  0  0  0
  188.1430  177.7080  137.6940 C   0  0  0  0  0  1  0  0  0  0  0  0
  180.8600  174.2820  137.6410 C   0  0  0  0  0  3  0  0  0  0  0  0
  186.8610  177.5080  135.5810 C   0  0  1  0  0  3  0  0  0  0  0  0
  183.6210  176.9290  139.6030 C   0  0  1  0  0  3  0  0  0  0  0  0
  184.3360  171.7740  136.2250 O   0  0  0  0  0  0  0  0  0  0  0  0
  185.3000  172.7820  136.7810 S   0  0  0  0  0  0  0  0  0  0  0  0
  187.7680  173.6650  136.4060 C   0  0  0  0  0  0  0  0  0  0  0  0
  184.8860  174.4170  136.1800 C   0  0  2  0  0  3  0  0  0  0  0  0
  182.5740  178.3880  137.8580 O   0  0  0  0  0  1  0  0  0  0  0  0
  184.8720  176.7840  136.7560 C   0  0  2  0  0  3  0  0  0  0  0  0
  187.3270  174.8370  136.0960 N   0  0  0  0  0  0  0  0  0  0  0  0
  186.9390  172.4380  136.1940 C   0  0  0  0  0  2  0  0  0  0  0  0
  183.5970  178.2360  138.8030 C   0  0  2  0  0  0  0  0  0  0  0  0
  183.0800  175.2730  137.7900 C   0  0  0  0  0  0  0  0  0  0  0  0
  186.8460  178.0620  136.9940 C   0  0  1  0  0  3  0  0  0  0  0  0
  189.0810  173.5380  137.0970 C   0  0  0  0  0  1  0  0  0  0  0  0
  185.0050  178.6160  138.3550 C   0  0  0  0  0  2  0  0  0  0  0  0
  182.1560  174.4360  137.1420 C   0  0  0  0  0  3  0  0  0  0  0  0
  181.3690  175.8040  139.4510 C   0  0  0  0  0  3  0  0  0  0  0  0
  180.4680  174.9600  138.7970 C   0  0  0  0  0  3  0  0  0  0  0  0
  183.1010  178.2210  140.2290 C   0  0  0  0  0  2  0  0  0  0  0  0
  185.6770  176.5690  135.4890 C   0  0  2  0  0  3  0  0  0  0  0  0
  185.7200  177.4900  137.7290 N   0  0  1  0  0  0  0  0  0  0  0  0
  186.0470  175.0830  135.4400 C   0  0  2  0  0  3  0  0  0  0  0  0
  186.6830  178.6440  134.5940 C   0  0  0  0  0  1  0  0  0  0  0  0
  184.5140  175.3900  137.2890 C   0  0  1  0  0  3  0  0  0  0  0  0
  1 21  1  0  0  0  0
  1  6  1  0  0  0  0
  4 22  1  0  0  0  0
  5 27  1  6  0  0  0
  5 17  1  0  0  0  0
  6 23  1  1  0  0  0
  7  8  2  0  0  0  0
  8  2  2  0  0  0  0
  9 18  1  0  0  0  0
 10  8  1  1  0  0  0
 10 28  1  0  0  0  0
 11 15  1  0  0  0  0
 12 28  1  0  0  0  0
 12 25  1  0  0  0  0
 13  9  2  0  0  0  0
 14  9  1  0  0  0  0
 14  8  1  0  0  0  0
 15  6  1  0  0  0  0
 15 23  1  0  0  0  0
 16  1  2  0  0  0  0
 17  3  1  0  0  0  0
 17 25  1  0  0  0  0
 19 15  1  0  0  0  0
 20  4  2  0  0  0  0
 20 16  1  0  0  0  0
 22 21  2  0  0  0  0
 24  5  1  0  0  0  0
 24 12  1  0  0  0  0
 25 19  1  0  0  0  0
 26 24  1  0  0  0  0
 26 13  1  0  0  0  0
 26 10  1  0  0  0  0
 28 16  1  0  0  0  0
M  END
>  <MODEL>
6

>  <REMARK>
 VINA RESULT:      -5.1      3.992      7.596
  Name = 
  0 active torsions:
  status: ('A' for Active; 'I' for Inactive)
                            x       y       z     vdW  Elec       q    Type
                         _______ _______ _______ _____ _____    ______ ____

>  <TORSDO>
F 0

$$$$
=
 OpenBabel11122411593D

 28 33  0  0  1  0  0  0  0  0999 V2000
  185.3900  175.1570  137.2220 C   0  0  0  0  0  0  0  0  0  0  0  0
  184.1810  177.8210  140.2500 O   0  0  0  0  0  0  0  0  0  0  0  0
  179.7420  174.4680  138.7100 C   0  0  0  0  0  1  0  0  0  0  0  0
  186.8820  177.3790  136.4020 C   0  0  0  0  0  3  0  0  0  0  0  0
  179.8910  176.1340  136.8800 C   0  0  1  0  0  3  0  0  0  0  0  0
  184.5590  173.9650  137.5940 C   0  0  1  0  0  3  0  0  0  0  0  0
  184.3600  179.9810  139.0940 O   0  0  0  0  0  0  0  0  0  0  0  0
  183.4580  178.8170  139.3870 S   0  0  0  0  0  0  0  0  0  0  0  0
  180.9620  178.3020  140.1080 C   0  0  0  0  0  0  0  0  0  0  0  0
  182.9100  178.0680  137.8560 C   0  0  2  0  0  3  0  0  0  0  0  0
  184.0670  174.1640  135.1460 O   0  0  0  0  0  1  0  0  0  0  0  0
  182.3040  175.9590  136.8000 C   0  0  2  0  0  3  0  0  0  0  0  0
  180.7430  177.6900  138.9940 N   0  0  0  0  0  0  0  0  0  0  0  0
  181.9930  179.3820  140.2150 C   0  0  0  0  0  2  0  0  0  0  0  0
  183.7270  173.5690  136.3680 C   0  0  2  0  0  0  0  0  0  0  0  0
  184.7860  176.4390  137.2120 C   0  0  0  0  0  0  0  0  0  0  0  0
  180.3410  174.7630  137.3490 C   0  0  1  0  0  3  0  0  0  0  0  0
  180.2630  177.8490  141.3420 C   0  0  0  0  0  1  0  0  0  0  0  0
  182.2430  173.5250  136.7190 C   0  0  0  0  0  2  0  0  0  0  0  0
  185.5500  177.5410  136.7910 C   0  0  0  0  0  3  0  0  0  0  0  0
  186.7290  175.0060  136.8420 C   0  0  0  0  0  3  0  0  0  0  0  0
  187.4740  176.1140  136.4340 C   0  0  0  0  0  3  0  0  0  0  0  0
  184.7830  172.6260  136.8930 C   0  0  0  0  0  2  0  0  0  0  0  0
  181.1550  176.9410  136.6800 C   0  0  2  0  0  3  0  0  0  0  0  0
  181.7980  174.7330  137.4370 N   0  0  1  0  0  0  0  0  0  0  0  0
  181.3870  178.0330  137.7310 C   0  0  2  0  0  3  0  0  0  0  0  0
  179.1620  176.0000  135.5580 C   0  0  0  0  0  1  0  0  0  0  0  0
  183.3550  176.6210  137.7010 C   0  0  1  0  0  3  0  0  0  0  0  0
  1  6  1  0  0  0  0
  4 22  2  0  0  0  0
  4 20  1  0  0  0  0
  5 27  1  6  0  0  0
  5 17  1  0  0  0  0
  6 23  1  6  0  0  0
  7  8  2  0  0  0  0
  8 14  1  0  0  0  0
  8  2  2  0  0  0  0
  9 14  1  0  0  0  0
  9 18  1  0  0  0  0
 10  8  1  1  0  0  0
 11 15  1  0  0  0  0
 12 25  1  0  0  0  0
 12 28  1  0  0  0  0
 13  9  2  0  0  0  0
 15 19  1  0  0  0  0
 15 23  1  0  0  0  0
 15  6  1  0  0  0  0
 16  1  1  0  0  0  0
 16 28  1  0  0  0  0
 17 25  1  0  0  0  0
 17  3  1  0  0  0  0
 19 25  1  0  0  0  0
 20 16  2  0  0  0  0
 21  1  2  0  0  0  0
 22 21  1  0  0  0  0
 24 12  1  0  0  0  0
 24  5  1  0  0  0  0
 24 26  1  0  0  0  0
 26 10  1  0  0  0  0
 26 13  1  0  0  0  0
 28 10  1  0  0  0  0
M  END
>  <MODEL>
7

>  <REMARK>
 VINA RESULT:      -5.1      4.988      6.880
  Name = 
  0 active torsions:
  status: ('A' for Active; 'I' for Inactive)
                            x       y       z     vdW  Elec       q    Type
                         _______ _______ _______ _____ _____    ______ ____

>  <TORSDO>
F 0

$$$$
=
 OpenBabel11122411593D

 28 33  0  0  1  0  0  0  0  0999 V2000
  186.3030  173.1610  136.4930 C   0  0  0  0  0  0  0  0  0  0  0  0
  188.6840  175.7860  138.7660 O   0  0  0  0  0  0  0  0  0  0  0  0
  183.1010  176.7830  139.8400 C   0  0  0  0  0  1  0  0  0  0  0  0
  188.3120  173.6040  134.5930 C   0  0  0  0  0  3  0  0  0  0  0  0
  183.4820  177.8560  137.6380 C   0  0  1  0  0  3  0  0  0  0  0  0
  185.1760  172.9460  137.4600 C   0  0  1  0  0  3  0  0  0  0  0  0
  189.7100  177.1570  137.0030 O   0  0  0  0  0  0  0  0  0  0  0  0
  188.5250  177.0150  137.9150 S   0  0  0  0  0  0  0  0  0  0  0  0
  186.9990  178.4710  139.5160 C   0  0  0  0  0  0  0  0  0  0  0  0
  187.0190  176.9420  136.9500 C   0  0  2  0  0  3  0  0  0  0  0  0
  183.9260  173.5010  135.3630 O   0  0  0  0  0  1  0  0  0  0  0  0
  184.7860  175.9740  136.8500 C   0  0  2  0  0  3  0  0  0  0  0  0
  185.9660  178.2410  138.7780 N   0  0  0  0  0  0  0  0  0  0  0  0
  188.3830  178.4500  138.9480 C   0  0  0  0  0  2  0  0  0  0  0  0
  183.8690  173.3140  136.7490 C   0  0  2  0  0  0  0  0  0  0  0  0
  186.7840  174.4760  136.2790 C   0  0  0  0  0  0  0  0  0  0  0  0
  183.0530  176.5800  138.3390 C   0  0  1  0  0  3  0  0  0  0  0  0
  186.8240  178.6420  140.9850 C   0  0  0  0  0  1  0  0  0  0  0  0
  183.1000  174.3610  137.5510 C   0  0  0  0  0  2  0  0  0  0  0  0
  187.7880  174.6790  135.3170 C   0  0  0  0  0  3  0  0  0  0  0  0
  186.8410  172.0880  135.7710 C   0  0  0  0  0  3  0  0  0  0  0  0
  187.8440  172.3090  134.8250 C   0  0  0  0  0  3  0  0  0  0  0  0
  184.1140  171.8870  137.1750 C   0  0  0  0  0  2  0  0  0  0  0  0
  184.6910  177.4870  136.8050 C   0  0  2  0  0  3  0  0  0  0  0  0
  183.9520  175.4920  137.9620 N   0  0  1  0  0  0  0  0  0  0  0  0
  186.0210  178.0350  137.3350 C   0  0  2  0  0  3  0  0  0  0  0  0
  182.3670  178.3300  136.7280 C   0  0  0  0  0  1  0  0  0  0  0  0
  186.2590  175.6350  137.1170 C   0  0  1  0  0  3  0  0  0  0  0  0
  1  6  1  0  0  0  0
  4 22  2  0  0  0  0
  4 20  1  0  0  0  0
  5 27  1  6  0  0  0
  5 17  1  0  0  0  0
  6 23  1  6  0  0  0
  7  8  2  0  0  0  0
  8  2  2  0  0  0  0
  8 14  1  0  0  0  0
  9 18  1  0  0  0  0
 10 28  1  0  0  0  0
 10 26  1  0  0  0  0
 10  8  1  1  0  0  0
 11 15  1  0  0  0  0
 12 28  1  0  0  0  0
 12 25  1  0  0  0  0
 13  9  2  0  0  0  0
 14  9  1  0  0  0  0
 15 23  1  0  0  0  0
 15  6  1  0  0  0  0
 15 19  1  0  0  0  0
 16  1  1  0  0  0  0
 16 28  1  0  0  0  0
 17  3  1  0  0  0  0
 19 25  1  0  0  0  0
 20 16  2  0  0  0  0
 21  1  2  0  0  0  0
 22 21  1  0  0  0  0
 24 12  1  0  0  0  0
 24 26  1  0  0  0  0
 24  5  1  0  0  0  0
 25 17  1  0  0  0  0
 26 13  1  0  0  0  0
M  END
>  <MODEL>
8

>  <REMARK>
 VINA RESULT:      -4.9      3.092      4.635
  Name = 
  0 active torsions:
  status: ('A' for Active; 'I' for Inactive)
                            x       y       z     vdW  Elec       q    Type
                         _______ _______ _______ _____ _____    ______ ____

>  <TORSDO>
F 0

$$$$
=
 OpenBabel11122411593D

 28 33  0  0  1  0  0  0  0  0999 V2000
  185.0410  175.4840  136.2570 C   0  0  0  0  0  0  0  0  0  0  0  0
  180.8330  175.4430  136.3810 O   0  0  0  0  0  0  0  0  0  0  0  0
  182.8100  180.3020  138.7870 C   0  0  0  0  0  1  0  0  0  0  0  0
  184.6950  172.7490  136.7420 C   0  0  0  0  0  3  0  0  0  0  0  0
  183.1830  178.5810  140.5320 C   0  0  1  0  0  3  0  0  0  0  0  0
  185.2690  176.9540  136.0590 C   0  0  1  0  0  3  0  0  0  0  0  0
  180.4120  173.5680  137.9120 O   0  0  0  0  0  0  0  0  0  0  0  0
  180.6610  175.0460  137.8200 S   0  0  0  0  0  0  0  0  0  0  0  0
  179.7570  177.3310  138.8080 C   0  0  0  0  0  0  0  0  0  0  0  0
  182.1040  175.4820  138.7870 C   0  0  2  0  0  3  0  0  0  0  0  0
  186.8240  176.4660  137.9610 O   0  0  0  0  0  1  0  0  0  0  0  0
  184.0130  176.9900  138.9070 C   0  0  2  0  0  3  0  0  0  0  0  0
  180.8980  177.5680  139.3630 N   0  0  0  0  0  0  0  0  0  0  0  0
  179.3000  175.9330  138.5330 C   0  0  0  0  0  2  0  0  0  0  0  0
  186.1910  177.4430  137.1820 C   0  0  2  0  0  0  0  0  0  0  0  0
  184.0960  175.0600  137.2240 C   0  0  0  0  0  0  0  0  0  0  0  0
  183.8010  179.3020  139.3490 C   0  0  1  0  0  3  0  0  0  0  0  0
  178.9310  178.4690  138.3210 C   0  0  0  0  0  1  0  0  0  0  0  0
  185.5500  178.6080  137.9320 C   0  0  0  0  0  2  0  0  0  0  0  0
  183.9420  173.6830  137.4580 C   0  0  0  0  0  3  0  0  0  0  0  0
  185.7840  174.5410  135.5370 C   0  0  0  0  0  3  0  0  0  0  0  0
  185.6100  173.1760  135.7780 C   0  0  0  0  0  3  0  0  0  0  0  0
  186.6710  177.4770  135.7510 C   0  0  0  0  0  2  0  0  0  0  0  0
  183.1840  177.1110  140.1710 C   0  0  2  0  0  3  0  0  0  0  0  0
  184.1550  178.3300  138.3170 N   0  0  1  0  0  0  0  0  0  0  0  0
  181.8000  176.5330  139.8550 C   0  0  2  0  0  3  0  0  0  0  0  0
  184.0430  178.8000  141.7610 C   0  0  0  0  0  1  0  0  0  0  0  0
  183.2290  176.0790  137.9540 C   0  0  1  0  0  3  0  0  0  0  0  0
  1 16  1  0  0  0  0
  2  8  2  0  0  0  0
  3 17  1  0  0  0  0
  4 20  1  0  0  0  0
  5 27  1  1  0  0  0
  6 23  1  6  0  0  0
  6  1  1  0  0  0  0
  6 15  1  0  0  0  0
  8  7  2  0  0  0  0
  8 14  1  0  0  0  0
  9 13  2  0  0  0  0
 10  8  1  6  0  0  0
 10 26  1  0  0  0  0
 12 24  1  0  0  0  0
 13 26  1  0  0  0  0
 14  9  1  0  0  0  0
 15 19  1  0  0  0  0
 15 11  1  0  0  0  0
 16 20  2  0  0  0  0
 16 28  1  0  0  0  0
 17  5  1  0  0  0  0
 18  9  1  0  0  0  0
 19 25  1  0  0  0  0
 21 22  1  0  0  0  0
 21  1  2  0  0  0  0
 22  4  2  0  0  0  0
 23 15  1  0  0  0  0
 24  5  1  0  0  0  0
 25 12  1  0  0  0  0
 25 17  1  0  0  0  0
 26 24  1  0  0  0  0
 28 10  1  0  0  0  0
 28 12  1  0  0  0  0
M  END
>  <MODEL>
9

>  <REMARK>
 VINA RESULT:      -4.9      5.068      7.513
  Name = 
  0 active torsions:
  status: ('A' for Active; 'I' for Inactive)
                            x       y       z     vdW  Elec       q    Type
                         _______ _______ _______ _____ _____    ______ ____

>  <TORSDO>
F 0

$$$$
