=
 OpenBabel11122410313D

 30 35  0  0  1  0  0  0  0  0999 V2000
  189.2960  177.2050  143.6060 C   0  0  0  0  0  0  0  0  0  0  0  0
  191.1750  176.4960  145.1140 C   0  0  0  0  0  0  0  0  0  0  0  0
  186.9280  178.1160  146.8560 N   0  0  0  0  0  2  0  0  0  0  0  0
  187.9870  177.7650  143.4710 C   0  0  0  0  0  0  0  0  0  0  0  0
  189.9970  176.6820  142.3670 C   0  0  0  0  0  2  0  0  0  0  0  0
  187.6680  177.5000  139.9600 O   0  0  0  0  0  0  0  0  0  0  0  0
  185.1120  177.8430  142.4530 C   0  0  1  0  0  3  0  0  0  0  0  0
  188.2830  177.7770  140.9790 C   0  0  0  0  0  0  0  0  0  0  0  0
  184.7970  178.1130  143.9100 C   0  0  2  0  0  3  0  0  0  0  0  0
  185.8070  178.4070  146.1600 C   0  0  0  0  0  0  0  0  0  0  0  0
  189.7520  177.5180  141.1110 C   0  0  2  0  0  3  0  0  0  0  0  0
  187.6160  178.4220  142.1560 C   0  0  1  0  0  3  0  0  0  0  0  0
  191.6620  176.3480  146.4160 C   0  0  0  0  0  3  0  0  0  0  0  0
  183.8070  179.2590  143.9110 C   0  0  0  0  0  2  0  0  0  0  0  0
  183.7880  178.1070  141.7490 C   0  0  0  0  0  2  0  0  0  0  0  0
  192.0130  176.1410  144.0640 O   0  0  0  0  0  1  0  0  0  0  0  0
  187.8120  177.8300  145.8840 C   0  0  0  0  0  0  0  0  0  0  0  0
  190.8990  176.6910  147.4860 N   0  0  0  0  0  0  0  0  0  0  0  0
  189.8690  177.0090  144.9050 C   0  0  0  0  0  0  0  0  0  0  0  0
  187.2440  177.9810  144.6490 C   0  0  0  0  0  0  0  0  0  0  0  0
  184.7120  178.6610  146.7280 O   0  0  0  0  0  0  0  0  0  0  0  0
  185.9440  178.3380  144.8090 N   0  0  0  0  0  0  0  0  0  0  0  0
  183.0060  179.0760  142.6330 C   0  0  0  0  0  2  0  0  0  0  0  0
  185.8990  179.8350  141.4220 O   0  0  0  0  0  0  0  0  0  0  0  0
  189.6470  177.1880  147.3330 C   0  0  0  0  0  3  0  0  0  0  0  0
  189.1100  177.3610  146.0540 C   0  0  0  0  0  0  0  0  0  0  0  0
  186.1800  178.7720  141.9540 C   0  0  0  0  0  0  0  0  0  0  0  0
  190.2680  176.8330  139.9500 N   0  0  0  0  0  0  0  0  0  0  0  0
  191.9720  176.3480  138.3280 C   0  0  0  0  0  1  0  0  0  0  0  0
  191.4570  177.0650  139.5270 C   0  0  0  0  0  3  0  0  0  0  0  0
  1 19  1  0  0  0  0
  2 13  1  0  0  0  0
  4  1  2  0  0  0  0
  4 20  1  0  0  0  0
  5  1  1  0  0  0  0
  6  8  2  0  0  0  0
  7 15  1  6  0  0  0
  7  9  1  0  0  0  0
  8 11  1  0  0  0  0
  9 14  1  6  0  0  0
  9 22  1  0  0  0  0
 10 21  2  0  0  0  0
 10  3  1  0  0  0  0
 11 28  1  6  0  0  0
 11  5  1  0  0  0  0
 12  8  1  6  0  0  0
 12  4  1  0  0  0  0
 13 18  2  0  0  0  0
 15 23  1  0  0  0  0
 16  2  1  0  0  0  0
 17 26  1  0  0  0  0
 17  3  1  0  0  0  0
 19  2  2  0  0  0  0
 19 26  1  0  0  0  0
 20 22  1  0  0  0  0
 20 17  2  0  0  0  0
 22 10  1  0  0  0  0
 23 14  1  0  0  0  0
 24 27  2  0  0  0  0
 25 18  1  0  0  0  0
 26 25  2  0  0  0  0
 27 12  1  0  0  0  0
 27  7  1  0  0  0  0
 29 30  1  0  0  0  0
 30 28  2  0  0  0  0
M  END
>  <MODEL>
1

>  <REMARK>
 VINA RESULT:     -11.6      0.000      0.000
  Name = 
  1 active torsions:
  status: ('A' for Active; 'I' for Inactive)
    1  A    between atoms: C_11  and  N_28
                            x       y       z     vdW  Elec       q    Type
                         _______ _______ _______ _____ _____    ______ ____

>  <TORSDO>
F 1

$$$$
=
 OpenBabel11122410313D

 30 35  0  0  1  0  0  0  0  0999 V2000
  186.3310  178.2720  142.2330 C   0  0  0  0  0  0  0  0  0  0  0  0
  183.9200  178.9270  141.9760 C   0  0  0  0  0  0  0  0  0  0  0  0
  185.8750  177.8980  146.3140 N   0  0  0  0  0  2  0  0  0  0  0  0
  187.3900  177.8340  143.0890 C   0  0  0  0  0  0  0  0  0  0  0  0
  186.6510  178.6080  140.7900 C   0  0  0  0  0  2  0  0  0  0  0  0
  190.0040  177.8070  140.7090 O   0  0  0  0  0  0  0  0  0  0  0  0
  190.1930  177.9460  144.2870 C   0  0  1  0  0  3  0  0  0  0  0  0
  188.8630  177.5650  141.0760 C   0  0  0  0  0  0  0  0  0  0  0  0
  189.4380  177.8420  145.5970 C   0  0  2  0  0  3  0  0  0  0  0  0
  187.1730  177.6570  146.5980 C   0  0  0  0  0  0  0  0  0  0  0  0
  187.6920  177.6890  140.1500 C   0  0  2  0  0  3  0  0  0  0  0  0
  188.5610  177.0980  142.4670 C   0  0  1  0  0  3  0  0  0  0  0  0
  182.6780  179.1450  142.5780 C   0  0  0  0  0  3  0  0  0  0  0  0
  190.1770  176.8040  146.4160 C   0  0  0  0  0  2  0  0  0  0  0  0
  191.6460  177.7510  144.6990 C   0  0  0  0  0  2  0  0  0  0  0  0
  184.0140  179.1000  140.6010 O   0  0  0  0  0  1  0  0  0  0  0  0
  185.8820  178.0060  144.9740 C   0  0  0  0  0  0  0  0  0  0  0  0
  182.5160  178.9770  143.9160 N   0  0  0  0  0  0  0  0  0  0  0  0
  185.0270  178.5280  142.7700 C   0  0  0  0  0  0  0  0  0  0  0  0
  187.1390  177.8000  144.4760 C   0  0  0  0  0  0  0  0  0  0  0  0
  187.5950  177.5650  147.7820 O   0  0  0  0  0  0  0  0  0  0  0  0
  187.9890  177.5890  145.5120 N   0  0  0  0  0  0  0  0  0  0  0  0
  191.6310  176.9480  145.9980 C   0  0  0  0  0  2  0  0  0  0  0  0
  190.3360  175.8000  143.2750 O   0  0  0  0  0  0  0  0  0  0  0  0
  183.5450  178.5940  144.7120 C   0  0  0  0  0  3  0  0  0  0  0  0
  184.8090  178.3590  144.1640 C   0  0  0  0  0  0  0  0  0  0  0  0
  189.7570  176.8750  143.3310 C   0  0  0  0  0  0  0  0  0  0  0  0
  188.0940  178.2110  138.8670 N   0  0  0  0  0  0  0  0  0  0  0  0
  187.7600  178.6400  136.5270 C   0  0  0  0  0  1  0  0  0  0  0  0
  187.3290  178.0940  137.8430 C   0  0  0  0  0  3  0  0  0  0  0  0
  1 19  2  0  0  0  0
  1  4  1  0  0  0  0
  2 13  2  0  0  0  0
  2 19  1  0  0  0  0
  3 10  1  0  0  0  0
  4 20  2  0  0  0  0
  5  1  1  0  0  0  0
  6  8  2  0  0  0  0
  7 15  1  1  0  0  0
  7  9  1  0  0  0  0
  9 14  1  1  0  0  0
 10 21  2  0  0  0  0
 11 28  1  6  0  0  0
 11  5  1  0  0  0  0
 11  8  1  0  0  0  0
 12  8  1  6  0  0  0
 12  4  1  0  0  0  0
 12 27  1  0  0  0  0
 13 18  1  0  0  0  0
 15 23  1  0  0  0  0
 16  2  1  0  0  0  0
 17  3  1  0  0  0  0
 18 25  2  0  0  0  0
 19 26  1  0  0  0  0
 20 17  1  0  0  0  0
 20 22  1  0  0  0  0
 22  9  1  0  0  0  0
 22 10  1  0  0  0  0
 23 14  1  0  0  0  0
 24 27  2  0  0  0  0
 26 25  1  0  0  0  0
 26 17  2  0  0  0  0
 27  7  1  0  0  0  0
 29 30  1  0  0  0  0
 30 28  2  0  0  0  0
M  END
>  <MODEL>
2

>  <REMARK>
 VINA RESULT:     -11.1      1.819      5.456
  Name = 
  1 active torsions:
  status: ('A' for Active; 'I' for Inactive)
    1  A    between atoms: C_11  and  N_28
                            x       y       z     vdW  Elec       q    Type
                         _______ _______ _______ _____ _____    ______ ____

>  <TORSDO>
F 1

$$$$
=
 OpenBabel11122410313D

 30 35  0  0  1  0  0  0  0  0999 V2000
  188.4200  177.5500  144.8130 C   0  0  0  0  0  0  0  0  0  0  0  0
  186.7010  177.8780  146.6150 C   0  0  0  0  0  0  0  0  0  0  0  0
  185.7750  178.8740  141.9400 N   0  0  0  0  0  2  0  0  0  0  0  0
  188.7840  177.6880  143.4370 C   0  0  0  0  0  0  0  0  0  0  0  0
  189.3730  176.8360  145.7510 C   0  0  0  0  0  2  0  0  0  0  0  0
  191.9850  176.1950  143.5940 O   0  0  0  0  0  0  0  0  0  0  0  0
  189.8540  176.7030  140.7550 C   0  0  1  0  0  3  0  0  0  0  0  0
  191.1100  176.9410  144.0100 C   0  0  0  0  0  0  0  0  0  0  0  0
  188.5950  177.3570  140.2210 C   0  0  2  0  0  3  0  0  0  0  0  0
  186.5630  178.6270  140.8720 C   0  0  0  0  0  0  0  0  0  0  0  0
  190.8500  177.1150  145.4740 C   0  0  2  0  0  3  0  0  0  0  0  0
  190.2570  177.7540  143.0840 C   0  0  1  0  0  3  0  0  0  0  0  0
  185.4170  178.2990  146.9680 C   0  0  0  0  0  3  0  0  0  0  0  0
  189.0290  178.1520  139.0070 C   0  0  0  0  0  2  0  0  0  0  0  0
  190.6460  176.3780  139.4960 C   0  0  0  0  0  2  0  0  0  0  0  0
  187.5330  177.4140  147.6260 O   0  0  0  0  0  1  0  0  0  0  0  0
  186.5560  178.5100  142.9730 C   0  0  0  0  0  0  0  0  0  0  0  0
  184.5600  178.7790  146.0290 N   0  0  0  0  0  0  0  0  0  0  0  0
  187.1180  177.9490  145.2600 C   0  0  0  0  0  0  0  0  0  0  0  0
  187.7810  178.0930  142.5330 C   0  0  0  0  0  0  0  0  0  0  0  0
  186.1550  178.7750  139.6890 O   0  0  0  0  0  0  0  0  0  0  0  0
  187.7980  178.1470  141.1770 N   0  0  0  0  0  0  0  0  0  0  0  0
  190.1850  177.3590  138.4200 C   0  0  0  0  0  2  0  0  0  0  0  0
  191.4950  178.3660  141.1920 O   0  0  0  0  0  0  0  0  0  0  0  0
  184.9170  178.8670  144.7240 C   0  0  0  0  0  3  0  0  0  0  0  0
  186.1910  178.4630  144.3140 C   0  0  0  0  0  0  0  0  0  0  0  0
  190.6150  177.6460  141.6400 C   0  0  0  0  0  0  0  0  0  0  0  0
  191.6790  176.2340  146.2600 N   0  0  0  0  0  0  0  0  0  0  0  0
  192.8050  175.5850  148.2800 C   0  0  0  0  0  1  0  0  0  0  0  0
  191.9490  176.5070  147.4840 C   0  0  0  0  0  3  0  0  0  0  0  0
  1 19  1  0  0  0  0
  1  5  1  0  0  0  0
  2 13  1  0  0  0  0
  2 16  1  0  0  0  0
  3 17  1  0  0  0  0
  4  1  2  0  0  0  0
  6  8  2  0  0  0  0
  7 15  1  6  0  0  0
  7 27  1  0  0  0  0
  8 11  1  0  0  0  0
  9 14  1  6  0  0  0
  9  7  1  0  0  0  0
  9 22  1  0  0  0  0
 10 22  1  0  0  0  0
 10  3  1  0  0  0  0
 11  5  1  0  0  0  0
 11 28  1  1  0  0  0
 12 27  1  6  0  0  0
 12  4  1  0  0  0  0
 12  8  1  0  0  0  0
 17 26  1  0  0  0  0
 18 13  2  0  0  0  0
 19  2  2  0  0  0  0
 20 17  2  0  0  0  0
 20  4  1  0  0  0  0
 21 10  2  0  0  0  0
 22 20  1  0  0  0  0
 23 14  1  0  0  0  0
 23 15  1  0  0  0  0
 24 27  2  0  0  0  0
 25 18  1  0  0  0  0
 26 25  2  0  0  0  0
 26 19  1  0  0  0  0
 28 30  2  0  0  0  0
 30 29  1  0  0  0  0
M  END
>  <MODEL>
3

>  <REMARK>
 VINA RESULT:     -10.9      1.672      5.571
  Name = 
  1 active torsions:
  status: ('A' for Active; 'I' for Inactive)
    1  A    between atoms: C_11  and  N_28
                            x       y       z     vdW  Elec       q    Type
                         _______ _______ _______ _____ _____    ______ ____

>  <TORSDO>
F 1

$$$$
=
 OpenBabel11122410313D

 30 35  0  0  1  0  0  0  0  0999 V2000
  187.1590  177.9430  142.9340 C   0  0  0  0  0  0  0  0  0  0  0  0
  188.4210  177.5210  145.0650 C   0  0  0  0  0  0  0  0  0  0  0  0
  183.6840  178.6440  145.0410 N   0  0  0  0  0  2  0  0  0  0  0  0
  185.9380  178.3290  142.2980 C   0  0  0  0  0  0  0  0  0  0  0  0
  188.3150  177.4760  142.0720 C   0  0  0  0  0  2  0  0  0  0  0  0
  186.9530  177.9230  138.9360 O   0  0  0  0  0  0  0  0  0  0  0  0
  183.6430  178.0160  140.3120 C   0  0  1  0  0  3  0  0  0  0  0  0
  187.1200  178.3050  140.0850 C   0  0  0  0  0  0  0  0  0  0  0  0
  182.7900  178.2870  141.5360 C   0  0  2  0  0  3  0  0  0  0  0  0
  182.8710  178.7720  143.9700 C   0  0  0  0  0  0  0  0  0  0  0  0
  188.4590  178.2370  140.7540 C   0  0  2  0  0  3  0  0  0  0  0  0
  186.0050  178.8960  140.8930 C   0  0  1  0  0  3  0  0  0  0  0  0
  188.4110  177.4730  146.4610 C   0  0  0  0  0  3  0  0  0  0  0  0
  181.7520  179.2990  141.0970 C   0  0  0  0  0  2  0  0  0  0  0  0
  182.6460  178.0900  139.1630 C   0  0  0  0  0  2  0  0  0  0  0  0
  189.6170  177.2430  144.4140 O   0  0  0  0  0  1  0  0  0  0  0  0
  184.8870  178.4430  144.4750 C   0  0  0  0  0  0  0  0  0  0  0  0
  187.2780  177.7490  147.1580 N   0  0  0  0  0  0  0  0  0  0  0  0
  187.2340  177.8590  144.3630 C   0  0  0  0  0  0  0  0  0  0  0  0
  184.7970  178.4850  143.1120 C   0  0  0  0  0  0  0  0  0  0  0  0
  181.6230  178.9020  144.0870 O   0  0  0  0  0  0  0  0  0  0  0  0
  183.4990  178.6800  142.7670 N   0  0  0  0  0  0  0  0  0  0  0  0
  181.4980  178.9790  139.6330 C   0  0  0  0  0  2  0  0  0  0  0  0
  184.5340  180.0590  139.4900 O   0  0  0  0  0  0  0  0  0  0  0  0
  186.1230  178.0800  146.5290 C   0  0  0  0  0  3  0  0  0  0  0  0
  186.0750  178.1460  145.1340 C   0  0  0  0  0  0  0  0  0  0  0  0
  184.7140  179.0560  140.1640 C   0  0  0  0  0  0  0  0  0  0  0  0
  189.4320  177.5880  139.9090 N   0  0  0  0  0  0  0  0  0  0  0  0
  191.6370  176.7740  139.4140 C   0  0  0  0  0  1  0  0  0  0  0  0
  190.6470  177.4470  140.2980 C   0  0  0  0  0  3  0  0  0  0  0  0
  1 19  1  0  0  0  0
  2 13  1  0  0  0  0
  4  1  2  0  0  0  0
  4 20  1  0  0  0  0
  5  1  1  0  0  0  0
  6  8  2  0  0  0  0
  7 15  1  6  0  0  0
  7  9  1  0  0  0  0
  8 11  1  0  0  0  0
  9 14  1  6  0  0  0
  9 22  1  0  0  0  0
 10 21  2  0  0  0  0
 10  3  1  0  0  0  0
 11 28  1  6  0  0  0
 11  5  1  0  0  0  0
 12  8  1  6  0  0  0
 12  4  1  0  0  0  0
 13 18  2  0  0  0  0
 15 23  1  0  0  0  0
 16  2  1  0  0  0  0
 17  3  1  0  0  0  0
 17 26  1  0  0  0  0
 19  2  2  0  0  0  0
 19 26  1  0  0  0  0
 20 17  2  0  0  0  0
 22 20  1  0  0  0  0
 22 10  1  0  0  0  0
 23 14  1  0  0  0  0
 24 27  2  0  0  0  0
 25 18  1  0  0  0  0
 26 25  2  0  0  0  0
 27  7  1  0  0  0  0
 27 12  1  0  0  0  0
 28 30  2  0  0  0  0
 29 30  1  0  0  0  0
M  END
>  <MODEL>
4

>  <REMARK>
 VINA RESULT:     -10.6      1.800      2.813
  Name = 
  1 active torsions:
  status: ('A' for Active; 'I' for Inactive)
    1  A    between atoms: C_11  and  N_28
                            x       y       z     vdW  Elec       q    Type
                         _______ _______ _______ _____ _____    ______ ____

>  <TORSDO>
F 1

$$$$
=
 OpenBabel11122410313D

 30 35  0  0  1  0  0  0  0  0999 V2000
  186.1310  178.2750  143.0050 C   0  0  0  0  0  0  0  0  0  0  0  0
  186.9620  177.9400  145.3520 C   0  0  0  0  0  0  0  0  0  0  0  0
  182.3000  178.9440  144.3750 N   0  0  0  0  0  2  0  0  0  0  0  0
  185.0500  178.6140  142.1330 C   0  0  0  0  0  0  0  0  0  0  0  0
  187.4420  177.8150  142.3980 C   0  0  0  0  0  2  0  0  0  0  0  0
  186.7080  178.1470  139.0450 O   0  0  0  0  0  0  0  0  0  0  0  0
  183.1920  178.1920  139.7500 C   0  0  1  0  0  3  0  0  0  0  0  0
  186.6410  178.5630  140.1930 C   0  0  0  0  0  0  0  0  0  0  0  0
  182.1130  178.4730  140.7760 C   0  0  2  0  0  3  0  0  0  0  0  0
  181.7090  179.0230  143.1630 C   0  0  0  0  0  0  0  0  0  0  0  0
  187.8250  178.5450  141.1100 C   0  0  2  0  0  3  0  0  0  0  0  0
  185.3790  179.1460  140.7510 C   0  0  1  0  0  3  0  0  0  0  0  0
  186.6820  177.9290  146.7200 C   0  0  0  0  0  3  0  0  0  0  0  0
  181.1600  179.4470  140.1140 C   0  0  0  0  0  2  0  0  0  0  0  0
  182.4370  178.2120  138.4270 C   0  0  0  0  0  2  0  0  0  0  0  0
  188.2670  177.6760  144.9540 O   0  0  0  0  0  1  0  0  0  0  0  0
  183.5940  178.7590  144.0600 C   0  0  0  0  0  0  0  0  0  0  0  0
  185.4300  178.1940  147.1750 N   0  0  0  0  0  0  0  0  0  0  0  0
  185.9290  178.2300  144.4230 C   0  0  0  0  0  0  0  0  0  0  0  0
  183.7700  178.7630  142.7040 C   0  0  0  0  0  0  0  0  0  0  0  0
  180.4600  179.1250  143.0320 O   0  0  0  0  0  0  0  0  0  0  0  0
  182.5600  178.9160  142.1090 N   0  0  0  0  0  0  0  0  0  0  0  0
  181.2020  179.0840  138.6390 C   0  0  0  0  0  2  0  0  0  0  0  0
  184.1870  180.2360  139.0540 O   0  0  0  0  0  0  0  0  0  0  0  0
  184.4130  178.4790  146.3250 C   0  0  0  0  0  3  0  0  0  0  0  0
  184.6370  178.5080  144.9450 C   0  0  0  0  0  0  0  0  0  0  0  0
  184.2510  179.2550  139.7800 C   0  0  0  0  0  0  0  0  0  0  0  0
  188.9560  177.9000  140.4910 N   0  0  0  0  0  0  0  0  0  0  0  0
  191.1660  176.9580  140.5160 C   0  0  0  0  0  1  0  0  0  0  0  0
  190.0080  177.6250  141.1720 C   0  0  0  0  0  3  0  0  0  0  0  0
  1 19  1  0  0  0  0
  2 13  1  0  0  0  0
  4 20  1  0  0  0  0
  4  1  2  0  0  0  0
  5  1  1  0  0  0  0
  6  8  2  0  0  0  0
  7 15  1  6  0  0  0
  7 27  1  0  0  0  0
  7  9  1  0  0  0  0
  8 12  1  0  0  0  0
  8 11  1  0  0  0  0
  9 14  1  6  0  0  0
  9 22  1  0  0  0  0
 10  3  1  0  0  0  0
 11 28  1  6  0  0  0
 11  5  1  0  0  0  0
 12 27  1  6  0  0  0
 12  4  1  0  0  0  0
 13 18  2  0  0  0  0
 15 23  1  0  0  0  0
 16  2  1  0  0  0  0
 17  3  1  0  0  0  0
 17 26  1  0  0  0  0
 19 26  1  0  0  0  0
 19  2  2  0  0  0  0
 20 17  2  0  0  0  0
 21 10  2  0  0  0  0
 22 20  1  0  0  0  0
 22 10  1  0  0  0  0
 23 14  1  0  0  0  0
 24 27  2  0  0  0  0
 25 18  1  0  0  0  0
 26 25  2  0  0  0  0
 28 30  2  0  0  0  0
 29 30  1  0  0  0  0
M  END
>  <MODEL>
5

>  <REMARK>
 VINA RESULT:     -10.3      2.469      3.969
  Name = 
  1 active torsions:
  status: ('A' for Active; 'I' for Inactive)
    1  A    between atoms: C_11  and  N_28
                            x       y       z     vdW  Elec       q    Type
                         _______ _______ _______ _____ _____    ______ ____

>  <TORSDO>
F 1

$$$$
=
 OpenBabel11122410313D

 30 35  0  0  1  0  0  0  0  0999 V2000
  188.1360  177.5930  143.5350 C   0  0  0  0  0  0  0  0  0  0  0  0
  186.1450  178.1420  144.9640 C   0  0  0  0  0  0  0  0  0  0  0  0
  186.1370  178.8200  140.1430 N   0  0  0  0  0  2  0  0  0  0  0  0
  188.7490  177.6060  142.2430 C   0  0  0  0  0  0  0  0  0  0  0  0
  188.8580  176.9070  144.6770 C   0  0  0  0  0  2  0  0  0  0  0  0
  191.7710  175.9750  143.0840 O   0  0  0  0  0  0  0  0  0  0  0  0
  190.2200  176.3670  139.8740 C   0  0  1  0  0  3  0  0  0  0  0  0
  190.8830  176.7920  143.2810 C   0  0  0  0  0  0  0  0  0  0  0  0
  189.1200  177.0380  139.0760 C   0  0  2  0  0  3  0  0  0  0  0  0
  187.0880  178.4530  139.2560 C   0  0  0  0  0  0  0  0  0  0  0  0
  190.3760  177.0910  144.6580 C   0  0  2  0  0  3  0  0  0  0  0  0
  190.2630  177.5730  142.1630 C   0  0  1  0  0  3  0  0  0  0  0  0
  184.8470  178.6520  145.0460 C   0  0  0  0  0  3  0  0  0  0  0  0
  189.8130  177.7160  137.9120 C   0  0  0  0  0  2  0  0  0  0  0  0
  191.2030  175.9070  138.8060 C   0  0  0  0  0  2  0  0  0  0  0  0
  186.7510  177.7170  146.1400 O   0  0  0  0  0  1  0  0  0  0  0  0
  186.6950  178.4980  141.3240 C   0  0  0  0  0  0  0  0  0  0  0  0
  184.2050  179.0990  143.9370 N   0  0  0  0  0  0  0  0  0  0  0  0
  186.8020  178.0880  143.7070 C   0  0  0  0  0  0  0  0  0  0  0  0
  187.9520  177.9890  141.1440 C   0  0  0  0  0  0  0  0  0  0  0  0
  186.9080  178.5290  138.0120 O   0  0  0  0  0  0  0  0  0  0  0  0
  188.2150  177.9370  139.8140 N   0  0  0  0  0  0  0  0  0  0  0  0
  191.0040  176.8240  137.6020 C   0  0  0  0  0  2  0  0  0  0  0  0
  191.8560  177.9750  140.4930 O   0  0  0  0  0  0  0  0  0  0  0  0
  184.7950  179.0690  142.7160 C   0  0  0  0  0  3  0  0  0  0  0  0
  186.0940  178.5730  142.5750 C   0  0  0  0  0  0  0  0  0  0  0  0
  190.8660  177.3370  140.8190 C   0  0  0  0  0  0  0  0  0  0  0  0
  190.9930  176.2330  145.6400 N   0  0  0  0  0  0  0  0  0  0  0  0
  192.2420  175.8300  147.6520 C   0  0  0  0  0  1  0  0  0  0  0  0
  191.6120  176.7310  146.6480 C   0  0  0  0  0  3  0  0  0  0  0  0
  1 19  1  0  0  0  0
  1  5  1  0  0  0  0
  2 13  1  0  0  0  0
  2 16  1  0  0  0  0
  3 17  1  0  0  0  0
  4  1  2  0  0  0  0
  6  8  2  0  0  0  0
  7 15  1  6  0  0  0
  7 27  1  0  0  0  0
  8 11  1  0  0  0  0
  9 14  1  6  0  0  0
  9 22  1  0  0  0  0
  9  7  1  0  0  0  0
 10 22  1  0  0  0  0
 10  3  1  0  0  0  0
 11  5  1  0  0  0  0
 11 28  1  1  0  0  0
 12 27  1  6  0  0  0
 12  4  1  0  0  0  0
 12  8  1  0  0  0  0
 17 26  1  0  0  0  0
 18 13  2  0  0  0  0
 19  2  2  0  0  0  0
 20 17  2  0  0  0  0
 20  4  1  0  0  0  0
 21 10  2  0  0  0  0
 22 20  1  0  0  0  0
 23 14  1  0  0  0  0
 23 15  1  0  0  0  0
 24 27  2  0  0  0  0
 25 18  1  0  0  0  0
 26 25  2  0  0  0  0
 26 19  1  0  0  0  0
 28 30  2  0  0  0  0
 30 29  1  0  0  0  0
M  END
>  <MODEL>
6

>  <REMARK>
 VINA RESULT:     -10.3      1.819      6.135
  Name = 
  1 active torsions:
  status: ('A' for Active; 'I' for Inactive)
    1  A    between atoms: C_11  and  N_28
                            x       y       z     vdW  Elec       q    Type
                         _______ _______ _______ _____ _____    ______ ____

>  <TORSDO>
F 1

$$$$
=
 OpenBabel11122410313D

 30 35  0  0  1  0  0  0  0  0999 V2000
  189.6950  177.5510  143.0320 C   0  0  0  0  0  0  0  0  0  0  0  0
  191.3590  177.4240  141.1550 C   0  0  0  0  0  0  0  0  0  0  0  0
  186.6640  178.4560  140.3870 N   0  0  0  0  0  2  0  0  0  0  0  0
  188.3370  177.7180  143.4460 C   0  0  0  0  0  0  0  0  0  0  0  0
  190.7750  177.4570  144.0920 C   0  0  0  0  0  2  0  0  0  0  0  0
  188.8410  177.5870  146.9440 O   0  0  0  0  0  0  0  0  0  0  0  0
  186.0890  178.9570  145.0970 C   0  0  1  0  0  3  0  0  0  0  0  0
  189.0230  177.1900  145.8020 C   0  0  0  0  0  0  0  0  0  0  0  0
  185.4240  179.1020  143.7430 C   0  0  2  0  0  3  0  0  0  0  0  0
  185.7040  178.6730  141.3130 C   0  0  0  0  0  0  0  0  0  0  0  0
  190.3570  176.6860  145.3440 C   0  0  2  0  0  3  0  0  0  0  0  0
  187.9190  177.1530  144.7900 C   0  0  1  0  0  3  0  0  0  0  0  0
  191.6080  177.4960  139.7820 C   0  0  0  0  0  3  0  0  0  0  0  0
  183.9970  178.6300  143.9330 C   0  0  0  0  0  2  0  0  0  0  0  0
  184.9760  179.3000  146.0770 C   0  0  0  0  0  2  0  0  0  0  0  0
  192.4300  177.1460  141.9950 O   0  0  0  0  0  1  0  0  0  0  0  0
  187.7240  178.1080  141.1380 C   0  0  0  0  0  0  0  0  0  0  0  0
  190.6020  177.7480  138.9060 N   0  0  0  0  0  0  0  0  0  0  0  0
  190.0410  177.6190  141.6430 C   0  0  0  0  0  0  0  0  0  0  0  0
  187.3940  178.0850  142.4650 C   0  0  0  0  0  0  0  0  0  0  0  0
  184.5580  179.0970  141.0040 O   0  0  0  0  0  0  0  0  0  0  0  0
  186.0970  178.4640  142.5980 N   0  0  0  0  0  0  0  0  0  0  0  0
  183.6570  179.0030  145.3670 C   0  0  0  0  0  2  0  0  0  0  0  0
  185.8790  176.7140  145.8550 O   0  0  0  0  0  0  0  0  0  0  0  0
  189.3270  177.9380  139.3270 C   0  0  0  0  0  3  0  0  0  0  0  0
  189.0190  177.8740  140.6890 C   0  0  0  0  0  0  0  0  0  0  0  0
  186.5780  177.5540  145.3070 C   0  0  0  0  0  0  0  0  0  0  0  0
  191.3540  176.8350  146.3760 N   0  0  0  0  0  0  0  0  0  0  0  0
  192.8050  175.9890  148.0940 C   0  0  0  0  0  1  0  0  0  0  0  0
  191.7750  175.8160  147.0330 C   0  0  0  0  0  3  0  0  0  0  0  0
  1  4  1  0  0  0  0
  1  5  1  0  0  0  0
  2 19  1  0  0  0  0
  2 16  1  0  0  0  0
  3 17  1  0  0  0  0
  3 10  1  0  0  0  0
  5 11  1  0  0  0  0
  7 27  1  0  0  0  0
  7 15  1  1  0  0  0
  8  6  2  0  0  0  0
  9 14  1  1  0  0  0
  9  7  1  0  0  0  0
 10 22  1  0  0  0  0
 11  8  1  0  0  0  0
 11 28  1  1  0  0  0
 12  4  1  6  0  0  0
 12 27  1  0  0  0  0
 12  8  1  0  0  0  0
 13  2  2  0  0  0  0
 14 23  1  0  0  0  0
 17 20  1  0  0  0  0
 18 25  2  0  0  0  0
 18 13  1  0  0  0  0
 19  1  2  0  0  0  0
 20 22  1  0  0  0  0
 20  4  2  0  0  0  0
 21 10  2  0  0  0  0
 22  9  1  0  0  0  0
 23 15  1  0  0  0  0
 25 26  1  0  0  0  0
 26 17  2  0  0  0  0
 26 19  1  0  0  0  0
 27 24  2  0  0  0  0
 28 30  2  0  0  0  0
 30 29  1  0  0  0  0
M  END
>  <MODEL>
7

>  <REMARK>
 VINA RESULT:     -10.1      1.657      5.047
  Name = 
  1 active torsions:
  status: ('A' for Active; 'I' for Inactive)
    1  A    between atoms: C_11  and  N_28
                            x       y       z     vdW  Elec       q    Type
                         _______ _______ _______ _____ _____    ______ ____

>  <TORSDO>
F 1

$$$$
=
 OpenBabel11122410313D

 30 35  0  0  1  0  0  0  0  0999 V2000
  186.8710  178.1080  143.0160 C   0  0  0  0  0  0  0  0  0  0  0  0
  185.4580  178.3190  145.0820 C   0  0  0  0  0  0  0  0  0  0  0  0
  183.6650  179.1160  140.6260 N   0  0  0  0  0  2  0  0  0  0  0  0
  186.9820  178.2470  141.5970 C   0  0  0  0  0  0  0  0  0  0  0  0
  188.0310  177.5070  143.7830 C   0  0  0  0  0  2  0  0  0  0  0  0
  190.2910  177.0580  141.2170 O   0  0  0  0  0  0  0  0  0  0  0  0
  187.6720  177.3020  138.7790 C   0  0  1  0  0  3  0  0  0  0  0  0
  189.4320  177.7300  141.7700 C   0  0  0  0  0  0  0  0  0  0  0  0
  186.2850  177.8250  138.4620 C   0  0  2  0  0  3  0  0  0  0  0  0
  184.2820  178.9180  139.4400 C   0  0  0  0  0  0  0  0  0  0  0  0
  189.4080  177.9140  143.2570 C   0  0  2  0  0  3  0  0  0  0  0  0
  188.3620  178.4400  140.9980 C   0  0  1  0  0  3  0  0  0  0  0  0
  184.2170  178.6280  145.6450 C   0  0  0  0  0  3  0  0  0  0  0  0
  186.4310  178.6280  137.1870 C   0  0  0  0  0  2  0  0  0  0  0  0
  188.2670  177.0220  137.4060 C   0  0  0  0  0  2  0  0  0  0  0  0
  186.4880  177.9560  145.9400 O   0  0  0  0  0  1  0  0  0  0  0  0
  184.6400  178.8490  141.5130 C   0  0  0  0  0  0  0  0  0  0  0  0
  183.1730  179.0040  144.8620 N   0  0  0  0  0  0  0  0  0  0  0  0
  185.6310  178.3960  143.6750 C   0  0  0  0  0  0  0  0  0  0  0  0
  185.8080  178.5370  140.8730 C   0  0  0  0  0  0  0  0  0  0  0  0
  183.6670  178.9990  138.3440 O   0  0  0  0  0  0  0  0  0  0  0  0
  185.5900  178.5600  139.5340 N   0  0  0  0  0  0  0  0  0  0  0  0
  187.5410  177.9310  136.4180 C   0  0  0  0  0  2  0  0  0  0  0  0
  189.1990  179.1180  138.9180 O   0  0  0  0  0  0  0  0  0  0  0  0
  183.2950  179.0950  143.5150 C   0  0  0  0  0  3  0  0  0  0  0  0
  184.5130  178.8010  142.8970 C   0  0  0  0  0  0  0  0  0  0  0  0
  188.4790  178.3320  139.5150 C   0  0  0  0  0  0  0  0  0  0  0  0
  190.4370  177.1310  143.8970 N   0  0  0  0  0  0  0  0  0  0  0  0
  191.6810  176.3780  145.8090 C   0  0  0  0  0  1  0  0  0  0  0  0
  190.6140  177.1940  145.1660 C   0  0  0  0  0  3  0  0  0  0  0  0
  1 19  1  0  0  0  0
  1  5  1  0  0  0  0
  2 13  1  0  0  0  0
  2 16  1  0  0  0  0
  3 17  1  0  0  0  0
  4  1  2  0  0  0  0
  6  8  2  0  0  0  0
  7 15  1  6  0  0  0
  7 27  1  0  0  0  0
  8 11  1  0  0  0  0
  9 14  1  6  0  0  0
  9  7  1  0  0  0  0
  9 22  1  0  0  0  0
 10 22  1  0  0  0  0
 10  3  1  0  0  0  0
 11  5  1  0  0  0  0
 11 28  1  1  0  0  0
 12 27  1  6  0  0  0
 12  4  1  0  0  0  0
 12  8  1  0  0  0  0
 17 26  1  0  0  0  0
 18 13  2  0  0  0  0
 19  2  2  0  0  0  0
 20 17  2  0  0  0  0
 20  4  1  0  0  0  0
 21 10  2  0  0  0  0
 22 20  1  0  0  0  0
 23 14  1  0  0  0  0
 23 15  1  0  0  0  0
 24 27  2  0  0  0  0
 25 18  1  0  0  0  0
 26 25  2  0  0  0  0
 26 19  1  0  0  0  0
 28 30  2  0  0  0  0
 30 29  1  0  0  0  0
M  END
>  <MODEL>
8

>  <REMARK>
 VINA RESULT:      -9.8      2.557      5.594
  Name = 
  1 active torsions:
  status: ('A' for Active; 'I' for Inactive)
    1  A    between atoms: C_11  and  N_28
                            x       y       z     vdW  Elec       q    Type
                         _______ _______ _______ _____ _____    ______ ____

>  <TORSDO>
F 1

$$$$
=
 OpenBabel11122410313D

 30 35  0  0  1  0  0  0  0  0999 V2000
  185.3440  178.5800  142.5560 C   0  0  0  0  0  0  0  0  0  0  0  0
  185.1390  178.6130  140.0530 C   0  0  0  0  0  0  0  0  0  0  0  0
  189.4040  177.9040  142.2920 N   0  0  0  0  0  2  0  0  0  0  0  0
  186.1880  178.5000  143.7080 C   0  0  0  0  0  0  0  0  0  0  0  0
  183.8410  178.5920  142.7520 C   0  0  0  0  0  2  0  0  0  0  0  0
  183.6760  178.5660  146.1960 O   0  0  0  0  0  0  0  0  0  0  0  0
  187.0600  177.3990  146.4170 C   0  0  1  0  0  3  0  0  0  0  0  0
  184.1940  178.9600  145.1610 C   0  0  0  0  0  0  0  0  0  0  0  0
  188.4130  177.3110  145.7390 C   0  0  2  0  0  3  0  0  0  0  0  0
  189.6250  177.7430  143.6150 C   0  0  0  0  0  0  0  0  0  0  0  0
  183.3760  179.3780  143.9780 C   0  0  2  0  0  3  0  0  0  0  0  0
  185.6800  179.0790  145.0140 C   0  0  1  0  0  3  0  0  0  0  0  0
  185.7700  178.5370  138.8090 C   0  0  0  0  0  3  0  0  0  0  0  0
  189.4080  177.8760  146.7320 C   0  0  0  0  0  2  0  0  0  0  0  0
  187.3790  177.1220  147.8800 C   0  0  0  0  0  2  0  0  0  0  0  0
  183.7640  178.8110  140.0720 O   0  0  0  0  0  1  0  0  0  0  0  0
  188.0870  178.1740  142.2440 C   0  0  0  0  0  0  0  0  0  0  0  0
  187.1140  178.3610  138.7210 N   0  0  0  0  0  0  0  0  0  0  0  0
  185.9080  178.5020  141.2410 C   0  0  0  0  0  0  0  0  0  0  0  0
  187.5510  178.2070  143.5020 C   0  0  0  0  0  0  0  0  0  0  0  0
  190.7490  177.4000  144.0700 O   0  0  0  0  0  0  0  0  0  0  0  0
  188.5270  177.9140  144.3990 N   0  0  0  0  0  0  0  0  0  0  0  0
  188.8390  177.5140  148.0940 C   0  0  0  0  0  2  0  0  0  0  0  0
  186.6400  179.6440  147.0750 O   0  0  0  0  0  0  0  0  0  0  0  0
  187.8880  178.2530  139.8290 C   0  0  0  0  0  3  0  0  0  0  0  0
  187.3110  178.3240  141.1010 C   0  0  0  0  0  0  0  0  0  0  0  0
  186.4620  178.7650  146.2450 C   0  0  0  0  0  0  0  0  0  0  0  0
  181.9700  179.1530  144.2090 N   0  0  0  0  0  0  0  0  0  0  0  0
  179.7120  178.7700  143.4830 C   0  0  0  0  0  1  0  0  0  0  0  0
  181.1600  179.0030  143.2250 C   0  0  0  0  0  3  0  0  0  0  0  0
  1  5  1  0  0  0  0
  1  4  1  0  0  0  0
  2 16  1  0  0  0  0
  2 19  1  0  0  0  0
  3 10  1  0  0  0  0
  5 11  1  0  0  0  0
  7 15  1  1  0  0  0
  8  6  2  0  0  0  0
  9  7  1  0  0  0  0
  9 14  1  1  0  0  0
 10 21  2  0  0  0  0
 10 22  1  0  0  0  0
 11 28  1  1  0  0  0
 11  8  1  0  0  0  0
 12  4  1  6  0  0  0
 12  8  1  0  0  0  0
 12 27  1  0  0  0  0
 13  2  2  0  0  0  0
 14 23  1  0  0  0  0
 15 23  1  0  0  0  0
 17  3  1  0  0  0  0
 17 20  1  0  0  0  0
 18 13  1  0  0  0  0
 18 25  2  0  0  0  0
 19  1  2  0  0  0  0
 20  4  2  0  0  0  0
 20 22  1  0  0  0  0
 22  9  1  0  0  0  0
 25 26  1  0  0  0  0
 26 19  1  0  0  0  0
 26 17  2  0  0  0  0
 27  7  1  0  0  0  0
 27 24  2  0  0  0  0
 30 29  1  0  0  0  0
 30 28  2  0  0  0  0
M  END
>  <MODEL>
9

>  <REMARK>
 VINA RESULT:      -9.8      2.168      6.954
  Name = 
  1 active torsions:
  status: ('A' for Active; 'I' for Inactive)
    1  A    between atoms: C_11  and  N_28
                            x       y       z     vdW  Elec       q    Type
                         _______ _______ _______ _____ _____    ______ ____

>  <TORSDO>
F 1

$$$$
