=
 OpenBabel11122411033D

 31 35  0  0  1  0  0  0  0  0999 V2000
  188.0340  176.9050  135.8850 C   0  0  0  0  0  0  0  0  0  0  0  0
  185.2640  178.2930  138.0970 C   0  0  2  0  0  3  0  0  0  0  0  0
  184.2640  177.1590  138.2860 C   0  0  0  0  0  0  0  0  0  0  0  0
  183.3110  175.0290  137.5980 C   0  0  0  0  0  0  0  0  0  0  0  0
  186.6150  177.8020  137.6390 C   0  0  0  0  0  0  0  0  0  0  0  0
  189.0920  176.7980  136.7920 C   0  0  0  0  0  3  0  0  0  0  0  0
  184.2510  176.0490  137.4280 C   0  0  0  0  0  3  0  0  0  0  0  0
  186.1790  178.3680  140.3860 N   0  0  0  0  0  0  0  0  0  0  0  0
  188.2020  176.5180  134.5990 F   0  0  0  0  0  0  0  0  0  0  0  0
  183.2340  178.3680  140.1340 O   0  0  0  0  0  0  0  0  0  0  0  0
  183.3240  173.6440  136.5300 Cl  0  0  0  0  0  0  0  0  0  0  0  0
  187.5690  178.2560  139.9370 C   0  0  0  0  0  2  0  0  0  0  0  0
  185.4180  179.1370  139.3820 C   0  0  2  0  0  3  0  0  0  0  0  0
  186.8010  177.4080  136.3070 C   0  0  0  0  0  3  0  0  0  0  0  0
  182.3640  175.1150  138.6190 C   0  0  0  0  0  3  0  0  0  0  0  0
  187.6850  177.6940  138.5500 C   0  0  0  0  0  0  0  0  0  0  0  0
  188.9210  177.2030  138.1180 C   0  0  0  0  0  3  0  0  0  0  0  0
  184.0190  179.5290  139.8790 C   0  0  0  0  0  2  0  0  0  0  0  0
  183.2790  177.2560  139.2910 C   0  0  0  0  0  0  0  0  0  0  0  0
  182.3470  176.2280  139.4640 C   0  0  0  0  0  3  0  0  0  0  0  0
  186.2330  179.1110  141.6410 C   0  0  0  0  0  2  0  0  0  0  0  0
  184.5560  177.8680  142.7700 O   0  0  0  0  0  0  0  0  0  0  0  0
  185.7610  178.2380  142.7590 C   0  0  0  0  0  0  0  0  0  0  0  0
  188.2980  177.3680  146.1340 C   0  0  1  0  0  3  0  0  0  0  0  0
  186.0270  177.5310  145.1380 C   0  0  0  0  0  2  0  0  0  0  0  0
  188.5620  177.6290  142.5470 O   0  0  0  0  0  0  0  0  0  0  0  0
  189.1460  177.7080  147.3410 C   0  0  0  0  0  1  0  0  0  0  0  0
  186.9080  177.9680  146.3030 C   0  0  0  0  0  2  0  0  0  0  0  0
  188.0560  177.7900  143.6900 C   0  0  0  0  0  0  0  0  0  0  0  0
  186.6280  177.9040  143.8560 N   0  0  0  0  0  0  0  0  0  0  0  0
  188.9620  177.9140  144.8760 C   0  0  0  0  0  2  0  0  0  0  0  0
  1 14  2  0  0  0  0
  1  6  1  0  0  0  0
  2  5  1  1  0  0  0
  2  3  1  0  0  0  0
  2 13  1  0  0  0  0
  3 19  1  0  0  0  0
  4 15  2  0  0  0  0
  5 16  2  0  0  0  0
  6 17  2  0  0  0  0
  7  4  1  0  0  0  0
  7  3  2  0  0  0  0
  8 21  1  0  0  0  0
  9  1  1  0  0  0  0
 11  4  1  0  0  0  0
 12  8  1  0  0  0  0
 13 18  1  1  0  0  0
 13  8  1  0  0  0  0
 14  5  1  0  0  0  0
 15 20  1  0  0  0  0
 16 12  1  0  0  0  0
 17 16  1  0  0  0  0
 18 10  1  0  0  0  0
 19 20  2  0  0  0  0
 19 10  1  0  0  0  0
 21 23  1  0  0  0  0
 23 22  2  0  0  0  0
 23 30  1  0  0  0  0
 24 28  1  0  0  0  0
 24 27  1  1  0  0  0
 25 28  1  0  0  0  0
 26 29  2  0  0  0  0
 29 30  1  0  0  0  0
 29 31  1  0  0  0  0
 30 25  1  0  0  0  0
 31 24  1  0  0  0  0
M  END
>  <MODEL>
1

>  <REMARK>
 VINA RESULT:      -7.9      0.000      0.000
  Name = 
  2 active torsions:
  status: ('A' for Active; 'I' for Inactive)
    1  A    between atoms: C_5  and  C_16
    2  A    between atoms: N_10  and  C_16
                            x       y       z     vdW  Elec       q    Type
                         _______ _______ _______ _____ _____    ______ ____

>  <TORSDO>
F 2

$$$$
=
 OpenBabel11122411033D

 31 35  0  0  1  0  0  0  0  0999 V2000
  185.7930  172.5350  135.7750 C   0  0  0  0  0  0  0  0  0  0  0  0
  186.4600  176.2720  136.0600 C   0  0  2  0  0  3  0  0  0  0  0  0
  185.5100  176.7920  137.1320 C   0  0  0  0  0  0  0  0  0  0  0  0
  183.5110  176.5520  138.4970 C   0  0  0  0  0  0  0  0  0  0  0  0
  186.6520  174.7770  136.1330 C   0  0  0  0  0  0  0  0  0  0  0  0
  186.9500  171.9970  136.3460 C   0  0  0  0  0  3  0  0  0  0  0  0
  184.3870  176.0510  137.5320 C   0  0  0  0  0  3  0  0  0  0  0  0
  188.5810  176.5040  137.2960 N   0  0  0  0  0  0  0  0  0  0  0  0
  184.8130  171.7140  135.3300 F   0  0  0  0  0  0  0  0  0  0  0  0
  186.7940  178.8570  137.2750 O   0  0  0  0  0  0  0  0  0  0  0  0
  182.1280  175.6050  138.9960 Cl  0  0  0  0  0  0  0  0  0  0  0  0
  188.9790  175.1120  137.0660 C   0  0  0  0  0  2  0  0  0  0  0  0
  187.8300  176.9820  136.1200 C   0  0  2  0  0  3  0  0  0  0  0  0
  185.6460  173.9200  135.6660 C   0  0  0  0  0  3  0  0  0  0  0  0
  183.7410  177.8060  139.0640 C   0  0  0  0  0  3  0  0  0  0  0  0
  187.8180  174.2310  136.7060 C   0  0  0  0  0  0  0  0  0  0  0  0
  187.9640  172.8440  136.7990 C   0  0  0  0  0  3  0  0  0  0  0  0
  187.5940  178.4990  136.1520 C   0  0  0  0  0  2  0  0  0  0  0  0
  185.7120  178.0740  137.6830 C   0  0  0  0  0  0  0  0  0  0  0  0
  184.8390  178.5670  138.6570 C   0  0  0  0  0  3  0  0  0  0  0  0
  189.8290  177.2500  137.4250 C   0  0  0  0  0  2  0  0  0  0  0  0
  191.5440  176.3390  138.7890 O   0  0  0  0  0  0  0  0  0  0  0  0
  190.4480  176.9610  138.7540 C   0  0  0  0  0  0  0  0  0  0  0  0
  188.3440  177.7940  142.4240 C   0  0  1  0  0  3  0  0  0  0  0  0
  190.1090  176.5510  141.1930 C   0  0  0  0  0  2  0  0  0  0  0  0
  188.9100  179.3440  139.2170 O   0  0  0  0  0  0  0  0  0  0  0  0
  187.2070  177.6710  143.4160 C   0  0  0  0  0  1  0  0  0  0  0  0
  188.8960  176.4110  142.1070 C   0  0  0  0  0  2  0  0  0  0  0  0
  188.8700  178.4160  140.0680 C   0  0  0  0  0  0  0  0  0  0  0  0
  189.7680  177.2910  139.9770 N   0  0  0  0  0  0  0  0  0  0  0  0
  187.8390  178.4670  141.1530 C   0  0  0  0  0  2  0  0  0  0  0  0
  1  6  1  0  0  0  0
  2 13  1  0  0  0  0
  2  5  1  1  0  0  0
  2  3  1  0  0  0  0
  3  7  2  0  0  0  0
  3 19  1  0  0  0  0
  4 11  1  0  0  0  0
  4 15  2  0  0  0  0
  5 16  2  0  0  0  0
  6 17  2  0  0  0  0
  7  4  1  0  0  0  0
  8 21  1  0  0  0  0
  9  1  1  0  0  0  0
 10 19  1  0  0  0  0
 12  8  1  0  0  0  0
 13 18  1  1  0  0  0
 13  8  1  0  0  0  0
 14  1  2  0  0  0  0
 14  5  1  0  0  0  0
 16 17  1  0  0  0  0
 16 12  1  0  0  0  0
 18 10  1  0  0  0  0
 19 20  2  0  0  0  0
 20 15  1  0  0  0  0
 21 23  1  0  0  0  0
 23 22  2  0  0  0  0
 23 30  1  0  0  0  0
 24 27  1  1  0  0  0
 25 28  1  0  0  0  0
 26 29  2  0  0  0  0
 28 24  1  0  0  0  0
 29 31  1  0  0  0  0
 30 29  1  0  0  0  0
 30 25  1  0  0  0  0
 31 24  1  0  0  0  0
M  END
>  <MODEL>
2

>  <REMARK>
 VINA RESULT:      -7.8      2.879      4.460
  Name = 
  2 active torsions:
  status: ('A' for Active; 'I' for Inactive)
    1  A    between atoms: C_5  and  C_16
    2  A    between atoms: N_10  and  C_16
                            x       y       z     vdW  Elec       q    Type
                         _______ _______ _______ _____ _____    ______ ____

>  <TORSDO>
F 2

$$$$
=
 OpenBabel11122411033D

 31 35  0  0  1  0  0  0  0  0999 V2000
  186.6640  178.6280  141.7310 C   0  0  0  0  0  0  0  0  0  0  0  0
  183.8460  179.3130  139.2660 C   0  0  2  0  0  3  0  0  0  0  0  0
  183.9180  178.2060  138.2210 C   0  0  0  0  0  0  0  0  0  0  0  0
  185.1360  176.4330  137.0840 C   0  0  0  0  0  0  0  0  0  0  0  0
  184.5760  178.9570  140.5370 C   0  0  0  0  0  0  0  0  0  0  0  0
  185.9550  178.2090  142.8610 C   0  0  0  0  0  3  0  0  0  0  0  0
  185.0750  177.4270  138.0630 C   0  0  0  0  0  3  0  0  0  0  0  0
  181.7600  178.6290  140.3910 N   0  0  0  0  0  0  0  0  0  0  0  0
  188.0170  178.6680  141.7570 F   0  0  0  0  0  0  0  0  0  0  0  0
  181.6850  178.7880  137.4410 O   0  0  0  0  0  0  0  0  0  0  0  0
  186.5800  175.4610  136.9160 Cl  0  0  0  0  0  0  0  0  0  0  0  0
  182.3670  178.6280  141.7250 C   0  0  0  0  0  2  0  0  0  0  0  0
  182.3850  179.6980  139.5880 C   0  0  2  0  0  3  0  0  0  0  0  0
  185.9760  179.0040  140.5750 C   0  0  0  0  0  3  0  0  0  0  0  0
  184.0440  176.2140  136.2420 C   0  0  0  0  0  3  0  0  0  0  0  0
  183.8650  178.5350  141.6780 C   0  0  0  0  0  0  0  0  0  0  0  0
  184.5590  178.1740  142.8370 C   0  0  0  0  0  3  0  0  0  0  0  0
  181.6430  179.9490  138.2670 C   0  0  0  0  0  2  0  0  0  0  0  0
  182.8340  178.0030  137.3410 C   0  0  0  0  0  0  0  0  0  0  0  0
  182.8960  176.9990  136.3700 C   0  0  0  0  0  3  0  0  0  0  0  0
  180.3480  178.9310  140.6050 C   0  0  0  0  0  2  0  0  0  0  0  0
  179.3300  177.6990  142.3590 O   0  0  0  0  0  0  0  0  0  0  0  0
  179.6560  177.7200  141.1420 C   0  0  0  0  0  0  0  0  0  0  0  0
  179.1840  174.1710  138.7400 C   0  0  1  0  0  3  0  0  0  0  0  0
  179.2800  175.2580  140.9720 C   0  0  0  0  0  2  0  0  0  0  0  0
  178.9320  177.7480  138.3600 O   0  0  0  0  0  0  0  0  0  0  0  0
  179.6620  172.9940  137.9160 C   0  0  0  0  0  1  0  0  0  0  0  0
  179.8470  174.1350  140.1110 C   0  0  0  0  0  2  0  0  0  0  0  0
  179.2680  176.6570  138.8930 C   0  0  0  0  0  0  0  0  0  0  0  0
  179.4500  176.5580  140.3200 N   0  0  0  0  0  0  0  0  0  0  0  0
  179.5270  175.4690  138.0190 C   0  0  0  0  0  2  0  0  0  0  0  0
  1  9  1  0  0  0  0
  1  6  1  0  0  0  0
  2  3  1  6  0  0  0
  2 13  1  0  0  0  0
  2  5  1  0  0  0  0
  4  7  2  0  0  0  0
  5 14  1  0  0  0  0
  5 16  2  0  0  0  0
  7  3  1  0  0  0  0
  8 21  1  0  0  0  0
  8 12  1  0  0  0  0
 10 18  1  0  0  0  0
 11  4  1  0  0  0  0
 13 18  1  6  0  0  0
 13  8  1  0  0  0  0
 14  1  2  0  0  0  0
 15 20  2  0  0  0  0
 15  4  1  0  0  0  0
 16 12  1  0  0  0  0
 16 17  1  0  0  0  0
 17  6  2  0  0  0  0
 19 10  1  0  0  0  0
 19  3  2  0  0  0  0
 20 19  1  0  0  0  0
 21 23  1  0  0  0  0
 23 22  2  0  0  0  0
 24 27  1  6  0  0  0
 24 28  1  0  0  0  0
 26 29  2  0  0  0  0
 28 25  1  0  0  0  0
 29 30  1  0  0  0  0
 30 25  1  0  0  0  0
 30 23  1  0  0  0  0
 31 24  1  0  0  0  0
 31 29  1  0  0  0  0
M  END
>  <MODEL>
3

>  <REMARK>
 VINA RESULT:      -7.5      3.630      6.768
  Name = 
  2 active torsions:
  status: ('A' for Active; 'I' for Inactive)
    1  A    between atoms: C_5  and  C_16
    2  A    between atoms: N_10  and  C_16
                            x       y       z     vdW  Elec       q    Type
                         _______ _______ _______ _____ _____    ______ ____

>  <TORSDO>
F 2

$$$$
=
 OpenBabel11122411033D

 31 35  0  0  1  0  0  0  0  0999 V2000
  192.3390  174.8580  135.7680 C   0  0  0  0  0  0  0  0  0  0  0  0
  189.8030  177.4170  136.9980 C   0  0  2  0  0  3  0  0  0  0  0  0
  188.4310  176.7900  136.7860 C   0  0  0  0  0  0  0  0  0  0  0  0
  186.9850  175.1530  135.7140 C   0  0  0  0  0  0  0  0  0  0  0  0
  190.9130  176.3950  136.9930 C   0  0  0  0  0  0  0  0  0  0  0  0
  192.9090  174.4260  136.9690 C   0  0  0  0  0  3  0  0  0  0  0  0
  188.2530  175.7010  135.9180 C   0  0  0  0  0  3  0  0  0  0  0  0
  189.8750  177.3330  139.4620 N   0  0  0  0  0  0  0  0  0  0  0  0
  192.7460  174.3220  134.5940 F   0  0  0  0  0  0  0  0  0  0  0  0
  187.4330  178.4670  138.2440 O   0  0  0  0  0  0  0  0  0  0  0  0
  186.7880  173.7840  134.6430 Cl  0  0  0  0  0  0  0  0  0  0  0  0
  191.1670  176.6430  139.4970 C   0  0  0  0  0  2  0  0  0  0  0  0
  189.8560  178.2440  138.3020 C   0  0  2  0  0  3  0  0  0  0  0  0
  191.3470  175.8410  135.7800 C   0  0  0  0  0  3  0  0  0  0  0  0
  185.8770  175.6960  136.3650 C   0  0  0  0  0  3  0  0  0  0  0  0
  191.4920  175.9580  138.2010 C   0  0  0  0  0  0  0  0  0  0  0  0
  192.4940  174.9830  138.1810 C   0  0  0  0  0  3  0  0  0  0  0  0
  188.6530  179.1980  138.3240 C   0  0  0  0  0  2  0  0  0  0  0  0
  187.2990  177.3560  137.4090 C   0  0  0  0  0  0  0  0  0  0  0  0
  186.0330  176.7970  137.2100 C   0  0  0  0  0  3  0  0  0  0  0  0
  189.8110  178.1050  140.6990 C   0  0  0  0  0  2  0  0  0  0  0  0
  187.5550  177.4500  141.0390 O   0  0  0  0  0  0  0  0  0  0  0  0
  188.6980  177.5890  141.5530 C   0  0  0  0  0  0  0  0  0  0  0  0
  189.2160  177.0240  145.7950 C   0  0  1  0  0  3  0  0  0  0  0  0
  187.7230  177.3710  143.8400 C   0  0  0  0  0  2  0  0  0  0  0  0
  191.0570  176.4600  142.7460 O   0  0  0  0  0  0  0  0  0  0  0  0
  189.5180  177.4580  147.2140 C   0  0  0  0  0  1  0  0  0  0  0  0
  188.0950  177.8840  145.2270 C   0  0  0  0  0  2  0  0  0  0  0  0
  190.1680  176.9490  143.4930 C   0  0  0  0  0  0  0  0  0  0  0  0
  188.8900  177.3480  142.9570 N   0  0  0  0  0  0  0  0  0  0  0  0
  190.4730  177.1610  144.9440 C   0  0  0  0  0  2  0  0  0  0  0  0
  1 14  2  0  0  0  0
  1  6  1  0  0  0  0
  2  3  1  1  0  0  0
  2 13  1  0  0  0  0
  3 19  1  0  0  0  0
  4  7  1  0  0  0  0
  4 15  2  0  0  0  0
  5  2  1  0  0  0  0
  5 16  2  0  0  0  0
  6 17  2  0  0  0  0
  7  3  2  0  0  0  0
  8 12  1  0  0  0  0
  8 21  1  0  0  0  0
  9  1  1  0  0  0  0
 10 18  1  0  0  0  0
 11  4  1  0  0  0  0
 13 18  1  1  0  0  0
 13  8  1  0  0  0  0
 14  5  1  0  0  0  0
 15 20  1  0  0  0  0
 16 12  1  0  0  0  0
 17 16  1  0  0  0  0
 19 10  1  0  0  0  0
 20 19  2  0  0  0  0
 21 23  1  0  0  0  0
 22 23  2  0  0  0  0
 23 30  1  0  0  0  0
 24 27  1  1  0  0  0
 25 28  1  0  0  0  0
 26 29  2  0  0  0  0
 28 24  1  0  0  0  0
 29 31  1  0  0  0  0
 30 29  1  0  0  0  0
 30 25  1  0  0  0  0
 31 24  1  0  0  0  0
M  END
>  <MODEL>
4

>  <REMARK>
 VINA RESULT:      -7.5      2.734      3.868
  Name = 
  2 active torsions:
  status: ('A' for Active; 'I' for Inactive)
    1  A    between atoms: C_5  and  C_16
    2  A    between atoms: N_10  and  C_16
                            x       y       z     vdW  Elec       q    Type
                         _______ _______ _______ _____ _____    ______ ____

>  <TORSDO>
F 2

$$$$
=
 OpenBabel11122411033D

 31 35  0  0  1  0  0  0  0  0999 V2000
  190.2330  175.9120  142.8410 C   0  0  0  0  0  0  0  0  0  0  0  0
  186.7240  177.0260  143.8090 C   0  0  2  0  0  3  0  0  0  0  0  0
  186.8540  177.7040  145.1670 C   0  0  0  0  0  0  0  0  0  0  0  0
  188.0780  178.1140  147.2290 C   0  0  0  0  0  0  0  0  0  0  0  0
  188.0420  176.9300  143.0810 C   0  0  0  0  0  0  0  0  0  0  0  0
  190.5350  176.7990  141.8040 C   0  0  0  0  0  3  0  0  0  0  0  0
  187.9840  177.5060  145.9750 C   0  0  0  0  0  3  0  0  0  0  0  0
  186.2290  179.0180  142.4420 N   0  0  0  0  0  0  0  0  0  0  0  0
  191.1460  174.9920  143.2330 F   0  0  0  0  0  0  0  0  0  0  0  0
  184.6320  178.6680  144.9040 O   0  0  0  0  0  0  0  0  0  0  0  0
  189.5030  177.8690  148.2130 Cl  0  0  0  0  0  0  0  0  0  0  0  0
  187.3030  178.7450  141.4830 C   0  0  0  0  0  2  0  0  0  0  0  0
  185.6800  177.7330  142.9160 C   0  0  2  0  0  3  0  0  0  0  0  0
  188.9900  175.9750  143.4750 C   0  0  0  0  0  3  0  0  0  0  0  0
  187.0360  178.9170  147.6950 C   0  0  0  0  0  3  0  0  0  0  0  0
  188.3500  177.8220  142.0350 C   0  0  0  0  0  0  0  0  0  0  0  0
  189.5910  177.7440  141.3960 C   0  0  0  0  0  3  0  0  0  0  0  0
  184.3860  177.9090  143.7230 C   0  0  0  0  0  2  0  0  0  0  0  0
  185.7900  178.4860  145.6630 C   0  0  0  0  0  0  0  0  0  0  0  0
  185.8930  179.1010  146.9140 C   0  0  0  0  0  3  0  0  0  0  0  0
  185.2100  179.7450  141.6910 C   0  0  0  0  0  2  0  0  0  0  0  0
  185.9220  178.5980  139.7390 O   0  0  0  0  0  0  0  0  0  0  0  0
  184.9440  179.0390  140.4000 C   0  0  0  0  0  0  0  0  0  0  0  0
  180.9820  178.9100  138.7050 C   0  0  1  0  0  3  0  0  0  0  0  0
  183.4460  178.7560  138.4240 C   0  0  0  0  0  2  0  0  0  0  0  0
  182.5550  178.5890  141.9340 O   0  0  0  0  0  0  0  0  0  0  0  0
  179.7070  179.5000  138.1410 C   0  0  0  0  0  1  0  0  0  0  0  0
  182.1780  179.4360  137.9220 C   0  0  0  0  0  2  0  0  0  0  0  0
  182.4510  178.9040  140.7190 C   0  0  0  0  0  0  0  0  0  0  0  0
  183.6130  178.9500  139.8660 N   0  0  0  0  0  0  0  0  0  0  0  0
  181.1070  179.2820  140.1780 C   0  0  0  0  0  2  0  0  0  0  0  0
  1  9  1  0  0  0  0
  1 14  1  0  0  0  0
  2  5  1  6  0  0  0
  2  3  1  0  0  0  0
  3 19  2  0  0  0  0
  3  7  1  0  0  0  0
  4 15  1  0  0  0  0
  4 11  1  0  0  0  0
  5 14  2  0  0  0  0
  6  1  2  0  0  0  0
  7  4  2  0  0  0  0
  8 13  1  0  0  0  0
 10 19  1  0  0  0  0
 12 16  1  0  0  0  0
 12  8  1  0  0  0  0
 13 18  1  1  0  0  0
 13  2  1  0  0  0  0
 16  5  1  0  0  0  0
 17  6  1  0  0  0  0
 17 16  2  0  0  0  0
 18 10  1  0  0  0  0
 19 20  1  0  0  0  0
 20 15  2  0  0  0  0
 21  8  1  0  0  0  0
 22 23  2  0  0  0  0
 23 21  1  0  0  0  0
 24 27  1  6  0  0  0
 24 31  1  0  0  0  0
 25 30  1  0  0  0  0
 28 25  1  0  0  0  0
 28 24  1  0  0  0  0
 29 26  2  0  0  0  0
 30 23  1  0  0  0  0
 30 29  1  0  0  0  0
 31 29  1  0  0  0  0
M  END
>  <MODEL>
5

>  <REMARK>
 VINA RESULT:      -7.3      3.956      7.477
  Name = 
  2 active torsions:
  status: ('A' for Active; 'I' for Inactive)
    1  A    between atoms: C_5  and  C_16
    2  A    between atoms: N_10  and  C_16
                            x       y       z     vdW  Elec       q    Type
                         _______ _______ _______ _____ _____    ______ ____

>  <TORSDO>
F 2

$$$$
=
 OpenBabel11122411033D

 31 35  0  0  1  0  0  0  0  0999 V2000
  180.0610  178.6790  142.8280 C   0  0  0  0  0  0  0  0  0  0  0  0
  183.0170  179.2500  140.5000 C   0  0  2  0  0  3  0  0  0  0  0  0
  184.2600  178.8490  141.2850 C   0  0  0  0  0  0  0  0  0  0  0  0
  185.3860  178.3900  143.3920 C   0  0  0  0  0  0  0  0  0  0  0  0
  181.7520  178.6760  141.0860 C   0  0  0  0  0  0  0  0  0  0  0  0
  179.4530  177.5640  142.2440 C   0  0  0  0  0  3  0  0  0  0  0  0
  184.2330  178.7340  142.6830 C   0  0  0  0  0  3  0  0  0  0  0  0
  182.9870  177.3950  138.8750 N   0  0  0  0  0  0  0  0  0  0  0  0
  179.5440  179.2190  143.9570 F   0  0  0  0  0  0  0  0  0  0  0  0
  185.5580  178.8110  139.2240 O   0  0  0  0  0  0  0  0  0  0  0  0
  185.3260  178.2340  145.1330 Cl  0  0  0  0  0  0  0  0  0  0  0  0
  181.5980  177.0320  139.1700 C   0  0  0  0  0  2  0  0  0  0  0  0
  183.1340  178.8570  139.0100 C   0  0  2  0  0  3  0  0  0  0  0  0
  181.2050  179.2340  142.2500 C   0  0  0  0  0  3  0  0  0  0  0  0
  186.5840  178.1700  142.7110 C   0  0  0  0  0  3  0  0  0  0  0  0
  181.1350  177.5530  140.4990 C   0  0  0  0  0  0  0  0  0  0  0  0
  179.9830  177.0100  141.0760 C   0  0  0  0  0  3  0  0  0  0  0  0
  184.4800  179.3650  138.4740 C   0  0  0  0  0  2  0  0  0  0  0  0
  185.4840  178.6610  140.6100 C   0  0  0  0  0  0  0  0  0  0  0  0
  186.6330  178.3070  141.3220 C   0  0  0  0  0  3  0  0  0  0  0  0
  183.2070  177.0020  137.4860 C   0  0  0  0  0  2  0  0  0  0  0  0
  183.9350  174.8000  137.9910 O   0  0  0  0  0  0  0  0  0  0  0  0
  184.2120  175.8970  137.4340 C   0  0  0  0  0  0  0  0  0  0  0  0
  188.1650  176.5500  135.8420 C   0  0  1  0  0  3  0  0  0  0  0  0
  186.6140  175.2390  137.2750 C   0  0  0  0  0  2  0  0  0  0  0  0
  184.7560  177.4310  135.0660 O   0  0  0  0  0  0  0  0  0  0  0  0
  189.5280  177.2040  135.7700 C   0  0  0  0  0  1  0  0  0  0  0  0
  187.9410  175.9900  137.2400 C   0  0  0  0  0  2  0  0  0  0  0  0
  185.7210  177.0320  135.7690 C   0  0  0  0  0  0  0  0  0  0  0  0
  185.5100  176.1020  136.8520 N   0  0  0  0  0  0  0  0  0  0  0  0
  187.0900  177.5760  135.5030 C   0  0  0  0  0  2  0  0  0  0  0  0
  1  9  1  0  0  0  0
  2  5  1  1  0  0  0
  2  3  1  0  0  0  0
  3  7  1  0  0  0  0
  4 11  1  0  0  0  0
  5 14  2  0  0  0  0
  6  1  2  0  0  0  0
  7  4  2  0  0  0  0
  8 13  1  0  0  0  0
  8 12  1  0  0  0  0
 10 19  1  0  0  0  0
 12 16  1  0  0  0  0
 13 18  1  1  0  0  0
 13  2  1  0  0  0  0
 14  1  1  0  0  0  0
 15  4  1  0  0  0  0
 16 17  2  0  0  0  0
 16  5  1  0  0  0  0
 17  6  1  0  0  0  0
 18 10  1  0  0  0  0
 19  3  2  0  0  0  0
 19 20  1  0  0  0  0
 20 15  2  0  0  0  0
 21  8  1  0  0  0  0
 23 21  1  0  0  0  0
 23 22  2  0  0  0  0
 24 27  1  1  0  0  0
 24 28  1  0  0  0  0
 26 29  2  0  0  0  0
 28 25  1  0  0  0  0
 29 30  1  0  0  0  0
 30 25  1  0  0  0  0
 30 23  1  0  0  0  0
 31 29  1  0  0  0  0
 31 24  1  0  0  0  0
M  END
>  <MODEL>
6

>  <REMARK>
 VINA RESULT:      -7.3      3.901      7.577
  Name = 
  2 active torsions:
  status: ('A' for Active; 'I' for Inactive)
    1  A    between atoms: C_5  and  C_16
    2  A    between atoms: N_10  and  C_16
                            x       y       z     vdW  Elec       q    Type
                         _______ _______ _______ _____ _____    ______ ____

>  <TORSDO>
F 2

$$$$
=
 OpenBabel11122411033D

 31 35  0  0  1  0  0  0  0  0999 V2000
  189.2180  177.1320  135.9170 C   0  0  0  0  0  0  0  0  0  0  0  0
  188.1990  178.6950  139.2350 C   0  0  2  0  0  3  0  0  0  0  0  0
  186.7030  178.4460  139.3800 C   0  0  0  0  0  0  0  0  0  0  0  0
  184.5370  177.9000  138.4170 C   0  0  0  0  0  0  0  0  0  0  0  0
  188.8440  177.7760  138.2280 C   0  0  0  0  0  0  0  0  0  0  0  0
  189.9560  176.0240  136.3420 C   0  0  0  0  0  3  0  0  0  0  0  0
  185.9110  178.1010  138.2740 C   0  0  0  0  0  3  0  0  0  0  0  0
  189.0040  177.1680  140.9960 N   0  0  0  0  0  0  0  0  0  0  0  0
  189.0350  177.3580  134.5950 F   0  0  0  0  0  0  0  0  0  0  0  0
  186.8290  179.0240  141.7430 O   0  0  0  0  0  0  0  0  0  0  0  0
  183.5710  177.4530  137.0290 Cl  0  0  0  0  0  0  0  0  0  0  0  0
  189.9350  176.4730  140.1020 C   0  0  0  0  0  2  0  0  0  0  0  0
  188.9290  178.5850  140.5930 C   0  0  2  0  0  3  0  0  0  0  0  0
  188.6660  178.0060  136.8570 C   0  0  0  0  0  3  0  0  0  0  0  0
  183.9350  178.0560  139.6670 C   0  0  0  0  0  3  0  0  0  0  0  0
  189.5900  176.6590  138.6530 C   0  0  0  0  0  0  0  0  0  0  0  0
  190.1510  175.7950  137.7060 C   0  0  0  0  0  3  0  0  0  0  0  0
  188.1840  179.4490  141.6200 C   0  0  0  0  0  2  0  0  0  0  0  0
  186.0800  178.6370  140.6310 C   0  0  0  0  0  0  0  0  0  0  0  0
  184.7050  178.4250  140.7720 C   0  0  0  0  0  3  0  0  0  0  0  0
  189.5910  177.0630  142.3280 C   0  0  0  0  0  2  0  0  0  0  0  0
  187.5100  176.0460  142.8470 O   0  0  0  0  0  0  0  0  0  0  0  0
  188.5530  176.5940  143.2960 C   0  0  0  0  0  0  0  0  0  0  0  0
  188.8530  177.4950  147.5010 C   0  0  1  0  0  3  0  0  0  0  0  0
  187.4740  176.8730  145.5290 C   0  0  0  0  0  2  0  0  0  0  0  0
  191.0000  176.4570  144.7960 O   0  0  0  0  0  0  0  0  0  0  0  0
  188.9450  178.4000  148.7110 C   0  0  0  0  0  1  0  0  0  0  0  0
  187.6200  177.8580  146.6850 C   0  0  0  0  0  2  0  0  0  0  0  0
  189.9730  176.9350  145.3460 C   0  0  0  0  0  0  0  0  0  0  0  0
  188.6840  176.8470  144.7050 N   0  0  0  0  0  0  0  0  0  0  0  0
  190.1120  177.6470  146.6560 C   0  0  0  0  0  2  0  0  0  0  0  0
  1  6  2  0  0  0  0
  1 14  1  0  0  0  0
  2  5  1  6  0  0  0
  2  3  1  0  0  0  0
  2 13  1  0  0  0  0
  3 19  1  0  0  0  0
  4 15  2  0  0  0  0
  5 16  1  0  0  0  0
  6 17  1  0  0  0  0
  7  4  1  0  0  0  0
  7  3  2  0  0  0  0
  8 21  1  0  0  0  0
  9  1  1  0  0  0  0
 11  4  1  0  0  0  0
 12  8  1  0  0  0  0
 13  8  1  0  0  0  0
 13 18  1  1  0  0  0
 14  5  2  0  0  0  0
 15 20  1  0  0  0  0
 16 12  1  0  0  0  0
 17 16  2  0  0  0  0
 18 10  1  0  0  0  0
 19 20  2  0  0  0  0
 19 10  1  0  0  0  0
 21 23  1  0  0  0  0
 22 23  2  0  0  0  0
 23 30  1  0  0  0  0
 24 27  1  1  0  0  0
 25 28  1  0  0  0  0
 26 29  2  0  0  0  0
 28 24  1  0  0  0  0
 29 31  1  0  0  0  0
 30 29  1  0  0  0  0
 30 25  1  0  0  0  0
 31 24  1  0  0  0  0
M  END
>  <MODEL>
7

>  <REMARK>
 VINA RESULT:      -7.3      2.000      2.872
  Name = 
  2 active torsions:
  status: ('A' for Active; 'I' for Inactive)
    1  A    between atoms: C_5  and  C_16
    2  A    between atoms: N_10  and  C_16
                            x       y       z     vdW  Elec       q    Type
                         _______ _______ _______ _____ _____    ______ ____

>  <TORSDO>
F 2

$$$$
=
 OpenBabel11122411033D

 31 35  0  0  1  0  0  0  0  0999 V2000
  181.6120  178.5390  141.2070 C   0  0  0  0  0  0  0  0  0  0  0  0
  184.9560  178.9020  139.4260 C   0  0  2  0  0  3  0  0  0  0  0  0
  186.0220  178.5090  140.4410 C   0  0  0  0  0  0  0  0  0  0  0  0
  186.7350  178.1340  142.7370 C   0  0  0  0  0  0  0  0  0  0  0  0
  183.5860  178.3950  139.8010 C   0  0  0  0  0  0  0  0  0  0  0  0
  181.0780  177.4110  140.5770 C   0  0  0  0  0  3  0  0  0  0  0  0
  185.7410  178.4710  141.8150 C   0  0  0  0  0  3  0  0  0  0  0  0
  185.1490  176.9640  137.9140 N   0  0  0  0  0  0  0  0  0  0  0  0
  180.9210  179.1530  142.1970 F   0  0  0  0  0  0  0  0  0  0  0  0
  187.6660  178.3250  138.6520 O   0  0  0  0  0  0  0  0  0  0  0  0
  186.3600  178.0740  144.4440 Cl  0  0  0  0  0  0  0  0  0  0  0  0
  183.7170  176.6560  137.9700 C   0  0  0  0  0  2  0  0  0  0  0  0
  185.3220  178.4260  138.0020 C   0  0  2  0  0  3  0  0  0  0  0  0
  182.8600  179.0310  140.8190 C   0  0  0  0  0  3  0  0  0  0  0  0
  188.0270  177.8440  142.2940 C   0  0  0  0  0  3  0  0  0  0  0  0
  183.0430  177.2600  139.1670 C   0  0  0  0  0  0  0  0  0  0  0  0
  181.7870  176.7810  139.5520 C   0  0  0  0  0  3  0  0  0  0  0  0
  186.7610  178.8670  137.6940 C   0  0  0  0  0  2  0  0  0  0  0  0
  187.3400  178.2520  140.0080 C   0  0  0  0  0  0  0  0  0  0  0  0
  188.3290  177.9050  140.9320 C   0  0  0  0  0  3  0  0  0  0  0  0
  185.5990  176.4900  136.6080 C   0  0  0  0  0  2  0  0  0  0  0  0
  186.0560  174.2430  137.2200 O   0  0  0  0  0  0  0  0  0  0  0  0
  186.5250  175.3310  136.7900 C   0  0  0  0  0  0  0  0  0  0  0  0
  190.7870  175.7870  136.3210 C   0  0  1  0  0  3  0  0  0  0  0  0
  188.8470  174.5420  137.2520 C   0  0  0  0  0  2  0  0  0  0  0  0
  187.7550  176.8710  134.6980 O   0  0  0  0  0  0  0  0  0  0  0  0
  192.1510  176.3640  136.6330 C   0  0  0  0  0  1  0  0  0  0  0  0
  190.1710  175.2180  137.5930 C   0  0  0  0  0  2  0  0  0  0  0  0
  188.4770  176.4070  135.6190 C   0  0  0  0  0  0  0  0  0  0  0  0
  187.9400  175.4730  136.5780 N   0  0  0  0  0  0  0  0  0  0  0  0
  189.8930  176.8770  135.7410 C   0  0  0  0  0  2  0  0  0  0  0  0
  1  9  1  0  0  0  0
  2  5  1  1  0  0  0
  2  3  1  0  0  0  0
  3  7  1  0  0  0  0
  4 11  1  0  0  0  0
  5 14  2  0  0  0  0
  6  1  2  0  0  0  0
  7  4  2  0  0  0  0
  8 12  1  0  0  0  0
  8 13  1  0  0  0  0
 10 19  1  0  0  0  0
 12 16  1  0  0  0  0
 13 18  1  1  0  0  0
 13  2  1  0  0  0  0
 14  1  1  0  0  0  0
 15  4  1  0  0  0  0
 16 17  2  0  0  0  0
 16  5  1  0  0  0  0
 17  6  1  0  0  0  0
 18 10  1  0  0  0  0
 19  3  2  0  0  0  0
 19 20  1  0  0  0  0
 20 15  2  0  0  0  0
 21 23  1  0  0  0  0
 21  8  1  0  0  0  0
 23 22  2  0  0  0  0
 24 27  1  1  0  0  0
 24 28  1  0  0  0  0
 25 28  1  0  0  0  0
 26 29  2  0  0  0  0
 29 31  1  0  0  0  0
 29 30  1  0  0  0  0
 30 23  1  0  0  0  0
 30 25  1  0  0  0  0
 31 24  1  0  0  0  0
M  END
>  <MODEL>
8

>  <REMARK>
 VINA RESULT:      -7.0      3.676      7.088
  Name = 
  2 active torsions:
  status: ('A' for Active; 'I' for Inactive)
    1  A    between atoms: C_5  and  C_16
    2  A    between atoms: N_10  and  C_16
                            x       y       z     vdW  Elec       q    Type
                         _______ _______ _______ _____ _____    ______ ____

>  <TORSDO>
F 2

$$$$
=
 OpenBabel11122411033D

 31 35  0  0  1  0  0  0  0  0999 V2000
  191.0980  177.0130  141.9140 C   0  0  0  0  0  0  0  0  0  0  0  0
  190.0850  178.0740  138.4020 C   0  0  2  0  0  3  0  0  0  0  0  0
  190.3770  176.8830  137.4970 C   0  0  0  0  0  0  0  0  0  0  0  0
  191.5150  174.7780  137.0570 C   0  0  0  0  0  0  0  0  0  0  0  0
  189.9980  177.6880  139.8570 C   0  0  0  0  0  0  0  0  0  0  0  0
  189.8550  176.8770  142.5370 C   0  0  0  0  0  3  0  0  0  0  0  0
  191.2360  175.8510  137.9070 C   0  0  0  0  0  3  0  0  0  0  0  0
  187.6210  177.9930  138.3380 N   0  0  0  0  0  0  0  0  0  0  0  0
  192.2340  176.7470  142.6020 F   0  0  0  0  0  0  0  0  0  0  0  0
  189.0180  177.8780  135.7370 O   0  0  0  0  0  0  0  0  0  0  0  0
  192.5740  173.4930  137.5940 Cl  0  0  0  0  0  0  0  0  0  0  0  0
  187.4880  177.9850  139.7980 C   0  0  0  0  0  2  0  0  0  0  0  0
  188.7950  178.8090  137.9750 C   0  0  2  0  0  3  0  0  0  0  0  0
  191.1700  177.4190  140.5790 C   0  0  0  0  0  3  0  0  0  0  0  0
  190.9500  174.7320  135.7820 C   0  0  0  0  0  3  0  0  0  0  0  0
  188.7470  177.5510  140.4900 C   0  0  0  0  0  0  0  0  0  0  0  0
  188.6830  177.1570  141.8300 C   0  0  0  0  0  3  0  0  0  0  0  0
  188.8690  179.0920  136.4670 C   0  0  0  0  0  2  0  0  0  0  0  0
  189.8410  176.8460  136.1940 C   0  0  0  0  0  0  0  0  0  0  0  0
  190.1150  175.7650  135.3500 C   0  0  0  0  0  3  0  0  0  0  0  0
  186.4040  178.6270  137.8390 C   0  0  0  0  0  2  0  0  0  0  0  0
  185.4560  176.4550  137.6960 O   0  0  0  0  0  0  0  0  0  0  0  0
  185.2600  177.6720  137.9590 C   0  0  0  0  0  0  0  0  0  0  0  0
  181.2540  179.0740  138.7200 C   0  0  1  0  0  3  0  0  0  0  0  0
  182.7900  177.3190  137.8630 C   0  0  0  0  0  2  0  0  0  0  0  0
  184.6160  179.7520  139.8350 O   0  0  0  0  0  0  0  0  0  0  0  0
  179.9960  179.8650  138.4320 C   0  0  0  0  0  1  0  0  0  0  0  0
  181.5860  178.1910  137.5250 C   0  0  0  0  0  2  0  0  0  0  0  0
  183.7090  179.3050  139.0830 C   0  0  0  0  0  0  0  0  0  0  0  0
  183.9350  178.1370  138.2680 N   0  0  0  0  0  0  0  0  0  0  0  0
  182.4030  180.0340  139.0060 C   0  0  0  0  0  2  0  0  0  0  0  0
  1  6  1  0  0  0  0
  1  9  1  0  0  0  0
  2  3  1  6  0  0  0
  2  5  1  0  0  0  0
  3  7  1  0  0  0  0
  4 11  1  0  0  0  0
  4  7  2  0  0  0  0
  5 16  2  0  0  0  0
  5 14  1  0  0  0  0
  8 12  1  0  0  0  0
 10 19  1  0  0  0  0
 10 18  1  0  0  0  0
 12 16  1  0  0  0  0
 13 18  1  6  0  0  0
 13  8  1  0  0  0  0
 13  2  1  0  0  0  0
 14  1  2  0  0  0  0
 15  4  1  0  0  0  0
 16 17  1  0  0  0  0
 17  6  2  0  0  0  0
 19  3  2  0  0  0  0
 20 15  2  0  0  0  0
 20 19  1  0  0  0  0
 21 23  1  0  0  0  0
 21  8  1  0  0  0  0
 22 23  2  0  0  0  0
 23 30  1  0  0  0  0
 24 27  1  6  0  0  0
 24 31  1  0  0  0  0
 25 30  1  0  0  0  0
 28 25  1  0  0  0  0
 28 24  1  0  0  0  0
 29 26  2  0  0  0  0
 30 29  1  0  0  0  0
 31 29  1  0  0  0  0
M  END
>  <MODEL>
9

>  <REMARK>
 VINA RESULT:      -6.9      3.586      7.000
  Name = 
  2 active torsions:
  status: ('A' for Active; 'I' for Inactive)
    1  A    between atoms: C_5  and  C_16
    2  A    between atoms: N_10  and  C_16
                            x       y       z     vdW  Elec       q    Type
                         _______ _______ _______ _____ _____    ______ ____

>  <TORSDO>
F 2

$$$$
