=
 OpenBabel11122410243D

 30 35  0  0  1  0  0  0  0  0999 V2000
  187.2340  178.1280  140.6560 C   0  0  1  0  0  3  0  0  0  0  0  0
  184.9860  178.9710  139.8040 C   0  0  0  0  0  0  0  0  0  0  0  0
  185.5800  177.9630  144.6650 C   0  0  0  0  0  2  0  0  0  0  0  0
  187.9540  177.3910  141.8080 C   0  0  1  0  0  3  0  0  0  0  0  0
  187.5020  177.4710  139.4400 O   0  0  0  0  0  0  0  0  0  0  0  0
  191.2500  177.2690  139.9600 C   0  0  0  0  0  1  0  0  0  0  0  0
  190.4650  177.8370  143.8480 C   0  0  1  0  0  3  0  0  0  0  0  0
  189.7720  177.0480  140.2800 C   0  0  2  0  0  3  0  0  0  0  0  0
  189.2950  178.0470  144.8260 C   0  0  2  0  0  3  0  0  0  0  0  0
  186.8460  177.6060  145.3590 C   0  0  0  0  0  0  0  0  0  0  0  0
  188.8800  177.6320  139.1560 C   0  0  2  0  0  3  0  0  0  0  0  0
  189.4040  177.5900  141.6060 N   0  0  2  0  0  0  0  0  0  0  0  0
  183.6490  179.3200  140.0170 C   0  0  0  0  0  3  0  0  0  0  0  0
  189.7960  177.5420  146.1680 C   0  0  0  0  0  2  0  0  0  0  0  0
  191.6520  177.3540  144.6620 C   0  0  0  0  0  2  0  0  0  0  0  0
  185.5420  179.1860  138.5490 O   0  0  0  0  0  1  0  0  0  0  0  0
  185.9540  177.6500  143.2310 C   0  0  2  0  0  3  0  0  0  0  0  0
  183.0650  179.1430  141.2720 C   0  0  0  0  0  3  0  0  0  0  0  0
  185.7520  178.4190  140.8520 C   0  0  0  0  0  0  0  0  0  0  0  0
  187.4350  177.9590  143.1320 C   0  0  1  0  0  3  0  0  0  0  0  0
  186.9140  177.4630  146.5690 O   0  0  0  0  0  0  0  0  0  0  0  0
  187.9880  177.3580  144.4160 C   0  0  1  0  0  3  0  0  0  0  0  0
  191.3020  177.6330  146.1050 C   0  0  0  0  0  2  0  0  0  0  0  0
  189.8290  175.4800  142.9510 C   0  0  0  0  0  1  0  0  0  0  0  0
  183.8190  178.6290  142.3250 C   0  0  0  0  0  3  0  0  0  0  0  0
  185.1670  178.2990  142.1350 C   0  0  0  0  0  0  0  0  0  0  0  0
  190.2270  176.9260  142.6330 C   0  0  2  0  0  3  0  0  0  0  0  0
  189.2210  179.0820  138.7910 C   0  0  0  0  0  2  0  0  0  0  0  0
  189.2280  178.3060  136.7280 C   0  0  0  0  0  1  0  0  0  0  0  0
  188.7650  179.3670  137.5040 O   0  0  0  0  0  0  0  0  0  0  0  0
  1  5  1  6  0  0  0
  1 19  1  0  0  0  0
  1  4  1  0  0  0  0
  2 13  2  0  0  0  0
  2 19  1  0  0  0  0
  3 10  1  0  0  0  0
  4 20  1  0  0  0  0
  6  8  1  0  0  0  0
  7 15  1  0  0  0  0
  7  9  1  0  0  0  0
  8 12  1  0  0  0  0
  9 14  1  0  0  0  0
 10 21  2  0  0  0  0
 11  5  1  0  0  0  0
 11  8  1  0  0  0  0
 12  4  1  0  0  0  0
 12 27  1  0  0  0  0
 13 18  1  0  0  0  0
 15 23  1  0  0  0  0
 16  2  1  0  0  0  0
 17  3  1  0  0  0  0
 18 25  2  0  0  0  0
 19 26  2  0  0  0  0
 20 17  1  0  0  0  0
 20 22  1  0  0  0  0
 22  9  1  0  0  0  0
 22 10  1  0  0  0  0
 23 14  1  0  0  0  0
 26 25  1  0  0  0  0
 26 17  1  0  0  0  0
 27 24  1  0  0  0  0
 27  7  1  0  0  0  0
 28 11  1  0  0  0  0
 29 30  1  0  0  0  0
 30 28  1  0  0  0  0
M  END
>  <MODEL>
1

>  <REMARK>
 VINA RESULT:      -9.3      0.000      0.000
  Name = 
  2 active torsions:
  status: ('A' for Active; 'I' for Inactive)
    1  A    between atoms: C_11  and  C_28
    2  A    between atoms: C_28  and  O_30
                            x       y       z     vdW  Elec       q    Type
                         _______ _______ _______ _____ _____    ______ ____

>  <TORSDO>
F 2

$$$$
=
 OpenBabel11122410243D

 30 35  0  0  1  0  0  0  0  0999 V2000
  189.2130  177.4470  143.5910 C   0  0  1  0  0  3  0  0  0  0  0  0
  191.1530  176.4610  144.9170 C   0  0  0  0  0  0  0  0  0  0  0  0
  187.0140  177.9440  147.2990 C   0  0  0  0  0  2  0  0  0  0  0  0
  187.9350  178.3110  143.6740 C   0  0  1  0  0  3  0  0  0  0  0  0
  190.0860  177.9930  142.6300 O   0  0  0  0  0  0  0  0  0  0  0  0
  187.4590  178.3520  139.9230 C   0  0  0  0  0  1  0  0  0  0  0  0
  184.7700  178.1340  142.8860 C   0  0  1  0  0  3  0  0  0  0  0  0
  188.1040  178.5600  141.2930 C   0  0  2  0  0  3  0  0  0  0  0  0
  184.6670  177.9830  144.4140 C   0  0  2  0  0  3  0  0  0  0  0  0
  185.7410  178.4010  146.6830 C   0  0  0  0  0  0  0  0  0  0  0  0
  189.4780  177.8450  141.3590 C   0  0  2  0  0  3  0  0  0  0  0  0
  187.2140  178.1360  142.3950 N   0  0  2  0  0  0  0  0  0  0  0  0
  191.7460  176.0960  146.1290 C   0  0  0  0  0  3  0  0  0  0  0  0
  183.3450  178.6270  144.7940 C   0  0  0  0  0  2  0  0  0  0  0  0
  183.4600  178.7260  142.4010 C   0  0  0  0  0  2  0  0  0  0  0  0
  191.8040  176.1450  143.7300 O   0  0  0  0  0  1  0  0  0  0  0  0
  187.9660  178.1300  146.1350 C   0  0  2  0  0  3  0  0  0  0  0  0
  191.1090  176.3730  147.3390 C   0  0  0  0  0  3  0  0  0  0  0  0
  189.9120  177.1320  144.9080 C   0  0  0  0  0  0  0  0  0  0  0  0
  187.1340  177.8550  144.8970 C   0  0  1  0  0  3  0  0  0  0  0  0
  184.7470  178.6610  147.3440 O   0  0  0  0  0  0  0  0  0  0  0  0
  185.8360  178.5920  145.1970 C   0  0  1  0  0  3  0  0  0  0  0  0
  182.4900  178.5750  143.5500 C   0  0  0  0  0  2  0  0  0  0  0  0
  186.0850  180.3750  142.7840 C   0  0  0  0  0  1  0  0  0  0  0  0
  189.8670  177.0070  147.3430 C   0  0  0  0  0  3  0  0  0  0  0  0
  189.2480  177.3570  146.1360 C   0  0  0  0  0  0  0  0  0  0  0  0
  185.9670  178.9170  142.3240 C   0  0  2  0  0  3  0  0  0  0  0  0
  189.4300  176.3780  140.9170 C   0  0  0  0  0  2  0  0  0  0  0  0
  190.6830  176.7810  139.1490 C   0  0  0  0  0  1  0  0  0  0  0  0
  190.6390  176.0240  140.3180 O   0  0  0  0  0  0  0  0  0  0  0  0
  1  5  1  6  0  0  0
  1  4  1  0  0  0  0
  1 19  1  0  0  0  0
  2 13  1  0  0  0  0
  4 20  1  0  0  0  0
  6  8  1  0  0  0  0
  7  9  1  0  0  0  0
  8 11  1  0  0  0  0
  8 12  1  0  0  0  0
  9 14  1  0  0  0  0
  9 22  1  0  0  0  0
 10  3  1  0  0  0  0
 10 21  2  0  0  0  0
 11  5  1  0  0  0  0
 12  4  1  0  0  0  0
 13 18  2  0  0  0  0
 15  7  1  0  0  0  0
 15 23  1  0  0  0  0
 16  2  1  0  0  0  0
 17 26  1  0  0  0  0
 17  3  1  0  0  0  0
 18 25  1  0  0  0  0
 19  2  2  0  0  0  0
 19 26  1  0  0  0  0
 20 22  1  0  0  0  0
 20 17  1  0  0  0  0
 22 10  1  0  0  0  0
 23 14  1  0  0  0  0
 26 25  2  0  0  0  0
 27 12  1  0  0  0  0
 27 24  1  0  0  0  0
 27  7  1  0  0  0  0
 28 11  1  0  0  0  0
 29 30  1  0  0  0  0
 30 28  1  0  0  0  0
M  END
>  <MODEL>
2

>  <REMARK>
 VINA RESULT:      -9.3      2.202      5.700
  Name = 
  2 active torsions:
  status: ('A' for Active; 'I' for Inactive)
    1  A    between atoms: C_11  and  C_28
    2  A    between atoms: C_28  and  O_30
                            x       y       z     vdW  Elec       q    Type
                         _______ _______ _______ _____ _____    ______ ____

>  <TORSDO>
F 2

$$$$
=
 OpenBabel11122410243D

 30 35  0  0  1  0  0  0  0  0999 V2000
  187.9690  177.8160  142.2590 C   0  0  1  0  0  3  0  0  0  0  0  0
  186.8270  178.0020  144.5290 C   0  0  0  0  0  0  0  0  0  0  0  0
  184.2220  178.9050  140.3580 C   0  0  0  0  0  2  0  0  0  0  0  0
  187.8950  178.2230  140.7700 C   0  0  1  0  0  3  0  0  0  0  0  0
  189.2060  178.2230  142.7950 O   0  0  0  0  0  0  0  0  0  0  0  0
  191.3030  176.7850  139.9860 C   0  0  0  0  0  1  0  0  0  0  0  0
  187.9340  176.8280  137.8160 C   0  0  1  0  0  3  0  0  0  0  0  0
  190.2210  177.6500  140.6320 C   0  0  2  0  0  3  0  0  0  0  0  0
  186.4440  177.2050  137.9070 C   0  0  2  0  0  3  0  0  0  0  0  0
  184.6760  178.7050  138.9570 C   0  0  0  0  0  0  0  0  0  0  0  0
  190.2200  177.4570  142.1700 C   0  0  2  0  0  3  0  0  0  0  0  0
  188.8860  177.3960  140.0490 N   0  0  2  0  0  0  0  0  0  0  0  0
  185.7080  178.2880  145.3170 C   0  0  0  0  0  3  0  0  0  0  0  0
  186.0190  177.5100  136.4810 C   0  0  0  0  0  2  0  0  0  0  0  0
  188.3000  176.7820  136.3450 C   0  0  0  0  0  2  0  0  0  0  0  0
  187.9670  177.4980  145.1440 O   0  0  0  0  0  1  0  0  0  0  0  0
  185.5550  178.9440  141.0770 C   0  0  2  0  0  3  0  0  0  0  0  0
  184.5370  178.7700  144.7300 C   0  0  0  0  0  3  0  0  0  0  0  0
  186.7890  178.2170  143.1350 C   0  0  0  0  0  0  0  0  0  0  0  0
  186.4560  178.0110  140.2920 C   0  0  1  0  0  3  0  0  0  0  0  0
  183.9390  178.8680  137.9970 O   0  0  0  0  0  0  0  0  0  0  0  0
  186.1370  178.3760  138.8490 C   0  0  1  0  0  3  0  0  0  0  0  0
  186.9880  176.7630  135.5960 C   0  0  0  0  0  2  0  0  0  0  0  0
  188.9760  179.1730  138.2400 C   0  0  0  0  0  1  0  0  0  0  0  0
  184.4740  178.9560  143.3500 C   0  0  0  0  0  3  0  0  0  0  0  0
  185.5790  178.6500  142.5450 C   0  0  0  0  0  0  0  0  0  0  0  0
  188.9370  177.6850  138.6050 C   0  0  2  0  0  3  0  0  0  0  0  0
  190.1770  175.9880  142.6070 C   0  0  0  0  0  2  0  0  0  0  0  0
  191.3610  176.4020  144.4180 C   0  0  0  0  0  1  0  0  0  0  0  0
  191.3680  175.6480  143.2460 O   0  0  0  0  0  0  0  0  0  0  0  0
  1  5  1  1  0  0  0
  1 19  1  0  0  0  0
  2 16  1  0  0  0  0
  2 13  1  0  0  0  0
  3 17  1  0  0  0  0
  4  1  1  0  0  0  0
  6  8  1  0  0  0  0
  7  9  1  0  0  0  0
  7 27  1  0  0  0  0
  8 11  1  0  0  0  0
  9 22  1  0  0  0  0
 10  3  1  0  0  0  0
 11 28  1  0  0  0  0
 11  5  1  0  0  0  0
 12  8  1  0  0  0  0
 12  4  1  0  0  0  0
 14  9  1  0  0  0  0
 15  7  1  0  0  0  0
 17 26  1  0  0  0  0
 18 13  2  0  0  0  0
 19  2  2  0  0  0  0
 20  4  1  0  0  0  0
 20 17  1  0  0  0  0
 21 10  2  0  0  0  0
 22 10  1  0  0  0  0
 22 20  1  0  0  0  0
 23 15  1  0  0  0  0
 23 14  1  0  0  0  0
 24 27  1  0  0  0  0
 25 18  1  0  0  0  0
 26 19  1  0  0  0  0
 26 25  2  0  0  0  0
 27 12  1  0  0  0  0
 28 30  1  0  0  0  0
 30 29  1  0  0  0  0
M  END
>  <MODEL>
3

>  <REMARK>
 VINA RESULT:      -8.3      1.877      5.753
  Name = 
  2 active torsions:
  status: ('A' for Active; 'I' for Inactive)
    1  A    between atoms: C_11  and  C_28
    2  A    between atoms: C_28  and  O_30
                            x       y       z     vdW  Elec       q    Type
                         _______ _______ _______ _____ _____    ______ ____

>  <TORSDO>
F 2

$$$$
=
 OpenBabel11122410243D

 30 35  0  0  1  0  0  0  0  0999 V2000
  186.8400  178.1830  142.1750 C   0  0  1  0  0  3  0  0  0  0  0  0
  187.7950  177.9560  144.5270 C   0  0  0  0  0  0  0  0  0  0  0  0
  182.8790  178.6160  143.8950 C   0  0  0  0  0  2  0  0  0  0  0  0
  185.6360  178.6770  141.3420 C   0  0  1  0  0  3  0  0  0  0  0  0
  188.0180  178.7940  141.7050 O   0  0  0  0  0  0  0  0  0  0  0  0
  187.3790  178.0370  138.0480 C   0  0  0  0  0  1  0  0  0  0  0  0
  183.5440  177.5490  139.1020 C   0  0  1  0  0  3  0  0  0  0  0  0
  187.0930  178.6080  139.4360 C   0  0  2  0  0  3  0  0  0  0  0  0
  182.6120  177.6020  140.3260 C   0  0  2  0  0  3  0  0  0  0  0  0
  182.1330  178.6210  142.6090 C   0  0  0  0  0  0  0  0  0  0  0  0
  188.2680  178.3040  140.3990 C   0  0  2  0  0  3  0  0  0  0  0  0
  185.8040  178.1300  139.9790 N   0  0  2  0  0  0  0  0  0  0  0  0
  187.6380  177.9450  145.9150 C   0  0  0  0  0  3  0  0  0  0  0  0
  181.2350  177.9200  139.7690 C   0  0  0  0  0  2  0  0  0  0  0  0
  182.6750  177.6910  137.8660 C   0  0  0  0  0  2  0  0  0  0  0  0
  189.0410  177.6540  143.9910 O   0  0  0  0  0  1  0  0  0  0  0  0
  184.2870  178.8750  143.3980 C   0  0  2  0  0  3  0  0  0  0  0  0
  186.3940  178.2170  146.4870 C   0  0  0  0  0  3  0  0  0  0  0  0
  186.7010  178.2630  143.6900 C   0  0  0  0  0  0  0  0  0  0  0  0
  184.3550  178.2100  142.0370 C   0  0  1  0  0  3  0  0  0  0  0  0
  180.9170  178.7010  142.5550 O   0  0  0  0  0  0  0  0  0  0  0  0
  183.0300  178.6100  141.4040 C   0  0  1  0  0  3  0  0  0  0  0  0
  181.2570  177.4590  138.3320 C   0  0  0  0  0  2  0  0  0  0  0  0
  184.3560  180.0190  139.0980 C   0  0  0  0  0  1  0  0  0  0  0  0
  185.2970  178.4910  145.6720 C   0  0  0  0  0  3  0  0  0  0  0  0
  185.4330  178.4810  144.2780 C   0  0  0  0  0  0  0  0  0  0  0  0
  184.7250  178.5310  139.0590 C   0  0  2  0  0  3  0  0  0  0  0  0
  188.6860  176.8290  140.4150 C   0  0  0  0  0  2  0  0  0  0  0  0
  190.7770  177.2280  139.8470 C   0  0  0  0  0  1  0  0  0  0  0  0
  189.9950  176.7110  140.8780 O   0  0  0  0  0  0  0  0  0  0  0  0
  1  5  1  6  0  0  0
  1 19  1  0  0  0  0
  2 13  1  0  0  0  0
  4 20  1  0  0  0  0
  4  1  1  0  0  0  0
  6  8  1  0  0  0  0
  7  9  1  0  0  0  0
  8 12  1  0  0  0  0
  8 11  1  0  0  0  0
  9 22  1  0  0  0  0
 10  3  1  0  0  0  0
 11 28  1  0  0  0  0
 11  5  1  0  0  0  0
 12  4  1  0  0  0  0
 13 18  2  0  0  0  0
 14  9  1  0  0  0  0
 15 23  1  0  0  0  0
 15  7  1  0  0  0  0
 16  2  1  0  0  0  0
 17  3  1  0  0  0  0
 17 26  1  0  0  0  0
 19 26  1  0  0  0  0
 19  2  2  0  0  0  0
 20 17  1  0  0  0  0
 21 10  2  0  0  0  0
 22 20  1  0  0  0  0
 22 10  1  0  0  0  0
 23 14  1  0  0  0  0
 25 18  1  0  0  0  0
 26 25  2  0  0  0  0
 27 24  1  0  0  0  0
 27  7  1  0  0  0  0
 27 12  1  0  0  0  0
 28 30  1  0  0  0  0
 29 30  1  0  0  0  0
M  END
>  <MODEL>
4

>  <REMARK>
 VINA RESULT:      -8.1      2.268      6.034
  Name = 
  2 active torsions:
  status: ('A' for Active; 'I' for Inactive)
    1  A    between atoms: C_11  and  C_28
    2  A    between atoms: C_28  and  O_30
                            x       y       z     vdW  Elec       q    Type
                         _______ _______ _______ _____ _____    ______ ____

>  <TORSDO>
F 2

$$$$
=
 OpenBabel11122410243D

 30 35  0  0  1  0  0  0  0  0999 V2000
  188.5440  177.6990  143.9520 C   0  0  1  0  0  3  0  0  0  0  0  0
  189.9010  176.9970  145.9910 C   0  0  0  0  0  0  0  0  0  0  0  0
  185.1490  178.4460  146.5500 C   0  0  0  0  0  2  0  0  0  0  0  0
  187.3000  178.4780  143.4690 C   0  0  1  0  0  3  0  0  0  0  0  0
  189.6900  178.1960  143.3010 O   0  0  0  0  0  0  0  0  0  0  0  0
  188.2020  178.0790  139.8180 C   0  0  0  0  0  1  0  0  0  0  0  0
  184.6340  178.0030  141.6420 C   0  0  1  0  0  3  0  0  0  0  0  0
  188.3070  178.4770  141.2900 C   0  0  2  0  0  3  0  0  0  0  0  0
  183.9930  178.0120  143.0410 C   0  0  2  0  0  3  0  0  0  0  0  0
  184.1700  178.7470  145.4710 C   0  0  0  0  0  0  0  0  0  0  0  0
  189.5820  177.8700  141.9270 C   0  0  2  0  0  3  0  0  0  0  0  0
  187.0910  178.1170  142.0510 N   0  0  2  0  0  0  0  0  0  0  0  0
  190.0290  176.8070  147.3690 C   0  0  0  0  0  3  0  0  0  0  0  0
  182.6080  178.6030  142.8450 C   0  0  0  0  0  2  0  0  0  0  0  0
  183.5720  178.4480  140.6550 C   0  0  0  0  0  2  0  0  0  0  0  0
  190.9420  176.5990  145.1600 O   0  0  0  0  0  1  0  0  0  0  0  0
  186.4500  178.5680  145.7830 C   0  0  2  0  0  3  0  0  0  0  0  0
  188.9930  177.1700  148.2310 C   0  0  0  0  0  3  0  0  0  0  0  0
  188.7310  177.5780  145.4590 C   0  0  0  0  0  0  0  0  0  0  0  0
  186.1250  178.1050  144.3760 C   0  0  1  0  0  3  0  0  0  0  0  0
  183.0000  179.0080  145.7000 O   0  0  0  0  0  0  0  0  0  0  0  0
  184.7880  178.7810  144.1040 C   0  0  1  0  0  3  0  0  0  0  0  0
  182.2580  178.3570  141.3960 C   0  0  0  0  0  2  0  0  0  0  0  0
  185.8430  180.3030  141.7300 C   0  0  0  0  0  1  0  0  0  0  0  0
  187.8180  177.7150  147.7170 C   0  0  0  0  0  3  0  0  0  0  0  0
  187.6650  177.8890  146.3350 C   0  0  0  0  0  0  0  0  0  0  0  0
  185.9340  178.8000  141.4450 C   0  0  2  0  0  3  0  0  0  0  0  0
  189.7320  176.3630  141.6850 C   0  0  0  0  0  2  0  0  0  0  0  0
  191.5890  177.1370  140.7840 C   0  0  0  0  0  1  0  0  0  0  0  0
  190.6280  176.1370  140.6410 O   0  0  0  0  0  0  0  0  0  0  0  0
  1  5  1  1  0  0  0
  1 19  1  0  0  0  0
  2 13  1  0  0  0  0
  4  1  1  0  0  0  0
  4 20  1  0  0  0  0
  6  8  1  0  0  0  0
  7  9  1  0  0  0  0
  8 11  1  0  0  0  0
  8 12  1  0  0  0  0
  9 22  1  0  0  0  0
 10 21  2  0  0  0  0
 10  3  1  0  0  0  0
 11  5  1  0  0  0  0
 12  4  1  0  0  0  0
 13 18  2  0  0  0  0
 14  9  1  0  0  0  0
 15 23  1  0  0  0  0
 15  7  1  0  0  0  0
 16  2  1  0  0  0  0
 17 26  1  0  0  0  0
 17  3  1  0  0  0  0
 19  2  2  0  0  0  0
 19 26  1  0  0  0  0
 20 17  1  0  0  0  0
 22 20  1  0  0  0  0
 22 10  1  0  0  0  0
 23 14  1  0  0  0  0
 25 18  1  0  0  0  0
 26 25  2  0  0  0  0
 27  7  1  0  0  0  0
 27 24  1  0  0  0  0
 27 12  1  0  0  0  0
 28 11  1  0  0  0  0
 30 29  1  0  0  0  0
 30 28  1  0  0  0  0
M  END
>  <MODEL>
5

>  <REMARK>
 VINA RESULT:      -7.9      2.234      5.785
  Name = 
  2 active torsions:
  status: ('A' for Active; 'I' for Inactive)
    1  A    between atoms: C_11  and  C_28
    2  A    between atoms: C_28  and  O_30
                            x       y       z     vdW  Elec       q    Type
                         _______ _______ _______ _____ _____    ______ ____

>  <TORSDO>
F 2

$$$$
=
 OpenBabel11122410243D

 30 35  0  0  1  0  0  0  0  0999 V2000
  186.9600  177.9770  140.1480 C   0  0  1  0  0  3  0  0  0  0  0  0
  188.7280  177.1350  138.5180 C   0  0  0  0  0  0  0  0  0  0  0  0
  189.8410  177.5940  143.3700 C   0  0  0  0  0  2  0  0  0  0  0  0
  186.7200  178.6070  141.5390 C   0  0  1  0  0  3  0  0  0  0  0  0
  186.3640  178.7840  139.1590 O   0  0  0  0  0  0  0  0  0  0  0  0
  183.0230  179.0980  140.9180 C   0  0  0  0  0  1  0  0  0  0  0  0
  184.9850  178.0440  144.2480 C   0  0  1  0  0  3  0  0  0  0  0  0
  184.5370  179.2110  140.7450 C   0  0  2  0  0  3  0  0  0  0  0  0
  186.3900  177.6650  144.7540 C   0  0  2  0  0  3  0  0  0  0  0  0
  188.9060  177.9260  144.4770 C   0  0  0  0  0  0  0  0  0  0  0  0
  184.9610  178.7210  139.3370 C   0  0  2  0  0  3  0  0  0  0  0  0
  185.2720  178.5010  141.8140 N   0  0  2  0  0  0  0  0  0  0  0  0
  190.0260  176.7010  138.2380 C   0  0  0  0  0  3  0  0  0  0  0  0
  186.3990  178.0320  146.2280 C   0  0  0  0  0  2  0  0  0  0  0  0
  184.1740  178.4820  145.4530 C   0  0  0  0  0  2  0  0  0  0  0  0
  187.7760  177.0950  137.5060 O   0  0  0  0  0  1  0  0  0  0  0  0
  189.0460  178.0900  142.1800 C   0  0  2  0  0  3  0  0  0  0  0  0
  191.0020  176.7020  139.2360 C   0  0  0  0  0  3  0  0  0  0  0  0
  188.3950  177.5950  139.8090 C   0  0  0  0  0  0  0  0  0  0  0  0
  187.5940  177.8640  142.5520 C   0  0  1  0  0  3  0  0  0  0  0  0
  189.2490  177.9290  145.6490 O   0  0  0  0  0  0  0  0  0  0  0  0
  187.5440  178.3360  143.9990 C   0  0  1  0  0  3  0  0  0  0  0  0
  184.9530  178.0200  146.6630 C   0  0  0  0  0  2  0  0  0  0  0  0
  185.4870  180.4560  143.4180 C   0  0  0  0  0  1  0  0  0  0  0  0
  190.6790  177.1240  140.5250 C   0  0  0  0  0  3  0  0  0  0  0  0
  189.3750  177.5370  140.8270 C   0  0  0  0  0  0  0  0  0  0  0  0
  184.8890  179.0780  143.1150 C   0  0  2  0  0  3  0  0  0  0  0  0
  184.4000  177.3410  138.9710 C   0  0  0  0  0  2  0  0  0  0  0  0
  182.9660  177.8260  137.3700 C   0  0  0  0  0  1  0  0  0  0  0  0
  184.2180  177.2540  137.5920 O   0  0  0  0  0  0  0  0  0  0  0  0
  1  5  1  6  0  0  0
  1  4  1  0  0  0  0
  2 19  1  0  0  0  0
  3 10  1  0  0  0  0
  4 12  1  0  0  0  0
  4 20  1  0  0  0  0
  5 11  1  0  0  0  0
  7  9  1  0  0  0  0
  7 15  1  0  0  0  0
  8  6  1  0  0  0  0
  8 12  1  0  0  0  0
  9 14  1  0  0  0  0
 10 21  2  0  0  0  0
 11  8  1  0  0  0  0
 12 27  1  0  0  0  0
 13  2  2  0  0  0  0
 13 18  1  0  0  0  0
 14 23  1  0  0  0  0
 15 23  1  0  0  0  0
 16  2  1  0  0  0  0
 17 20  1  0  0  0  0
 17  3  1  0  0  0  0
 18 25  2  0  0  0  0
 19  1  1  0  0  0  0
 19 26  2  0  0  0  0
 20 22  1  0  0  0  0
 22 10  1  0  0  0  0
 22  9  1  0  0  0  0
 25 26  1  0  0  0  0
 26 17  1  0  0  0  0
 27 24  1  0  0  0  0
 27  7  1  0  0  0  0
 28 11  1  0  0  0  0
 29 30  1  0  0  0  0
 30 28  1  0  0  0  0
M  END
>  <MODEL>
6

>  <REMARK>
 VINA RESULT:      -7.6      1.658      4.972
  Name = 
  2 active torsions:
  status: ('A' for Active; 'I' for Inactive)
    1  A    between atoms: C_11  and  C_28
    2  A    between atoms: C_28  and  O_30
                            x       y       z     vdW  Elec       q    Type
                         _______ _______ _______ _____ _____    ______ ____

>  <TORSDO>
F 2

$$$$
=
 OpenBabel11122410243D

 30 35  0  0  1  0  0  0  0  0999 V2000
  185.8030  178.2810  140.1660 C   0  0  1  0  0  3  0  0  0  0  0  0
  186.8480  177.8880  137.8750 C   0  0  0  0  0  0  0  0  0  0  0  0
  189.7700  178.1740  141.9220 C   0  0  0  0  0  2  0  0  0  0  0  0
  186.0700  178.7530  141.6130 C   0  0  1  0  0  3  0  0  0  0  0  0
  184.7560  179.0410  139.6100 O   0  0  0  0  0  0  0  0  0  0  0  0
  182.4110  178.6280  142.5570 C   0  0  0  0  0  1  0  0  0  0  0  0
  185.6800  177.6920  144.6770 C   0  0  1  0  0  3  0  0  0  0  0  0
  183.6940  179.0190  141.8250 C   0  0  2  0  0  3  0  0  0  0  0  0
  187.2040  177.5310  144.5370 C   0  0  2  0  0  3  0  0  0  0  0  0
  189.3320  178.2520  143.3410 C   0  0  0  0  0  0  0  0  0  0  0  0
  183.5680  178.7180  140.3110 C   0  0  2  0  0  3  0  0  0  0  0  0
  184.8870  178.3730  142.4130 N   0  0  2  0  0  0  0  0  0  0  0  0
  187.9650  177.7130  137.0540 C   0  0  0  0  0  3  0  0  0  0  0  0
  187.7640  177.7830  145.9260 C   0  0  0  0  0  2  0  0  0  0  0  0
  185.3790  177.8890  146.1510 C   0  0  0  0  0  2  0  0  0  0  0  0
  185.5810  177.7560  137.3200 O   0  0  0  0  0  1  0  0  0  0  0  0
  188.5010  178.6090  141.2170 C   0  0  2  0  0  3  0  0  0  0  0  0
  189.2530  177.8120  137.5820 C   0  0  0  0  0  3  0  0  0  0  0  0
  187.0130  178.1850  139.2440 C   0  0  0  0  0  0  0  0  0  0  0  0
  187.3700  178.1030  142.0910 C   0  0  1  0  0  3  0  0  0  0  0  0
  190.1180  178.2290  144.2740 O   0  0  0  0  0  0  0  0  0  0  0  0
  187.8510  178.4490  143.4930 C   0  0  1  0  0  3  0  0  0  0  0  0
  186.6360  177.4830  146.8840 C   0  0  0  0  0  2  0  0  0  0  0  0
  185.4760  180.2100  144.0620 C   0  0  0  0  0  1  0  0  0  0  0  0
  189.4300  178.0730  138.9400 C   0  0  0  0  0  3  0  0  0  0  0  0
  188.3210  178.2260  139.7810 C   0  0  0  0  0  0  0  0  0  0  0  0
  184.9940  178.7740  143.8270 C   0  0  2  0  0  3  0  0  0  0  0  0
  183.0950  177.2920  140.0030 C   0  0  0  0  0  2  0  0  0  0  0  0
  182.7240  175.8690  138.3620 C   0  0  0  0  0  1  0  0  0  0  0  0
  182.6290  177.2200  138.6920 O   0  0  0  0  0  0  0  0  0  0  0  0
  1 19  1  6  0  0  0
  1  4  1  0  0  0  0
  2 19  1  0  0  0  0
  3 10  1  0  0  0  0
  4 20  1  0  0  0  0
  4 12  1  0  0  0  0
  5  1  1  0  0  0  0
  5 11  1  0  0  0  0
  7 15  1  0  0  0  0
  8 12  1  0  0  0  0
  8  6  1  0  0  0  0
  9  7  1  0  0  0  0
  9 14  1  0  0  0  0
 10 22  1  0  0  0  0
 10 21  2  0  0  0  0
 11  8  1  0  0  0  0
 12 27  1  0  0  0  0
 13 18  1  0  0  0  0
 13  2  2  0  0  0  0
 14 23  1  0  0  0  0
 15 23  1  0  0  0  0
 16  2  1  0  0  0  0
 17  3  1  0  0  0  0
 17 20  1  0  0  0  0
 18 25  2  0  0  0  0
 19 26  2  0  0  0  0
 20 22  1  0  0  0  0
 22  9  1  0  0  0  0
 25 26  1  0  0  0  0
 26 17  1  0  0  0  0
 27 24  1  0  0  0  0
 27  7  1  0  0  0  0
 28 11  1  0  0  0  0
 29 30  1  0  0  0  0
 30 28  1  0  0  0  0
M  END
>  <MODEL>
7

>  <REMARK>
 VINA RESULT:      -7.4      2.011      4.945
  Name = 
  2 active torsions:
  status: ('A' for Active; 'I' for Inactive)
    1  A    between atoms: C_11  and  C_28
    2  A    between atoms: C_28  and  O_30
                            x       y       z     vdW  Elec       q    Type
                         _______ _______ _______ _____ _____    ______ ____

>  <TORSDO>
F 2

$$$$
=
 OpenBabel11122410243D

 30 35  0  0  1  0  0  0  0  0999 V2000
  187.1610  178.0400  141.5580 C   0  0  1  0  0  3  0  0  0  0  0  0
  186.1580  178.3110  143.8840 C   0  0  0  0  0  0  0  0  0  0  0  0
  183.2200  178.6690  139.8540 C   0  0  0  0  0  2  0  0  0  0  0  0
  186.9570  178.3210  140.0520 C   0  0  1  0  0  3  0  0  0  0  0  0
  188.3910  178.5870  141.9730 O   0  0  0  0  0  0  0  0  0  0  0  0
  190.4180  177.1060  139.1340 C   0  0  0  0  0  1  0  0  0  0  0  0
  186.9240  176.7060  137.2130 C   0  0  1  0  0  3  0  0  0  0  0  0
  189.3100  177.9290  139.7910 C   0  0  2  0  0  3  0  0  0  0  0  0
  185.4170  176.9670  137.3820 C   0  0  2  0  0  3  0  0  0  0  0  0
  183.5980  178.3970  138.4420 C   0  0  0  0  0  0  0  0  0  0  0  0
  189.4250  177.8590  141.3350 C   0  0  2  0  0  3  0  0  0  0  0  0
  187.9670  177.5230  139.3250 N   0  0  2  0  0  0  0  0  0  0  0  0
  185.0720  178.5660  144.7260 C   0  0  0  0  0  3  0  0  0  0  0  0
  184.8750  177.1230  135.9710 C   0  0  0  0  0  2  0  0  0  0  0  0
  187.1970  176.5740  135.7260 C   0  0  0  0  0  2  0  0  0  0  0  0
  187.3750  177.9510  144.4510 O   0  0  0  0  0  1  0  0  0  0  0  0
  184.5880  178.8730  140.4720 C   0  0  2  0  0  3  0  0  0  0  0  0
  183.8280  178.9040  144.1910 C   0  0  0  0  0  3  0  0  0  0  0  0
  186.0110  178.4110  142.4840 C   0  0  0  0  0  0  0  0  0  0  0  0
  185.5130  177.9560  139.6940 C   0  0  1  0  0  3  0  0  0  0  0  0
  182.7890  178.4230  137.5280 O   0  0  0  0  0  0  0  0  0  0  0  0
  185.0710  178.1800  138.2550 C   0  0  1  0  0  3  0  0  0  0  0  0
  185.8460  176.3900  135.0760 C   0  0  0  0  0  2  0  0  0  0  0  0
  187.7850  179.1530  137.3890 C   0  0  0  0  0  1  0  0  0  0  0  0
  183.6600  178.9750  142.8090 C   0  0  0  0  0  3  0  0  0  0  0  0
  184.7320  178.6970  141.9510 C   0  0  0  0  0  0  0  0  0  0  0  0
  187.8990  177.7000  137.8640 C   0  0  2  0  0  3  0  0  0  0  0  0
  189.5370  176.4300  141.8800 C   0  0  0  0  0  2  0  0  0  0  0  0
  191.4950  177.1520  142.5880 C   0  0  0  0  0  1  0  0  0  0  0  0
  190.3850  176.4090  142.9860 O   0  0  0  0  0  0  0  0  0  0  0  0
  1  5  1  1  0  0  0
  1 19  1  0  0  0  0
  2 16  1  0  0  0  0
  2 13  1  0  0  0  0
  3 17  1  0  0  0  0
  4  1  1  0  0  0  0
  6  8  1  0  0  0  0
  7  9  1  0  0  0  0
  7 27  1  0  0  0  0
  8 11  1  0  0  0  0
  9 22  1  0  0  0  0
 10  3  1  0  0  0  0
 11 28  1  0  0  0  0
 11  5  1  0  0  0  0
 12  8  1  0  0  0  0
 12  4  1  0  0  0  0
 14  9  1  0  0  0  0
 15  7  1  0  0  0  0
 17 26  1  0  0  0  0
 18 13  2  0  0  0  0
 19  2  2  0  0  0  0
 20  4  1  0  0  0  0
 20 17  1  0  0  0  0
 21 10  2  0  0  0  0
 22 10  1  0  0  0  0
 22 20  1  0  0  0  0
 23 15  1  0  0  0  0
 23 14  1  0  0  0  0
 24 27  1  0  0  0  0
 25 18  1  0  0  0  0
 26 19  1  0  0  0  0
 26 25  2  0  0  0  0
 27 12  1  0  0  0  0
 28 30  1  0  0  0  0
 29 30  1  0  0  0  0
M  END
>  <MODEL>
8

>  <REMARK>
 VINA RESULT:      -7.3      2.190      5.982
  Name = 
  2 active torsions:
  status: ('A' for Active; 'I' for Inactive)
    1  A    between atoms: C_11  and  C_28
    2  A    between atoms: C_28  and  O_30
                            x       y       z     vdW  Elec       q    Type
                         _______ _______ _______ _____ _____    ______ ____

>  <TORSDO>
F 2

$$$$
=
 OpenBabel11122410243D

 30 35  0  0  1  0  0  0  0  0999 V2000
  187.1820  177.8720  139.0530 C   0  0  1  0  0  3  0  0  0  0  0  0
  188.6650  177.1500  137.1120 C   0  0  0  0  0  0  0  0  0  0  0  0
  190.5420  177.3170  141.7430 C   0  0  0  0  0  2  0  0  0  0  0  0
  187.1690  178.4120  140.5010 C   0  0  1  0  0  3  0  0  0  0  0  0
  186.4360  178.7340  138.2250 O   0  0  0  0  0  0  0  0  0  0  0  0
  183.4200  178.9060  140.5120 C   0  0  0  0  0  1  0  0  0  0  0  0
  185.8900  177.6650  143.4130 C   0  0  1  0  0  3  0  0  0  0  0  0
  184.8870  179.0440  140.1070 C   0  0  2  0  0  3  0  0  0  0  0  0
  187.3570  177.2690  143.6620 C   0  0  2  0  0  3  0  0  0  0  0  0
  189.7960  177.5700  143.0040 C   0  0  0  0  0  0  0  0  0  0  0  0
  185.0790  178.6470  138.6220 C   0  0  2  0  0  3  0  0  0  0  0  0
  185.7830  178.2760  140.9980 N   0  0  2  0  0  0  0  0  0  0  0  0
  189.9020  176.7470  136.6010 C   0  0  0  0  0  3  0  0  0  0  0  0
  187.6020  177.5440  145.1360 C   0  0  0  0  0  2  0  0  0  0  0  0
  185.2820  178.0200  144.7570 C   0  0  0  0  0  2  0  0  0  0  0  0
  187.5630  177.1650  136.2650 O   0  0  0  0  0  1  0  0  0  0  0  0
  189.5670  177.8780  140.7280 C   0  0  2  0  0  3  0  0  0  0  0  0
  191.0250  176.6950  137.4280 C   0  0  0  0  0  3  0  0  0  0  0  0
  188.5440  177.5260  138.4660 C   0  0  0  0  0  0  0  0  0  0  0  0
  188.1930  177.6160  141.3140 C   0  0  1  0  0  3  0  0  0  0  0  0
  190.3220  177.5040  144.1030 O   0  0  0  0  0  0  0  0  0  0  0  0
  188.3750  177.9970  142.7760 C   0  0  1  0  0  3  0  0  0  0  0  0
  186.2440  177.4910  145.7950 C   0  0  0  0  0  2  0  0  0  0  0  0
  186.2530  180.1300  142.6660 C   0  0  0  0  0  1  0  0  0  0  0  0
  190.9130  177.0330  138.7760 C   0  0  0  0  0  3  0  0  0  0  0  0
  189.6750  177.4140  139.3090 C   0  0  0  0  0  0  0  0  0  0  0  0
  185.6140  178.7670  142.3770 C   0  0  2  0  0  3  0  0  0  0  0  0
  184.4670  177.2870  138.2640 C   0  0  0  0  0  2  0  0  0  0  0  0
  184.2730  175.8520  136.6020 C   0  0  0  0  0  1  0  0  0  0  0  0
  184.2420  177.2150  136.8900 O   0  0  0  0  0  0  0  0  0  0  0  0
  1  5  1  6  0  0  0
  1  4  1  0  0  0  0
  2 19  1  0  0  0  0
  3 10  1  0  0  0  0
  4 12  1  0  0  0  0
  4 20  1  0  0  0  0
  5 11  1  0  0  0  0
  7  9  1  0  0  0  0
  7 15  1  0  0  0  0
  8  6  1  0  0  0  0
  8 12  1  0  0  0  0
  9 14  1  0  0  0  0
 10 21  2  0  0  0  0
 11  8  1  0  0  0  0
 12 27  1  0  0  0  0
 13  2  2  0  0  0  0
 13 18  1  0  0  0  0
 14 23  1  0  0  0  0
 15 23  1  0  0  0  0
 16  2  1  0  0  0  0
 17 20  1  0  0  0  0
 17  3  1  0  0  0  0
 18 25  2  0  0  0  0
 19  1  1  0  0  0  0
 19 26  2  0  0  0  0
 20 22  1  0  0  0  0
 22 10  1  0  0  0  0
 22  9  1  0  0  0  0
 25 26  1  0  0  0  0
 26 17  1  0  0  0  0
 27 24  1  0  0  0  0
 27  7  1  0  0  0  0
 28 11  1  0  0  0  0
 29 30  1  0  0  0  0
 30 28  1  0  0  0  0
M  END
>  <MODEL>
9

>  <REMARK>
 VINA RESULT:      -7.1      1.871      5.010
  Name = 
  2 active torsions:
  status: ('A' for Active; 'I' for Inactive)
    1  A    between atoms: C_11  and  C_28
    2  A    between atoms: C_28  and  O_30
                            x       y       z     vdW  Elec       q    Type
                         _______ _______ _______ _____ _____    ______ ____

>  <TORSDO>
F 2

$$$$
