=
 OpenBabel11122411053D

 31 35  0  0  1  0  0  0  0  0999 V2000
  184.4270  178.6620  144.5530 C   0  0  0  0  0  0  0  0  0  0  0  0
  188.0000  177.8600  143.6770 C   0  0  0  0  0  0  0  0  0  0  0  0
  188.6840  177.5900  144.8980 C   0  0  0  0  0  0  0  0  0  0  0  0
  187.2480  178.4670  138.4900 O   0  0  0  0  0  0  0  0  0  0  0  0
  188.4510  178.1660  138.7050 C   0  0  0  0  0  0  0  0  0  0  0  0
  188.7700  177.3650  147.3280 C   0  0  0  0  0  0  0  0  0  0  0  0
  186.6190  178.2080  143.5770 C   0  0  0  0  0  0  0  0  0  0  0  0
  183.8970  178.8990  143.2840 C   0  0  0  0  0  3  0  0  0  0  0  0
  188.0600  177.6370  146.1570 C   0  0  0  0  0  3  0  0  0  0  0  0
  188.1490  178.0300  141.2400 C   0  0  0  0  0  0  0  0  0  0  0  0
  183.6350  178.7630  145.6460 F   0  0  0  0  0  0  0  0  0  0  0  0
  190.7020  177.2000  143.6630 N   0  0  0  0  0  0  0  0  0  0  0  0
  187.9580  177.4320  148.8780 Cl  0  0  0  0  0  0  0  0  0  0  0  0
  186.8330  178.3570  141.1850 N   0  0  0  0  0  0  0  0  0  0  0  0
  188.7530  177.7780  142.4780 C   0  0  0  0  0  0  0  0  0  0  0  0
  188.9280  177.9410  140.0390 N   0  0  0  0  0  2  0  0  0  0  0  0
  185.7730  178.3210  144.6940 C   0  0  0  0  0  3  0  0  0  0  0  0
  190.1230  177.0380  147.2640 C   0  0  0  0  0  3  0  0  0  0  0  0
  186.0640  178.4520  142.2960 C   0  0  0  0  0  0  0  0  0  0  0  0
  184.7150  178.7940  142.1590 C   0  0  0  0  0  3  0  0  0  0  0  0
  190.0720  177.4510  142.5200 N   0  0  0  0  0  0  0  0  0  0  0  0
  190.0590  177.2580  144.8520 C   0  0  0  0  0  0  0  0  0  0  0  0
  190.7670  176.9850  146.0280 C   0  0  0  0  0  3  0  0  0  0  0  0
  189.0840  175.7000  135.8310 C   0  0  1  0  0  3  0  0  0  0  0  0
  188.6230  177.9900  136.2160 C   0  0  0  0  0  2  0  0  0  0  0  0
  191.3170  176.9150  138.3200 O   0  0  0  0  0  0  0  0  0  0  0  0
  188.4960  174.3780  135.3870 C   0  0  0  0  0  1  0  0  0  0  0  0
  188.0110  176.6780  136.0060 N   0  0  0  0  0  2  0  0  0  0  0  0
  190.2750  176.8300  137.6920 C   0  0  0  0  0  0  0  0  0  0  0  0
  189.3870  178.0360  137.5440 C   0  0  2  0  0  3  0  0  0  0  0  0
  189.8420  175.5030  137.1410 C   0  0  0  0  0  2  0  0  0  0  0  0
  1 17  1  0  0  0  0
  1 11  1  0  0  0  0
  2  3  1  0  0  0  0
  3  9  1  0  0  0  0
  4  5  2  0  0  0  0
  5 16  1  0  0  0  0
  6 13  1  0  0  0  0
  7  2  1  0  0  0  0
  7 17  2  0  0  0  0
  8  1  2  0  0  0  0
  9  6  2  0  0  0  0
 10 15  1  0  0  0  0
 12 22  1  0  0  0  0
 14 10  2  0  0  0  0
 14 19  1  0  0  0  0
 15 21  1  0  0  0  0
 15  2  2  0  0  0  0
 16 10  1  0  0  0  0
 18  6  1  0  0  0  0
 19  7  1  0  0  0  0
 20 19  2  0  0  0  0
 20  8  1  0  0  0  0
 21 12  2  0  0  0  0
 22  3  2  0  0  0  0
 22 23  1  0  0  0  0
 23 18  2  0  0  0  0
 24 27  1  1  0  0  0
 24 28  1  0  0  0  0
 24 31  1  0  0  0  0
 25 30  1  0  0  0  0
 28 25  1  0  0  0  0
 29 26  2  0  0  0  0
 30 29  1  0  0  0  0
 30  5  1  1  0  0  0
 31 29  1  0  0  0  0
M  END
>  <MODEL>
1

>  <REMARK>
 VINA RESULT:     -12.0      0.000      0.000
  Name = 
  1 active torsions:
  status: ('A' for Active; 'I' for Inactive)
    1  A    between atoms: C_5  and  C_30
                            x       y       z     vdW  Elec       q    Type
                         _______ _______ _______ _____ _____    ______ ____

>  <TORSDO>
F 1

$$$$
=
 OpenBabel11122411053D

 31 35  0  0  1  0  0  0  0  0999 V2000
  186.9130  178.0330  147.6430 C   0  0  0  0  0  0  0  0  0  0  0  0
  187.6630  177.6280  143.9760 C   0  0  0  0  0  0  0  0  0  0  0  0
  189.0160  177.1920  143.8670 C   0  0  0  0  0  0  0  0  0  0  0  0
  182.8270  179.0890  142.4520 O   0  0  0  0  0  0  0  0  0  0  0  0
  183.5260  178.8330  141.4370 C   0  0  0  0  0  0  0  0  0  0  0  0
  191.1680  176.5480  144.8250 C   0  0  0  0  0  0  0  0  0  0  0  0
  186.9920  177.8990  145.2060 C   0  0  0  0  0  0  0  0  0  0  0  0
  185.5840  178.4550  147.5900 C   0  0  0  0  0  3  0  0  0  0  0  0
  189.8480  176.9760  144.9790 C   0  0  0  0  0  3  0  0  0  0  0  0
  185.6050  178.2340  142.7980 C   0  0  0  0  0  0  0  0  0  0  0  0
  187.5300  177.8890  148.8400 F   0  0  0  0  0  0  0  0  0  0  0  0
  188.7950  177.1560  141.4790 N   0  0  0  0  0  0  0  0  0  0  0  0
  192.1730  176.2900  146.2350 Cl  0  0  0  0  0  0  0  0  0  0  0  0
  185.0000  178.4800  143.9880 N   0  0  0  0  0  0  0  0  0  0  0  0
  186.9380  177.8060  142.7700 C   0  0  0  0  0  0  0  0  0  0  0  0
  184.8890  178.4080  141.5670 N   0  0  0  0  0  2  0  0  0  0  0  0
  187.6060  177.7590  146.4630 C   0  0  0  0  0  3  0  0  0  0  0  0
  191.6840  176.3250  143.5500 C   0  0  0  0  0  3  0  0  0  0  0  0
  185.6410  178.3290  145.1710 C   0  0  0  0  0  0  0  0  0  0  0  0
  184.9510  178.6020  146.3560 C   0  0  0  0  0  3  0  0  0  0  0  0
  187.5330  177.5630  141.5710 N   0  0  0  0  0  0  0  0  0  0  0  0
  189.5580  176.9610  142.5800 C   0  0  0  0  0  0  0  0  0  0  0  0
  190.8810  176.5320  142.4290 C   0  0  0  0  0  3  0  0  0  0  0  0
  183.7000  177.0350  138.0480 C   0  0  1  0  0  3  0  0  0  0  0  0
  182.1330  177.7060  139.6900 C   0  0  0  0  0  2  0  0  0  0  0  0
  184.2660  180.4570  138.8400 O   0  0  0  0  0  0  0  0  0  0  0  0
  184.4710  175.8630  137.4810 C   0  0  0  0  0  1  0  0  0  0  0  0
  183.0410  176.6310  139.2890 N   0  0  0  0  0  2  0  0  0  0  0  0
  183.9500  179.2960  139.0400 C   0  0  0  0  0  0  0  0  0  0  0  0
  182.9120  178.9690  140.0790 C   0  0  2  0  0  3  0  0  0  0  0  0
  184.6590  178.1940  138.3090 C   0  0  0  0  0  2  0  0  0  0  0  0
  1 11  1  0  0  0  0
  2  7  1  0  0  0  0
  3  2  1  0  0  0  0
  3  9  1  0  0  0  0
  5 16  1  0  0  0  0
  5  4  2  0  0  0  0
  6  9  2  0  0  0  0
  6 13  1  0  0  0  0
  7 17  1  0  0  0  0
  8  1  1  0  0  0  0
 10 14  2  0  0  0  0
 12 21  2  0  0  0  0
 12 22  1  0  0  0  0
 14 19  1  0  0  0  0
 15 10  1  0  0  0  0
 15  2  2  0  0  0  0
 16 10  1  0  0  0  0
 17  1  2  0  0  0  0
 18  6  1  0  0  0  0
 19  7  2  0  0  0  0
 19 20  1  0  0  0  0
 20  8  2  0  0  0  0
 21 15  1  0  0  0  0
 22  3  2  0  0  0  0
 23 22  1  0  0  0  0
 23 18  2  0  0  0  0
 24 27  1  1  0  0  0
 24 31  1  0  0  0  0
 24 28  1  0  0  0  0
 25 30  1  0  0  0  0
 26 29  2  0  0  0  0
 28 25  1  0  0  0  0
 29 30  1  0  0  0  0
 30  5  1  1  0  0  0
 31 29  1  0  0  0  0
M  END
>  <MODEL>
2

>  <REMARK>
 VINA RESULT:     -11.2      3.386      4.578
  Name = 
  1 active torsions:
  status: ('A' for Active; 'I' for Inactive)
    1  A    between atoms: C_5  and  C_30
                            x       y       z     vdW  Elec       q    Type
                         _______ _______ _______ _____ _____    ______ ____

>  <TORSDO>
F 1

$$$$
=
 OpenBabel11122411053D

 31 35  0  0  1  0  0  0  0  0999 V2000
  190.1000  177.0440  146.7520 C   0  0  0  0  0  0  0  0  0  0  0  0
  188.2620  177.7120  143.5340 C   0  0  0  0  0  0  0  0  0  0  0  0
  186.9160  178.0340  143.8750 C   0  0  0  0  0  0  0  0  0  0  0  0
  192.4950  176.8310  140.5090 O   0  0  0  0  0  0  0  0  0  0  0  0
  191.5110  177.1150  139.7780 C   0  0  0  0  0  0  0  0  0  0  0  0
  185.1170  178.3950  145.4870 C   0  0  0  0  0  0  0  0  0  0  0  0
  189.2860  177.3910  144.4760 C   0  0  0  0  0  0  0  0  0  0  0  0
  191.3740  176.7480  146.2650 C   0  0  0  0  0  3  0  0  0  0  0  0
  186.4450  178.0730  145.1990 C   0  0  0  0  0  3  0  0  0  0  0  0
  189.9040  177.4010  141.7460 C   0  0  0  0  0  0  0  0  0  0  0  0
  189.8630  177.0230  148.0850 F   0  0  0  0  0  0  0  0  0  0  0  0
  186.4090  178.3070  141.5480 N   0  0  0  0  0  0  0  0  0  0  0  0
  184.5680  178.4330  147.1490 Cl  0  0  0  0  0  0  0  0  0  0  0  0
  190.8520  177.1020  142.6710 N   0  0  0  0  0  0  0  0  0  0  0  0
  188.6010  177.7090  142.1570 C   0  0  0  0  0  0  0  0  0  0  0  0
  190.2270  177.4040  140.3480 N   0  0  0  0  0  2  0  0  0  0  0  0
  189.0700  177.3610  145.8650 C   0  0  0  0  0  3  0  0  0  0  0  0
  184.2300  178.6860  144.4520 C   0  0  0  0  0  3  0  0  0  0  0  0
  190.5870  177.0880  143.9990 C   0  0  0  0  0  0  0  0  0  0  0  0
  191.6150  176.7700  144.8920 C   0  0  0  0  0  3  0  0  0  0  0  0
  187.6610  178.0070  141.2200 N   0  0  0  0  0  0  0  0  0  0  0  0
  186.0010  178.3320  142.8380 C   0  0  0  0  0  0  0  0  0  0  0  0
  184.6710  178.6540  143.1290 C   0  0  0  0  0  3  0  0  0  0  0  0
  190.8560  174.8240  136.7670 C   0  0  1  0  0  3  0  0  0  0  0  0
  190.3590  176.9970  137.5600 C   0  0  0  0  0  2  0  0  0  0  0  0
  193.8760  176.3720  137.8340 O   0  0  0  0  0  0  0  0  0  0  0  0
  190.3110  173.4260  136.5660 C   0  0  0  0  0  1  0  0  0  0  0  0
  189.9170  175.6030  137.5710 N   0  0  0  0  0  2  0  0  0  0  0  0
  192.6830  176.1190  137.8360 C   0  0  0  0  0  0  0  0  0  0  0  0
  191.6960  177.1580  138.2930 C   0  0  2  0  0  3  0  0  0  0  0  0
  192.2120  174.7440  137.4630 C   0  0  0  0  0  2  0  0  0  0  0  0
  1 11  1  0  0  0  0
  2  3  1  0  0  0  0
  2  7  1  0  0  0  0
  3  9  1  0  0  0  0
  5 16  1  0  0  0  0
  5  4  2  0  0  0  0
  6 13  1  0  0  0  0
  7 17  1  0  0  0  0
  8  1  1  0  0  0  0
  9  6  2  0  0  0  0
 10 15  1  0  0  0  0
 10 14  2  0  0  0  0
 12 22  1  0  0  0  0
 14 19  1  0  0  0  0
 15  2  2  0  0  0  0
 16 10  1  0  0  0  0
 17  1  2  0  0  0  0
 18  6  1  0  0  0  0
 19  7  2  0  0  0  0
 19 20  1  0  0  0  0
 20  8  2  0  0  0  0
 21 12  2  0  0  0  0
 21 15  1  0  0  0  0
 22 23  1  0  0  0  0
 22  3  2  0  0  0  0
 23 18  2  0  0  0  0
 24 27  1  1  0  0  0
 24 31  1  0  0  0  0
 24 28  1  0  0  0  0
 25 28  1  0  0  0  0
 25 30  1  0  0  0  0
 26 29  2  0  0  0  0
 29 30  1  0  0  0  0
 30  5  1  1  0  0  0
 31 29  1  0  0  0  0
M  END
>  <MODEL>
3

>  <REMARK>
 VINA RESULT:     -11.0      2.208      4.301
  Name = 
  1 active torsions:
  status: ('A' for Active; 'I' for Inactive)
    1  A    between atoms: C_5  and  C_30
                            x       y       z     vdW  Elec       q    Type
                         _______ _______ _______ _____ _____    ______ ____

>  <TORSDO>
F 1

$$$$
=
 OpenBabel11122411053D

 31 35  0  0  1  0  0  0  0  0999 V2000
  188.3710  177.3800  145.7690 C   0  0  0  0  0  0  0  0  0  0  0  0
  186.9250  178.1340  142.3750 C   0  0  0  0  0  0  0  0  0  0  0  0
  187.9920  178.0500  141.4330 C   0  0  0  0  0  0  0  0  0  0  0  0
  182.0320  178.8490  144.2150 O   0  0  0  0  0  0  0  0  0  0  0  0
  182.0400  179.0300  142.9700 C   0  0  0  0  0  0  0  0  0  0  0  0
  190.3280  177.6630  140.8360 C   0  0  0  0  0  0  0  0  0  0  0  0
  187.0600  177.9150  143.7800 C   0  0  0  0  0  0  0  0  0  0  0  0
  187.2320  177.4990  146.5670 C   0  0  0  0  0  3  0  0  0  0  0  0
  189.3140  177.7350  141.7930 C   0  0  0  0  0  3  0  0  0  0  0  0
  184.5440  178.5630  142.7400 C   0  0  0  0  0  0  0  0  0  0  0  0
  189.5610  177.0640  146.3320 F   0  0  0  0  0  0  0  0  0  0  0  0
  186.4590  178.5990  139.6730 N   0  0  0  0  0  0  0  0  0  0  0  0
  191.9620  177.2680  141.3220 Cl  0  0  0  0  0  0  0  0  0  0  0  0
  184.7100  178.3470  144.0690 N   0  0  0  0  0  0  0  0  0  0  0  0
  185.6400  178.4610  141.8740 C   0  0  0  0  0  0  0  0  0  0  0  0
  183.2510  178.8950  142.2130 N   0  0  0  0  0  2  0  0  0  0  0  0
  188.2820  177.5860  144.3910 C   0  0  0  0  0  3  0  0  0  0  0  0
  190.0390  177.9040  139.4940 C   0  0  0  0  0  3  0  0  0  0  0  0
  185.9140  178.0330  144.6060 C   0  0  0  0  0  0  0  0  0  0  0  0
  186.0080  177.8250  145.9850 C   0  0  0  0  0  3  0  0  0  0  0  0
  185.4590  178.6800  140.5440 N   0  0  0  0  0  0  0  0  0  0  0  0
  187.7170  178.2920  140.0660 C   0  0  0  0  0  0  0  0  0  0  0  0
  188.7350  178.2190  139.1090 C   0  0  0  0  0  3  0  0  0  0  0  0
  179.2680  177.2150  141.0300 C   0  0  1  0  0  3  0  0  0  0  0  0
  179.5710  178.6400  142.8950 C   0  0  0  0  0  2  0  0  0  0  0  0
  181.3030  179.9650  140.0530 O   0  0  0  0  0  0  0  0  0  0  0  0
  179.0060  175.7910  140.5920 C   0  0  0  0  0  1  0  0  0  0  0  0
  179.5420  177.2420  142.4650 N   0  0  0  0  0  2  0  0  0  0  0  0
  180.8490  179.1150  140.7990 C   0  0  0  0  0  0  0  0  0  0  0  0
  180.7610  179.3830  142.2770 C   0  0  2  0  0  3  0  0  0  0  0  0
  180.4570  177.7740  140.2520 C   0  0  0  0  0  2  0  0  0  0  0  0
  1 11  1  0  0  0  0
  1  8  1  0  0  0  0
  2  7  1  0  0  0  0
  3  9  1  0  0  0  0
  3  2  2  0  0  0  0
  5  4  2  0  0  0  0
  6 13  1  0  0  0  0
  6  9  2  0  0  0  0
  7 17  1  0  0  0  0
  7 19  2  0  0  0  0
 10 14  2  0  0  0  0
 12 22  2  0  0  0  0
 12 21  1  0  0  0  0
 14 19  1  0  0  0  0
 15  2  1  0  0  0  0
 15 10  1  0  0  0  0
 16 10  1  0  0  0  0
 16  5  1  0  0  0  0
 17  1  2  0  0  0  0
 18  6  1  0  0  0  0
 19 20  1  0  0  0  0
 20  8  2  0  0  0  0
 21 15  2  0  0  0  0
 22  3  1  0  0  0  0
 23 18  2  0  0  0  0
 23 22  1  0  0  0  0
 24 27  1  6  0  0  0
 24 28  1  0  0  0  0
 26 29  2  0  0  0  0
 28 25  1  0  0  0  0
 29 30  1  0  0  0  0
 30 25  1  0  0  0  0
 30  5  1  1  0  0  0
 31 29  1  0  0  0  0
 31 24  1  0  0  0  0
M  END
>  <MODEL>
4

>  <REMARK>
 VINA RESULT:     -11.0      3.843      7.121
  Name = 
  1 active torsions:
  status: ('A' for Active; 'I' for Inactive)
    1  A    between atoms: C_5  and  C_30
                            x       y       z     vdW  Elec       q    Type
                         _______ _______ _______ _____ _____    ______ ____

>  <TORSDO>
F 1

$$$$
=
 OpenBabel11122411053D

 31 35  0  0  1  0  0  0  0  0999 V2000
  189.9850  176.9350  145.0720 C   0  0  0  0  0  0  0  0  0  0  0  0
  187.3050  178.1130  142.7040 C   0  0  0  0  0  0  0  0  0  0  0  0
  186.1480  178.4020  143.4850 C   0  0  0  0  0  0  0  0  0  0  0  0
  190.3610  177.6310  138.4290 O   0  0  0  0  0  0  0  0  0  0  0  0
  189.2210  178.0390  138.0840 C   0  0  0  0  0  0  0  0  0  0  0  0
  184.9470  178.5440  145.6070 C   0  0  0  0  0  0  0  0  0  0  0  0
  188.5440  177.6370  143.2300 C   0  0  0  0  0  0  0  0  0  0  0  0
  191.0300  176.6960  144.1800 C   0  0  0  0  0  3  0  0  0  0  0  0
  186.1030  178.2480  144.8810 C   0  0  0  0  0  3  0  0  0  0  0  0
  188.3060  178.0500  140.4720 C   0  0  0  0  0  0  0  0  0  0  0  0
  190.1610  176.7160  146.3970 F   0  0  0  0  0  0  0  0  0  0  0  0
  184.9780  179.0320  141.4890 N   0  0  0  0  0  0  0  0  0  0  0  0
  184.9290  178.3390  147.3450 Cl  0  0  0  0  0  0  0  0  0  0  0  0
  189.4690  177.5990  141.0080 N   0  0  0  0  0  0  0  0  0  0  0  0
  187.2110  178.3130  141.3030 C   0  0  0  0  0  0  0  0  0  0  0  0
  188.1910  178.2590  139.0570 N   0  0  0  0  0  2  0  0  0  0  0  0
  188.7560  177.4000  144.5990 C   0  0  0  0  0  3  0  0  0  0  0  0
  183.8080  179.0030  144.9470 C   0  0  0  0  0  3  0  0  0  0  0  0
  189.6180  177.3880  142.3380 C   0  0  0  0  0  0  0  0  0  0  0  0
  190.8450  176.9210  142.8170 C   0  0  0  0  0  3  0  0  0  0  0  0
  186.0520  178.7650  140.7530 N   0  0  0  0  0  0  0  0  0  0  0  0
  184.9820  178.8680  142.8320 C   0  0  0  0  0  0  0  0  0  0  0  0
  183.8250  179.1640  143.5610 C   0  0  0  0  0  3  0  0  0  0  0  0
  186.6730  176.9510  135.4260 C   0  0  1  0  0  3  0  0  0  0  0  0
  187.5560  178.9040  136.4310 C   0  0  0  0  0  2  0  0  0  0  0  0
  190.2250  176.7530  135.3890 O   0  0  0  0  0  0  0  0  0  0  0  0
  185.4870  176.0120  135.3810 C   0  0  0  0  0  1  0  0  0  0  0  0
  186.5190  177.8780  136.5460 N   0  0  0  0  0  2  0  0  0  0  0  0
  189.1220  177.0560  135.8120 C   0  0  0  0  0  0  0  0  0  0  0  0
  188.9510  178.3030  136.6360 C   0  0  2  0  0  3  0  0  0  0  0  0
  187.9570  176.1400  135.5810 C   0  0  0  0  0  2  0  0  0  0  0  0
  1 11  1  0  0  0  0
  2  7  1  0  0  0  0
  2  3  1  0  0  0  0
  3  9  1  0  0  0  0
  5  4  2  0  0  0  0
  5 16  1  0  0  0  0
  6 13  1  0  0  0  0
  7 17  2  0  0  0  0
  8  1  2  0  0  0  0
  9  6  2  0  0  0  0
 10 14  2  0  0  0  0
 10 15  1  0  0  0  0
 12 22  1  0  0  0  0
 14 19  1  0  0  0  0
 15  2  2  0  0  0  0
 16 10  1  0  0  0  0
 17  1  1  0  0  0  0
 18  6  1  0  0  0  0
 19 20  2  0  0  0  0
 19  7  1  0  0  0  0
 20  8  1  0  0  0  0
 21 15  1  0  0  0  0
 21 12  2  0  0  0  0
 22  3  2  0  0  0  0
 22 23  1  0  0  0  0
 23 18  2  0  0  0  0
 24 27  1  1  0  0  0
 24 31  1  0  0  0  0
 24 28  1  0  0  0  0
 25 28  1  0  0  0  0
 25 30  1  0  0  0  0
 26 29  2  0  0  0  0
 29 30  1  0  0  0  0
 30  5  1  1  0  0  0
 31 29  1  0  0  0  0
M  END
>  <MODEL>
5

>  <REMARK>
 VINA RESULT:     -10.9      2.005      4.135
  Name = 
  1 active torsions:
  status: ('A' for Active; 'I' for Inactive)
    1  A    between atoms: C_5  and  C_30
                            x       y       z     vdW  Elec       q    Type
                         _______ _______ _______ _____ _____    ______ ____

>  <TORSDO>
F 1

$$$$
=
 OpenBabel11122411053D

 31 35  0  0  1  0  0  0  0  0999 V2000
  191.1520  177.2620  141.8710 C   0  0  0  0  0  0  0  0  0  0  0  0
  187.9610  177.8230  143.7880 C   0  0  0  0  0  0  0  0  0  0  0  0
  188.2620  177.6490  145.1710 C   0  0  0  0  0  0  0  0  0  0  0  0
  185.1050  178.8030  139.4610 O   0  0  0  0  0  0  0  0  0  0  0  0
  184.3640  178.8770  140.4760 C   0  0  0  0  0  0  0  0  0  0  0  0
  189.7950  177.1680  147.0090 C   0  0  0  0  0  0  0  0  0  0  0  0
  188.9060  177.6940  142.7270 C   0  0  0  0  0  0  0  0  0  0  0  0
  190.7070  177.4610  140.5640 C   0  0  0  0  0  3  0  0  0  0  0  0
  189.5450  177.3280  145.6450 C   0  0  0  0  0  3  0  0  0  0  0  0
  186.2510  178.3290  142.1120 C   0  0  0  0  0  0  0  0  0  0  0  0
  192.4510  176.9560  142.1040 F   0  0  0  0  0  0  0  0  0  0  0  0
  185.9730  178.1150  145.7120 N   0  0  0  0  0  0  0  0  0  0  0  0
  191.4080  176.7680  147.5620 Cl  0  0  0  0  0  0  0  0  0  0  0  0
  187.1780  178.2000  141.1300 N   0  0  0  0  0  0  0  0  0  0  0  0
  186.6210  178.1450  143.4500 C   0  0  0  0  0  0  0  0  0  0  0  0
  184.8910  178.6550  141.7910 N   0  0  0  0  0  2  0  0  0  0  0  0
  190.2600  177.3780  142.9380 C   0  0  0  0  0  3  0  0  0  0  0  0
  188.7620  177.3270  147.9310 C   0  0  0  0  0  3  0  0  0  0  0  0
  188.4710  177.8930  141.3920 C   0  0  0  0  0  0  0  0  0  0  0  0
  189.3690  177.7750  140.3270 C   0  0  0  0  0  3  0  0  0  0  0  0
  185.6820  178.2780  144.4250 N   0  0  0  0  0  0  0  0  0  0  0  0
  187.2250  177.8060  146.1210 C   0  0  0  0  0  0  0  0  0  0  0  0
  187.4780  177.6450  147.4870 C   0  0  0  0  0  3  0  0  0  0  0  0
  181.4020  177.6320  138.3740 C   0  0  1  0  0  3  0  0  0  0  0  0
  182.0230  178.0100  140.6260 C   0  0  0  0  0  2  0  0  0  0  0  0
  182.7830  180.8990  138.6480 O   0  0  0  0  0  0  0  0  0  0  0  0
  181.1960  176.5770  137.3090 C   0  0  0  0  0  1  0  0  0  0  0  0
  182.0400  177.0270  139.5420 N   0  0  0  0  0  2  0  0  0  0  0  0
  182.6410  179.7150  138.9060 C   0  0  0  0  0  0  0  0  0  0  0  0
  182.9170  179.2110  140.2960 C   0  0  2  0  0  3  0  0  0  0  0  0
  182.2730  178.7540  137.8140 C   0  0  0  0  0  2  0  0  0  0  0  0
  1 11  1  0  0  0  0
  1 17  1  0  0  0  0
  2  3  1  0  0  0  0
  3  9  2  0  0  0  0
  3 22  1  0  0  0  0
  4  5  2  0  0  0  0
  5 16  1  0  0  0  0
  6 13  1  0  0  0  0
  6 18  2  0  0  0  0
  7 17  2  0  0  0  0
  7  2  1  0  0  0  0
  8  1  2  0  0  0  0
  9  6  1  0  0  0  0
 10 15  1  0  0  0  0
 12 22  1  0  0  0  0
 14 19  1  0  0  0  0
 14 10  2  0  0  0  0
 15  2  2  0  0  0  0
 15 21  1  0  0  0  0
 16 10  1  0  0  0  0
 19  7  1  0  0  0  0
 20  8  1  0  0  0  0
 20 19  2  0  0  0  0
 21 12  2  0  0  0  0
 22 23  2  0  0  0  0
 23 18  1  0  0  0  0
 24 27  1  6  0  0  0
 24 28  1  0  0  0  0
 26 29  2  0  0  0  0
 28 25  1  0  0  0  0
 29 30  1  0  0  0  0
 30  5  1  6  0  0  0
 30 25  1  0  0  0  0
 31 24  1  0  0  0  0
 31 29  1  0  0  0  0
M  END
>  <MODEL>
6

>  <REMARK>
 VINA RESULT:     -10.8      3.401      5.496
  Name = 
  1 active torsions:
  status: ('A' for Active; 'I' for Inactive)
    1  A    between atoms: C_5  and  C_30
                            x       y       z     vdW  Elec       q    Type
                         _______ _______ _______ _____ _____    ______ ____

>  <TORSDO>
F 1

$$$$
=
 OpenBabel11122411053D

 31 35  0  0  1  0  0  0  0  0999 V2000
  190.7000  177.5040  140.7040 C   0  0  0  0  0  0  0  0  0  0  0  0
  187.6630  178.0030  142.8740 C   0  0  0  0  0  0  0  0  0  0  0  0
  188.0560  177.7420  144.2190 C   0  0  0  0  0  0  0  0  0  0  0  0
  184.5320  179.2920  138.8260 O   0  0  0  0  0  0  0  0  0  0  0  0
  183.8660  179.3170  139.8930 C   0  0  0  0  0  0  0  0  0  0  0  0
  189.7040  177.1240  145.9120 C   0  0  0  0  0  0  0  0  0  0  0  0
  188.5290  177.9220  141.7420 C   0  0  0  0  0  0  0  0  0  0  0  0
  190.1680  177.7890  139.4460 C   0  0  0  0  0  3  0  0  0  0  0  0
  189.3620  177.3710  144.5810 C   0  0  0  0  0  3  0  0  0  0  0  0
  185.8510  178.6390  141.3560 C   0  0  0  0  0  0  0  0  0  0  0  0
  192.0040  177.1630  140.8260 F   0  0  0  0  0  0  0  0  0  0  0  0
  185.8210  178.2130  144.9480 N   0  0  0  0  0  0  0  0  0  0  0  0
  191.3420  176.6640  146.3230 Cl  0  0  0  0  0  0  0  0  0  0  0  0
  186.7040  178.5530  140.3050 N   0  0  0  0  0  0  0  0  0  0  0  0
  186.3100  178.3680  142.6510 C   0  0  0  0  0  0  0  0  0  0  0  0
  184.4790  179.0070  141.1530 N   0  0  0  0  0  2  0  0  0  0  0  0
  189.8860  177.5710  141.8370 C   0  0  0  0  0  3  0  0  0  0  0  0
  188.7410  177.2450  146.9130 C   0  0  0  0  0  3  0  0  0  0  0  0
  188.0050  178.2080  140.4550 C   0  0  0  0  0  0  0  0  0  0  0  0
  188.8240  178.1400  139.3240 C   0  0  0  0  0  3  0  0  0  0  0  0
  185.4450  178.4590  143.6960 N   0  0  0  0  0  0  0  0  0  0  0  0
  187.0920  177.8590  145.2480 C   0  0  0  0  0  0  0  0  0  0  0  0
  187.4370  177.6110  146.5810 C   0  0  0  0  0  3  0  0  0  0  0  0
  180.4980  177.5330  139.4320 C   0  0  1  0  0  3  0  0  0  0  0  0
  181.6190  178.9750  140.9370 C   0  0  0  0  0  2  0  0  0  0  0  0
  181.9160  180.2290  137.5930 O   0  0  0  0  0  0  0  0  0  0  0  0
  180.0500  176.1080  139.1860 C   0  0  0  0  0  1  0  0  0  0  0  0
  181.3840  177.5730  140.5940 N   0  0  0  0  0  2  0  0  0  0  0  0
  181.8320  179.3970  138.4820 C   0  0  0  0  0  0  0  0  0  0  0  0
  182.4170  179.6860  139.8370 C   0  0  2  0  0  3  0  0  0  0  0  0
  181.2210  178.0570  138.1940 C   0  0  0  0  0  2  0  0  0  0  0  0
  1 11  1  0  0  0  0
  1 17  1  0  0  0  0
  2  3  1  0  0  0  0
  3  9  2  0  0  0  0
  3 22  1  0  0  0  0
  4  5  2  0  0  0  0
  5 16  1  0  0  0  0
  6 13  1  0  0  0  0
  6 18  2  0  0  0  0
  7 17  2  0  0  0  0
  7  2  1  0  0  0  0
  8  1  2  0  0  0  0
  9  6  1  0  0  0  0
 10 15  1  0  0  0  0
 12 22  1  0  0  0  0
 14 19  1  0  0  0  0
 14 10  2  0  0  0  0
 15  2  2  0  0  0  0
 15 21  1  0  0  0  0
 16 10  1  0  0  0  0
 19  7  1  0  0  0  0
 20  8  1  0  0  0  0
 20 19  2  0  0  0  0
 21 12  2  0  0  0  0
 22 23  2  0  0  0  0
 23 18  1  0  0  0  0
 24 27  1  6  0  0  0
 24 28  1  0  0  0  0
 26 29  2  0  0  0  0
 28 25  1  0  0  0  0
 29 30  1  0  0  0  0
 30  5  1  6  0  0  0
 30 25  1  0  0  0  0
 31 29  1  0  0  0  0
 31 24  1  0  0  0  0
M  END
>  <MODEL>
7

>  <REMARK>
 VINA RESULT:     -10.5      3.501      5.885
  Name = 
  1 active torsions:
  status: ('A' for Active; 'I' for Inactive)
    1  A    between atoms: C_5  and  C_30
                            x       y       z     vdW  Elec       q    Type
                         _______ _______ _______ _____ _____    ______ ____

>  <TORSDO>
F 1

$$$$
=
 OpenBabel11122411053D

 31 35  0  0  1  0  0  0  0  0999 V2000
  186.3350  178.0250  146.7660 C   0  0  0  0  0  0  0  0  0  0  0  0
  187.6510  177.9410  143.2390 C   0  0  0  0  0  0  0  0  0  0  0  0
  189.0270  177.5740  143.3100 C   0  0  0  0  0  0  0  0  0  0  0  0
  183.0260  179.3010  141.0930 O   0  0  0  0  0  0  0  0  0  0  0  0
  183.8820  179.1560  140.1830 C   0  0  0  0  0  0  0  0  0  0  0  0
  191.0420  176.9530  144.5410 C   0  0  0  0  0  0  0  0  0  0  0  0
  186.7880  178.0850  144.3670 C   0  0  0  0  0  0  0  0  0  0  0  0
  185.0080  178.3910  146.5380 C   0  0  0  0  0  3  0  0  0  0  0  0
  189.6920  177.3100  144.5190 C   0  0  0  0  0  3  0  0  0  0  0  0
  185.7630  178.5450  141.8040 C   0  0  0  0  0  0  0  0  0  0  0  0
  186.7720  177.8170  148.0310 F   0  0  0  0  0  0  0  0  0  0  0  0
  189.1700  177.7140  140.9200 N   0  0  0  0  0  0  0  0  0  0  0  0
  191.8360  176.6310  146.0680 Cl  0  0  0  0  0  0  0  0  0  0  0  0
  184.9730  178.6710  142.9000 N   0  0  0  0  0  0  0  0  0  0  0  0
  187.1070  178.1800  141.9510 C   0  0  0  0  0  0  0  0  0  0  0  0
  185.2320  178.7820  140.4920 N   0  0  0  0  0  2  0  0  0  0  0  0
  187.2130  177.8750  145.6910 C   0  0  0  0  0  3  0  0  0  0  0  0
  191.7560  176.8530  143.3490 C   0  0  0  0  0  3  0  0  0  0  0  0
  185.4360  178.4560  144.1540 C   0  0  0  0  0  0  0  0  0  0  0  0
  184.5620  178.6060  145.2350 C   0  0  0  0  0  3  0  0  0  0  0  0
  187.8880  178.0570  140.8450 N   0  0  0  0  0  0  0  0  0  0  0  0
  189.7690  177.4690  142.1090 C   0  0  0  0  0  0  0  0  0  0  0  0
  191.1210  177.1110  142.1340 C   0  0  0  0  0  3  0  0  0  0  0  0
  180.7360  178.6890  138.0320 C   0  0  1  0  0  3  0  0  0  0  0  0
  182.3000  180.3520  138.6590 C   0  0  0  0  0  2  0  0  0  0  0  0
  184.0210  177.4050  137.5670 O   0  0  0  0  0  0  0  0  0  0  0  0
  179.3360  178.1610  138.2580 C   0  0  0  0  0  1  0  0  0  0  0  0
  181.0410  179.7080  139.0350 N   0  0  0  0  0  2  0  0  0  0  0  0
  183.1380  178.0670  138.0860 C   0  0  0  0  0  0  0  0  0  0  0  0
  183.4730  179.3700  138.7590 C   0  0  2  0  0  3  0  0  0  0  0  0
  181.7340  177.5380  138.1240 C   0  0  0  0  0  2  0  0  0  0  0  0
  1 11  1  0  0  0  0
  2  3  1  0  0  0  0
  2  7  1  0  0  0  0
  3  9  1  0  0  0  0
  5 16  1  0  0  0  0
  5  4  2  0  0  0  0
  6 13  1  0  0  0  0
  7 17  1  0  0  0  0
  8  1  1  0  0  0  0
  9  6  2  0  0  0  0
 10 15  1  0  0  0  0
 10 14  2  0  0  0  0
 12 22  1  0  0  0  0
 14 19  1  0  0  0  0
 15  2  2  0  0  0  0
 16 10  1  0  0  0  0
 17  1  2  0  0  0  0
 18  6  1  0  0  0  0
 19  7  2  0  0  0  0
 19 20  1  0  0  0  0
 20  8  2  0  0  0  0
 21 12  2  0  0  0  0
 21 15  1  0  0  0  0
 22 23  1  0  0  0  0
 22  3  2  0  0  0  0
 23 18  2  0  0  0  0
 24 31  1  0  0  0  0
 24 27  1  1  0  0  0
 24 28  1  0  0  0  0
 25 30  1  0  0  0  0
 25 28  1  0  0  0  0
 26 29  2  0  0  0  0
 29 31  1  0  0  0  0
 29 30  1  0  0  0  0
 30  5  1  1  0  0  0
M  END
>  <MODEL>
8

>  <REMARK>
 VINA RESULT:     -10.4      3.516      4.961
  Name = 
  1 active torsions:
  status: ('A' for Active; 'I' for Inactive)
    1  A    between atoms: C_5  and  C_30
                            x       y       z     vdW  Elec       q    Type
                         _______ _______ _______ _____ _____    ______ ____

>  <TORSDO>
F 1

$$$$
=
 OpenBabel11122411053D

 31 35  0  0  1  0  0  0  0  0999 V2000
  185.0660  178.2250  146.0180 C   0  0  0  0  0  0  0  0  0  0  0  0
  184.3960  178.6290  142.3350 C   0  0  0  0  0  0  0  0  0  0  0  0
  182.9970  178.8540  142.1810 C   0  0  0  0  0  0  0  0  0  0  0  0
  189.4540  177.9870  140.9740 O   0  0  0  0  0  0  0  0  0  0  0  0
  188.7620  178.1640  139.9380 C   0  0  0  0  0  0  0  0  0  0  0  0
  180.7370  179.1240  143.0670 C   0  0  0  0  0  0  0  0  0  0  0  0
  185.0560  178.4260  143.5840 C   0  0  0  0  0  0  0  0  0  0  0  0
  186.4450  178.0160  146.0080 C   0  0  0  0  0  3  0  0  0  0  0  0
  182.1020  178.9010  143.2640 C   0  0  0  0  0  3  0  0  0  0  0  0
  186.5660  178.3890  141.2280 C   0  0  0  0  0  0  0  0  0  0  0  0
  184.3900  178.2310  147.1910 F   0  0  0  0  0  0  0  0  0  0  0  0
  183.2970  179.0020  139.8070 N   0  0  0  0  0  0  0  0  0  0  0  0
  179.6530  179.1770  144.4400 Cl  0  0  0  0  0  0  0  0  0  0  0  0
  187.1580  178.2000  142.4340 N   0  0  0  0  0  0  0  0  0  0  0  0
  185.1840  178.6050  141.1550 C   0  0  0  0  0  0  0  0  0  0  0  0
  187.3450  178.3690  140.0230 N   0  0  0  0  0  2  0  0  0  0  0  0
  184.3820  178.4270  144.8180 C   0  0  0  0  0  3  0  0  0  0  0  0
  180.2400  179.3070  141.7780 C   0  0  0  0  0  3  0  0  0  0  0  0
  186.4580  178.2110  143.5930 C   0  0  0  0  0  0  0  0  0  0  0  0
  187.1380  178.0090  144.7980 C   0  0  0  0  0  3  0  0  0  0  0  0
  184.6030  178.7930  139.9400 N   0  0  0  0  0  0  0  0  0  0  0  0
  182.4730  179.0400  140.8790 C   0  0  0  0  0  0  0  0  0  0  0  0
  181.1060  179.2630  140.6860 C   0  0  0  0  0  3  0  0  0  0  0  0
  187.7600  177.8630  136.2430 C   0  0  1  0  0  3  0  0  0  0  0  0
  188.9170  179.3080  137.7180 C   0  0  0  0  0  2  0  0  0  0  0  0
  190.0860  175.9460  138.1330 O   0  0  0  0  0  0  0  0  0  0  0  0
  186.4680  177.6470  135.4840 C   0  0  0  0  0  1  0  0  0  0  0  0
  187.6010  178.9850  137.1680 N   0  0  0  0  0  2  0  0  0  0  0  0
  189.2900  176.8430  137.9100 C   0  0  0  0  0  0  0  0  0  0  0  0
  189.4390  178.1700  138.6030 C   0  0  2  0  0  3  0  0  0  0  0  0
  188.1170  176.5910  137.0080 C   0  0  0  0  0  2  0  0  0  0  0  0
  1 11  1  0  0  0  0
  2  7  1  0  0  0  0
  3  2  1  0  0  0  0
  3  9  1  0  0  0  0
  5 16  1  0  0  0  0
  5  4  2  0  0  0  0
  6  9  2  0  0  0  0
  6 13  1  0  0  0  0
  7 19  2  0  0  0  0
  7 17  1  0  0  0  0
  8  1  1  0  0  0  0
 10 14  2  0  0  0  0
 12 21  2  0  0  0  0
 12 22  1  0  0  0  0
 14 19  1  0  0  0  0
 15 10  1  0  0  0  0
 15  2  2  0  0  0  0
 16 10  1  0  0  0  0
 17  1  2  0  0  0  0
 18  6  1  0  0  0  0
 19 20  1  0  0  0  0
 20  8  2  0  0  0  0
 21 15  1  0  0  0  0
 22  3  2  0  0  0  0
 23 22  1  0  0  0  0
 23 18  2  0  0  0  0
 24 27  1  1  0  0  0
 24 31  1  0  0  0  0
 24 28  1  0  0  0  0
 25 30  1  0  0  0  0
 28 25  1  0  0  0  0
 29 26  2  0  0  0  0
 29 30  1  0  0  0  0
 30  5  1  1  0  0  0
 31 29  1  0  0  0  0
M  END
>  <MODEL>
9

>  <REMARK>
 VINA RESULT:     -10.3      2.726      5.218
  Name = 
  1 active torsions:
  status: ('A' for Active; 'I' for Inactive)
    1  A    between atoms: C_5  and  C_30
                            x       y       z     vdW  Elec       q    Type
                         _______ _______ _______ _____ _____    ______ ____

>  <TORSDO>
F 1

$$$$
