=
 OpenBabel11122410583D

 31 35  0  0  1  0  0  0  0  0999 V2000
  192.4870  174.8670  135.7930 C   0  0  0  0  0  0  0  0  0  0  0  0
  189.8120  177.2720  137.0140 C   0  0  2  0  0  3  0  0  0  0  0  0
  188.4590  176.5630  136.7460 C   0  0  1  0  0  3  0  0  0  0  0  0
  186.9910  174.5560  136.8080 C   0  0  0  0  0  0  0  0  0  0  0  0
  191.0040  176.3480  137.0140 C   0  0  0  0  0  0  0  0  0  0  0  0
  193.1330  174.5270  136.9840 C   0  0  0  0  0  3  0  0  0  0  0  0
  188.3780  175.0720  137.1000 C   0  0  0  0  0  2  0  0  0  0  0  0
  189.9240  177.3200  139.5080 C   0  0  2  0  0  3  0  0  0  0  0  0
  192.8990  174.3030  134.5940 O   0  0  0  0  0  1  0  0  0  0  0  0
  187.4860  178.6650  137.3480 O   0  0  0  0  0  0  0  0  0  0  0  0
  186.8050  173.3230  136.6500 O   0  0  0  0  0  0  0  0  0  0  0  0
  191.3040  176.6580  139.5230 C   0  0  0  0  0  2  0  0  0  0  0  0
  189.7730  178.1920  138.2540 C   0  0  2  0  0  3  0  0  0  0  0  0
  191.4240  175.7730  135.8090 C   0  0  0  0  0  3  0  0  0  0  0  0
  185.8420  175.4890  136.7210 C   0  0  0  0  0  3  0  0  0  0  0  0
  191.6510  175.9970  138.2190 C   0  0  0  0  0  0  0  0  0  0  0  0
  192.7200  175.0960  138.1910 C   0  0  0  0  0  3  0  0  0  0  0  0
  188.4700  179.0440  138.2930 C   0  0  0  0  0  2  0  0  0  0  0  0
  187.3290  177.2810  137.4790 C   0  0  1  0  0  3  0  0  0  0  0  0
  185.9990  176.7890  136.9950 C   0  0  0  0  0  3  0  0  0  0  0  0
  189.7140  178.1020  140.8000 C   0  0  0  0  0  2  0  0  0  0  0  0
  187.4050  177.5660  140.9230 O   0  0  0  0  0  0  0  0  0  0  0  0
  188.5150  177.5740  141.5190 C   0  0  0  0  0  0  0  0  0  0  0  0
  188.9380  177.0010  145.6860 N   0  0  0  0  0  0  0  0  0  0  0  0
  187.4750  177.4980  143.7840 C   0  0  0  0  0  2  0  0  0  0  0  0
  190.7410  176.2080  142.5920 O   0  0  0  0  0  1  0  0  0  0  0  0
  189.4380  177.5550  146.9310 C   0  0  0  0  0  1  0  0  0  0  0  0
  188.0270  177.9950  145.1190 C   0  0  0  0  0  2  0  0  0  0  0  0
  189.6420  176.3080  143.4470 C   0  0  2  0  0  3  0  0  0  0  0  0
  188.5910  177.1780  142.8990 N   0  0  0  0  0  0  0  0  0  0  0  0
  190.0910  176.8560  144.7990 C   0  0  0  0  0  2  0  0  0  0  0  0
  1 14  2  0  0  0  0
  1  6  1  0  0  0  0
  2  5  1  1  0  0  0
  2 13  1  0  0  0  0
  3  2  1  0  0  0  0
  3  7  1  1  0  0  0
  3 19  1  0  0  0  0
  4  7  1  0  0  0  0
  5 16  2  0  0  0  0
  6 17  2  0  0  0  0
  8 12  1  0  0  0  0
  8 21  1  1  0  0  0
  9  1  1  0  0  0  0
 10 19  1  0  0  0  0
 10 18  1  0  0  0  0
 11  4  2  0  0  0  0
 13 18  1  1  0  0  0
 13  8  1  0  0  0  0
 14  5  1  0  0  0  0
 15  4  1  0  0  0  0
 15 20  2  0  0  0  0
 16 12  1  0  0  0  0
 17 16  1  0  0  0  0
 19 20  1  6  0  0  0
 21 23  1  0  0  0  0
 22 23  2  0  0  0  0
 23 30  1  0  0  0  0
 24 27  1  0  0  0  0
 25 28  1  0  0  0  0
 28 24  1  0  0  0  0
 29 26  1  6  0  0  0
 29 31  1  0  0  0  0
 30 29  1  0  0  0  0
 30 25  1  0  0  0  0
 31 24  1  0  0  0  0
M  END
>  <MODEL>
1

>  <REMARK>
 VINA RESULT:      -6.8      0.000      0.000
  Name = 
  2 active torsions:
  status: ('A' for Active; 'I' for Inactive)
    1  A    between atoms: C_5  and  C_16
    2  A    between atoms: C_10  and  C_16
                            x       y       z     vdW  Elec       q    Type
                         _______ _______ _______ _____ _____    ______ ____

>  <TORSDO>
F 2

$$$$
=
 OpenBabel11122410583D

 31 35  0  0  1  0  0  0  0  0999 V2000
  191.0370  177.3670  141.0040 C   0  0  0  0  0  0  0  0  0  0  0  0
  189.5200  177.8490  137.5550 C   0  0  2  0  0  3  0  0  0  0  0  0
  189.6990  176.4910  136.8270 C   0  0  1  0  0  3  0  0  0  0  0  0
  189.5820  174.0070  136.7700 C   0  0  0  0  0  0  0  0  0  0  0  0
  189.6490  177.7660  139.0550 C   0  0  0  0  0  0  0  0  0  0  0  0
  189.9160  177.4790  141.8290 C   0  0  0  0  0  3  0  0  0  0  0  0
  189.3880  175.2260  137.6380 C   0  0  0  0  0  2  0  0  0  0  0  0
  187.0430  178.0020  137.8350 C   0  0  2  0  0  3  0  0  0  0  0  0
  192.2840  177.1140  141.5580 O   0  0  0  0  0  1  0  0  0  0  0  0
  188.9490  177.6780  134.8890 O   0  0  0  0  0  0  0  0  0  0  0  0
  189.7640  172.8840  137.3050 O   0  0  0  0  0  0  0  0  0  0  0  0
  187.1650  178.2430  139.3420 C   0  0  0  0  0  2  0  0  0  0  0  0
  188.2520  178.6080  137.1080 C   0  0  2  0  0  3  0  0  0  0  0  0
  190.9040  177.5090  139.6210 C   0  0  0  0  0  3  0  0  0  0  0  0
  189.5420  174.1190  135.2930 C   0  0  0  0  0  3  0  0  0  0  0  0
  188.5150  177.8700  139.8890 C   0  0  0  0  0  0  0  0  0  0  0  0
  188.6610  177.7360  141.2730 C   0  0  0  0  0  3  0  0  0  0  0  0
  188.0770  178.5690  135.5610 C   0  0  0  0  0  2  0  0  0  0  0  0
  188.8510  176.4540  135.5580 C   0  0  1  0  0  3  0  0  0  0  0  0
  189.2390  175.2840  134.7060 C   0  0  0  0  0  3  0  0  0  0  0  0
  185.7140  178.5510  137.3310 C   0  0  0  0  0  2  0  0  0  0  0  0
  184.7350  176.4340  137.7720 O   0  0  0  0  0  0  0  0  0  0  0  0
  184.5950  177.6860  137.8150 C   0  0  0  0  0  0  0  0  0  0  0  0
  180.8820  179.6080  138.4420 N   0  0  0  0  0  0  0  0  0  0  0  0
  182.1050  177.5640  137.8680 C   0  0  0  0  0  2  0  0  0  0  0  0
  184.4200  180.0930  139.2820 O   0  0  0  0  0  1  0  0  0  0  0  0
  179.9190  180.5590  137.9190 C   0  0  0  0  0  1  0  0  0  0  0  0
  181.0760  178.5940  137.4050 C   0  0  0  0  0  2  0  0  0  0  0  0
  183.2180  179.3970  139.1440 C   0  0  2  0  0  3  0  0  0  0  0  0
  183.3400  178.2550  138.2260 N   0  0  0  0  0  0  0  0  0  0  0  0
  182.1350  180.3410  138.6270 C   0  0  0  0  0  2  0  0  0  0  0  0
  1  9  1  0  0  0  0
  1  6  1  0  0  0  0
  2  5  1  1  0  0  0
  3  2  1  0  0  0  0
  3  7  1  1  0  0  0
  4 11  2  0  0  0  0
  4  7  1  0  0  0  0
  5 14  1  0  0  0  0
  5 16  2  0  0  0  0
  8 21  1  6  0  0  0
  8 12  1  0  0  0  0
 10 19  1  0  0  0  0
 10 18  1  0  0  0  0
 12 16  1  0  0  0  0
 13 18  1  6  0  0  0
 13  2  1  0  0  0  0
 13  8  1  0  0  0  0
 14  1  2  0  0  0  0
 15  4  1  0  0  0  0
 16 17  1  0  0  0  0
 17  6  2  0  0  0  0
 19 20  1  6  0  0  0
 19  3  1  0  0  0  0
 20 15  2  0  0  0  0
 21 23  1  0  0  0  0
 22 23  2  0  0  0  0
 23 30  1  0  0  0  0
 24 31  1  0  0  0  0
 25 30  1  0  0  0  0
 27 24  1  0  0  0  0
 28 25  1  0  0  0  0
 28 24  1  0  0  0  0
 29 26  1  6  0  0  0
 30 29  1  0  0  0  0
 31 29  1  0  0  0  0
M  END
>  <MODEL>
2

>  <REMARK>
 VINA RESULT:      -6.5      3.485      6.160
  Name = 
  2 active torsions:
  status: ('A' for Active; 'I' for Inactive)
    1  A    between atoms: C_5  and  C_16
    2  A    between atoms: C_10  and  C_16
                            x       y       z     vdW  Elec       q    Type
                         _______ _______ _______ _____ _____    ______ ____

>  <TORSDO>
F 2

$$$$
=
 OpenBabel11122410583D

 31 35  0  0  1  0  0  0  0  0999 V2000
  191.7090  176.7740  138.7530 C   0  0  0  0  0  0  0  0  0  0  0  0
  188.6510  177.2020  136.5390 C   0  0  2  0  0  3  0  0  0  0  0  0
  188.3140  175.7820  136.0150 C   0  0  1  0  0  3  0  0  0  0  0  0
  187.9860  173.3420  136.3640 C   0  0  0  0  0  0  0  0  0  0  0  0
  189.5420  177.2150  137.7560 C   0  0  0  0  0  0  0  0  0  0  0  0
  191.2000  177.1010  140.0110 C   0  0  0  0  0  3  0  0  0  0  0  0
  188.3750  174.6370  137.0330 C   0  0  0  0  0  2  0  0  0  0  0  0
  186.7120  177.7180  138.0240 C   0  0  2  0  0  3  0  0  0  0  0  0
  193.0370  176.3920  138.6180 O   0  0  0  0  0  1  0  0  0  0  0  0
  186.7550  176.9140  134.5940 O   0  0  0  0  0  0  0  0  0  0  0  0
  188.3330  172.2470  136.8770 O   0  0  0  0  0  0  0  0  0  0  0  0
  187.6250  178.0510  139.2070 C   0  0  0  0  0  2  0  0  0  0  0  0
  187.4020  178.0940  136.7060 C   0  0  2  0  0  3  0  0  0  0  0  0
  190.8810  176.8290  137.6280 C   0  0  0  0  0  3  0  0  0  0  0  0
  187.1870  173.3480  135.1170 C   0  0  0  0  0  3  0  0  0  0  0  0
  189.0260  177.5370  139.0300 C   0  0  0  0  0  0  0  0  0  0  0  0
  189.8650  177.4880  140.1470 C   0  0  0  0  0  3  0  0  0  0  0  0
  186.4400  177.9650  135.4890 C   0  0  0  0  0  2  0  0  0  0  0  0
  186.9260  175.7680  135.3770 C   0  0  1  0  0  3  0  0  0  0  0  0
  186.7150  174.4960  134.6160 C   0  0  0  0  0  3  0  0  0  0  0  0
  185.3640  178.4080  138.2030 C   0  0  0  0  0  2  0  0  0  0  0  0
  184.2670  176.4040  137.5580 O   0  0  0  0  0  0  0  0  0  0  0  0
  184.2890  177.3810  138.3540 C   0  0  0  0  0  0  0  0  0  0  0  0
  181.0620  178.4110  140.8830 N   0  0  0  0  0  0  0  0  0  0  0  0
  181.8770  177.1530  138.9450 C   0  0  0  0  0  2  0  0  0  0  0  0
  184.7290  178.4440  140.9330 O   0  0  0  0  0  1  0  0  0  0  0  0
  180.1240  179.4480  141.2720 C   0  0  0  0  0  1  0  0  0  0  0  0
  180.8990  178.2160  139.4430 C   0  0  0  0  0  2  0  0  0  0  0  0
  183.4540  177.9180  140.7210 C   0  0  2  0  0  3  0  0  0  0  0  0
  183.2330  177.5460  139.3160 N   0  0  0  0  0  0  0  0  0  0  0  0
  182.4010  178.9410  141.1400 C   0  0  0  0  0  2  0  0  0  0  0  0
  1  6  1  0  0  0  0
  2 13  1  0  0  0  0
  2  5  1  1  0  0  0
  3  2  1  0  0  0  0
  3  7  1  1  0  0  0
  4 11  2  0  0  0  0
  4  7  1  0  0  0  0
  5 16  2  0  0  0  0
  6 17  2  0  0  0  0
  8 21  1  1  0  0  0
  8 12  1  0  0  0  0
  9  1  1  0  0  0  0
 10 19  1  0  0  0  0
 10 18  1  0  0  0  0
 13 18  1  6  0  0  0
 13  8  1  0  0  0  0
 14  5  1  0  0  0  0
 14  1  2  0  0  0  0
 15  4  1  0  0  0  0
 16 12  1  0  0  0  0
 16 17  1  0  0  0  0
 19 20  1  6  0  0  0
 19  3  1  0  0  0  0
 20 15  2  0  0  0  0
 21 23  1  0  0  0  0
 22 23  2  0  0  0  0
 23 30  1  0  0  0  0
 24 31  1  0  0  0  0
 24 27  1  0  0  0  0
 25 30  1  0  0  0  0
 25 28  1  0  0  0  0
 28 24  1  0  0  0  0
 29 26  1  6  0  0  0
 29 31  1  0  0  0  0
 30 29  1  0  0  0  0
M  END
>  <MODEL>
3

>  <REMARK>
 VINA RESULT:      -6.4      3.468      5.144
  Name = 
  2 active torsions:
  status: ('A' for Active; 'I' for Inactive)
    1  A    between atoms: C_5  and  C_16
    2  A    between atoms: C_10  and  C_16
                            x       y       z     vdW  Elec       q    Type
                         _______ _______ _______ _____ _____    ______ ____

>  <TORSDO>
F 2

$$$$
=
 OpenBabel11122410583D

 31 35  0  0  1  0  0  0  0  0999 V2000
  184.2600  174.1970  136.8340 C   0  0  0  0  0  0  0  0  0  0  0  0
  187.5980  175.5540  135.6290 C   0  0  2  0  0  3  0  0  0  0  0  0
  187.8310  176.8610  136.4310 C   0  0  1  0  0  3  0  0  0  0  0  0
  187.8260  178.1550  138.5550 C   0  0  0  0  0  0  0  0  0  0  0  0
  186.5710  174.6320  136.2370 C   0  0  0  0  0  0  0  0  0  0  0  0
  184.6430  173.0120  137.4660 C   0  0  0  0  0  3  0  0  0  0  0  0
  187.5110  176.8180  137.9300 C   0  0  0  0  0  2  0  0  0  0  0  0
  189.3850  174.0440  136.5030 C   0  0  2  0  0  3  0  0  0  0  0  0
  182.9240  174.5740  136.8140 O   0  0  0  0  0  1  0  0  0  0  0  0
  189.6750  177.1890  134.9400 O   0  0  0  0  0  0  0  0  0  0  0  0
  187.2940  178.4730  139.6490 O   0  0  0  0  0  0  0  0  0  0  0  0
  188.3770  172.9430  136.8430 C   0  0  0  0  0  2  0  0  0  0  0  0
  188.9120  174.8260  135.2700 C   0  0  2  0  0  3  0  0  0  0  0  0
  185.2220  175.0060  136.2230 C   0  0  0  0  0  3  0  0  0  0  0  0
  188.7700  179.0900  137.8980 C   0  0  0  0  0  3  0  0  0  0  0  0
  186.9580  173.4390  136.8850 C   0  0  0  0  0  0  0  0  0  0  0  0
  185.9870  172.6320  137.4850 C   0  0  0  0  0  3  0  0  0  0  0  0
  189.9970  175.8220  134.7630 C   0  0  0  0  0  2  0  0  0  0  0  0
  189.2760  177.3290  136.2730 C   0  0  1  0  0  3  0  0  0  0  0  0
  189.4310  178.7260  136.7930 C   0  0  0  0  0  3  0  0  0  0  0  0
  190.7710  173.4360  136.3220 C   0  0  0  0  0  2  0  0  0  0  0  0
  191.3070  174.7750  138.2070 O   0  0  0  0  0  0  0  0  0  0  0  0
  191.7460  174.1280  137.2190 C   0  0  0  0  0  0  0  0  0  0  0  0
  195.7040  174.4610  135.7720 N   0  0  0  0  0  0  0  0  0  0  0  0
  193.9050  175.3740  137.1620 C   0  0  0  0  0  2  0  0  0  0  0  0
  193.1070  171.8980  136.1460 O   0  0  0  0  0  1  0  0  0  0  0  0
  196.5440  174.7650  134.6280 C   0  0  0  0  0  1  0  0  0  0  0  0
  194.8450  175.6260  135.9840 C   0  0  0  0  0  2  0  0  0  0  0  0
  193.9260  172.9600  136.5330 C   0  0  2  0  0  3  0  0  0  0  0  0
  193.1500  174.1500  136.9130 N   0  0  0  0  0  0  0  0  0  0  0  0
  194.8700  173.3230  135.3880 C   0  0  0  0  0  2  0  0  0  0  0  0
  1  6  1  0  0  0  0
  2  5  1  1  0  0  0
  2  3  1  0  0  0  0
  3  7  1  1  0  0  0
  4 11  2  0  0  0  0
  5 16  2  0  0  0  0
  6 17  2  0  0  0  0
  7  4  1  0  0  0  0
  8 21  1  6  0  0  0
  8 12  1  0  0  0  0
  9  1  1  0  0  0  0
 10 19  1  0  0  0  0
 12 16  1  0  0  0  0
 13 18  1  1  0  0  0
 13  2  1  0  0  0  0
 13  8  1  0  0  0  0
 14  5  1  0  0  0  0
 14  1  2  0  0  0  0
 15  4  1  0  0  0  0
 16 17  1  0  0  0  0
 18 10  1  0  0  0  0
 19  3  1  0  0  0  0
 19 20  1  6  0  0  0
 20 15  2  0  0  0  0
 21 23  1  0  0  0  0
 23 22  2  0  0  0  0
 24 28  1  0  0  0  0
 27 24  1  0  0  0  0
 28 25  1  0  0  0  0
 29 26  1  6  0  0  0
 29 30  1  0  0  0  0
 30 25  1  0  0  0  0
 30 23  1  0  0  0  0
 31 24  1  0  0  0  0
 31 29  1  0  0  0  0
M  END
>  <MODEL>
4

>  <REMARK>
 VINA RESULT:      -6.3      4.056      7.284
  Name = 
  2 active torsions:
  status: ('A' for Active; 'I' for Inactive)
    1  A    between atoms: C_5  and  C_16
    2  A    between atoms: C_10  and  C_16
                            x       y       z     vdW  Elec       q    Type
                         _______ _______ _______ _____ _____    ______ ____

>  <TORSDO>
F 2

$$$$
=
 OpenBabel11122410583D

 31 35  0  0  1  0  0  0  0  0999 V2000
  183.8120  178.9770  142.5800 C   0  0  0  0  0  0  0  0  0  0  0  0
  182.9840  177.7650  139.0760 C   0  0  2  0  0  3  0  0  0  0  0  0
  182.0370  178.8360  138.4770 C   0  0  1  0  0  3  0  0  0  0  0  0
  181.4070  181.2030  138.0410 C   0  0  0  0  0  0  0  0  0  0  0  0
  183.7750  178.2390  140.2700 C   0  0  0  0  0  0  0  0  0  0  0  0
  185.1790  179.2400  142.4780 C   0  0  0  0  0  3  0  0  0  0  0  0
  182.4130  180.3040  138.7180 C   0  0  0  0  0  2  0  0  0  0  0  0
  185.0450  178.0130  137.6870 C   0  0  2  0  0  3  0  0  0  0  0  0
  183.1470  179.2110  143.7760 O   0  0  0  0  0  1  0  0  0  0  0  0
  181.7470  177.2690  136.6910 O   0  0  0  0  0  0  0  0  0  0  0  0
  181.2870  182.3970  138.4170 O   0  0  0  0  0  0  0  0  0  0  0  0
  185.9340  178.1810  138.9220 C   0  0  0  0  0  2  0  0  0  0  0  0
  183.8680  177.0810  138.0100 C   0  0  2  0  0  3  0  0  0  0  0  0
  183.1110  178.4790  141.4790 C   0  0  0  0  0  3  0  0  0  0  0  0
  180.5720  180.6960  136.9280 C   0  0  0  0  0  3  0  0  0  0  0  0
  185.1560  178.5140  140.1640 C   0  0  0  0  0  0  0  0  0  0  0  0
  185.8490  179.0030  141.2750 C   0  0  0  0  0  3  0  0  0  0  0  0
  183.0500  176.7160  136.7370 C   0  0  0  0  0  2  0  0  0  0  0  0
  181.8890  178.6320  136.9710 C   0  0  1  0  0  3  0  0  0  0  0  0
  180.7620  179.4640  136.4400 C   0  0  0  0  0  3  0  0  0  0  0  0
  185.8820  177.5210  136.5120 C   0  0  0  0  0  2  0  0  0  0  0  0
  187.5290  179.1890  136.8850 O   0  0  0  0  0  0  0  0  0  0  0  0
  187.2980  177.9670  136.6820 C   0  0  0  0  0  0  0  0  0  0  0  0
  190.2800  175.1690  135.6060 N   0  0  0  0  0  0  0  0  0  0  0  0
  189.6010  177.5110  135.8400 C   0  0  0  0  0  2  0  0  0  0  0  0
  187.2000  175.2960  137.5940 O   0  0  0  0  0  1  0  0  0  0  0  0
  190.7080  174.1860  134.6290 C   0  0  0  0  0  1  0  0  0  0  0  0
  190.0840  176.4240  134.8820 C   0  0  0  0  0  2  0  0  0  0  0  0
  188.4490  175.7180  137.1360 C   0  0  2  0  0  3  0  0  0  0  0  0
  188.3920  177.0480  136.5140 N   0  0  0  0  0  0  0  0  0  0  0  0
  188.9890  174.7130  136.1210 C   0  0  0  0  0  2  0  0  0  0  0  0
  1  9  1  0  0  0  0
  2  5  1  1  0  0  0
  3  7  1  6  0  0  0
  3  2  1  0  0  0  0
  4 11  2  0  0  0  0
  4  7  1  0  0  0  0
  5 14  1  0  0  0  0
  6  1  1  0  0  0  0
  8 21  1  6  0  0  0
  8 13  1  0  0  0  0
  8 12  1  0  0  0  0
 10 18  1  0  0  0  0
 10 19  1  0  0  0  0
 12 16  1  0  0  0  0
 13 18  1  6  0  0  0
 13  2  1  0  0  0  0
 14  1  2  0  0  0  0
 15  4  1  0  0  0  0
 16  5  2  0  0  0  0
 16 17  1  0  0  0  0
 17  6  2  0  0  0  0
 19 20  1  1  0  0  0
 19  3  1  0  0  0  0
 20 15  2  0  0  0  0
 21 23  1  0  0  0  0
 23 22  2  0  0  0  0
 24 31  1  0  0  0  0
 25 30  1  0  0  0  0
 27 24  1  0  0  0  0
 28 24  1  0  0  0  0
 28 25  1  0  0  0  0
 29 26  1  6  0  0  0
 30 23  1  0  0  0  0
 30 29  1  0  0  0  0
 31 29  1  0  0  0  0
M  END
>  <MODEL>
5

>  <REMARK>
 VINA RESULT:      -6.3      4.243      8.298
  Name = 
  2 active torsions:
  status: ('A' for Active; 'I' for Inactive)
    1  A    between atoms: C_5  and  C_16
    2  A    between atoms: C_10  and  C_16
                            x       y       z     vdW  Elec       q    Type
                         _______ _______ _______ _____ _____    ______ ____

>  <TORSDO>
F 2

$$$$
=
 OpenBabel11122410583D

 31 35  0  0  1  0  0  0  0  0999 V2000
  190.8740  177.4960  140.9250 C   0  0  0  0  0  0  0  0  0  0  0  0
  189.0860  177.9050  137.5980 C   0  0  2  0  0  3  0  0  0  0  0  0
  189.2930  176.5650  136.8450 C   0  0  1  0  0  3  0  0  0  0  0  0
  189.3210  174.0790  136.7710 C   0  0  0  0  0  0  0  0  0  0  0  0
  189.3280  177.8210  139.0840 C   0  0  0  0  0  0  0  0  0  0  0  0
  189.8100  177.5340  141.8290 C   0  0  0  0  0  3  0  0  0  0  0  0
  189.1180  175.2790  137.6630 C   0  0  0  0  0  2  0  0  0  0  0  0
  186.6310  177.9060  138.0560 C   0  0  2  0  0  3  0  0  0  0  0  0
  192.1710  177.3150  141.3850 O   0  0  0  0  0  1  0  0  0  0  0  0
  188.3350  177.7160  134.9780 O   0  0  0  0  0  0  0  0  0  0  0  0
  189.6090  172.9650  137.2800 O   0  0  0  0  0  0  0  0  0  0  0  0
  186.8470  178.1450  139.5530 C   0  0  0  0  0  2  0  0  0  0  0  0
  187.7450  178.5880  137.2500 C   0  0  2  0  0  3  0  0  0  0  0  0
  190.6330  177.6370  139.5560 C   0  0  0  0  0  3  0  0  0  0  0  0
  189.1690  174.1970  135.3020 C   0  0  0  0  0  3  0  0  0  0  0  0
  188.2520  177.8510  139.9980 C   0  0  0  0  0  0  0  0  0  0  0  0
  188.5050  177.7180  141.3670 C   0  0  0  0  0  3  0  0  0  0  0  0
  187.4630  178.5480  135.7200 C   0  0  0  0  0  2  0  0  0  0  0  0
  188.3600  176.4840  135.6390 C   0  0  1  0  0  3  0  0  0  0  0  0
  188.7550  175.3440  134.7500 C   0  0  0  0  0  3  0  0  0  0  0  0
  185.2380  178.3770  137.6540 C   0  0  0  0  0  2  0  0  0  0  0  0
  183.4980  177.4790  138.9970 O   0  0  0  0  0  0  0  0  0  0  0  0
  184.2340  177.3210  137.9860 C   0  0  0  0  0  0  0  0  0  0  0  0
  184.6530  173.6400  135.9480 N   0  0  0  0  0  0  0  0  0  0  0  0
  183.9210  174.8470  137.9510 C   0  0  0  0  0  2  0  0  0  0  0  0
  184.5800  177.2260  135.1850 O   0  0  0  0  0  1  0  0  0  0  0  0
  185.5760  172.6170  135.4930 C   0  0  0  0  0  1  0  0  0  0  0  0
  184.8420  173.7630  137.3940 C   0  0  0  0  0  2  0  0  0  0  0  0
  184.1590  176.0300  135.7680 C   0  0  2  0  0  3  0  0  0  0  0  0
  184.1700  176.0950  137.2370 N   0  0  0  0  0  0  0  0  0  0  0  0
  185.0640  174.8900  135.3100 C   0  0  0  0  0  2  0  0  0  0  0  0
  1  9  1  0  0  0  0
  1  6  1  0  0  0  0
  2  5  1  1  0  0  0
  3  2  1  0  0  0  0
  3  7  1  1  0  0  0
  4 11  2  0  0  0  0
  4  7  1  0  0  0  0
  5 14  1  0  0  0  0
  5 16  2  0  0  0  0
  8 21  1  6  0  0  0
  8 12  1  0  0  0  0
 10 19  1  0  0  0  0
 10 18  1  0  0  0  0
 12 16  1  0  0  0  0
 13 18  1  6  0  0  0
 13  2  1  0  0  0  0
 13  8  1  0  0  0  0
 14  1  2  0  0  0  0
 15  4  1  0  0  0  0
 16 17  1  0  0  0  0
 17  6  2  0  0  0  0
 19 20  1  6  0  0  0
 19  3  1  0  0  0  0
 20 15  2  0  0  0  0
 21 23  1  0  0  0  0
 23 22  2  0  0  0  0
 24 28  1  0  0  0  0
 27 24  1  0  0  0  0
 28 25  1  0  0  0  0
 29 26  1  6  0  0  0
 29 30  1  0  0  0  0
 30 25  1  0  0  0  0
 30 23  1  0  0  0  0
 31 29  1  0  0  0  0
 31 24  1  0  0  0  0
M  END
>  <MODEL>
6

>  <REMARK>
 VINA RESULT:      -6.2      3.325      6.205
  Name = 
  2 active torsions:
  status: ('A' for Active; 'I' for Inactive)
    1  A    between atoms: C_5  and  C_16
    2  A    between atoms: C_10  and  C_16
                            x       y       z     vdW  Elec       q    Type
                         _______ _______ _______ _____ _____    ______ ____

>  <TORSDO>
F 2

$$$$
=
 OpenBabel11122410583D

 31 35  0  0  1  0  0  0  0  0999 V2000
  190.5760  176.9290  139.2490 C   0  0  0  0  0  0  0  0  0  0  0  0
  188.3870  176.9030  142.3540 C   0  0  2  0  0  3  0  0  0  0  0  0
  189.2970  177.3940  143.5100 C   0  0  1  0  0  3  0  0  0  0  0  0
  190.9880  178.9570  144.4500 C   0  0  0  0  0  0  0  0  0  0  0  0
  188.9030  177.2400  140.9770 C   0  0  0  0  0  0  0  0  0  0  0  0
  189.9700  177.9240  138.4790 C   0  0  0  0  0  3  0  0  0  0  0  0
  190.2030  178.5960  143.2130 C   0  0  0  0  0  2  0  0  0  0  0  0
  186.7350  178.7610  142.1260 C   0  0  2  0  0  3  0  0  0  0  0  0
  191.7070  176.2770  138.7770 O   0  0  0  0  0  1  0  0  0  0  0  0
  187.4770  176.7530  144.9250 O   0  0  0  0  0  0  0  0  0  0  0  0
  192.0460  179.6300  144.3430 O   0  0  0  0  0  0  0  0  0  0  0  0
  187.0150  178.9120  140.6290 C   0  0  0  0  0  2  0  0  0  0  0  0
  186.9060  177.2950  142.5470 C   0  0  2  0  0  3  0  0  0  0  0  0
  190.0450  176.5890  140.4950 C   0  0  0  0  0  3  0  0  0  0  0  0
  190.5160  178.5400  145.7910 C   0  0  0  0  0  3  0  0  0  0  0  0
  188.2970  178.2530  140.2030 C   0  0  0  0  0  0  0  0  0  0  0  0
  188.8310  178.5780  138.9520 C   0  0  0  0  0  3  0  0  0  0  0  0
  186.4370  177.0520  144.0120 C   0  0  0  0  0  2  0  0  0  0  0  0
  188.4580  177.7320  144.7390 C   0  0  1  0  0  3  0  0  0  0  0  0
  189.3380  177.9210  145.9360 C   0  0  0  0  0  3  0  0  0  0  0  0
  185.3500  179.3100  142.4490 C   0  0  0  0  0  2  0  0  0  0  0  0
  184.6720  177.8780  140.6820 O   0  0  0  0  0  0  0  0  0  0  0  0
  184.3150  178.5440  141.6900 C   0  0  0  0  0  0  0  0  0  0  0  0
  180.2850  179.4510  142.5900 N   0  0  0  0  0  0  0  0  0  0  0  0
  181.9370  178.6810  140.9520 C   0  0  0  0  0  2  0  0  0  0  0  0
  183.4010  178.6680  144.3590 O   0  0  0  0  0  1  0  0  0  0  0  0
  179.3180  180.5030  142.8440 C   0  0  0  0  0  1  0  0  0  0  0  0
  180.8800  179.7330  141.2840 C   0  0  0  0  0  2  0  0  0  0  0  0
  182.3990  178.5200  143.3980 C   0  0  2  0  0  3  0  0  0  0  0  0
  182.9210  178.6410  142.0290 N   0  0  0  0  0  0  0  0  0  0  0  0
  181.3180  179.5750  143.6170 C   0  0  0  0  0  2  0  0  0  0  0  0
  1 14  1  0  0  0  0
  2  5  1  6  0  0  0
  2 13  1  0  0  0  0
  2  3  1  0  0  0  0
  3  7  1  6  0  0  0
  3 19  1  0  0  0  0
  4 15  1  0  0  0  0
  6 17  1  0  0  0  0
  6  1  2  0  0  0  0
  7  4  1  0  0  0  0
  8 21  1  6  0  0  0
  8 13  1  0  0  0  0
  9  1  1  0  0  0  0
 11  4  2  0  0  0  0
 12  8  1  0  0  0  0
 13 18  1  1  0  0  0
 14  5  2  0  0  0  0
 15 20  2  0  0  0  0
 16 12  1  0  0  0  0
 16  5  1  0  0  0  0
 17 16  2  0  0  0  0
 18 10  1  0  0  0  0
 19 10  1  0  0  0  0
 19 20  1  1  0  0  0
 22 23  2  0  0  0  0
 23 30  1  0  0  0  0
 23 21  1  0  0  0  0
 24 27  1  0  0  0  0
 24 31  1  0  0  0  0
 25 28  1  0  0  0  0
 25 30  1  0  0  0  0
 28 24  1  0  0  0  0
 29 31  1  0  0  0  0
 29 26  1  1  0  0  0
 30 29  1  0  0  0  0
M  END
>  <MODEL>
7

>  <REMARK>
 VINA RESULT:      -6.1      3.981      7.099
  Name = 
  2 active torsions:
  status: ('A' for Active; 'I' for Inactive)
    1  A    between atoms: C_5  and  C_16
    2  A    between atoms: C_10  and  C_16
                            x       y       z     vdW  Elec       q    Type
                         _______ _______ _______ _____ _____    ______ ____

>  <TORSDO>
F 2

$$$$
=
 OpenBabel11122410583D

 31 35  0  0  1  0  0  0  0  0999 V2000
  179.6000  179.5350  141.3120 C   0  0  0  0  0  0  0  0  0  0  0  0
  182.9630  178.9510  139.6430 C   0  0  2  0  0  3  0  0  0  0  0  0
  184.0120  179.0160  140.7840 C   0  0  1  0  0  3  0  0  0  0  0  0
  184.7980  178.4240  143.0690 C   0  0  0  0  0  0  0  0  0  0  0  0
  181.5500  178.7240  140.1170 C   0  0  0  0  0  0  0  0  0  0  0  0
  178.9700  178.3030  141.1250 C   0  0  0  0  0  3  0  0  0  0  0  0
  183.6600  178.2870  142.0880 C   0  0  0  0  0  2  0  0  0  0  0  0
  183.0530  176.5550  138.9460 C   0  0  2  0  0  3  0  0  0  0  0  0
  178.9500  180.5520  141.9960 O   0  0  0  0  0  1  0  0  0  0  0  0
  185.6220  178.9670  139.0140 O   0  0  0  0  0  0  0  0  0  0  0  0
  184.5870  178.2560  144.2970 O   0  0  0  0  0  0  0  0  0  0  0  0
  181.5410  176.3830  139.1160 C   0  0  0  0  0  2  0  0  0  0  0  0
  183.3720  177.9910  138.5050 C   0  0  2  0  0  3  0  0  0  0  0  0
  180.8870  179.7440  140.8100 C   0  0  0  0  0  3  0  0  0  0  0  0
  186.1670  178.7380  142.5960 C   0  0  0  0  0  3  0  0  0  0  0  0
  180.9150  177.4750  139.9370 C   0  0  0  0  0  0  0  0  0  0  0  0
  179.6230  177.2800  140.4350 C   0  0  0  0  0  3  0  0  0  0  0  0
  184.8710  178.1610  138.1230 C   0  0  0  0  0  2  0  0  0  0  0  0
  185.3570  178.4820  140.2990 C   0  0  1  0  0  3  0  0  0  0  0  0
  186.4350  178.8100  141.2870 C   0  0  0  0  0  3  0  0  0  0  0  0
  183.5850  175.5070  137.9750 C   0  0  0  0  0  2  0  0  0  0  0  0
  182.6060  176.5510  136.0810 O   0  0  0  0  0  0  0  0  0  0  0  0
  182.7390  175.4870  136.7430 C   0  0  0  0  0  0  0  0  0  0  0  0
  180.2980  172.0770  136.2090 N   0  0  0  0  0  0  0  0  0  0  0  0
  180.6570  174.4700  135.8230 C   0  0  0  0  0  2  0  0  0  0  0  0
  183.7830  172.8780  137.0240 O   0  0  0  0  0  1  0  0  0  0  0  0
  179.3940  171.1350  136.8430 C   0  0  0  0  0  1  0  0  0  0  0  0
  179.7430  173.4110  136.4390 C   0  0  0  0  0  2  0  0  0  0  0  0
  182.5780  172.9600  136.3250 C   0  0  2  0  0  3  0  0  0  0  0  0
  182.0010  174.3110  136.3680 N   0  0  0  0  0  0  0  0  0  0  0  0
  181.5760  171.9690  136.9120 C   0  0  0  0  0  2  0  0  0  0  0  0
  1  9  1  0  0  0  0
  2  5  1  1  0  0  0
  2  3  1  0  0  0  0
  3  7  1  1  0  0  0
  4 11  2  0  0  0  0
  5 14  1  0  0  0  0
  6  1  1  0  0  0  0
  7  4  1  0  0  0  0
  8 21  1  6  0  0  0
  8 12  1  0  0  0  0
 10 19  1  0  0  0  0
 12 16  1  0  0  0  0
 13 18  1  1  0  0  0
 13  8  1  0  0  0  0
 13  2  1  0  0  0  0
 14  1  2  0  0  0  0
 15  4  1  0  0  0  0
 16  5  2  0  0  0  0
 16 17  1  0  0  0  0
 17  6  2  0  0  0  0
 18 10  1  0  0  0  0
 19  3  1  0  0  0  0
 19 20  1  1  0  0  0
 20 15  2  0  0  0  0
 22 23  2  0  0  0  0
 23 21  1  0  0  0  0
 24 28  1  0  0  0  0
 24 27  1  0  0  0  0
 24 31  1  0  0  0  0
 25 30  1  0  0  0  0
 25 28  1  0  0  0  0
 29 30  1  0  0  0  0
 29 31  1  0  0  0  0
 29 26  1  1  0  0  0
 30 23  1  0  0  0  0
M  END
>  <MODEL>
8

>  <REMARK>
 VINA RESULT:      -6.0      5.804     10.189
  Name = 
  2 active torsions:
  status: ('A' for Active; 'I' for Inactive)
    1  A    between atoms: C_5  and  C_16
    2  A    between atoms: C_10  and  C_16
                            x       y       z     vdW  Elec       q    Type
                         _______ _______ _______ _____ _____    ______ ____

>  <TORSDO>
F 2

$$$$
=
 OpenBabel11122410583D

 31 35  0  0  1  0  0  0  0  0999 V2000
  191.1600  177.2940  141.6730 C   0  0  0  0  0  0  0  0  0  0  0  0
  189.5880  178.1420  138.3190 C   0  0  2  0  0  3  0  0  0  0  0  0
  189.9590  176.9680  137.3760 C   0  0  1  0  0  3  0  0  0  0  0  0
  190.1970  174.5390  136.8950 C   0  0  0  0  0  0  0  0  0  0  0  0
  189.7290  177.8220  139.7860 C   0  0  0  0  0  0  0  0  0  0  0  0
  190.0340  177.1030  142.4770 C   0  0  0  0  0  3  0  0  0  0  0  0
  189.8320  175.5520  137.9520 C   0  0  0  0  0  2  0  0  0  0  0  0
  187.1150  177.8940  138.5620 C   0  0  2  0  0  3  0  0  0  0  0  0
  192.4310  177.1280  142.2050 O   0  0  0  0  0  1  0  0  0  0  0  0
  189.0460  178.3520  135.6500 O   0  0  0  0  0  0  0  0  0  0  0  0
  190.5390  173.3780  137.2360 O   0  0  0  0  0  0  0  0  0  0  0  0
  187.2020  177.8880  140.0900 C   0  0  0  0  0  2  0  0  0  0  0  0
  188.2240  178.7800  137.9770 C   0  0  2  0  0  3  0  0  0  0  0  0
  191.0070  177.6510  140.3310 C   0  0  0  0  0  3  0  0  0  0  0  0
  190.1420  174.8960  135.4580 C   0  0  0  0  0  3  0  0  0  0  0  0
  188.5910  177.6200  140.5980 C   0  0  0  0  0  0  0  0  0  0  0  0
  188.7550  177.2730  141.9430 C   0  0  0  0  0  3  0  0  0  0  0  0
  188.0570  178.9830  136.4420 C   0  0  0  0  0  2  0  0  0  0  0  0
  189.1250  177.0300  136.0990 C   0  0  1  0  0  3  0  0  0  0  0  0
  189.6760  176.0900  135.0710 C   0  0  0  0  0  3  0  0  0  0  0  0
  185.7210  178.3290  138.1270 C   0  0  0  0  0  2  0  0  0  0  0  0
  185.5690  176.3430  136.8360 O   0  0  0  0  0  0  0  0  0  0  0  0
  184.9700  177.1530  137.5930 C   0  0  0  0  0  0  0  0  0  0  0  0
  180.7690  177.2490  138.0610 N   0  0  0  0  0  0  0  0  0  0  0  0
  182.7100  176.4890  136.7740 C   0  0  0  0  0  2  0  0  0  0  0  0
  183.7850  177.7820  140.0780 O   0  0  0  0  0  1  0  0  0  0  0  0
  179.5670  178.0580  137.9640 C   0  0  0  0  0  1  0  0  0  0  0  0
  181.4140  177.2970  136.7490 C   0  0  0  0  0  2  0  0  0  0  0  0
  182.9460  177.1310  139.1730 C   0  0  2  0  0  3  0  0  0  0  0  0
  183.5630  176.9920  137.8450 N   0  0  0  0  0  0  0  0  0  0  0  0
  181.6370  177.9040  139.0380 C   0  0  0  0  0  2  0  0  0  0  0  0
  1  9  1  0  0  0  0
  1  6  1  0  0  0  0
  2  5  1  1  0  0  0
  3  7  1  1  0  0  0
  3  2  1  0  0  0  0
  4 11  2  0  0  0  0
  4  7  1  0  0  0  0
  5 14  1  0  0  0  0
  5 16  2  0  0  0  0
  8 21  1  1  0  0  0
  8 12  1  0  0  0  0
 10 19  1  0  0  0  0
 10 18  1  0  0  0  0
 12 16  1  0  0  0  0
 13 18  1  6  0  0  0
 13  2  1  0  0  0  0
 13  8  1  0  0  0  0
 14  1  2  0  0  0  0
 15  4  1  0  0  0  0
 16 17  1  0  0  0  0
 17  6  2  0  0  0  0
 19 20  1  6  0  0  0
 19  3  1  0  0  0  0
 20 15  2  0  0  0  0
 22 23  2  0  0  0  0
 23 30  1  0  0  0  0
 23 21  1  0  0  0  0
 24 31  1  0  0  0  0
 25 30  1  0  0  0  0
 27 24  1  0  0  0  0
 28 25  1  0  0  0  0
 28 24  1  0  0  0  0
 29 26  1  1  0  0  0
 30 29  1  0  0  0  0
 31 29  1  0  0  0  0
M  END
>  <MODEL>
9

>  <REMARK>
 VINA RESULT:      -5.9      3.278      6.219
  Name = 
  2 active torsions:
  status: ('A' for Active; 'I' for Inactive)
    1  A    between atoms: C_5  and  C_16
    2  A    between atoms: C_10  and  C_16
                            x       y       z     vdW  Elec       q    Type
                         _______ _______ _______ _____ _____    ______ ____

>  <TORSDO>
F 2

$$$$
