=
 OpenBabel11122410333D

 30 35  0  0  1  0  0  0  0  0999 V2000
  189.4410  176.3990  143.7090 C   0  0  0  0  0  0  0  0  0  0  0  0
  191.4770  175.8180  144.9360 C   0  0  0  0  0  0  0  0  0  0  0  0
  187.8480  178.2620  147.1470 N   0  0  0  0  0  0  0  0  0  0  0  0
  187.9870  176.8970  143.6550 C   0  0  0  0  0  0  0  0  0  0  0  0
  190.0610  176.0910  142.3750 C   0  0  0  0  0  2  0  0  0  0  0  0
  188.7730  179.1760  140.9170 O   0  0  0  0  0  0  0  0  0  0  0  0
  185.2310  177.9060  143.0970 C   0  0  1  0  0  3  0  0  0  0  0  0
  188.8190  178.0830  141.5460 C   0  0  0  0  0  0  0  0  0  0  0  0
  185.3430  178.3860  144.4640 N   0  0  0  0  0  0  0  0  0  0  0  0
  186.6980  178.6390  146.6810 C   0  0  2  0  0  3  0  0  0  0  0  0
  190.0200  177.2990  141.5590 N   0  0  0  0  0  0  0  0  0  0  0  0
  187.6150  177.5610  142.2960 C   0  0  2  0  0  3  0  0  0  0  0  0
  192.1720  175.8270  146.1050 N   0  0  0  0  0  0  0  0  0  0  0  0
  184.1230  178.9980  144.9500 C   0  0  0  0  0  2  0  0  0  0  0  0
  183.8650  178.3830  142.6200 C   0  0  0  0  0  2  0  0  0  0  0  0
  192.0470  175.2020  143.8700 F   0  0  0  0  0  0  0  0  0  0  0  0
  188.4950  177.6310  146.0460 C   0  0  0  0  0  0  0  0  0  0  0  0
  191.6830  176.3860  147.2380 C   0  0  0  0  0  3  0  0  0  0  0  0
  190.1790  176.3930  144.8680 C   0  0  0  0  0  0  0  0  0  0  0  0
  187.6620  177.6900  144.8800 C   0  0  0  0  0  0  0  0  0  0  0  0
  185.6950  179.3410  147.5270 C   0  0  0  0  0  1  0  0  0  0  0  0
  186.5320  178.2650  145.2620 C   0  0  0  0  0  0  0  0  0  0  0  0
  183.0910  178.7850  143.8630 C   0  0  0  0  0  2  0  0  0  0  0  0
  185.9720  178.6000  140.9080 O   0  0  0  0  0  1  0  0  0  0  0  0
  190.4300  176.9850  147.2330 C   0  0  0  0  0  3  0  0  0  0  0  0
  189.6740  177.0010  146.0590 C   0  0  0  0  0  0  0  0  0  0  0  0
  186.3740  178.4690  142.2410 C   0  0  1  0  0  3  0  0  0  0  0  0
  191.2170  177.7340  140.8470 C   0  0  0  0  0  2  0  0  0  0  0  0
  190.4790  177.1760  138.5260 C   0  0  0  0  0  1  0  0  0  0  0  0
  191.4680  176.8550  139.6300 C   0  0  0  0  0  2  0  0  0  0  0  0
  1 19  1  0  0  0  0
  2 13  1  0  0  0  0
  4  1  2  0  0  0  0
  4 20  1  0  0  0  0
  5  1  1  0  0  0  0
  6  8  2  0  0  0  0
  7 15  1  6  0  0  0
  7  9  1  0  0  0  0
  8 11  1  0  0  0  0
  9 14  1  0  0  0  0
  9 22  1  0  0  0  0
 10  3  1  0  0  0  0
 10 21  1  1  0  0  0
 11  5  1  0  0  0  0
 12  8  1  1  0  0  0
 12  4  1  0  0  0  0
 13 18  2  0  0  0  0
 15 23  1  0  0  0  0
 16  2  1  0  0  0  0
 17 26  1  0  0  0  0
 17  3  2  0  0  0  0
 19  2  2  0  0  0  0
 19 26  1  0  0  0  0
 20 22  2  0  0  0  0
 20 17  1  0  0  0  0
 22 10  1  0  0  0  0
 23 14  1  0  0  0  0
 25 18  1  0  0  0  0
 26 25  2  0  0  0  0
 27 24  1  6  0  0  0
 27 12  1  0  0  0  0
 27  7  1  0  0  0  0
 28 11  1  0  0  0  0
 29 30  1  0  0  0  0
 30 28  1  0  0  0  0
M  END
>  <MODEL>
1

>  <REMARK>
 VINA RESULT:     -10.2      0.000      0.000
  Name = 
  2 active torsions:
  status: ('A' for Active; 'I' for Inactive)
    1  A    between atoms: N_11  and  C_28
    2  A    between atoms: C_28  and  C_30
                            x       y       z     vdW  Elec       q    Type
                         _______ _______ _______ _____ _____    ______ ____

>  <TORSDO>
F 2

$$$$
=
 OpenBabel11122410333D

 30 35  0  0  1  0  0  0  0  0999 V2000
  187.6740  177.1440  144.0020 C   0  0  0  0  0  0  0  0  0  0  0  0
  186.3570  177.5860  146.0160 C   0  0  0  0  0  0  0  0  0  0  0  0
  184.8750  179.2620  141.6540 N   0  0  0  0  0  0  0  0  0  0  0  0
  187.8480  177.1240  142.4740 C   0  0  0  0  0  0  0  0  0  0  0  0
  188.8760  176.7010  144.7880 C   0  0  0  0  0  2  0  0  0  0  0  0
  191.1230  178.7110  142.7350 O   0  0  0  0  0  0  0  0  0  0  0  0
  188.6340  177.0240  139.5940 C   0  0  1  0  0  3  0  0  0  0  0  0
  190.2140  177.9000  143.0640 C   0  0  0  0  0  0  0  0  0  0  0  0
  187.4570  177.8640  139.4470 N   0  0  0  0  0  0  0  0  0  0  0  0
  185.4150  179.1170  140.4840 C   0  0  0  0  0  0  0  0  0  0  0  0
  189.9970  177.5690  144.4430 N   0  0  0  0  0  0  0  0  0  0  0  0
  189.3350  177.2460  142.0230 C   0  0  2  0  0  3  0  0  0  0  0  0
  185.2460  178.1280  146.5830 N   0  0  0  0  0  0  0  0  0  0  0  0
  187.1460  178.1670  138.0650 C   0  0  0  0  0  2  0  0  0  0  0  0
  189.2100  176.9000  138.1880 C   0  0  0  0  0  2  0  0  0  0  0  0
  187.2160  176.9190  146.8280 F   0  0  0  0  0  0  0  0  0  0  0  0
  185.7630  178.5950  142.5460 C   0  0  2  0  0  3  0  0  0  0  0  0
  184.3080  178.7870  145.8600 C   0  0  0  0  0  3  0  0  0  0  0  0
  186.5690  177.6830  144.6140 C   0  0  0  0  0  0  0  0  0  0  0  0
  186.8900  178.0730  141.8280 C   0  0  0  0  0  0  0  0  0  0  0  0
  184.7870  179.6660  139.2520 C   0  0  0  0  0  1  0  0  0  0  0  0
  186.6700  178.3430  140.5500 C   0  0  0  0  0  0  0  0  0  0  0  0
  188.1200  177.3560  137.2340 C   0  0  0  0  0  2  0  0  0  0  0  0
  190.9380  177.3020  140.2540 O   0  0  0  0  0  1  0  0  0  0  0  0
  184.4650  178.9360  144.4880 C   0  0  0  0  0  3  0  0  0  0  0  0
  185.5890  178.3970  143.8560 C   0  0  0  0  0  0  0  0  0  0  0  0
  189.6260  177.6680  140.5720 C   0  0  1  0  0  3  0  0  0  0  0  0
  190.8150  178.1500  145.5000 C   0  0  0  0  0  2  0  0  0  0  0  0
  191.9020  176.2490  146.7040 C   0  0  0  0  0  1  0  0  0  0  0  0
  190.7860  177.2760  146.7460 C   0  0  0  0  0  2  0  0  0  0  0  0
  1 19  1  0  0  0  0
  1  5  1  0  0  0  0
  2 13  1  0  0  0  0
  2 16  1  0  0  0  0
  4  1  2  0  0  0  0
  6  8  2  0  0  0  0
  7 15  1  6  0  0  0
  7 27  1  0  0  0  0
  8 11  1  0  0  0  0
  9  7  1  0  0  0  0
  9 22  1  0  0  0  0
 10 22  1  0  0  0  0
 10  3  2  0  0  0  0
 11  5  1  0  0  0  0
 11 28  1  0  0  0  0
 12  4  1  1  0  0  0
 12  8  1  0  0  0  0
 14  9  1  0  0  0  0
 17  3  1  6  0  0  0
 17 26  1  0  0  0  0
 18 13  2  0  0  0  0
 19  2  2  0  0  0  0
 20  4  1  0  0  0  0
 20 17  1  0  0  0  0
 21 10  1  0  0  0  0
 22 20  2  0  0  0  0
 23 14  1  0  0  0  0
 23 15  1  0  0  0  0
 25 18  1  0  0  0  0
 26 25  2  0  0  0  0
 26 19  1  0  0  0  0
 27 24  1  6  0  0  0
 27 12  1  0  0  0  0
 28 30  1  0  0  0  0
 29 30  1  0  0  0  0
M  END
>  <MODEL>
2

>  <REMARK>
 VINA RESULT:      -9.1      2.231      5.549
  Name = 
  2 active torsions:
  status: ('A' for Active; 'I' for Inactive)
    1  A    between atoms: N_11  and  C_28
    2  A    between atoms: C_28  and  C_30
                            x       y       z     vdW  Elec       q    Type
                         _______ _______ _______ _____ _____    ______ ____

>  <TORSDO>
F 2

$$$$
=
 OpenBabel11122410333D

 30 35  0  0  1  0  0  0  0  0999 V2000
  185.1030  179.0700  142.9950 C   0  0  0  0  0  0  0  0  0  0  0  0
  184.3140  178.9770  145.3090 C   0  0  0  0  0  0  0  0  0  0  0  0
  188.4360  176.6750  143.9910 N   0  0  0  0  0  0  0  0  0  0  0  0
  186.1820  178.8470  141.9220 C   0  0  0  0  0  0  0  0  0  0  0  0
  183.7940  179.6040  142.4850 C   0  0  0  0  0  2  0  0  0  0  0  0
  183.7690  177.2480  139.7010 O   0  0  0  0  0  0  0  0  0  0  0  0
  187.9370  178.4790  139.5330 C   0  0  1  0  0  3  0  0  0  0  0  0
  184.1680  178.1210  140.5200 C   0  0  0  0  0  0  0  0  0  0  0  0
  188.6920  177.6540  140.4600 N   0  0  0  0  0  0  0  0  0  0  0  0
  189.0230  176.6230  142.8360 C   0  0  0  0  0  0  0  0  0  0  0  0
  183.2700  178.6670  141.4970 N   0  0  0  0  0  0  0  0  0  0  0  0
  185.5930  178.6230  140.4970 C   0  0  2  0  0  3  0  0  0  0  0  0
  184.5070  178.5560  146.5880 N   0  0  0  0  0  0  0  0  0  0  0  0
  189.9240  177.1450  139.8910 C   0  0  0  0  0  2  0  0  0  0  0  0
  188.6820  178.3700  138.2070 C   0  0  0  0  0  2  0  0  0  0  0  0
  183.2220  179.7430  145.0580 F   0  0  0  0  0  0  0  0  0  0  0  0
  187.2640  177.4530  143.7650 C   0  0  2  0  0  3  0  0  0  0  0  0
  185.5800  177.8120  146.9540 C   0  0  0  0  0  3  0  0  0  0  0  0
  185.2590  178.6580  144.2960 C   0  0  0  0  0  0  0  0  0  0  0  0
  187.1760  177.8310  142.3850 C   0  0  0  0  0  0  0  0  0  0  0  0
  190.3090  175.9020  142.6360 C   0  0  0  0  0  1  0  0  0  0  0  0
  188.2740  177.3700  141.8050 C   0  0  0  0  0  0  0  0  0  0  0  0
  190.0500  177.7950  138.5290 C   0  0  0  0  0  2  0  0  0  0  0  0
  185.9610  178.2570  138.1660 O   0  0  0  0  0  1  0  0  0  0  0  0
  186.5290  177.4480  146.0090 C   0  0  0  0  0  3  0  0  0  0  0  0
  186.3780  177.8570  144.6810 C   0  0  0  0  0  0  0  0  0  0  0  0
  186.4920  177.9740  139.4280 C   0  0  1  0  0  3  0  0  0  0  0  0
  181.8780  178.2410  141.5700 C   0  0  0  0  0  2  0  0  0  0  0  0
  180.4370  178.5020  143.5940 C   0  0  0  0  0  1  0  0  0  0  0  0
  181.0590  179.2130  142.4070 C   0  0  0  0  0  2  0  0  0  0  0  0
  1 19  1  0  0  0  0
  2 13  1  0  0  0  0
  4 20  1  0  0  0  0
  4  1  2  0  0  0  0
  5  1  1  0  0  0  0
  6  8  2  0  0  0  0
  7 15  1  6  0  0  0
  7  9  1  0  0  0  0
  8 11  1  0  0  0  0
  9 22  1  0  0  0  0
 10  3  2  0  0  0  0
 11 28  1  0  0  0  0
 11  5  1  0  0  0  0
 12  8  1  1  0  0  0
 12  4  1  0  0  0  0
 13 18  2  0  0  0  0
 14  9  1  0  0  0  0
 15 23  1  0  0  0  0
 16  2  1  0  0  0  0
 17 20  1  1  0  0  0
 17  3  1  0  0  0  0
 17 26  1  0  0  0  0
 19 26  1  0  0  0  0
 19  2  2  0  0  0  0
 21 10  1  0  0  0  0
 22 20  2  0  0  0  0
 22 10  1  0  0  0  0
 23 14  1  0  0  0  0
 25 18  1  0  0  0  0
 26 25  2  0  0  0  0
 27 24  1  6  0  0  0
 27  7  1  0  0  0  0
 27 12  1  0  0  0  0
 28 30  1  0  0  0  0
 30 29  1  0  0  0  0
M  END
>  <MODEL>
3

>  <REMARK>
 VINA RESULT:      -8.9      2.894      6.409
  Name = 
  2 active torsions:
  status: ('A' for Active; 'I' for Inactive)
    1  A    between atoms: N_11  and  C_28
    2  A    between atoms: C_28  and  C_30
                            x       y       z     vdW  Elec       q    Type
                         _______ _______ _______ _____ _____    ______ ____

>  <TORSDO>
F 2

$$$$
=
 OpenBabel11122410333D

 30 35  0  0  1  0  0  0  0  0999 V2000
  187.8720  177.2140  143.9920 C   0  0  0  0  0  0  0  0  0  0  0  0
  188.9560  177.1100  146.1840 C   0  0  0  0  0  0  0  0  0  0  0  0
  184.4660  179.0210  145.7130 N   0  0  0  0  0  0  0  0  0  0  0  0
  186.6400  177.4330  143.0990 C   0  0  0  0  0  0  0  0  0  0  0  0
  189.1500  176.9200  143.2580 C   0  0  0  0  0  2  0  0  0  0  0  0
  188.5380  179.5950  140.8550 O   0  0  0  0  0  0  0  0  0  0  0  0
  184.5450  177.8780  141.0160 C   0  0  1  0  0  3  0  0  0  0  0  0
  188.3520  178.5820  141.5830 C   0  0  0  0  0  0  0  0  0  0  0  0
  183.8390  178.4760  142.1360 N   0  0  0  0  0  0  0  0  0  0  0  0
  183.7250  179.1450  144.6570 C   0  0  0  0  0  0  0  0  0  0  0  0
  189.4290  178.0330  142.3570 N   0  0  0  0  0  0  0  0  0  0  0  0
  187.0000  177.9100  141.6600 C   0  0  2  0  0  3  0  0  0  0  0  0
  188.8940  177.3380  147.5230 N   0  0  0  0  0  0  0  0  0  0  0  0
  182.4930  178.8920  141.7980 C   0  0  0  0  0  2  0  0  0  0  0  0
  183.6190  178.0600  139.8200 C   0  0  0  0  0  2  0  0  0  0  0  0
  190.0800  176.5270  145.6960 F   0  0  0  0  0  0  0  0  0  0  0  0
  185.6750  178.4330  145.2400 C   0  0  2  0  0  3  0  0  0  0  0  0
  187.8070  177.8860  148.1180 C   0  0  0  0  0  3  0  0  0  0  0  0
  187.8530  177.4340  145.3480 C   0  0  0  0  0  0  0  0  0  0  0  0
  185.6140  178.2480  143.8190 C   0  0  0  0  0  0  0  0  0  0  0  0
  182.3520  179.7170  144.7180 C   0  0  0  0  0  1  0  0  0  0  0  0
  184.4030  178.6370  143.4480 C   0  0  0  0  0  0  0  0  0  0  0  0
  182.2530  178.4110  140.3820 C   0  0  0  0  0  2  0  0  0  0  0  0
  186.2800  178.5210  139.4670 O   0  0  0  0  0  1  0  0  0  0  0  0
  186.7040  178.2450  147.3560 C   0  0  0  0  0  3  0  0  0  0  0  0
  186.7150  178.0310  145.9750 C   0  0  0  0  0  0  0  0  0  0  0  0
  185.8990  178.5710  140.8120 C   0  0  1  0  0  3  0  0  0  0  0  0
  190.7630  178.6200  142.3220 C   0  0  0  0  0  2  0  0  0  0  0  0
  191.3090  179.7530  144.4810 C   0  0  0  0  0  1  0  0  0  0  0  0
  191.4500  178.4770  143.6720 C   0  0  0  0  0  2  0  0  0  0  0  0
  1 19  1  0  0  0  0
  2 13  1  0  0  0  0
  4 20  1  0  0  0  0
  4  1  2  0  0  0  0
  5  1  1  0  0  0  0
  6  8  2  0  0  0  0
  7 15  1  6  0  0  0
  7  9  1  0  0  0  0
  8 11  1  0  0  0  0
  9 22  1  0  0  0  0
 10 21  1  0  0  0  0
 10  3  2  0  0  0  0
 11  5  1  0  0  0  0
 12  8  1  1  0  0  0
 12  4  1  0  0  0  0
 13 18  2  0  0  0  0
 14  9  1  0  0  0  0
 15 23  1  0  0  0  0
 16  2  1  0  0  0  0
 17 20  1  1  0  0  0
 17  3  1  0  0  0  0
 17 26  1  0  0  0  0
 19 26  1  0  0  0  0
 19  2  2  0  0  0  0
 22 20  2  0  0  0  0
 22 10  1  0  0  0  0
 23 14  1  0  0  0  0
 25 18  1  0  0  0  0
 26 25  2  0  0  0  0
 27 24  1  6  0  0  0
 27  7  1  0  0  0  0
 27 12  1  0  0  0  0
 28 11  1  0  0  0  0
 28 30  1  0  0  0  0
 30 29  1  0  0  0  0
M  END
>  <MODEL>
4

>  <REMARK>
 VINA RESULT:      -8.8      1.835      3.052
  Name = 
  2 active torsions:
  status: ('A' for Active; 'I' for Inactive)
    1  A    between atoms: N_11  and  C_28
    2  A    between atoms: C_28  and  C_30
                            x       y       z     vdW  Elec       q    Type
                         _______ _______ _______ _____ _____    ______ ____

>  <TORSDO>
F 2

$$$$
=
 OpenBabel11122410333D

 30 35  0  0  1  0  0  0  0  0999 V2000
  187.9260  177.0850  143.4480 C   0  0  0  0  0  0  0  0  0  0  0  0
  185.9230  177.6920  144.7160 C   0  0  0  0  0  0  0  0  0  0  0  0
  186.3110  178.8540  139.9700 N   0  0  0  0  0  0  0  0  0  0  0  0
  188.6910  176.9120  142.1250 C   0  0  0  0  0  0  0  0  0  0  0  0
  188.7110  176.7650  144.6880 C   0  0  0  0  0  2  0  0  0  0  0  0
  191.6110  178.6230  143.4860 O   0  0  0  0  0  0  0  0  0  0  0  0
  190.5530  176.5380  139.8190 C   0  0  1  0  0  3  0  0  0  0  0  0
  190.6380  177.8210  143.5140 C   0  0  0  0  0  0  0  0  0  0  0  0
  189.5400  177.3190  139.1290 N   0  0  0  0  0  0  0  0  0  0  0  0
  187.2690  178.6060  139.1310 C   0  0  0  0  0  0  0  0  0  0  0  0
  189.8870  177.6290  144.7220 N   0  0  0  0  0  0  0  0  0  0  0  0
  190.2350  177.0350  142.2880 C   0  0  2  0  0  3  0  0  0  0  0  0
  184.6840  178.2530  144.7350 N   0  0  0  0  0  0  0  0  0  0  0  0
  189.8070  177.4660  137.7130 C   0  0  0  0  0  2  0  0  0  0  0  0
  191.6370  176.2870  138.7790 C   0  0  0  0  0  2  0  0  0  0  0  0
  186.3810  177.1410  145.8680 F   0  0  0  0  0  0  0  0  0  0  0  0
  186.7650  178.3140  141.2070 C   0  0  2  0  0  3  0  0  0  0  0  0
  184.1180  178.8020  143.6330 C   0  0  0  0  0  3  0  0  0  0  0  0
  186.6740  177.6480  143.5100 C   0  0  0  0  0  0  0  0  0  0  0  0
  188.0780  177.7560  141.0540 C   0  0  0  0  0  0  0  0  0  0  0  0
  187.1870  179.0040  137.7000 C   0  0  0  0  0  1  0  0  0  0  0  0
  188.3860  177.8850  139.7720 C   0  0  0  0  0  0  0  0  0  0  0  0
  191.0200  176.6050  137.4280 C   0  0  0  0  0  2  0  0  0  0  0  0
  192.4090  176.9570  141.3020 O   0  0  0  0  0  1  0  0  0  0  0  0
  184.8080  178.8120  142.4280 C   0  0  0  0  0  3  0  0  0  0  0  0
  186.0830  178.2470  142.3540 C   0  0  0  0  0  0  0  0  0  0  0  0
  191.0830  177.3120  141.0340 C   0  0  1  0  0  3  0  0  0  0  0  0
  190.2260  178.3430  145.9470 C   0  0  0  0  0  2  0  0  0  0  0  0
  188.9470  178.2520  148.0910 C   0  0  0  0  0  1  0  0  0  0  0  0
  189.8920  177.5030  147.1710 C   0  0  0  0  0  2  0  0  0  0  0  0
  1 19  1  0  0  0  0
  1  5  1  0  0  0  0
  2 13  1  0  0  0  0
  2 16  1  0  0  0  0
  4  1  2  0  0  0  0
  5 11  1  0  0  0  0
  6  8  2  0  0  0  0
  7 15  1  6  0  0  0
  7 27  1  0  0  0  0
  8 11  1  0  0  0  0
  9 22  1  0  0  0  0
  9  7  1  0  0  0  0
 10 22  1  0  0  0  0
 10  3  2  0  0  0  0
 11 28  1  0  0  0  0
 12  4  1  6  0  0  0
 12  8  1  0  0  0  0
 14  9  1  0  0  0  0
 17  3  1  6  0  0  0
 17 26  1  0  0  0  0
 18 13  2  0  0  0  0
 19  2  2  0  0  0  0
 20 17  1  0  0  0  0
 20  4  1  0  0  0  0
 21 10  1  0  0  0  0
 22 20  2  0  0  0  0
 23 14  1  0  0  0  0
 23 15  1  0  0  0  0
 25 18  1  0  0  0  0
 26 25  2  0  0  0  0
 26 19  1  0  0  0  0
 27 24  1  1  0  0  0
 27 12  1  0  0  0  0
 28 30  1  0  0  0  0
 30 29  1  0  0  0  0
M  END
>  <MODEL>
5

>  <REMARK>
 VINA RESULT:      -8.8      2.388      6.506
  Name = 
  2 active torsions:
  status: ('A' for Active; 'I' for Inactive)
    1  A    between atoms: N_11  and  C_28
    2  A    between atoms: C_28  and  C_30
                            x       y       z     vdW  Elec       q    Type
                         _______ _______ _______ _____ _____    ______ ____

>  <TORSDO>
F 2

$$$$
=
 OpenBabel11122410333D

 30 35  0  0  1  0  0  0  0  0999 V2000
  188.2120  178.4710  140.7780 C   0  0  0  0  0  0  0  0  0  0  0  0
  189.4150  178.1930  138.6650 C   0  0  0  0  0  0  0  0  0  0  0  0
  184.5140  178.2020  138.7570 N   0  0  0  0  0  0  0  0  0  0  0  0
  186.9280  178.7350  141.5800 C   0  0  2  0  0  3  0  0  0  0  0  0
  189.4420  178.2180  141.6030 C   0  0  0  0  0  2  0  0  0  0  0  0
  187.6450  175.9440  143.8180 O   0  0  0  0  0  0  0  0  0  0  0  0
  184.6720  179.1030  143.5050 C   0  0  1  0  0  3  0  0  0  0  0  0
  187.9290  176.9660  143.1350 C   0  0  0  0  0  0  0  0  0  0  0  0
  183.8760  178.8620  142.3140 N   0  0  0  0  0  0  0  0  0  0  0  0
  183.7040  178.3550  139.7590 C   0  0  0  0  0  0  0  0  0  0  0  0
  189.1910  177.0630  142.4590 N   0  0  0  0  0  0  0  0  0  0  0  0
  186.9600  178.1190  143.0110 C   0  0  2  0  0  3  0  0  0  0  0  0
  189.3730  178.0420  137.3140 N   0  0  0  0  0  0  0  0  0  0  0  0
  182.4530  179.0030  142.5460 C   0  0  0  0  0  2  0  0  0  0  0  0
  183.6600  179.2720  144.6310 C   0  0  0  0  0  2  0  0  0  0  0  0
  190.6360  178.2720  139.2510 F   0  0  0  0  0  0  0  0  0  0  0  0
  185.8150  178.2520  139.3340 C   0  0  0  0  0  0  0  0  0  0  0  0
  188.2070  177.9830  136.6250 C   0  0  0  0  0  3  0  0  0  0  0  0
  188.2120  178.3120  139.4130 C   0  0  0  0  0  0  0  0  0  0  0  0
  185.7230  178.4110  140.7570 C   0  0  0  0  0  0  0  0  0  0  0  0
  182.2260  178.3740  139.5830 C   0  0  0  0  0  1  0  0  0  0  0  0
  184.4320  178.5230  141.0320 C   0  0  0  0  0  0  0  0  0  0  0  0
  182.3130  179.5040  143.9680 C   0  0  0  0  0  2  0  0  0  0  0  0
  185.8900  177.7890  145.1210 O   0  0  0  0  0  1  0  0  0  0  0  0
  186.9960  178.0710  137.2980 C   0  0  0  0  0  3  0  0  0  0  0  0
  186.9840  178.2280  138.6860 C   0  0  0  0  0  0  0  0  0  0  0  0
  185.6260  177.9270  143.7540 C   0  0  1  0  0  3  0  0  0  0  0  0
  190.1800  175.9960  142.5440 C   0  0  0  0  0  2  0  0  0  0  0  0
  191.2090  176.7530  144.6910 C   0  0  0  0  0  1  0  0  0  0  0  0
  191.4520  176.4920  143.2170 C   0  0  0  0  0  2  0  0  0  0  0  0
  1  4  1  0  0  0  0
  1  5  1  0  0  0  0
  2 16  1  0  0  0  0
  2 19  1  0  0  0  0
  3 17  1  0  0  0  0
  3 10  2  0  0  0  0
  4 20  1  6  0  0  0
  4 12  1  0  0  0  0
  5 11  1  0  0  0  0
  7 27  1  0  0  0  0
  7 15  1  1  0  0  0
  8  6  2  0  0  0  0
  9 14  1  0  0  0  0
  9  7  1  0  0  0  0
 10 22  1  0  0  0  0
 11 28  1  0  0  0  0
 11  8  1  0  0  0  0
 12  8  1  6  0  0  0
 12 27  1  0  0  0  0
 13  2  2  0  0  0  0
 14 23  1  0  0  0  0
 17 20  1  0  0  0  0
 18 25  2  0  0  0  0
 18 13  1  0  0  0  0
 19  1  2  0  0  0  0
 20 22  2  0  0  0  0
 21 10  1  0  0  0  0
 22  9  1  0  0  0  0
 23 15  1  0  0  0  0
 25 26  1  0  0  0  0
 26 17  2  0  0  0  0
 26 19  1  0  0  0  0
 27 24  1  1  0  0  0
 28 30  1  0  0  0  0
 30 29  1  0  0  0  0
M  END
>  <MODEL>
6

>  <REMARK>
 VINA RESULT:      -8.3      2.714      5.722
  Name = 
  2 active torsions:
  status: ('A' for Active; 'I' for Inactive)
    1  A    between atoms: N_11  and  C_28
    2  A    between atoms: C_28  and  C_30
                            x       y       z     vdW  Elec       q    Type
                         _______ _______ _______ _____ _____    ______ ____

>  <TORSDO>
F 2

$$$$
=
 OpenBabel11122410333D

 30 35  0  0  1  0  0  0  0  0999 V2000
  183.9770  178.9760  141.4760 C   0  0  0  0  0  0  0  0  0  0  0  0
  183.1680  179.0650  143.7830 C   0  0  0  0  0  0  0  0  0  0  0  0
  187.8270  177.8810  142.8220 N   0  0  0  0  0  0  0  0  0  0  0  0
  185.1100  178.8940  140.4400 C   0  0  0  0  0  0  0  0  0  0  0  0
  182.5880  179.0030  140.9030 C   0  0  0  0  0  2  0  0  0  0  0  0
  183.3500  176.2910  138.5860 O   0  0  0  0  0  0  0  0  0  0  0  0
  186.9800  178.6420  138.1230 C   0  0  1  0  0  3  0  0  0  0  0  0
  183.4480  177.3720  139.2280 C   0  0  0  0  0  0  0  0  0  0  0  0
  187.9100  178.2520  139.1690 N   0  0  0  0  0  0  0  0  0  0  0  0
  188.4440  177.8010  141.6850 C   0  0  0  0  0  0  0  0  0  0  0  0
  182.3950  177.7950  140.1080 N   0  0  0  0  0  0  0  0  0  0  0  0
  184.6640  178.2590  139.0890 C   0  0  2  0  0  3  0  0  0  0  0  0
  183.4300  178.9520  145.1130 N   0  0  0  0  0  0  0  0  0  0  0  0
  189.2560  178.0360  138.6780 C   0  0  0  0  0  2  0  0  0  0  0  0
  187.7700  178.5240  136.8260 C   0  0  0  0  0  2  0  0  0  0  0  0
  181.9100  179.4200  143.4190 F   0  0  0  0  0  0  0  0  0  0  0  0
  186.4870  178.2270  142.4830 C   0  0  2  0  0  3  0  0  0  0  0  0
  184.6600  178.6340  145.5860 C   0  0  0  0  0  3  0  0  0  0  0  0
  184.2000  178.8650  142.8270 C   0  0  0  0  0  0  0  0  0  0  0  0
  186.3410  178.3130  141.0590 C   0  0  0  0  0  0  0  0  0  0  0  0
  189.8910  177.4660  141.5930 C   0  0  0  0  0  1  0  0  0  0  0  0
  187.5460  178.1000  140.5510 C   0  0  0  0  0  0  0  0  0  0  0  0
  189.2350  178.4430  137.2190 C   0  0  0  0  0  2  0  0  0  0  0  0
  185.2050  177.6120  136.8550 O   0  0  0  0  0  1  0  0  0  0  0  0
  185.7070  178.4030  144.7040 C   0  0  0  0  0  3  0  0  0  0  0  0
  185.4900  178.5090  143.3280 C   0  0  0  0  0  0  0  0  0  0  0  0
  185.7500  177.7250  138.1380 C   0  0  1  0  0  3  0  0  0  0  0  0
  181.1870  176.9980  140.2820 C   0  0  0  0  0  2  0  0  0  0  0  0
  178.9580  178.1160  140.4300 C   0  0  0  0  0  1  0  0  0  0  0  0
  180.2010  177.7070  141.1980 C   0  0  0  0  0  2  0  0  0  0  0  0
  1 19  1  0  0  0  0
  2 13  1  0  0  0  0
  4 20  1  0  0  0  0
  4  1  2  0  0  0  0
  5  1  1  0  0  0  0
  6  8  2  0  0  0  0
  7 15  1  6  0  0  0
  7 27  1  0  0  0  0
  7  9  1  0  0  0  0
  8 11  1  0  0  0  0
  9 22  1  0  0  0  0
 10  3  2  0  0  0  0
 11 28  1  0  0  0  0
 11  5  1  0  0  0  0
 12  8  1  1  0  0  0
 12  4  1  0  0  0  0
 13 18  2  0  0  0  0
 14  9  1  0  0  0  0
 15 23  1  0  0  0  0
 16  2  1  0  0  0  0
 17 20  1  6  0  0  0
 17  3  1  0  0  0  0
 17 26  1  0  0  0  0
 19 26  1  0  0  0  0
 19  2  2  0  0  0  0
 21 10  1  0  0  0  0
 22 20  2  0  0  0  0
 22 10  1  0  0  0  0
 23 14  1  0  0  0  0
 25 18  1  0  0  0  0
 26 25  2  0  0  0  0
 27 24  1  6  0  0  0
 27 12  1  0  0  0  0
 28 30  1  0  0  0  0
 29 30  1  0  0  0  0
M  END
>  <MODEL>
7

>  <REMARK>
 VINA RESULT:      -8.2      3.663      7.221
  Name = 
  2 active torsions:
  status: ('A' for Active; 'I' for Inactive)
    1  A    between atoms: N_11  and  C_28
    2  A    between atoms: C_28  and  C_30
                            x       y       z     vdW  Elec       q    Type
                         _______ _______ _______ _____ _____    ______ ____

>  <TORSDO>
F 2

$$$$
=
 OpenBabel11122410333D

 30 35  0  0  1  0  0  0  0  0999 V2000
  188.3760  178.4020  141.5330 C   0  0  0  0  0  0  0  0  0  0  0  0
  186.9550  178.7330  139.5680 C   0  0  0  0  0  0  0  0  0  0  0  0
  184.9650  178.1620  144.0120 N   0  0  0  0  0  0  0  0  0  0  0  0
  188.5890  178.3350  143.0540 C   0  0  2  0  0  3  0  0  0  0  0  0
  189.5950  178.1160  140.7030 C   0  0  0  0  0  2  0  0  0  0  0  0
  190.4660  175.2210  142.7440 O   0  0  0  0  0  0  0  0  0  0  0  0
  189.4100  178.0120  145.9080 C   0  0  1  0  0  3  0  0  0  0  0  0
  190.1310  176.3940  142.4200 C   0  0  0  0  0  0  0  0  0  0  0  0
  187.9730  177.9480  146.1090 N   0  0  0  0  0  0  0  0  0  0  0  0
  185.5410  177.9990  145.1630 C   0  0  0  0  0  0  0  0  0  0  0  0
  190.0770  176.7800  141.0390 N   0  0  0  0  0  0  0  0  0  0  0  0
  189.7870  177.4280  143.4670 C   0  0  2  0  0  3  0  0  0  0  0  0
  185.7080  178.8790  139.0470 N   0  0  0  0  0  0  0  0  0  0  0  0
  187.6000  177.8710  147.5070 C   0  0  0  0  0  2  0  0  0  0  0  0
  190.0140  177.8130  147.2940 C   0  0  0  0  0  2  0  0  0  0  0  0
  188.0070  178.8210  138.7160 F   0  0  0  0  0  0  0  0  0  0  0  0
  186.0390  178.2330  143.0780 C   0  0  0  0  0  0  0  0  0  0  0  0
  184.5900  178.8400  139.8130 C   0  0  0  0  0  3  0  0  0  0  0  0
  187.1330  178.5470  140.9660 C   0  0  0  0  0  0  0  0  0  0  0  0
  187.2950  178.0640  143.7510 C   0  0  0  0  0  0  0  0  0  0  0  0
  184.7610  177.8870  146.4250 C   0  0  0  0  0  1  0  0  0  0  0  0
  187.0120  177.9650  145.0410 C   0  0  0  0  0  0  0  0  0  0  0  0
  188.8870  178.0290  148.2890 C   0  0  0  0  0  2  0  0  0  0  0  0
  191.1680  176.5220  145.1920 O   0  0  0  0  0  1  0  0  0  0  0  0
  184.6930  178.6390  141.1820 C   0  0  0  0  0  3  0  0  0  0  0  0
  185.9510  178.4850  141.7690 C   0  0  0  0  0  0  0  0  0  0  0  0
  189.8570  176.9260  144.9200 C   0  0  1  0  0  3  0  0  0  0  0  0
  190.4090  175.8400  139.9750 C   0  0  0  0  0  2  0  0  0  0  0  0
  190.1800  176.3240  137.5340 C   0  0  0  0  0  1  0  0  0  0  0  0
  191.0090  176.5680  138.7810 C   0  0  0  0  0  2  0  0  0  0  0  0
  2 19  1  0  0  0  0
  3 10  2  0  0  0  0
  4  1  1  6  0  0  0
  4 12  1  0  0  0  0
  4 20  1  0  0  0  0
  5 11  1  0  0  0  0
  5  1  1  0  0  0  0
  7  9  1  0  0  0  0
  7 15  1  1  0  0  0
  8  6  2  0  0  0  0
  9 14  1  0  0  0  0
 10 21  1  0  0  0  0
 11  8  1  0  0  0  0
 12  8  1  6  0  0  0
 12 27  1  0  0  0  0
 13  2  2  0  0  0  0
 13 18  1  0  0  0  0
 14 23  1  0  0  0  0
 15 23  1  0  0  0  0
 16  2  1  0  0  0  0
 17 20  1  0  0  0  0
 17  3  1  0  0  0  0
 18 25  2  0  0  0  0
 19  1  2  0  0  0  0
 19 26  1  0  0  0  0
 20 22  2  0  0  0  0
 22 10  1  0  0  0  0
 22  9  1  0  0  0  0
 25 26  1  0  0  0  0
 26 17  2  0  0  0  0
 27 24  1  1  0  0  0
 27  7  1  0  0  0  0
 28 11  1  0  0  0  0
 29 30  1  0  0  0  0
 30 28  1  0  0  0  0
M  END
>  <MODEL>
8

>  <REMARK>
 VINA RESULT:      -8.1      2.492      5.187
  Name = 
  2 active torsions:
  status: ('A' for Active; 'I' for Inactive)
    1  A    between atoms: N_11  and  C_28
    2  A    between atoms: C_28  and  C_30
                            x       y       z     vdW  Elec       q    Type
                         _______ _______ _______ _____ _____    ______ ____

>  <TORSDO>
F 2

$$$$
=
 OpenBabel11122410333D

 30 35  0  0  1  0  0  0  0  0999 V2000
  186.9090  178.6830  140.1440 C   0  0  0  0  0  0  0  0  0  0  0  0
  184.5580  178.8970  139.4970 C   0  0  0  0  0  0  0  0  0  0  0  0
  185.7770  177.7460  144.1030 N   0  0  0  0  0  0  0  0  0  0  0  0
  188.0160  178.5590  141.2040 C   0  0  2  0  0  3  0  0  0  0  0  0
  187.3810  178.6480  138.7180 C   0  0  0  0  0  2  0  0  0  0  0  0
  189.5810  175.8140  139.3800 O   0  0  0  0  0  0  0  0  0  0  0  0
  190.4410  178.2020  142.9110 C   0  0  1  0  0  3  0  0  0  0  0  0
  189.0130  176.9350  139.4960 C   0  0  0  0  0  0  0  0  0  0  0  0
  189.4430  177.8950  143.9210 N   0  0  0  0  0  0  0  0  0  0  0  0
  186.9500  177.6090  144.6410 C   0  0  0  0  0  0  0  0  0  0  0  0
  188.0870  177.3900  138.4990 N   0  0  0  0  0  0  0  0  0  0  0  0
  189.2910  177.8340  140.6780 C   0  0  2  0  0  3  0  0  0  0  0  0
  183.2470  178.8710  139.8550 N   0  0  0  0  0  0  0  0  0  0  0  0
  190.0150  177.6750  145.2340 C   0  0  0  0  0  2  0  0  0  0  0  0
  191.7820  178.0200  143.6110 C   0  0  0  0  0  2  0  0  0  0  0  0
  184.8520  179.2050  138.2080 F   0  0  0  0  0  0  0  0  0  0  0  0
  186.0400  178.0450  142.7350 C   0  0  0  0  0  0  0  0  0  0  0  0
  182.8440  178.6060  141.1220 C   0  0  0  0  0  3  0  0  0  0  0  0
  185.5730  178.6580  140.4630 C   0  0  0  0  0  0  0  0  0  0  0  0
  187.4530  178.0410  142.4880 C   0  0  0  0  0  0  0  0  0  0  0  0
  187.1240  177.2970  146.0850 C   0  0  0  0  0  1  0  0  0  0  0  0
  188.0320  177.8210  143.6590 C   0  0  0  0  0  0  0  0  0  0  0  0
  191.4900  177.9910  145.1010 C   0  0  0  0  0  2  0  0  0  0  0  0
  191.5160  177.0620  141.0760 O   0  0  0  0  0  1  0  0  0  0  0  0
  183.7840  178.3420  142.1090 C   0  0  0  0  0  3  0  0  0  0  0  0
  185.1440  178.3590  141.7940 C   0  0  0  0  0  0  0  0  0  0  0  0
  190.2840  177.2640  141.7070 C   0  0  1  0  0  3  0  0  0  0  0  0
  187.7800  176.5820  137.3250 C   0  0  0  0  0  2  0  0  0  0  0  0
  185.8900  177.0160  135.7490 C   0  0  0  0  0  1  0  0  0  0  0  0
  186.2760  176.4840  137.1160 C   0  0  0  0  0  2  0  0  0  0  0  0
  1 19  2  0  0  0  0
  2 13  2  0  0  0  0
  2 19  1  0  0  0  0
  3 10  2  0  0  0  0
  4  1  1  6  0  0  0
  4 20  1  0  0  0  0
  5  1  1  0  0  0  0
  6  8  2  0  0  0  0
  7 15  1  1  0  0  0
  7  9  1  0  0  0  0
  9 14  1  0  0  0  0
 10 21  1  0  0  0  0
 11  5  1  0  0  0  0
 11  8  1  0  0  0  0
 12  8  1  6  0  0  0
 12  4  1  0  0  0  0
 12 27  1  0  0  0  0
 13 18  1  0  0  0  0
 15 23  1  0  0  0  0
 16  2  1  0  0  0  0
 17  3  1  0  0  0  0
 18 25  2  0  0  0  0
 19 26  1  0  0  0  0
 20 17  1  0  0  0  0
 20 22  2  0  0  0  0
 22  9  1  0  0  0  0
 22 10  1  0  0  0  0
 23 14  1  0  0  0  0
 26 25  1  0  0  0  0
 26 17  2  0  0  0  0
 27 24  1  6  0  0  0
 27  7  1  0  0  0  0
 28 11  1  0  0  0  0
 29 30  1  0  0  0  0
 30 28  1  0  0  0  0
M  END
>  <MODEL>
9

>  <REMARK>
 VINA RESULT:      -8.0      3.124      6.065
  Name = 
  2 active torsions:
  status: ('A' for Active; 'I' for Inactive)
    1  A    between atoms: N_11  and  C_28
    2  A    between atoms: C_28  and  C_30
                            x       y       z     vdW  Elec       q    Type
                         _______ _______ _______ _____ _____    ______ ____

>  <TORSDO>
F 2

$$$$
