=
 OpenBabel11122410403D

 32 37  0  0  1  0  0  0  0  0999 V2000
  188.3080  177.8380  140.4510 C   0  0  0  0  0  2  0  0  0  0  0  0
  191.4750  176.1410  136.1210 C   0  0  1  0  0  3  0  0  0  0  0  0
  188.6620  172.7830  136.9310 C   0  0  0  0  0  2  0  0  0  0  0  0
  188.5250  172.2920  135.6200 O   0  0  0  0  0  0  0  0  0  0  0  0
  193.8510  175.2230  136.1170 C   0  0  1  0  0  3  0  0  0  0  0  0
  194.6770  174.0230  135.7720 C   0  0  0  0  0  0  0  0  0  0  0  0
  190.5740  177.2670  138.1330 C   0  0  1  0  0  3  0  0  0  0  0  0
  189.2430  177.1270  135.9910 C   0  0  0  0  0  2  0  0  0  0  0  0
  195.1950  172.0110  135.1360 N   0  0  0  0  0  0  0  0  0  0  0  0
  188.2740  178.3180  137.9710 C   0  0  0  0  0  2  0  0  0  0  0  0
  188.9950  174.2800  136.9200 C   0  0  0  0  0  2  0  0  0  0  0  0
  190.1390  176.0650  135.5020 N   0  0  2  0  0  0  0  0  0  0  0  0
  189.5260  174.7200  135.5410 C   0  0  1  0  0  3  0  0  0  0  0  0
  191.8480  173.6840  135.5290 C   0  0  1  0  0  3  0  0  0  0  0  0
  196.2780  172.6040  135.6170 N   0  0  0  0  0  0  0  0  0  0  0  0
  189.4060  176.7850  140.3770 C   0  0  0  0  0  2  0  0  0  0  0  0
  189.1670  177.1760  137.5210 C   0  0  2  0  0  3  0  0  0  0  0  0
  195.9890  173.8360  136.0250 N   0  0  0  0  0  0  0  0  0  0  0  0
  190.6240  177.3590  139.6630 C   0  0  0  0  0  2  0  0  0  0  0  0
  187.4600  177.8770  139.1810 C   0  0  2  0  0  3  0  0  0  0  0  0
  189.8250  172.2440  135.0810 C   0  0  0  0  0  2  0  0  0  0  0  0
  190.4410  173.6510  134.9110 C   0  0  1  0  0  3  0  0  0  0  0  0
  192.7650  172.6940  134.7870 C   0  0  0  0  0  2  0  0  0  0  0  0
  191.4130  176.0940  137.6510 C   0  0  0  0  0  2  0  0  0  0  0  0
  194.5400  176.4840  135.6230 C   0  0  0  0  0  1  0  0  0  0  0  0
  195.1600  170.6620  134.5980 C   0  0  0  0  0  1  0  0  0  0  0  0
  192.4360  175.1190  135.4990 C   0  0  1  0  0  3  0  0  0  0  0  0
  194.1730  172.8710  135.2420 C   0  0  0  0  0  0  0  0  0  0  0  0
  186.3450  178.7940  139.3650 N   0  0  0  0  0  2  0  0  0  0  0  0
  185.0570  178.5670  138.7890 C   0  0  0  0  0  0  0  0  0  0  0  0
  184.8440  177.5570  138.0680 O   0  0  0  0  0  0  0  0  0  0  0  0
  183.9590  179.5370  139.0400 C   0  0  0  0  0  1  0  0  0  0  0  0
  2 24  1  1  0  0  0
  4  3  1  0  0  0  0
  5 25  1  6  0  0  0
  6 18  1  0  0  0  0
  6  5  1  0  0  0  0
  7 24  1  1  0  0  0
  7 19  1  0  0  0  0
  9 28  1  0  0  0  0
  9 15  1  0  0  0  0
 10 20  1  0  0  0  0
 11  3  1  0  0  0  0
 12 13  1  0  0  0  0
 12  8  1  1  0  0  0
 12  2  1  0  0  0  0
 13 11  1  1  0  0  0
 14 23  1  6  0  0  0
 15 18  2  0  0  0  0
 16  1  1  0  0  0  0
 17  8  1  6  0  0  0
 17 10  1  0  0  0  0
 17  7  1  0  0  0  0
 19 16  1  0  0  0  0
 20 29  1  1  0  0  0
 20  1  1  0  0  0  0
 21  4  1  0  0  0  0
 22 21  1  1  0  0  0
 22 14  1  0  0  0  0
 22 13  1  0  0  0  0
 23 28  1  0  0  0  0
 26  9  1  0  0  0  0
 27 14  1  0  0  0  0
 27  5  1  0  0  0  0
 27  2  1  0  0  0  0
 28  6  2  0  0  0  0
 30 32  1  0  0  0  0
 30 29  1  0  0  0  0
 31 30  2  0  0  0  0
M  END
>  <MODEL>
1

>  <REMARK>
 VINA RESULT:      -6.0      0.000      0.000
  Name = 
  1 active torsions:
  status: ('A' for Active; 'I' for Inactive)
    1  A    between atoms: C_20  and  N_29
                            x       y       z     vdW  Elec       q    Type
                         _______ _______ _______ _____ _____    ______ ____

>  <TORSDO>
F 1

$$$$
=
 OpenBabel11122410403D

 32 37  0  0  1  0  0  0  0  0999 V2000
  191.0010  173.6080  136.2100 C   0  0  0  0  0  2  0  0  0  0  0  0
  187.0720  177.5170  137.1890 C   0  0  1  0  0  3  0  0  0  0  0  0
  189.2020  176.9670  141.0640 C   0  0  0  0  0  2  0  0  0  0  0  0
  189.0820  178.2750  141.5660 O   0  0  0  0  0  0  0  0  0  0  0  0
  184.5730  177.2320  137.5920 C   0  0  1  0  0  3  0  0  0  0  0  0
  183.4820  177.4570  138.5930 C   0  0  0  0  0  0  0  0  0  0  0  0
  188.4140  175.6420  136.2860 C   0  0  1  0  0  3  0  0  0  0  0  0
  189.4310  177.9180  136.6900 C   0  0  0  0  0  2  0  0  0  0  0  0
  182.4890  177.9910  140.4490 N   0  0  0  0  0  0  0  0  0  0  0  0
  190.8470  176.0850  135.7360 C   0  0  0  0  0  2  0  0  0  0  0  0
  189.1880  176.9690  139.5310 C   0  0  0  0  0  2  0  0  0  0  0  0
  188.2830  178.2810  137.5390 N   0  0  2  0  0  0  0  0  0  0  0  0
  188.6040  178.2860  138.9830 C   0  0  1  0  0  3  0  0  0  0  0  0
  186.1320  178.0140  139.5130 C   0  0  1  0  0  3  0  0  0  0  0  0
  181.6150  177.4010  139.6460 N   0  0  0  0  0  0  0  0  0  0  0  0
  189.7070  173.5370  137.0110 C   0  0  0  0  0  2  0  0  0  0  0  0
  189.6910  176.4080  136.6650 C   0  0  2  0  0  3  0  0  0  0  0  0
  182.1980  177.0530  138.5030 N   0  0  0  0  0  0  0  0  0  0  0  0
  188.5600  174.1180  136.1920 C   0  0  0  0  0  2  0  0  0  0  0  0
  191.6860  174.9680  136.3430 C   0  0  2  0  0  3  0  0  0  0  0  0
  187.7460  178.6610  141.3400 C   0  0  0  0  0  2  0  0  0  0  0  0
  187.4210  178.7870  139.8350 C   0  0  1  0  0  3  0  0  0  0  0  0
  184.9500  178.6280  140.2860 C   0  0  0  0  0  2  0  0  0  0  0  0
  187.2990  176.0030  137.2560 C   0  0  0  0  0  2  0  0  0  0  0  0
  184.1090  177.6680  136.2130 C   0  0  0  0  0  1  0  0  0  0  0  0
  182.1800  178.5030  141.7730 C   0  0  0  0  0  1  0  0  0  0  0  0
  185.8550  178.0050  137.9860 C   0  0  1  0  0  3  0  0  0  0  0  0
  183.6710  178.0180  139.8220 C   0  0  0  0  0  0  0  0  0  0  0  0
  192.9810  174.9300  135.6790 N   0  0  0  0  0  2  0  0  0  0  0  0
  194.0940  175.7130  136.1140 C   0  0  0  0  0  0  0  0  0  0  0  0
  193.9840  176.4980  137.0930 O   0  0  0  0  0  0  0  0  0  0  0  0
  195.3920  175.6040  135.4000 C   0  0  0  0  0  1  0  0  0  0  0  0
  1 20  1  0  0  0  0
  1 16  1  0  0  0  0
  2 24  1  1  0  0  0
  2 12  1  0  0  0  0
  2 27  1  0  0  0  0
  3  4  1  0  0  0  0
  5 25  1  6  0  0  0
  5 27  1  0  0  0  0
  5  6  1  0  0  0  0
  6 28  2  0  0  0  0
  7 19  1  1  0  0  0
  7 17  1  0  0  0  0
  7 24  1  0  0  0  0
  9 26  1  0  0  0  0
 10 20  1  0  0  0  0
 11  3  1  0  0  0  0
 12  8  1  6  0  0  0
 12 13  1  0  0  0  0
 13 11  1  1  0  0  0
 13 22  1  0  0  0  0
 14 22  1  0  0  0  0
 14 23  1  1  0  0  0
 15  9  1  0  0  0  0
 17 10  1  6  0  0  0
 17  8  1  0  0  0  0
 18  6  1  0  0  0  0
 18 15  2  0  0  0  0
 19 16  1  0  0  0  0
 20 29  1  6  0  0  0
 21  4  1  0  0  0  0
 22 21  1  1  0  0  0
 27 14  1  0  0  0  0
 28 23  1  0  0  0  0
 28  9  1  0  0  0  0
 29 30  1  0  0  0  0
 30 31  2  0  0  0  0
 32 30  1  0  0  0  0
M  END
>  <MODEL>
2

>  <REMARK>
 VINA RESULT:      -5.9      2.622      9.080
  Name = 
  1 active torsions:
  status: ('A' for Active; 'I' for Inactive)
    1  A    between atoms: C_20  and  N_29
                            x       y       z     vdW  Elec       q    Type
                         _______ _______ _______ _____ _____    ______ ____

>  <TORSDO>
F 1

$$$$
=
 OpenBabel11122410403D

 32 37  0  0  1  0  0  0  0  0999 V2000
  191.5550  173.9590  136.0400 C   0  0  0  0  0  2  0  0  0  0  0  0
  186.4550  176.3250  135.7900 C   0  0  1  0  0  3  0  0  0  0  0  0
  188.1180  177.4890  139.7550 C   0  0  0  0  0  2  0  0  0  0  0  0
  187.5040  178.7470  139.8890 O   0  0  0  0  0  0  0  0  0  0  0  0
  184.1640  175.2710  136.1510 C   0  0  1  0  0  3  0  0  0  0  0  0
  182.9390  175.3200  137.0100 C   0  0  0  0  0  0  0  0  0  0  0  0
  188.4510  174.8960  135.4700 C   0  0  1  0  0  3  0  0  0  0  0  0
  188.5880  177.4120  135.2980 C   0  0  0  0  0  2  0  0  0  0  0  0
  181.5900  175.8820  138.6170 N   0  0  0  0  0  0  0  0  0  0  0  0
  190.6480  176.0350  134.9220 C   0  0  0  0  0  2  0  0  0  0  0  0
  188.3050  177.1280  138.2770 C   0  0  0  0  0  2  0  0  0  0  0  0
  187.2850  177.5300  135.9740 N   0  0  2  0  0  0  0  0  0  0  0  0
  187.3930  177.9850  137.3770 C   0  0  1  0  0  3  0  0  0  0  0  0
  185.1070  176.9820  137.8580 C   0  0  1  0  0  3  0  0  0  0  0  0
  181.0770  174.8490  137.9640 N   0  0  0  0  0  0  0  0  0  0  0  0
  190.2660  173.6210  136.7780 C   0  0  0  0  0  2  0  0  0  0  0  0
  189.3380  176.1320  135.6840 C   0  0  2  0  0  3  0  0  0  0  0  0
  181.8870  174.4760  136.9780 N   0  0  0  0  0  0  0  0  0  0  0  0
  189.1090  173.5470  135.7880 C   0  0  0  0  0  2  0  0  0  0  0  0
  191.7230  175.4640  135.8370 C   0  0  2  0  0  3  0  0  0  0  0  0
  186.1580  178.5680  139.5140 C   0  0  0  0  0  2  0  0  0  0  0  0
  186.0090  178.2160  138.0170 C   0  0  1  0  0  3  0  0  0  0  0  0
  183.6970  177.2960  138.3930 C   0  0  0  0  0  2  0  0  0  0  0  0
  187.1630  175.0510  136.2630 C   0  0  0  0  0  2  0  0  0  0  0  0
  183.7660  175.1790  134.6880 C   0  0  0  0  0  1  0  0  0  0  0  0
  180.9570  176.5430  139.7450 C   0  0  0  0  0  1  0  0  0  0  0  0
  185.0520  176.5190  136.3790 C   0  0  1  0  0  3  0  0  0  0  0  0
  182.7670  176.1810  138.0540 C   0  0  0  0  0  0  0  0  0  0  0  0
  193.0320  175.7360  135.2600 N   0  0  0  0  0  2  0  0  0  0  0  0
  194.0730  176.3930  135.9860 C   0  0  0  0  0  0  0  0  0  0  0  0
  193.8830  176.7880  137.1660 O   0  0  0  0  0  0  0  0  0  0  0  0
  195.3920  176.6150  135.3390 C   0  0  0  0  0  1  0  0  0  0  0  0
  1 16  1  0  0  0  0
  2 12  1  0  0  0  0
  2 24  1  1  0  0  0
  2 27  1  0  0  0  0
  3  4  1  0  0  0  0
  5 25  1  6  0  0  0
  5 27  1  0  0  0  0
  5  6  1  0  0  0  0
  6 28  2  0  0  0  0
  7 17  1  0  0  0  0
  7 19  1  1  0  0  0
  7 24  1  0  0  0  0
  8 17  1  0  0  0  0
  9 26  1  0  0  0  0
 10 20  1  0  0  0  0
 11  3  1  0  0  0  0
 12  8  1  1  0  0  0
 12 13  1  0  0  0  0
 13 22  1  0  0  0  0
 13 11  1  1  0  0  0
 14 22  1  0  0  0  0
 14 23  1  6  0  0  0
 15  9  1  0  0  0  0
 17 10  1  6  0  0  0
 18  6  1  0  0  0  0
 18 15  2  0  0  0  0
 19 16  1  0  0  0  0
 20 29  1  6  0  0  0
 20  1  1  0  0  0  0
 21  4  1  0  0  0  0
 22 21  1  1  0  0  0
 27 14  1  0  0  0  0
 28 23  1  0  0  0  0
 28  9  1  0  0  0  0
 29 30  1  0  0  0  0
 30 31  2  0  0  0  0
 32 30  1  0  0  0  0
M  END
>  <MODEL>
3

>  <REMARK>
 VINA RESULT:      -5.7      3.297      8.900
  Name = 
  1 active torsions:
  status: ('A' for Active; 'I' for Inactive)
    1  A    between atoms: C_20  and  N_29
                            x       y       z     vdW  Elec       q    Type
                         _______ _______ _______ _____ _____    ______ ____

>  <TORSDO>
F 1

$$$$
=
 OpenBabel11122410403D

 32 37  0  0  1  0  0  0  0  0999 V2000
  191.9330  173.2750  135.3250 C   0  0  0  0  0  2  0  0  0  0  0  0
  187.8320  177.0930  135.8550 C   0  0  1  0  0  3  0  0  0  0  0  0
  189.6800  176.7570  139.8950 C   0  0  0  0  0  2  0  0  0  0  0  0
  189.4850  178.0790  140.3340 O   0  0  0  0  0  0  0  0  0  0  0  0
  185.3190  176.7450  136.0830 C   0  0  1  0  0  3  0  0  0  0  0  0
  184.1500  176.9740  136.9910 C   0  0  0  0  0  0  0  0  0  0  0  0
  189.2900  175.2290  135.1290 C   0  0  1  0  0  3  0  0  0  0  0  0
  190.2090  177.5490  135.5150 C   0  0  0  0  0  2  0  0  0  0  0  0
  183.0050  177.5460  138.7460 N   0  0  0  0  0  0  0  0  0  0  0  0
  191.7450  175.7270  134.7420 C   0  0  0  0  0  2  0  0  0  0  0  0
  189.7810  176.7010  138.3660 C   0  0  0  0  0  2  0  0  0  0  0  0
  188.9910  177.9080  136.2620 N   0  0  2  0  0  0  0  0  0  0  0  0
  189.2030  177.9780  137.7240 C   0  0  1  0  0  3  0  0  0  0  0  0
  186.7070  177.6480  138.0810 C   0  0  1  0  0  3  0  0  0  0  0  0
  182.2120  176.8990  137.9050 N   0  0  0  0  0  0  0  0  0  0  0  0
  190.5850  173.1940  136.0310 C   0  0  0  0  0  2  0  0  0  0  0  0
  190.5130  176.0480  135.5690 C   0  0  2  0  0  3  0  0  0  0  0  0
  182.8890  176.5270  136.8230 N   0  0  0  0  0  0  0  0  0  0  0  0
  189.4870  173.7070  135.1070 C   0  0  0  0  0  2  0  0  0  0  0  0
  192.5670  174.6600  135.4540 C   0  0  2  0  0  3  0  0  0  0  0  0
  188.1600  178.4140  139.9940 C   0  0  0  0  0  2  0  0  0  0  0  0
  187.9450  178.4730  138.4650 C   0  0  1  0  0  3  0  0  0  0  0  0
  185.4530  178.2530  138.7400 C   0  0  0  0  0  2  0  0  0  0  0  0
  188.0960  175.5900  135.9980 C   0  0  0  0  0  2  0  0  0  0  0  0
  184.9470  177.1140  134.6580 C   0  0  0  0  0  1  0  0  0  0  0  0
  182.5840  178.0980  140.0220 C   0  0  0  0  0  1  0  0  0  0  0  0
  186.5460  177.5720  136.5400 C   0  0  1  0  0  3  0  0  0  0  0  0
  184.2300  177.5870  138.2070 C   0  0  0  0  0  0  0  0  0  0  0  0
  193.9080  174.6370  134.8890 N   0  0  0  0  0  2  0  0  0  0  0  0
  195.0280  175.2420  135.5390 C   0  0  0  0  0  0  0  0  0  0  0  0
  194.8870  175.8490  136.6330 O   0  0  0  0  0  0  0  0  0  0  0  0
  196.3740  175.1580  134.9130 C   0  0  0  0  0  1  0  0  0  0  0  0
  1 20  1  0  0  0  0
  1 16  1  0  0  0  0
  2 24  1  1  0  0  0
  2 12  1  0  0  0  0
  2 27  1  0  0  0  0
  3  4  1  0  0  0  0
  5 25  1  6  0  0  0
  5 27  1  0  0  0  0
  5  6  1  0  0  0  0
  6 28  2  0  0  0  0
  7 19  1  1  0  0  0
  7 17  1  0  0  0  0
  7 24  1  0  0  0  0
  8 17  1  0  0  0  0
  9 26  1  0  0  0  0
 10 20  1  0  0  0  0
 11  3  1  0  0  0  0
 12  8  1  6  0  0  0
 12 13  1  0  0  0  0
 13 11  1  1  0  0  0
 13 22  1  0  0  0  0
 14 22  1  0  0  0  0
 14 23  1  1  0  0  0
 15  9  1  0  0  0  0
 17 10  1  6  0  0  0
 18  6  1  0  0  0  0
 18 15  2  0  0  0  0
 19 16  1  0  0  0  0
 20 29  1  6  0  0  0
 21  4  1  0  0  0  0
 22 21  1  1  0  0  0
 27 14  1  0  0  0  0
 28 23  1  0  0  0  0
 28  9  1  0  0  0  0
 29 30  1  0  0  0  0
 30 31  2  0  0  0  0
 32 30  1  0  0  0  0
M  END
>  <MODEL>
4

>  <REMARK>
 VINA RESULT:      -5.6      2.652      8.725
  Name = 
  1 active torsions:
  status: ('A' for Active; 'I' for Inactive)
    1  A    between atoms: C_20  and  N_29
                            x       y       z     vdW  Elec       q    Type
                         _______ _______ _______ _____ _____    ______ ____

>  <TORSDO>
F 1

$$$$
=
 OpenBabel11122410403D

 32 37  0  0  1  0  0  0  0  0999 V2000
  194.2080  175.1840  137.4900 C   0  0  0  0  0  2  0  0  0  0  0  0
  188.9630  174.9690  135.4640 C   0  0  1  0  0  3  0  0  0  0  0  0
  189.0870  178.5760  138.0760 C   0  0  0  0  0  2  0  0  0  0  0  0
  188.1630  179.3790  137.3830 O   0  0  0  0  0  0  0  0  0  0  0  0
  187.0060  173.5090  136.1930 C   0  0  1  0  0  3  0  0  0  0  0  0
  185.6170  173.5500  136.7510 C   0  0  0  0  0  0  0  0  0  0  0  0
  191.2600  174.4480  136.2230 C   0  0  1  0  0  3  0  0  0  0  0  0
  190.8010  176.3260  134.5990 C   0  0  0  0  0  2  0  0  0  0  0  0
  183.7720  174.3320  137.5900 N   0  0  0  0  0  0  0  0  0  0  0  0
  193.1610  175.8380  135.2860 C   0  0  0  0  0  2  0  0  0  0  0  0
  189.7690  177.5860  137.1250 C   0  0  0  0  0  2  0  0  0  0  0  0
  189.3740  176.2920  134.9620 N   0  0  2  0  0  0  0  0  0  0  0  0
  188.9630  177.4240  135.8210 C   0  0  1  0  0  3  0  0  0  0  0  0
  186.9640  176.0690  136.6160 C   0  0  1  0  0  3  0  0  0  0  0  0
  183.7430  173.0080  137.6410 N   0  0  0  0  0  0  0  0  0  0  0  0
  192.8920  174.8400  138.1770 C   0  0  0  0  0  2  0  0  0  0  0  0
  191.7090  175.8320  135.7300 C   0  0  2  0  0  3  0  0  0  0  0  0
  184.8650  172.5000  137.1420 N   0  0  0  0  0  0  0  0  0  0  0  0
  192.1190  173.8310  137.3350 C   0  0  0  0  0  2  0  0  0  0  0  0
  194.0420  176.2860  136.4450 C   0  0  2  0  0  3  0  0  0  0  0  0
  187.0690  178.5460  137.0800 C   0  0  0  0  0  2  0  0  0  0  0  0
  187.4440  177.4270  136.0810 C   0  0  1  0  0  3  0  0  0  0  0  0
  185.4290  176.0710  136.7410 C   0  0  0  0  0  2  0  0  0  0  0  0
  189.8050  174.5100  136.6590 C   0  0  0  0  0  2  0  0  0  0  0  0
  187.0740  172.5160  135.0470 C   0  0  0  0  0  1  0  0  0  0  0  0
  182.7010  175.2010  138.0460 C   0  0  0  0  0  1  0  0  0  0  0  0
  187.4480  174.9100  135.7050 C   0  0  1  0  0  3  0  0  0  0  0  0
  184.9460  174.6970  137.0580 C   0  0  0  0  0  0  0  0  0  0  0  0
  195.3470  176.6710  135.9290 N   0  0  0  0  0  2  0  0  0  0  0  0
  196.1940  175.7640  135.2200 C   0  0  0  0  0  0  0  0  0  0  0  0
  195.8430  174.5690  135.0340 O   0  0  0  0  0  0  0  0  0  0  0  0
  197.5050  176.2360  134.7020 C   0  0  0  0  0  1  0  0  0  0  0  0
  1 16  1  0  0  0  0
  2 27  1  0  0  0  0
  2 24  1  1  0  0  0
  4  3  1  0  0  0  0
  5 25  1  6  0  0  0
  5  6  1  0  0  0  0
  6 28  2  0  0  0  0
  6 18  1  0  0  0  0
  7 24  1  1  0  0  0
  7 19  1  0  0  0  0
  9 15  1  0  0  0  0
  9 26  1  0  0  0  0
 10 17  1  0  0  0  0
 10 20  1  0  0  0  0
 11  3  1  0  0  0  0
 12  8  1  1  0  0  0
 12  2  1  0  0  0  0
 12 13  1  0  0  0  0
 13 22  1  0  0  0  0
 13 11  1  1  0  0  0
 14 23  1  6  0  0  0
 17  8  1  6  0  0  0
 17  7  1  0  0  0  0
 18 15  2  0  0  0  0
 19 16  1  0  0  0  0
 20 29  1  6  0  0  0
 20  1  1  0  0  0  0
 21  4  1  0  0  0  0
 22 14  1  0  0  0  0
 22 21  1  1  0  0  0
 23 28  1  0  0  0  0
 27  5  1  0  0  0  0
 27 14  1  0  0  0  0
 28  9  1  0  0  0  0
 30 29  1  0  0  0  0
 31 30  2  0  0  0  0
 32 30  1  0  0  0  0
M  END
>  <MODEL>
5

>  <REMARK>
 VINA RESULT:      -5.4      3.124      7.990
  Name = 
  1 active torsions:
  status: ('A' for Active; 'I' for Inactive)
    1  A    between atoms: C_20  and  N_29
                            x       y       z     vdW  Elec       q    Type
                         _______ _______ _______ _____ _____    ______ ____

>  <TORSDO>
F 1

$$$$
=
 OpenBabel11122410403D

 32 37  0  0  1  0  0  0  0  0999 V2000
  187.3980  176.7530  143.5940 C   0  0  0  0  0  2  0  0  0  0  0  0
  190.9980  177.5770  139.3480 C   0  0  1  0  0  3  0  0  0  0  0  0
  187.5780  175.3260  137.5930 C   0  0  0  0  0  2  0  0  0  0  0  0
  187.6090  175.8610  136.2930 O   0  0  0  0  0  0  0  0  0  0  0  0
  193.1530  176.3380  138.7910 C   0  0  1  0  0  3  0  0  0  0  0  0
  193.8230  175.4980  137.7480 C   0  0  0  0  0  0  0  0  0  0  0  0
  189.9330  177.2970  141.5650 C   0  0  1  0  0  3  0  0  0  0  0  0
  189.0180  178.9170  139.8570 C   0  0  0  0  0  2  0  0  0  0  0  0
  194.1170  174.3410  135.9340 N   0  0  0  0  0  0  0  0  0  0  0  0
  187.9040  178.7210  142.0930 C   0  0  0  0  0  2  0  0  0  0  0  0
  188.1440  176.3270  138.6070 C   0  0  0  0  0  2  0  0  0  0  0  0
  189.8060  178.2520  138.8040 N   0  0  2  0  0  0  0  0  0  0  0  0
  188.9870  177.4110  137.9050 C   0  0  1  0  0  3  0  0  0  0  0  0
  191.0710  176.1060  137.2610 C   0  0  1  0  0  3  0  0  0  0  0  0
  195.1730  174.1880  136.7200 N   0  0  0  0  0  0  0  0  0  0  0  0
  188.3060  175.7750  142.8570 C   0  0  0  0  0  2  0  0  0  0  0  0
  188.6690  177.9750  141.0140 C   0  0  2  0  0  3  0  0  0  0  0  0
  195.0170  174.8780  137.8450 N   0  0  0  0  0  0  0  0  0  0  0  0
  189.7120  176.3540  142.7550 C   0  0  0  0  0  2  0  0  0  0  0  0
  186.8190  177.8150  142.6610 C   0  0  2  0  0  3  0  0  0  0  0  0
  188.9620  175.8580  135.9000 C   0  0  0  0  0  2  0  0  0  0  0  0
  189.8180  176.8290  136.7440 C   0  0  1  0  0  3  0  0  0  0  0  0
  191.9380  175.6530  136.0710 C   0  0  0  0  0  2  0  0  0  0  0  0
  190.6460  176.5620  140.4410 C   0  0  0  0  0  2  0  0  0  0  0  0
  194.1160  177.3970  139.3000 C   0  0  0  0  0  1  0  0  0  0  0  0
  193.9660  173.7300  134.6250 C   0  0  0  0  0  1  0  0  0  0  0  0
  191.8790  177.0120  138.2260 C   0  0  1  0  0  3  0  0  0  0  0  0
  193.2470  175.1390  136.5650 C   0  0  0  0  0  0  0  0  0  0  0  0
  185.8530  178.6280  143.3860 N   0  0  0  0  0  2  0  0  0  0  0  0
  184.4530  178.6020  143.0970 C   0  0  0  0  0  0  0  0  0  0  0  0
  184.0010  177.8790  142.1700 O   0  0  0  0  0  0  0  0  0  0  0  0
  183.5230  179.4420  143.8950 C   0  0  0  0  0  1  0  0  0  0  0  0
  2 24  1  1  0  0  0
  3 11  1  0  0  0  0
  4  3  1  0  0  0  0
  5 25  1  6  0  0  0
  6 18  1  0  0  0  0
  6  5  1  0  0  0  0
  7 24  1  6  0  0  0
  7 19  1  0  0  0  0
  9 28  1  0  0  0  0
  9 15  1  0  0  0  0
 10 20  1  0  0  0  0
 12  2  1  0  0  0  0
 12  8  1  1  0  0  0
 13 11  1  1  0  0  0
 13 12  1  0  0  0  0
 14 23  1  6  0  0  0
 14 27  1  0  0  0  0
 15 18  2  0  0  0  0
 16  1  1  0  0  0  0
 17  8  1  6  0  0  0
 17  7  1  0  0  0  0
 17 10  1  0  0  0  0
 19 16  1  0  0  0  0
 20 29  1  1  0  0  0
 20  1  1  0  0  0  0
 21  4  1  0  0  0  0
 22 21  1  1  0  0  0
 22 14  1  0  0  0  0
 22 13  1  0  0  0  0
 23 28  1  0  0  0  0
 26  9  1  0  0  0  0
 27  5  1  0  0  0  0
 27  2  1  0  0  0  0
 28  6  2  0  0  0  0
 30 29  1  0  0  0  0
 30 32  1  0  0  0  0
 31 30  2  0  0  0  0
M  END
>  <MODEL>
6

>  <REMARK>
 VINA RESULT:      -5.4      2.418      3.484
  Name = 
  1 active torsions:
  status: ('A' for Active; 'I' for Inactive)
    1  A    between atoms: C_20  and  N_29
                            x       y       z     vdW  Elec       q    Type
                         _______ _______ _______ _____ _____    ______ ____

>  <TORSDO>
F 1

$$$$
=
 OpenBabel11122410403D

 32 37  0  0  1  0  0  0  0  0999 V2000
  180.0060  182.9940  135.6820 C   0  0  0  0  0  2  0  0  0  0  0  0
  180.2060  177.7300  137.6590 C   0  0  1  0  0  3  0  0  0  0  0  0
  183.9630  179.6730  139.0570 C   0  0  0  0  0  2  0  0  0  0  0  0
  184.1280  178.9810  140.2700 O   0  0  0  0  0  0  0  0  0  0  0  0
  180.8130  175.5700  136.4510 C   0  0  1  0  0  3  0  0  0  0  0  0
  181.7880  174.4340  136.4350 C   0  0  0  0  0  0  0  0  0  0  0  0
  179.7230  179.7880  136.3720 C   0  0  1  0  0  3  0  0  0  0  0  0
  179.4840  179.7170  138.8840 C   0  0  0  0  0  2  0  0  0  0  0  0
  183.5070  173.2070  136.9430 N   0  0  0  0  0  0  0  0  0  0  0  0
  178.9380  181.8290  137.6520 C   0  0  0  0  0  2  0  0  0  0  0  0
  182.4820  179.7440  138.6680 C   0  0  0  0  0  2  0  0  0  0  0  0
  180.2820  178.4790  138.9260 N   0  0  2  0  0  0  0  0  0  0  0  0
  181.6570  178.6870  139.4290 C   0  0  1  0  0  3  0  0  0  0  0  0
  182.3820  176.5410  138.2760 C   0  0  1  0  0  3  0  0  0  0  0  0
  182.9300  172.7130  135.8580 N   0  0  0  0  0  0  0  0  0  0  0  0
  180.8750  181.8120  135.2710 C   0  0  0  0  0  2  0  0  0  0  0  0
  179.8220  180.5950  137.6750 C   0  0  2  0  0  3  0  0  0  0  0  0
  181.8770  173.4500  135.5160 N   0  0  0  0  0  0  0  0  0  0  0  0
  180.0050  180.5730  135.0840 C   0  0  0  0  0  2  0  0  0  0  0  0
  179.7550  183.0280  137.1880 C   0  0  2  0  0  3  0  0  0  0  0  0
  183.8920  177.6230  139.9820 C   0  0  0  0  0  2  0  0  0  0  0  0
  182.4240  177.3580  139.5760 C   0  0  1  0  0  3  0  0  0  0  0  0
  183.0460  175.1690  138.5020 C   0  0  0  0  0  2  0  0  0  0  0  0
  180.6350  178.5740  136.4550 C   0  0  0  0  0  2  0  0  0  0  0  0
  179.3990  175.0420  136.2880 C   0  0  0  0  0  1  0  0  0  0  0  0
  184.6760  172.6370  137.5890 C   0  0  0  0  0  1  0  0  0  0  0  0
  180.9260  176.3790  137.7670 C   0  0  1  0  0  3  0  0  0  0  0  0
  182.8250  174.2980  137.3120 C   0  0  0  0  0  0  0  0  0  0  0  0
  179.0460  184.2500  137.5380 N   0  0  0  0  0  2  0  0  0  0  0  0
  179.7230  185.4610  137.8840 C   0  0  0  0  0  0  0  0  0  0  0  0
  180.9810  185.5070  137.9220 O   0  0  0  0  0  0  0  0  0  0  0  0
  178.9320  186.6770  138.2070 C   0  0  0  0  0  1  0  0  0  0  0  0
  1 20  1  0  0  0  0
  2 24  1  6  0  0  0
  2 27  1  0  0  0  0
  2 12  1  0  0  0  0
  3  4  1  0  0  0  0
  5 25  1  1  0  0  0
  5 27  1  0  0  0  0
  6  5  1  0  0  0  0
  6 28  2  0  0  0  0
  7 19  1  6  0  0  0
  7 24  1  0  0  0  0
  7 17  1  0  0  0  0
  9 28  1  0  0  0  0
  9 26  1  0  0  0  0
 11  3  1  0  0  0  0
 12  8  1  6  0  0  0
 12 13  1  0  0  0  0
 13 11  1  6  0  0  0
 13 22  1  0  0  0  0
 14 23  1  1  0  0  0
 14 22  1  0  0  0  0
 15  9  1  0  0  0  0
 16  1  1  0  0  0  0
 17 10  1  6  0  0  0
 17  8  1  0  0  0  0
 18 15  2  0  0  0  0
 18  6  1  0  0  0  0
 19 16  1  0  0  0  0
 20 29  1  6  0  0  0
 20 10  1  0  0  0  0
 21  4  1  0  0  0  0
 22 21  1  6  0  0  0
 27 14  1  0  0  0  0
 28 23  1  0  0  0  0
 29 30  1  0  0  0  0
 30 31  2  0  0  0  0
 30 32  1  0  0  0  0
M  END
>  <MODEL>
7

>  <REMARK>
 VINA RESULT:      -5.3      7.713     10.928
  Name = 
  1 active torsions:
  status: ('A' for Active; 'I' for Inactive)
    1  A    between atoms: C_20  and  N_29
                            x       y       z     vdW  Elec       q    Type
                         _______ _______ _______ _____ _____    ______ ____

>  <TORSDO>
F 1

$$$$
=
 OpenBabel11122410403D

 32 37  0  0  1  0  0  0  0  0999 V2000
  196.2210  175.5100  134.9030 C   0  0  0  0  0  2  0  0  0  0  0  0
  191.4880  175.7300  137.9380 C   0  0  1  0  0  3  0  0  0  0  0  0
  190.6330  172.9120  134.5950 C   0  0  0  0  0  2  0  0  0  0  0  0
  189.7330  172.0570  135.2570 O   0  0  0  0  0  0  0  0  0  0  0  0
  189.6730  177.5170  137.9750 C   0  0  1  0  0  3  0  0  0  0  0  0
  188.2180  177.7600  137.7150 C   0  0  0  0  0  0  0  0  0  0  0  0
  193.6740  176.1930  136.8730 C   0  0  1  0  0  3  0  0  0  0  0  0
  193.2280  174.0200  138.0790 C   0  0  0  0  0  2  0  0  0  0  0  0
  186.1630  177.4070  137.1080 N   0  0  0  0  0  0  0  0  0  0  0  0
  195.4810  174.4250  137.0610 C   0  0  0  0  0  2  0  0  0  0  0  0
  191.6050  173.5540  135.5920 C   0  0  0  0  0  2  0  0  0  0  0  0
  191.7800  174.2880  138.0280 N   0  0  2  0  0  0  0  0  0  0  0  0
  191.0660  173.4590  137.0330 C   0  0  1  0  0  3  0  0  0  0  0  0
  189.1830  175.1670  136.9920 C   0  0  1  0  0  3  0  0  0  0  0  0
  186.3200  178.6960  137.3710 N   0  0  0  0  0  0  0  0  0  0  0  0
  194.8720  176.1470  134.5940 C   0  0  0  0  0  2  0  0  0  0  0  0
  193.9920  174.6910  136.9320 C   0  0  2  0  0  3  0  0  0  0  0  0
  187.5740  178.9450  137.7360 N   0  0  0  0  0  0  0  0  0  0  0  0
  194.4120  176.9820  135.7840 C   0  0  0  0  0  2  0  0  0  0  0  0
  196.0750  174.2000  135.6770 C   0  0  2  0  0  3  0  0  0  0  0  0
  188.8410  172.8920  135.9580 C   0  0  0  0  0  2  0  0  0  0  0  0
  189.5410  173.6750  137.0900 C   0  0  1  0  0  3  0  0  0  0  0  0
  187.6660  175.3510  137.1820 C   0  0  0  0  0  2  0  0  0  0  0  0
  192.1730  176.3900  136.7370 C   0  0  0  0  0  2  0  0  0  0  0  0
  190.0810  178.1740  139.2820 C   0  0  0  0  0  1  0  0  0  0  0  0
  184.9140  176.7950  136.6900 C   0  0  0  0  0  1  0  0  0  0  0  0
  189.9800  176.0000  138.0280 C   0  0  1  0  0  3  0  0  0  0  0  0
  187.3430  176.8020  137.2930 C   0  0  0  0  0  0  0  0  0  0  0  0
  197.3790  173.5670  135.8160 N   0  0  0  0  0  2  0  0  0  0  0  0
  197.5800  172.1660  135.6180 C   0  0  0  0  0  0  0  0  0  0  0  0
  196.6120  171.4110  135.3350 O   0  0  0  0  0  0  0  0  0  0  0  0
  198.9440  171.5940  135.7550 C   0  0  0  0  0  1  0  0  0  0  0  0
  1 20  1  0  0  0  0
  2 24  1  6  0  0  0
  2 12  1  0  0  0  0
  2 27  1  0  0  0  0
  3  4  1  0  0  0  0
  3 11  1  0  0  0  0
  4 21  1  0  0  0  0
  5 27  1  0  0  0  0
  5 25  1  1  0  0  0
  6 18  1  0  0  0  0
  6  5  1  0  0  0  0
  7 19  1  6  0  0  0
  7 17  1  0  0  0  0
  9 28  1  0  0  0  0
  9 15  1  0  0  0  0
 12  8  1  6  0  0  0
 13 11  1  6  0  0  0
 13 22  1  0  0  0  0
 13 12  1  0  0  0  0
 14 22  1  0  0  0  0
 14 23  1  1  0  0  0
 14 27  1  0  0  0  0
 15 18  2  0  0  0  0
 16  1  1  0  0  0  0
 16 19  1  0  0  0  0
 17 10  1  1  0  0  0
 17  8  1  0  0  0  0
 20 29  1  1  0  0  0
 20 10  1  0  0  0  0
 22 21  1  6  0  0  0
 23 28  1  0  0  0  0
 24  7  1  0  0  0  0
 26  9  1  0  0  0  0
 28  6  2  0  0  0  0
 30 32  1  0  0  0  0
 30 29  1  0  0  0  0
 31 30  2  0  0  0  0
M  END
>  <MODEL>
8

>  <REMARK>
 VINA RESULT:      -5.1      2.285      8.076
  Name = 
  1 active torsions:
  status: ('A' for Active; 'I' for Inactive)
    1  A    between atoms: C_20  and  N_29
                            x       y       z     vdW  Elec       q    Type
                         _______ _______ _______ _____ _____    ______ ____

>  <TORSDO>
F 1

$$$$
=
 OpenBabel11122410403D

 32 37  0  0  1  0  0  0  0  0999 V2000
  183.5490  178.7390  140.2150 C   0  0  0  0  0  2  0  0  0  0  0  0
  186.4570  176.6630  135.8680 C   0  0  1  0  0  3  0  0  0  0  0  0
  184.7330  173.1220  137.9520 C   0  0  0  0  0  2  0  0  0  0  0  0
  184.5580  172.2790  136.8400 O   0  0  0  0  0  0  0  0  0  0  0  0
  188.9690  176.3130  135.6220 C   0  0  1  0  0  3  0  0  0  0  0  0
  190.0230  175.2710  135.4120 C   0  0  0  0  0  0  0  0  0  0  0  0
  185.5650  178.0670  137.7010 C   0  0  1  0  0  3  0  0  0  0  0  0
  184.0490  177.0710  135.9440 C   0  0  0  0  0  2  0  0  0  0  0  0
  190.9550  173.3240  135.1690 N   0  0  0  0  0  0  0  0  0  0  0  0
  183.0710  178.5140  137.7440 C   0  0  0  0  0  2  0  0  0  0  0  0
  184.6650  174.5960  137.5330 C   0  0  0  0  0  2  0  0  0  0  0  0
  185.1170  176.1360  135.5510 N   0  0  2  0  0  0  0  0  0  0  0  0
  184.8810  174.7520  136.0150 C   0  0  1  0  0  3  0  0  0  0  0  0
  187.3700  174.2770  135.7980 C   0  0  1  0  0  3  0  0  0  0  0  0
  191.9010  174.2440  135.2850 N   0  0  0  0  0  0  0  0  0  0  0  0
  184.8610  177.9670  140.1770 C   0  0  0  0  0  2  0  0  0  0  0  0
  184.1620  177.5130  137.4070 C   0  0  2  0  0  3  0  0  0  0  0  0
  191.3600  175.4480  135.4450 N   0  0  0  0  0  0  0  0  0  0  0  0
  185.7880  178.5770  139.1310 C   0  0  0  0  0  2  0  0  0  0  0  0
  182.5620  178.2500  139.1550 C   0  0  2  0  0  3  0  0  0  0  0  0
  185.7460  172.3690  136.0890 C   0  0  0  0  0  2  0  0  0  0  0  0
  185.9510  173.7760  135.4850 C   0  0  1  0  0  3  0  0  0  0  0  0
  188.4070  173.3460  135.1430 C   0  0  0  0  0  2  0  0  0  0  0  0
  186.6080  177.0180  137.3510 C   0  0  0  0  0  2  0  0  0  0  0  0
  189.2390  177.5120  134.7300 C   0  0  0  0  0  1  0  0  0  0  0  0
  191.2000  171.9060  134.9730 C   0  0  0  0  0  1  0  0  0  0  0  0
  187.5600  175.7430  135.3270 C   0  0  1  0  0  3  0  0  0  0  0  0
  189.7690  173.9390  135.2680 C   0  0  0  0  0  0  0  0  0  0  0  0
  181.2820  178.9200  139.3330 N   0  0  0  0  0  2  0  0  0  0  0  0
  180.2240  178.3650  140.1180 C   0  0  0  0  0  0  0  0  0  0  0  0
  180.3560  177.2440  140.6750 O   0  0  0  0  0  0  0  0  0  0  0  0
  178.9530  179.1190  140.2730 C   0  0  0  0  0  1  0  0  0  0  0  0
  2 24  1  1  0  0  0
  4  3  1  0  0  0  0
  5 25  1  6  0  0  0
  6 18  1  0  0  0  0
  6  5  1  0  0  0  0
  7 24  1  1  0  0  0
  7 19  1  0  0  0  0
  9 28  1  0  0  0  0
  9 15  1  0  0  0  0
 10 20  1  0  0  0  0
 11  3  1  0  0  0  0
 12  2  1  0  0  0  0
 12  8  1  1  0  0  0
 12 13  1  0  0  0  0
 13 11  1  1  0  0  0
 14 23  1  6  0  0  0
 15 18  2  0  0  0  0
 16  1  1  0  0  0  0
 17  8  1  6  0  0  0
 17  7  1  0  0  0  0
 17 10  1  0  0  0  0
 19 16  1  0  0  0  0
 20 29  1  1  0  0  0
 20  1  1  0  0  0  0
 21  4  1  0  0  0  0
 22 14  1  0  0  0  0
 22 13  1  0  0  0  0
 22 21  1  1  0  0  0
 23 28  1  0  0  0  0
 26  9  1  0  0  0  0
 27  5  1  0  0  0  0
 27 14  1  0  0  0  0
 27  2  1  0  0  0  0
 28  6  2  0  0  0  0
 29 30  1  0  0  0  0
 30 32  1  0  0  0  0
 30 31  2  0  0  0  0
M  END
>  <MODEL>
9

>  <REMARK>
 VINA RESULT:      -4.4      3.122      4.806
  Name = 
  1 active torsions:
  status: ('A' for Active; 'I' for Inactive)
    1  A    between atoms: C_20  and  N_29
                            x       y       z     vdW  Elec       q    Type
                         _______ _______ _______ _____ _____    ______ ____

>  <TORSDO>
F 1

$$$$
