=
 OpenBabel11122412153D

 34 40  0  0  1  0  0  0  0  0999 V2000
  184.3130  178.6370  144.0380 C   0  0  0  0  0  0  0  0  0  0  0  0
  181.8680  178.8340  143.2790 C   0  0  0  0  0  2  0  0  0  0  0  0
  191.2700  178.1660  143.3290 O   0  0  0  0  0  0  0  0  0  0  0  0
  186.6060  178.0200  144.6240 C   0  0  0  0  0  0  0  0  0  0  0  0
  188.4240  177.9580  142.7850 C   0  0  1  0  0  3  0  0  0  0  0  0
  190.3230  177.0780  141.4150 C   0  0  0  0  0  2  0  0  0  0  0  0
  191.4400  177.0890  142.4520 C   0  0  0  0  0  2  0  0  0  0  0  0
  190.2320  177.0320  145.2030 C   0  0  0  0  0  2  0  0  0  0  0  0
  183.5570  178.3270  141.7120 C   0  0  2  0  0  3  0  0  0  0  0  0
  183.6560  179.9240  139.0310 C   0  0  0  0  0  2  0  0  0  0  0  0
  187.3660  178.6730  141.9400 C   0  0  0  0  0  2  0  0  0  0  0  0
  189.0700  178.0150  145.2130 C   0  0  0  0  0  2  0  0  0  0  0  0
  184.9580  178.6400  141.1870 C   0  0  1  0  0  3  0  0  0  0  0  0
  181.2110  178.8060  141.8990 C   0  0  0  0  0  2  0  0  0  0  0  0
  187.9980  177.5690  144.2190 C   0  0  1  0  0  3  0  0  0  0  0  0
  191.4970  177.6560  144.6130 C   0  0  0  0  0  2  0  0  0  0  0  0
  182.4480  179.9030  139.9870 C   0  0  2  0  0  3  0  0  0  0  0  0
  185.6250  178.2730  143.6440 C   0  0  0  0  0  0  0  0  0  0  0  0
  188.9790  176.7470  142.0510 C   0  0  0  0  0  2  0  0  0  0  0  0
  185.9890  178.0760  142.1820 C   0  0  2  0  0  3  0  0  0  0  0  0
  184.9650  178.4650  146.3650 C   0  0  0  0  0  3  0  0  0  0  0  0
  184.2110  178.5330  138.7240 C   0  0  0  0  0  2  0  0  0  0  0  0
  186.2540  178.0910  145.9810 C   0  0  0  0  0  3  0  0  0  0  0  0
  185.2010  178.0530  139.7910 C   0  0  0  0  0  2  0  0  0  0  0  0
  182.3280  178.6340  140.8610 C   0  0  1  0  0  3  0  0  0  0  0  0
  184.0040  178.7540  145.3980 C   0  0  0  0  0  3  0  0  0  0  0  0
  183.3310  179.0770  142.9900 C   0  0  2  0  0  3  0  0  0  0  0  0
  181.1730  180.0950  139.1760 C   0  0  0  0  0  2  0  0  0  0  0  0
  181.4870  180.7430  137.8380 C   0  0  0  0  0  2  0  0  0  0  0  0
  180.9210  183.7270  136.2330 N   0  0  0  0  0  2  0  0  0  0  0  0
  180.0410  181.7150  136.0730 C   0  0  0  0  0  2  0  0  0  0  0  0
  180.4570  181.8110  137.5160 C   0  0  2  0  0  3  0  0  0  0  0  0
  180.7530  182.6920  135.3630 O   0  0  0  0  0  0  0  0  0  0  0  0
  181.1150  183.1510  137.5530 C   0  0  0  0  0  2  0  0  0  0  0  0
  1 26  1  0  0  0  0
  3 16  1  0  0  0  0
  4 23  2  0  0  0  0
  5 11  1  6  0  0  0
  5 15  1  0  0  0  0
  6 19  1  0  0  0  0
  6  7  1  0  0  0  0
  7  3  1  0  0  0  0
  8 12  1  0  0  0  0
  9 27  1  0  0  0  0
 10 17  1  0  0  0  0
 11 20  1  0  0  0  0
 13  9  1  0  0  0  0
 13 20  1  0  0  0  0
 14  2  1  0  0  0  0
 15  4  1  0  0  0  0
 15 12  1  0  0  0  0
 16  8  1  0  0  0  0
 17 25  1  0  0  0  0
 18  1  2  0  0  0  0
 18  4  1  0  0  0  0
 19  5  1  0  0  0  0
 20 18  1  0  0  0  0
 22 10  1  0  0  0  0
 22 24  1  0  0  0  0
 23 21  1  0  0  0  0
 24 13  1  0  0  0  0
 25  9  1  0  0  0  0
 25 14  1  0  0  0  0
 26 21  2  0  0  0  0
 27  2  1  0  0  0  0
 27  1  1  0  0  0  0
 28 17  1  0  0  0  0
 29 28  1  0  0  0  0
 30 34  1  0  0  0  0
 31 32  1  0  0  0  0
 32 34  1  0  0  0  0
 32 29  1  0  0  0  0
 33 31  1  0  0  0  0
 33 30  1  0  0  0  0
M  END
>  <MODEL>
1

>  <REMARK>
 VINA RESULT:     -11.1      0.000      0.000
  Name = 
  3 active torsions:
  status: ('A' for Active; 'I' for Inactive)
    1  A    between atoms: C_17  and  C_28
    2  A    between atoms: C_28  and  C_29
    3  A    between atoms: C_29  and  C_32
                            x       y       z     vdW  Elec       q    Type
                         _______ _______ _______ _____ _____    ______ ____

>  <TORSDO>
F 3

$$$$
=
 OpenBabel11122412153D

 34 40  0  0  1  0  0  0  0  0999 V2000
  184.3470  178.6270  144.0820 C   0  0  0  0  0  0  0  0  0  0  0  0
  181.8850  178.8050  143.3730 C   0  0  0  0  0  2  0  0  0  0  0  0
  191.2910  178.2000  143.2300 O   0  0  0  0  0  0  0  0  0  0  0  0
  186.6550  178.0260  144.6220 C   0  0  0  0  0  0  0  0  0  0  0  0
  188.4350  177.9730  142.7460 C   0  0  1  0  0  3  0  0  0  0  0  0
  190.3110  177.1020  141.3390 C   0  0  0  0  0  2  0  0  0  0  0  0
  191.4490  177.1230  142.3520 C   0  0  0  0  0  2  0  0  0  0  0  0
  190.2990  177.0640  145.1280 C   0  0  0  0  0  2  0  0  0  0  0  0
  183.5450  178.3050  141.7730 C   0  0  2  0  0  3  0  0  0  0  0  0
  183.5780  179.8970  139.0860 C   0  0  0  0  0  2  0  0  0  0  0  0
  187.3560  178.6790  141.9210 C   0  0  0  0  0  2  0  0  0  0  0  0
  189.1310  178.0400  145.1590 C   0  0  0  0  0  2  0  0  0  0  0  0
  184.9320  178.6270  141.2180 C   0  0  1  0  0  3  0  0  0  0  0  0
  181.2000  178.7700  142.0070 C   0  0  0  0  0  2  0  0  0  0  0  0
  188.0420  177.5840  144.1890 C   0  0  1  0  0  3  0  0  0  0  0  0
  191.5470  177.6950  144.5110 C   0  0  0  0  0  2  0  0  0  0  0  0
  182.3890  179.8700  140.0670 C   0  0  2  0  0  3  0  0  0  0  0  0
  185.6520  178.2700  143.6620 C   0  0  0  0  0  0  0  0  0  0  0  0
  188.9830  176.7630  142.0030 C   0  0  0  0  0  2  0  0  0  0  0  0
  185.9880  178.0720  142.1930 C   0  0  2  0  0  3  0  0  0  0  0  0
  185.0470  178.4640  146.3950 C   0  0  0  0  0  3  0  0  0  0  0  0
  184.1360  178.5090  138.7710 C   0  0  0  0  0  2  0  0  0  0  0  0
  186.3300  178.0980  145.9860 C   0  0  0  0  0  3  0  0  0  0  0  0
  185.1510  178.0390  139.8180 C   0  0  0  0  0  2  0  0  0  0  0  0
  182.2960  178.6030  140.9470 C   0  0  1  0  0  3  0  0  0  0  0  0
  184.0640  178.7450  145.4480 C   0  0  0  0  0  3  0  0  0  0  0  0
  183.3400  179.0580  143.0530 C   0  0  2  0  0  3  0  0  0  0  0  0
  181.0970  180.0510  139.2820 C   0  0  0  0  0  2  0  0  0  0  0  0
  181.3910  180.1830  137.7970 C   0  0  0  0  0  2  0  0  0  0  0  0
  181.4490  177.0380  136.4150 N   0  0  0  0  0  2  0  0  0  0  0  0
  180.1720  178.0260  137.9120 C   0  0  0  0  0  2  0  0  0  0  0  0
  180.6030  179.1510  137.0110 C   0  0  2  0  0  3  0  0  0  0  0  0
  181.0680  176.9650  137.7210 O   0  0  0  0  0  0  0  0  0  0  0  0
  181.5240  178.4480  136.0680 C   0  0  0  0  0  2  0  0  0  0  0  0
  1 26  1  0  0  0  0
  3 16  1  0  0  0  0
  4 23  2  0  0  0  0
  5 11  1  6  0  0  0
  5 15  1  0  0  0  0
  6 19  1  0  0  0  0
  6  7  1  0  0  0  0
  7  3  1  0  0  0  0
  8 12  1  0  0  0  0
  9 27  1  0  0  0  0
 10 17  1  0  0  0  0
 11 20  1  0  0  0  0
 13  9  1  0  0  0  0
 13 20  1  0  0  0  0
 14  2  1  0  0  0  0
 15  4  1  0  0  0  0
 15 12  1  0  0  0  0
 16  8  1  0  0  0  0
 17 25  1  0  0  0  0
 18  1  2  0  0  0  0
 18  4  1  0  0  0  0
 19  5  1  0  0  0  0
 20 18  1  0  0  0  0
 22 10  1  0  0  0  0
 22 24  1  0  0  0  0
 23 21  1  0  0  0  0
 24 13  1  0  0  0  0
 25  9  1  0  0  0  0
 25 14  1  0  0  0  0
 26 21  2  0  0  0  0
 27  2  1  0  0  0  0
 27  1  1  0  0  0  0
 28 17  1  0  0  0  0
 29 28  1  0  0  0  0
 30 33  1  0  0  0  0
 32 29  1  0  0  0  0
 32 31  1  0  0  0  0
 33 31  1  0  0  0  0
 34 30  1  0  0  0  0
 34 32  1  0  0  0  0
M  END
>  <MODEL>
2

>  <REMARK>
 VINA RESULT:     -10.7      1.747      1.977
  Name = 
  3 active torsions:
  status: ('A' for Active; 'I' for Inactive)
    1  A    between atoms: C_17  and  C_28
    2  A    between atoms: C_28  and  C_29
    3  A    between atoms: C_29  and  C_32
                            x       y       z     vdW  Elec       q    Type
                         _______ _______ _______ _____ _____    ______ ____

>  <TORSDO>
F 3

$$$$
=
 OpenBabel11122412153D

 34 40  0  0  1  0  0  0  0  0999 V2000
  182.3640  178.6050  143.6510 C   0  0  0  0  0  0  0  0  0  0  0  0
  183.8060  179.0030  145.7380 C   0  0  0  0  0  2  0  0  0  0  0  0
  181.0040  177.1280  136.9350 O   0  0  0  0  0  0  0  0  0  0  0  0
  181.1360  178.6350  141.5360 C   0  0  0  0  0  0  0  0  0  0  0  0
  182.3610  178.0410  139.3370 C   0  0  1  0  0  3  0  0  0  0  0  0
  183.1200  178.2530  136.9630 C   0  0  0  0  0  2  0  0  0  0  0  0
  181.8020  178.0360  136.2300 C   0  0  0  0  0  2  0  0  0  0  0  0
  179.5260  178.6630  138.0910 C   0  0  0  0  0  2  0  0  0  0  0  0
  184.8120  178.8950  143.6070 C   0  0  2  0  0  3  0  0  0  0  0  0
  187.3340  177.0950  143.2180 C   0  0  0  0  0  2  0  0  0  0  0  0
  183.4740  177.5620  140.2730 C   0  0  0  0  0  2  0  0  0  0  0  0
  179.8500  178.0320  139.4380 C   0  0  0  0  0  2  0  0  0  0  0  0
  184.9000  178.1720  142.2630 C   0  0  1  0  0  3  0  0  0  0  0  0
  185.3180  179.0810  145.9480 C   0  0  0  0  0  2  0  0  0  0  0  0
  181.1180  178.6580  140.0180 C   0  0  1  0  0  3  0  0  0  0  0  0
  179.7140  177.6720  136.9420 C   0  0  0  0  0  2  0  0  0  0  0  0
  186.7750  177.5250  144.5890 C   0  0  2  0  0  3  0  0  0  0  0  0
  182.3590  178.5670  142.2340 C   0  0  0  0  0  0  0  0  0  0  0  0
  182.9090  178.9880  138.2800 C   0  0  0  0  0  2  0  0  0  0  0  0
  183.6510  178.5260  141.4360 C   0  0  2  0  0  3  0  0  0  0  0  0
  179.9500  178.8060  143.6540 C   0  0  0  0  0  3  0  0  0  0  0  0
  187.4750  178.2530  142.2310 C   0  0  0  0  0  2  0  0  0  0  0  0
  179.9420  178.7830  142.2580 C   0  0  0  0  0  3  0  0  0  0  0  0
  186.1680  178.5440  141.4840 C   0  0  0  0  0  2  0  0  0  0  0  0
  185.9830  178.8530  144.5840 C   0  0  1  0  0  3  0  0  0  0  0  0
  181.1540  178.6980  144.3480 C   0  0  0  0  0  3  0  0  0  0  0  0
  183.6510  178.3510  144.3840 C   0  0  2  0  0  3  0  0  0  0  0  0
  187.9220  177.6100  145.5860 C   0  0  0  0  0  2  0  0  0  0  0  0
  189.1530  176.9060  145.0410 C   0  0  0  0  0  2  0  0  0  0  0  0
  191.7400  176.4070  147.2460 N   0  0  0  0  0  2  0  0  0  0  0  0
  191.6310  176.8200  145.0860 C   0  0  0  0  0  2  0  0  0  0  0  0
  190.4120  177.5030  145.6430 C   0  0  2  0  0  3  0  0  0  0  0  0
  192.0550  175.8760  146.0310 O   0  0  0  0  0  0  0  0  0  0  0  0
  190.4880  177.1280  147.0870 C   0  0  0  0  0  2  0  0  0  0  0  0
  1 26  1  0  0  0  0
  1 27  1  0  0  0  0
  2 14  1  0  0  0  0
  3 16  1  0  0  0  0
  4 18  1  0  0  0  0
  4 23  2  0  0  0  0
  5 19  1  6  0  0  0
  5 15  1  0  0  0  0
  5 11  1  0  0  0  0
  6 19  1  0  0  0  0
  7  3  1  0  0  0  0
  7  6  1  0  0  0  0
  8 12  1  0  0  0  0
  9 27  1  0  0  0  0
  9 25  1  0  0  0  0
 10 17  1  0  0  0  0
 11 20  1  0  0  0  0
 12 15  1  0  0  0  0
 13  9  1  0  0  0  0
 15  4  1  0  0  0  0
 16  8  1  0  0  0  0
 17 28  1  0  0  0  0
 18  1  2  0  0  0  0
 20 18  1  0  0  0  0
 20 13  1  0  0  0  0
 21 26  2  0  0  0  0
 22 10  1  0  0  0  0
 23 21  1  0  0  0  0
 24 22  1  0  0  0  0
 24 13  1  0  0  0  0
 25 17  1  0  0  0  0
 25 14  1  0  0  0  0
 27  2  1  0  0  0  0
 29 28  1  0  0  0  0
 29 32  1  0  0  0  0
 31 32  1  0  0  0  0
 31 33  1  0  0  0  0
 32 34  1  0  0  0  0
 33 30  1  0  0  0  0
 34 30  1  0  0  0  0
M  END
>  <MODEL>
3

>  <REMARK>
 VINA RESULT:     -10.3      3.604      9.097
  Name = 
  3 active torsions:
  status: ('A' for Active; 'I' for Inactive)
    1  A    between atoms: C_17  and  C_28
    2  A    between atoms: C_28  and  C_29
    3  A    between atoms: C_29  and  C_32
                            x       y       z     vdW  Elec       q    Type
                         _______ _______ _______ _____ _____    ______ ____

>  <TORSDO>
F 3

$$$$
=
 OpenBabel11122412153D

 34 40  0  0  1  0  0  0  0  0999 V2000
  190.6140  177.1970  143.1000 C   0  0  0  0  0  0  0  0  0  0  0  0
  192.4290  177.0330  141.2910 C   0  0  0  0  0  2  0  0  0  0  0  0
  184.1410  177.8740  145.7000 O   0  0  0  0  0  0  0  0  0  0  0  0
  188.8830  177.7950  144.7210 C   0  0  0  0  0  0  0  0  0  0  0  0
  186.4370  178.0820  143.9320 C   0  0  1  0  0  3  0  0  0  0  0  0
  184.1840  179.1360  143.6630 C   0  0  0  0  0  2  0  0  0  0  0  0
  183.6610  179.0390  145.0920 C   0  0  0  0  0  2  0  0  0  0  0  0
  185.9880  178.7870  146.9770 C   0  0  0  0  0  2  0  0  0  0  0  0
  190.2500  177.7330  140.7210 C   0  0  2  0  0  3  0  0  0  0  0  0
  188.8410  176.4240  138.2610 C   0  0  0  0  0  2  0  0  0  0  0  0
  186.9460  177.4380  142.6390 C   0  0  0  0  0  2  0  0  0  0  0  0
  186.9610  177.7860  146.3710 C   0  0  0  0  0  2  0  0  0  0  0  0
  188.7470  177.5030  140.8720 C   0  0  1  0  0  3  0  0  0  0  0  0
  192.3880  177.1910  139.7710 C   0  0  0  0  0  2  0  0  0  0  0  0
  187.4910  178.3120  145.0380 C   0  0  1  0  0  3  0  0  0  0  0  0
  184.5550  178.2530  146.9830 C   0  0  0  0  0  2  0  0  0  0  0  0
  190.3500  176.3220  138.5550 C   0  0  2  0  0  3  0  0  0  0  0  0
  189.2940  177.6260  143.3830 C   0  0  0  0  0  0  0  0  0  0  0  0
  185.6880  179.3740  143.6380 C   0  0  0  0  0  2  0  0  0  0  0  0
  188.3190  177.9800  142.2730 C   0  0  2  0  0  3  0  0  0  0  0  0
  191.1040  177.1410  145.4720 C   0  0  0  0  0  3  0  0  0  0  0  0
  188.2990  177.8500  138.3590 C   0  0  0  0  0  2  0  0  0  0  0  0
  189.8080  177.5760  145.7540 C   0  0  0  0  0  3  0  0  0  0  0  0
  187.9340  178.2360  139.7970 C   0  0  0  0  0  2  0  0  0  0  0  0
  190.9360  177.4910  139.3790 C   0  0  1  0  0  3  0  0  0  0  0  0
  191.5000  176.9340  144.1520 C   0  0  0  0  0  3  0  0  0  0  0  0
  190.9830  176.8490  141.6860 C   0  0  2  0  0  3  0  0  0  0  0  0
  191.1020  176.1910  137.2370 C   0  0  0  0  0  2  0  0  0  0  0  0
  191.4490  174.7370  136.9660 C   0  0  0  0  0  2  0  0  0  0  0  0
  194.5900  176.1250  136.8440 N   0  0  0  0  0  2  0  0  0  0  0  0
  193.8180  174.1370  137.3910 C   0  0  0  0  0  2  0  0  0  0  0  0
  192.8380  174.6310  136.3620 C   0  0  2  0  0  3  0  0  0  0  0  0
  194.5080  175.2520  137.8870 O   0  0  0  0  0  0  0  0  0  0  0  0
  193.3570  176.0040  136.0840 C   0  0  0  0  0  2  0  0  0  0  0  0
  1 18  2  0  0  0  0
  1 26  1  0  0  0  0
  2 27  1  0  0  0  0
  3 16  1  0  0  0  0
  4 15  1  0  0  0  0
  4 23  2  0  0  0  0
  5 11  1  6  0  0  0
  5 15  1  0  0  0  0
  6  7  1  0  0  0  0
  7  3  1  0  0  0  0
  8 16  1  0  0  0  0
  9 13  1  0  0  0  0
  9 27  1  0  0  0  0
 10 22  1  0  0  0  0
 10 17  1  0  0  0  0
 12  8  1  0  0  0  0
 13 20  1  0  0  0  0
 14  2  1  0  0  0  0
 15 12  1  0  0  0  0
 17 25  1  0  0  0  0
 18  4  1  0  0  0  0
 19  6  1  0  0  0  0
 19  5  1  0  0  0  0
 20 11  1  0  0  0  0
 20 18  1  0  0  0  0
 21 23  1  0  0  0  0
 22 24  1  0  0  0  0
 24 13  1  0  0  0  0
 25 14  1  0  0  0  0
 25  9  1  0  0  0  0
 26 21  2  0  0  0  0
 27  1  1  0  0  0  0
 28 17  1  0  0  0  0
 29 28  1  0  0  0  0
 30 33  1  0  0  0  0
 31 33  1  0  0  0  0
 32 29  1  0  0  0  0
 32 31  1  0  0  0  0
 34 32  1  0  0  0  0
 34 30  1  0  0  0  0
M  END
>  <MODEL>
4

>  <REMARK>
 VINA RESULT:      -9.8      4.938      8.532
  Name = 
  3 active torsions:
  status: ('A' for Active; 'I' for Inactive)
    1  A    between atoms: C_17  and  C_28
    2  A    between atoms: C_28  and  C_29
    3  A    between atoms: C_29  and  C_32
                            x       y       z     vdW  Elec       q    Type
                         _______ _______ _______ _____ _____    ______ ____

>  <TORSDO>
F 3

$$$$
=
 OpenBabel11122412153D

 34 40  0  0  1  0  0  0  0  0999 V2000
  187.4420  178.0770  140.7650 C   0  0  0  0  0  0  0  0  0  0  0  0
  185.6170  178.9280  139.1720 C   0  0  0  0  0  2  0  0  0  0  0  0
  190.2500  176.0230  146.8490 O   0  0  0  0  0  0  0  0  0  0  0  0
  189.1930  177.6950  142.4280 C   0  0  0  0  0  0  0  0  0  0  0  0
  188.5480  177.3590  144.9110 C   0  0  1  0  0  3  0  0  0  0  0  0
  188.5950  177.6690  147.3930 C   0  0  0  0  0  2  0  0  0  0  0  0
  189.9630  177.0810  147.7190 C   0  0  0  0  0  2  0  0  0  0  0  0
  191.6800  177.1550  145.2540 C   0  0  0  0  0  2  0  0  0  0  0  0
  185.2820  179.0050  141.5060 C   0  0  2  0  0  3  0  0  0  0  0  0
  182.5980  177.9240  142.6810 C   0  0  0  0  0  2  0  0  0  0  0  0
  187.1250  177.2310  144.3580 C   0  0  0  0  0  2  0  0  0  0  0  0
  190.8240  176.6880  144.0850 C   0  0  0  0  0  2  0  0  0  0  0  0
  185.3980  178.2780  142.8450 C   0  0  1  0  0  3  0  0  0  0  0  0
  184.1860  179.4130  139.4070 C   0  0  0  0  0  2  0  0  0  0  0  0
  189.6560  177.6510  143.8740 C   0  0  1  0  0  3  0  0  0  0  0  0
  191.5790  176.2050  146.4470 C   0  0  0  0  0  2  0  0  0  0  0  0
  182.8280  178.2460  141.1920 C   0  0  2  0  0  3  0  0  0  0  0  0
  187.8480  177.9820  142.1190 C   0  0  0  0  0  0  0  0  0  0  0  0
  188.6020  178.3750  146.0430 C   0  0  0  0  0  2  0  0  0  0  0  0
  186.8810  178.2540  143.2590 C   0  0  2  0  0  3  0  0  0  0  0  0
  189.7140  177.6300  140.0520 C   0  0  0  0  0  3  0  0  0  0  0  0
  183.0620  179.0380  143.6210 C   0  0  0  0  0  2  0  0  0  0  0  0
  190.1210  177.5500  141.3850 C   0  0  0  0  0  3  0  0  0  0  0  0
  184.5570  178.9410  143.9430 C   0  0  0  0  0  2  0  0  0  0  0  0
  183.9100  179.3150  140.9130 C   0  0  1  0  0  3  0  0  0  0  0  0
  188.3770  177.8740  139.7430 C   0  0  0  0  0  3  0  0  0  0  0  0
  185.9790  178.2040  140.4480 C   0  0  2  0  0  3  0  0  0  0  0  0
  181.5060  178.6730  140.5680 C   0  0  0  0  0  2  0  0  0  0  0  0
  180.3520  177.9080  141.1940 C   0  0  0  0  0  2  0  0  0  0  0  0
  179.2340  180.1280  143.5670 N   0  0  0  0  0  2  0  0  0  0  0  0
  179.6900  180.2880  141.4190 C   0  0  0  0  0  2  0  0  0  0  0  0
  179.2380  178.8630  141.5830 C   0  0  2  0  0  3  0  0  0  0  0  0
  180.0560  180.7640  142.6860 O   0  0  0  0  0  0  0  0  0  0  0  0
  179.0190  178.7830  143.0590 C   0  0  0  0  0  2  0  0  0  0  0  0
  1 18  1  0  0  0  0
  2 14  1  0  0  0  0
  2 27  1  0  0  0  0
  3  7  1  0  0  0  0
  4 15  1  0  0  0  0
  5 11  1  6  0  0  0
  5 19  1  0  0  0  0
  6  7  1  0  0  0  0
  8 16  1  0  0  0  0
  9 13  1  0  0  0  0
 10 22  1  0  0  0  0
 12  8  1  0  0  0  0
 13 20  1  0  0  0  0
 13 24  1  0  0  0  0
 14 25  1  0  0  0  0
 15 12  1  0  0  0  0
 15  5  1  0  0  0  0
 16  3  1  0  0  0  0
 17 10  1  0  0  0  0
 18  4  2  0  0  0  0
 18 20  1  0  0  0  0
 19  6  1  0  0  0  0
 20 11  1  0  0  0  0
 21 23  2  0  0  0  0
 22 24  1  0  0  0  0
 23  4  1  0  0  0  0
 25 17  1  0  0  0  0
 25  9  1  0  0  0  0
 26 21  1  0  0  0  0
 26  1  2  0  0  0  0
 27  1  1  0  0  0  0
 27  9  1  0  0  0  0
 28 17  1  0  0  0  0
 28 29  1  0  0  0  0
 29 32  1  0  0  0  0
 31 32  1  0  0  0  0
 31 33  1  0  0  0  0
 32 34  1  0  0  0  0
 33 30  1  0  0  0  0
 34 30  1  0  0  0  0
M  END
>  <MODEL>
5

>  <REMARK>
 VINA RESULT:      -9.7      2.828      4.629
  Name = 
  3 active torsions:
  status: ('A' for Active; 'I' for Inactive)
    1  A    between atoms: C_17  and  C_28
    2  A    between atoms: C_28  and  C_29
    3  A    between atoms: C_29  and  C_32
                            x       y       z     vdW  Elec       q    Type
                         _______ _______ _______ _____ _____    ______ ____

>  <TORSDO>
F 3

$$$$
=
 OpenBabel11122412153D

 34 40  0  0  1  0  0  0  0  0999 V2000
  185.5170  178.6360  142.0040 C   0  0  0  0  0  0  0  0  0  0  0  0
  184.8340  178.5900  139.5300 C   0  0  0  0  0  2  0  0  0  0  0  0
  189.8330  178.2510  147.5140 O   0  0  0  0  0  0  0  0  0  0  0  0
  186.1920  178.2300  144.3200 C   0  0  0  0  0  0  0  0  0  0  0  0
  188.6890  177.8420  144.8750 C   0  0  1  0  0  3  0  0  0  0  0  0
  190.7140  176.7550  145.8620 C   0  0  0  0  0  2  0  0  0  0  0  0
  190.4750  177.0200  147.3430 C   0  0  0  0  0  2  0  0  0  0  0  0
  187.5440  177.5030  147.7990 C   0  0  0  0  0  2  0  0  0  0  0  0
  186.9660  177.8200  140.1840 C   0  0  2  0  0  3  0  0  0  0  0  0
  189.4770  178.8210  138.6210 C   0  0  0  0  0  2  0  0  0  0  0  0
  188.9180  178.3290  143.4410 C   0  0  0  0  0  2  0  0  0  0  0  0
  187.0560  178.4280  146.6930 C   0  0  0  0  0  2  0  0  0  0  0  0
  188.2130  178.0610  141.0330 C   0  0  1  0  0  3  0  0  0  0  0  0
  185.6040  178.2520  138.2530 C   0  0  0  0  0  2  0  0  0  0  0  0
  187.2160  177.7490  145.3330 C   0  0  1  0  0  3  0  0  0  0  0  0
  188.8200  178.0290  148.4560 C   0  0  0  0  0  2  0  0  0  0  0  0
  188.0260  178.9620  138.1190 C   0  0  2  0  0  3  0  0  0  0  0  0
  186.5010  178.2400  142.9440 C   0  0  0  0  0  0  0  0  0  0  0  0
  189.4040  176.5220  145.1220 C   0  0  0  0  0  2  0  0  0  0  0  0
  187.8700  177.7520  142.5030 C   0  0  2  0  0  3  0  0  0  0  0  0
  183.9340  178.9770  143.8060 C   0  0  0  0  0  3  0  0  0  0  0  0
  189.8120  177.4150  139.1190 C   0  0  0  0  0  2  0  0  0  0  0  0
  184.8960  178.5730  144.7340 C   0  0  0  0  0  3  0  0  0  0  0  0
  189.4010  177.2020  140.5800 C   0  0  0  0  0  2  0  0  0  0  0  0
  187.0410  177.9020  138.6620 C   0  0  1  0  0  3  0  0  0  0  0  0
  184.2490  179.0260  142.4490 C   0  0  0  0  0  3  0  0  0  0  0  0
  185.9110  178.8150  140.5650 C   0  0  2  0  0  3  0  0  0  0  0  0
  188.0250  178.9380  136.5970 C   0  0  0  0  0  2  0  0  0  0  0  0
  188.9150  177.8190  136.0830 C   0  0  0  0  0  2  0  0  0  0  0  0
  186.8340  175.3180  134.9790 N   0  0  0  0  0  2  0  0  0  0  0  0
  186.8260  177.5110  134.7820 C   0  0  0  0  0  2  0  0  0  0  0  0
  188.2880  177.1640  134.8650 C   0  0  2  0  0  3  0  0  0  0  0  0
  186.1040  176.4240  135.2950 O   0  0  0  0  0  0  0  0  0  0  0  0
  188.2370  175.6860  135.0770 C   0  0  0  0  0  2  0  0  0  0  0  0
  1 26  2  0  0  0  0
  1 18  1  0  0  0  0
  2 27  1  0  0  0  0
  3 16  1  0  0  0  0
  4 23  1  0  0  0  0
  4 15  1  0  0  0  0
  5 11  1  6  0  0  0
  5 19  1  0  0  0  0
  5 15  1  0  0  0  0
  6  7  1  0  0  0  0
  7  3  1  0  0  0  0
  8 16  1  0  0  0  0
  9 27  1  0  0  0  0
  9 13  1  0  0  0  0
 10 22  1  0  0  0  0
 12  8  1  0  0  0  0
 13 20  1  0  0  0  0
 14 25  1  0  0  0  0
 14  2  1  0  0  0  0
 15 12  1  0  0  0  0
 17 10  1  0  0  0  0
 17 25  1  0  0  0  0
 18  4  2  0  0  0  0
 19  6  1  0  0  0  0
 20 18  1  0  0  0  0
 20 11  1  0  0  0  0
 21 23  2  0  0  0  0
 22 24  1  0  0  0  0
 24 13  1  0  0  0  0
 25  9  1  0  0  0  0
 26 21  1  0  0  0  0
 27  1  1  0  0  0  0
 28 17  1  0  0  0  0
 29 28  1  0  0  0  0
 30 34  1  0  0  0  0
 30 33  1  0  0  0  0
 31 32  1  0  0  0  0
 31 33  1  0  0  0  0
 32 34  1  0  0  0  0
 32 29  1  0  0  0  0
M  END
>  <MODEL>
6

>  <REMARK>
 VINA RESULT:      -9.4      3.471      5.335
  Name = 
  3 active torsions:
  status: ('A' for Active; 'I' for Inactive)
    1  A    between atoms: C_17  and  C_28
    2  A    between atoms: C_28  and  C_29
    3  A    between atoms: C_29  and  C_32
                            x       y       z     vdW  Elec       q    Type
                         _______ _______ _______ _____ _____    ______ ____

>  <TORSDO>
F 3

$$$$
=
 OpenBabel11122412153D

 34 40  0  0  1  0  0  0  0  0999 V2000
  182.0530  178.6080  143.3500 C   0  0  0  0  0  0  0  0  0  0  0  0
  183.4650  179.1510  145.4240 C   0  0  0  0  0  2  0  0  0  0  0  0
  180.7890  176.7580  136.7080 O   0  0  0  0  0  0  0  0  0  0  0  0
  180.8410  178.4970  141.2280 C   0  0  0  0  0  0  0  0  0  0  0  0
  182.1000  177.8290  139.0700 C   0  0  1  0  0  3  0  0  0  0  0  0
  182.8730  177.9420  136.6930 C   0  0  0  0  0  2  0  0  0  0  0  0
  181.5670  177.6520  135.9640 C   0  0  0  0  0  2  0  0  0  0  0  0
  179.2600  178.3070  137.7750 C   0  0  0  0  0  2  0  0  0  0  0  0
  184.4910  178.9650  143.3080 C   0  0  2  0  0  3  0  0  0  0  0  0
  187.0650  177.2190  143.0280 C   0  0  0  0  0  2  0  0  0  0  0  0
  183.2190  177.4290  140.0370 C   0  0  0  0  0  2  0  0  0  0  0  0
  179.5900  177.7540  139.1540 C   0  0  0  0  0  2  0  0  0  0  0  0
  184.6110  178.1780  142.0030 C   0  0  1  0  0  3  0  0  0  0  0  0
  184.9730  179.2830  145.6400 C   0  0  0  0  0  2  0  0  0  0  0  0
  180.8360  178.4430  139.7110 C   0  0  1  0  0  3  0  0  0  0  0  0
  179.4840  177.2650  136.6790 C   0  0  0  0  0  2  0  0  0  0  0  0
  186.4830  177.7020  144.3710 C   0  0  2  0  0  3  0  0  0  0  0  0
  182.0600  178.4990  141.9370 C   0  0  0  0  0  0  0  0  0  0  0  0
  182.6310  178.7370  137.9700 C   0  0  0  0  0  2  0  0  0  0  0  0
  183.3590  178.4550  141.1510 C   0  0  2  0  0  3  0  0  0  0  0  0
  179.6330  178.7410  143.3270 C   0  0  0  0  0  3  0  0  0  0  0  0
  187.1830  178.3300  141.9840 C   0  0  0  0  0  2  0  0  0  0  0  0
  179.6370  178.6480  141.9340 C   0  0  0  0  0  3  0  0  0  0  0  0
  185.8750  178.5460  141.2150 C   0  0  0  0  0  2  0  0  0  0  0  0
  185.6560  179.0050  144.2940 C   0  0  1  0  0  3  0  0  0  0  0  0
  180.8350  178.7020  144.0330 C   0  0  0  0  0  3  0  0  0  0  0  0
  183.3400  178.4280  144.1040 C   0  0  2  0  0  3  0  0  0  0  0  0
  187.6200  177.8690  145.3710 C   0  0  0  0  0  2  0  0  0  0  0  0
  187.0880  177.8220  146.7930 C   0  0  0  0  0  2  0  0  0  0  0  0
  190.3650  177.4710  147.7630 N   0  0  0  0  0  2  0  0  0  0  0  0
  188.4970  177.9370  148.8310 C   0  0  0  0  0  2  0  0  0  0  0  0
  188.0490  177.0640  147.6900 C   0  0  2  0  0  3  0  0  0  0  0  0
  189.7620  178.4430  148.5040 O   0  0  0  0  0  0  0  0  0  0  0  0
  189.3320  176.8430  146.9560 C   0  0  0  0  0  2  0  0  0  0  0  0
  1 26  1  0  0  0  0
  1 27  1  0  0  0  0
  2 14  1  0  0  0  0
  4 23  2  0  0  0  0
  4 18  1  0  0  0  0
  5 19  1  6  0  0  0
  5 15  1  0  0  0  0
  5 11  1  0  0  0  0
  6 19  1  0  0  0  0
  7  6  1  0  0  0  0
  7  3  1  0  0  0  0
  8 12  1  0  0  0  0
  9 27  1  0  0  0  0
  9 25  1  0  0  0  0
 10 17  1  0  0  0  0
 11 20  1  0  0  0  0
 12 15  1  0  0  0  0
 13  9  1  0  0  0  0
 15  4  1  0  0  0  0
 16  3  1  0  0  0  0
 16  8  1  0  0  0  0
 17 28  1  0  0  0  0
 18  1  2  0  0  0  0
 20 18  1  0  0  0  0
 20 13  1  0  0  0  0
 21 26  2  0  0  0  0
 22 10  1  0  0  0  0
 23 21  1  0  0  0  0
 24 22  1  0  0  0  0
 24 13  1  0  0  0  0
 25 17  1  0  0  0  0
 25 14  1  0  0  0  0
 27  2  1  0  0  0  0
 28 29  1  0  0  0  0
 29 32  1  0  0  0  0
 30 33  1  0  0  0  0
 32 31  1  0  0  0  0
 33 31  1  0  0  0  0
 34 32  1  0  0  0  0
 34 30  1  0  0  0  0
M  END
>  <MODEL>
7

>  <REMARK>
 VINA RESULT:      -9.2      3.711      9.088
  Name = 
  3 active torsions:
  status: ('A' for Active; 'I' for Inactive)
    1  A    between atoms: C_17  and  C_28
    2  A    between atoms: C_28  and  C_29
    3  A    between atoms: C_29  and  C_32
                            x       y       z     vdW  Elec       q    Type
                         _______ _______ _______ _____ _____    ______ ____

>  <TORSDO>
F 3

$$$$
=
 OpenBabel11122412153D

 34 40  0  0  1  0  0  0  0  0999 V2000
  186.9030  178.2380  140.9230 C   0  0  0  0  0  0  0  0  0  0  0  0
  185.2650  178.9970  139.0970 C   0  0  0  0  0  2  0  0  0  0  0  0
  188.9840  176.3550  147.3460 O   0  0  0  0  0  0  0  0  0  0  0  0
  188.4390  177.9440  142.8040 C   0  0  0  0  0  0  0  0  0  0  0  0
  187.4930  177.6010  145.1860 C   0  0  1  0  0  3  0  0  0  0  0  0
  187.2060  177.9330  147.6490 C   0  0  0  0  0  2  0  0  0  0  0  0
  188.5440  177.4060  148.1570 C   0  0  0  0  0  2  0  0  0  0  0  0
  190.5610  177.5350  145.9330 C   0  0  0  0  0  2  0  0  0  0  0  0
  184.6290  179.0790  141.3680 C   0  0  2  0  0  3  0  0  0  0  0  0
  181.8630  177.8930  142.2020 C   0  0  0  0  0  2  0  0  0  0  0  0
  186.1610  177.4080  144.4570 C   0  0  0  0  0  2  0  0  0  0  0  0
  189.8830  177.0220  144.6700 C   0  0  0  0  0  2  0  0  0  0  0  0
  184.6010  178.3680  142.7200 C   0  0  1  0  0  3  0  0  0  0  0  0
  183.7980  179.4220  139.1400 C   0  0  0  0  0  2  0  0  0  0  0  0
  188.7130  177.9320  144.2970 C   0  0  1  0  0  3  0  0  0  0  0  0
  190.3450  176.5900  147.1150 C   0  0  0  0  0  2  0  0  0  0  0  0
  182.2700  178.2120  140.7500 C   0  0  2  0  0  3  0  0  0  0  0  0
  187.1350  178.1710  142.3200 C   0  0  0  0  0  0  0  0  0  0  0  0
  187.3580  178.6270  146.3020 C   0  0  0  0  0  2  0  0  0  0  0  0
  186.0180  178.4100  143.3220 C   0  0  2  0  0  3  0  0  0  0  0  0
  189.2650  177.8830  140.5150 C   0  0  0  0  0  3  0  0  0  0  0  0
  182.1550  179.0330  143.1780 C   0  0  0  0  0  2  0  0  0  0  0  0
  189.4990  177.8310  141.8910 C   0  0  0  0  0  3  0  0  0  0  0  0
  183.5990  179.0030  143.6920 C   0  0  0  0  0  2  0  0  0  0  0  0
  183.3330  179.3240  140.5990 C   0  0  1  0  0  3  0  0  0  0  0  0
  187.9700  178.0670  140.0330 C   0  0  0  0  0  3  0  0  0  0  0  0
  185.4890  178.3000  140.4190 C   0  0  2  0  0  3  0  0  0  0  0  0
  181.0230  178.5770  139.9560 C   0  0  0  0  0  2  0  0  0  0  0  0
  180.6350  180.0230  140.2110 C   0  0  0  0  0  2  0  0  0  0  0  0
  180.8560  181.9070  137.3460 N   0  0  0  0  0  2  0  0  0  0  0  0
  180.2420  179.8350  137.7690 C   0  0  0  0  0  2  0  0  0  0  0  0
  179.8730  180.5810  139.0230 C   0  0  2  0  0  3  0  0  0  0  0  0
  181.1820  180.6110  137.0770 O   0  0  0  0  0  0  0  0  0  0  0  0
  180.3790  181.9540  138.7180 C   0  0  0  0  0  2  0  0  0  0  0  0
  1 18  1  0  0  0  0
  2 14  1  0  0  0  0
  2 27  1  0  0  0  0
  3  7  1  0  0  0  0
  4 15  1  0  0  0  0
  5 11  1  6  0  0  0
  5 19  1  0  0  0  0
  6  7  1  0  0  0  0
  8 16  1  0  0  0  0
  9 13  1  0  0  0  0
 10 22  1  0  0  0  0
 12  8  1  0  0  0  0
 13 20  1  0  0  0  0
 13 24  1  0  0  0  0
 14 25  1  0  0  0  0
 15 12  1  0  0  0  0
 15  5  1  0  0  0  0
 16  3  1  0  0  0  0
 17 10  1  0  0  0  0
 18  4  2  0  0  0  0
 18 20  1  0  0  0  0
 19  6  1  0  0  0  0
 20 11  1  0  0  0  0
 21 23  2  0  0  0  0
 22 24  1  0  0  0  0
 23  4  1  0  0  0  0
 25 17  1  0  0  0  0
 25  9  1  0  0  0  0
 26 21  1  0  0  0  0
 26  1  2  0  0  0  0
 27  1  1  0  0  0  0
 27  9  1  0  0  0  0
 28 29  1  0  0  0  0
 28 17  1  0  0  0  0
 30 34  1  0  0  0  0
 31 32  1  0  0  0  0
 32 29  1  0  0  0  0
 33 30  1  0  0  0  0
 33 31  1  0  0  0  0
 34 32  1  0  0  0  0
M  END
>  <MODEL>
8

>  <REMARK>
 VINA RESULT:      -9.2      1.603      3.768
  Name = 
  3 active torsions:
  status: ('A' for Active; 'I' for Inactive)
    1  A    between atoms: C_17  and  C_28
    2  A    between atoms: C_28  and  C_29
    3  A    between atoms: C_29  and  C_32
                            x       y       z     vdW  Elec       q    Type
                         _______ _______ _______ _____ _____    ______ ____

>  <TORSDO>
F 3

$$$$
=
 OpenBabel11122412153D

 34 40  0  0  1  0  0  0  0  0999 V2000
  187.4510  178.0700  140.7630 C   0  0  0  0  0  0  0  0  0  0  0  0
  185.6290  178.9230  139.1670 C   0  0  0  0  0  2  0  0  0  0  0  0
  190.2460  176.0100  146.8510 O   0  0  0  0  0  0  0  0  0  0  0  0
  189.1990  177.6850  142.4290 C   0  0  0  0  0  0  0  0  0  0  0  0
  188.5490  177.3490  144.9100 C   0  0  1  0  0  3  0  0  0  0  0  0
  188.5920  177.6570  147.3920 C   0  0  0  0  0  2  0  0  0  0  0  0
  189.9590  177.0670  147.7200 C   0  0  0  0  0  2  0  0  0  0  0  0
  191.6810  177.1410  145.2580 C   0  0  0  0  0  2  0  0  0  0  0  0
  185.2900  179.0000  141.5010 C   0  0  2  0  0  3  0  0  0  0  0  0
  182.6030  177.9210  142.6710 C   0  0  0  0  0  2  0  0  0  0  0  0
  187.1270  177.2230  144.3550 C   0  0  0  0  0  2  0  0  0  0  0  0
  190.8260  176.6760  144.0880 C   0  0  0  0  0  2  0  0  0  0  0  0
  185.4040  178.2720  142.8390 C   0  0  1  0  0  3  0  0  0  0  0  0
  184.1990  179.4100  139.4010 C   0  0  0  0  0  2  0  0  0  0  0  0
  189.6590  177.6400  143.8750 C   0  0  1  0  0  3  0  0  0  0  0  0
  191.5760  176.1900  146.4510 C   0  0  0  0  0  2  0  0  0  0  0  0
  182.8360  178.2440  141.1820 C   0  0  2  0  0  3  0  0  0  0  0  0
  187.8550  177.9740  142.1170 C   0  0  0  0  0  0  0  0  0  0  0  0
  188.6020  178.3640  146.0430 C   0  0  0  0  0  2  0  0  0  0  0  0
  186.8860  178.2460  143.2560 C   0  0  2  0  0  3  0  0  0  0  0  0
  189.7230  177.6210  140.0540 C   0  0  0  0  0  3  0  0  0  0  0  0
  183.0670  179.0340  143.6120 C   0  0  0  0  0  2  0  0  0  0  0  0
  190.1280  177.5400  141.3870 C   0  0  0  0  0  3  0  0  0  0  0  0
  184.5620  178.9350  143.9360 C   0  0  0  0  0  2  0  0  0  0  0  0
  183.9190  179.3120  140.9060 C   0  0  1  0  0  3  0  0  0  0  0  0
  188.3870  177.8670  139.7420 C   0  0  0  0  0  3  0  0  0  0  0  0
  185.9880  178.1990  140.4430 C   0  0  2  0  0  3  0  0  0  0  0  0
  181.5160  178.6720  140.5560 C   0  0  0  0  0  2  0  0  0  0  0  0
  180.3510  177.9950  141.2590 C   0  0  0  0  0  2  0  0  0  0  0  0
  180.5450  175.8170  138.6080 N   0  0  0  0  0  2  0  0  0  0  0  0
  179.6720  175.6950  140.6260 C   0  0  0  0  0  2  0  0  0  0  0  0
  179.5590  177.1540  140.2750 C   0  0  2  0  0  3  0  0  0  0  0  0
  180.6390  175.1310  139.7820 O   0  0  0  0  0  0  0  0  0  0  0  0
  180.2330  177.1970  138.9420 C   0  0  0  0  0  2  0  0  0  0  0  0
  1 18  1  0  0  0  0
  2 14  1  0  0  0  0
  2 27  1  0  0  0  0
  3  7  1  0  0  0  0
  4 15  1  0  0  0  0
  5 11  1  6  0  0  0
  5 19  1  0  0  0  0
  6  7  1  0  0  0  0
  8 16  1  0  0  0  0
  9 13  1  0  0  0  0
 10 22  1  0  0  0  0
 12  8  1  0  0  0  0
 13 20  1  0  0  0  0
 13 24  1  0  0  0  0
 14 25  1  0  0  0  0
 15 12  1  0  0  0  0
 15  5  1  0  0  0  0
 16  3  1  0  0  0  0
 17 10  1  0  0  0  0
 18  4  2  0  0  0  0
 18 20  1  0  0  0  0
 19  6  1  0  0  0  0
 20 11  1  0  0  0  0
 21 23  2  0  0  0  0
 22 24  1  0  0  0  0
 23  4  1  0  0  0  0
 25 17  1  0  0  0  0
 25  9  1  0  0  0  0
 26 21  1  0  0  0  0
 26  1  2  0  0  0  0
 27  1  1  0  0  0  0
 27  9  1  0  0  0  0
 28 17  1  0  0  0  0
 28 29  1  0  0  0  0
 30 34  1  0  0  0  0
 30 33  1  0  0  0  0
 32 31  1  0  0  0  0
 32 29  1  0  0  0  0
 33 31  1  0  0  0  0
 34 32  1  0  0  0  0
M  END
>  <MODEL>
9

>  <REMARK>
 VINA RESULT:      -9.1      2.927      4.731
  Name = 
  3 active torsions:
  status: ('A' for Active; 'I' for Inactive)
    1  A    between atoms: C_17  and  C_28
    2  A    between atoms: C_28  and  C_29
    3  A    between atoms: C_29  and  C_32
                            x       y       z     vdW  Elec       q    Type
                         _______ _______ _______ _____ _____    ______ ____

>  <TORSDO>
F 3

$$$$
