=
 OpenBabel11122410313D

 30 35  0  0  1  0  0  0  0  0999 V2000
  187.6200  177.8640  142.9940 C   0  0  0  0  0  0  0  0  0  0  0  0
  188.8660  177.1370  145.0530 C   0  0  0  0  0  0  0  0  0  0  0  0
  184.2570  178.8910  145.3140 N   0  0  0  0  0  2  0  0  0  0  0  0
  186.4290  178.3920  142.4190 C   0  0  0  0  0  0  0  0  0  0  0  0
  188.7310  177.4140  142.0790 C   0  0  0  0  0  2  0  0  0  0  0  0
  187.5370  178.7790  138.8500 O   0  0  0  0  0  1  0  0  0  0  0  0
  184.0060  177.5860  140.8800 C   0  0  1  0  0  3  0  0  0  0  0  0
  187.4590  178.1240  140.0810 C   0  0  1  0  0  3  0  0  0  0  0  0
  183.2410  178.1650  142.0730 C   0  0  2  0  0  3  0  0  0  0  0  0
  183.4000  179.3330  144.2670 C   0  0  0  0  0  0  0  0  0  0  0  0
  188.7980  178.2300  140.7980 C   0  0  2  0  0  3  0  0  0  0  0  0
  186.3580  178.7590  140.9370 C   0  0  1  0  0  3  0  0  0  0  0  0
  188.8860  176.9640  146.4390 C   0  0  0  0  0  3  0  0  0  0  0  0
  181.9600  178.7210  141.4960 C   0  0  0  0  0  2  0  0  0  0  0  0
  182.9410  177.1960  139.8640 C   0  0  0  0  0  2  0  0  0  0  0  0
  190.0120  176.7900  144.3460 O   0  0  0  0  0  1  0  0  0  0  0  0
  185.4440  178.5130  144.6330 C   0  0  0  0  0  0  0  0  0  0  0  0
  187.7810  177.3000  147.2180 C   0  0  0  0  0  3  0  0  0  0  0  0
  187.7090  177.6600  144.4090 C   0  0  0  0  0  0  0  0  0  0  0  0
  185.3610  178.7030  143.2740 C   0  0  0  0  0  0  0  0  0  0  0  0
  182.2480  179.7910  144.4890 O   0  0  0  0  0  0  0  0  0  0  0  0
  184.0030  179.2160  142.8990 C   0  0  1  0  0  3  0  0  0  0  0  0
  181.6300  177.8130  140.3280 C   0  0  0  0  0  2  0  0  0  0  0  0
  184.6880  179.2780  139.3560 O   0  0  0  0  0  0  0  0  0  0  0  0
  186.6390  177.8180  146.6150 C   0  0  0  0  0  3  0  0  0  0  0  0
  186.5930  178.0010  145.2290 C   0  0  0  0  0  0  0  0  0  0  0  0
  185.0000  178.5680  140.3010 C   0  0  0  0  0  0  0  0  0  0  0  0
  189.8190  177.7230  139.9880 O   0  0  0  0  0  0  0  0  0  0  0  0
  192.1340  177.4710  140.4600 C   0  0  0  0  0  1  0  0  0  0  0  0
  190.7180  177.1300  140.8740 C   0  0  0  0  0  2  0  0  0  0  0  0
  1 19  1  0  0  0  0
  2 13  1  0  0  0  0
  4  1  2  0  0  0  0
  4 20  1  0  0  0  0
  5  1  1  0  0  0  0
  7 15  1  6  0  0  0
  7  9  1  0  0  0  0
  8  6  1  6  0  0  0
  8 11  1  0  0  0  0
  8 12  1  0  0  0  0
  9 14  1  6  0  0  0
  9 22  1  0  0  0  0
 10 21  2  0  0  0  0
 10  3  1  0  0  0  0
 11 28  1  6  0  0  0
 11  5  1  0  0  0  0
 12 27  1  6  0  0  0
 12  4  1  0  0  0  0
 13 18  2  0  0  0  0
 15 23  1  0  0  0  0
 16  2  1  0  0  0  0
 17 26  1  0  0  0  0
 17  3  1  0  0  0  0
 19  2  2  0  0  0  0
 19 26  1  0  0  0  0
 20 17  2  0  0  0  0
 22 20  1  1  0  0  0
 22 10  1  0  0  0  0
 23 14  1  0  0  0  0
 24 27  2  0  0  0  0
 25 18  1  0  0  0  0
 26 25  2  0  0  0  0
 27  7  1  0  0  0  0
 28 30  1  0  0  0  0
 29 30  1  0  0  0  0
M  END
>  <MODEL>
1

>  <REMARK>
 VINA RESULT:     -10.3      0.000      0.000
  Name = 
  2 active torsions:
  status: ('A' for Active; 'I' for Inactive)
    1  A    between atoms: C_11  and  O_28
    2  A    between atoms: O_28  and  C_30
                            x       y       z     vdW  Elec       q    Type
                         _______ _______ _______ _____ _____    ______ ____

>  <TORSDO>
F 2

$$$$
=
 OpenBabel11122410313D

 30 35  0  0  1  0  0  0  0  0999 V2000
  186.0790  178.3370  142.1360 C   0  0  0  0  0  0  0  0  0  0  0  0
  183.7100  179.0590  142.5660 C   0  0  0  0  0  0  0  0  0  0  0  0
  186.6220  177.4680  146.2230 N   0  0  0  0  0  2  0  0  0  0  0  0
  187.3090  177.8390  142.6540 C   0  0  0  0  0  0  0  0  0  0  0  0
  186.0090  178.7310  140.6830 C   0  0  0  0  0  2  0  0  0  0  0  0
  189.2160  177.3470  139.4550 O   0  0  0  0  0  1  0  0  0  0  0  0
  190.0680  178.6970  143.3870 C   0  0  1  0  0  3  0  0  0  0  0  0
  188.3500  178.0270  140.3130 C   0  0  1  0  0  3  0  0  0  0  0  0
  189.7010  178.1660  144.7760 C   0  0  2  0  0  3  0  0  0  0  0  0
  187.9780  177.0350  146.1730 C   0  0  0  0  0  0  0  0  0  0  0  0
  186.9210  177.8900  139.8050 C   0  0  2  0  0  3  0  0  0  0  0  0
  188.4590  177.4460  141.7270 C   0  0  1  0  0  3  0  0  0  0  0  0
  182.6670  179.2580  143.4750 C   0  0  0  0  0  3  0  0  0  0  0  0
  190.9930  177.6430  145.3590 C   0  0  0  0  0  2  0  0  0  0  0  0
  191.5330  179.1030  143.4800 C   0  0  0  0  0  2  0  0  0  0  0  0
  183.4630  179.3550  141.2300 O   0  0  0  0  0  1  0  0  0  0  0  0
  186.3280  177.7920  144.8720 C   0  0  0  0  0  0  0  0  0  0  0  0
  182.8330  178.9740  144.8280 C   0  0  0  0  0  3  0  0  0  0  0  0
  184.9680  178.5640  143.0120 C   0  0  0  0  0  0  0  0  0  0  0  0
  187.3930  177.5790  144.0300 C   0  0  0  0  0  0  0  0  0  0  0  0
  188.5890  176.6200  147.1920 O   0  0  0  0  0  0  0  0  0  0  0  0
  188.5870  177.1050  144.8040 C   0  0  1  0  0  3  0  0  0  0  0  0
  192.0730  178.5390  144.7870 C   0  0  0  0  0  2  0  0  0  0  0  0
  190.7560  176.9530  141.9230 O   0  0  0  0  0  0  0  0  0  0  0  0
  184.0510  178.4840  145.2890 C   0  0  0  0  0  3  0  0  0  0  0  0
  185.1110  178.2760  144.4020 C   0  0  0  0  0  0  0  0  0  0  0  0
  189.8390  177.6700  142.2990 C   0  0  0  0  0  0  0  0  0  0  0  0
  186.8340  178.3470  138.4870 O   0  0  0  0  0  0  0  0  0  0  0  0
  185.1990  177.1570  137.2370 C   0  0  0  0  0  1  0  0  0  0  0  0
  185.4720  178.3070  138.1840 C   0  0  0  0  0  2  0  0  0  0  0  0
  1  4  2  0  0  0  0
  1 19  1  0  0  0  0
  2 19  2  0  0  0  0
  2 13  1  0  0  0  0
  4 20  1  0  0  0  0
  5  1  1  0  0  0  0
  7 15  1  1  0  0  0
  7  9  1  0  0  0  0
  8  6  1  6  0  0  0
  8 12  1  0  0  0  0
  9 22  1  0  0  0  0
  9 14  1  6  0  0  0
 10  3  1  0  0  0  0
 10 21  2  0  0  0  0
 11 28  1  6  0  0  0
 11  8  1  0  0  0  0
 11  5  1  0  0  0  0
 12 27  1  1  0  0  0
 12  4  1  0  0  0  0
 13 18  2  0  0  0  0
 15 23  1  0  0  0  0
 16  2  1  0  0  0  0
 17  3  1  0  0  0  0
 18 25  1  0  0  0  0
 19 26  1  0  0  0  0
 20 17  2  0  0  0  0
 22 20  1  6  0  0  0
 22 10  1  0  0  0  0
 23 14  1  0  0  0  0
 24 27  2  0  0  0  0
 26 17  1  0  0  0  0
 26 25  2  0  0  0  0
 27  7  1  0  0  0  0
 29 30  1  0  0  0  0
 30 28  1  0  0  0  0
M  END
>  <MODEL>
2

>  <REMARK>
 VINA RESULT:      -9.7      1.747      5.666
  Name = 
  2 active torsions:
  status: ('A' for Active; 'I' for Inactive)
    1  A    between atoms: C_11  and  O_28
    2  A    between atoms: O_28  and  C_30
                            x       y       z     vdW  Elec       q    Type
                         _______ _______ _______ _____ _____    ______ ____

>  <TORSDO>
F 2

$$$$
=
 OpenBabel11122410313D

 30 35  0  0  1  0  0  0  0  0999 V2000
  189.5130  177.2370  143.4680 C   0  0  0  0  0  0  0  0  0  0  0  0
  191.2170  176.0250  144.8630 C   0  0  0  0  0  0  0  0  0  0  0  0
  187.3210  178.2560  146.9190 N   0  0  0  0  0  2  0  0  0  0  0  0
  188.3090  177.9970  143.4120 C   0  0  0  0  0  0  0  0  0  0  0  0
  190.1690  176.8190  142.1780 C   0  0  0  0  0  2  0  0  0  0  0  0
  188.2420  178.8490  139.7530 O   0  0  0  0  0  1  0  0  0  0  0  0
  185.4170  177.7660  142.7290 C   0  0  1  0  0  3  0  0  0  0  0  0
  188.4580  178.0080  140.8470 C   0  0  1  0  0  3  0  0  0  0  0  0
  185.1950  178.2220  144.1740 C   0  0  2  0  0  3  0  0  0  0  0  0
  186.2590  178.9710  146.2970 C   0  0  0  0  0  0  0  0  0  0  0  0
  189.9550  177.8260  141.0600 C   0  0  2  0  0  3  0  0  0  0  0  0
  187.8230  178.6170  142.1020 C   0  0  1  0  0  3  0  0  0  0  0  0
  191.6580  175.6160  146.1250 C   0  0  0  0  0  3  0  0  0  0  0  0
  183.9110  179.0200  144.1490 C   0  0  0  0  0  2  0  0  0  0  0  0
  184.0280  177.6880  142.1090 C   0  0  0  0  0  2  0  0  0  0  0  0
  191.9910  175.6650  143.7650 O   0  0  0  0  0  1  0  0  0  0  0  0
  188.1370  177.8580  145.8270 C   0  0  0  0  0  0  0  0  0  0  0  0
  190.9430  175.9470  147.2730 C   0  0  0  0  0  3  0  0  0  0  0  0
  190.0220  176.7860  144.7300 C   0  0  0  0  0  0  0  0  0  0  0  0
  187.6500  178.2860  144.6160 C   0  0  0  0  0  0  0  0  0  0  0  0
  185.3400  179.5220  146.9580 O   0  0  0  0  0  0  0  0  0  0  0  0
  186.3540  179.0160  144.8010 C   0  0  1  0  0  3  0  0  0  0  0  0
  183.0670  178.3720  143.0710 C   0  0  0  0  0  2  0  0  0  0  0  0
  185.8450  179.5980  141.2750 O   0  0  0  0  0  0  0  0  0  0  0  0
  189.7740  176.6950  147.1720 C   0  0  0  0  0  3  0  0  0  0  0  0
  189.3110  177.1160  145.9210 C   0  0  0  0  0  0  0  0  0  0  0  0
  186.3210  178.7040  141.9610 C   0  0  0  0  0  0  0  0  0  0  0  0
  190.5510  177.3440  139.8910 O   0  0  0  0  0  0  0  0  0  0  0  0
  192.6710  176.7760  138.9790 C   0  0  0  0  0  1  0  0  0  0  0  0
  191.9220  177.3840  140.1460 C   0  0  0  0  0  2  0  0  0  0  0  0
  1 19  1  0  0  0  0
  2 13  1  0  0  0  0
  4  1  2  0  0  0  0
  4 20  1  0  0  0  0
  5  1  1  0  0  0  0
  7 15  1  6  0  0  0
  7  9  1  0  0  0  0
  8  6  1  6  0  0  0
  8 11  1  0  0  0  0
  8 12  1  0  0  0  0
  9 14  1  6  0  0  0
  9 22  1  0  0  0  0
 10  3  1  0  0  0  0
 10 21  2  0  0  0  0
 11 28  1  6  0  0  0
 11  5  1  0  0  0  0
 12 27  1  6  0  0  0
 12  4  1  0  0  0  0
 13 18  2  0  0  0  0
 15 23  1  0  0  0  0
 16  2  1  0  0  0  0
 17 26  1  0  0  0  0
 17  3  1  0  0  0  0
 19  2  2  0  0  0  0
 19 26  1  0  0  0  0
 20 17  2  0  0  0  0
 22 20  1  1  0  0  0
 22 10  1  0  0  0  0
 23 14  1  0  0  0  0
 24 27  2  0  0  0  0
 25 18  1  0  0  0  0
 26 25  2  0  0  0  0
 27  7  1  0  0  0  0
 28 30  1  0  0  0  0
 29 30  1  0  0  0  0
M  END
>  <MODEL>
3

>  <REMARK>
 VINA RESULT:      -9.5      1.699      2.593
  Name = 
  2 active torsions:
  status: ('A' for Active; 'I' for Inactive)
    1  A    between atoms: C_11  and  O_28
    2  A    between atoms: O_28  and  C_30
                            x       y       z     vdW  Elec       q    Type
                         _______ _______ _______ _____ _____    ______ ____

>  <TORSDO>
F 2

$$$$
=
 OpenBabel11122410313D

 30 35  0  0  1  0  0  0  0  0999 V2000
  188.1690  177.8100  141.5700 C   0  0  0  0  0  0  0  0  0  0  0  0
  189.9240  176.9770  143.1660 C   0  0  0  0  0  0  0  0  0  0  0  0
  185.5420  178.5950  144.7690 N   0  0  0  0  0  2  0  0  0  0  0  0
  186.8640  178.3460  141.3730 C   0  0  0  0  0  0  0  0  0  0  0  0
  188.9970  177.4510  140.3630 C   0  0  0  0  0  2  0  0  0  0  0  0
  186.9760  179.0000  137.6740 O   0  0  0  0  0  1  0  0  0  0  0  0
  184.1230  177.5860  140.4800 C   0  0  1  0  0  3  0  0  0  0  0  0
  187.2340  178.2620  138.8320 C   0  0  1  0  0  3  0  0  0  0  0  0
  183.7010  178.0640  141.8720 C   0  0  2  0  0  3  0  0  0  0  0  0
  184.4330  179.0860  144.0220 C   0  0  0  0  0  0  0  0  0  0  0  0
  188.7150  178.3520  139.1720 C   0  0  2  0  0  3  0  0  0  0  0  0
  186.3980  178.8100  139.9930 C   0  0  1  0  0  3  0  0  0  0  0  0
  190.3140  176.7110  144.4810 C   0  0  0  0  0  3  0  0  0  0  0  0
  182.3090  178.6260  141.6970 C   0  0  0  0  0  2  0  0  0  0  0  0
  182.8270  177.2390  139.7590 C   0  0  0  0  0  2  0  0  0  0  0  0
  190.8410  176.7060  142.1570 O   0  0  0  0  0  1  0  0  0  0  0  0
  186.5060  178.2930  143.7710 C   0  0  0  0  0  0  0  0  0  0  0  0
  189.4560  176.9670  145.5480 C   0  0  0  0  0  3  0  0  0  0  0  0
  188.6340  177.5130  142.8930 C   0  0  0  0  0  0  0  0  0  0  0  0
  186.0620  178.5730  142.5010 C   0  0  0  0  0  0  0  0  0  0  0  0
  183.3800  179.4990  144.5740 O   0  0  0  0  0  0  0  0  0  0  0  0
  184.6500  179.0760  142.5380 C   0  0  1  0  0  3  0  0  0  0  0  0
  181.6850  177.7910  140.5980 C   0  0  0  0  0  2  0  0  0  0  0  0
  184.3630  179.3940  138.9540 O   0  0  0  0  0  0  0  0  0  0  0  0
  188.1910  177.4960  145.3090 C   0  0  0  0  0  3  0  0  0  0  0  0
  187.7750  177.7710  144.0020 C   0  0  0  0  0  0  0  0  0  0  0  0
  184.9210  178.6290  139.7290 C   0  0  0  0  0  0  0  0  0  0  0  0
  189.4850  177.9260  138.0850 O   0  0  0  0  0  0  0  0  0  0  0  0
  191.2430  176.4280  137.5270 C   0  0  0  0  0  1  0  0  0  0  0  0
  190.4430  177.0750  138.6370 C   0  0  0  0  0  2  0  0  0  0  0  0
  1 19  1  0  0  0  0
  2 13  1  0  0  0  0
  4  1  2  0  0  0  0
  4 20  1  0  0  0  0
  5  1  1  0  0  0  0
  7 15  1  6  0  0  0
  7  9  1  0  0  0  0
  8  6  1  6  0  0  0
  8 11  1  0  0  0  0
  8 12  1  0  0  0  0
  9 14  1  6  0  0  0
  9 22  1  0  0  0  0
 10 21  2  0  0  0  0
 10  3  1  0  0  0  0
 11 28  1  6  0  0  0
 11  5  1  0  0  0  0
 12 27  1  6  0  0  0
 12  4  1  0  0  0  0
 13 18  2  0  0  0  0
 15 23  1  0  0  0  0
 16  2  1  0  0  0  0
 17 26  1  0  0  0  0
 17  3  1  0  0  0  0
 19  2  2  0  0  0  0
 19 26  1  0  0  0  0
 20 17  2  0  0  0  0
 22 20  1  1  0  0  0
 22 10  1  0  0  0  0
 23 14  1  0  0  0  0
 24 27  2  0  0  0  0
 25 18  1  0  0  0  0
 26 25  2  0  0  0  0
 27  7  1  0  0  0  0
 28 30  1  0  0  0  0
 29 30  1  0  0  0  0
M  END
>  <MODEL>
4

>  <REMARK>
 VINA RESULT:      -9.2      1.287      1.577
  Name = 
  2 active torsions:
  status: ('A' for Active; 'I' for Inactive)
    1  A    between atoms: C_11  and  O_28
    2  A    between atoms: O_28  and  C_30
                            x       y       z     vdW  Elec       q    Type
                         _______ _______ _______ _____ _____    ______ ____

>  <TORSDO>
F 2

$$$$
=
 OpenBabel11122410313D

 30 35  0  0  1  0  0  0  0  0999 V2000
  187.8390  177.8770  142.5640 C   0  0  0  0  0  0  0  0  0  0  0  0
  185.5720  178.0630  143.6350 C   0  0  0  0  0  0  0  0  0  0  0  0
  186.2060  178.8200  138.7960 N   0  0  0  0  0  2  0  0  0  0  0  0
  188.6340  177.9540  141.3840 C   0  0  0  0  0  0  0  0  0  0  0  0
  188.4840  177.4190  143.8470 C   0  0  0  0  0  2  0  0  0  0  0  0
  192.0550  177.4960  142.8690 O   0  0  0  0  0  1  0  0  0  0  0  0
  190.0120  176.2470  139.3660 C   0  0  1  0  0  3  0  0  0  0  0  0
  190.6900  177.2300  142.7460 C   0  0  1  0  0  3  0  0  0  0  0  0
  189.1190  176.9790  138.3600 C   0  0  2  0  0  3  0  0  0  0  0  0
  187.3980  178.7470  138.0200 C   0  0  0  0  0  0  0  0  0  0  0  0
  189.9480  177.8180  143.9390 C   0  0  2  0  0  3  0  0  0  0  0  0
  190.1580  177.8460  141.4470 C   0  0  1  0  0  3  0  0  0  0  0  0
  184.2040  178.3130  143.5010 C   0  0  0  0  0  3  0  0  0  0  0  0
  189.9320  177.0630  137.0890 C   0  0  0  0  0  2  0  0  0  0  0  0
  190.9280  175.3640  138.5290 C   0  0  0  0  0  2  0  0  0  0  0  0
  186.0500  177.7680  144.9070 O   0  0  0  0  0  1  0  0  0  0  0  0
  186.6480  178.5130  140.1100 C   0  0  0  0  0  0  0  0  0  0  0  0
  183.6520  178.6260  142.2620 C   0  0  0  0  0  3  0  0  0  0  0  0
  186.4290  178.1210  142.4990 C   0  0  0  0  0  0  0  0  0  0  0  0
  187.9990  178.2750  140.1750 C   0  0  0  0  0  0  0  0  0  0  0  0
  187.4150  179.0010  136.7880 O   0  0  0  0  0  0  0  0  0  0  0  0
  188.6130  178.3610  138.8100 C   0  0  1  0  0  3  0  0  0  0  0  0
  190.7760  175.8040  137.0800 C   0  0  0  0  0  2  0  0  0  0  0  0
  191.9380  177.5200  139.9360 O   0  0  0  0  0  0  0  0  0  0  0  0
  184.4670  178.6950  141.1360 C   0  0  0  0  0  3  0  0  0  0  0  0
  185.8400  178.4490  141.2420 C   0  0  0  0  0  0  0  0  0  0  0  0
  190.7970  177.2000  140.2400 C   0  0  0  0  0  0  0  0  0  0  0  0
  190.4830  177.3180  145.1300 O   0  0  0  0  0  0  0  0  0  0  0  0
  189.8230  176.7530  147.3420 C   0  0  0  0  0  1  0  0  0  0  0  0
  189.4870  177.5260  146.0840 C   0  0  0  0  0  2  0  0  0  0  0  0
  1  5  1  0  0  0  0
  2 16  1  0  0  0  0
  3 17  1  0  0  0  0
  4 12  1  0  0  0  0
  4  1  2  0  0  0  0
  5 11  1  0  0  0  0
  7 15  1  6  0  0  0
  7 27  1  0  0  0  0
  8  6  1  1  0  0  0
  8 11  1  0  0  0  0
  9 14  1  6  0  0  0
  9 22  1  0  0  0  0
  9  7  1  0  0  0  0
 10  3  1  0  0  0  0
 11 28  1  1  0  0  0
 12 27  1  6  0  0  0
 12  8  1  0  0  0  0
 13  2  1  0  0  0  0
 17 20  2  0  0  0  0
 17 26  1  0  0  0  0
 18 13  2  0  0  0  0
 19  1  1  0  0  0  0
 19  2  2  0  0  0  0
 20  4  1  0  0  0  0
 21 10  2  0  0  0  0
 22 10  1  6  0  0  0
 22 20  1  0  0  0  0
 23 14  1  0  0  0  0
 23 15  1  0  0  0  0
 24 27  2  0  0  0  0
 25 26  2  0  0  0  0
 25 18  1  0  0  0  0
 26 19  1  0  0  0  0
 28 30  1  0  0  0  0
 30 29  1  0  0  0  0
M  END
>  <MODEL>
5

>  <REMARK>
 VINA RESULT:      -9.1      2.273      5.961
  Name = 
  2 active torsions:
  status: ('A' for Active; 'I' for Inactive)
    1  A    between atoms: C_11  and  O_28
    2  A    between atoms: O_28  and  C_30
                            x       y       z     vdW  Elec       q    Type
                         _______ _______ _______ _____ _____    ______ ____

>  <TORSDO>
F 2

$$$$
=
 OpenBabel11122410313D

 30 35  0  0  1  0  0  0  0  0999 V2000
  186.2810  178.3660  144.7650 C   0  0  0  0  0  0  0  0  0  0  0  0
  186.5190  178.6920  147.2470 C   0  0  0  0  0  0  0  0  0  0  0  0
  189.9400  176.2810  144.6250 N   0  0  0  0  0  2  0  0  0  0  0  0
  186.8160  177.8430  143.5530 C   0  0  0  0  0  0  0  0  0  0  0  0
  185.0270  179.1990  144.7060 C   0  0  0  0  0  2  0  0  0  0  0  0
  183.9740  178.5840  141.2100 O   0  0  0  0  0  1  0  0  0  0  0  0
  188.2150  178.6670  141.0540 C   0  0  1  0  0  3  0  0  0  0  0  0
  184.8460  178.8690  142.2630 C   0  0  1  0  0  3  0  0  0  0  0  0
  189.2960  177.6870  141.5150 C   0  0  2  0  0  3  0  0  0  0  0  0
  189.9820  176.0130  143.2270 C   0  0  0  0  0  0  0  0  0  0  0  0
  184.0950  178.7730  143.5840 C   0  0  2  0  0  3  0  0  0  0  0  0
  186.0130  177.8770  142.2530 C   0  0  1  0  0  3  0  0  0  0  0  0
  187.2620  178.4910  148.4130 C   0  0  0  0  0  3  0  0  0  0  0  0
  189.8950  177.1250  140.2470 C   0  0  0  0  0  2  0  0  0  0  0  0
  188.6650  179.1540  139.6820 C   0  0  0  0  0  2  0  0  0  0  0  0
  185.3150  179.3780  147.3630 O   0  0  0  0  0  1  0  0  0  0  0  0
  188.7230  176.9950  144.7890 C   0  0  0  0  0  0  0  0  0  0  0  0
  188.4720  177.8030  148.3810 C   0  0  0  0  0  3  0  0  0  0  0  0
  186.9910  178.1970  145.9990 C   0  0  0  0  0  0  0  0  0  0  0  0
  188.0420  177.1630  143.6080 C   0  0  0  0  0  0  0  0  0  0  0  0
  190.9110  175.3500  142.6970 O   0  0  0  0  0  0  0  0  0  0  0  0
  188.8180  176.5760  142.4670 C   0  0  1  0  0  3  0  0  0  0  0  0
  189.8070  178.2520  139.2380 C   0  0  0  0  0  2  0  0  0  0  0  0
  186.4220  177.5590  139.9530 O   0  0  0  0  0  0  0  0  0  0  0  0
  188.9540  177.3040  147.1750 C   0  0  0  0  0  3  0  0  0  0  0  0
  188.2310  177.4910  145.9930 C   0  0  0  0  0  0  0  0  0  0  0  0
  186.8440  178.0300  141.0000 C   0  0  0  0  0  0  0  0  0  0  0  0
  182.9830  179.6200  143.5670 O   0  0  0  0  0  0  0  0  0  0  0  0
  180.6980  179.1440  143.1160 C   0  0  0  0  0  1  0  0  0  0  0  0
  181.9130  178.8130  143.9580 C   0  0  0  0  0  2  0  0  0  0  0  0
  1 19  1  0  0  0  0
  2 16  1  0  0  0  0
  2 13  1  0  0  0  0
  3 17  1  0  0  0  0
  4 20  1  0  0  0  0
  4  1  2  0  0  0  0
  5  1  1  0  0  0  0
  7 15  1  6  0  0  0
  7  9  1  0  0  0  0
  8  6  1  6  0  0  0
  8 11  1  0  0  0  0
  9 14  1  6  0  0  0
  9 22  1  0  0  0  0
 10  3  1  0  0  0  0
 11 28  1  6  0  0  0
 11  5  1  0  0  0  0
 12 27  1  6  0  0  0
 12  8  1  0  0  0  0
 12  4  1  0  0  0  0
 17 26  1  0  0  0  0
 18 13  2  0  0  0  0
 19  2  2  0  0  0  0
 20 17  2  0  0  0  0
 21 10  2  0  0  0  0
 22 10  1  1  0  0  0
 22 20  1  0  0  0  0
 23 15  1  0  0  0  0
 23 14  1  0  0  0  0
 24 27  2  0  0  0  0
 25 18  1  0  0  0  0
 26 19  1  0  0  0  0
 26 25  2  0  0  0  0
 27  7  1  0  0  0  0
 28 30  1  0  0  0  0
 29 30  1  0  0  0  0
M  END
>  <MODEL>
6

>  <REMARK>
 VINA RESULT:      -8.8      2.033      5.617
  Name = 
  2 active torsions:
  status: ('A' for Active; 'I' for Inactive)
    1  A    between atoms: C_11  and  O_28
    2  A    between atoms: O_28  and  C_30
                            x       y       z     vdW  Elec       q    Type
                         _______ _______ _______ _____ _____    ______ ____

>  <TORSDO>
F 2

$$$$
=
 OpenBabel11122410313D

 30 35  0  0  1  0  0  0  0  0999 V2000
  188.1630  177.7210  142.5860 C   0  0  0  0  0  0  0  0  0  0  0  0
  187.0860  177.6440  144.8570 C   0  0  0  0  0  0  0  0  0  0  0  0
  184.6000  179.1800  140.8760 N   0  0  0  0  0  2  0  0  0  0  0  0
  188.0480  178.0150  141.1970 C   0  0  0  0  0  0  0  0  0  0  0  0
  189.4360  177.0930  143.0930 C   0  0  0  0  0  2  0  0  0  0  0  0
  191.6030  177.4680  140.1130 O   0  0  0  0  0  1  0  0  0  0  0  0
  187.7360  176.7060  138.5380 C   0  0  1  0  0  3  0  0  0  0  0  0
  190.4470  177.1700  140.8380 C   0  0  1  0  0  3  0  0  0  0  0  0
  186.4630  177.5510  138.4400 C   0  0  2  0  0  3  0  0  0  0  0  0
  185.0350  179.2790  139.5230 C   0  0  0  0  0  0  0  0  0  0  0  0
  190.6580  177.5310  142.3010 C   0  0  2  0  0  3  0  0  0  0  0  0
  189.2630  177.9610  140.2710 C   0  0  1  0  0  3  0  0  0  0  0  0
  185.9570  177.8560  145.6520 C   0  0  0  0  0  3  0  0  0  0  0  0
  186.3050  177.8660  136.9700 C   0  0  0  0  0  2  0  0  0  0  0  0
  187.8640  176.0030  137.1920 C   0  0  0  0  0  2  0  0  0  0  0  0
  188.2340  177.1720  145.4840 O   0  0  0  0  0  1  0  0  0  0  0  0
  185.7450  178.6880  141.5560 C   0  0  0  0  0  0  0  0  0  0  0  0
  184.7730  178.3390  145.0990 C   0  0  0  0  0  3  0  0  0  0  0  0
  187.0440  177.9150  143.4600 C   0  0  0  0  0  0  0  0  0  0  0  0
  186.8190  178.4970  140.7210 C   0  0  0  0  0  0  0  0  0  0  0  0
  184.2930  179.7240  138.6090 O   0  0  0  0  0  0  0  0  0  0  0  0
  186.4470  178.8220  139.3060 C   0  0  1  0  0  3  0  0  0  0  0  0
  186.8690  176.6600  136.2470 C   0  0  0  0  0  2  0  0  0  0  0  0
  189.6760  177.9490  137.9500 O   0  0  0  0  0  0  0  0  0  0  0  0
  184.7070  178.6170  143.7370 C   0  0  0  0  0  3  0  0  0  0  0  0
  185.8220  178.4130  142.9190 C   0  0  0  0  0  0  0  0  0  0  0  0
  188.9590  177.5400  138.8520 C   0  0  0  0  0  0  0  0  0  0  0  0
  191.7850  176.8720  142.8010 O   0  0  0  0  0  0  0  0  0  0  0  0
  191.7800  176.3990  145.1300 C   0  0  0  0  0  1  0  0  0  0  0  0
  191.2870  175.9880  143.7590 C   0  0  0  0  0  2  0  0  0  0  0  0
  1  5  1  0  0  0  0
  1 19  1  0  0  0  0
  2 16  1  0  0  0  0
  2 13  1  0  0  0  0
  3 17  1  0  0  0  0
  4  1  2  0  0  0  0
  7 15  1  6  0  0  0
  7 27  1  0  0  0  0
  8  6  1  6  0  0  0
  8 11  1  0  0  0  0
  9 14  1  6  0  0  0
  9  7  1  0  0  0  0
  9 22  1  0  0  0  0
 10  3  1  0  0  0  0
 11 28  1  1  0  0  0
 11  5  1  0  0  0  0
 12 27  1  6  0  0  0
 12  8  1  0  0  0  0
 12  4  1  0  0  0  0
 17 26  1  0  0  0  0
 18 13  2  0  0  0  0
 19  2  2  0  0  0  0
 20  4  1  0  0  0  0
 20 17  2  0  0  0  0
 21 10  2  0  0  0  0
 22 10  1  1  0  0  0
 22 20  1  0  0  0  0
 23 14  1  0  0  0  0
 23 15  1  0  0  0  0
 24 27  2  0  0  0  0
 25 18  1  0  0  0  0
 26 19  1  0  0  0  0
 26 25  2  0  0  0  0
 28 30  1  0  0  0  0
 30 29  1  0  0  0  0
M  END
>  <MODEL>
7

>  <REMARK>
 VINA RESULT:      -8.5      2.239      4.007
  Name = 
  2 active torsions:
  status: ('A' for Active; 'I' for Inactive)
    1  A    between atoms: C_11  and  O_28
    2  A    between atoms: O_28  and  C_30
                            x       y       z     vdW  Elec       q    Type
                         _______ _______ _______ _____ _____    ______ ____

>  <TORSDO>
F 2

$$$$
=
 OpenBabel11122410313D

 30 35  0  0  1  0  0  0  0  0999 V2000
  187.6720  177.6590  142.3330 C   0  0  0  0  0  0  0  0  0  0  0  0
  186.2770  178.5860  140.4580 C   0  0  0  0  0  0  0  0  0  0  0  0
  184.5350  178.3040  145.0710 N   0  0  0  0  0  2  0  0  0  0  0  0
  187.7850  177.3300  143.7140 C   0  0  0  0  0  0  0  0  0  0  0  0
  188.8820  177.5040  141.4480 C   0  0  0  0  0  2  0  0  0  0  0  0
  191.1380  175.6350  143.7140 O   0  0  0  0  0  1  0  0  0  0  0  0
  189.0080  178.2790  146.2610 C   0  0  1  0  0  3  0  0  0  0  0  0
  190.2220  176.6160  143.3270 C   0  0  1  0  0  3  0  0  0  0  0  0
  187.5640  178.3020  146.7700 C   0  0  2  0  0  3  0  0  0  0  0  0
  185.1760  177.8260  146.2490 C   0  0  0  0  0  0  0  0  0  0  0  0
  189.7860  176.3640  141.8900 C   0  0  2  0  0  3  0  0  0  0  0  0
  189.0030  176.5810  144.2540 C   0  0  1  0  0  3  0  0  0  0  0  0
  185.0690  179.1440  140.0300 C   0  0  0  0  0  3  0  0  0  0  0  0
  187.6530  177.9720  148.2420 C   0  0  0  0  0  2  0  0  0  0  0  0
  189.8710  178.6300  147.4670 C   0  0  0  0  0  2  0  0  0  0  0  0
  187.2680  178.3890  139.5030 O   0  0  0  0  0  1  0  0  0  0  0  0
  185.5220  178.1300  144.0640 C   0  0  0  0  0  0  0  0  0  0  0  0
  184.0240  179.3610  140.9240 C   0  0  0  0  0  3  0  0  0  0  0  0
  186.4610  178.2340  141.8250 C   0  0  0  0  0  0  0  0  0  0  0  0
  186.6850  177.5830  144.5480 C   0  0  0  0  0  0  0  0  0  0  0  0
  184.5910  177.7820  147.3630 O   0  0  0  0  0  0  0  0  0  0  0  0
  186.5880  177.3710  146.0300 C   0  0  1  0  0  3  0  0  0  0  0  0
  188.9760  178.5540  148.6960 C   0  0  0  0  0  2  0  0  0  0  0  0
  189.9500  176.0970  146.3590 O   0  0  0  0  0  0  0  0  0  0  0  0
  184.1770  179.0210  142.2650 C   0  0  0  0  0  3  0  0  0  0  0  0
  185.3750  178.4620  142.7210 C   0  0  0  0  0  0  0  0  0  0  0  0
  189.3900  176.9390  145.6710 C   0  0  0  0  0  0  0  0  0  0  0  0
  190.9030  176.3170  141.0500 O   0  0  0  0  0  0  0  0  0  0  0  0
  190.9880  176.2340  138.6760 C   0  0  0  0  0  1  0  0  0  0  0  0
  190.5120  176.9960  139.8960 C   0  0  0  0  0  2  0  0  0  0  0  0
  1  4  1  0  0  0  0
  2 19  1  0  0  0  0
  3 10  1  0  0  0  0
  4 20  2  0  0  0  0
  5 11  1  0  0  0  0
  5  1  1  0  0  0  0
  7  9  1  0  0  0  0
  7 15  1  1  0  0  0
  8  6  1  1  0  0  0
  8 12  1  0  0  0  0
  9 14  1  1  0  0  0
 10 21  2  0  0  0  0
 11 28  1  6  0  0  0
 11  8  1  0  0  0  0
 12  4  1  6  0  0  0
 12 27  1  0  0  0  0
 13  2  2  0  0  0  0
 13 18  1  0  0  0  0
 14 23  1  0  0  0  0
 15 23  1  0  0  0  0
 16  2  1  0  0  0  0
 17 20  1  0  0  0  0
 17  3  1  0  0  0  0
 18 25  2  0  0  0  0
 19  1  2  0  0  0  0
 19 26  1  0  0  0  0
 22 20  1  6  0  0  0
 22 10  1  0  0  0  0
 22  9  1  0  0  0  0
 25 26  1  0  0  0  0
 26 17  2  0  0  0  0
 27  7  1  0  0  0  0
 27 24  2  0  0  0  0
 29 30  1  0  0  0  0
 30 28  1  0  0  0  0
M  END
>  <MODEL>
8

>  <REMARK>
 VINA RESULT:      -8.5      1.617      5.578
  Name = 
  2 active torsions:
  status: ('A' for Active; 'I' for Inactive)
    1  A    between atoms: C_11  and  O_28
    2  A    between atoms: O_28  and  C_30
                            x       y       z     vdW  Elec       q    Type
                         _______ _______ _______ _____ _____    ______ ____

>  <TORSDO>
F 2

$$$$
=
 OpenBabel11122410313D

 30 35  0  0  1  0  0  0  0  0999 V2000
  187.0210  178.1500  142.2340 C   0  0  0  0  0  0  0  0  0  0  0  0
  186.0580  178.1830  144.5570 C   0  0  0  0  0  0  0  0  0  0  0  0
  183.3110  179.3170  140.6120 N   0  0  0  0  0  2  0  0  0  0  0  0
  186.8240  178.3400  140.8360 C   0  0  0  0  0  0  0  0  0  0  0  0
  188.3460  177.6200  142.7160 C   0  0  0  0  0  2  0  0  0  0  0  0
  190.3470  177.8850  139.6120 O   0  0  0  0  0  1  0  0  0  0  0  0
  186.4530  176.8340  138.2910 C   0  0  1  0  0  3  0  0  0  0  0  0
  189.2430  177.5850  140.4130 C   0  0  1  0  0  3  0  0  0  0  0  0
  185.1360  177.6090  138.2010 C   0  0  2  0  0  3  0  0  0  0  0  0
  183.6760  179.3410  139.2360 C   0  0  0  0  0  0  0  0  0  0  0  0
  189.5060  178.0580  141.8360 C   0  0  2  0  0  3  0  0  0  0  0  0
  187.9950  178.2780  139.8550 C   0  0  1  0  0  3  0  0  0  0  0  0
  184.9590  178.3980  145.3920 C   0  0  0  0  0  3  0  0  0  0  0  0
  184.8920  177.8130  136.7230 C   0  0  0  0  0  2  0  0  0  0  0  0
  186.5510  176.0450  136.9920 C   0  0  0  0  0  2  0  0  0  0  0  0
  187.2560  177.8100  145.1550 O   0  0  0  0  0  1  0  0  0  0  0  0
  184.5110  178.9280  141.2650 C   0  0  0  0  0  0  0  0  0  0  0  0
  183.7270  178.7840  144.8680 C   0  0  0  0  0  3  0  0  0  0  0  0
  185.9360  178.3530  143.1480 C   0  0  0  0  0  0  0  0  0  0  0  0
  185.5520  178.7290  140.3910 C   0  0  0  0  0  0  0  0  0  0  0  0
  182.8700  179.6860  138.3320 O   0  0  0  0  0  0  0  0  0  0  0  0
  185.0970  178.9370  138.9780 C   0  0  1  0  0  3  0  0  0  0  0  0
  185.4810  176.5870  136.0560 C   0  0  0  0  0  2  0  0  0  0  0  0
  188.2980  178.1220  137.5220 O   0  0  0  0  0  0  0  0  0  0  0  0
  183.5820  178.9630  143.4960 C   0  0  0  0  0  3  0  0  0  0  0  0
  184.6660  178.7540  142.6380 C   0  0  0  0  0  0  0  0  0  0  0  0
  187.6460  177.7440  138.4850 C   0  0  0  0  0  0  0  0  0  0  0  0
  190.6870  177.4890  142.3210 O   0  0  0  0  0  0  0  0  0  0  0  0
  191.3350  179.1280  143.9160 C   0  0  0  0  0  1  0  0  0  0  0  0
  190.6890  177.7770  143.6860 C   0  0  0  0  0  2  0  0  0  0  0  0
  1  5  1  0  0  0  0
  1 19  1  0  0  0  0
  2 16  1  0  0  0  0
  2 13  1  0  0  0  0
  3 17  1  0  0  0  0
  4  1  2  0  0  0  0
  7 15  1  6  0  0  0
  7 27  1  0  0  0  0
  8  6  1  6  0  0  0
  8 11  1  0  0  0  0
  9 14  1  6  0  0  0
  9  7  1  0  0  0  0
  9 22  1  0  0  0  0
 10  3  1  0  0  0  0
 11 28  1  1  0  0  0
 11  5  1  0  0  0  0
 12 27  1  6  0  0  0
 12  8  1  0  0  0  0
 12  4  1  0  0  0  0
 17 26  1  0  0  0  0
 18 13  2  0  0  0  0
 19  2  2  0  0  0  0
 20  4  1  0  0  0  0
 20 17  2  0  0  0  0
 21 10  2  0  0  0  0
 22 10  1  1  0  0  0
 22 20  1  0  0  0  0
 23 14  1  0  0  0  0
 23 15  1  0  0  0  0
 24 27  2  0  0  0  0
 25 18  1  0  0  0  0
 26 19  1  0  0  0  0
 26 25  2  0  0  0  0
 28 30  1  0  0  0  0
 30 29  1  0  0  0  0
M  END
>  <MODEL>
9

>  <REMARK>
 VINA RESULT:      -8.5      2.186      3.764
  Name = 
  2 active torsions:
  status: ('A' for Active; 'I' for Inactive)
    1  A    between atoms: C_11  and  O_28
    2  A    between atoms: O_28  and  C_30
                            x       y       z     vdW  Elec       q    Type
                         _______ _______ _______ _____ _____    ______ ____

>  <TORSDO>
F 2

$$$$
