=
 OpenBabel11122410423D

 32 38  0  0  1  0  0  0  0  0999 V2000
  187.9980  178.7800  136.7030 C   0  0  1  0  0  3  0  0  0  0  0  0
  188.0840  177.5000  141.8100 C   0  0  0  0  0  0  0  0  0  0  0  0
  184.0080  179.5320  143.4960 C   0  0  0  0  0  3  0  0  0  0  0  0
  184.2910  179.0250  144.8520 C   0  0  0  0  0  3  0  0  0  0  0  0
  189.8010  176.5630  143.3420 C   0  0  1  0  0  3  0  0  0  0  0  0
  190.2850  176.9520  144.6990 C   0  0  0  0  0  0  0  0  0  0  0  0
  188.4680  177.3720  139.3280 C   0  0  1  0  0  3  0  0  0  0  0  0
  186.3170  178.2630  140.1630 C   0  0  0  0  0  2  0  0  0  0  0  0
  190.2360  177.4880  146.7580 C   0  0  0  0  0  0  0  0  0  0  0  0
  186.9200  178.7820  137.7870 C   0  0  2  0  0  3  0  0  0  0  0  0
  184.7040  179.0990  142.4390 C   0  0  0  0  0  3  0  0  0  0  0  0
  186.7760  178.0730  141.5460 N   0  0  0  0  0  0  0  0  0  0  0  0
  185.7280  177.9950  142.5720 C   0  0  1  0  0  3  0  0  0  0  0  0
  187.5120  177.4370  144.2090 C   0  0  0  0  0  0  0  0  0  0  0  0
  191.5550  177.3180  146.3830 C   0  0  0  0  0  3  0  0  0  0  0  0
  189.4220  178.5200  137.2400 C   0  0  0  0  0  2  0  0  0  0  0  0
  187.4680  178.5260  139.2070 C   0  0  2  0  0  3  0  0  0  0  0  0
  191.5820  176.9730  145.0730 N   0  0  0  0  0  0  0  0  0  0  0  0
  189.5520  177.3700  138.2470 C   0  0  0  0  0  2  0  0  0  0  0  0
  187.0510  177.5930  136.8410 C   0  0  1  0  0  3  0  0  0  0  0  0
  185.3660  178.2690  145.0890 C   0  0  0  0  0  3  0  0  0  0  0  0
  186.2740  177.9040  143.9800 C   0  0  0  0  0  0  0  0  0  0  0  0
  187.9930  177.2350  145.6300 C   0  0  0  0  0  2  0  0  0  0  0  0
  189.1100  177.4110  140.7040 C   0  0  0  0  0  2  0  0  0  0  0  0
  189.7260  175.0500  143.2400 C   0  0  0  0  0  1  0  0  0  0  0  0
  189.7570  177.8430  148.1220 C   0  0  0  0  0  1  0  0  0  0  0  0
  188.4380  177.1670  143.0680 C   0  0  0  0  0  0  0  0  0  0  0  0
  189.4490  177.2660  145.6970 N   0  0  0  0  0  0  0  0  0  0  0  0
  185.9760  177.6850  135.7770 C   0  0  0  0  0  2  0  0  0  0  0  0
  184.7660  176.9350  136.2120 C   0  0  0  0  0  0  0  0  0  0  0  0
  184.8850  175.8850  137.1650 N   0  0  0  0  0  1  0  0  0  0  0  0
  183.6440  177.2040  135.7120 O   0  0  0  0  0  0  0  0  0  0  0  0
  1 20  1  0  0  0  0
  1 16  1  1  0  0  0
  1 10  1  0  0  0  0
  2 27  2  0  0  0  0
  3  4  1  0  0  0  0
  4 21  2  0  0  0  0
  5 25  1  1  0  0  0
  5  6  1  0  0  0  0
  6 18  2  0  0  0  0
  6 28  1  0  0  0  0
  7 19  1  6  0  0  0
  7 24  1  0  0  0  0
  8 12  1  0  0  0  0
  9 26  1  0  0  0  0
 10 17  1  0  0  0  0
 11 13  1  0  0  0  0
 11  3  2  0  0  0  0
 12  2  1  0  0  0  0
 12 13  1  0  0  0  0
 13 22  1  0  0  0  0
 14 23  1  0  0  0  0
 15  9  2  0  0  0  0
 16 19  1  0  0  0  0
 17  7  1  0  0  0  0
 17  8  1  0  0  0  0
 18 15  1  0  0  0  0
 20 10  1  0  0  0  0
 22 14  2  0  0  0  0
 22 21  1  0  0  0  0
 23 28  1  0  0  0  0
 24  2  1  0  0  0  0
 27  5  1  0  0  0  0
 27 14  1  0  0  0  0
 28  9  1  0  0  0  0
 29 30  1  0  0  0  0
 29 20  1  0  0  0  0
 30 31  1  0  0  0  0
 32 30  2  0  0  0  0
M  END
>  <MODEL>
1

>  <REMARK>
 VINA RESULT:      -8.4      0.000      0.000
  Name = 
  2 active torsions:
  status: ('A' for Active; 'I' for Inactive)
    1  A    between atoms: C_20  and  C_29
    2  A    between atoms: C_29  and  C_30
                            x       y       z     vdW  Elec       q    Type
                         _______ _______ _______ _____ _____    ______ ____

>  <TORSDO>
F 2

$$$$
=
 OpenBabel11122410423D

 32 38  0  0  1  0  0  0  0  0999 V2000
  190.2960  176.3830  144.7800 C   0  0  1  0  0  3  0  0  0  0  0  0
  187.7950  177.8930  140.4000 C   0  0  0  0  0  0  0  0  0  0  0  0
  183.2060  178.4050  141.9030 C   0  0  0  0  0  3  0  0  0  0  0  0
  182.7860  178.8150  140.5500 C   0  0  0  0  0  3  0  0  0  0  0  0
  188.3890  177.9500  137.9880 C   0  0  1  0  0  3  0  0  0  0  0  0
  187.6920  177.4920  136.7500 C   0  0  0  0  0  0  0  0  0  0  0  0
  189.6250  177.5810  142.0950 C   0  0  1  0  0  3  0  0  0  0  0  0
  187.3200  178.0010  142.8860 C   0  0  0  0  0  2  0  0  0  0  0  0
  186.1520  177.2460  135.3010 C   0  0  0  0  0  0  0  0  0  0  0  0
  188.9330  177.0330  144.5410 C   0  0  2  0  0  3  0  0  0  0  0  0
  184.5010  178.3210  142.2270 C   0  0  0  0  0  3  0  0  0  0  0  0
  186.8530  178.0520  141.4930 N   0  0  0  0  0  0  0  0  0  0  0  0
  185.5820  178.7500  141.2600 C   0  0  1  0  0  3  0  0  0  0  0  0
  185.9810  178.4580  138.8250 C   0  0  0  0  0  0  0  0  0  0  0  0
  187.3110  176.6800  134.8060 C   0  0  0  0  0  3  0  0  0  0  0  0
  191.0030  175.9230  143.4880 C   0  0  0  0  0  2  0  0  0  0  0  0
  188.5310  177.0980  143.0520 C   0  0  2  0  0  3  0  0  0  0  0  0
  188.2890  176.8420  135.7290 N   0  0  0  0  0  0  0  0  0  0  0  0
  190.9900  176.9280  142.3300 C   0  0  0  0  0  2  0  0  0  0  0  0
  190.1370  177.8950  144.9030 C   0  0  1  0  0  3  0  0  0  0  0  0
  183.6780  178.9290  139.5630 C   0  0  0  0  0  3  0  0  0  0  0  0
  185.1110  178.6740  139.8250 C   0  0  0  0  0  0  0  0  0  0  0  0
  185.5110  178.5120  137.3880 C   0  0  0  0  0  2  0  0  0  0  0  0
  189.1770  177.3430  140.6650 C   0  0  0  0  0  2  0  0  0  0  0  0
  189.0900  179.2700  137.7210 C   0  0  0  0  0  1  0  0  0  0  0  0
  184.8440  177.3130  134.5940 C   0  0  0  0  0  1  0  0  0  0  0  0
  187.4030  178.1090  139.1280 C   0  0  0  0  0  0  0  0  0  0  0  0
  186.3960  177.7440  136.5210 N   0  0  0  0  0  0  0  0  0  0  0  0
  190.0550  178.2720  146.3690 C   0  0  0  0  0  2  0  0  0  0  0  0
  190.4020  177.0970  147.2140 C   0  0  0  0  0  0  0  0  0  0  0  0
  191.7660  176.7480  147.4220 N   0  0  0  0  0  1  0  0  0  0  0  0
  189.4900  176.3910  147.7180 O   0  0  0  0  0  0  0  0  0  0  0  0
  1 16  1  6  0  0  0
  1 20  1  0  0  0  0
  2 24  1  0  0  0  0
  2 12  1  0  0  0  0
  3 11  2  0  0  0  0
  4  3  1  0  0  0  0
  5 25  1  6  0  0  0
  5 27  1  0  0  0  0
  6  5  1  0  0  0  0
  7 24  1  6  0  0  0
  7 19  1  0  0  0  0
  7 17  1  0  0  0  0
  8 17  1  0  0  0  0
  9 28  1  0  0  0  0
 10  1  1  0  0  0  0
 10 20  1  0  0  0  0
 12  8  1  0  0  0  0
 13 12  1  0  0  0  0
 13 11  1  0  0  0  0
 14 27  1  0  0  0  0
 14 22  2  0  0  0  0
 15  9  2  0  0  0  0
 15 18  1  0  0  0  0
 17 10  1  0  0  0  0
 18  6  2  0  0  0  0
 19 16  1  0  0  0  0
 20 29  1  0  0  0  0
 21 22  1  0  0  0  0
 21  4  2  0  0  0  0
 22 13  1  0  0  0  0
 23 14  1  0  0  0  0
 26  9  1  0  0  0  0
 27  2  2  0  0  0  0
 28  6  1  0  0  0  0
 28 23  1  0  0  0  0
 29 30  1  0  0  0  0
 30 31  1  0  0  0  0
 30 32  2  0  0  0  0
M  END
>  <MODEL>
2

>  <REMARK>
 VINA RESULT:      -7.8      2.835      7.868
  Name = 
  2 active torsions:
  status: ('A' for Active; 'I' for Inactive)
    1  A    between atoms: C_20  and  C_29
    2  A    between atoms: C_29  and  C_30
                            x       y       z     vdW  Elec       q    Type
                         _______ _______ _______ _____ _____    ______ ____

>  <TORSDO>
F 2

$$$$
=
 OpenBabel11122410423D

 32 38  0  0  1  0  0  0  0  0999 V2000
  189.8710  176.3780  147.3510 C   0  0  1  0  0  3  0  0  0  0  0  0
  189.4950  177.2530  142.1730 C   0  0  0  0  0  0  0  0  0  0  0  0
  184.8680  178.6280  141.6480 C   0  0  0  0  0  3  0  0  0  0  0  0
  185.0610  178.8000  140.1950 C   0  0  0  0  0  3  0  0  0  0  0  0
  190.9310  176.7380  140.2110 C   0  0  1  0  0  3  0  0  0  0  0  0
  190.6620  176.1260  138.8770 C   0  0  0  0  0  0  0  0  0  0  0  0
  190.4780  177.0720  144.4800 C   0  0  1  0  0  3  0  0  0  0  0  0
  188.1720  177.9270  144.2250 C   0  0  0  0  0  2  0  0  0  0  0  0
  189.7440  175.7790  136.9880 C   0  0  0  0  0  0  0  0  0  0  0  0
  188.8440  177.1280  146.5020 C   0  0  2  0  0  3  0  0  0  0  0  0
  185.9100  178.4530  142.4660 C   0  0  0  0  0  3  0  0  0  0  0  0
  188.2680  177.7480  142.7690 N   0  0  0  0  0  0  0  0  0  0  0  0
  187.3320  178.5360  141.9560 C   0  0  1  0  0  3  0  0  0  0  0  0
  188.5310  177.7020  139.9460 C   0  0  0  0  0  0  0  0  0  0  0  0
  190.8710  174.9840  137.0780 C   0  0  0  0  0  3  0  0  0  0  0  0
  190.8990  175.5770  146.5240 C   0  0  0  0  0  2  0  0  0  0  0  0
  189.0370  176.9350  144.9830 C   0  0  2  0  0  3  0  0  0  0  0  0
  191.4530  175.2100  138.2800 N   0  0  0  0  0  0  0  0  0  0  0  0
  191.5070  176.3170  145.3260 C   0  0  0  0  0  2  0  0  0  0  0  0
  189.9750  177.8900  147.1860 C   0  0  1  0  0  3  0  0  0  0  0  0
  186.2570  178.5970  139.6360 C   0  0  0  0  0  3  0  0  0  0  0  0
  187.4150  178.2260  140.4780 C   0  0  0  0  0  0  0  0  0  0  0  0
  188.6420  177.5170  138.4490 C   0  0  0  0  0  2  0  0  0  0  0  0
  190.5490  176.6010  143.0380 C   0  0  0  0  0  2  0  0  0  0  0  0
  191.9220  177.8780  140.0600 C   0  0  0  0  0  1  0  0  0  0  0  0
  188.8260  175.8610  135.8190 C   0  0  0  0  0  1  0  0  0  0  0  0
  189.6460  177.2490  140.8330 C   0  0  0  0  0  0  0  0  0  0  0  0
  189.6160  176.4840  138.1210 N   0  0  0  0  0  0  0  0  0  0  0  0
  189.4360  178.5680  148.4300 C   0  0  0  0  0  2  0  0  0  0  0  0
  187.9760  178.3030  148.5580 C   0  0  0  0  0  0  0  0  0  0  0  0
  187.0530  178.9860  147.7190 N   0  0  0  0  0  1  0  0  0  0  0  0
  187.5560  177.5020  149.4320 O   0  0  0  0  0  0  0  0  0  0  0  0
  1 16  1  6  0  0  0
  2 12  1  0  0  0  0
  2 24  1  0  0  0  0
  3 11  2  0  0  0  0
  4  3  1  0  0  0  0
  5 25  1  6  0  0  0
  5 27  1  0  0  0  0
  6  5  1  0  0  0  0
  7 24  1  6  0  0  0
  7 17  1  0  0  0  0
  7 19  1  0  0  0  0
  8 17  1  0  0  0  0
  9 15  2  0  0  0  0
  9 28  1  0  0  0  0
 10 20  1  0  0  0  0
 10  1  1  0  0  0  0
 12  8  1  0  0  0  0
 13 11  1  0  0  0  0
 13 12  1  0  0  0  0
 14 22  2  0  0  0  0
 14 27  1  0  0  0  0
 15 18  1  0  0  0  0
 17 10  1  0  0  0  0
 18  6  2  0  0  0  0
 19 16  1  0  0  0  0
 20  1  1  0  0  0  0
 20 29  1  0  0  0  0
 21  4  2  0  0  0  0
 21 22  1  0  0  0  0
 22 13  1  0  0  0  0
 23 14  1  0  0  0  0
 26  9  1  0  0  0  0
 27  2  2  0  0  0  0
 28 23  1  0  0  0  0
 28  6  1  0  0  0  0
 29 30  1  0  0  0  0
 30 32  2  0  0  0  0
 31 30  1  0  0  0  0
M  END
>  <MODEL>
3

>  <REMARK>
 VINA RESULT:      -7.7      3.287      7.747
  Name = 
  2 active torsions:
  status: ('A' for Active; 'I' for Inactive)
    1  A    between atoms: C_20  and  C_29
    2  A    between atoms: C_29  and  C_30
                            x       y       z     vdW  Elec       q    Type
                         _______ _______ _______ _____ _____    ______ ____

>  <TORSDO>
F 2

$$$$
=
 OpenBabel11122410423D

 32 38  0  0  1  0  0  0  0  0999 V2000
  179.6750  177.6600  139.2160 C   0  0  1  0  0  3  0  0  0  0  0  0
  184.3600  178.4290  141.4930 C   0  0  0  0  0  0  0  0  0  0  0  0
  187.4670  177.6730  137.8390 C   0  0  0  0  0  3  0  0  0  0  0  0
  188.6120  177.9520  138.7260 C   0  0  0  0  0  3  0  0  0  0  0  0
  185.1400  178.6430  143.8420 C   0  0  1  0  0  3  0  0  0  0  0  0
  186.2500  178.0120  144.6140 C   0  0  0  0  0  0  0  0  0  0  0  0
  181.9010  178.6280  141.0050 C   0  0  1  0  0  3  0  0  0  0  0  0
  183.4820  178.4050  139.1160 C   0  0  0  0  0  2  0  0  0  0  0  0
  188.2120  177.3540  145.1150 C   0  0  0  0  0  0  0  0  0  0  0  0
  181.0710  177.9140  138.6470 C   0  0  2  0  0  3  0  0  0  0  0  0
  186.2160  177.9450  138.2220 C   0  0  0  0  0  3  0  0  0  0  0  0
  184.6020  178.3260  140.0650 N   0  0  0  0  0  0  0  0  0  0  0  0
  185.9300  178.6510  139.5280 C   0  0  1  0  0  3  0  0  0  0  0  0
  186.8010  178.4770  141.8490 C   0  0  0  0  0  0  0  0  0  0  0  0
  187.3850  177.1240  146.1980 C   0  0  0  0  0  3  0  0  0  0  0  0
  179.6590  177.4090  140.7390 C   0  0  0  0  0  2  0  0  0  0  0  0
  182.1910  177.8660  139.7080 C   0  0  2  0  0  3  0  0  0  0  0  0
  186.1390  177.5480  145.8770 N   0  0  0  0  0  0  0  0  0  0  0  0
  180.5060  178.3720  141.5800 C   0  0  0  0  0  2  0  0  0  0  0  0
  180.0930  179.0720  138.8190 C   0  0  1  0  0  3  0  0  0  0  0  0
  188.4200  178.3040  139.9990 C   0  0  0  0  0  3  0  0  0  0  0  0
  187.0470  178.4490  140.5290 C   0  0  0  0  0  0  0  0  0  0  0  0
  187.9470  178.4000  142.8340 C   0  0  0  0  0  2  0  0  0  0  0  0
  182.9580  178.2750  142.0360 C   0  0  0  0  0  2  0  0  0  0  0  0
  185.0110  180.1040  144.2350 C   0  0  0  0  0  1  0  0  0  0  0  0
  189.6710  177.0620  145.0550 C   0  0  0  0  0  1  0  0  0  0  0  0
  185.3940  178.5290  142.3520 C   0  0  0  0  0  0  0  0  0  0  0  0
  187.4930  177.9010  144.1250 N   0  0  0  0  0  0  0  0  0  0  0  0
  179.4860  179.4130  137.4730 C   0  0  0  0  0  2  0  0  0  0  0  0
  180.4550  180.2050  136.6670 C   0  0  0  0  0  0  0  0  0  0  0  0
  180.6940  179.8650  135.3070 N   0  0  0  0  0  1  0  0  0  0  0  0
  181.0880  181.1550  137.1970 O   0  0  0  0  0  0  0  0  0  0  0  0
  1 16  1  1  0  0  0
  2 24  1  0  0  0  0
  2 27  2  0  0  0  0
  3 11  2  0  0  0  0
  3  4  1  0  0  0  0
  4 21  2  0  0  0  0
  5 25  1  1  0  0  0
  5  6  1  0  0  0  0
  6 18  2  0  0  0  0
  7 19  1  1  0  0  0
  7 24  1  0  0  0  0
  8 17  1  0  0  0  0
  8 12  1  0  0  0  0
  9 15  2  0  0  0  0
 10 20  1  0  0  0  0
 10  1  1  0  0  0  0
 10 17  1  0  0  0  0
 11 13  1  0  0  0  0
 12  2  1  0  0  0  0
 13 12  1  0  0  0  0
 13 22  1  0  0  0  0
 14 27  1  0  0  0  0
 14 23  1  0  0  0  0
 16 19  1  0  0  0  0
 17  7  1  0  0  0  0
 18 15  1  0  0  0  0
 20  1  1  0  0  0  0
 21 22  1  0  0  0  0
 22 14  2  0  0  0  0
 23 28  1  0  0  0  0
 26  9  1  0  0  0  0
 27  5  1  0  0  0  0
 28  6  1  0  0  0  0
 28  9  1  0  0  0  0
 29 20  1  0  0  0  0
 30 32  2  0  0  0  0
 30 29  1  0  0  0  0
 31 30  1  0  0  0  0
M  END
>  <MODEL>
4

>  <REMARK>
 VINA RESULT:      -7.6      3.280      5.678
  Name = 
  2 active torsions:
  status: ('A' for Active; 'I' for Inactive)
    1  A    between atoms: C_20  and  C_29
    2  A    between atoms: C_29  and  C_30
                            x       y       z     vdW  Elec       q    Type
                         _______ _______ _______ _____ _____    ______ ____

>  <TORSDO>
F 2

$$$$
=
 OpenBabel11122410423D

 32 38  0  0  1  0  0  0  0  0999 V2000
  189.6100  176.7350  146.0860 C   0  0  1  0  0  3  0  0  0  0  0  0
  187.5170  177.9920  141.4210 C   0  0  0  0  0  0  0  0  0  0  0  0
  182.8220  178.6260  142.4850 C   0  0  0  0  0  3  0  0  0  0  0  0
  182.5250  178.9550  141.0780 C   0  0  0  0  0  3  0  0  0  0  0  0
  188.3180  177.8980  139.0710 C   0  0  1  0  0  3  0  0  0  0  0  0
  187.7260  177.3700  137.8070 C   0  0  0  0  0  0  0  0  0  0  0  0
  189.1890  177.7710  143.2860 C   0  0  1  0  0  3  0  0  0  0  0  0
  186.8290  178.2540  143.8450 C   0  0  0  0  0  2  0  0  0  0  0  0
  186.3140  177.0470  136.2460 C   0  0  0  0  0  0  0  0  0  0  0  0
  188.2810  177.3780  145.6900 C   0  0  2  0  0  3  0  0  0  0  0  0
  184.0820  178.5530  142.9250 C   0  0  0  0  0  3  0  0  0  0  0  0
  186.4860  178.2230  142.4170 N   0  0  0  0  0  0  0  0  0  0  0  0
  185.2480  178.9150  142.0320 C   0  0  1  0  0  3  0  0  0  0  0  0
  185.8530  178.4720  139.6630 C   0  0  0  0  0  0  0  0  0  0  0  0
  187.5050  176.4440  135.8890 C   0  0  0  0  0  3  0  0  0  0  0  0
  190.4210  176.1920  144.8910 C   0  0  0  0  0  2  0  0  0  0  0  0
  188.0100  177.3550  144.1710 C   0  0  2  0  0  3  0  0  0  0  0  0
  188.4010  176.6550  136.8830 N   0  0  0  0  0  0  0  0  0  0  0  0
  190.5210  177.1250  143.6780 C   0  0  0  0  0  2  0  0  0  0  0  0
  189.4600  178.2520  146.1040 C   0  0  1  0  0  3  0  0  0  0  0  0
  183.5000  179.0030  140.1670 C   0  0  0  0  0  3  0  0  0  0  0  0
  184.9020  178.7550  140.5680 C   0  0  0  0  0  0  0  0  0  0  0  0
  185.5110  178.4420  138.1900 C   0  0  0  0  0  2  0  0  0  0  0  0
  188.8640  177.4490  141.8380 C   0  0  0  0  0  2  0  0  0  0  0  0
  189.0560  179.1950  138.7880 C   0  0  0  0  0  1  0  0  0  0  0  0
  185.0730  177.0800  135.4250 C   0  0  0  0  0  1  0  0  0  0  0  0
  187.2390  178.1330  140.1090 C   0  0  0  0  0  0  0  0  0  0  0  0
  186.4580  177.6170  137.4510 N   0  0  0  0  0  0  0  0  0  0  0  0
  189.2550  178.7180  147.5310 C   0  0  0  0  0  2  0  0  0  0  0  0
  187.9440  178.2300  148.0410 C   0  0  0  0  0  0  0  0  0  0  0  0
  186.7340  178.7850  147.5370 N   0  0  0  0  0  1  0  0  0  0  0  0
  187.9050  177.3520  148.9410 O   0  0  0  0  0  0  0  0  0  0  0  0
  1 16  1  6  0  0  0
  1 20  1  0  0  0  0
  2 24  1  0  0  0  0
  2 12  1  0  0  0  0
  3 11  2  0  0  0  0
  4  3  1  0  0  0  0
  5 25  1  6  0  0  0
  5 27  1  0  0  0  0
  6  5  1  0  0  0  0
  7 24  1  6  0  0  0
  7 19  1  0  0  0  0
  7 17  1  0  0  0  0
  8 17  1  0  0  0  0
  9 28  1  0  0  0  0
 10  1  1  0  0  0  0
 10 20  1  0  0  0  0
 12  8  1  0  0  0  0
 13 12  1  0  0  0  0
 13 11  1  0  0  0  0
 14 27  1  0  0  0  0
 14 22  2  0  0  0  0
 15  9  2  0  0  0  0
 15 18  1  0  0  0  0
 17 10  1  0  0  0  0
 18  6  2  0  0  0  0
 19 16  1  0  0  0  0
 20 29  1  0  0  0  0
 21 22  1  0  0  0  0
 21  4  2  0  0  0  0
 22 13  1  0  0  0  0
 23 14  1  0  0  0  0
 26  9  1  0  0  0  0
 27  2  2  0  0  0  0
 28  6  1  0  0  0  0
 28 23  1  0  0  0  0
 29 30  1  0  0  0  0
 30 32  2  0  0  0  0
 31 30  1  0  0  0  0
M  END
>  <MODEL>
5

>  <REMARK>
 VINA RESULT:      -7.4      3.004      7.688
  Name = 
  2 active torsions:
  status: ('A' for Active; 'I' for Inactive)
    1  A    between atoms: C_20  and  C_29
    2  A    between atoms: C_29  and  C_30
                            x       y       z     vdW  Elec       q    Type
                         _______ _______ _______ _____ _____    ______ ____

>  <TORSDO>
F 2

$$$$
=
 OpenBabel11122410423D

 32 38  0  0  1  0  0  0  0  0999 V2000
  179.8680  178.2560  141.5180 C   0  0  1  0  0  3  0  0  0  0  0  0
  184.8280  178.6000  143.2490 C   0  0  0  0  0  0  0  0  0  0  0  0
  187.4280  177.8990  139.2080 C   0  0  0  0  0  3  0  0  0  0  0  0
  188.6850  178.0530  139.9650 C   0  0  0  0  0  3  0  0  0  0  0  0
  185.8920  178.6160  145.4950 C   0  0  1  0  0  3  0  0  0  0  0  0
  187.0400  177.8720  146.0900 C   0  0  0  0  0  0  0  0  0  0  0  0
  182.3480  178.9740  143.0760 C   0  0  1  0  0  3  0  0  0  0  0  0
  183.6780  178.7810  141.0000 C   0  0  0  0  0  2  0  0  0  0  0  0
  189.0000  177.0690  146.3110 C   0  0  0  0  0  0  0  0  0  0  0  0
  181.2000  178.4640  140.7990 C   0  0  2  0  0  3  0  0  0  0  0  0
  186.2510  178.2200  139.7550 C   0  0  0  0  0  3  0  0  0  0  0  0
  184.8940  178.5750  141.7990 N   0  0  0  0  0  0  0  0  0  0  0  0
  186.1680  178.8550  141.1250 C   0  0  1  0  0  3  0  0  0  0  0  0
  187.2920  178.4810  143.3090 C   0  0  0  0  0  0  0  0  0  0  0  0
  188.2930  176.8190  147.4710 C   0  0  0  0  0  3  0  0  0  0  0  0
  180.0140  177.9090  143.0150 C   0  0  0  0  0  2  0  0  0  0  0  0
  182.4320  178.2820  141.7120 C   0  0  2  0  0  3  0  0  0  0  0  0
  187.0480  177.3350  147.3280 N   0  0  0  0  0  0  0  0  0  0  0  0
  181.0160  178.7640  143.8000 C   0  0  0  0  0  2  0  0  0  0  0  0
  180.3290  179.6630  141.1540 C   0  0  1  0  0  3  0  0  0  0  0  0
  188.6670  178.3330  141.2700 C   0  0  0  0  0  3  0  0  0  0  0  0
  187.3780  178.5240  141.9700 C   0  0  0  0  0  0  0  0  0  0  0  0
  188.5380  178.2730  144.1410 C   0  0  0  0  0  2  0  0  0  0  0  0
  183.4930  178.4940  143.9490 C   0  0  0  0  0  2  0  0  0  0  0  0
  185.9060  180.0530  145.9830 C   0  0  0  0  0  1  0  0  0  0  0  0
  190.4180  176.6960  146.0570 C   0  0  0  0  0  1  0  0  0  0  0  0
  185.9610  178.5830  143.9810 C   0  0  0  0  0  0  0  0  0  0  0  0
  188.2070  177.7200  145.4480 N   0  0  0  0  0  0  0  0  0  0  0  0
  179.5920  180.1260  139.9130 C   0  0  0  0  0  2  0  0  0  0  0  0
  180.3240  181.2580  139.2820 C   0  0  0  0  0  0  0  0  0  0  0  0
  181.6630  181.0790  138.8360 N   0  0  0  0  0  1  0  0  0  0  0  0
  179.7710  182.3830  139.1730 O   0  0  0  0  0  0  0  0  0  0  0  0
  1 16  1  1  0  0  0
  2 24  1  0  0  0  0
  2 27  2  0  0  0  0
  3 11  2  0  0  0  0
  3  4  1  0  0  0  0
  4 21  2  0  0  0  0
  5 25  1  1  0  0  0
  5  6  1  0  0  0  0
  6 18  2  0  0  0  0
  7 19  1  1  0  0  0
  7 24  1  0  0  0  0
  8 17  1  0  0  0  0
  8 12  1  0  0  0  0
  9 15  2  0  0  0  0
 10 20  1  0  0  0  0
 10  1  1  0  0  0  0
 10 17  1  0  0  0  0
 11 13  1  0  0  0  0
 12  2  1  0  0  0  0
 13 12  1  0  0  0  0
 13 22  1  0  0  0  0
 14 27  1  0  0  0  0
 14 23  1  0  0  0  0
 16 19  1  0  0  0  0
 17  7  1  0  0  0  0
 18 15  1  0  0  0  0
 20  1  1  0  0  0  0
 21 22  1  0  0  0  0
 22 14  2  0  0  0  0
 23 28  1  0  0  0  0
 26  9  1  0  0  0  0
 27  5  1  0  0  0  0
 28  6  1  0  0  0  0
 28  9  1  0  0  0  0
 29 20  1  0  0  0  0
 30 29  1  0  0  0  0
 31 30  1  0  0  0  0
 32 30  2  0  0  0  0
M  END
>  <MODEL>
6

>  <REMARK>
 VINA RESULT:      -7.3      3.051      5.744
  Name = 
  2 active torsions:
  status: ('A' for Active; 'I' for Inactive)
    1  A    between atoms: C_20  and  C_29
    2  A    between atoms: C_29  and  C_30
                            x       y       z     vdW  Elec       q    Type
                         _______ _______ _______ _____ _____    ______ ____

>  <TORSDO>
F 2

$$$$
=
 OpenBabel11122410423D

 32 38  0  0  1  0  0  0  0  0999 V2000
  187.5320  178.6610  147.0160 C   0  0  1  0  0  3  0  0  0  0  0  0
  183.8270  178.6210  143.2750 C   0  0  0  0  0  0  0  0  0  0  0  0
  186.4330  178.4480  139.1820 C   0  0  0  0  0  3  0  0  0  0  0  0
  185.2010  178.4390  138.3720 C   0  0  0  0  0  3  0  0  0  0  0  0
  181.3800  179.0530  143.2430 C   0  0  1  0  0  3  0  0  0  0  0  0
  180.4980  179.8890  142.3770 C   0  0  0  0  0  0  0  0  0  0  0  0
  184.9660  178.2480  145.4850 C   0  0  1  0  0  3  0  0  0  0  0  0
  186.2780  177.9970  143.4030 C   0  0  0  0  0  2  0  0  0  0  0  0
  179.6150  180.6970  140.6160 C   0  0  0  0  0  0  0  0  0  0  0  0
  187.5660  178.2950  145.5320 C   0  0  2  0  0  3  0  0  0  0  0  0
  186.3900  178.2610  140.5050 C   0  0  0  0  0  3  0  0  0  0  0  0
  185.0900  178.3480  142.6140 N   0  0  0  0  0  0  0  0  0  0  0  0
  185.0960  177.9200  141.2080 C   0  0  1  0  0  3  0  0  0  0  0  0
  182.7480  178.7210  141.0580 C   0  0  0  0  0  0  0  0  0  0  0  0
  178.9310  181.1880  141.7120 C   0  0  0  0  0  3  0  0  0  0  0  0
  186.2050  179.3060  147.4690 C   0  0  0  0  0  2  0  0  0  0  0  0
  186.2660  178.6450  144.7770 C   0  0  2  0  0  3  0  0  0  0  0  0
  179.4940  180.6680  142.8300 N   0  0  0  0  0  0  0  0  0  0  0  0
  184.9280  178.6180  146.9700 C   0  0  0  0  0  2  0  0  0  0  0  0
  187.4040  177.2040  146.5850 C   0  0  1  0  0  3  0  0  0  0  0  0
  183.9990  178.4320  138.9550 C   0  0  0  0  0  3  0  0  0  0  0  0
  183.8920  178.4030  140.4300 C   0  0  0  0  0  0  0  0  0  0  0  0
  181.5180  179.0800  140.2540 C   0  0  0  0  0  2  0  0  0  0  0  0
  183.7920  178.8830  144.7630 C   0  0  0  0  0  2  0  0  0  0  0  0
  180.6810  177.7450  143.5720 C   0  0  0  0  0  1  0  0  0  0  0  0
  179.3040  180.9940  139.1910 C   0  0  0  0  0  1  0  0  0  0  0  0
  182.6990  178.7740  142.5510 C   0  0  0  0  0  0  0  0  0  0  0  0
  180.5990  179.8920  141.0410 N   0  0  0  0  0  0  0  0  0  0  0  0
  188.7350  176.5050  146.7840 C   0  0  0  0  0  2  0  0  0  0  0  0
  189.6610  176.8530  145.6710 C   0  0  0  0  0  0  0  0  0  0  0  0
  189.3680  176.4320  144.3440 N   0  0  0  0  0  1  0  0  0  0  0  0
  190.7200  177.4890  145.9090 O   0  0  0  0  0  0  0  0  0  0  0  0
  1 16  1  6  0  0  0
  2 24  1  0  0  0  0
  3 11  2  0  0  0  0
  4 21  2  0  0  0  0
  4  3  1  0  0  0  0
  5 25  1  6  0  0  0
  6 18  2  0  0  0  0
  6  5  1  0  0  0  0
  7 24  1  6  0  0  0
  7 19  1  0  0  0  0
  8 17  1  0  0  0  0
  9 28  1  0  0  0  0
  9 15  2  0  0  0  0
 10 20  1  0  0  0  0
 10  1  1  0  0  0  0
 11 13  1  0  0  0  0
 12  2  1  0  0  0  0
 12  8  1  0  0  0  0
 13 12  1  0  0  0  0
 14 27  1  0  0  0  0
 15 18  1  0  0  0  0
 17  7  1  0  0  0  0
 17 10  1  0  0  0  0
 19 16  1  0  0  0  0
 20 29  1  0  0  0  0
 20  1  1  0  0  0  0
 21 22  1  0  0  0  0
 22 14  2  0  0  0  0
 22 13  1  0  0  0  0
 23 28  1  0  0  0  0
 23 14  1  0  0  0  0
 26  9  1  0  0  0  0
 27  5  1  0  0  0  0
 27  2  2  0  0  0  0
 28  6  1  0  0  0  0
 30 32  2  0  0  0  0
 30 29  1  0  0  0  0
 31 30  1  0  0  0  0
M  END
>  <MODEL>
7

>  <REMARK>
 VINA RESULT:      -7.2      3.833      8.835
  Name = 
  2 active torsions:
  status: ('A' for Active; 'I' for Inactive)
    1  A    between atoms: C_20  and  C_29
    2  A    between atoms: C_29  and  C_30
                            x       y       z     vdW  Elec       q    Type
                         _______ _______ _______ _____ _____    ______ ____

>  <TORSDO>
F 2

$$$$
=
 OpenBabel11122410423D

 32 38  0  0  1  0  0  0  0  0999 V2000
  193.1870  173.2200  136.0800 C   0  0  1  0  0  3  0  0  0  0  0  0
  189.2110  176.4170  137.3800 C   0  0  0  0  0  0  0  0  0  0  0  0
  190.0980  177.3900  142.0540 C   0  0  0  0  0  3  0  0  0  0  0  0
  188.9040  178.2530  142.1240 C   0  0  0  0  0  3  0  0  0  0  0  0
  187.0640  177.0530  136.3030 C   0  0  1  0  0  3  0  0  0  0  0  0
  185.6550  177.1280  136.7910 C   0  0  0  0  0  0  0  0  0  0  0  0
  190.9660  175.2590  136.0020 C   0  0  1  0  0  3  0  0  0  0  0  0
  191.4970  175.8900  138.3340 C   0  0  0  0  0  2  0  0  0  0  0  0
  183.9920  177.6340  138.0200 C   0  0  0  0  0  0  0  0  0  0  0  0
  192.9700  174.1740  137.2540 C   0  0  2  0  0  3  0  0  0  0  0  0
  190.5660  176.9540  140.8800 C   0  0  0  0  0  3  0  0  0  0  0  0
  190.1430  176.4380  138.4930 N   0  0  0  0  0  0  0  0  0  0  0  0
  189.9630  177.4170  139.5730 C   0  0  1  0  0  3  0  0  0  0  0  0
  187.6520  177.7730  138.7300 C   0  0  0  0  0  0  0  0  0  0  0  0
  183.5190  177.0130  136.8800 C   0  0  0  0  0  3  0  0  0  0  0  0
  191.9360  173.0230  135.1970 C   0  0  0  0  0  2  0  0  0  0  0  0
  191.5410  174.7520  137.3290 C   0  0  2  0  0  3  0  0  0  0  0  0
  184.5800  176.6970  136.0990 N   0  0  0  0  0  0  0  0  0  0  0  0
  191.1770  174.3030  134.8250 C   0  0  0  0  0  2  0  0  0  0  0  0
  193.7670  174.6290  136.0370 C   0  0  1  0  0  3  0  0  0  0  0  0
  188.1510  178.4670  141.0420 C   0  0  0  0  0  3  0  0  0  0  0  0
  188.5270  177.8610  139.7460 C   0  0  0  0  0  0  0  0  0  0  0  0
  186.2570  178.3380  138.8830 C   0  0  0  0  0  2  0  0  0  0  0  0
  189.4850  175.5450  136.1780 C   0  0  0  0  0  2  0  0  0  0  0  0
  187.3470  178.2230  135.3770 C   0  0  0  0  0  1  0  0  0  0  0  0
  183.1590  178.1680  139.1320 C   0  0  0  0  0  1  0  0  0  0  0  0
  188.0340  177.0700  137.4680 C   0  0  0  0  0  0  0  0  0  0  0  0
  185.3300  177.6940  137.9610 N   0  0  0  0  0  0  0  0  0  0  0  0
  195.2460  174.5710  136.3610 C   0  0  0  0  0  2  0  0  0  0  0  0
  195.8900  175.8710  136.0270 C   0  0  0  0  0  0  0  0  0  0  0  0
  197.3050  176.0030  136.0930 N   0  0  0  0  0  1  0  0  0  0  0  0
  195.1810  176.8640  135.7190 O   0  0  0  0  0  0  0  0  0  0  0  0
  1 16  1  6  0  0  0
  1 10  1  0  0  0  0
  2 27  2  0  0  0  0
  2 12  1  0  0  0  0
  3  4  1  0  0  0  0
  5 25  1  6  0  0  0
  5  6  1  0  0  0  0
  5 27  1  0  0  0  0
  6 28  1  0  0  0  0
  7 19  1  6  0  0  0
  7 24  1  0  0  0  0
  7 17  1  0  0  0  0
  8 12  1  0  0  0  0
  9 26  1  0  0  0  0
 10 17  1  0  0  0  0
 11  3  2  0  0  0  0
 12 13  1  0  0  0  0
 13 22  1  0  0  0  0
 13 11  1  0  0  0  0
 14 23  1  0  0  0  0
 14 22  2  0  0  0  0
 15  9  2  0  0  0  0
 17  8  1  0  0  0  0
 18  6  2  0  0  0  0
 18 15  1  0  0  0  0
 19 16  1  0  0  0  0
 20  1  1  0  0  0  0
 20 29  1  0  0  0  0
 20 10  1  0  0  0  0
 21  4  2  0  0  0  0
 22 21  1  0  0  0  0
 24  2  1  0  0  0  0
 27 14  1  0  0  0  0
 28  9  1  0  0  0  0
 28 23  1  0  0  0  0
 30 31  1  0  0  0  0
 30 29  1  0  0  0  0
 32 30  2  0  0  0  0
M  END
>  <MODEL>
8

>  <REMARK>
 VINA RESULT:      -7.2      4.286      7.959
  Name = 
  2 active torsions:
  status: ('A' for Active; 'I' for Inactive)
    1  A    between atoms: C_20  and  C_29
    2  A    between atoms: C_29  and  C_30
                            x       y       z     vdW  Elec       q    Type
                         _______ _______ _______ _____ _____    ______ ____

>  <TORSDO>
F 2

$$$$
=
 OpenBabel11122410423D

 32 38  0  0  1  0  0  0  0  0999 V2000
  185.7150  179.3320  145.3030 C   0  0  1  0  0  3  0  0  0  0  0  0
  183.9830  178.2490  140.4500 C   0  0  0  0  0  0  0  0  0  0  0  0
  188.0320  178.5070  137.7810 C   0  0  0  0  0  3  0  0  0  0  0  0
  187.2750  178.1700  136.5610 C   0  0  0  0  0  3  0  0  0  0  0  0
  181.7380  178.0910  139.3970 C   0  0  1  0  0  3  0  0  0  0  0  0
  181.1510  178.6550  138.1460 C   0  0  0  0  0  0  0  0  0  0  0  0
  184.1520  178.2570  142.9580 C   0  0  1  0  0  3  0  0  0  0  0  0
  186.2310  178.2260  141.6180 C   0  0  0  0  0  2  0  0  0  0  0  0
  180.9380  179.1510  136.0870 C   0  0  0  0  0  0  0  0  0  0  0  0
  186.4330  178.9170  144.0190 C   0  0  2  0  0  3  0  0  0  0  0  0
  187.4810  178.3760  138.9920 C   0  0  0  0  0  3  0  0  0  0  0  0
  185.4340  178.2510  140.3840 N   0  0  0  0  0  0  0  0  0  0  0  0
  186.1060  177.7730  139.1690 C   0  0  1  0  0  3  0  0  0  0  0  0
  183.9260  177.9900  137.9960 C   0  0  0  0  0  0  0  0  0  0  0  0
  179.7800  179.5160  136.7450 C   0  0  0  0  0  3  0  0  0  0  0  0
  184.2210  179.6660  145.1020 C   0  0  0  0  0  2  0  0  0  0  0  0
  185.5220  178.9160  142.7720 C   0  0  2  0  0  3  0  0  0  0  0  0
  179.9180  179.1960  138.0540 N   0  0  0  0  0  0  0  0  0  0  0  0
  183.4290  178.6750  144.2410 C   0  0  0  0  0  2  0  0  0  0  0  0
  186.0660  177.8680  145.0630 C   0  0  1  0  0  3  0  0  0  0  0  0
  185.9670  177.9080  136.6190 C   0  0  0  0  0  3  0  0  0  0  0  0
  185.2650  177.9230  137.9200 C   0  0  0  0  0  0  0  0  0  0  0  0
  183.0960  178.0120  136.7310 C   0  0  0  0  0  2  0  0  0  0  0  0
  183.2830  178.5640  141.7510 C   0  0  0  0  0  2  0  0  0  0  0  0
  181.2370  176.6720  139.6010 C   0  0  0  0  0  1  0  0  0  0  0  0
  181.1960  179.3000  134.6280 C   0  0  0  0  0  1  0  0  0  0  0  0
  183.2520  178.0990  139.3260 C   0  0  0  0  0  0  0  0  0  0  0  0
  181.7940  178.6210  136.9720 N   0  0  0  0  0  0  0  0  0  0  0  0
  187.3020  177.5120  145.8640 C   0  0  0  0  0  2  0  0  0  0  0  0
  188.4590  177.3120  144.9490 C   0  0  0  0  0  0  0  0  0  0  0  0
  189.6190  178.1260  145.0810 N   0  0  0  0  0  1  0  0  0  0  0  0
  188.3990  176.4480  144.0370 O   0  0  0  0  0  0  0  0  0  0  0  0
  1 16  1  6  0  0  0
  2 24  1  0  0  0  0
  3 11  2  0  0  0  0
  4 21  2  0  0  0  0
  4  3  1  0  0  0  0
  5 25  1  6  0  0  0
  6  5  1  0  0  0  0
  7 24  1  6  0  0  0
  7 19  1  0  0  0  0
  8 17  1  0  0  0  0
  9 15  2  0  0  0  0
  9 28  1  0  0  0  0
 10 20  1  0  0  0  0
 10  1  1  0  0  0  0
 11 13  1  0  0  0  0
 12  2  1  0  0  0  0
 12  8  1  0  0  0  0
 13 12  1  0  0  0  0
 14 27  1  0  0  0  0
 15 18  1  0  0  0  0
 17  7  1  0  0  0  0
 17 10  1  0  0  0  0
 18  6  2  0  0  0  0
 19 16  1  0  0  0  0
 20  1  1  0  0  0  0
 20 29  1  0  0  0  0
 21 22  1  0  0  0  0
 22 14  2  0  0  0  0
 22 13  1  0  0  0  0
 23 28  1  0  0  0  0
 23 14  1  0  0  0  0
 26  9  1  0  0  0  0
 27  5  1  0  0  0  0
 27  2  2  0  0  0  0
 28  6  1  0  0  0  0
 30 31  1  0  0  0  0
 30 29  1  0  0  0  0
 32 30  2  0  0  0  0
M  END
>  <MODEL>
9

>  <REMARK>
 VINA RESULT:      -6.5      3.208      9.066
  Name = 
  2 active torsions:
  status: ('A' for Active; 'I' for Inactive)
    1  A    between atoms: C_20  and  C_29
    2  A    between atoms: C_29  and  C_30
                            x       y       z     vdW  Elec       q    Type
                         _______ _______ _______ _____ _____    ______ ____

>  <TORSDO>
F 2

$$$$
