=
 OpenBabel11122411473D

 37 44  0  0  1  0  0  0  0  0999 V2000
  190.1120  178.5200  144.0250 C   0  0  0  0  0  0  0  0  0  0  0  0
  186.4510  177.6890  144.1600 C   0  0  1  0  0  3  0  0  0  0  0  0
  184.6550  177.6440  141.5190 O   0  0  0  0  0  0  0  0  0  0  0  0
  188.7780  177.0360  145.1630 C   0  0  2  0  0  3  0  0  0  0  0  0
  186.2890  178.5630  142.9870 N   0  0  2  0  0  0  0  0  0  0  0  0
  187.8120  176.9850  143.9760 C   0  0  2  0  0  3  0  0  0  0  0  0
  184.9040  178.6400  142.4820 C   0  0  2  0  0  3  0  0  0  0  0  0
  188.0070  176.7680  146.4430 C   0  0  0  0  0  2  0  0  0  0  0  0
  188.4330  177.5860  142.7260 C   0  0  2  0  0  3  0  0  0  0  0  0
  190.9650  177.4770  143.6720 F   0  0  0  0  0  0  0  0  0  0  0  0
  184.9120  178.8900  145.7940 C   0  0  0  0  0  2  0  0  0  0  0  0
  186.9250  177.8190  146.7040 C   0  0  0  0  0  2  0  0  0  0  0  0
  189.1570  178.7680  143.0170 O   0  0  0  0  0  0  0  0  0  0  0  0
  185.0870  179.5280  140.0900 O   0  0  0  0  0  0  0  0  0  0  0  0
  184.7120  178.1690  140.1940 C   0  0  1  0  0  3  0  0  0  0  0  0
  186.3550  178.5210  145.4590 C   0  0  1  0  0  3  0  0  0  0  0  0
  187.1690  177.9590  141.9850 C   0  0  2  0  0  3  0  0  0  0  0  0
  189.4630  178.2660  145.2520 O   0  0  0  0  0  0  0  0  0  0  0  0
  183.8110  178.7020  143.5750 C   0  0  1  0  0  3  0  0  0  0  0  0
  190.8820  179.6560  144.1740 F   0  0  0  0  0  0  0  0  0  0  0  0
  186.0870  178.5960  139.7380 C   0  0  2  0  0  3  0  0  0  0  0  0
  187.2780  178.8090  140.7060 C   0  0  2  0  0  3  0  0  0  0  0  0
  184.2100  179.6600  144.6880 C   0  0  0  0  0  2  0  0  0  0  0  0
  181.4640  178.5660  144.0100 C   0  0  0  0  0  2  0  0  0  0  0  0
  182.4750  179.0560  143.0720 N   0  0  2  0  0  0  0  0  0  0  0  0
  182.2350  178.5020  141.7300 C   0  0  0  0  0  2  0  0  0  0  0  0
  180.5380  178.7220  140.0600 O   0  0  0  0  0  0  0  0  0  0  0  0
  179.7950  178.9380  142.2580 N   0  0  0  0  0  2  0  0  0  0  0  0
  180.8270  178.7550  141.2850 C   0  0  0  0  0  0  0  0  0  0  0  0
  180.1140  179.1810  143.6610 C   0  0  0  0  0  2  0  0  0  0  0  0
  188.5650  178.5210  139.9370 C   0  0  1  0  0  3  0  0  0  0  0  0
  188.6380  177.0890  139.5950 N   0  0  0  0  0  0  0  0  0  0  0  0
  188.2480  178.1000  138.5740 C   0  0  2  0  0  3  0  0  0  0  0  0
  189.3610  178.5350  137.6210 C   0  0  0  0  0  2  0  0  0  0  0  0
  189.1710  179.8570  137.2650 F   0  0  0  0  0  0  0  0  0  0  0  0
  190.3900  176.0990  140.7700 O   0  0  0  0  0  1  0  0  0  0  0  0
  190.0560  176.7410  139.5790 C   0  0  0  0  0  2  0  0  0  0  0  0
  1 20  1  0  0  0  0
  1 18  1  0  0  0  0
  2 16  1  0  0  0  0
  3  7  1  0  0  0  0
  4 18  1  0  0  0  0
  4  8  1  0  0  0  0
  5  2  1  0  0  0  0
  6  2  1  0  0  0  0
  6  4  1  0  0  0  0
  7  5  1  0  0  0  0
  7 19  1  0  0  0  0
  8 12  1  0  0  0  0
  9 13  1  0  0  0  0
  9  6  1  0  0  0  0
 10  1  1  0  0  0  0
 13  1  1  0  0  0  0
 14 15  1  0  0  0  0
 15  3  1  0  0  0  0
 16 11  1  0  0  0  0
 16 12  1  0  0  0  0
 17  9  1  0  0  0  0
 17  5  1  0  0  0  0
 19 23  1  0  0  0  0
 21 14  1  0  0  0  0
 21 15  1  0  0  0  0
 21 22  1  0  0  0  0
 22 17  1  0  0  0  0
 23 11  1  0  0  0  0
 25 19  1  0  0  0  0
 25 24  1  0  0  0  0
 26 25  1  0  0  0  0
 27 29  2  0  0  0  0
 28 30  1  0  0  0  0
 29 26  1  0  0  0  0
 29 28  1  0  0  0  0
 30 24  1  0  0  0  0
 31 22  1  0  0  0  0
 32 31  1  0  0  0  0
 33 32  1  0  0  0  0
 33 31  1  0  0  0  0
 34 33  1  0  0  0  0
 35 34  1  0  0  0  0
 37 32  1  0  0  0  0
 37 36  1  0  0  0  0
M  END
>  <MODEL>
1

>  <REMARK>
 VINA RESULT:     -10.1      0.000      0.000
  Name = 
  4 active torsions:
  status: ('A' for Active; 'I' for Inactive)
    1  A    between atoms: C_1  and  C_27
    2  A    between atoms: N_4  and  C_37
    3  A    between atoms: C_8  and  C_12
    4  A    between atoms: C_23  and  N_30
                            x       y       z     vdW  Elec       q    Type
                         _______ _______ _______ _____ _____    ______ ____

>  <TORSDO>
F 4

$$$$
=
 OpenBabel11122411473D

 37 44  0  0  1  0  0  0  0  0999 V2000
  185.9990  179.2470  147.0160 C   0  0  0  0  0  0  0  0  0  0  0  0
  185.9700  177.8010  143.5480 C   0  0  1  0  0  3  0  0  0  0  0  0
  188.4220  176.0770  142.4430 O   0  0  0  0  0  0  0  0  0  0  0  0
  184.4560  178.2540  145.6340 C   0  0  2  0  0  3  0  0  0  0  0  0
  187.4350  177.9310  143.5660 N   0  0  2  0  0  0  0  0  0  0  0  0
  185.5640  177.4180  144.9870 C   0  0  2  0  0  3  0  0  0  0  0  0
  188.0970  177.4430  142.3400 C   0  0  2  0  0  3  0  0  0  0  0  0
  183.3490  178.4810  144.6200 C   0  0  0  0  0  2  0  0  0  0  0  0
  186.8410  177.4530  145.8110 C   0  0  2  0  0  3  0  0  0  0  0  0
  185.6300  178.3820  148.0430 F   0  0  0  0  0  0  0  0  0  0  0  0
  185.4430  179.2720  141.5380 C   0  0  0  0  0  2  0  0  0  0  0  0
  183.8330  179.2570  143.3920 C   0  0  0  0  0  2  0  0  0  0  0  0
  187.1120  178.7530  146.3020 O   0  0  0  0  0  0  0  0  0  0  0  0
  190.5460  177.0670  142.9760 O   0  0  0  0  0  0  0  0  0  0  0  0
  189.8020  175.8870  142.7480 C   0  0  1  0  0  3  0  0  0  0  0  0
  185.3270  179.1160  143.0530 C   0  0  1  0  0  3  0  0  0  0  0  0
  187.8380  177.1270  144.7220 C   0  0  2  0  0  3  0  0  0  0  0  0
  184.9260  179.4870  146.1300 O   0  0  0  0  0  0  0  0  0  0  0  0
  187.3660  177.7870  141.0210 C   0  0  1  0  0  3  0  0  0  0  0  0
  186.3580  180.4500  147.5910 F   0  0  0  0  0  0  0  0  0  0  0  0
  190.2130  176.3290  144.1330 C   0  0  2  0  0  3  0  0  0  0  0  0
  189.3420  177.2450  145.0290 C   0  0  2  0  0  3  0  0  0  0  0  0
  186.8740  179.2270  141.0320 C   0  0  0  0  0  2  0  0  0  0  0  0
  189.4600  178.2120  139.9470 C   0  0  0  0  0  2  0  0  0  0  0  0
  188.1640  177.5450  139.8090 N   0  0  2  0  0  0  0  0  0  0  0  0
  187.4730  178.0200  138.6000 C   0  0  0  0  0  2  0  0  0  0  0  0
  187.8360  177.8630  136.2420 O   0  0  0  0  0  0  0  0  0  0  0  0
  189.7710  177.8950  137.5390 N   0  0  0  0  0  2  0  0  0  0  0  0
  188.3480  177.8900  137.3910 C   0  0  0  0  0  0  0  0  0  0  0  0
  190.3950  177.7240  138.8470 C   0  0  0  0  0  2  0  0  0  0  0  0
  189.6550  176.9120  146.4860 C   0  0  1  0  0  3  0  0  0  0  0  0
  191.1010  177.0590  146.7350 N   0  0  0  0  0  0  0  0  0  0  0  0
  190.1380  178.1040  147.1770 C   0  0  2  0  0  3  0  0  0  0  0  0
  189.7390  178.0510  148.6510 C   0  0  0  0  0  2  0  0  0  0  0  0
  188.4440  177.5800  148.7610 F   0  0  0  0  0  0  0  0  0  0  0  0
  192.8260  175.9690  147.8610 O   0  0  0  0  0  1  0  0  0  0  0  0
  191.4410  176.0860  147.7700 C   0  0  0  0  0  2  0  0  0  0  0  0
  1 20  1  0  0  0  0
  1 10  1  0  0  0  0
  2  5  1  0  0  0  0
  2  6  1  0  0  0  0
  3 15  1  0  0  0  0
  4 18  1  0  0  0  0
  5 17  1  0  0  0  0
  6  4  1  0  0  0  0
  6  9  1  0  0  0  0
  7  3  1  0  0  0  0
  7  5  1  0  0  0  0
  8  4  1  0  0  0  0
  9 13  1  0  0  0  0
 11 16  1  0  0  0  0
 12  8  1  0  0  0  0
 13  1  1  0  0  0  0
 14 21  1  0  0  0  0
 15 14  1  0  0  0  0
 15 21  1  0  0  0  0
 16 12  1  0  0  0  0
 16  2  1  0  0  0  0
 17 22  1  0  0  0  0
 17  9  1  0  0  0  0
 18  1  1  0  0  0  0
 19 23  1  0  0  0  0
 19  7  1  0  0  0  0
 21 22  1  0  0  0  0
 22 31  1  0  0  0  0
 23 11  1  0  0  0  0
 25 24  1  0  0  0  0
 25 19  1  0  0  0  0
 26 25  1  0  0  0  0
 27 29  2  0  0  0  0
 28 30  1  0  0  0  0
 29 28  1  0  0  0  0
 29 26  1  0  0  0  0
 30 24  1  0  0  0  0
 31 32  1  0  0  0  0
 31 33  1  0  0  0  0
 32 33  1  0  0  0  0
 32 37  1  0  0  0  0
 33 34  1  0  0  0  0
 34 35  1  0  0  0  0
 37 36  1  0  0  0  0
M  END
>  <MODEL>
2

>  <REMARK>
 VINA RESULT:     -10.1      3.473      6.607
  Name = 
  4 active torsions:
  status: ('A' for Active; 'I' for Inactive)
    1  A    between atoms: C_1  and  C_27
    2  A    between atoms: N_4  and  C_37
    3  A    between atoms: C_8  and  C_12
    4  A    between atoms: C_23  and  N_30
                            x       y       z     vdW  Elec       q    Type
                         _______ _______ _______ _____ _____    ______ ____

>  <TORSDO>
F 4

$$$$
=
 OpenBabel11122411473D

 37 44  0  0  1  0  0  0  0  0999 V2000
  183.1250  178.1030  140.9690 C   0  0  0  0  0  0  0  0  0  0  0  0
  186.0690  178.7870  143.2020 C   0  0  1  0  0  3  0  0  0  0  0  0
  189.0520  178.8190  142.0620 O   0  0  0  0  0  0  0  0  0  0  0  0
  183.5990  179.5080  142.7240 C   0  0  2  0  0  3  0  0  0  0  0  0
  186.8540  177.9330  142.2970 N   0  0  2  0  0  0  0  0  0  0  0  0
  185.0700  179.5480  142.3040 C   0  0  2  0  0  3  0  0  0  0  0  0
  188.2780  177.8130  142.6690 C   0  0  2  0  0  3  0  0  0  0  0  0
  183.5050  179.7180  144.2240 C   0  0  0  0  0  2  0  0  0  0  0  0
  185.2630  178.9990  140.8990 C   0  0  2  0  0  3  0  0  0  0  0  0
  182.6480  179.1870  140.2360 F   0  0  0  0  0  0  0  0  0  0  0  0
  186.3740  177.4900  145.3720 C   0  0  0  0  0  2  0  0  0  0  0  0
  184.2230  178.6190  145.0130 C   0  0  0  0  0  2  0  0  0  0  0  0
  184.4800  177.8400  140.6770 O   0  0  0  0  0  0  0  0  0  0  0  0
  189.4760  176.9860  140.5670 O   0  0  0  0  0  0  0  0  0  0  0  0
  189.7520  178.3260  140.9210 C   0  0  1  0  0  3  0  0  0  0  0  0
  185.3880  177.9240  144.2890 C   0  0  1  0  0  3  0  0  0  0  0  0
  186.7170  178.5930  140.9970 C   0  0  2  0  0  3  0  0  0  0  0  0
  182.9610  178.3050  142.3570 O   0  0  0  0  0  0  0  0  0  0  0  0
  188.5490  177.6840  144.1870 C   0  0  1  0  0  3  0  0  0  0  0  0
  182.3860  176.9950  140.6060 F   0  0  0  0  0  0  0  0  0  0  0  0
  188.8760  177.9640  139.7450 C   0  0  2  0  0  3  0  0  0  0  0  0
  187.3410  177.7760  139.8520 C   0  0  2  0  0  3  0  0  0  0  0  0
  187.5660  176.7180  144.8340 C   0  0  0  0  0  2  0  0  0  0  0  0
  190.2540  176.0490  143.8150 C   0  0  0  0  0  2  0  0  0  0  0  0
  189.9260  177.2890  144.5220 N   0  0  2  0  0  0  0  0  0  0  0  0
  190.1010  177.1100  145.9710 C   0  0  0  0  0  2  0  0  0  0  0  0
  191.9480  176.7280  147.4420 O   0  0  0  0  0  0  0  0  0  0  0  0
  192.1810  175.8220  145.3080 N   0  0  0  0  0  2  0  0  0  0  0  0
  191.4670  176.5800  146.2890 C   0  0  0  0  0  0  0  0  0  0  0  0
  191.7540  175.7980  143.9130 C   0  0  0  0  0  2  0  0  0  0  0  0
  186.7300  178.1310  138.4980 C   0  0  1  0  0  3  0  0  0  0  0  0
  187.5220  177.5210  137.4140 N   0  0  0  0  0  0  0  0  0  0  0  0
  186.2280  176.9240  137.8460 C   0  0  2  0  0  3  0  0  0  0  0  0
  185.0210  177.2660  136.9730 C   0  0  0  0  0  2  0  0  0  0  0  0
  184.2550  178.2280  137.6030 F   0  0  0  0  0  0  0  0  0  0  0  0
  187.6150  179.7330  136.6850 O   0  0  0  0  0  1  0  0  0  0  0  0
  187.4100  178.4200  136.2680 C   0  0  0  0  0  2  0  0  0  0  0  0
  1 18  1  0  0  0  0
  2 16  1  0  0  0  0
  3  7  1  0  0  0  0
  4  8  1  0  0  0  0
  5  7  1  0  0  0  0
  5  2  1  0  0  0  0
  6  4  1  0  0  0  0
  6  2  1  0  0  0  0
  7 19  1  0  0  0  0
  8 12  1  0  0  0  0
  9 17  1  0  0  0  0
  9  6  1  0  0  0  0
 10  1  1  0  0  0  0
 13  9  1  0  0  0  0
 13  1  1  0  0  0  0
 14 15  1  0  0  0  0
 15  3  1  0  0  0  0
 16 12  1  0  0  0  0
 16 11  1  0  0  0  0
 17  5  1  0  0  0  0
 18  4  1  0  0  0  0
 19 25  1  0  0  0  0
 19 23  1  0  0  0  0
 20  1  1  0  0  0  0
 21 22  1  0  0  0  0
 21 14  1  0  0  0  0
 21 15  1  0  0  0  0
 22 17  1  0  0  0  0
 23 11  1  0  0  0  0
 24 30  1  0  0  0  0
 24 25  1  0  0  0  0
 25 26  1  0  0  0  0
 26 29  1  0  0  0  0
 28 29  1  0  0  0  0
 29 27  2  0  0  0  0
 30 28  1  0  0  0  0
 31 22  1  0  0  0  0
 32 33  1  0  0  0  0
 32 31  1  0  0  0  0
 33 31  1  0  0  0  0
 34 35  1  0  0  0  0
 34 33  1  0  0  0  0
 37 36  1  0  0  0  0
 37 32  1  0  0  0  0
M  END
>  <MODEL>
3

>  <REMARK>
 VINA RESULT:      -9.8      3.114      6.536
  Name = 
  4 active torsions:
  status: ('A' for Active; 'I' for Inactive)
    1  A    between atoms: C_1  and  C_27
    2  A    between atoms: N_4  and  C_37
    3  A    between atoms: C_8  and  C_12
    4  A    between atoms: C_23  and  N_30
                            x       y       z     vdW  Elec       q    Type
                         _______ _______ _______ _____ _____    ______ ____

>  <TORSDO>
F 4

$$$$
=
 OpenBabel11122411473D

 37 44  0  0  1  0  0  0  0  0999 V2000
  190.4490  176.3960  138.6090 C   0  0  0  0  0  0  0  0  0  0  0  0
  187.3080  178.3970  138.1130 C   0  0  1  0  0  3  0  0  0  0  0  0
  185.6800  179.5810  140.5930 O   0  0  0  0  0  0  0  0  0  0  0  0
  189.7020  177.9930  137.1360 C   0  0  2  0  0  3  0  0  0  0  0  0
  186.8680  177.8830  139.4200 N   0  0  2  0  0  0  0  0  0  0  0  0
  188.8320  178.6080  138.2360 C   0  0  2  0  0  3  0  0  0  0  0  0
  185.5510  178.3910  139.8530 C   0  0  2  0  0  3  0  0  0  0  0  0
  189.0550  178.2520  135.7880 C   0  0  0  0  0  2  0  0  0  0  0  0
  189.2220  178.0890  139.6110 C   0  0  2  0  0  3  0  0  0  0  0  0
  191.6180  177.1280  138.8040 F   0  0  0  0  0  0  0  0  0  0  0  0
  185.4220  177.5040  136.6540 C   0  0  0  0  0  2  0  0  0  0  0  0
  187.6700  177.6100  135.6720 C   0  0  0  0  0  2  0  0  0  0  0  0
  189.4820  176.6980  139.5910 O   0  0  0  0  0  0  0  0  0  0  0  0
  185.4470  177.9860  142.3760 O   0  0  0  0  0  0  0  0  0  0  0  0
  185.5690  179.3420  141.9950 C   0  0  1  0  0  3  0  0  0  0  0  0
  186.9090  177.4100  136.9930 C   0  0  1  0  0  3  0  0  0  0  0  0
  187.9180  178.3310  140.3370 C   0  0  2  0  0  3  0  0  0  0  0  0
  189.9120  176.6100  137.3210 O   0  0  0  0  0  0  0  0  0  0  0  0
  184.4900  178.4960  138.7330 C   0  0  1  0  0  3  0  0  0  0  0  0
  190.7710  175.0580  138.7220 F   0  0  0  0  0  0  0  0  0  0  0  0
  186.7150  178.5650  142.6000 C   0  0  2  0  0  3  0  0  0  0  0  0
  187.7410  177.7670  141.7580 C   0  0  2  0  0  3  0  0  0  0  0  0
  184.5120  177.2590  137.8450 C   0  0  0  0  0  2  0  0  0  0  0  0
  182.2660  177.6200  138.8010 C   0  0  0  0  0  2  0  0  0  0  0  0
  183.1210  178.7320  139.2180 N   0  0  2  0  0  0  0  0  0  0  0  0
  182.5810  180.0060  138.7190 C   0  0  0  0  0  2  0  0  0  0  0  0
  180.6260  181.3200  139.1310 O   0  0  0  0  0  0  0  0  0  0  0  0
  180.3370  179.0190  139.3630 N   0  0  0  0  0  2  0  0  0  0  0  0
  181.1440  180.1730  139.1100 C   0  0  0  0  0  0  0  0  0  0  0  0
  180.9380  177.7020  139.5440 C   0  0  0  0  0  2  0  0  0  0  0  0
  189.0590  177.7380  142.5290 C   0  0  1  0  0  3  0  0  0  0  0  0
  188.8090  177.3840  143.9390 N   0  0  0  0  0  0  0  0  0  0  0  0
  189.3430  176.3780  142.9810 C   0  0  2  0  0  3  0  0  0  0  0  0
  190.8530  176.1510  143.0370 C   0  0  0  0  0  2  0  0  0  0  0  0
  191.4660  176.8780  142.0350 F   0  0  0  0  0  0  0  0  0  0  0  0
  189.5880  177.8750  146.0800 O   0  0  0  0  0  1  0  0  0  0  0  0
  189.8370  178.0650  144.7220 C   0  0  0  0  0  2  0  0  0  0  0  0
  1 20  1  0  0  0  0
  1 10  1  0  0  0  0
  1 13  1  0  0  0  0
  2  6  1  0  0  0  0
  2  5  1  0  0  0  0
  3 15  1  0  0  0  0
  4 18  1  0  0  0  0
  4  6  1  0  0  0  0
  5  7  1  0  0  0  0
  5 17  1  0  0  0  0
  6  9  1  0  0  0  0
  7  3  1  0  0  0  0
  8  4  1  0  0  0  0
  9 17  1  0  0  0  0
 11 16  1  0  0  0  0
 11 23  1  0  0  0  0
 12  8  1  0  0  0  0
 12 16  1  0  0  0  0
 13  9  1  0  0  0  0
 14 21  1  0  0  0  0
 15 14  1  0  0  0  0
 15 21  1  0  0  0  0
 16  2  1  0  0  0  0
 17 22  1  0  0  0  0
 18  1  1  0  0  0  0
 19 25  1  0  0  0  0
 19  7  1  0  0  0  0
 22 31  1  0  0  0  0
 22 21  1  0  0  0  0
 23 19  1  0  0  0  0
 24 25  1  0  0  0  0
 24 30  1  0  0  0  0
 26 29  1  0  0  0  0
 26 25  1  0  0  0  0
 28 30  1  0  0  0  0
 29 27  2  0  0  0  0
 29 28  1  0  0  0  0
 31 33  1  0  0  0  0
 31 32  1  0  0  0  0
 32 37  1  0  0  0  0
 33 34  1  0  0  0  0
 33 32  1  0  0  0  0
 35 34  1  0  0  0  0
 37 36  1  0  0  0  0
M  END
>  <MODEL>
4

>  <REMARK>
 VINA RESULT:      -9.5      2.431      5.585
  Name = 
  4 active torsions:
  status: ('A' for Active; 'I' for Inactive)
    1  A    between atoms: C_1  and  C_27
    2  A    between atoms: N_4  and  C_37
    3  A    between atoms: C_8  and  C_12
    4  A    between atoms: C_23  and  N_30
                            x       y       z     vdW  Elec       q    Type
                         _______ _______ _______ _____ _____    ______ ____

>  <TORSDO>
F 4

$$$$
=
 OpenBabel11122411473D

 37 44  0  0  1  0  0  0  0  0999 V2000
  188.9260  178.9900  137.6070 C   0  0  0  0  0  0  0  0  0  0  0  0
  189.8200  176.8370  140.5530 C   0  0  1  0  0  3  0  0  0  0  0  0
  187.8330  176.4980  143.0320 O   0  0  0  0  0  0  0  0  0  0  0  0
  189.9640  176.9690  137.9430 C   0  0  2  0  0  3  0  0  0  0  0  0
  188.9950  177.7430  141.3670 N   0  0  2  0  0  0  0  0  0  0  0  0
  189.1060  176.7280  139.1890 C   0  0  2  0  0  3  0  0  0  0  0  0
  188.9150  177.3660  142.7920 C   0  0  2  0  0  3  0  0  0  0  0  0
  191.2920  176.2520  138.1090 C   0  0  0  0  0  2  0  0  0  0  0  0
  187.9300  177.6900  139.2500 C   0  0  2  0  0  3  0  0  0  0  0  0
  188.1050  178.4050  136.6470 F   0  0  0  0  0  0  0  0  0  0  0  0
  192.0550  177.1270  141.7370 C   0  0  0  0  0  2  0  0  0  0  0  0
  192.0910  176.7720  139.3070 C   0  0  0  0  0  2  0  0  0  0  0  0
  188.3070  179.0030  138.8750 O   0  0  0  0  0  0  0  0  0  0  0  0
  186.8680  178.5890  143.7190 O   0  0  0  0  0  0  0  0  0  0  0  0
  186.7200  177.1880  143.5950 C   0  0  1  0  0  3  0  0  0  0  0  0
  191.2640  177.3780  140.4550 C   0  0  1  0  0  3  0  0  0  0  0  0
  187.6750  177.6630  140.7400 C   0  0  2  0  0  3  0  0  0  0  0  0
  190.1760  178.3390  137.6870 O   0  0  0  0  0  0  0  0  0  0  0  0
  190.2390  176.8580  143.4100 C   0  0  1  0  0  3  0  0  0  0  0  0
  189.1470  180.2990  137.2260 F   0  0  0  0  0  0  0  0  0  0  0  0
  186.0370  178.1610  142.6620 C   0  0  2  0  0  3  0  0  0  0  0  0
  186.6730  178.6640  141.3420 C   0  0  2  0  0  3  0  0  0  0  0  0
  191.4110  177.7270  142.9740 C   0  0  0  0  0  2  0  0  0  0  0  0
  189.7470  178.0190  145.4420 C   0  0  0  0  0  2  0  0  0  0  0  0
  190.2190  176.7530  144.8770 N   0  0  2  0  0  0  0  0  0  0  0  0
  191.5460  176.4180  145.4160 C   0  0  0  0  0  2  0  0  0  0  0  0
  192.4290  175.8230  147.5570 O   0  0  0  0  0  0  0  0  0  0  0  0
  190.5910  177.2550  147.6100 N   0  0  0  0  0  2  0  0  0  0  0  0
  191.5430  176.4440  146.9140 C   0  0  0  0  0  0  0  0  0  0  0  0
  189.4370  177.8240  146.9210 C   0  0  0  0  0  2  0  0  0  0  0  0
  185.5400  178.9930  140.3710 C   0  0  1  0  0  3  0  0  0  0  0  0
  184.9840  177.7500  139.8070 N   0  0  0  0  0  0  0  0  0  0  0  0
  184.2740  178.4820  140.8910 C   0  0  2  0  0  3  0  0  0  0  0  0
  183.1230  179.3780  140.4360 C   0  0  0  0  0  2  0  0  0  0  0  0
  181.9500  178.9610  141.0360 F   0  0  0  0  0  0  0  0  0  0  0  0
  184.9120  177.0770  137.5770 O   0  0  0  0  0  1  0  0  0  0  0  0
  184.5210  178.0790  138.4620 C   0  0  0  0  0  2  0  0  0  0  0  0
  1 18  1  0  0  0  0
  1 13  1  0  0  0  0
  2  5  1  0  0  0  0
  3 15  1  0  0  0  0
  4  8  1  0  0  0  0
  4  6  1  0  0  0  0
  5  7  1  0  0  0  0
  6  9  1  0  0  0  0
  6  2  1  0  0  0  0
  7  3  1  0  0  0  0
  7 19  1  0  0  0  0
  8 12  1  0  0  0  0
  9 17  1  0  0  0  0
 10  1  1  0  0  0  0
 11 23  1  0  0  0  0
 12 16  1  0  0  0  0
 13  9  1  0  0  0  0
 15 14  1  0  0  0  0
 16  2  1  0  0  0  0
 16 11  1  0  0  0  0
 17 22  1  0  0  0  0
 17  5  1  0  0  0  0
 18  4  1  0  0  0  0
 19 25  1  0  0  0  0
 20  1  1  0  0  0  0
 21 15  1  0  0  0  0
 21 14  1  0  0  0  0
 22 21  1  0  0  0  0
 23 19  1  0  0  0  0
 24 30  1  0  0  0  0
 25 26  1  0  0  0  0
 25 24  1  0  0  0  0
 26 29  1  0  0  0  0
 29 27  2  0  0  0  0
 29 28  1  0  0  0  0
 30 28  1  0  0  0  0
 31 33  1  0  0  0  0
 31 22  1  0  0  0  0
 32 31  1  0  0  0  0
 32 33  1  0  0  0  0
 34 33  1  0  0  0  0
 34 35  1  0  0  0  0
 36 37  1  0  0  0  0
 37 32  1  0  0  0  0
M  END
>  <MODEL>
5

>  <REMARK>
 VINA RESULT:      -9.2      3.085      7.171
  Name = 
  4 active torsions:
  status: ('A' for Active; 'I' for Inactive)
    1  A    between atoms: C_1  and  C_27
    2  A    between atoms: N_4  and  C_37
    3  A    between atoms: C_8  and  C_12
    4  A    between atoms: C_23  and  N_30
                            x       y       z     vdW  Elec       q    Type
                         _______ _______ _______ _____ _____    ______ ____

>  <TORSDO>
F 4

$$$$
=
 OpenBabel11122411473D

 37 44  0  0  1  0  0  0  0  0999 V2000
  186.2050  178.9380  146.0110 C   0  0  0  0  0  0  0  0  0  0  0  0
  187.1260  177.5050  142.6620 C   0  0  1  0  0  3  0  0  0  0  0  0
  189.8780  175.9460  142.2180 O   0  0  0  0  0  0  0  0  0  0  0  0
  185.1170  177.8530  144.3030 C   0  0  2  0  0  3  0  0  0  0  0  0
  188.5300  177.7290  143.0400 N   0  0  2  0  0  0  0  0  0  0  0  0
  186.4010  177.0920  143.9610 C   0  0  2  0  0  3  0  0  0  0  0  0
  189.5040  177.2880  142.0210 C   0  0  2  0  0  3  0  0  0  0  0  0
  184.2830  178.0110  143.0450 C   0  0  0  0  0  2  0  0  0  0  0  0
  187.4310  177.2060  145.0740 C   0  0  2  0  0  3  0  0  0  0  0  0
  185.6490  178.0480  146.9260 F   0  0  0  0  0  0  0  0  0  0  0  0
  187.0200  178.9450  140.5650 C   0  0  0  0  0  2  0  0  0  0  0  0
  185.0060  178.8210  141.9650 C   0  0  0  0  0  2  0  0  0  0  0  0
  187.4890  178.5190  145.6010 O   0  0  0  0  0  0  0  0  0  0  0  0
  191.7380  177.0680  143.2470 O   0  0  0  0  0  0  0  0  0  0  0  0
  191.1490  175.8430  142.8570 C   0  0  1  0  0  3  0  0  0  0  0  0
  186.5430  178.7770  142.0060 C   0  0  1  0  0  3  0  0  0  0  0  0
  188.6840  176.9490  144.2690 C   0  0  2  0  0  3  0  0  0  0  0  0
  185.3720  179.1120  144.8850 O   0  0  0  0  0  0  0  0  0  0  0  0
  189.1010  177.5890  140.5580 C   0  0  1  0  0  3  0  0  0  0  0  0
  186.3350  180.1590  146.6410 F   0  0  0  0  0  0  0  0  0  0  0  0
  191.1770  176.3070  144.2950 C   0  0  2  0  0  3  0  0  0  0  0  0
  190.0550  177.1620  144.9360 C   0  0  2  0  0  3  0  0  0  0  0  0
  188.5320  178.9950  140.4290 C   0  0  0  0  0  2  0  0  0  0  0  0
  189.9630  176.1560  138.8490 C   0  0  0  0  0  2  0  0  0  0  0  0
  190.1870  177.4030  139.5830 N   0  0  2  0  0  0  0  0  0  0  0  0
  191.5050  177.3780  140.2370 C   0  0  0  0  0  2  0  0  0  0  0  0
  193.7820  177.3660  139.5070 O   0  0  0  0  0  0  0  0  0  0  0  0
  192.2800  176.3080  138.0740 N   0  0  0  0  0  2  0  0  0  0  0  0
  192.5900  177.0560  139.2540 C   0  0  0  0  0  0  0  0  0  0  0  0
  190.9000  176.1060  137.6470 C   0  0  0  0  0  2  0  0  0  0  0  0
  190.0190  176.8440  146.4290 C   0  0  1  0  0  3  0  0  0  0  0  0
  191.3180  177.1730  147.0440 N   0  0  0  0  0  0  0  0  0  0  0  0
  190.1470  178.0760  147.2040 C   0  0  2  0  0  3  0  0  0  0  0  0
  189.3880  177.9440  148.5240 C   0  0  0  0  0  2  0  0  0  0  0  0
  188.2580  177.1720  148.3300 F   0  0  0  0  0  0  0  0  0  0  0  0
  192.8590  176.1020  148.4270 O   0  0  0  0  0  1  0  0  0  0  0  0
  191.5000  176.2330  148.1470 C   0  0  0  0  0  2  0  0  0  0  0  0
  1 20  1  0  0  0  0
  1 10  1  0  0  0  0
  2  5  1  0  0  0  0
  2  6  1  0  0  0  0
  3 15  1  0  0  0  0
  4 18  1  0  0  0  0
  5 17  1  0  0  0  0
  6  4  1  0  0  0  0
  6  9  1  0  0  0  0
  7  3  1  0  0  0  0
  7  5  1  0  0  0  0
  8  4  1  0  0  0  0
  9 13  1  0  0  0  0
 11 16  1  0  0  0  0
 12 16  1  0  0  0  0
 12  8  1  0  0  0  0
 13  1  1  0  0  0  0
 14 21  1  0  0  0  0
 15 14  1  0  0  0  0
 15 21  1  0  0  0  0
 16  2  1  0  0  0  0
 17 22  1  0  0  0  0
 17  9  1  0  0  0  0
 18  1  1  0  0  0  0
 19  7  1  0  0  0  0
 21 22  1  0  0  0  0
 22 31  1  0  0  0  0
 23 19  1  0  0  0  0
 23 11  1  0  0  0  0
 24 25  1  0  0  0  0
 25 26  1  0  0  0  0
 25 19  1  0  0  0  0
 28 29  1  0  0  0  0
 29 27  2  0  0  0  0
 29 26  1  0  0  0  0
 30 28  1  0  0  0  0
 30 24  1  0  0  0  0
 31 32  1  0  0  0  0
 31 33  1  0  0  0  0
 32 33  1  0  0  0  0
 32 37  1  0  0  0  0
 33 34  1  0  0  0  0
 35 34  1  0  0  0  0
 37 36  1  0  0  0  0
M  END
>  <MODEL>
6

>  <REMARK>
 VINA RESULT:      -9.1      3.545      7.510
  Name = 
  4 active torsions:
  status: ('A' for Active; 'I' for Inactive)
    1  A    between atoms: C_1  and  C_27
    2  A    between atoms: N_4  and  C_37
    3  A    between atoms: C_8  and  C_12
    4  A    between atoms: C_23  and  N_30
                            x       y       z     vdW  Elec       q    Type
                         _______ _______ _______ _____ _____    ______ ____

>  <TORSDO>
F 4

$$$$
=
 OpenBabel11122411473D

 37 44  0  0  1  0  0  0  0  0999 V2000
  190.1870  175.7370  142.8130 C   0  0  0  0  0  0  0  0  0  0  0  0
  188.0120  178.3610  141.2330 C   0  0  1  0  0  3  0  0  0  0  0  0
  185.6270  179.7410  142.8490 O   0  0  0  0  0  0  0  0  0  0  0  0
  190.4840  177.5180  141.3930 C   0  0  2  0  0  3  0  0  0  0  0  0
  186.9350  177.8900  142.1180 N   0  0  2  0  0  0  0  0  0  0  0  0
  189.3130  178.2490  142.0560 C   0  0  2  0  0  3  0  0  0  0  0  0
  185.6700  178.6380  141.9760 C   0  0  2  0  0  3  0  0  0  0  0  0
  190.5950  177.9660  139.9470 C   0  0  0  0  0  2  0  0  0  0  0  0
  188.9240  177.5990  143.3740 C   0  0  2  0  0  3  0  0  0  0  0  0
  191.2290  176.2030  143.6110 F   0  0  0  0  0  0  0  0  0  0  0  0
  186.9130  177.9420  138.9750 C   0  0  0  0  0  2  0  0  0  0  0  0
  189.3430  177.6280  139.1340 C   0  0  0  0  0  2  0  0  0  0  0  0
  188.9360  176.1860  143.2850 O   0  0  0  0  0  0  0  0  0  0  0  0
  184.3330  178.1480  144.1010 O   0  0  0  0  0  0  0  0  0  0  0  0
  184.8350  179.4660  144.0030 C   0  0  1  0  0  3  0  0  0  0  0  0
  188.0300  177.5290  139.9300 C   0  0  1  0  0  3  0  0  0  0  0  0
  187.4900  178.0700  143.4600 C   0  0  2  0  0  3  0  0  0  0  0  0
  190.3580  176.1150  141.4640 O   0  0  0  0  0  0  0  0  0  0  0  0
  185.2890  179.0090  140.5230 C   0  0  1  0  0  3  0  0  0  0  0  0
  190.1980  174.3570  142.8760 F   0  0  0  0  0  0  0  0  0  0  0  0
  185.4230  178.4440  144.9470 C   0  0  2  0  0  3  0  0  0  0  0  0
  186.5800  177.4900  144.5580 C   0  0  2  0  0  3  0  0  0  0  0  0
  185.5250  177.8350  139.5820 C   0  0  0  0  0  2  0  0  0  0  0  0
  182.9820  178.4820  140.8630 C   0  0  0  0  0  2  0  0  0  0  0  0
  183.9110  179.4990  140.3680 N   0  0  2  0  0  0  0  0  0  0  0  0
  183.6060  179.8270  138.9660 C   0  0  0  0  0  2  0  0  0  0  0  0
  181.7980  180.8730  137.8030 O   0  0  0  0  0  0  0  0  0  0  0  0
  181.1900  179.7010  139.7230 N   0  0  0  0  0  2  0  0  0  0  0  0
  182.1630  180.1980  138.8000 C   0  0  0  0  0  0  0  0  0  0  0  0
  181.5900  179.0910  140.9870 C   0  0  0  0  0  2  0  0  0  0  0  0
  187.3600  177.1560  145.8290 C   0  0  1  0  0  3  0  0  0  0  0  0
  188.4970  178.0820  145.9790 N   0  0  0  0  0  0  0  0  0  0  0  0
  187.2560  178.2580  146.7820 C   0  0  2  0  0  3  0  0  0  0  0  0
  187.3140  177.7210  148.2110 C   0  0  0  0  0  2  0  0  0  0  0  0
  187.9050  178.6610  149.0330 F   0  0  0  0  0  0  0  0  0  0  0  0
  190.7810  177.6330  146.0870 O   0  0  0  0  0  1  0  0  0  0  0  0
  189.5480  177.3340  146.6640 C   0  0  0  0  0  2  0  0  0  0  0  0
  1 20  1  0  0  0  0
  1 13  1  0  0  0  0
  1 10  1  0  0  0  0
  2  6  1  0  0  0  0
  2  5  1  0  0  0  0
  3 15  1  0  0  0  0
  4 18  1  0  0  0  0
  4  6  1  0  0  0  0
  5 17  1  0  0  0  0
  6  9  1  0  0  0  0
  7  5  1  0  0  0  0
  7  3  1  0  0  0  0
  8  4  1  0  0  0  0
  9 17  1  0  0  0  0
 11 23  1  0  0  0  0
 11 16  1  0  0  0  0
 12 16  1  0  0  0  0
 12  8  1  0  0  0  0
 13  9  1  0  0  0  0
 14 21  1  0  0  0  0
 15 14  1  0  0  0  0
 15 21  1  0  0  0  0
 16  2  1  0  0  0  0
 17 22  1  0  0  0  0
 18  1  1  0  0  0  0
 19  7  1  0  0  0  0
 22 21  1  0  0  0  0
 22 31  1  0  0  0  0
 23 19  1  0  0  0  0
 24 30  1  0  0  0  0
 25 19  1  0  0  0  0
 25 24  1  0  0  0  0
 26 25  1  0  0  0  0
 27 29  2  0  0  0  0
 28 30  1  0  0  0  0
 29 26  1  0  0  0  0
 29 28  1  0  0  0  0
 31 32  1  0  0  0  0
 31 33  1  0  0  0  0
 32 37  1  0  0  0  0
 32 33  1  0  0  0  0
 33 34  1  0  0  0  0
 34 35  1  0  0  0  0
 36 37  1  0  0  0  0
M  END
>  <MODEL>
7

>  <REMARK>
 VINA RESULT:      -8.9      2.242      5.196
  Name = 
  4 active torsions:
  status: ('A' for Active; 'I' for Inactive)
    1  A    between atoms: C_1  and  C_27
    2  A    between atoms: N_4  and  C_37
    3  A    between atoms: C_8  and  C_12
    4  A    between atoms: C_23  and  N_30
                            x       y       z     vdW  Elec       q    Type
                         _______ _______ _______ _____ _____    ______ ____

>  <TORSDO>
F 4

$$$$
=
 OpenBabel11122411473D

 37 44  0  0  1  0  0  0  0  0999 V2000
  186.4000  177.0010  138.0050 C   0  0  0  0  0  0  0  0  0  0  0  0
  187.0410  178.5660  141.3600 C   0  0  1  0  0  3  0  0  0  0  0  0
  189.9840  178.7080  142.5950 O   0  0  0  0  0  0  0  0  0  0  0  0
  185.6390  178.8310  139.1660 C   0  0  2  0  0  3  0  0  0  0  0  0
  188.1680  177.6300  141.4940 N   0  0  2  0  0  0  0  0  0  0  0  0
  186.9940  178.9580  139.8670 C   0  0  2  0  0  3  0  0  0  0  0  0
  188.9330  177.7850  142.7480 C   0  0  2  0  0  3  0  0  0  0  0  0
  184.5550  179.3780  140.0780 C   0  0  0  0  0  2  0  0  0  0  0  0
  188.0590  178.1200  139.1770 C   0  0  2  0  0  3  0  0  0  0  0  0
  186.6400  177.8090  136.8960 F   0  0  0  0  0  0  0  0  0  0  0  0
  185.6750  177.8730  143.3930 C   0  0  0  0  0  2  0  0  0  0  0  0
  184.4510  178.5990  141.3920 C   0  0  0  0  0  2  0  0  0  0  0  0
  187.5600  176.8510  138.7930 O   0  0  0  0  0  0  0  0  0  0  0  0
  191.1830  176.6420  142.3340 O   0  0  0  0  0  0  0  0  0  0  0  0
  191.2370  178.0520  142.4160 C   0  0  1  0  0  3  0  0  0  0  0  0
  185.7400  177.9060  141.8670 C   0  0  1  0  0  3  0  0  0  0  0  0
  189.0110  177.9380  140.3370 C   0  0  2  0  0  3  0  0  0  0  0  0
  185.3420  177.5040  138.7930 O   0  0  0  0  0  0  0  0  0  0  0  0
  188.0750  178.0550  144.0070 C   0  0  1  0  0  3  0  0  0  0  0  0
  186.0340  175.7530  137.5410 F   0  0  0  0  0  0  0  0  0  0  0  0
  191.3860  177.3110  141.1080 C   0  0  2  0  0  3  0  0  0  0  0  0
  190.1900  176.9600  140.1880 C   0  0  2  0  0  3  0  0  0  0  0  0
  186.8490  177.1540  144.0340 C   0  0  0  0  0  2  0  0  0  0  0  0
  189.6460  176.7290  145.2280 C   0  0  0  0  0  2  0  0  0  0  0  0
  188.8110  177.9310  145.2750 N   0  0  2  0  0  0  0  0  0  0  0  0
  187.8990  177.8730  146.4270 C   0  0  0  0  0  2  0  0  0  0  0  0
  188.1360  177.9120  148.8070 O   0  0  0  0  0  0  0  0  0  0  0  0
  189.9090  176.9350  147.6540 N   0  0  0  0  0  2  0  0  0  0  0  0
  188.6500  177.6130  147.6980 C   0  0  0  0  0  0  0  0  0  0  0  0
  190.6260  176.7530  146.3950 C   0  0  0  0  0  2  0  0  0  0  0  0
  190.7060  176.9020  138.7510 C   0  0  1  0  0  3  0  0  0  0  0  0
  191.7250  175.8440  138.6250 N   0  0  0  0  0  0  0  0  0  0  0  0
  190.3350  175.6280  138.1400 C   0  0  2  0  0  3  0  0  0  0  0  0
  190.1260  175.8110  136.6370 C   0  0  0  0  0  2  0  0  0  0  0  0
  189.6000  177.0650  136.3950 F   0  0  0  0  0  0  0  0  0  0  0  0
  193.6140  177.1280  138.1580 O   0  0  0  0  0  1  0  0  0  0  0  0
  192.6550  176.2910  137.5910 C   0  0  0  0  0  2  0  0  0  0  0  0
  1 13  1  0  0  0  0
  1 18  1  0  0  0  0
  2  5  1  0  0  0  0
  2 16  1  0  0  0  0
  3  7  1  0  0  0  0
  4  6  1  0  0  0  0
  4  8  1  0  0  0  0
  5  7  1  0  0  0  0
  6  2  1  0  0  0  0
  7 19  1  0  0  0  0
  8 12  1  0  0  0  0
  9  6  1  0  0  0  0
  9 17  1  0  0  0  0
 10  1  1  0  0  0  0
 11 23  1  0  0  0  0
 12 16  1  0  0  0  0
 13  9  1  0  0  0  0
 14 15  1  0  0  0  0
 15  3  1  0  0  0  0
 16 11  1  0  0  0  0
 17  5  1  0  0  0  0
 18  4  1  0  0  0  0
 19 23  1  0  0  0  0
 19 25  1  0  0  0  0
 20  1  1  0  0  0  0
 21 14  1  0  0  0  0
 21 15  1  0  0  0  0
 22 17  1  0  0  0  0
 22 21  1  0  0  0  0
 24 25  1  0  0  0  0
 24 30  1  0  0  0  0
 25 26  1  0  0  0  0
 26 29  1  0  0  0  0
 28 29  1  0  0  0  0
 29 27  2  0  0  0  0
 30 28  1  0  0  0  0
 31 22  1  0  0  0  0
 32 31  1  0  0  0  0
 33 32  1  0  0  0  0
 33 31  1  0  0  0  0
 34 33  1  0  0  0  0
 35 34  1  0  0  0  0
 37 36  1  0  0  0  0
 37 32  1  0  0  0  0
M  END
>  <MODEL>
8

>  <REMARK>
 VINA RESULT:      -8.9      3.304      6.312
  Name = 
  4 active torsions:
  status: ('A' for Active; 'I' for Inactive)
    1  A    between atoms: C_1  and  C_27
    2  A    between atoms: N_4  and  C_37
    3  A    between atoms: C_8  and  C_12
    4  A    between atoms: C_23  and  N_30
                            x       y       z     vdW  Elec       q    Type
                         _______ _______ _______ _____ _____    ______ ____

>  <TORSDO>
F 4

$$$$
=
 OpenBabel11122411473D

 37 44  0  0  1  0  0  0  0  0999 V2000
  189.9040  176.8880  141.3470 C   0  0  0  0  0  0  0  0  0  0  0  0
  187.1780  178.3520  139.2150 C   0  0  1  0  0  3  0  0  0  0  0  0
  184.4920  179.5030  140.5050 O   0  0  0  0  0  0  0  0  0  0  0  0
  189.7790  178.2180  139.4780 C   0  0  2  0  0  3  0  0  0  0  0  0
  186.2340  177.8990  140.2490 N   0  0  2  0  0  0  0  0  0  0  0  0
  188.4490  178.7960  139.9710 C   0  0  2  0  0  3  0  0  0  0  0  0
  184.8260  178.2450  139.9690 C   0  0  2  0  0  3  0  0  0  0  0  0
  189.8050  178.2570  137.9610 C   0  0  0  0  0  2  0  0  0  0  0  0
  188.2060  178.4660  141.4350 C   0  0  2  0  0  3  0  0  0  0  0  0
  190.7800  177.7980  141.9320 F   0  0  0  0  0  0  0  0  0  0  0  0
  186.2650  177.0640  137.2180 C   0  0  0  0  0  2  0  0  0  0  0  0
  188.6930  177.4100  137.3360 C   0  0  0  0  0  2  0  0  0  0  0  0
  188.5700  177.1320  141.7390 O   0  0  0  0  0  0  0  0  0  0  0  0
  183.6080  178.0590  142.2110 O   0  0  0  0  0  0  0  0  0  0  0  0
  183.7700  179.3780  141.7290 C   0  0  1  0  0  3  0  0  0  0  0  0
  187.4300  177.2210  138.1930 C   0  0  1  0  0  3  0  0  0  0  0  0
  186.6990  178.5770  141.4600 C   0  0  2  0  0  3  0  0  0  0  0  0
  190.0030  176.9040  139.9390 O   0  0  0  0  0  0  0  0  0  0  0  0
  184.3950  178.0910  138.4920 C   0  0  1  0  0  3  0  0  0  0  0  0
  190.2550  175.6270  141.7870 F   0  0  0  0  0  0  0  0  0  0  0  0
  184.5730  178.8350  142.8880 C   0  0  2  0  0  3  0  0  0  0  0  0
  185.9390  178.1240  142.7190 C   0  0  2  0  0  3  0  0  0  0  0  0
  184.9340  176.7960  137.9010 C   0  0  0  0  0  2  0  0  0  0  0  0
  182.2810  177.1620  139.1110 C   0  0  0  0  0  2  0  0  0  0  0  0
  182.9420  178.1670  138.2760 N   0  0  2  0  0  0  0  0  0  0  0  0
  182.5920  177.9630  136.8620 C   0  0  0  0  0  2  0  0  0  0  0  0
  180.6030  178.1370  135.5450 O   0  0  0  0  0  0  0  0  0  0  0  0
  180.2670  177.5060  137.7620 N   0  0  0  0  0  2  0  0  0  0  0  0
  181.1050  177.9100  136.6760 C   0  0  0  0  0  0  0  0  0  0  0  0
  180.7800  177.4300  139.1260 C   0  0  0  0  0  2  0  0  0  0  0  0
  186.7500  178.3590  143.9920 C   0  0  1  0  0  3  0  0  0  0  0  0
  186.0600  177.7540  145.1470 N   0  0  0  0  0  0  0  0  0  0  0  0
  187.2320  177.0840  144.5180 C   0  0  2  0  0  3  0  0  0  0  0  0
  188.5670  177.2850  145.2330 C   0  0  0  0  0  2  0  0  0  0  0  0
  189.3030  178.2490  144.5710 F   0  0  0  0  0  0  0  0  0  0  0  0
  185.3060  179.3820  146.6340 O   0  0  0  0  0  1  0  0  0  0  0  0
  186.3960  178.5800  146.3040 C   0  0  0  0  0  2  0  0  0  0  0  0
  1 13  1  0  0  0  0
  1 20  1  0  0  0  0
  1 10  1  0  0  0  0
  2  6  1  0  0  0  0
  2  5  1  0  0  0  0
  3 15  1  0  0  0  0
  4 18  1  0  0  0  0
  4  6  1  0  0  0  0
  5 17  1  0  0  0  0
  6  9  1  0  0  0  0
  7  5  1  0  0  0  0
  7  3  1  0  0  0  0
  8  4  1  0  0  0  0
  9 17  1  0  0  0  0
  9 13  1  0  0  0  0
 11 23  1  0  0  0  0
 11 16  1  0  0  0  0
 12  8  1  0  0  0  0
 12 16  1  0  0  0  0
 14 21  1  0  0  0  0
 15 14  1  0  0  0  0
 15 21  1  0  0  0  0
 16  2  1  0  0  0  0
 17 22  1  0  0  0  0
 18  1  1  0  0  0  0
 19  7  1  0  0  0  0
 22 21  1  0  0  0  0
 22 31  1  0  0  0  0
 23 19  1  0  0  0  0
 24 30  1  0  0  0  0
 25 19  1  0  0  0  0
 25 24  1  0  0  0  0
 26 25  1  0  0  0  0
 27 29  2  0  0  0  0
 28 30  1  0  0  0  0
 29 26  1  0  0  0  0
 29 28  1  0  0  0  0
 31 33  1  0  0  0  0
 31 32  1  0  0  0  0
 32 37  1  0  0  0  0
 33 32  1  0  0  0  0
 33 34  1  0  0  0  0
 35 34  1  0  0  0  0
 37 36  1  0  0  0  0
M  END
>  <MODEL>
9

>  <REMARK>
 VINA RESULT:      -8.5      2.390      5.445
  Name = 
  4 active torsions:
  status: ('A' for Active; 'I' for Inactive)
    1  A    between atoms: C_1  and  C_27
    2  A    between atoms: N_4  and  C_37
    3  A    between atoms: C_8  and  C_12
    4  A    between atoms: C_23  and  N_30
                            x       y       z     vdW  Elec       q    Type
                         _______ _______ _______ _____ _____    ______ ____

>  <TORSDO>
F 4

$$$$
