=
 OpenBabel11122411563D

 28 32  0  0  1  0  0  0  0  0999 V2000
  180.2180  177.8320  141.9700 C   0  0  0  0  0  0  0  0  0  0  0  0
  180.4440  180.6990  139.4930 O   0  0  0  0  0  0  0  0  0  0  0  0
  181.4650  175.2790  136.5630 O   0  0  0  0  0  1  0  0  0  0  0  0
  182.2770  179.0330  143.4420 C   0  0  0  0  0  3  0  0  0  0  0  0
  183.5220  175.6300  137.7830 C   0  0  2  0  0  3  0  0  0  0  0  0
  179.1770  177.1590  141.2620 N   0  0  0  0  0  2  0  0  0  0  0  0
  182.5810  181.5940  138.6630 O   0  0  0  0  0  0  0  0  0  0  0  0
  181.6390  180.4250  138.6220 S   0  0  0  0  0  0  0  0  0  0  0  0
  181.4190  178.9080  136.3550 C   0  0  0  0  0  0  0  0  0  0  0  0
  182.4890  178.9640  139.1660 C   0  0  2  0  0  3  0  0  0  0  0  0
  178.9310  174.0530  139.3470 O   0  0  0  0  0  1  0  0  0  0  0  0
  182.2580  176.5810  139.5880 C   0  0  2  0  0  3  0  0  0  0  0  0
  182.2650  178.0510  136.8510 N   0  0  0  0  0  0  0  0  0  0  0  0
  181.1320  180.1450  137.0040 N   0  0  0  0  0  2  0  0  0  0  0  0
  178.9930  175.4340  139.5370 C   0  0  2  0  0  3  0  0  0  0  0  0
  181.4180  178.1930  141.3260 C   0  0  0  0  0  0  0  0  0  0  0  0
  182.1240  175.0250  137.7760 C   0  0  1  0  0  3  0  0  0  0  0  0
  180.7220  178.5780  135.1610 N   0  0  0  0  0  1  0  0  0  0  0  0
  180.0450  176.0360  138.6100 C   0  0  0  0  0  2  0  0  0  0  0  0
  182.4510  178.7770  142.0800 C   0  0  0  0  0  3  0  0  0  0  0  0
  180.0480  178.1020  143.3320 C   0  0  0  0  0  3  0  0  0  0  0  0
  181.0730  178.7030  144.0660 C   0  0  0  0  0  3  0  0  0  0  0  0
  179.2890  175.7330  140.9980 C   0  0  0  0  0  2  0  0  0  0  0  0
  183.4370  176.8550  138.6730 C   0  0  2  0  0  3  0  0  0  0  0  0
  181.3960  175.5550  138.9490 N   0  0  2  0  0  0  0  0  0  0  0  0
  183.1480  178.2150  138.0180 C   0  0  2  0  0  3  0  0  0  0  0  0
  184.0100  175.9150  136.5020 O   0  0  0  0  0  1  0  0  0  0  0  0
  181.5930  177.9420  139.8500 C   0  0  1  0  0  3  0  0  0  0  0  0
  1 21  1  0  0  0  0
  3 17  1  0  0  0  0
  4 22  1  0  0  0  0
  5 27  1  6  0  0  0
  5 24  1  0  0  0  0
  6  1  1  0  0  0  0
  8  7  2  0  0  0  0
  8  2  2  0  0  0  0
  9 13  2  0  0  0  0
  9 14  1  0  0  0  0
 10  8  1  6  0  0  0
 10 28  1  0  0  0  0
 11 15  1  0  0  0  0
 12 28  1  0  0  0  0
 13 26  1  0  0  0  0
 14  8  1  0  0  0  0
 15 23  1  0  0  0  0
 16  1  2  0  0  0  0
 16 20  1  0  0  0  0
 17  5  1  0  0  0  0
 17 25  1  0  0  0  0
 18  9  1  0  0  0  0
 19 25  1  0  0  0  0
 19 15  1  0  0  0  0
 20  4  2  0  0  0  0
 21 22  2  0  0  0  0
 23  6  1  0  0  0  0
 24 12  1  0  0  0  0
 25 12  1  0  0  0  0
 26 24  1  0  0  0  0
 26 10  1  0  0  0  0
 28 16  1  0  0  0  0
M  END
>  <MODEL>
1

>  <REMARK>
 VINA RESULT:      -6.0      0.000      0.000
  Name = 
  0 active torsions:
  status: ('A' for Active; 'I' for Inactive)
                            x       y       z     vdW  Elec       q    Type
                         _______ _______ _______ _____ _____    ______ ____

>  <TORSDO>
F 0

$$$$
=
 OpenBabel11122411563D

 28 32  0  0  1  0  0  0  0  0999 V2000
  190.3350  173.9090  136.6890 C   0  0  0  0  0  0  0  0  0  0  0  0
  190.9120  175.7220  139.9740 O   0  0  0  0  0  0  0  0  0  0  0  0
  185.7580  177.9180  137.2150 O   0  0  0  0  0  1  0  0  0  0  0  0
  192.8560  174.7900  135.8410 C   0  0  0  0  0  3  0  0  0  0  0  0
  187.5330  178.8900  135.8950 C   0  0  2  0  0  3  0  0  0  0  0  0
  189.0380  173.4390  137.0520 N   0  0  0  0  0  2  0  0  0  0  0  0
  191.8520  177.9920  140.1110 O   0  0  0  0  0  0  0  0  0  0  0  0
  190.6520  177.1800  139.7150 S   0  0  0  0  0  0  0  0  0  0  0  0
  188.1360  178.2320  139.9460 C   0  0  0  0  0  0  0  0  0  0  0  0
  190.2940  177.4570  137.9980 C   0  0  2  0  0  3  0  0  0  0  0  0
  185.6200  174.1630  135.9670 O   0  0  0  0  0  1  0  0  0  0  0  0
  188.8040  176.8720  136.1670 C   0  0  2  0  0  3  0  0  0  0  0  0
  188.1660  178.5710  138.6890 N   0  0  0  0  0  0  0  0  0  0  0  0
  189.2800  177.6990  140.6110 N   0  0  0  0  0  2  0  0  0  0  0  0
  186.7200  174.1900  136.8260 C   0  0  2  0  0  3  0  0  0  0  0  0
  190.6570  175.2790  136.7610 C   0  0  0  0  0  0  0  0  0  0  0  0
  186.5710  177.7250  136.0870 C   0  0  1  0  0  3  0  0  0  0  0  0
  186.9140  178.3450  140.6620 N   0  0  0  0  0  1  0  0  0  0  0  0
  186.9800  175.6200  137.2880 C   0  0  0  0  0  2  0  0  0  0  0  0
  191.9180  175.7100  136.3140 C   0  0  0  0  0  3  0  0  0  0  0  0
  191.2850  172.9930  136.2250 C   0  0  0  0  0  3  0  0  0  0  0  0
  192.5430  173.4300  135.8050 C   0  0  0  0  0  3  0  0  0  0  0  0
  187.9290  173.5930  136.1230 C   0  0  0  0  0  2  0  0  0  0  0  0
  188.8920  178.3780  136.3310 C   0  0  2  0  0  3  0  0  0  0  0  0
  187.3720  176.4830  136.1600 N   0  0  2  0  0  0  0  0  0  0  0  0
  189.3300  178.6130  137.7860 C   0  0  2  0  0  3  0  0  0  0  0  0
  187.1410  180.0520  136.5700 O   0  0  0  0  0  1  0  0  0  0  0  0
  189.6530  176.2670  137.2970 C   0  0  1  0  0  3  0  0  0  0  0  0
  1 16  1  0  0  0  0
  1  6  1  0  0  0  0
  4 20  1  0  0  0  0
  5 17  1  0  0  0  0
  5 24  1  0  0  0  0
  5 27  1  1  0  0  0
  8  2  2  0  0  0  0
  8  7  2  0  0  0  0
  8 14  1  0  0  0  0
  9 14  1  0  0  0  0
  9 18  1  0  0  0  0
 10  8  1  1  0  0  0
 11 15  1  0  0  0  0
 12 24  1  0  0  0  0
 12 28  1  0  0  0  0
 13  9  2  0  0  0  0
 15 19  1  0  0  0  0
 16 28  1  0  0  0  0
 17 25  1  0  0  0  0
 17  3  1  0  0  0  0
 20 16  2  0  0  0  0
 21  1  2  0  0  0  0
 22  4  2  0  0  0  0
 22 21  1  0  0  0  0
 23 15  1  0  0  0  0
 23  6  1  0  0  0  0
 24 26  1  0  0  0  0
 25 12  1  0  0  0  0
 25 19  1  0  0  0  0
 26 10  1  0  0  0  0
 26 13  1  0  0  0  0
 28 10  1  0  0  0  0
M  END
>  <MODEL>
2

>  <REMARK>
 VINA RESULT:      -5.8      6.660      9.304
  Name = 
  0 active torsions:
  status: ('A' for Active; 'I' for Inactive)
                            x       y       z     vdW  Elec       q    Type
                         _______ _______ _______ _____ _____    ______ ____

>  <TORSDO>
F 0

$$$$
=
 OpenBabel11122411563D

 28 32  0  0  1  0  0  0  0  0999 V2000
  189.8590  174.3690  136.4170 C   0  0  0  0  0  0  0  0  0  0  0  0
  189.4750  177.4950  138.5360 O   0  0  0  0  0  0  0  0  0  0  0  0
  183.8680  175.5440  136.5980 O   0  0  0  0  0  1  0  0  0  0  0  0
  191.5040  175.8310  134.6830 C   0  0  0  0  0  3  0  0  0  0  0  0
  184.8210  176.5180  134.6030 C   0  0  2  0  0  3  0  0  0  0  0  0
  189.0180  173.5700  137.2500 N   0  0  0  0  0  2  0  0  0  0  0  0
  189.0710  179.7260  137.5810 O   0  0  0  0  0  0  0  0  0  0  0  0
  188.4740  178.3710  137.8360 S   0  0  0  0  0  0  0  0  0  0  0  0
  185.7910  178.1120  138.3070 C   0  0  0  0  0  0  0  0  0  0  0  0
  187.9770  177.6470  136.2930 C   0  0  2  0  0  3  0  0  0  0  0  0
  185.7100  172.0520  136.9000 O   0  0  0  0  0  1  0  0  0  0  0  0
  186.9750  175.6880  135.2580 C   0  0  2  0  0  3  0  0  0  0  0  0
  185.6020  177.8220  137.0520 N   0  0  0  0  0  0  0  0  0  0  0  0
  187.0610  178.5340  138.8010 N   0  0  0  0  0  2  0  0  0  0  0  0
  186.6500  172.9670  137.3720 C   0  0  2  0  0  3  0  0  0  0  0  0
  189.4060  175.5970  135.8940 C   0  0  0  0  0  0  0  0  0  0  0  0
  184.6280  175.2680  135.4510 C   0  0  1  0  0  3  0  0  0  0  0  0
  184.7140  177.9530  139.2210 N   0  0  0  0  0  1  0  0  0  0  0  0
  186.1250  174.3880  137.1910 C   0  0  0  0  0  2  0  0  0  0  0  0
  190.2340  176.3110  135.0100 C   0  0  0  0  0  3  0  0  0  0  0  0
  191.1370  173.9010  136.0940 C   0  0  0  0  0  3  0  0  0  0  0  0
  191.9590  174.6300  135.2320 C   0  0  0  0  0  3  0  0  0  0  0  0
  187.9720  172.7570  136.6500 C   0  0  0  0  0  2  0  0  0  0  0  0
  186.2550  176.9530  134.8280 C   0  0  2  0  0  3  0  0  0  0  0  0
  185.9680  174.7230  135.7660 N   0  0  2  0  0  0  0  0  0  0  0  0
  186.5410  177.9880  135.9280 C   0  0  2  0  0  3  0  0  0  0  0  0
  183.8900  177.5260  134.8800 O   0  0  0  0  0  1  0  0  0  0  0  0
  188.0460  176.1270  136.2700 C   0  0  1  0  0  3  0  0  0  0  0  0
  1  6  1  0  0  0  0
  4 20  2  0  0  0  0
  4 22  1  0  0  0  0
  5 24  1  0  0  0  0
  5 27  1  1  0  0  0
  5 17  1  0  0  0  0
  7  8  2  0  0  0  0
  8  2  2  0  0  0  0
  8 14  1  0  0  0  0
  9 14  1  0  0  0  0
  9 18  1  0  0  0  0
 10  8  1  1  0  0  0
 11 15  1  0  0  0  0
 12 25  1  0  0  0  0
 12 28  1  0  0  0  0
 13  9  2  0  0  0  0
 16 28  1  0  0  0  0
 16  1  2  0  0  0  0
 17 25  1  0  0  0  0
 17  3  1  0  0  0  0
 19 15  1  0  0  0  0
 20 16  1  0  0  0  0
 21  1  1  0  0  0  0
 22 21  2  0  0  0  0
 23  6  1  0  0  0  0
 23 15  1  0  0  0  0
 24 12  1  0  0  0  0
 24 26  1  0  0  0  0
 25 19  1  0  0  0  0
 26 10  1  0  0  0  0
 26 13  1  0  0  0  0
 28 10  1  0  0  0  0
M  END
>  <MODEL>
3

>  <REMARK>
 VINA RESULT:      -5.4      5.436      8.176
  Name = 
  0 active torsions:
  status: ('A' for Active; 'I' for Inactive)
                            x       y       z     vdW  Elec       q    Type
                         _______ _______ _______ _____ _____    ______ ____

>  <TORSDO>
F 0

$$$$
=
 OpenBabel11122411563D

 28 32  0  0  1  0  0  0  0  0999 V2000
  180.4080  180.1700  138.8020 C   0  0  0  0  0  0  0  0  0  0  0  0
  184.1800  180.4760  139.0940 O   0  0  0  0  0  0  0  0  0  0  0  0
  182.7210  175.6340  135.4290 O   0  0  0  0  0  1  0  0  0  0  0  0
  180.2850  179.8990  141.5890 C   0  0  0  0  0  3  0  0  0  0  0  0
  182.2060  174.8120  137.6420 C   0  0  2  0  0  3  0  0  0  0  0  0
  180.3990  180.2870  137.3800 N   0  0  0  0  0  2  0  0  0  0  0  0
  185.5400  179.0210  140.5390 O   0  0  0  0  0  0  0  0  0  0  0  0
  184.7130  179.0830  139.2860 S   0  0  0  0  0  0  0  0  0  0  0  0
  185.3300  177.4950  137.1450 C   0  0  0  0  0  0  0  0  0  0  0  0
  183.3830  177.9130  139.4000 C   0  0  2  0  0  3  0  0  0  0  0  0
  179.6790  178.0280  134.5960 O   0  0  0  0  0  1  0  0  0  0  0  0
  181.4420  177.0040  138.2510 C   0  0  2  0  0  3  0  0  0  0  0  0
  184.4430  176.6260  137.5390 N   0  0  0  0  0  0  0  0  0  0  0  0
  185.6740  178.6320  137.9350 N   0  0  0  0  0  2  0  0  0  0  0  0
  180.4800  178.7900  135.4470 C   0  0  2  0  0  3  0  0  0  0  0  0
  181.2060  179.2040  139.4460 C   0  0  0  0  0  0  0  0  0  0  0  0
  181.7050  175.5220  136.3910 C   0  0  1  0  0  3  0  0  0  0  0  0
  185.9320  177.3350  135.8680 N   0  0  0  0  0  1  0  0  0  0  0  0
  181.6380  177.9420  135.9630 C   0  0  0  0  0  2  0  0  0  0  0  0
  181.1200  179.0650  140.8430 C   0  0  0  0  0  3  0  0  0  0  0  0
  179.5820  181.0090  139.5580 C   0  0  0  0  0  3  0  0  0  0  0  0
  179.5220  180.8770  140.9470 C   0  0  0  0  0  3  0  0  0  0  0  0
  179.6330  179.3420  136.5830 C   0  0  0  0  0  2  0  0  0  0  0  0
  182.3780  175.8930  138.6900 C   0  0  2  0  0  3  0  0  0  0  0  0
  181.1560  176.8330  136.8040 N   0  0  2  0  0  0  0  0  0  0  0  0
  183.7600  176.5500  138.8420 C   0  0  2  0  0  3  0  0  0  0  0  0
  183.3690  174.0630  137.4280 O   0  0  0  0  0  1  0  0  0  0  0  0
  182.1280  178.3230  138.6430 C   0  0  1  0  0  3  0  0  0  0  0  0
  1 16  2  0  0  0  0
  1 21  1  0  0  0  0
  2  8  2  0  0  0  0
  3 17  1  0  0  0  0
  5 27  1  6  0  0  0
  5 24  1  0  0  0  0
  6  1  1  0  0  0  0
  8  7  2  0  0  0  0
  9 13  2  0  0  0  0
  9 14  1  0  0  0  0
 10  8  1  6  0  0  0
 11 15  1  0  0  0  0
 12 28  1  0  0  0  0
 12 24  1  0  0  0  0
 13 26  1  0  0  0  0
 14  8  1  0  0  0  0
 15 19  1  0  0  0  0
 15 23  1  0  0  0  0
 16 20  1  0  0  0  0
 17 25  1  0  0  0  0
 17  5  1  0  0  0  0
 18  9  1  0  0  0  0
 19 25  1  0  0  0  0
 20  4  2  0  0  0  0
 21 22  2  0  0  0  0
 22  4  1  0  0  0  0
 23  6  1  0  0  0  0
 24 26  1  0  0  0  0
 25 12  1  0  0  0  0
 26 10  1  0  0  0  0
 28 10  1  0  0  0  0
 28 16  1  0  0  0  0
M  END
>  <MODEL>
4

>  <REMARK>
 VINA RESULT:      -5.3      2.429      3.619
  Name = 
  0 active torsions:
  status: ('A' for Active; 'I' for Inactive)
                            x       y       z     vdW  Elec       q    Type
                         _______ _______ _______ _____ _____    ______ ____

>  <TORSDO>
F 0

$$$$
=
 OpenBabel11122411563D

 28 32  0  0  1  0  0  0  0  0999 V2000
  189.4030  178.1500  139.9890 C   0  0  0  0  0  0  0  0  0  0  0  0
  193.1210  178.0110  139.2380 O   0  0  0  0  0  0  0  0  0  0  0  0
  189.9180  175.3340  134.5940 O   0  0  0  0  0  1  0  0  0  0  0  0
  189.8970  176.7220  142.3480 C   0  0  0  0  0  3  0  0  0  0  0  0
  189.7960  173.6850  136.3550 C   0  0  2  0  0  3  0  0  0  0  0  0
  189.0790  178.8650  138.7970 N   0  0  0  0  0  2  0  0  0  0  0  0
  194.4770  175.9770  139.5260 O   0  0  0  0  0  0  0  0  0  0  0  0
  193.4030  176.6330  138.7050 S   0  0  0  0  0  0  0  0  0  0  0  0
  193.1710  176.0730  136.0370 C   0  0  0  0  0  0  0  0  0  0  0  0
  191.9370  175.6330  138.7450 C   0  0  2  0  0  3  0  0  0  0  0  0
  187.2910  178.0790  135.7050 O   0  0  0  0  0  1  0  0  0  0  0  0
  189.6400  175.4560  137.9670 C   0  0  2  0  0  3  0  0  0  0  0  0
  192.2530  175.1900  136.3050 N   0  0  0  0  0  0  0  0  0  0  0  0
  193.9080  176.7320  137.0650 N   0  0  0  0  0  2  0  0  0  0  0  0
  188.4040  178.3390  136.5050 C   0  0  2  0  0  3  0  0  0  0  0  0
  190.1280  176.9420  139.9360 C   0  0  0  0  0  0  0  0  0  0  0  0
  189.1590  174.8980  135.6910 C   0  0  1  0  0  3  0  0  0  0  0  0
  193.4090  176.4310  134.6810 N   0  0  0  0  0  1  0  0  0  0  0  0
  189.4640  177.2650  136.2800 C   0  0  0  0  0  2  0  0  0  0  0  0
  190.3520  176.2260  141.1240 C   0  0  0  0  0  3  0  0  0  0  0  0
  188.9610  178.6440  141.2200 C   0  0  0  0  0  3  0  0  0  0  0  0
  189.2080  177.9350  142.3970 C   0  0  0  0  0  3  0  0  0  0  0  0
  187.9760  178.4150  137.9620 C   0  0  0  0  0  2  0  0  0  0  0  0
  190.4200  174.1960  137.6380 C   0  0  2  0  0  3  0  0  0  0  0  0
  188.9900  175.9430  136.7250 N   0  0  2  0  0  0  0  0  0  0  0  0
  191.8980  174.6160  137.6150 C   0  0  2  0  0  3  0  0  0  0  0  0
  190.7060  173.0130  135.5310 O   0  0  0  0  0  1  0  0  0  0  0  0
  190.6420  176.4230  138.6180 C   0  0  1  0  0  3  0  0  0  0  0  0
  1 21  1  0  0  0  0
  3 17  1  0  0  0  0
  4 22  1  0  0  0  0
  5 27  1  6  0  0  0
  5 24  1  0  0  0  0
  6  1  1  0  0  0  0
  8  2  2  0  0  0  0
  8  7  2  0  0  0  0
  9 13  2  0  0  0  0
  9 14  1  0  0  0  0
 10  8  1  6  0  0  0
 11 15  1  0  0  0  0
 12 28  1  0  0  0  0
 13 26  1  0  0  0  0
 14  8  1  0  0  0  0
 15 23  1  0  0  0  0
 16  1  2  0  0  0  0
 16 20  1  0  0  0  0
 17  5  1  0  0  0  0
 17 25  1  0  0  0  0
 18  9  1  0  0  0  0
 19 15  1  0  0  0  0
 19 25  1  0  0  0  0
 20  4  2  0  0  0  0
 21 22  2  0  0  0  0
 23  6  1  0  0  0  0
 24 12  1  0  0  0  0
 25 12  1  0  0  0  0
 26 24  1  0  0  0  0
 26 10  1  0  0  0  0
 28 10  1  0  0  0  0
 28 16  1  0  0  0  0
M  END
>  <MODEL>
5

>  <REMARK>
 VINA RESULT:      -5.1      7.993      9.871
  Name = 
  0 active torsions:
  status: ('A' for Active; 'I' for Inactive)
                            x       y       z     vdW  Elec       q    Type
                         _______ _______ _______ _____ _____    ______ ____

>  <TORSDO>
F 0

$$$$
=
 OpenBabel11122411563D

 28 32  0  0  1  0  0  0  0  0999 V2000
  183.9220  178.4280  139.9610 C   0  0  0  0  0  0  0  0  0  0  0  0
  183.8050  174.9960  138.3430 O   0  0  0  0  0  0  0  0  0  0  0  0
  189.5460  177.3980  137.8130 O   0  0  0  0  0  1  0  0  0  0  0  0
  181.8980  179.2470  138.2050 C   0  0  0  0  0  3  0  0  0  0  0  0
  188.2800  178.6580  136.1860 C   0  0  2  0  0  3  0  0  0  0  0  0
  184.9630  178.0820  140.8740 N   0  0  0  0  0  2  0  0  0  0  0  0
  183.6800  174.6590  135.9090 O   0  0  0  0  0  0  0  0  0  0  0  0
  184.5560  175.1040  137.0450 S   0  0  0  0  0  0  0  0  0  0  0  0
  187.2620  174.7090  136.9370 C   0  0  0  0  0  0  0  0  0  0  0  0
  185.0830  176.7760  136.7630 C   0  0  2  0  0  3  0  0  0  0  0  0
  188.4790  179.0050  141.2700 O   0  0  0  0  0  1  0  0  0  0  0  0
  186.3900  178.6180  137.6640 C   0  0  2  0  0  3  0  0  0  0  0  0
  187.4190  175.9260  136.5030 N   0  0  0  0  0  0  0  0  0  0  0  0
  185.9700  174.1280  137.1030 N   0  0  0  0  0  2  0  0  0  0  0  0
  187.4060  178.1750  140.9420 C   0  0  2  0  0  3  0  0  0  0  0  0
  184.0780  178.2300  138.5740 C   0  0  0  0  0  0  0  0  0  0  0  0
  188.7810  178.5580  137.6210 C   0  0  1  0  0  3  0  0  0  0  0  0
  188.4090  173.9550  137.3090 N   0  0  0  0  0  1  0  0  0  0  0  0
  187.6180  177.5810  139.5530 C   0  0  0  0  0  2  0  0  0  0  0  0
  183.0630  178.6630  137.7030 C   0  0  0  0  0  3  0  0  0  0  0  0
  182.7470  179.0030  140.4560 C   0  0  0  0  0  3  0  0  0  0  0  0
  181.7360  179.4090  139.5820 C   0  0  0  0  0  3  0  0  0  0  0  0
  186.1090  178.9630  141.0300 C   0  0  0  0  0  2  0  0  0  0  0  0
  186.8050  178.3090  136.2380 C   0  0  2  0  0  3  0  0  0  0  0  0
  187.6050  178.6280  138.5160 N   0  0  2  0  0  0  0  0  0  0  0  0
  186.3910  176.8490  135.9910 C   0  0  2  0  0  3  0  0  0  0  0  0
  189.0020  177.8630  135.2880 O   0  0  0  0  0  1  0  0  0  0  0  0
  185.3240  177.5750  138.0360 C   0  0  1  0  0  3  0  0  0  0  0  0
  1 21  1  0  0  0  0
  1  6  1  0  0  0  0
  4 22  1  0  0  0  0
  5 27  1  6  0  0  0
  5 24  1  0  0  0  0
  5 17  1  0  0  0  0
  6 23  1  0  0  0  0
  7  8  2  0  0  0  0
  8 14  1  0  0  0  0
  8  2  2  0  0  0  0
  9 14  1  0  0  0  0
  9 18  1  0  0  0  0
 10  8  1  1  0  0  0
 10 28  1  0  0  0  0
 12 28  1  0  0  0  0
 12 25  1  0  0  0  0
 13  9  2  0  0  0  0
 15 23  1  0  0  0  0
 15 11  1  0  0  0  0
 16  1  2  0  0  0  0
 17  3  1  0  0  0  0
 17 25  1  0  0  0  0
 19 15  1  0  0  0  0
 20  4  2  0  0  0  0
 20 16  1  0  0  0  0
 22 21  2  0  0  0  0
 24 12  1  0  0  0  0
 25 19  1  0  0  0  0
 26 24  1  0  0  0  0
 26 13  1  0  0  0  0
 26 10  1  0  0  0  0
 28 16  1  0  0  0  0
M  END
>  <MODEL>
6

>  <REMARK>
 VINA RESULT:      -5.0      4.295      6.477
  Name = 
  0 active torsions:
  status: ('A' for Active; 'I' for Inactive)
                            x       y       z     vdW  Elec       q    Type
                         _______ _______ _______ _____ _____    ______ ____

>  <TORSDO>
F 0

$$$$
=
 OpenBabel11122411563D

 28 32  0  0  1  0  0  0  0  0999 V2000
  181.4010  176.3120  136.9960 C   0  0  0  0  0  0  0  0  0  0  0  0
  184.3900  177.9560  138.6610 O   0  0  0  0  0  0  0  0  0  0  0  0
  179.6350  177.6170  142.6950 O   0  0  0  0  0  1  0  0  0  0  0  0
  181.4500  178.3390  135.0630 C   0  0  0  0  0  3  0  0  0  0  0  0
  178.9600  179.4020  141.2130 C   0  0  2  0  0  3  0  0  0  0  0  0
  181.3100  175.2580  137.9550 N   0  0  0  0  0  2  0  0  0  0  0  0
  184.5650  180.3860  139.0140 O   0  0  0  0  0  0  0  0  0  0  0  0
  183.8600  179.1290  139.4390 S   0  0  0  0  0  0  0  0  0  0  0  0
  182.9900  178.8410  142.0170 C   0  0  0  0  0  0  0  0  0  0  0  0
  182.1140  179.3170  139.1790 C   0  0  2  0  0  3  0  0  0  0  0  0
  178.9390  174.3410  140.5840 O   0  0  0  0  0  1  0  0  0  0  0  0
  179.9540  178.2180  139.3770 C   0  0  2  0  0  3  0  0  0  0  0  0
  181.8030  179.2370  141.6570 N   0  0  0  0  0  0  0  0  0  0  0  0
  184.0990  178.8720  141.1210 N   0  0  0  0  0  2  0  0  0  0  0  0
  180.1350  174.8300  140.0570 C   0  0  2  0  0  3  0  0  0  0  0  0
  181.4050  177.6620  137.4000 C   0  0  0  0  0  0  0  0  0  0  0  0
  178.9310  177.9100  141.5170 C   0  0  1  0  0  3  0  0  0  0  0  0
  183.1740  178.3110  143.3230 N   0  0  0  0  0  1  0  0  0  0  0  0
  180.4660  176.1780  140.6910 C   0  0  0  0  0  2  0  0  0  0  0  0
  181.4100  178.6690  136.4200 C   0  0  0  0  0  3  0  0  0  0  0  0
  181.4540  175.9900  135.6360 C   0  0  0  0  0  3  0  0  0  0  0  0
  181.4810  177.0000  134.6720 C   0  0  0  0  0  3  0  0  0  0  0  0
  180.0220  174.9280  138.5440 C   0  0  0  0  0  2  0  0  0  0  0  0
  179.9370  179.5700  140.0660 C   0  0  2  0  0  3  0  0  0  0  0  0
  179.4630  177.1970  140.3350 N   0  0  2  0  0  0  0  0  0  0  0  0
  181.4040  179.8870  140.3970 C   0  0  2  0  0  3  0  0  0  0  0  0
  179.2780  180.1900  142.3250 O   0  0  0  0  0  1  0  0  0  0  0  0
  181.3890  178.0160  138.8650 C   0  0  1  0  0  3  0  0  0  0  0  0
  1 16  1  0  0  0  0
  1  6  1  0  0  0  0
  2  8  2  0  0  0  0
  4 20  1  0  0  0  0
  5 17  1  0  0  0  0
  5 27  1  1  0  0  0
  6 23  1  0  0  0  0
  7  8  2  0  0  0  0
  8 14  1  0  0  0  0
  9 18  1  0  0  0  0
 10  8  1  1  0  0  0
 10 26  1  0  0  0  0
 12 24  1  0  0  0  0
 12 25  1  0  0  0  0
 13  9  2  0  0  0  0
 14  9  1  0  0  0  0
 15 11  1  0  0  0  0
 15 19  1  0  0  0  0
 16 28  1  0  0  0  0
 17  3  1  0  0  0  0
 20 16  2  0  0  0  0
 21  1  2  0  0  0  0
 22  4  2  0  0  0  0
 22 21  1  0  0  0  0
 23 15  1  0  0  0  0
 24 26  1  0  0  0  0
 24  5  1  0  0  0  0
 25 19  1  0  0  0  0
 25 17  1  0  0  0  0
 26 13  1  0  0  0  0
 28 10  1  0  0  0  0
 28 12  1  0  0  0  0
M  END
>  <MODEL>
7

>  <REMARK>
 VINA RESULT:      -5.0      2.356      5.302
  Name = 
  0 active torsions:
  status: ('A' for Active; 'I' for Inactive)
                            x       y       z     vdW  Elec       q    Type
                         _______ _______ _______ _____ _____    ______ ____

>  <TORSDO>
F 0

$$$$
=
 OpenBabel11122411563D

 28 32  0  0  1  0  0  0  0  0999 V2000
  185.4110  175.7490  137.1940 C   0  0  0  0  0  0  0  0  0  0  0  0
  182.5690  175.4110  134.7010 O   0  0  0  0  0  0  0  0  0  0  0  0
  180.7250  178.8670  139.5650 O   0  0  0  0  0  1  0  0  0  0  0  0
  185.4640  172.9560  137.4070 C   0  0  0  0  0  3  0  0  0  0  0  0
  180.7420  176.6260  140.4700 C   0  0  2  0  0  3  0  0  0  0  0  0
  185.4280  177.1760  137.1450 N   0  0  0  0  0  2  0  0  0  0  0  0
  180.6720  173.8770  135.0240 O   0  0  0  0  0  0  0  0  0  0  0  0
  181.3230  175.1440  135.5000 S   0  0  0  0  0  0  0  0  0  0  0  0
  179.7970  177.1980  136.4720 C   0  0  0  0  0  0  0  0  0  0  0  0
  181.7050  174.9970  137.2270 C   0  0  2  0  0  3  0  0  0  0  0  0
  184.5550  179.8620  139.4690 O   0  0  0  0  0  1  0  0  0  0  0  0
  182.6800  176.1340  139.1430 C   0  0  2  0  0  3  0  0  0  0  0  0
  180.0120  176.7780  137.6860 N   0  0  0  0  0  0  0  0  0  0  0  0
  180.2260  176.4570  135.3310 N   0  0  0  0  0  2  0  0  0  0  0  0
  184.3970  179.0340  138.3570 C   0  0  2  0  0  3  0  0  0  0  0  0
  184.2220  175.0480  137.4800 C   0  0  0  0  0  0  0  0  0  0  0  0
  181.5150  177.9170  140.2310 C   0  0  1  0  0  3  0  0  0  0  0  0
  179.1650  178.4560  136.2790 N   0  0  0  0  0  1  0  0  0  0  0  0
  182.9840  178.4600  138.3370 C   0  0  0  0  0  2  0  0  0  0  0  0
  184.2670  173.6480  137.6030 C   0  0  0  0  0  3  0  0  0  0  0  0
  186.6030  175.0470  136.9880 C   0  0  0  0  0  3  0  0  0  0  0  0
  186.6310  173.6550  137.0910 C   0  0  0  0  0  3  0  0  0  0  0  0
  185.4530  177.9400  138.3830 C   0  0  0  0  0  2  0  0  0  0  0  0
  181.2880  175.6280  139.4680 C   0  0  2  0  0  3  0  0  0  0  0  0
  182.7500  177.5750  139.4910 N   0  0  2  0  0  0  0  0  0  0  0  0
  180.5710  175.4840  138.1160 C   0  0  2  0  0  3  0  0  0  0  0  0
  179.3540  176.7860  140.3880 O   0  0  0  0  0  1  0  0  0  0  0  0
  182.9260  175.7940  137.6640 C   0  0  1  0  0  3  0  0  0  0  0  0
  1 16  1  0  0  0  0
  2  8  2  0  0  0  0
  3 17  1  0  0  0  0
  4 20  1  0  0  0  0
  5 27  1  6  0  0  0
  6  1  1  0  0  0  0
  6 23  1  0  0  0  0
  7  8  2  0  0  0  0
  9 13  2  0  0  0  0
 10  8  1  6  0  0  0
 10 28  1  0  0  0  0
 10 26  1  0  0  0  0
 12 24  1  0  0  0  0
 12 25  1  0  0  0  0
 13 26  1  0  0  0  0
 14  8  1  0  0  0  0
 14  9  1  0  0  0  0
 15 23  1  0  0  0  0
 15 11  1  0  0  0  0
 16 20  2  0  0  0  0
 16 28  1  0  0  0  0
 17  5  1  0  0  0  0
 18  9  1  0  0  0  0
 19 15  1  0  0  0  0
 19 25  1  0  0  0  0
 21 22  1  0  0  0  0
 21  1  2  0  0  0  0
 22  4  2  0  0  0  0
 24  5  1  0  0  0  0
 25 17  1  0  0  0  0
 26 24  1  0  0  0  0
 28 12  1  0  0  0  0
M  END
>  <MODEL>
8

>  <REMARK>
 VINA RESULT:      -5.0      2.478      5.975
  Name = 
  0 active torsions:
  status: ('A' for Active; 'I' for Inactive)
                            x       y       z     vdW  Elec       q    Type
                         _______ _______ _______ _____ _____    ______ ____

>  <TORSDO>
F 0

$$$$
=
 OpenBabel11122411563D

 28 32  0  0  1  0  0  0  0  0999 V2000
  187.3340  175.8410  136.9570 C   0  0  0  0  0  0  0  0  0  0  0  0
  185.8470  178.1010  139.6190 O   0  0  0  0  0  0  0  0  0  0  0  0
  181.3800  174.4980  137.1570 O   0  0  0  0  0  1  0  0  0  0  0  0
  188.1920  178.1310  135.5900 C   0  0  0  0  0  3  0  0  0  0  0  0
  181.7810  176.1250  135.4170 C   0  0  2  0  0  3  0  0  0  0  0  0
  186.9140  174.6340  137.5930 N   0  0  0  0  0  2  0  0  0  0  0  0
  184.5540  180.1280  139.0940 O   0  0  0  0  0  0  0  0  0  0  0  0
  184.5510  178.6260  139.0650 S   0  0  0  0  0  0  0  0  0  0  0  0
  182.2110  177.2450  139.3870 C   0  0  0  0  0  0  0  0  0  0  0  0
  184.3100  178.0690  137.3970 C   0  0  2  0  0  3  0  0  0  0  0  0
  184.4590  172.0280  136.8490 O   0  0  0  0  0  1  0  0  0  0  0  0
  184.1150  176.1060  135.9740 C   0  0  2  0  0  3  0  0  0  0  0  0
  182.0950  177.1450  138.0950 N   0  0  0  0  0  0  0  0  0  0  0  0
  183.2330  178.0320  139.9950 N   0  0  0  0  0  2  0  0  0  0  0  0
  184.9830  173.1340  137.5190 C   0  0  2  0  0  3  0  0  0  0  0  0
  186.4120  176.8650  136.6630 C   0  0  0  0  0  0  0  0  0  0  0  0
  182.1350  174.7650  136.0050 C   0  0  1  0  0  3  0  0  0  0  0  0
  181.3260  176.5040  140.2180 N   0  0  0  0  0  1  0  0  0  0  0  0
  183.9330  174.2380  137.5950 C   0  0  0  0  0  2  0  0  0  0  0  0
  186.8510  178.0000  135.9600 C   0  0  0  0  0  3  0  0  0  0  0  0
  188.6770  175.9860  136.5940 C   0  0  0  0  0  3  0  0  0  0  0  0
  189.1060  177.1280  135.9150 C   0  0  0  0  0  3  0  0  0  0  0  0
  186.2470  173.6020  136.8150 C   0  0  0  0  0  2  0  0  0  0  0  0
  182.9370  177.0400  135.7690 C   0  0  2  0  0  3  0  0  0  0  0  0
  183.5930  174.7460  136.2540 N   0  0  2  0  0  0  0  0  0  0  0  0
  182.8410  177.8770  137.0560 C   0  0  2  0  0  3  0  0  0  0  0  0
  180.5420  176.6130  135.8500 O   0  0  0  0  0  1  0  0  0  0  0  0
  184.9720  176.7330  137.0860 C   0  0  1  0  0  3  0  0  0  0  0  0
  1  6  1  0  0  0  0
  4 22  2  0  0  0  0
  4 20  1  0  0  0  0
  5 24  1  0  0  0  0
  5 27  1  1  0  0  0
  5 17  1  0  0  0  0
  8  7  2  0  0  0  0
  8  2  2  0  0  0  0
  8 14  1  0  0  0  0
  9 14  1  0  0  0  0
  9 18  1  0  0  0  0
 10  8  1  1  0  0  0
 11 15  1  0  0  0  0
 12 25  1  0  0  0  0
 12 28  1  0  0  0  0
 13  9  2  0  0  0  0
 15 19  1  0  0  0  0
 16  1  1  0  0  0  0
 16 28  1  0  0  0  0
 17 25  1  0  0  0  0
 17  3  1  0  0  0  0
 20 16  2  0  0  0  0
 21  1  2  0  0  0  0
 22 21  1  0  0  0  0
 23 15  1  0  0  0  0
 23  6  1  0  0  0  0
 24 12  1  0  0  0  0
 24 26  1  0  0  0  0
 25 19  1  0  0  0  0
 26 10  1  0  0  0  0
 26 13  1  0  0  0  0
 28 10  1  0  0  0  0
M  END
>  <MODEL>
9

>  <REMARK>
 VINA RESULT:      -4.9      3.317      5.996
  Name = 
  0 active torsions:
  status: ('A' for Active; 'I' for Inactive)
                            x       y       z     vdW  Elec       q    Type
                         _______ _______ _______ _____ _____    ______ ____

>  <TORSDO>
F 0

$$$$
