=
 OpenBabel11122411193D

 31 35  0  0  1  0  0  0  0  0999 V2000
  190.2060  176.0480  142.8190 C   0  0  0  0  0  0  0  0  0  0  0  0
  186.7830  177.4910  143.3830 N   0  0  0  0  0  0  0  0  0  0  0  0
  186.6660  177.8760  144.7770 C   0  0  0  0  0  0  0  0  0  0  0  0
  187.5860  178.0760  147.0230 C   0  0  0  0  0  0  0  0  0  0  0  0
  188.0610  177.1890  142.7860 C   0  0  0  0  0  0  0  0  0  0  0  0
  190.5430  176.6350  141.5970 C   0  0  0  0  0  3  0  0  0  0  0  0
  187.6960  177.6330  145.7020 C   0  0  0  0  0  3  0  0  0  0  0  0
  186.1850  179.0410  141.6010 C   0  0  2  0  0  3  0  0  0  0  0  0
  191.0790  175.2130  143.4310 F   0  0  0  0  0  0  0  0  0  0  0  0
  184.4930  178.8270  144.3040 O   0  0  0  0  0  0  0  0  0  0  0  0
  188.6820  177.8080  147.9890 C   0  0  0  0  0  1  0  0  0  0  0  0
  187.4260  178.6400  140.7880 C   0  0  0  0  0  2  0  0  0  0  0  0
  185.7200  177.8470  142.4320 C   0  0  2  0  0  3  0  0  0  0  0  0
  188.9700  176.3190  143.4090 C   0  0  0  0  0  3  0  0  0  0  0  0
  186.4510  178.7820  147.4300 C   0  0  0  0  0  3  0  0  0  0  0  0
  188.4030  177.7750  141.5450 C   0  0  0  0  0  0  0  0  0  0  0  0
  189.6410  177.4910  140.9600 C   0  0  0  0  0  3  0  0  0  0  0  0
  184.3630  178.0610  143.1130 C   0  0  0  0  0  2  0  0  0  0  0  0
  185.5230  178.5750  145.2040 C   0  0  0  0  0  0  0  0  0  0  0  0
  185.4230  179.0340  146.5200 C   0  0  0  0  0  3  0  0  0  0  0  0
  185.5740  177.8290  139.0910 O   0  0  0  0  0  0  0  0  0  0  0  0
  184.8720  178.8130  139.4500 C   0  0  0  0  0  0  0  0  0  0  0  0
  185.1330  179.4720  140.6910 N   0  0  0  0  0  2  0  0  0  0  0  0
  181.1660  178.0590  139.2300 C   0  0  1  0  0  3  0  0  0  0  0  0
  182.6830  180.0530  139.3900 C   0  0  0  0  0  2  0  0  0  0  0  0
  184.1130  177.5150  137.0050 O   0  0  0  0  0  1  0  0  0  0  0  0
  180.3740  177.1790  139.9630 O   0  0  0  0  0  1  0  0  0  0  0  0
  181.8000  179.0780  140.1710 C   0  0  0  0  0  2  0  0  0  0  0  0
  183.1290  178.2290  137.6900 C   0  0  2  0  0  3  0  0  0  0  0  0
  183.7560  179.3160  138.5790 C   0  0  2  0  0  3  0  0  0  0  0  0
  182.2490  177.2760  138.4940 C   0  0  0  0  0  2  0  0  0  0  0  0
  1 14  1  0  0  0  0
  1  9  1  0  0  0  0
  2  3  1  0  0  0  0
  3 19  2  0  0  0  0
  3  7  1  0  0  0  0
  4 15  1  0  0  0  0
  4 11  1  0  0  0  0
  5  2  1  0  0  0  0
  5 14  2  0  0  0  0
  6  1  2  0  0  0  0
  7  4  2  0  0  0  0
  8 23  1  6  0  0  0
  8 13  1  0  0  0  0
 10 19  1  0  0  0  0
 12 16  1  0  0  0  0
 12  8  1  0  0  0  0
 13 18  1  1  0  0  0
 13  2  1  0  0  0  0
 16  5  1  0  0  0  0
 17 16  2  0  0  0  0
 17  6  1  0  0  0  0
 18 10  1  0  0  0  0
 19 20  1  0  0  0  0
 20 15  2  0  0  0  0
 21 22  2  0  0  0  0
 22 23  1  0  0  0  0
 24 27  1  1  0  0  0
 24 28  1  0  0  0  0
 25 28  1  0  0  0  0
 29 26  1  1  0  0  0
 29 31  1  0  0  0  0
 29 30  1  0  0  0  0
 30 25  1  0  0  0  0
 30 22  1  1  0  0  0
 31 24  1  0  0  0  0
M  END
>  <MODEL>
1

>  <REMARK>
 VINA RESULT:     -10.0      0.000      0.000
  Name = 
  2 active torsions:
  status: ('A' for Active; 'I' for Inactive)
    1  A    between atoms: C_5  and  C_30
    2  A    between atoms: C_10  and  N_16
                            x       y       z     vdW  Elec       q    Type
                         _______ _______ _______ _____ _____    ______ ____

>  <TORSDO>
F 2

$$$$
=
 OpenBabel11122411193D

 31 35  0  0  1  0  0  0  0  0999 V2000
  189.9670  175.9810  142.7330 C   0  0  0  0  0  0  0  0  0  0  0  0
  186.7680  177.5030  143.9860 N   0  0  0  0  0  0  0  0  0  0  0  0
  186.9430  177.8670  145.3790 C   0  0  0  0  0  0  0  0  0  0  0  0
  188.2960  178.0050  147.3990 C   0  0  0  0  0  0  0  0  0  0  0  0
  187.8920  177.1780  143.1420 C   0  0  0  0  0  0  0  0  0  0  0  0
  190.0710  176.5800  141.4760 C   0  0  0  0  0  3  0  0  0  0  0  0
  188.1290  177.5820  146.0780 C   0  0  0  0  0  3  0  0  0  0  0  0
  185.8720  179.0980  142.3760 C   0  0  2  0  0  3  0  0  0  0  0  0
  190.9210  175.1130  143.1490 F   0  0  0  0  0  0  0  0  0  0  0  0
  184.7460  178.8820  145.3600 O   0  0  0  0  0  0  0  0  0  0  0  0
  189.5550  177.6930  148.1240 C   0  0  0  0  0  1  0  0  0  0  0  0
  186.9140  178.6780  141.3280 C   0  0  0  0  0  2  0  0  0  0  0  0
  185.5480  177.9020  143.2700 C   0  0  2  0  0  3  0  0  0  0  0  0
  188.8820  176.2740  143.5610 C   0  0  0  0  0  3  0  0  0  0  0  0
  187.2870  178.7340  148.0320 C   0  0  0  0  0  3  0  0  0  0  0  0
  187.9970  177.7750  141.8650 C   0  0  0  0  0  0  0  0  0  0  0  0
  189.0860  177.4700  141.0420 C   0  0  0  0  0  3  0  0  0  0  0  0
  184.3600  178.1400  144.2100 C   0  0  0  0  0  2  0  0  0  0  0  0
  185.9280  178.5880  146.0330 C   0  0  0  0  0  0  0  0  0  0  0  0
  186.1050  179.0270  147.3480 C   0  0  0  0  0  3  0  0  0  0  0  0
  184.0620  177.4670  140.8920 O   0  0  0  0  0  0  0  0  0  0  0  0
  183.8010  178.6980  140.9800 C   0  0  0  0  0  0  0  0  0  0  0  0
  184.6720  179.5710  141.6990 N   0  0  0  0  0  2  0  0  0  0  0  0
  181.7190  177.6970  137.9780 C   0  0  1  0  0  3  0  0  0  0  0  0
  181.3870  178.3030  140.3910 C   0  0  0  0  0  2  0  0  0  0  0  0
  183.9390  180.5780  138.8150 O   0  0  0  0  0  1  0  0  0  0  0  0
  181.8620  176.6360  137.0870 O   0  0  0  0  0  1  0  0  0  0  0  0
  181.5380  177.1550  139.3920 C   0  0  0  0  0  2  0  0  0  0  0  0
  182.8150  179.7540  138.8840 C   0  0  2  0  0  3  0  0  0  0  0  0
  182.5760  179.2690  140.3240 C   0  0  2  0  0  3  0  0  0  0  0  0
  182.9550  178.5880  137.9090 C   0  0  0  0  0  2  0  0  0  0  0  0
  1  9  1  0  0  0  0
  1 14  1  0  0  0  0
  2  3  1  0  0  0  0
  3 19  2  0  0  0  0
  3  7  1  0  0  0  0
  4 15  1  0  0  0  0
  4 11  1  0  0  0  0
  5 14  2  0  0  0  0
  5  2  1  0  0  0  0
  6  1  2  0  0  0  0
  7  4  2  0  0  0  0
  8 23  1  6  0  0  0
  8 13  1  0  0  0  0
 10 19  1  0  0  0  0
 12 16  1  0  0  0  0
 12  8  1  0  0  0  0
 13  2  1  0  0  0  0
 13 18  1  1  0  0  0
 16  5  1  0  0  0  0
 17  6  1  0  0  0  0
 17 16  2  0  0  0  0
 18 10  1  0  0  0  0
 19 20  1  0  0  0  0
 20 15  2  0  0  0  0
 21 22  2  0  0  0  0
 22 23  1  0  0  0  0
 24 27  1  6  0  0  0
 24 28  1  0  0  0  0
 28 25  1  0  0  0  0
 29 26  1  1  0  0  0
 29 30  1  0  0  0  0
 30 25  1  0  0  0  0
 30 22  1  6  0  0  0
 31 24  1  0  0  0  0
 31 29  1  0  0  0  0
M  END
>  <MODEL>
2

>  <REMARK>
 VINA RESULT:     -10.0      1.147      1.482
  Name = 
  2 active torsions:
  status: ('A' for Active; 'I' for Inactive)
    1  A    between atoms: C_5  and  C_30
    2  A    between atoms: C_10  and  N_16
                            x       y       z     vdW  Elec       q    Type
                         _______ _______ _______ _____ _____    ______ ____

>  <TORSDO>
F 2

$$$$
=
 OpenBabel11122411193D

 31 35  0  0  1  0  0  0  0  0999 V2000
  191.2210  176.3720  144.3850 C   0  0  0  0  0  0  0  0  0  0  0  0
  187.6770  177.3760  143.6400 N   0  0  0  0  0  0  0  0  0  0  0  0
  187.0600  177.8440  144.8660 C   0  0  0  0  0  0  0  0  0  0  0  0
  187.1470  178.3350  147.2500 C   0  0  0  0  0  0  0  0  0  0  0  0
  189.1060  177.2060  143.5280 C   0  0  0  0  0  0  0  0  0  0  0  0
  191.8860  176.9060  143.2800 C   0  0  0  0  0  3  0  0  0  0  0  0
  187.7390  177.8140  146.0970 C   0  0  0  0  0  3  0  0  0  0  0  0
  187.5560  178.6930  141.5930 C   0  0  2  0  0  3  0  0  0  0  0  0
  191.9190  175.7110  145.3390 F   0  0  0  0  0  0  0  0  0  0  0  0
  185.0860  178.4540  143.6080 O   0  0  0  0  0  0  0  0  0  0  0  0
  187.8760  178.2910  148.5430 C   0  0  0  0  0  1  0  0  0  0  0  0
  189.0320  178.4040  141.2790 C   0  0  0  0  0  2  0  0  0  0  0  0
  186.9650  177.5120  142.3610 C   0  0  2  0  0  3  0  0  0  0  0  0
  189.8370  176.5160  144.5070 C   0  0  0  0  0  3  0  0  0  0  0  0
  185.8750  178.9090  147.1830 C   0  0  0  0  0  3  0  0  0  0  0  0
  189.7820  177.7380  142.4060 C   0  0  0  0  0  0  0  0  0  0  0  0
  191.1670  177.5820  142.2910 C   0  0  0  0  0  3  0  0  0  0  0  0
  185.4430  177.5910  142.5360 C   0  0  0  0  0  2  0  0  0  0  0  0
  185.7750  178.4120  144.8160 C   0  0  0  0  0  0  0  0  0  0  0  0
  185.1920  178.9500  145.9660 C   0  0  0  0  0  3  0  0  0  0  0  0
  187.9480  177.2220  139.1800 O   0  0  0  0  0  0  0  0  0  0  0  0
  187.0700  178.1280  139.1750 C   0  0  0  0  0  0  0  0  0  0  0  0
  186.8320  178.9080  140.3480 N   0  0  0  0  0  2  0  0  0  0  0  0
  186.7030  176.3880  135.8310 C   0  0  1  0  0  3  0  0  0  0  0  0
  185.2430  177.3010  137.6570 C   0  0  0  0  0  2  0  0  0  0  0  0
  188.1010  179.6540  136.9740 O   0  0  0  0  0  1  0  0  0  0  0  0
  187.3080  175.2350  135.3370 O   0  0  0  0  0  1  0  0  0  0  0  0
  185.9110  176.0480  137.0890 C   0  0  0  0  0  2  0  0  0  0  0  0
  187.1250  178.6960  136.6950 C   0  0  2  0  0  3  0  0  0  0  0  0
  186.2670  178.4080  137.9380 C   0  0  2  0  0  3  0  0  0  0  0  0
  187.7740  177.4280  136.1470 C   0  0  0  0  0  2  0  0  0  0  0  0
  1 14  1  0  0  0  0
  1  9  1  0  0  0  0
  2  3  1  0  0  0  0
  3  7  1  0  0  0  0
  4 11  1  0  0  0  0
  5  2  1  0  0  0  0
  5 14  2  0  0  0  0
  6  1  2  0  0  0  0
  7  4  2  0  0  0  0
  8 23  1  6  0  0  0
  8 13  1  0  0  0  0
 10 19  1  0  0  0  0
 12  8  1  0  0  0  0
 12 16  1  0  0  0  0
 13 18  1  1  0  0  0
 13  2  1  0  0  0  0
 15  4  1  0  0  0  0
 16  5  1  0  0  0  0
 17 16  2  0  0  0  0
 17  6  1  0  0  0  0
 18 10  1  0  0  0  0
 19  3  2  0  0  0  0
 19 20  1  0  0  0  0
 20 15  2  0  0  0  0
 22 21  2  0  0  0  0
 22 23  1  0  0  0  0
 24 27  1  1  0  0  0
 24 31  1  0  0  0  0
 24 28  1  0  0  0  0
 25 30  1  0  0  0  0
 28 25  1  0  0  0  0
 29 26  1  1  0  0  0
 29 30  1  0  0  0  0
 30 22  1  1  0  0  0
 31 29  1  0  0  0  0
M  END
>  <MODEL>
3

>  <REMARK>
 VINA RESULT:      -9.6      2.357      3.127
  Name = 
  2 active torsions:
  status: ('A' for Active; 'I' for Inactive)
    1  A    between atoms: C_5  and  C_30
    2  A    between atoms: C_10  and  N_16
                            x       y       z     vdW  Elec       q    Type
                         _______ _______ _______ _____ _____    ______ ____

>  <TORSDO>
F 2

$$$$
=
 OpenBabel11122411193D

 31 35  0  0  1  0  0  0  0  0999 V2000
  189.5770  176.2040  142.6050 C   0  0  0  0  0  0  0  0  0  0  0  0
  186.4230  177.6510  144.0470 N   0  0  0  0  0  0  0  0  0  0  0  0
  186.6690  178.0110  145.4310 C   0  0  0  0  0  0  0  0  0  0  0  0
  188.1320  178.1660  147.3710 C   0  0  0  0  0  0  0  0  0  0  0  0
  187.5040  177.3540  143.1390 C   0  0  0  0  0  0  0  0  0  0  0  0
  189.5970  176.8120  141.3480 C   0  0  0  0  0  3  0  0  0  0  0  0
  187.8980  177.7470  146.0590 C   0  0  0  0  0  3  0  0  0  0  0  0
  185.4050  179.2360  142.5010 C   0  0  2  0  0  3  0  0  0  0  0  0
  190.5700  175.3540  142.9610 F   0  0  0  0  0  0  0  0  0  0  0  0
  184.4550  178.9800  145.5430 O   0  0  0  0  0  0  0  0  0  0  0  0
  189.4350  177.8760  148.0220 C   0  0  0  0  0  1  0  0  0  0  0  0
  186.3940  178.8440  141.3930 C   0  0  0  0  0  2  0  0  0  0  0  0
  185.1560  178.0290  143.4040 C   0  0  2  0  0  3  0  0  0  0  0  0
  188.5340  176.4700  143.4950 C   0  0  0  0  0  3  0  0  0  0  0  0
  187.1450  178.8700  148.0660 C   0  0  0  0  0  3  0  0  0  0  0  0
  187.5240  177.9610  141.8620 C   0  0  0  0  0  0  0  0  0  0  0  0
  188.5700  177.6830  140.9760 C   0  0  0  0  0  3  0  0  0  0  0  0
  184.0190  178.2360  144.4120 C   0  0  0  0  0  2  0  0  0  0  0  0
  185.6790  178.7070  146.1460 C   0  0  0  0  0  0  0  0  0  0  0  0
  185.9210  179.1420  147.4520 C   0  0  0  0  0  3  0  0  0  0  0  0
  183.6100  177.6030  141.0010 O   0  0  0  0  0  0  0  0  0  0  0  0
  183.2980  178.8140  141.1650 C   0  0  0  0  0  0  0  0  0  0  0  0
  184.1590  179.6880  141.8970 N   0  0  0  0  0  2  0  0  0  0  0  0
  179.7530  177.5030  140.9110 C   0  0  1  0  0  3  0  0  0  0  0  0
  180.9540  179.5760  141.6640 C   0  0  0  0  0  2  0  0  0  0  0  0
  182.4670  178.2810  138.4690 O   0  0  0  0  0  1  0  0  0  0  0  0
  179.1980  176.3000  141.3380 O   0  0  0  0  0  1  0  0  0  0  0  0
  180.3290  178.2520  142.1090 C   0  0  0  0  0  2  0  0  0  0  0  0
  181.4720  178.5340  139.4140 C   0  0  2  0  0  3  0  0  0  0  0  0
  182.0250  179.3600  140.5880 C   0  0  2  0  0  3  0  0  0  0  0  0
  180.8500  177.2220  139.8880 C   0  0  0  0  0  2  0  0  0  0  0  0
  1  9  1  0  0  0  0
  1 14  1  0  0  0  0
  2  3  1  0  0  0  0
  3  7  2  0  0  0  0
  3 19  1  0  0  0  0
  4 11  1  0  0  0  0
  4 15  2  0  0  0  0
  5 14  2  0  0  0  0
  5  2  1  0  0  0  0
  6  1  2  0  0  0  0
  7  4  1  0  0  0  0
  8 23  1  6  0  0  0
  8 13  1  0  0  0  0
 10 19  1  0  0  0  0
 12 16  1  0  0  0  0
 12  8  1  0  0  0  0
 13  2  1  0  0  0  0
 13 18  1  1  0  0  0
 16  5  1  0  0  0  0
 17  6  1  0  0  0  0
 17 16  2  0  0  0  0
 18 10  1  0  0  0  0
 19 20  2  0  0  0  0
 20 15  1  0  0  0  0
 21 22  2  0  0  0  0
 22 23  1  0  0  0  0
 24 27  1  1  0  0  0
 24 28  1  0  0  0  0
 25 28  1  0  0  0  0
 29 26  1  6  0  0  0
 29 31  1  0  0  0  0
 29 30  1  0  0  0  0
 30 22  1  1  0  0  0
 30 25  1  0  0  0  0
 31 24  1  0  0  0  0
M  END
>  <MODEL>
4

>  <REMARK>
 VINA RESULT:      -9.4      1.343      1.599
  Name = 
  2 active torsions:
  status: ('A' for Active; 'I' for Inactive)
    1  A    between atoms: C_5  and  C_30
    2  A    between atoms: C_10  and  N_16
                            x       y       z     vdW  Elec       q    Type
                         _______ _______ _______ _____ _____    ______ ____

>  <TORSDO>
F 2

$$$$
=
 OpenBabel11122411193D

 31 35  0  0  1  0  0  0  0  0999 V2000
  186.1600  178.2620  138.7910 C   0  0  0  0  0  0  0  0  0  0  0  0
  189.6030  177.6670  140.1750 N   0  0  0  0  0  0  0  0  0  0  0  0
  189.4880  177.3740  141.5910 C   0  0  0  0  0  0  0  0  0  0  0  0
  188.1610  177.0550  143.6080 C   0  0  0  0  0  0  0  0  0  0  0  0
  188.4540  177.6440  139.3020 C   0  0  0  0  0  0  0  0  0  0  0  0
  186.2360  177.5660  137.5830 C   0  0  0  0  0  3  0  0  0  0  0  0
  188.2520  177.4090  142.2590 C   0  0  0  0  0  3  0  0  0  0  0  0
  190.8990  176.2270  138.6970 C   0  0  2  0  0  3  0  0  0  0  0  0
  185.0140  178.8980  139.1340 F   0  0  0  0  0  0  0  0  0  0  0  0
  191.8660  176.9290  141.6620 O   0  0  0  0  0  0  0  0  0  0  0  0
  186.8470  177.1020  144.3000 C   0  0  0  0  0  1  0  0  0  0  0  0
  189.8120  176.3010  137.6140 C   0  0  0  0  0  2  0  0  0  0  0  0
  190.9010  177.5270  139.4990 C   0  0  2  0  0  3  0  0  0  0  0  0
  187.2640  178.3050  139.6450 C   0  0  0  0  0  3  0  0  0  0  0  0
  189.3020  176.6450  144.3010 C   0  0  0  0  0  3  0  0  0  0  0  0
  188.5290  176.9470  138.0740 C   0  0  0  0  0  0  0  0  0  0  0  0
  187.4190  176.9160  137.2240 C   0  0  0  0  0  3  0  0  0  0  0  0
  192.0870  177.6570  140.4610 C   0  0  0  0  0  2  0  0  0  0  0  0
  190.6320  176.9730  142.3040 C   0  0  0  0  0  0  0  0  0  0  0  0
  190.5360  176.6010  143.6480 C   0  0  0  0  0  3  0  0  0  0  0  0
  191.8410  173.7410  137.6600 O   0  0  0  0  0  0  0  0  0  0  0  0
  192.6010  174.7420  137.5570 C   0  0  0  0  0  0  0  0  0  0  0  0
  192.1940  176.0130  138.0660 N   0  0  0  0  0  2  0  0  0  0  0  0
  195.1860  171.9790  137.3880 C   0  0  1  0  0  3  0  0  0  0  0  0
  193.9650  173.5230  135.8300 C   0  0  0  0  0  2  0  0  0  0  0  0
  195.0440  175.3770  138.9240 O   0  0  0  0  0  1  0  0  0  0  0  0
  195.1880  170.7020  137.9440 O   0  0  0  0  0  1  0  0  0  0  0  0
  193.9940  172.1240  136.4480 C   0  0  0  0  0  2  0  0  0  0  0  0
  195.1020  174.4240  137.9070 C   0  0  2  0  0  3  0  0  0  0  0  0
  193.9490  174.6150  136.9070 C   0  0  2  0  0  3  0  0  0  0  0  0
  195.1100  173.0180  138.5020 C   0  0  0  0  0  2  0  0  0  0  0  0
  1  9  1  0  0  0  0
  1 14  1  0  0  0  0
  2  3  1  0  0  0  0
  3  7  2  0  0  0  0
  3 19  1  0  0  0  0
  4 11  1  0  0  0  0
  4 15  2  0  0  0  0
  5 14  2  0  0  0  0
  5  2  1  0  0  0  0
  6  1  2  0  0  0  0
  7  4  1  0  0  0  0
  8 23  1  6  0  0  0
  8 13  1  0  0  0  0
 10 19  1  0  0  0  0
 12 16  1  0  0  0  0
 12  8  1  0  0  0  0
 13  2  1  0  0  0  0
 13 18  1  1  0  0  0
 16  5  1  0  0  0  0
 17  6  1  0  0  0  0
 17 16  2  0  0  0  0
 18 10  1  0  0  0  0
 19 20  2  0  0  0  0
 20 15  1  0  0  0  0
 22 21  2  0  0  0  0
 22 23  1  0  0  0  0
 24 27  1  1  0  0  0
 24 31  1  0  0  0  0
 25 28  1  0  0  0  0
 25 30  1  0  0  0  0
 28 24  1  0  0  0  0
 29 31  1  0  0  0  0
 29 26  1  1  0  0  0
 30 22  1  1  0  0  0
 30 29  1  0  0  0  0
M  END
>  <MODEL>
5

>  <REMARK>
 VINA RESULT:      -9.1      5.345      8.640
  Name = 
  2 active torsions:
  status: ('A' for Active; 'I' for Inactive)
    1  A    between atoms: C_5  and  C_30
    2  A    between atoms: C_10  and  N_16
                            x       y       z     vdW  Elec       q    Type
                         _______ _______ _______ _____ _____    ______ ____

>  <TORSDO>
F 2

$$$$
=
 OpenBabel11122411193D

 31 35  0  0  1  0  0  0  0  0999 V2000
  184.9360  178.8100  139.3870 C   0  0  0  0  0  0  0  0  0  0  0  0
  188.5580  177.9010  139.7970 N   0  0  0  0  0  0  0  0  0  0  0  0
  188.7760  177.4690  141.1650 C   0  0  0  0  0  0  0  0  0  0  0  0
  187.9670  177.0110  143.4160 C   0  0  0  0  0  0  0  0  0  0  0  0
  187.2310  178.0270  139.2450 C   0  0  0  0  0  0  0  0  0  0  0  0
  184.6590  178.2400  138.1430 C   0  0  0  0  0  3  0  0  0  0  0  0
  187.7490  177.4980  142.1240 C   0  0  0  0  0  3  0  0  0  0  0  0
  189.3380  176.5580  137.9190 C   0  0  2  0  0  3  0  0  0  0  0  0
  183.9610  179.4640  140.0630 F   0  0  0  0  0  0  0  0  0  0  0  0
  191.0570  176.9000  140.5930 O   0  0  0  0  0  0  0  0  0  0  0  0
  186.8720  177.0520  144.4190 C   0  0  0  0  0  1  0  0  0  0  0  0
  188.0260  176.7990  137.1570 C   0  0  0  0  0  2  0  0  0  0  0  0
  189.6350  177.7670  138.8050 C   0  0  2  0  0  3  0  0  0  0  0  0
  186.2160  178.7090  139.9350 C   0  0  0  0  0  3  0  0  0  0  0  0
  189.2100  176.4740  143.7590 C   0  0  0  0  0  3  0  0  0  0  0  0
  186.9490  177.4580  137.9820 C   0  0  0  0  0  0  0  0  0  0  0  0
  185.6640  177.5710  137.4410 C   0  0  0  0  0  3  0  0  0  0  0  0
  191.0290  177.7370  139.4430 C   0  0  0  0  0  2  0  0  0  0  0  0
  190.0270  176.9390  141.5280 C   0  0  0  0  0  0  0  0  0  0  0  0
  190.2380  176.4350  142.8140 C   0  0  0  0  0  3  0  0  0  0  0  0
  191.3030  174.4960  138.0800 O   0  0  0  0  0  0  0  0  0  0  0  0
  191.3650  175.2850  137.0980 C   0  0  0  0  0  0  0  0  0  0  0  0
  190.4180  176.3460  136.9640 N   0  0  0  0  0  2  0  0  0  0  0  0
  194.4300  173.0810  136.7930 C   0  0  1  0  0  3  0  0  0  0  0  0
  192.4260  173.7330  135.4270 C   0  0  0  0  0  2  0  0  0  0  0  0
  193.8360  176.7430  137.1960 O   0  0  0  0  0  1  0  0  0  0  0  0
  194.9440  172.1170  137.6570 O   0  0  0  0  0  1  0  0  0  0  0  0
  193.0180  172.6850  136.3720 C   0  0  0  0  0  2  0  0  0  0  0  0
  193.8430  175.5010  136.5610 C   0  0  2  0  0  3  0  0  0  0  0  0
  192.4370  175.1310  136.0590 C   0  0  2  0  0  3  0  0  0  0  0  0
  194.4100  174.4350  137.4950 C   0  0  0  0  0  2  0  0  0  0  0  0
  1 14  1  0  0  0  0
  1  9  1  0  0  0  0
  2  3  1  0  0  0  0
  3 19  2  0  0  0  0
  3  7  1  0  0  0  0
  4 15  1  0  0  0  0
  4 11  1  0  0  0  0
  5  2  1  0  0  0  0
  5 14  2  0  0  0  0
  6  1  2  0  0  0  0
  7  4  2  0  0  0  0
  8 23  1  6  0  0  0
  8 13  1  0  0  0  0
 10 19  1  0  0  0  0
 12  8  1  0  0  0  0
 12 16  1  0  0  0  0
 13 18  1  1  0  0  0
 13  2  1  0  0  0  0
 16  5  1  0  0  0  0
 17 16  2  0  0  0  0
 17  6  1  0  0  0  0
 18 10  1  0  0  0  0
 19 20  1  0  0  0  0
 20 15  2  0  0  0  0
 22 21  2  0  0  0  0
 23 22  1  0  0  0  0
 24 31  1  0  0  0  0
 24 27  1  1  0  0  0
 25 30  1  0  0  0  0
 25 28  1  0  0  0  0
 28 24  1  0  0  0  0
 29 26  1  1  0  0  0
 29 31  1  0  0  0  0
 30 29  1  0  0  0  0
 30 22  1  1  0  0  0
M  END
>  <MODEL>
6

>  <REMARK>
 VINA RESULT:      -8.9      4.965      8.131
  Name = 
  2 active torsions:
  status: ('A' for Active; 'I' for Inactive)
    1  A    between atoms: C_5  and  C_30
    2  A    between atoms: C_10  and  N_16
                            x       y       z     vdW  Elec       q    Type
                         _______ _______ _______ _____ _____    ______ ____

>  <TORSDO>
F 2

$$$$
=
 OpenBabel11122411193D

 31 35  0  0  1  0  0  0  0  0999 V2000
  189.4760  177.8940  143.9630 C   0  0  0  0  0  0  0  0  0  0  0  0
  187.0620  178.5720  141.1640 N   0  0  0  0  0  0  0  0  0  0  0  0
  187.6060  178.0170  139.9390 C   0  0  0  0  0  0  0  0  0  0  0  0
  189.3440  176.8260  138.7190 C   0  0  0  0  0  0  0  0  0  0  0  0
  187.5970  178.2200  142.4570 C   0  0  0  0  0  0  0  0  0  0  0  0
  188.6000  177.5160  144.9830 C   0  0  0  0  0  3  0  0  0  0  0  0
  188.8740  177.4130  139.8970 C   0  0  0  0  0  3  0  0  0  0  0  0
  184.7740  178.0910  141.8510 C   0  0  2  0  0  3  0  0  0  0  0  0
  190.8110  177.9190  144.1930 F   0  0  0  0  0  0  0  0  0  0  0  0
  185.5570  178.6090  138.7960 O   0  0  0  0  0  0  0  0  0  0  0  0
  190.6890  176.1950  138.6900 C   0  0  0  0  0  1  0  0  0  0  0  0
  185.2170  177.8870  143.3080 C   0  0  0  0  0  2  0  0  0  0  0  0
  185.6940  179.1110  141.1830 C   0  0  2  0  0  3  0  0  0  0  0  0
  188.9780  178.2490  142.7080 C   0  0  0  0  0  3  0  0  0  0  0  0
  188.5440  176.8200  137.5740 C   0  0  0  0  0  3  0  0  0  0  0  0
  186.7130  177.8440  143.4950 C   0  0  0  0  0  0  0  0  0  0  0  0
  187.2230  177.4960  144.7500 C   0  0  0  0  0  3  0  0  0  0  0  0
  185.2150  179.5590  139.7970 C   0  0  0  0  0  2  0  0  0  0  0  0
  186.8170  178.0170  138.7750 C   0  0  0  0  0  0  0  0  0  0  0  0
  187.2800  177.4130  137.6040 C   0  0  0  0  0  3  0  0  0  0  0  0
  182.7150  177.0650  140.1630 O   0  0  0  0  0  0  0  0  0  0  0  0
  182.4070  177.9900  140.9630 C   0  0  0  0  0  0  0  0  0  0  0  0
  183.3930  178.5550  141.8280 N   0  0  0  0  0  2  0  0  0  0  0  0
  179.1910  177.0910  139.1750 C   0  0  1  0  0  3  0  0  0  0  0  0
  180.0110  177.4640  141.5180 C   0  0  0  0  0  2  0  0  0  0  0  0
  181.4640  180.0510  139.2020 O   0  0  0  0  0  1  0  0  0  0  0  0
  178.9310  176.1220  138.2090 O   0  0  0  0  0  1  0  0  0  0  0  0
  179.7080  176.4190  140.4430 C   0  0  0  0  0  2  0  0  0  0  0  0
  180.5260  179.1410  139.6920 C   0  0  2  0  0  3  0  0  0  0  0  0
  181.0030  178.5190  141.0160 C   0  0  2  0  0  3  0  0  0  0  0  0
  180.2260  178.0760  138.6400 C   0  0  0  0  0  2  0  0  0  0  0  0
  1  9  1  0  0  0  0
  1  6  1  0  0  0  0
  2 13  1  0  0  0  0
  2  5  1  0  0  0  0
  3  2  1  0  0  0  0
  4  7  2  0  0  0  0
  5 14  1  0  0  0  0
  5 16  2  0  0  0  0
  7  3  1  0  0  0  0
  8 23  1  1  0  0  0
  8 12  1  0  0  0  0
 10 18  1  0  0  0  0
 11  4  1  0  0  0  0
 12 16  1  0  0  0  0
 13 18  1  6  0  0  0
 13  8  1  0  0  0  0
 14  1  2  0  0  0  0
 15 20  2  0  0  0  0
 15  4  1  0  0  0  0
 16 17  1  0  0  0  0
 17  6  2  0  0  0  0
 19 10  1  0  0  0  0
 19  3  2  0  0  0  0
 20 19  1  0  0  0  0
 21 22  2  0  0  0  0
 22 23  1  0  0  0  0
 24 27  1  6  0  0  0
 24 28  1  0  0  0  0
 28 25  1  0  0  0  0
 29 26  1  6  0  0  0
 29 30  1  0  0  0  0
 30 22  1  6  0  0  0
 30 25  1  0  0  0  0
 31 24  1  0  0  0  0
 31 29  1  0  0  0  0
M  END
>  <MODEL>
7

>  <REMARK>
 VINA RESULT:      -8.6      2.151      4.771
  Name = 
  2 active torsions:
  status: ('A' for Active; 'I' for Inactive)
    1  A    between atoms: C_5  and  C_30
    2  A    between atoms: C_10  and  N_16
                            x       y       z     vdW  Elec       q    Type
                         _______ _______ _______ _____ _____    ______ ____

>  <TORSDO>
F 2

$$$$
=
 OpenBabel11122411193D

 31 35  0  0  1  0  0  0  0  0999 V2000
  184.4920  178.9070  144.8330 C   0  0  0  0  0  0  0  0  0  0  0  0
  188.1410  178.3910  144.1020 N   0  0  0  0  0  0  0  0  0  0  0  0
  188.7790  177.8480  145.2870 C   0  0  0  0  0  0  0  0  0  0  0  0
  188.6940  177.0660  147.5910 C   0  0  0  0  0  0  0  0  0  0  0  0
  186.7060  178.4170  143.9600 C   0  0  0  0  0  0  0  0  0  0  0  0
  183.9160  178.4410  143.6490 C   0  0  0  0  0  3  0  0  0  0  0  0
  188.0730  177.6560  146.4870 C   0  0  0  0  0  3  0  0  0  0  0  0
  188.4550  177.3520  141.9210 C   0  0  2  0  0  3  0  0  0  0  0  0
  183.7030  179.3680  145.8330 F   0  0  0  0  0  0  0  0  0  0  0  0
  190.8370  177.6120  144.0360 O   0  0  0  0  0  0  0  0  0  0  0  0
  187.9350  176.8740  148.8540 C   0  0  0  0  0  1  0  0  0  0  0  0
  186.9640  177.5150  141.5900 C   0  0  0  0  0  2  0  0  0  0  0  0
  188.8930  178.4880  142.8430 C   0  0  2  0  0  3  0  0  0  0  0  0
  185.8790  178.9000  144.9870 C   0  0  0  0  0  3  0  0  0  0  0  0
  190.0230  176.6460  147.5030 C   0  0  0  0  0  3  0  0  0  0  0  0
  186.1190  177.9540  142.7600 C   0  0  0  0  0  0  0  0  0  0  0  0
  184.7280  177.9720  142.6140 C   0  0  0  0  0  3  0  0  0  0  0  0
  190.4090  178.5550  143.0610 C   0  0  0  0  0  2  0  0  0  0  0  0
  190.1200  177.4330  145.2160 C   0  0  0  0  0  0  0  0  0  0  0  0
  190.7340  176.8260  146.3150 C   0  0  0  0  0  3  0  0  0  0  0  0
  187.6600  178.6250  139.4940 O   0  0  0  0  0  0  0  0  0  0  0  0
  188.7750  178.0350  139.5060 C   0  0  0  0  0  0  0  0  0  0  0  0
  189.2270  177.3680  140.6850 N   0  0  0  0  0  2  0  0  0  0  0  0
  188.2840  176.7950  135.9610 C   0  0  1  0  0  3  0  0  0  0  0  0
  189.0560  178.8680  137.1490 C   0  0  0  0  0  2  0  0  0  0  0  0
  190.4500  175.8030  138.8330 O   0  0  0  0  0  1  0  0  0  0  0  0
  187.1900  176.1780  135.3580 O   0  0  0  0  0  1  0  0  0  0  0  0
  187.8720  178.1710  136.4740 C   0  0  0  0  0  2  0  0  0  0  0  0
  189.9810  176.5980  137.7860 C   0  0  2  0  0  3  0  0  0  0  0  0
  189.6420  178.0140  138.2800 C   0  0  2  0  0  3  0  0  0  0  0  0
  188.7850  175.9300  137.1130 C   0  0  0  0  0  2  0  0  0  0  0  0
  1 14  1  0  0  0  0
  1  9  1  0  0  0  0
  2  3  1  0  0  0  0
  3  7  1  0  0  0  0
  4 11  1  0  0  0  0
  5  2  1  0  0  0  0
  5 14  2  0  0  0  0
  6  1  2  0  0  0  0
  7  4  2  0  0  0  0
  8 23  1  6  0  0  0
  8 13  1  0  0  0  0
 10 19  1  0  0  0  0
 12  8  1  0  0  0  0
 12 16  1  0  0  0  0
 13 18  1  1  0  0  0
 13  2  1  0  0  0  0
 15  4  1  0  0  0  0
 16  5  1  0  0  0  0
 17 16  2  0  0  0  0
 17  6  1  0  0  0  0
 18 10  1  0  0  0  0
 19  3  2  0  0  0  0
 19 20  1  0  0  0  0
 20 15  2  0  0  0  0
 21 22  2  0  0  0  0
 22 23  1  0  0  0  0
 24 27  1  1  0  0  0
 24 28  1  0  0  0  0
 24 31  1  0  0  0  0
 25 30  1  0  0  0  0
 28 25  1  0  0  0  0
 29 30  1  0  0  0  0
 29 26  1  1  0  0  0
 30 22  1  1  0  0  0
 31 29  1  0  0  0  0
M  END
>  <MODEL>
8

>  <REMARK>
 VINA RESULT:      -8.6      3.498      5.291
  Name = 
  2 active torsions:
  status: ('A' for Active; 'I' for Inactive)
    1  A    between atoms: C_5  and  C_30
    2  A    between atoms: C_10  and  N_16
                            x       y       z     vdW  Elec       q    Type
                         _______ _______ _______ _____ _____    ______ ____

>  <TORSDO>
F 2

$$$$
=
 OpenBabel11122411193D

 31 35  0  0  1  0  0  0  0  0999 V2000
  188.9080  178.0220  143.7820 C   0  0  0  0  0  0  0  0  0  0  0  0
  186.6600  178.6280  140.8330 N   0  0  0  0  0  0  0  0  0  0  0  0
  187.2890  178.0760  139.6480 C   0  0  0  0  0  0  0  0  0  0  0  0
  189.1240  176.9110  138.5500 C   0  0  0  0  0  0  0  0  0  0  0  0
  187.1200  178.2970  142.1590 C   0  0  0  0  0  0  0  0  0  0  0  0
  187.9780  177.6330  144.7480 C   0  0  0  0  0  3  0  0  0  0  0  0
  188.5690  177.4970  139.6900 C   0  0  0  0  0  3  0  0  0  0  0  0
  184.3430  178.1060  141.3810 C   0  0  2  0  0  3  0  0  0  0  0  0
  190.2250  178.0750  144.0940 F   0  0  0  0  0  0  0  0  0  0  0  0
  185.3040  178.6160  138.3750 O   0  0  0  0  0  0  0  0  0  0  0  0
  190.4800  176.3070  138.6100 C   0  0  0  0  0  1  0  0  0  0  0  0
  184.6990  177.9230  142.8640 C   0  0  0  0  0  2  0  0  0  0  0  0
  185.2830  179.1400  140.7620 C   0  0  2  0  0  3  0  0  0  0  0  0
  188.4820  178.3560  142.4950 C   0  0  0  0  0  3  0  0  0  0  0  0
  188.3960  176.8800  137.3570 C   0  0  0  0  0  3  0  0  0  0  0  0
  186.1810  177.9110  143.1440 C   0  0  0  0  0  0  0  0  0  0  0  0
  186.6190  177.5840  144.4310 C   0  0  0  0  0  3  0  0  0  0  0  0
  184.8820  179.5670  139.3450 C   0  0  0  0  0  2  0  0  0  0  0  0
  186.5740  178.0510  138.4380 C   0  0  0  0  0  0  0  0  0  0  0  0
  187.1220  177.4460  137.3030 C   0  0  0  0  0  3  0  0  0  0  0  0
  182.3520  176.8730  139.7500 O   0  0  0  0  0  0  0  0  0  0  0  0
  182.0070  177.8720  140.4390 C   0  0  0  0  0  0  0  0  0  0  0  0
  182.9580  178.5420  141.2680 N   0  0  0  0  0  2  0  0  0  0  0  0
  179.4810  178.8540  143.0860 C   0  0  1  0  0  3  0  0  0  0  0  0
  180.4740  179.7920  140.9790 C   0  0  0  0  0  2  0  0  0  0  0  0
  179.7300  176.1270  140.5490 O   0  0  0  0  0  1  0  0  0  0  0  0
  179.5740  178.8480  144.4750 O   0  0  0  0  0  1  0  0  0  0  0  0
  180.5500  179.7750  142.5070 C   0  0  0  0  0  2  0  0  0  0  0  0
  179.5730  177.4260  141.0340 C   0  0  2  0  0  3  0  0  0  0  0  0
  180.5950  178.3800  140.3930 C   0  0  2  0  0  3  0  0  0  0  0  0
  179.6670  177.4340  142.5580 C   0  0  0  0  0  2  0  0  0  0  0  0
  1  9  1  0  0  0  0
  1  6  1  0  0  0  0
  2  5  1  0  0  0  0
  3  7  1  0  0  0  0
  3  2  1  0  0  0  0
  4 11  1  0  0  0  0
  4  7  2  0  0  0  0
  5 14  1  0  0  0  0
  5 16  2  0  0  0  0
  8 23  1  1  0  0  0
  8 12  1  0  0  0  0
 10 19  1  0  0  0  0
 10 18  1  0  0  0  0
 12 16  1  0  0  0  0
 13 18  1  6  0  0  0
 13  2  1  0  0  0  0
 13  8  1  0  0  0  0
 14  1  2  0  0  0  0
 15  4  1  0  0  0  0
 16 17  1  0  0  0  0
 17  6  2  0  0  0  0
 19  3  2  0  0  0  0
 20 15  2  0  0  0  0
 20 19  1  0  0  0  0
 21 22  2  0  0  0  0
 22 23  1  0  0  0  0
 24 27  1  1  0  0  0
 25 28  1  0  0  0  0
 28 24  1  0  0  0  0
 29 26  1  6  0  0  0
 29 31  1  0  0  0  0
 30 22  1  1  0  0  0
 30 25  1  0  0  0  0
 30 29  1  0  0  0  0
 31 24  1  0  0  0  0
M  END
>  <MODEL>
9

>  <REMARK>
 VINA RESULT:      -8.6      2.258      5.114
  Name = 
  2 active torsions:
  status: ('A' for Active; 'I' for Inactive)
    1  A    between atoms: C_5  and  C_30
    2  A    between atoms: C_10  and  N_16
                            x       y       z     vdW  Elec       q    Type
                         _______ _______ _______ _____ _____    ______ ____

>  <TORSDO>
F 2

$$$$
