=
 OpenBabel11122411543D

 28 32  0  0  1  0  0  0  0  0999 V2000
  181.3560  178.7180  137.8240 C   0  0  0  0  0  0  0  0  0  0  0  0
  181.9030  173.7730  137.6350 O   0  0  0  0  0  0  0  0  0  0  0  0
  186.9860  178.6950  137.4020 O   0  0  0  0  0  0  0  0  0  0  0  0
  181.1410  179.6940  135.2050 C   0  0  0  0  0  3  0  0  0  0  0  0
  186.0670  177.0650  135.8380 C   0  0  1  0  0  3  0  0  0  0  0  0
  181.5320  178.2690  139.2430 C   0  0  0  0  0  2  0  0  0  0  0  0
  180.2230  174.2790  135.9130 O   0  0  0  0  0  0  0  0  0  0  0  0
  181.6920  174.1620  136.1990 S   0  0  0  0  0  0  0  0  0  0  0  0
  184.1800  173.1350  135.6110 C   0  0  0  0  0  0  0  0  0  0  0  0
  182.5070  175.7000  135.8120 C   0  0  2  0  0  3  0  0  0  0  0  0
  184.1240  180.5210  139.0340 O   0  0  0  0  0  0  0  0  0  0  0  0
  184.1190  176.7910  137.1470 C   0  0  1  0  0  3  0  0  0  0  0  0
  184.6300  174.3420  135.6870 N   0  0  0  0  0  0  0  0  0  0  0  0
  182.5600  172.7590  134.9290 S   0  0  0  0  0  0  0  0  0  0  0  0
  183.7750  179.4040  139.3820 C   0  0  0  0  0  0  0  0  0  0  0  0
  181.9140  177.9830  136.7580 C   0  0  0  0  0  0  0  0  0  0  0  0
  186.0120  177.9910  137.0220 C   0  0  0  0  0  0  0  0  0  0  0  0
  184.9610  172.0340  136.2400 C   0  0  0  0  0  1  0  0  0  0  0  0
  184.6820  178.2400  139.1560 C   0  0  0  0  0  2  0  0  0  0  0  0
  181.8110  178.4940  135.4520 C   0  0  0  0  0  3  0  0  0  0  0  0
  180.6780  179.9180  137.5660 C   0  0  0  0  0  3  0  0  0  0  0  0
  180.5680  180.4020  136.2630 C   0  0  0  0  0  3  0  0  0  0  0  0
  182.4360  179.2180  140.0300 C   0  0  0  0  0  2  0  0  0  0  0  0
  184.5900  176.7570  135.7390 C   0  0  2  0  0  3  0  0  0  0  0  0
  184.7710  177.9390  137.7340 N   0  0  0  0  0  0  0  0  0  0  0  0
  183.9310  175.5180  135.1900 C   0  0  2  0  0  3  0  0  0  0  0  0
  186.5100  177.8120  134.5940 C   0  0  0  0  0  1  0  0  0  0  0  0
  182.6160  176.6650  137.0210 C   0  0  1  0  0  3  0  0  0  0  0  0
  1  6  1  0  0  0  0
  4 20  2  0  0  0  0
  4 22  1  0  0  0  0
  5 27  1  6  0  0  0
  5 17  1  0  0  0  0
  6 23  1  0  0  0  0
  7  8  2  0  0  0  0
  8  2  2  0  0  0  0
  9 13  2  0  0  0  0
  9 18  1  0  0  0  0
 10  8  1  1  0  0  0
 10 28  1  0  0  0  0
 11 15  2  0  0  0  0
 12 25  1  6  0  0  0
 14  9  1  0  0  0  0
 14  8  1  0  0  0  0
 15 23  1  0  0  0  0
 16 28  1  0  0  0  0
 16  1  2  0  0  0  0
 17  3  2  0  0  0  0
 17 25  1  0  0  0  0
 19 15  1  0  0  0  0
 20 16  1  0  0  0  0
 21  1  1  0  0  0  0
 22 21  2  0  0  0  0
 24  5  1  0  0  0  0
 24 12  1  0  0  0  0
 25 19  1  0  0  0  0
 26 13  1  0  0  0  0
 26 24  1  0  0  0  0
 26 10  1  0  0  0  0
 28 12  1  0  0  0  0
M  END
>  <MODEL>
1

>  <REMARK>
 VINA RESULT:      -5.6      0.000      0.000
  Name = 
  0 active torsions:
  status: ('A' for Active; 'I' for Inactive)
                            x       y       z     vdW  Elec       q    Type
                         _______ _______ _______ _____ _____    ______ ____

>  <TORSDO>
F 0

$$$$
=
 OpenBabel11122411543D

 28 32  0  0  1  0  0  0  0  0999 V2000
  185.8960  175.1820  136.1710 C   0  0  0  0  0  0  0  0  0  0  0  0
  182.3070  178.2510  134.5940 O   0  0  0  0  0  0  0  0  0  0  0  0
  186.4180  178.9860  140.3100 O   0  0  0  0  0  0  0  0  0  0  0  0
  184.7760  173.3460  137.9680 C   0  0  0  0  0  3  0  0  0  0  0  0
  184.0480  178.5680  139.9110 C   0  0  1  0  0  3  0  0  0  0  0  0
  186.5680  176.1740  135.2720 C   0  0  0  0  0  2  0  0  0  0  0  0
  181.2470  176.0330  134.6530 O   0  0  0  0  0  0  0  0  0  0  0  0
  181.5740  177.2590  135.4540 S   0  0  0  0  0  0  0  0  0  0  0  0
  180.8020  179.3340  137.0950 C   0  0  0  0  0  0  0  0  0  0  0  0
  182.5310  176.8070  136.8900 C   0  0  2  0  0  3  0  0  0  0  0  0
  188.4190  176.6550  138.1320 O   0  0  0  0  0  0  0  0  0  0  0  0
  184.4590  177.9150  137.6770 C   0  0  1  0  0  3  0  0  0  0  0  0
  181.7840  179.0100  137.8660 N   0  0  0  0  0  0  0  0  0  0  0  0
  179.8300  178.1040  136.2160 S   0  0  0  0  0  0  0  0  0  0  0  0
  187.8050  177.1840  137.2180 C   0  0  0  0  0  0  0  0  0  0  0  0
  184.7240  175.5230  136.8770 C   0  0  0  0  0  0  0  0  0  0  0  0
  185.5120  178.5270  139.5650 C   0  0  0  0  0  0  0  0  0  0  0  0
  180.5570  180.7740  136.8060 C   0  0  0  0  0  1  0  0  0  0  0  0
  186.9510  178.3760  137.4930 C   0  0  0  0  0  2  0  0  0  0  0  0
  184.1830  174.5970  137.7860 C   0  0  0  0  0  3  0  0  0  0  0  0
  186.4800  173.9210  136.3540 C   0  0  0  0  0  3  0  0  0  0  0  0
  185.9210  173.0050  137.2460 C   0  0  0  0  0  3  0  0  0  0  0  0
  187.9180  176.6250  135.8320 C   0  0  0  0  0  2  0  0  0  0  0  0
  183.5440  177.6550  138.8170 C   0  0  2  0  0  3  0  0  0  0  0  0
  185.7780  177.9890  138.2640 N   0  0  0  0  0  0  0  0  0  0  0  0
  182.1850  177.6430  138.1660 C   0  0  2  0  0  3  0  0  0  0  0  0
  183.7990  177.9220  141.2610 C   0  0  0  0  0  1  0  0  0  0  0  0
  184.0630  176.8700  136.6570 C   0  0  1  0  0  3  0  0  0  0  0  0
  1 21  2  0  0  0  0
  1 16  1  0  0  0  0
  2  8  2  0  0  0  0
  5 27  1  1  0  0  0
  6 23  1  0  0  0  0
  6  1  1  0  0  0  0
  7  8  2  0  0  0  0
  8 14  1  0  0  0  0
  9 13  2  0  0  0  0
 10  8  1  6  0  0  0
 10 26  1  0  0  0  0
 12 25  1  1  0  0  0
 12 24  1  0  0  0  0
 13 26  1  0  0  0  0
 14  9  1  0  0  0  0
 15 19  1  0  0  0  0
 15 11  2  0  0  0  0
 16 20  2  0  0  0  0
 17  5  1  0  0  0  0
 17  3  2  0  0  0  0
 18  9  1  0  0  0  0
 19 25  1  0  0  0  0
 20  4  1  0  0  0  0
 21 22  1  0  0  0  0
 22  4  2  0  0  0  0
 23 15  1  0  0  0  0
 24  5  1  0  0  0  0
 25 17  1  0  0  0  0
 26 24  1  0  0  0  0
 28 16  1  0  0  0  0
 28 10  1  0  0  0  0
 28 12  1  0  0  0  0
M  END
>  <MODEL>
2

>  <REMARK>
 VINA RESULT:      -5.4      2.172      5.517
  Name = 
  0 active torsions:
  status: ('A' for Active; 'I' for Inactive)
                            x       y       z     vdW  Elec       q    Type
                         _______ _______ _______ _____ _____    ______ ____

>  <TORSDO>
F 0

$$$$
=
 OpenBabel11122411543D

 28 32  0  0  1  0  0  0  0  0999 V2000
  189.2000  178.4080  138.4950 C   0  0  0  0  0  0  0  0  0  0  0  0
  193.2660  176.7490  136.1490 O   0  0  0  0  0  0  0  0  0  0  0  0
  186.6370  174.3380  135.5380 O   0  0  0  0  0  0  0  0  0  0  0  0
  188.8670  176.9340  140.8560 C   0  0  0  0  0  3  0  0  0  0  0  0
  188.7320  173.4680  136.4350 C   0  0  1  0  0  3  0  0  0  0  0  0
  189.2840  179.1850  137.2170 C   0  0  0  0  0  2  0  0  0  0  0  0
  193.8890  176.7780  138.5270 O   0  0  0  0  0  0  0  0  0  0  0  0
  193.2540  175.9690  137.4330 S   0  0  0  0  0  0  0  0  0  0  0  0
  193.0670  173.6480  135.9590 C   0  0  0  0  0  0  0  0  0  0  0  0
  191.5960  175.5110  137.9040 C   0  0  2  0  0  3  0  0  0  0  0  0
  186.1420  177.8320  136.8540 O   0  0  0  0  0  0  0  0  0  0  0  0
  189.6800  175.6300  136.5310 C   0  0  1  0  0  3  0  0  0  0  0  0
  191.7960  173.6840  136.1760 N   0  0  0  0  0  0  0  0  0  0  0  0
  194.2640  174.1630  137.1990 S   0  0  0  0  0  0  0  0  0  0  0  0
  187.2210  178.0490  136.3260 C   0  0  0  0  0  0  0  0  0  0  0  0
  189.7440  177.1110  138.5900 C   0  0  0  0  0  0  0  0  0  0  0  0
  187.7670  174.5570  136.0530 C   0  0  0  0  0  0  0  0  0  0  0  0
  193.5570  173.3110  134.5940 C   0  0  0  0  0  1  0  0  0  0  0  0
  187.8400  177.0100  135.4520 C   0  0  0  0  0  2  0  0  0  0  0  0
  189.5550  176.3780  139.7750 C   0  0  0  0  0  3  0  0  0  0  0  0
  188.5180  178.9620  139.5870 C   0  0  0  0  0  3  0  0  0  0  0  0
  188.3550  178.2300  140.7640 C   0  0  0  0  0  3  0  0  0  0  0  0
  187.9100  179.3580  136.5670 C   0  0  0  0  0  2  0  0  0  0  0  0
  189.7100  174.3140  137.2180 C   0  0  2  0  0  3  0  0  0  0  0  0
  188.2840  175.8770  136.2520 N   0  0  0  0  0  0  0  0  0  0  0  0
  191.1820  174.0760  137.4360 C   0  0  2  0  0  3  0  0  0  0  0  0
  188.0710  172.4700  137.3670 C   0  0  0  0  0  1  0  0  0  0  0  0
  190.5160  176.5180  137.4270 C   0  0  1  0  0  3  0  0  0  0  0  0
  1 16  2  0  0  0  0
  1 21  1  0  0  0  0
  2  8  2  0  0  0  0
  3 17  2  0  0  0  0
  5 24  1  0  0  0  0
  5 27  1  1  0  0  0
  6  1  1  0  0  0  0
  8  7  2  0  0  0  0
  9 13  2  0  0  0  0
  9 14  1  0  0  0  0
 10  8  1  6  0  0  0
 12 25  1  1  0  0  0
 12 24  1  0  0  0  0
 12 28  1  0  0  0  0
 13 26  1  0  0  0  0
 14  8  1  0  0  0  0
 15 23  1  0  0  0  0
 15 11  2  0  0  0  0
 16 20  1  0  0  0  0
 17 25  1  0  0  0  0
 17  5  1  0  0  0  0
 18  9  1  0  0  0  0
 19 25  1  0  0  0  0
 19 15  1  0  0  0  0
 20  4  2  0  0  0  0
 21 22  2  0  0  0  0
 22  4  1  0  0  0  0
 23  6  1  0  0  0  0
 24 26  1  0  0  0  0
 26 10  1  0  0  0  0
 28 10  1  0  0  0  0
 28 16  1  0  0  0  0
M  END
>  <MODEL>
3

>  <REMARK>
 VINA RESULT:      -5.1      5.655      8.146
  Name = 
  0 active torsions:
  status: ('A' for Active; 'I' for Inactive)
                            x       y       z     vdW  Elec       q    Type
                         _______ _______ _______ _____ _____    ______ ____

>  <TORSDO>
F 0

$$$$
=
 OpenBabel11122411543D

 28 32  0  0  1  0  0  0  0  0999 V2000
  181.9480  177.7950  137.4650 C   0  0  0  0  0  0  0  0  0  0  0  0
  186.5710  178.0420  135.6330 O   0  0  0  0  0  0  0  0  0  0  0  0
  181.9700  172.6950  135.0420 O   0  0  0  0  0  0  0  0  0  0  0  0
  182.0560  176.6140  140.0050 C   0  0  0  0  0  3  0  0  0  0  0  0
  184.1010  173.0430  136.1780 C   0  0  1  0  0  3  0  0  0  0  0  0
  181.8150  178.3690  136.0870 C   0  0  0  0  0  2  0  0  0  0  0  0
  186.8110  178.6300  138.0080 O   0  0  0  0  0  0  0  0  0  0  0  0
  186.7670  177.5000  137.0210 S   0  0  0  0  0  0  0  0  0  0  0  0
  187.8700  175.2280  135.9190 C   0  0  0  0  0  0  0  0  0  0  0  0
  185.4720  176.3580  137.4660 C   0  0  2  0  0  3  0  0  0  0  0  0
  179.7420  175.6430  135.7680 O   0  0  0  0  0  0  0  0  0  0  0  0
  183.9080  175.3900  135.9870 C   0  0  1  0  0  3  0  0  0  0  0  0
  186.7140  174.6730  136.0580 N   0  0  0  0  0  0  0  0  0  0  0  0
  188.5240  176.3880  137.1270 S   0  0  0  0  0  0  0  0  0  0  0  0
  180.6500  176.2910  135.2730 C   0  0  0  0  0  0  0  0  0  0  0  0
  183.0190  176.9370  137.7900 C   0  0  0  0  0  0  0  0  0  0  0  0
  182.7930  173.4840  135.5780 C   0  0  0  0  0  0  0  0  0  0  0  0
  188.6240  175.0180  134.6520 C   0  0  0  0  0  1  0  0  0  0  0  0
  181.7840  175.5880  134.6070 C   0  0  0  0  0  2  0  0  0  0  0  0
  183.0500  176.3400  139.0630 C   0  0  0  0  0  3  0  0  0  0  0  0
  180.9580  178.0700  138.4180 C   0  0  0  0  0  3  0  0  0  0  0  0
  181.0130  177.4850  139.6840 C   0  0  0  0  0  3  0  0  0  0  0  0
  180.6120  177.7880  135.3440 C   0  0  0  0  0  2  0  0  0  0  0  0
  184.4650  174.3350  136.8720 C   0  0  2  0  0  3  0  0  0  0  0  0
  182.6040  174.9030  135.5970 N   0  0  0  0  0  0  0  0  0  0  0  0
  185.8380  174.8590  137.2050 C   0  0  2  0  0  3  0  0  0  0  0  0
  183.8740  171.9600  137.2170 C   0  0  0  0  0  1  0  0  0  0  0  0
  184.1150  176.6630  136.7790 C   0  0  1  0  0  3  0  0  0  0  0  0
  1 16  2  0  0  0  0
  1 21  1  0  0  0  0
  2  8  2  0  0  0  0
  3 17  2  0  0  0  0
  5 24  1  0  0  0  0
  5 27  1  1  0  0  0
  6  1  1  0  0  0  0
  8 14  1  0  0  0  0
  8  7  2  0  0  0  0
  9 13  2  0  0  0  0
  9 14  1  0  0  0  0
 10  8  1  6  0  0  0
 12 25  1  1  0  0  0
 12 28  1  0  0  0  0
 12 24  1  0  0  0  0
 13 26  1  0  0  0  0
 15 23  1  0  0  0  0
 15 11  2  0  0  0  0
 16 20  1  0  0  0  0
 17 25  1  0  0  0  0
 17  5  1  0  0  0  0
 18  9  1  0  0  0  0
 19 15  1  0  0  0  0
 19 25  1  0  0  0  0
 20  4  2  0  0  0  0
 21 22  2  0  0  0  0
 22  4  1  0  0  0  0
 23  6  1  0  0  0  0
 24 26  1  0  0  0  0
 26 10  1  0  0  0  0
 28 10  1  0  0  0  0
 28 16  1  0  0  0  0
M  END
>  <MODEL>
4

>  <REMARK>
 VINA RESULT:      -4.5      2.581      5.050
  Name = 
  0 active torsions:
  status: ('A' for Active; 'I' for Inactive)
                            x       y       z     vdW  Elec       q    Type
                         _______ _______ _______ _____ _____    ______ ____

>  <TORSDO>
F 0

$$$$
=
 OpenBabel11122411543D

 28 32  0  0  1  0  0  0  0  0999 V2000
  180.1690  179.0810  142.0340 C   0  0  0  0  0  0  0  0  0  0  0  0
  180.7130  174.6830  139.7650 O   0  0  0  0  0  0  0  0  0  0  0  0
  185.7640  179.3870  141.3380 O   0  0  0  0  0  0  0  0  0  0  0  0
  179.7960  181.0550  140.0790 C   0  0  0  0  0  3  0  0  0  0  0  0
  184.7550  178.5340  139.2880 C   0  0  1  0  0  3  0  0  0  0  0  0
  180.4310  178.0860  143.1230 C   0  0  0  0  0  2  0  0  0  0  0  0
  178.9300  175.8160  138.5060 O   0  0  0  0  0  0  0  0  0  0  0  0
  180.4140  175.6300  138.6370 S   0  0  0  0  0  0  0  0  0  0  0  0
  182.8640  175.0090  137.5400 C   0  0  0  0  0  0  0  0  0  0  0  0
  181.2030  177.2110  138.8850 C   0  0  2  0  0  3  0  0  0  0  0  0
  183.0030  180.2870  143.7350 O   0  0  0  0  0  0  0  0  0  0  0  0
  182.8900  177.6860  140.4650 C   0  0  1  0  0  3  0  0  0  0  0  0
  183.3160  176.0860  138.0890 N   0  0  0  0  0  0  0  0  0  0  0  0
  181.2070  174.9090  136.8510 S   0  0  0  0  0  0  0  0  0  0  0  0
  182.6770  179.1180  143.6030 C   0  0  0  0  0  0  0  0  0  0  0  0
  180.6630  178.8730  140.7300 C   0  0  0  0  0  0  0  0  0  0  0  0
  184.7700  178.8800  140.7520 C   0  0  0  0  0  0  0  0  0  0  0  0
  183.6830  173.7670  137.6070 C   0  0  0  0  0  1  0  0  0  0  0  0
  183.5710  178.1800  142.8630 C   0  0  0  0  0  2  0  0  0  0  0  0
  180.4810  179.8790  139.7650 C   0  0  0  0  0  3  0  0  0  0  0  0
  179.4760  180.2600  142.3390 C   0  0  0  0  0  3  0  0  0  0  0  0
  179.2860  181.2410  141.3650 C   0  0  0  0  0  3  0  0  0  0  0  0
  181.3800  178.6430  144.1850 C   0  0  0  0  0  2  0  0  0  0  0  0
  183.2750  178.2560  139.1490 C   0  0  2  0  0  3  0  0  0  0  0  0
  183.5740  178.5020  141.4430 N   0  0  0  0  0  0  0  0  0  0  0  0
  182.5870  177.3430  138.1680 C   0  0  2  0  0  3  0  0  0  0  0  0
  185.1210  179.7440  138.4480 C   0  0  0  0  0  1  0  0  0  0  0  0
  181.3820  177.5850  140.3790 C   0  0  1  0  0  3  0  0  0  0  0  0
  1 21  1  0  0  0  0
  1  6  1  0  0  0  0
  4 22  1  0  0  0  0
  5 27  1  6  0  0  0
  5 17  1  0  0  0  0
  6 23  1  0  0  0  0
  7  8  2  0  0  0  0
  8  2  2  0  0  0  0
  9 18  1  0  0  0  0
  9 13  2  0  0  0  0
 10  8  1  1  0  0  0
 10 28  1  0  0  0  0
 12 25  1  1  0  0  0
 13 26  1  0  0  0  0
 14  9  1  0  0  0  0
 14  8  1  0  0  0  0
 15 11  2  0  0  0  0
 15 23  1  0  0  0  0
 16  1  2  0  0  0  0
 17  3  2  0  0  0  0
 17 25  1  0  0  0  0
 19 15  1  0  0  0  0
 20  4  2  0  0  0  0
 20 16  1  0  0  0  0
 22 21  2  0  0  0  0
 24  5  1  0  0  0  0
 24 12  1  0  0  0  0
 25 19  1  0  0  0  0
 26 10  1  0  0  0  0
 26 24  1  0  0  0  0
 28 12  1  0  0  0  0
 28 16  1  0  0  0  0
M  END
>  <MODEL>
5

>  <REMARK>
 VINA RESULT:      -4.3      2.789      4.014
  Name = 
  0 active torsions:
  status: ('A' for Active; 'I' for Inactive)
                            x       y       z     vdW  Elec       q    Type
                         _______ _______ _______ _____ _____    ______ ____

>  <TORSDO>
F 0

$$$$
=
 OpenBabel11122411543D

 28 32  0  0  1  0  0  0  0  0999 V2000
  182.7440  177.4290  137.0710 C   0  0  0  0  0  0  0  0  0  0  0  0
  186.5650  174.8850  135.1450 O   0  0  0  0  0  0  0  0  0  0  0  0
  179.7780  172.8990  135.4700 O   0  0  0  0  0  0  0  0  0  0  0  0
  182.4500  176.6990  139.7610 C   0  0  0  0  0  3  0  0  0  0  0  0
  181.8610  172.1600  136.5020 C   0  0  1  0  0  3  0  0  0  0  0  0
  182.8050  177.8120  135.6230 C   0  0  0  0  0  2  0  0  0  0  0  0
  187.3180  175.5280  137.3950 O   0  0  0  0  0  0  0  0  0  0  0  0
  186.5750  174.4960  136.5960 S   0  0  0  0  0  0  0  0  0  0  0  0
  186.1660  171.8780  135.8420 C   0  0  0  0  0  0  0  0  0  0  0  0
  184.9200  174.3120  137.2350 C   0  0  2  0  0  3  0  0  0  0  0  0
  179.5710  176.6480  135.7670 O   0  0  0  0  0  0  0  0  0  0  0  0
  182.9440  174.1870  135.9520 C   0  0  1  0  0  3  0  0  0  0  0  0
  184.9130  172.0670  136.0850 N   0  0  0  0  0  0  0  0  0  0  0  0
  187.4580  172.6270  136.8440 S   0  0  0  0  0  0  0  0  0  0  0  0
  180.6310  176.6290  135.1620 C   0  0  0  0  0  0  0  0  0  0  0  0
  183.2100  176.1730  137.5080 C   0  0  0  0  0  0  0  0  0  0  0  0
  180.9440  173.1680  135.8630 C   0  0  0  0  0  0  0  0  0  0  0  0
  186.5590  171.1390  134.6110 C   0  0  0  0  0  1  0  0  0  0  0  0
  181.1360  175.3450  134.5940 C   0  0  0  0  0  2  0  0  0  0  0  0
  183.0420  175.8150  138.8570 C   0  0  0  0  0  3  0  0  0  0  0  0
  182.1570  178.3140  137.9870 C   0  0  0  0  0  3  0  0  0  0  0  0
  182.0140  177.9530  139.3270 C   0  0  0  0  0  3  0  0  0  0  0  0
  181.4110  177.8980  135.0000 C   0  0  0  0  0  2  0  0  0  0  0  0
  182.9300  173.1160  136.9800 C   0  0  2  0  0  3  0  0  0  0  0  0
  181.5520  174.4490  135.6640 N   0  0  0  0  0  0  0  0  0  0  0  0
  184.3940  172.8390  137.2040 C   0  0  2  0  0  3  0  0  0  0  0  0
  181.1910  171.5130  137.7000 C   0  0  0  0  0  1  0  0  0  0  0  0
  183.8810  175.2240  136.5330 C   0  0  1  0  0  3  0  0  0  0  0  0
  1 16  2  0  0  0  0
  1 21  1  0  0  0  0
  2  8  2  0  0  0  0
  3 17  2  0  0  0  0
  5 24  1  0  0  0  0
  5 27  1  1  0  0  0
  6  1  1  0  0  0  0
  8 14  1  0  0  0  0
  8  7  2  0  0  0  0
  9 13  2  0  0  0  0
  9 14  1  0  0  0  0
 10  8  1  6  0  0  0
 12 25  1  1  0  0  0
 12 28  1  0  0  0  0
 12 24  1  0  0  0  0
 13 26  1  0  0  0  0
 15 11  2  0  0  0  0
 16 20  1  0  0  0  0
 17  5  1  0  0  0  0
 18  9  1  0  0  0  0
 19 15  1  0  0  0  0
 19 25  1  0  0  0  0
 20  4  2  0  0  0  0
 21 22  2  0  0  0  0
 22  4  1  0  0  0  0
 23 15  1  0  0  0  0
 23  6  1  0  0  0  0
 24 26  1  0  0  0  0
 25 17  1  0  0  0  0
 26 10  1  0  0  0  0
 28 10  1  0  0  0  0
 28 16  1  0  0  0  0
M  END
>  <MODEL>
6

>  <REMARK>
 VINA RESULT:      -4.1      2.813      5.144
  Name = 
  0 active torsions:
  status: ('A' for Active; 'I' for Inactive)
                            x       y       z     vdW  Elec       q    Type
                         _______ _______ _______ _____ _____    ______ ____

>  <TORSDO>
F 0

$$$$
=
 OpenBabel11122411543D

 28 32  0  0  1  0  0  0  0  0999 V2000
  182.0280  179.4170  142.9290 C   0  0  0  0  0  0  0  0  0  0  0  0
  180.2510  181.5960  138.8200 O   0  0  0  0  0  0  0  0  0  0  0  0
  179.0270  175.0020  141.0880 O   0  0  0  0  0  0  0  0  0  0  0  0
  184.4130  178.0950  142.2790 C   0  0  0  0  0  3  0  0  0  0  0  0
  180.2020  176.0060  139.2000 C   0  0  1  0  0  3  0  0  0  0  0  0
  180.7260  180.0440  143.3260 C   0  0  0  0  0  2  0  0  0  0  0  0
  182.6790  181.9690  138.7210 O   0  0  0  0  0  0  0  0  0  0  0  0
  181.5670  181.0210  138.3770 S   0  0  0  0  0  0  0  0  0  0  0  0
  180.2110  179.4710  136.5460 C   0  0  0  0  0  0  0  0  0  0  0  0
  181.8720  179.4320  139.1260 C   0  0  2  0  0  3  0  0  0  0  0  0
  180.0850  176.7880  144.2300 O   0  0  0  0  0  0  0  0  0  0  0  0
  180.2860  178.1110  140.2700 C   0  0  1  0  0  3  0  0  0  0  0  0
  180.2800  178.5070  137.4010 N   0  0  0  0  0  0  0  0  0  0  0  0
  181.5480  180.6530  136.3270 S   0  0  0  0  0  0  0  0  0  0  0  0
  179.6710  177.7820  143.6550 C   0  0  0  0  0  0  0  0  0  0  0  0
  182.2540  178.9990  141.6020 C   0  0  0  0  0  0  0  0  0  0  0  0
  179.6540  175.9810  140.6010 C   0  0  0  0  0  0  0  0  0  0  0  0
  178.9310  179.7020  135.8220 C   0  0  0  0  0  1  0  0  0  0  0  0
  178.9310  177.6380  142.3670 C   0  0  0  0  0  2  0  0  0  0  0  0
  183.4490  178.3240  141.2950 C   0  0  0  0  0  3  0  0  0  0  0  0
  183.0030  179.1900  143.9090 C   0  0  0  0  0  3  0  0  0  0  0  0
  184.1920  178.5360  143.5860 C   0  0  0  0  0  3  0  0  0  0  0  0
  179.9160  179.1350  144.2510 C   0  0  0  0  0  2  0  0  0  0  0  0
  181.0430  177.2560  139.3210 C   0  0  2  0  0  3  0  0  0  0  0  0
  179.8370  177.2120  141.3100 N   0  0  0  0  0  0  0  0  0  0  0  0
  181.4390  178.2210  138.2350 C   0  0  2  0  0  3  0  0  0  0  0  0
  181.1070  174.8120  138.9590 C   0  0  0  0  0  1  0  0  0  0  0  0
  181.2210  179.2730  140.5260 C   0  0  1  0  0  3  0  0  0  0  0  0
  1  6  1  0  0  0  0
  1 21  1  0  0  0  0
  4 22  1  0  0  0  0
  5 27  1  1  0  0  0
  5 24  1  0  0  0  0
  5 17  1  0  0  0  0
  6 23  1  0  0  0  0
  8  7  2  0  0  0  0
  8  2  2  0  0  0  0
  9 13  2  0  0  0  0
 10  8  1  6  0  0  0
 10 28  1  0  0  0  0
 12 28  1  0  0  0  0
 12 25  1  1  0  0  0
 13 26  1  0  0  0  0
 14  9  1  0  0  0  0
 14  8  1  0  0  0  0
 15 11  2  0  0  0  0
 15 23  1  0  0  0  0
 16  1  2  0  0  0  0
 17  3  2  0  0  0  0
 17 25  1  0  0  0  0
 18  9  1  0  0  0  0
 19 15  1  0  0  0  0
 20 16  1  0  0  0  0
 20  4  2  0  0  0  0
 22 21  2  0  0  0  0
 24 12  1  0  0  0  0
 25 19  1  0  0  0  0
 26 10  1  0  0  0  0
 26 24  1  0  0  0  0
 28 16  1  0  0  0  0
M  END
>  <MODEL>
7

>  <REMARK>
 VINA RESULT:      -4.0      4.186      6.837
  Name = 
  0 active torsions:
  status: ('A' for Active; 'I' for Inactive)
                            x       y       z     vdW  Elec       q    Type
                         _______ _______ _______ _____ _____    ______ ____

>  <TORSDO>
F 0

$$$$
=
 OpenBabel11122411543D

 28 32  0  0  1  0  0  0  0  0999 V2000
  185.3610  174.9860  136.5930 C   0  0  0  0  0  0  0  0  0  0  0  0
  183.0550  176.8490  140.5920 O   0  0  0  0  0  0  0  0  0  0  0  0
  180.1250  173.5160  135.0770 O   0  0  0  0  0  0  0  0  0  0  0  0
  185.4120  176.9510  134.5950 C   0  0  0  0  0  3  0  0  0  0  0  0
  180.0870  175.7900  135.9590 C   0  0  1  0  0  3  0  0  0  0  0  0
  185.3070  173.8720  137.5930 C   0  0  0  0  0  2  0  0  0  0  0  0
  184.4470  178.6970  139.7610 O   0  0  0  0  0  0  0  0  0  0  0  0
  183.1160  178.0130  139.6430 S   0  0  0  0  0  0  0  0  0  0  0  0
  180.3620  178.0980  139.6540 C   0  0  0  0  0  0  0  0  0  0  0  0
  182.8480  177.4970  137.9570 C   0  0  2  0  0  3  0  0  0  0  0  0
  183.7030  172.3480  134.9590 O   0  0  0  0  0  0  0  0  0  0  0  0
  182.0170  175.3990  137.2650 C   0  0  1  0  0  3  0  0  0  0  0  0
  180.3970  177.4260  138.5530 N   0  0  0  0  0  0  0  0  0  0  0  0
  181.5800  179.3610  140.0430 S   0  0  0  0  0  0  0  0  0  0  0  0
  183.6880  172.5850  136.1570 C   0  0  0  0  0  0  0  0  0  0  0  0
  184.3870  176.0050  136.5910 C   0  0  0  0  0  0  0  0  0  0  0  0
  180.6910  174.4310  135.7320 C   0  0  0  0  0  0  0  0  0  0  0  0
  179.3730  177.7170  140.7000 C   0  0  0  0  0  1  0  0  0  0  0  0
  182.4000  172.9260  136.8280 C   0  0  0  0  0  2  0  0  0  0  0  0
  184.4160  176.9740  135.5730 C   0  0  0  0  0  3  0  0  0  0  0  0
  186.3610  174.9740  135.6110 C   0  0  0  0  0  3  0  0  0  0  0  0
  186.3900  175.9540  134.6180 C   0  0  0  0  0  3  0  0  0  0  0  0
  184.9680  172.5340  136.9350 C   0  0  0  0  0  2  0  0  0  0  0  0
  181.3080  176.4760  136.5270 C   0  0  2  0  0  3  0  0  0  0  0  0
  181.9420  174.2410  136.4030 N   0  0  0  0  0  0  0  0  0  0  0  0
  181.3630  177.6380  137.4840 C   0  0  2  0  0  3  0  0  0  0  0  0
  179.7140  176.4370  134.6380 C   0  0  0  0  0  1  0  0  0  0  0  0
  183.3220  176.0480  137.6710 C   0  0  1  0  0  3  0  0  0  0  0  0
  1  6  1  0  0  0  0
  3 17  2  0  0  0  0
  4 22  2  0  0  0  0
  4 20  1  0  0  0  0
  5 27  1  6  0  0  0
  5 24  1  0  0  0  0
  8  7  2  0  0  0  0
  8 14  1  0  0  0  0
  8  2  2  0  0  0  0
  9 14  1  0  0  0  0
  9 18  1  0  0  0  0
 10  8  1  1  0  0  0
 11 15  2  0  0  0  0
 12 25  1  6  0  0  0
 12 28  1  0  0  0  0
 13  9  2  0  0  0  0
 15 19  1  0  0  0  0
 15 23  1  0  0  0  0
 16  1  1  0  0  0  0
 16 28  1  0  0  0  0
 17  5  1  0  0  0  0
 17 25  1  0  0  0  0
 20 16  2  0  0  0  0
 21  1  2  0  0  0  0
 22 21  1  0  0  0  0
 23  6  1  0  0  0  0
 24 12  1  0  0  0  0
 24 26  1  0  0  0  0
 25 19  1  0  0  0  0
 26 10  1  0  0  0  0
 26 13  1  0  0  0  0
 28 10  1  0  0  0  0
M  END
>  <MODEL>
8

>  <REMARK>
 VINA RESULT:      -3.9      2.696      6.240
  Name = 
  0 active torsions:
  status: ('A' for Active; 'I' for Inactive)
                            x       y       z     vdW  Elec       q    Type
                         _______ _______ _______ _____ _____    ______ ____

>  <TORSDO>
F 0

$$$$
=
 OpenBabel11122411543D

 28 32  0  0  1  0  0  0  0  0999 V2000
  187.0460  176.4010  136.7180 C   0  0  0  0  0  0  0  0  0  0  0  0
  184.1210  177.5880  140.5670 O   0  0  0  0  0  0  0  0  0  0  0  0
  182.6800  173.1310  135.2590 O   0  0  0  0  0  0  0  0  0  0  0  0
  186.4800  178.1420  134.5950 C   0  0  0  0  0  3  0  0  0  0  0  0
  181.8370  175.3000  135.9900 C   0  0  1  0  0  3  0  0  0  0  0  0
  187.3470  175.3970  137.7890 C   0  0  0  0  0  2  0  0  0  0  0  0
  184.8190  179.7500  139.6280 O   0  0  0  0  0  0  0  0  0  0  0  0
  183.8080  178.6430  139.5450 S   0  0  0  0  0  0  0  0  0  0  0  0
  181.1930  177.7750  139.5280 C   0  0  0  0  0  0  0  0  0  0  0  0
  183.7840  177.9680  137.8940 C   0  0  2  0  0  3  0  0  0  0  0  0
  186.4440  173.2620  135.2470 O   0  0  0  0  0  0  0  0  0  0  0  0
  183.7440  175.6760  137.3340 C   0  0  1  0  0  3  0  0  0  0  0  0
  181.4890  177.0930  138.4730 N   0  0  0  0  0  0  0  0  0  0  0  0
  181.8910  179.4010  139.8430 S   0  0  0  0  0  0  0  0  0  0  0  0
  186.3120  173.5500  136.4260 C   0  0  0  0  0  0  0  0  0  0  0  0
  185.7810  177.0190  136.6410 C   0  0  0  0  0  0  0  0  0  0  0  0
  182.8780  174.2220  135.8580 C   0  0  0  0  0  0  0  0  0  0  0  0
  180.3630  177.1390  140.5880 C   0  0  0  0  0  1  0  0  0  0  0  0
  184.9660  173.4640  137.0640 C   0  0  0  0  0  2  0  0  0  0  0  0
  185.5070  177.8780  135.5620 C   0  0  0  0  0  3  0  0  0  0  0  0
  188.0180  176.6770  135.7470 C   0  0  0  0  0  3  0  0  0  0  0  0
  187.7390  177.5460  134.6920 C   0  0  0  0  0  3  0  0  0  0  0  0
  187.5080  173.9880  137.2170 C   0  0  0  0  0  2  0  0  0  0  0  0
  182.7320  176.3970  136.5220 C   0  0  2  0  0  3  0  0  0  0  0  0
  184.0970  174.5140  136.5490 N   0  0  0  0  0  0  0  0  0  0  0  0
  182.3560  177.5610  137.4010 C   0  0  2  0  0  3  0  0  0  0  0  0
  181.3050  175.7010  134.6270 C   0  0  0  0  0  1  0  0  0  0  0  0
  184.7350  176.7570  137.7070 C   0  0  1  0  0  3  0  0  0  0  0  0
  1  6  1  0  0  0  0
  3 17  2  0  0  0  0
  4 22  2  0  0  0  0
  4 20  1  0  0  0  0
  5 27  1  6  0  0  0
  5 24  1  0  0  0  0
  8  7  2  0  0  0  0
  8 14  1  0  0  0  0
  8  2  2  0  0  0  0
  9 14  1  0  0  0  0
  9 18  1  0  0  0  0
 10  8  1  1  0  0  0
 11 15  2  0  0  0  0
 12 25  1  6  0  0  0
 12 28  1  0  0  0  0
 13  9  2  0  0  0  0
 15 19  1  0  0  0  0
 15 23  1  0  0  0  0
 16  1  1  0  0  0  0
 16 28  1  0  0  0  0
 17  5  1  0  0  0  0
 17 25  1  0  0  0  0
 20 16  2  0  0  0  0
 21  1  2  0  0  0  0
 22 21  1  0  0  0  0
 23  6  1  0  0  0  0
 24 12  1  0  0  0  0
 24 26  1  0  0  0  0
 25 19  1  0  0  0  0
 26 10  1  0  0  0  0
 26 13  1  0  0  0  0
 28 10  1  0  0  0  0
M  END
>  <MODEL>
9

>  <REMARK>
 VINA RESULT:      -3.8      2.664      5.969
  Name = 
  0 active torsions:
  status: ('A' for Active; 'I' for Inactive)
                            x       y       z     vdW  Elec       q    Type
                         _______ _______ _______ _____ _____    ______ ____

>  <TORSDO>
F 0

$$$$
