=
 OpenBabel11122410243D

 30 35  0  0  1  0  0  0  0  0999 V2000
  189.1020  177.3840  143.5360 C   0  0  1  0  0  3  0  0  0  0  0  0
  191.2260  176.8580  144.8420 C   0  0  0  0  0  0  0  0  0  0  0  0
  187.1610  178.2090  147.0600 C   0  0  0  0  0  2  0  0  0  0  0  0
  187.7440  178.0810  143.7300 C   0  0  1  0  0  3  0  0  0  0  0  0
  189.9020  178.1470  142.6570 O   0  0  0  0  0  0  0  0  0  0  0  0
  187.4220  178.5580  140.0110 O   0  0  0  0  0  1  0  0  0  0  0  0
  184.5490  178.0390  142.9060 C   0  0  1  0  0  3  0  0  0  0  0  0
  187.9740  178.7080  141.2860 C   0  0  2  0  0  3  0  0  0  0  0  0
  184.4390  177.9910  144.4320 C   0  0  2  0  0  3  0  0  0  0  0  0
  185.9030  178.6490  146.4350 C   0  0  0  0  0  0  0  0  0  0  0  0
  189.3660  178.0650  141.3500 C   0  0  2  0  0  3  0  0  0  0  0  0
  187.0420  178.1270  142.3540 C   0  0  2  0  0  3  0  0  0  0  0  0
  191.8800  176.5490  146.0370 C   0  0  0  0  0  3  0  0  0  0  0  0
  183.4180  179.0540  144.7830 C   0  0  0  0  0  2  0  0  0  0  0  0
  183.2230  178.5940  142.4080 C   0  0  0  0  0  2  0  0  0  0  0  0
  191.9740  176.8890  143.6710 O   0  0  0  0  0  1  0  0  0  0  0  0
  187.6170  177.1150  146.1010 C   0  0  1  0  0  3  0  0  0  0  0  0
  191.1650  176.4550  147.2280 C   0  0  0  0  0  3  0  0  0  0  0  0
  189.8330  177.1150  144.8340 C   0  0  0  0  0  0  0  0  0  0  0  0
  186.8820  177.3420  144.7620 C   0  0  1  0  0  3  0  0  0  0  0  0
  185.0680  179.3860  147.0240 O   0  0  0  0  0  0  0  0  0  0  0  0
  185.7310  178.1700  145.1050 N   0  0  0  0  0  0  0  0  0  0  0  0
  182.4420  179.0530  143.6280 C   0  0  0  0  0  2  0  0  0  0  0  0
  185.8000  180.3010  142.9120 C   0  0  0  0  0  1  0  0  0  0  0  0
  189.7870  176.6580  147.2250 C   0  0  0  0  0  3  0  0  0  0  0  0
  189.1130  176.9810  146.0420 C   0  0  0  0  0  0  0  0  0  0  0  0
  185.7070  178.8840  142.3480 C   0  0  2  0  0  3  0  0  0  0  0  0
  189.4120  176.6450  140.7740 C   0  0  0  0  0  2  0  0  0  0  0  0
  191.5460  177.3540  140.0360 F   0  0  0  0  0  0  0  0  0  0  0  0
  190.4730  176.5520  139.6960 C   0  0  0  0  0  2  0  0  0  0  0  0
  1  5  1  6  0  0  0
  1  4  1  0  0  0  0
  1 19  1  0  0  0  0
  2 13  1  0  0  0  0
  4 20  1  0  0  0  0
  6  8  1  0  0  0  0
  7  9  1  0  0  0  0
  8 11  1  0  0  0  0
  8 12  1  0  0  0  0
  9 14  1  0  0  0  0
  9 22  1  0  0  0  0
 10 21  2  0  0  0  0
 10  3  1  0  0  0  0
 11  5  1  0  0  0  0
 12  4  1  0  0  0  0
 13 18  2  0  0  0  0
 15  7  1  0  0  0  0
 15 23  1  0  0  0  0
 16  2  1  0  0  0  0
 17  3  1  0  0  0  0
 19  2  2  0  0  0  0
 19 26  1  0  0  0  0
 20 22  1  0  0  0  0
 20 17  1  0  0  0  0
 22 10  1  0  0  0  0
 23 14  1  0  0  0  0
 25 18  1  0  0  0  0
 26 17  1  0  0  0  0
 26 25  2  0  0  0  0
 27 12  1  0  0  0  0
 27  7  1  0  0  0  0
 27 24  1  0  0  0  0
 28 11  1  0  0  0  0
 30 29  1  0  0  0  0
 30 28  1  0  0  0  0
M  END
>  <MODEL>
1

>  <REMARK>
 VINA RESULT:     -10.2      0.000      0.000
  Name = 
  2 active torsions:
  status: ('A' for Active; 'I' for Inactive)
    1  A    between atoms: C_11  and  C_28
    2  A    between atoms: C_28  and  C_30
                            x       y       z     vdW  Elec       q    Type
                         _______ _______ _______ _____ _____    ______ ____

>  <TORSDO>
F 2

$$$$
=
 OpenBabel11122410243D

 30 35  0  0  1  0  0  0  0  0999 V2000
  186.9240  177.9400  145.1380 C   0  0  1  0  0  3  0  0  0  0  0  0
  184.4960  178.6300  145.4870 C   0  0  0  0  0  0  0  0  0  0  0  0
  186.5860  178.8360  141.1450 C   0  0  0  0  0  2  0  0  0  0  0  0
  188.0510  178.0840  144.1000 C   0  0  1  0  0  3  0  0  0  0  0  0
  187.2430  178.6960  146.2880 O   0  0  0  0  0  0  0  0  0  0  0  0
  190.6290  177.4190  146.7580 O   0  0  0  0  0  1  0  0  0  0  0  0
  190.6610  176.6030  142.7290 C   0  0  1  0  0  3  0  0  0  0  0  0
  189.5920  178.0950  146.1100 C   0  0  2  0  0  3  0  0  0  0  0  0
  189.8340  176.9130  141.4790 C   0  0  2  0  0  3  0  0  0  0  0  0
  187.9980  178.5800  140.8160 C   0  0  0  0  0  0  0  0  0  0  0  0
  188.3190  178.0780  146.9680 C   0  0  2  0  0  3  0  0  0  0  0  0
  189.3380  177.4980  144.7230 C   0  0  2  0  0  3  0  0  0  0  0  0
  183.2240  178.9190  144.9880 C   0  0  0  0  0  3  0  0  0  0  0  0
  190.8120  177.5530  140.5140 C   0  0  0  0  0  2  0  0  0  0  0  0
  192.0990  176.4540  142.2540 C   0  0  0  0  0  2  0  0  0  0  0  0
  184.6810  178.6420  146.8650 O   0  0  0  0  0  1  0  0  0  0  0  0
  186.3250  177.7950  142.2270 C   0  0  1  0  0  3  0  0  0  0  0  0
  182.9780  178.8690  143.6190 C   0  0  0  0  0  3  0  0  0  0  0  0
  185.5590  178.3190  144.6050 C   0  0  0  0  0  0  0  0  0  0  0  0
  187.6970  177.3650  142.7920 C   0  0  1  0  0  3  0  0  0  0  0  0
  188.5620  179.0640  139.8000 O   0  0  0  0  0  0  0  0  0  0  0  0
  188.6580  177.7440  141.7620 N   0  0  0  0  0  0  0  0  0  0  0  0
  192.1350  176.8770  140.7950 C   0  0  0  0  0  2  0  0  0  0  0  0
  190.8580  179.0900  143.4060 C   0  0  0  0  0  1  0  0  0  0  0  0
  184.0020  178.5170  142.7430 C   0  0  0  0  0  3  0  0  0  0  0  0
  185.2880  178.2370  143.2210 C   0  0  0  0  0  0  0  0  0  0  0  0
  190.5910  177.6530  143.8510 C   0  0  2  0  0  3  0  0  0  0  0  0
  187.9640  176.6890  147.5100 C   0  0  0  0  0  2  0  0  0  0  0  0
  187.9690  178.0320  149.4580 F   0  0  0  0  0  0  0  0  0  0  0  0
  187.6620  176.7680  148.9920 C   0  0  0  0  0  2  0  0  0  0  0  0
  1 19  1  6  0  0  0
  1  5  1  0  0  0  0
  2 16  1  0  0  0  0
  3 17  1  0  0  0  0
  4 12  1  0  0  0  0
  4  1  1  0  0  0  0
  5 11  1  0  0  0  0
  7 27  1  0  0  0  0
  8  6  1  0  0  0  0
  8 11  1  0  0  0  0
  9 22  1  0  0  0  0
  9  7  1  0  0  0  0
 10  3  1  0  0  0  0
 10 22  1  0  0  0  0
 11 28  1  0  0  0  0
 12  8  1  0  0  0  0
 13  2  1  0  0  0  0
 14 23  1  0  0  0  0
 14  9  1  0  0  0  0
 15  7  1  0  0  0  0
 17 20  1  0  0  0  0
 17 26  1  0  0  0  0
 18 13  2  0  0  0  0
 19  2  2  0  0  0  0
 20  4  1  0  0  0  0
 21 10  2  0  0  0  0
 22 20  1  0  0  0  0
 23 15  1  0  0  0  0
 24 27  1  0  0  0  0
 25 26  2  0  0  0  0
 25 18  1  0  0  0  0
 26 19  1  0  0  0  0
 27 12  1  0  0  0  0
 28 30  1  0  0  0  0
 30 29  1  0  0  0  0
M  END
>  <MODEL>
2

>  <REMARK>
 VINA RESULT:      -9.0      2.520      6.732
  Name = 
  2 active torsions:
  status: ('A' for Active; 'I' for Inactive)
    1  A    between atoms: C_11  and  C_28
    2  A    between atoms: C_28  and  C_30
                            x       y       z     vdW  Elec       q    Type
                         _______ _______ _______ _____ _____    ______ ____

>  <TORSDO>
F 2

$$$$
=
 OpenBabel11122410243D

 30 35  0  0  1  0  0  0  0  0999 V2000
  187.3770  178.2190  140.1070 C   0  0  1  0  0  3  0  0  0  0  0  0
  185.1140  178.5410  138.9810 C   0  0  0  0  0  0  0  0  0  0  0  0
  185.4930  177.7770  143.7290 C   0  0  0  0  0  2  0  0  0  0  0  0
  187.9710  177.6970  141.4280 C   0  0  1  0  0  3  0  0  0  0  0  0
  187.7060  177.3300  139.0590 O   0  0  0  0  0  0  0  0  0  0  0  0
  191.2840  177.1090  139.7430 O   0  0  0  0  0  1  0  0  0  0  0  0
  190.3920  178.0860  143.6360 C   0  0  1  0  0  3  0  0  0  0  0  0
  189.9180  176.9460  139.9910 C   0  0  2  0  0  3  0  0  0  0  0  0
  189.1680  178.2100  144.5460 C   0  0  2  0  0  3  0  0  0  0  0  0
  186.7120  177.4640  144.4920 C   0  0  0  0  0  0  0  0  0  0  0  0
  189.0910  177.4210  138.7890 C   0  0  2  0  0  3  0  0  0  0  0  0
  189.5080  177.6780  141.2730 C   0  0  2  0  0  3  0  0  0  0  0  0
  183.7460  178.8190  139.0450 C   0  0  0  0  0  3  0  0  0  0  0  0
  189.4570  177.2910  145.7160 C   0  0  0  0  0  2  0  0  0  0  0  0
  191.5450  177.6730  144.5380 C   0  0  0  0  0  2  0  0  0  0  0  0
  185.6940  178.3730  137.7290 O   0  0  0  0  0  1  0  0  0  0  0  0
  186.0180  178.7680  142.6970 C   0  0  1  0  0  3  0  0  0  0  0  0
  183.1300  179.0460  140.2720 C   0  0  0  0  0  3  0  0  0  0  0  0
  185.8830  178.4520  140.1670 C   0  0  0  0  0  0  0  0  0  0  0  0
  187.5490  178.5750  142.6120 C   0  0  1  0  0  3  0  0  0  0  0  0
  186.6920  176.8570  145.5950 O   0  0  0  0  0  0  0  0  0  0  0  0
  187.9080  177.9060  143.8570 N   0  0  0  0  0  0  0  0  0  0  0  0
  190.9560  177.3600  145.9040 C   0  0  0  0  0  2  0  0  0  0  0  0
  189.7770  175.6930  142.8750 C   0  0  0  0  0  1  0  0  0  0  0  0
  183.8850  179.0090  141.4430 C   0  0  0  0  0  3  0  0  0  0  0  0
  185.2540  178.7200  141.4030 C   0  0  0  0  0  0  0  0  0  0  0  0
  190.2590  177.0860  142.4740 C   0  0  2  0  0  3  0  0  0  0  0  0
  189.5080  178.8000  138.2650 C   0  0  0  0  0  2  0  0  0  0  0  0
  189.2080  177.8690  136.1100 F   0  0  0  0  0  0  0  0  0  0  0  0
  188.9800  179.0080  136.8600 C   0  0  0  0  0  2  0  0  0  0  0  0
  1  5  1  6  0  0  0
  1 19  1  0  0  0  0
  1  4  1  0  0  0  0
  2 13  2  0  0  0  0
  2 19  1  0  0  0  0
  3 10  1  0  0  0  0
  4 20  1  0  0  0  0
  6  8  1  0  0  0  0
  7 15  1  0  0  0  0
  7  9  1  0  0  0  0
  8 12  1  0  0  0  0
  9 14  1  0  0  0  0
 10 21  2  0  0  0  0
 11  5  1  0  0  0  0
 11  8  1  0  0  0  0
 12  4  1  0  0  0  0
 12 27  1  0  0  0  0
 13 18  1  0  0  0  0
 14 23  1  0  0  0  0
 15 23  1  0  0  0  0
 16  2  1  0  0  0  0
 17  3  1  0  0  0  0
 18 25  2  0  0  0  0
 19 26  2  0  0  0  0
 20 17  1  0  0  0  0
 20 22  1  0  0  0  0
 22 10  1  0  0  0  0
 22  9  1  0  0  0  0
 26 25  1  0  0  0  0
 26 17  1  0  0  0  0
 27 24  1  0  0  0  0
 27  7  1  0  0  0  0
 28 11  1  0  0  0  0
 29 30  1  0  0  0  0
 30 28  1  0  0  0  0
M  END
>  <MODEL>
3

>  <REMARK>
 VINA RESULT:      -8.3      2.187      5.905
  Name = 
  2 active torsions:
  status: ('A' for Active; 'I' for Inactive)
    1  A    between atoms: C_11  and  C_28
    2  A    between atoms: C_28  and  C_30
                            x       y       z     vdW  Elec       q    Type
                         _______ _______ _______ _____ _____    ______ ____

>  <TORSDO>
F 2

$$$$
=
 OpenBabel11122410243D

 30 35  0  0  1  0  0  0  0  0999 V2000
  188.6390  177.5430  143.2550 C   0  0  1  0  0  3  0  0  0  0  0  0
  187.9660  177.9530  145.6790 C   0  0  0  0  0  0  0  0  0  0  0  0
  185.1030  179.2200  142.0080 C   0  0  0  0  0  2  0  0  0  0  0  0
  188.2490  177.9880  141.8340 C   0  0  1  0  0  3  0  0  0  0  0  0
  189.9100  178.0670  143.5810 O   0  0  0  0  0  0  0  0  0  0  0  0
  191.6450  176.9900  140.5560 O   0  0  0  0  0  1  0  0  0  0  0  0
  187.9840  177.0340  138.6870 C   0  0  1  0  0  3  0  0  0  0  0  0
  190.7130  177.7030  141.3150 C   0  0  2  0  0  3  0  0  0  0  0  0
  186.5590  177.5310  138.9440 C   0  0  2  0  0  3  0  0  0  0  0  0
  185.4060  179.1490  140.5690 C   0  0  0  0  0  0  0  0  0  0  0  0
  190.8970  177.4080  142.8100 C   0  0  2  0  0  3  0  0  0  0  0  0
  189.2860  177.3890  140.8570 C   0  0  2  0  0  3  0  0  0  0  0  0
  187.0000  178.2380  146.6460 C   0  0  0  0  0  3  0  0  0  0  0  0
  186.2420  178.4320  137.7670 C   0  0  0  0  0  2  0  0  0  0  0  0
  188.1860  177.1010  137.1800 C   0  0  0  0  0  2  0  0  0  0  0  0
  189.2650  177.6930  146.1000 O   0  0  0  0  0  1  0  0  0  0  0  0
  185.7830  177.9590  142.5300 C   0  0  1  0  0  3  0  0  0  0  0  0
  185.6760  178.4540  146.2770 C   0  0  0  0  0  3  0  0  0  0  0  0
  187.6160  177.9170  144.3070 C   0  0  0  0  0  0  0  0  0  0  0  0
  186.8290  177.5310  141.4780 C   0  0  1  0  0  3  0  0  0  0  0  0
  184.8360  179.8760  139.7140 O   0  0  0  0  0  0  0  0  0  0  0  0
  186.4080  178.1890  140.2470 N   0  0  0  0  0  0  0  0  0  0  0  0
  186.9790  177.8180  136.5980 C   0  0  0  0  0  2  0  0  0  0  0  0
  189.0450  179.3340  139.2010 C   0  0  0  0  0  1  0  0  0  0  0  0
  185.3090  178.3730  144.9360 C   0  0  0  0  0  3  0  0  0  0  0  0
  186.2630  178.1020  143.9480 C   0  0  0  0  0  0  0  0  0  0  0  0
  189.1010  177.8190  139.3950 C   0  0  2  0  0  3  0  0  0  0  0  0
  191.0050  175.9140  143.1310 C   0  0  0  0  0  2  0  0  0  0  0  0
  192.4530  174.5170  144.3770 F   0  0  0  0  0  0  0  0  0  0  0  0
  191.7590  175.7110  144.4300 C   0  0  0  0  0  2  0  0  0  0  0  0
  1  5  1  1  0  0  0
  1 19  1  0  0  0  0
  2 16  1  0  0  0  0
  2 13  1  0  0  0  0
  3 17  1  0  0  0  0
  4  1  1  0  0  0  0
  6  8  1  0  0  0  0
  7  9  1  0  0  0  0
  7 27  1  0  0  0  0
  8 11  1  0  0  0  0
  9 22  1  0  0  0  0
 10  3  1  0  0  0  0
 11 28  1  0  0  0  0
 11  5  1  0  0  0  0
 12  8  1  0  0  0  0
 12  4  1  0  0  0  0
 14  9  1  0  0  0  0
 15  7  1  0  0  0  0
 17 26  1  0  0  0  0
 18 13  2  0  0  0  0
 19  2  2  0  0  0  0
 20  4  1  0  0  0  0
 20 17  1  0  0  0  0
 21 10  2  0  0  0  0
 22 10  1  0  0  0  0
 22 20  1  0  0  0  0
 23 15  1  0  0  0  0
 23 14  1  0  0  0  0
 24 27  1  0  0  0  0
 25 18  1  0  0  0  0
 26 19  1  0  0  0  0
 26 25  2  0  0  0  0
 27 12  1  0  0  0  0
 28 30  1  0  0  0  0
 29 30  1  0  0  0  0
M  END
>  <MODEL>
4

>  <REMARK>
 VINA RESULT:      -7.6      2.459      4.868
  Name = 
  2 active torsions:
  status: ('A' for Active; 'I' for Inactive)
    1  A    between atoms: C_11  and  C_28
    2  A    between atoms: C_28  and  C_30
                            x       y       z     vdW  Elec       q    Type
                         _______ _______ _______ _____ _____    ______ ____

>  <TORSDO>
F 2

$$$$
=
 OpenBabel11122410243D

 30 35  0  0  1  0  0  0  0  0999 V2000
  186.2430  178.1950  140.8480 C   0  0  1  0  0  3  0  0  0  0  0  0
  187.3240  178.3610  138.5460 C   0  0  0  0  0  0  0  0  0  0  0  0
  189.9650  178.2500  142.5810 C   0  0  0  0  0  2  0  0  0  0  0  0
  186.5950  178.4040  142.3310 C   0  0  1  0  0  3  0  0  0  0  0  0
  185.3410  179.2000  140.4320 O   0  0  0  0  0  0  0  0  0  0  0  0
  182.9530  178.8430  143.1680 O   0  0  0  0  0  1  0  0  0  0  0  0
  186.0550  177.3390  145.4070 C   0  0  1  0  0  3  0  0  0  0  0  0
  184.1810  179.1340  142.5670 C   0  0  2  0  0  3  0  0  0  0  0  0
  187.5800  177.2190  145.3390 C   0  0  2  0  0  3  0  0  0  0  0  0
  189.4800  178.2700  143.9710 C   0  0  0  0  0  0  0  0  0  0  0  0
  184.0840  178.9800  141.0430 C   0  0  2  0  0  3  0  0  0  0  0  0
  185.2910  178.2530  143.1470 C   0  0  2  0  0  3  0  0  0  0  0  0
  188.4370  178.2530  137.7090 C   0  0  0  0  0  3  0  0  0  0  0  0
  188.0800  177.8800  146.6070 C   0  0  0  0  0  2  0  0  0  0  0  0
  185.7090  177.4420  146.8850 C   0  0  0  0  0  2  0  0  0  0  0  0
  186.0950  178.6650  137.9720 O   0  0  0  0  0  1  0  0  0  0  0  0
  188.9090  177.3900  141.8960 C   0  0  1  0  0  3  0  0  0  0  0  0
  189.6780  177.9000  138.2290 C   0  0  0  0  0  3  0  0  0  0  0  0
  187.4530  178.1480  139.9400 C   0  0  0  0  0  0  0  0  0  0  0  0
  187.6550  177.3980  142.7980 C   0  0  1  0  0  3  0  0  0  0  0  0
  190.1810  178.6780  144.9340 O   0  0  0  0  0  0  0  0  0  0  0  0
  188.1450  177.7940  144.1130 N   0  0  0  0  0  0  0  0  0  0  0  0
  187.0180  177.5890  147.6430 C   0  0  0  0  0  2  0  0  0  0  0  0
  186.0810  179.8850  144.9610 C   0  0  0  0  0  1  0  0  0  0  0  0
  189.8090  177.6410  139.5920 C   0  0  0  0  0  3  0  0  0  0  0  0
  188.7100  177.7560  140.4510 C   0  0  0  0  0  0  0  0  0  0  0  0
  185.4470  178.5300  144.6480 C   0  0  2  0  0  3  0  0  0  0  0  0
  183.4260  177.6690  140.5990 C   0  0  0  0  0  2  0  0  0  0  0  0
  181.0800  177.8720  140.8260 F   0  0  0  0  0  0  0  0  0  0  0  0
  182.1090  177.9530  139.9070 C   0  0  0  0  0  2  0  0  0  0  0  0
  1 19  1  6  0  0  0
  1  4  1  0  0  0  0
  2 19  1  0  0  0  0
  3 10  1  0  0  0  0
  4 20  1  0  0  0  0
  4 12  1  0  0  0  0
  5  1  1  0  0  0  0
  5 11  1  0  0  0  0
  7 15  1  0  0  0  0
  8 12  1  0  0  0  0
  8  6  1  0  0  0  0
  9  7  1  0  0  0  0
  9 14  1  0  0  0  0
 10 22  1  0  0  0  0
 10 21  2  0  0  0  0
 11  8  1  0  0  0  0
 12 27  1  0  0  0  0
 13 18  1  0  0  0  0
 13  2  2  0  0  0  0
 14 23  1  0  0  0  0
 15 23  1  0  0  0  0
 16  2  1  0  0  0  0
 17  3  1  0  0  0  0
 17 20  1  0  0  0  0
 18 25  2  0  0  0  0
 19 26  2  0  0  0  0
 20 22  1  0  0  0  0
 22  9  1  0  0  0  0
 25 26  1  0  0  0  0
 26 17  1  0  0  0  0
 27 24  1  0  0  0  0
 27  7  1  0  0  0  0
 28 11  1  0  0  0  0
 30 28  1  0  0  0  0
 30 29  1  0  0  0  0
M  END
>  <MODEL>
5

>  <REMARK>
 VINA RESULT:      -7.4      2.742      5.760
  Name = 
  2 active torsions:
  status: ('A' for Active; 'I' for Inactive)
    1  A    between atoms: C_11  and  C_28
    2  A    between atoms: C_28  and  C_30
                            x       y       z     vdW  Elec       q    Type
                         _______ _______ _______ _____ _____    ______ ____

>  <TORSDO>
F 2

$$$$
=
 OpenBabel11122410243D

 30 35  0  0  1  0  0  0  0  0999 V2000
  188.2590  177.6590  145.4100 C   0  0  1  0  0  3  0  0  0  0  0  0
  186.2440  178.2920  146.8360 C   0  0  0  0  0  0  0  0  0  0  0  0
  186.1730  178.7020  142.0300 C   0  0  0  0  0  2  0  0  0  0  0  0
  188.8030  177.8630  143.9850 C   0  0  1  0  0  3  0  0  0  0  0  0
  189.0600  178.3750  146.3280 O   0  0  0  0  0  0  0  0  0  0  0  0
  192.2970  177.1410  145.1810 O   0  0  0  0  0  1  0  0  0  0  0  0
  190.5230  176.4820  141.5320 C   0  0  1  0  0  3  0  0  0  0  0  0
  191.0800  177.8240  145.0940 C   0  0  2  0  0  3  0  0  0  0  0  0
  189.2250  176.8260  140.7970 C   0  0  2  0  0  3  0  0  0  0  0  0
  187.2880  178.4840  141.0950 C   0  0  0  0  0  0  0  0  0  0  0  0
  190.3250  177.7510  146.4280 C   0  0  2  0  0  3  0  0  0  0  0  0
  190.2320  177.2760  143.9420 C   0  0  2  0  0  3  0  0  0  0  0  0
  184.8830  178.5770  146.9700 C   0  0  0  0  0  3  0  0  0  0  0  0
  189.6690  177.5200  139.5250 C   0  0  0  0  0  2  0  0  0  0  0  0
  191.5970  176.3780  140.4590 C   0  0  0  0  0  2  0  0  0  0  0  0
  187.0250  178.2540  147.9860 O   0  0  0  0  0  1  0  0  0  0  0  0
  186.4220  177.6150  143.0700 C   0  0  1  0  0  3  0  0  0  0  0  0
  184.0510  178.5750  145.8550 C   0  0  0  0  0  3  0  0  0  0  0  0
  186.8000  178.0340  145.5600 C   0  0  0  0  0  0  0  0  0  0  0  0
  187.9010  177.1890  142.9440 C   0  0  1  0  0  3  0  0  0  0  0  0
  187.3400  179.0160  139.9560 O   0  0  0  0  0  0  0  0  0  0  0  0
  188.3000  177.6240  141.6110 N   0  0  0  0  0  0  0  0  0  0  0  0
  190.9770  176.8570  139.1560 C   0  0  0  0  0  2  0  0  0  0  0  0
  191.0050  178.9440  142.1540 C   0  0  0  0  0  1  0  0  0  0  0  0
  184.5750  178.2750  144.5990 C   0  0  0  0  0  3  0  0  0  0  0  0
  185.9390  178.0000  144.4410 C   0  0  0  0  0  0  0  0  0  0  0  0
  190.9640  177.4870  142.6100 C   0  0  2  0  0  3  0  0  0  0  0  0
  190.2480  176.3360  147.0120 C   0  0  0  0  0  2  0  0  0  0  0  0
  192.1090  174.8790  147.1240 F   0  0  0  0  0  0  0  0  0  0  0  0
  191.5430  175.9900  147.7190 C   0  0  0  0  0  2  0  0  0  0  0  0
  1 19  1  6  0  0  0
  1  5  1  0  0  0  0
  2 13  1  0  0  0  0
  2 16  1  0  0  0  0
  3 17  1  0  0  0  0
  4  1  1  0  0  0  0
  5 11  1  0  0  0  0
  7 27  1  0  0  0  0
  8  6  1  0  0  0  0
  8 11  1  0  0  0  0
  9  7  1  0  0  0  0
  9 22  1  0  0  0  0
 10 22  1  0  0  0  0
 10  3  1  0  0  0  0
 11 28  1  0  0  0  0
 12  4  1  0  0  0  0
 12  8  1  0  0  0  0
 14  9  1  0  0  0  0
 15  7  1  0  0  0  0
 17 26  1  0  0  0  0
 18 13  2  0  0  0  0
 19  2  2  0  0  0  0
 20 17  1  0  0  0  0
 20  4  1  0  0  0  0
 21 10  2  0  0  0  0
 22 20  1  0  0  0  0
 23 14  1  0  0  0  0
 23 15  1  0  0  0  0
 24 27  1  0  0  0  0
 25 18  1  0  0  0  0
 26 25  2  0  0  0  0
 26 19  1  0  0  0  0
 27 12  1  0  0  0  0
 28 30  1  0  0  0  0
 29 30  1  0  0  0  0
M  END
>  <MODEL>
6

>  <REMARK>
 VINA RESULT:      -7.3      2.133      5.989
  Name = 
  2 active torsions:
  status: ('A' for Active; 'I' for Inactive)
    1  A    between atoms: C_11  and  C_28
    2  A    between atoms: C_28  and  C_30
                            x       y       z     vdW  Elec       q    Type
                         _______ _______ _______ _____ _____    ______ ____

>  <TORSDO>
F 2

$$$$
