=
 OpenBabel11122411503D

 28 32  0  0  1  0  0  0  0  0999 V2000
  183.6280  176.8090  138.8370 C   0  0  0  0  0  0  0  0  0  0  0  0
  186.4750  177.4310  142.3870 O   0  0  0  0  0  0  0  0  0  0  0  0
  178.9350  180.0580  140.7220 C   0  0  0  0  0  1  0  0  0  0  0  0
  185.2160  179.0300  138.2230 C   0  0  0  0  0  3  0  0  0  0  0  0
  180.4050  179.5600  142.6830 C   0  0  2  0  0  3  0  0  0  0  0  0
  182.6380  175.7100  139.0610 C   0  0  0  0  0  2  0  0  0  0  0  0
  185.9110  179.7530  141.7620 O   0  0  0  0  0  0  0  0  0  0  0  0
  185.5450  178.5850  142.6320 S   0  0  0  0  0  0  0  0  0  0  0  0
  184.4090  178.5390  145.1210 C   0  0  1  0  0  3  0  0  0  0  0  0
  183.8500  178.0860  142.4590 C   0  0  1  0  0  3  0  0  0  0  0  0
  178.9310  176.1950  138.9410 O   0  0  0  0  0  1  0  0  0  0  0  0
  181.8840  178.5540  141.2080 C   0  0  2  0  0  3  0  0  0  0  0  0
  183.0870  179.0000  144.6410 N   0  0  0  0  0  2  0  0  0  0  0  0
  185.6060  179.1140  144.3390 C   0  0  0  0  0  2  0  0  0  0  0  0
  180.1560  175.8790  139.5290 C   0  0  2  0  0  3  0  0  0  0  0  0
  183.8410  177.8070  139.8120 C   0  0  0  0  0  0  0  0  0  0  0  0
  179.5720  178.9500  141.5360 C   0  0  2  0  0  3  0  0  0  0  0  0
  184.5570  178.8720  146.5900 C   0  0  0  0  0  1  0  0  0  0  0  0
  180.3050  176.6390  140.8490 C   0  0  0  0  0  2  0  0  0  0  0  0
  184.6030  178.9320  139.4740 C   0  0  0  0  0  3  0  0  0  0  0  0
  184.2430  176.9130  137.5840 C   0  0  0  0  0  3  0  0  0  0  0  0
  185.0470  178.0140  137.2830 C   0  0  0  0  0  3  0  0  0  0  0  0
  181.2810  176.1610  138.5360 C   0  0  0  0  0  2  0  0  0  0  0  0
  181.6290  178.6940  142.6630 C   0  0  1  0  0  3  0  0  0  0  0  0
  180.5400  178.1390  140.6500 C   0  0  2  0  0  3  0  0  0  0  0  0
  182.9780  179.1100  143.1770 C   0  0  2  0  0  3  0  0  0  0  0  0
  179.6730  179.3950  144.0000 C   0  0  0  0  0  1  0  0  0  0  0  0
  183.1340  177.7050  141.1400 C   0  0  1  0  0  3  0  0  0  0  0  0
  1  6  1  0  0  0  0
  1 16  1  0  0  0  0
  2  8  2  0  0  0  0
  3 17  1  0  0  0  0
  4 20  1  0  0  0  0
  5 27  1  1  0  0  0
  7  8  2  0  0  0  0
  8 14  1  0  0  0  0
  9 18  1  1  0  0  0
 10  8  1  6  0  0  0
 10 26  1  0  0  0  0
 11 15  1  0  0  0  0
 12 24  1  0  0  0  0
 13  9  1  0  0  0  0
 14  9  1  0  0  0  0
 15 19  1  0  0  0  0
 16 28  1  0  0  0  0
 17  5  1  0  0  0  0
 20 16  2  0  0  0  0
 21  1  2  0  0  0  0
 22 21  1  0  0  0  0
 22  4  2  0  0  0  0
 23  6  1  0  0  0  0
 23 15  1  0  0  0  0
 24  5  1  0  0  0  0
 24 26  1  0  0  0  0
 25 19  1  0  0  0  0
 25 12  1  0  0  0  0
 25 17  1  0  0  0  0
 26 13  1  0  0  0  0
 28 12  1  0  0  0  0
 28 10  1  0  0  0  0
M  END
>  <MODEL>
1

>  <REMARK>
 VINA RESULT:      -6.1      0.000      0.000
  Name = 
  0 active torsions:
  status: ('A' for Active; 'I' for Inactive)
                            x       y       z     vdW  Elec       q    Type
                         _______ _______ _______ _____ _____    ______ ____

>  <TORSDO>
F 0

$$$$
=
 OpenBabel11122411503D

 28 32  0  0  1  0  0  0  0  0999 V2000
  191.2280  174.9040  137.7980 C   0  0  0  0  0  0  0  0  0  0  0  0
  190.9220  175.7430  142.3040 O   0  0  0  0  0  0  0  0  0  0  0  0
  187.2750  178.9400  135.7450 C   0  0  0  0  0  1  0  0  0  0  0  0
  193.1980  176.7970  138.4060 C   0  0  0  0  0  3  0  0  0  0  0  0
  186.8690  178.5910  138.1890 C   0  0  2  0  0  3  0  0  0  0  0  0
  190.1650  173.9780  137.2970 C   0  0  0  0  0  2  0  0  0  0  0  0
  191.4060  177.9860  141.3900 O   0  0  0  0  0  0  0  0  0  0  0  0
  190.3260  177.0220  141.7900 S   0  0  0  0  0  0  0  0  0  0  0  0
  187.8160  177.5060  142.7650 C   0  0  1  0  0  3  0  0  0  0  0  0
  189.1560  176.7050  140.4920 C   0  0  1  0  0  3  0  0  0  0  0  0
  187.7360  174.8710  134.5950 O   0  0  0  0  0  1  0  0  0  0  0  0
  188.7220  177.1970  138.2080 C   0  0  2  0  0  3  0  0  0  0  0  0
  187.3050  178.0370  141.4820 N   0  0  0  0  0  2  0  0  0  0  0  0
  189.3040  177.8050  143.0300 C   0  0  0  0  0  2  0  0  0  0  0  0
  188.1340  174.5110  135.8830 C   0  0  2  0  0  3  0  0  0  0  0  0
  190.9050  176.0120  138.6100 C   0  0  0  0  0  0  0  0  0  0  0  0
  186.9490  177.9080  136.8070 C   0  0  2  0  0  3  0  0  0  0  0  0
  186.9800  178.0480  143.9050 C   0  0  0  0  0  1  0  0  0  0  0  0
  187.4840  175.4470  136.9040 C   0  0  0  0  0  2  0  0  0  0  0  0
  191.8920  176.9720  138.8690 C   0  0  0  0  0  3  0  0  0  0  0  0
  192.5380  174.7350  137.3340 C   0  0  0  0  0  3  0  0  0  0  0  0
  193.5240  175.6720  137.6490 C   0  0  0  0  0  3  0  0  0  0  0  0
  189.6580  174.4970  135.9580 C   0  0  0  0  0  2  0  0  0  0  0  0
  187.5740  177.5950  139.0610 C   0  0  1  0  0  3  0  0  0  0  0  0
  188.0770  176.8590  136.8810 C   0  0  2  0  0  3  0  0  0  0  0  0
  188.2520  177.9260  140.3600 C   0  0  2  0  0  3  0  0  0  0  0  0
  185.4210  178.7240  138.6180 C   0  0  0  0  0  1  0  0  0  0  0  0
  189.4810  176.2060  139.0630 C   0  0  1  0  0  3  0  0  0  0  0  0
  1 16  1  0  0  0  0
  3 17  1  0  0  0  0
  4 20  1  0  0  0  0
  5 27  1  1  0  0  0
  5 24  1  0  0  0  0
  6  1  1  0  0  0  0
  7  8  2  0  0  0  0
  8  2  2  0  0  0  0
  8 14  1  0  0  0  0
  9 14  1  0  0  0  0
  9 18  1  1  0  0  0
 10  8  1  6  0  0  0
 11 15  1  0  0  0  0
 12 24  1  0  0  0  0
 12 28  1  0  0  0  0
 13  9  1  0  0  0  0
 15 23  1  0  0  0  0
 15 19  1  0  0  0  0
 16 20  2  0  0  0  0
 16 28  1  0  0  0  0
 17 25  1  0  0  0  0
 17  5  1  0  0  0  0
 21 22  1  0  0  0  0
 21  1  2  0  0  0  0
 22  4  2  0  0  0  0
 23  6  1  0  0  0  0
 24 26  1  0  0  0  0
 25 19  1  0  0  0  0
 25 12  1  0  0  0  0
 26 10  1  0  0  0  0
 26 13  1  0  0  0  0
 28 10  1  0  0  0  0
M  END
>  <MODEL>
2

>  <REMARK>
 VINA RESULT:      -5.8      5.289      7.413
  Name = 
  0 active torsions:
  status: ('A' for Active; 'I' for Inactive)
                            x       y       z     vdW  Elec       q    Type
                         _______ _______ _______ _____ _____    ______ ____

>  <TORSDO>
F 0

$$$$
=
 OpenBabel11122411503D

 28 32  0  0  1  0  0  0  0  0999 V2000
  184.2070  176.3940  138.1550 C   0  0  0  0  0  0  0  0  0  0  0  0
  186.3790  177.5200  142.0420 O   0  0  0  0  0  0  0  0  0  0  0  0
  179.0230  179.3170  139.0090 C   0  0  0  0  0  1  0  0  0  0  0  0
  185.6900  178.7060  137.6150 C   0  0  0  0  0  3  0  0  0  0  0  0
  180.1900  179.0930  141.2100 C   0  0  2  0  0  3  0  0  0  0  0  0
  183.2840  175.2260  138.3110 C   0  0  0  0  0  2  0  0  0  0  0  0
  185.7390  179.7310  141.1470 O   0  0  0  0  0  0  0  0  0  0  0  0
  185.3310  178.5960  142.0430 S   0  0  0  0  0  0  0  0  0  0  0  0
  183.8130  178.6160  144.3190 C   0  0  1  0  0  3  0  0  0  0  0  0
  183.7330  177.9320  141.6490 C   0  0  1  0  0  3  0  0  0  0  0  0
  179.6190  175.3570  137.5740 O   0  0  0  0  0  1  0  0  0  0  0  0
  181.9660  178.1300  140.0720 C   0  0  2  0  0  3  0  0  0  0  0  0
  182.5540  178.9190  143.6020 N   0  0  0  0  0  2  0  0  0  0  0  0
  185.0710  179.2450  143.6880 C   0  0  0  0  0  2  0  0  0  0  0  0
  180.7540  175.1970  138.3700 C   0  0  2  0  0  3  0  0  0  0  0  0
  184.1760  177.4730  139.0650 C   0  0  0  0  0  0  0  0  0  0  0  0
  179.6060  178.3310  140.0020 C   0  0  2  0  0  3  0  0  0  0  0  0
  183.6930  179.0620  145.7600 C   0  0  0  0  0  1  0  0  0  0  0  0
  180.6250  176.0560  139.6300 C   0  0  0  0  0  2  0  0  0  0  0  0
  184.8900  178.6370  138.7590 C   0  0  0  0  0  3  0  0  0  0  0  0
  185.0070  176.4690  137.0080 C   0  0  0  0  0  3  0  0  0  0  0  0
  185.7580  177.6160  136.7470 C   0  0  0  0  0  3  0  0  0  0  0  0
  182.0000  175.5130  137.5460 C   0  0  0  0  0  2  0  0  0  0  0  0
  181.4670  178.3450  141.4530 C   0  0  1  0  0  3  0  0  0  0  0  0
  180.7680  177.5540  139.3480 C   0  0  2  0  0  3  0  0  0  0  0  0
  182.6760  178.9180  142.1350 C   0  0  2  0  0  3  0  0  0  0  0  0
  179.2690  178.9510  142.4060 C   0  0  0  0  0  1  0  0  0  0  0  0
  183.2740  177.3970  140.2700 C   0  0  1  0  0  3  0  0  0  0  0  0
  1  6  1  0  0  0  0
  1 16  1  0  0  0  0
  2  8  2  0  0  0  0
  3 17  1  0  0  0  0
  4 20  1  0  0  0  0
  5 24  1  0  0  0  0
  5 27  1  1  0  0  0
  7  8  2  0  0  0  0
  8 14  1  0  0  0  0
  9 18  1  1  0  0  0
 10  8  1  6  0  0  0
 10 26  1  0  0  0  0
 11 15  1  0  0  0  0
 12 28  1  0  0  0  0
 12 24  1  0  0  0  0
 13  9  1  0  0  0  0
 14  9  1  0  0  0  0
 15 19  1  0  0  0  0
 16 28  1  0  0  0  0
 17  5  1  0  0  0  0
 20 16  2  0  0  0  0
 21  1  2  0  0  0  0
 22 21  1  0  0  0  0
 22  4  2  0  0  0  0
 23  6  1  0  0  0  0
 23 15  1  0  0  0  0
 24 26  1  0  0  0  0
 25 19  1  0  0  0  0
 25 17  1  0  0  0  0
 25 12  1  0  0  0  0
 26 13  1  0  0  0  0
 28 10  1  0  0  0  0
M  END
>  <MODEL>
3

>  <REMARK>
 VINA RESULT:      -5.7      1.052      1.203
  Name = 
  0 active torsions:
  status: ('A' for Active; 'I' for Inactive)
                            x       y       z     vdW  Elec       q    Type
                         _______ _______ _______ _____ _____    ______ ____

>  <TORSDO>
F 0

$$$$
=
 OpenBabel11122411503D

 28 32  0  0  1  0  0  0  0  0999 V2000
  186.4650  174.8850  136.4350 C   0  0  0  0  0  0  0  0  0  0  0  0
  182.3080  174.2280  134.5950 O   0  0  0  0  0  0  0  0  0  0  0  0
  185.0780  178.9440  140.6460 C   0  0  0  0  0  1  0  0  0  0  0  0
  185.3060  172.7320  137.7980 C   0  0  0  0  0  3  0  0  0  0  0  0
  183.2270  178.8670  138.9660 C   0  0  2  0  0  3  0  0  0  0  0  0
  187.1760  176.0770  135.8760 C   0  0  0  0  0  2  0  0  0  0  0  0
  181.8850  173.8160  136.9930 O   0  0  0  0  0  0  0  0  0  0  0  0
  181.8890  174.8450  135.8980 S   0  0  0  0  0  0  0  0  0  0  0  0
  180.3370  177.0750  135.5810 C   0  0  1  0  0  3  0  0  0  0  0  0
  182.8790  176.2680  136.2790 C   0  0  1  0  0  3  0  0  0  0  0  0
  188.3720  178.9480  137.9530 O   0  0  0  0  0  1  0  0  0  0  0  0
  184.3570  177.1280  137.9300 C   0  0  2  0  0  3  0  0  0  0  0  0
  180.9720  177.8050  136.7020 N   0  0  0  0  0  2  0  0  0  0  0  0
  180.2500  175.5500  135.7840 C   0  0  0  0  0  2  0  0  0  0  0  0
  187.6150  178.3190  136.9640 C   0  0  2  0  0  3  0  0  0  0  0  0
  185.1280  174.9760  136.8770 C   0  0  0  0  0  0  0  0  0  0  0  0
  184.7370  179.1050  139.1780 C   0  0  2  0  0  3  0  0  0  0  0  0
  178.9510  177.6330  135.3370 C   0  0  0  0  0  1  0  0  0  0  0  0
  186.1410  178.6980  137.1250 C   0  0  0  0  0  2  0  0  0  0  0  0
  184.5780  173.9060  137.5940 C   0  0  0  0  0  3  0  0  0  0  0  0
  187.1920  173.7070  136.6440 C   0  0  0  0  0  3  0  0  0  0  0  0
  186.6090  172.6280  137.3110 C   0  0  0  0  0  3  0  0  0  0  0  0
  187.8640  176.8140  137.0170 C   0  0  0  0  0  2  0  0  0  0  0  0
  183.2210  178.0560  137.7050 C   0  0  1  0  0  3  0  0  0  0  0  0
  185.4870  178.0440  138.3460 C   0  0  2  0  0  3  0  0  0  0  0  0
  182.1240  177.1120  137.3000 C   0  0  2  0  0  3  0  0  0  0  0  0
  182.5210  180.1890  138.7370 C   0  0  0  0  0  1  0  0  0  0  0  0
  184.3730  176.2670  136.6860 C   0  0  1  0  0  3  0  0  0  0  0  0
  1 21  2  0  0  0  0
  1 16  1  0  0  0  0
  2  8  2  0  0  0  0
  5 27  1  6  0  0  0
  5 17  1  0  0  0  0
  6  1  1  0  0  0  0
  6 23  1  0  0  0  0
  8  7  2  0  0  0  0
  9 18  1  1  0  0  0
  9 14  1  0  0  0  0
  9 13  1  0  0  0  0
 10  8  1  1  0  0  0
 10 28  1  0  0  0  0
 10 26  1  0  0  0  0
 12 25  1  0  0  0  0
 13 26  1  0  0  0  0
 14  8  1  0  0  0  0
 15 23  1  0  0  0  0
 15 19  1  0  0  0  0
 15 11  1  0  0  0  0
 16 20  2  0  0  0  0
 17  3  1  0  0  0  0
 19 25  1  0  0  0  0
 20  4  1  0  0  0  0
 21 22  1  0  0  0  0
 22  4  2  0  0  0  0
 24 12  1  0  0  0  0
 24  5  1  0  0  0  0
 25 17  1  0  0  0  0
 26 24  1  0  0  0  0
 28 16  1  0  0  0  0
 28 12  1  0  0  0  0
M  END
>  <MODEL>
4

>  <REMARK>
 VINA RESULT:      -5.5      4.077      7.196
  Name = 
  0 active torsions:
  status: ('A' for Active; 'I' for Inactive)
                            x       y       z     vdW  Elec       q    Type
                         _______ _______ _______ _____ _____    ______ ____

>  <TORSDO>
F 0

$$$$
=
 OpenBabel11122411503D

 28 32  0  0  1  0  0  0  0  0999 V2000
  182.8690  177.9260  136.6580 C   0  0  0  0  0  0  0  0  0  0  0  0
  187.1840  179.4870  136.8480 O   0  0  0  0  0  0  0  0  0  0  0  0
  183.8680  172.0720  137.5930 C   0  0  0  0  0  1  0  0  0  0  0  0
  183.3460  178.6690  139.3140 C   0  0  0  0  0  3  0  0  0  0  0  0
  186.0180  173.1540  136.9130 C   0  0  2  0  0  3  0  0  0  0  0  0
  182.4940  177.3910  135.3120 C   0  0  0  0  0  2  0  0  0  0  0  0
  186.9840  178.2530  138.9790 O   0  0  0  0  0  0  0  0  0  0  0  0
  187.3860  178.1660  137.5340 S   0  0  0  0  0  0  0  0  0  0  0  0
  189.2920  176.6130  136.3340 C   0  0  1  0  0  3  0  0  0  0  0  0
  186.5650  176.8590  136.6570 C   0  0  1  0  0  3  0  0  0  0  0  0
  181.3110  173.8910  134.7210 O   0  0  0  0  0  1  0  0  0  0  0  0
  184.9000  175.1850  136.9300 C   0  0  2  0  0  3  0  0  0  0  0  0
  188.5380  175.3540  136.5270 N   0  0  0  0  0  2  0  0  0  0  0  0
  189.0960  177.6510  137.4560 C   0  0  0  0  0  2  0  0  0  0  0  0
  182.1680  174.9860  134.5940 C   0  0  2  0  0  3  0  0  0  0  0  0
  184.0690  177.5330  137.2890 C   0  0  0  0  0  0  0  0  0  0  0  0
  184.5540  172.8800  136.5090 C   0  0  2  0  0  3  0  0  0  0  0  0
  190.7650  176.3020  136.1840 C   0  0  0  0  0  1  0  0  0  0  0  0
  183.6070  174.5490  134.8760 C   0  0  0  0  0  2  0  0  0  0  0  0
  184.2720  177.8780  138.6310 C   0  0  0  0  0  3  0  0  0  0  0  0
  181.9420  178.7160  137.3490 C   0  0  0  0  0  3  0  0  0  0  0  0
  182.1870  179.0990  138.6680 C   0  0  0  0  0  3  0  0  0  0  0  0
  181.6860  176.1140  135.5020 C   0  0  0  0  0  2  0  0  0  0  0  0
  186.1850  174.5850  136.4950 C   0  0  1  0  0  3  0  0  0  0  0  0
  183.8590  174.2490  136.3570 C   0  0  2  0  0  3  0  0  0  0  0  0
  187.1880  175.5350  137.0850 C   0  0  2  0  0  3  0  0  0  0  0  0
  186.9510  172.2660  136.1140 C   0  0  0  0  0  1  0  0  0  0  0  0
  185.0350  176.6430  136.5500 C   0  0  1  0  0  3  0  0  0  0  0  0
  1 16  2  0  0  0  0
  1 21  1  0  0  0  0
  2  8  2  0  0  0  0
  5 27  1  6  0  0  0
  6 23  1  0  0  0  0
  6  1  1  0  0  0  0
  8  7  2  0  0  0  0
  9 18  1  1  0  0  0
  9 13  1  0  0  0  0
  9 14  1  0  0  0  0
 10 26  1  0  0  0  0
 10  8  1  1  0  0  0
 13 26  1  0  0  0  0
 14  8  1  0  0  0  0
 15 11  1  0  0  0  0
 15 19  1  0  0  0  0
 15 23  1  0  0  0  0
 16 20  1  0  0  0  0
 17  5  1  0  0  0  0
 17  3  1  0  0  0  0
 19 25  1  0  0  0  0
 20  4  2  0  0  0  0
 21 22  2  0  0  0  0
 22  4  1  0  0  0  0
 24  5  1  0  0  0  0
 24 12  1  0  0  0  0
 24 26  1  0  0  0  0
 25 17  1  0  0  0  0
 25 12  1  0  0  0  0
 28 10  1  0  0  0  0
 28 12  1  0  0  0  0
 28 16  1  0  0  0  0
M  END
>  <MODEL>
5

>  <REMARK>
 VINA RESULT:      -5.4      4.257      7.150
  Name = 
  0 active torsions:
  status: ('A' for Active; 'I' for Inactive)
                            x       y       z     vdW  Elec       q    Type
                         _______ _______ _______ _____ _____    ______ ____

>  <TORSDO>
F 0

$$$$
=
 OpenBabel11122411503D

 28 32  0  0  1  0  0  0  0  0999 V2000
  184.3520  177.4110  138.3510 C   0  0  0  0  0  0  0  0  0  0  0  0
  180.0170  178.6460  139.2320 O   0  0  0  0  0  0  0  0  0  0  0  0
  186.4300  176.9330  143.9720 C   0  0  0  0  0  1  0  0  0  0  0  0
  182.8440  175.0550  138.4610 C   0  0  0  0  0  3  0  0  0  0  0  0
  184.3200  178.2760  144.0080 C   0  0  2  0  0  3  0  0  0  0  0  0
  185.3080  178.5620  138.3630 C   0  0  0  0  0  2  0  0  0  0  0  0
  180.2520  176.5860  140.5740 O   0  0  0  0  0  0  0  0  0  0  0  0
  180.3740  178.0830  140.5780 S   0  0  0  0  0  0  0  0  0  0  0  0
  180.0130  179.8680  142.6190 C   0  0  1  0  0  3  0  0  0  0  0  0
  181.9710  178.6530  141.1050 C   0  0  1  0  0  3  0  0  0  0  0  0
  188.2880  178.7690  140.6140 O   0  0  0  0  0  1  0  0  0  0  0  0
  184.1220  177.8630  141.7350 C   0  0  2  0  0  3  0  0  0  0  0  0
  181.2360  179.4500  143.3420 N   0  0  0  0  0  2  0  0  0  0  0  0
  179.3050  178.7320  141.8560 C   0  0  0  0  0  2  0  0  0  0  0  0
  187.0530  179.1610  140.0950 C   0  0  2  0  0  3  0  0  0  0  0  0
  183.4300  177.2190  139.4030 C   0  0  0  0  0  0  0  0  0  0  0  0
  185.7470  178.1730  143.4300 C   0  0  2  0  0  3  0  0  0  0  0  0
  179.0430  180.5030  143.5930 C   0  0  0  0  0  1  0  0  0  0  0  0
  186.0590  179.3780  141.2390 C   0  0  0  0  0  2  0  0  0  0  0  0
  182.7150  176.0170  139.4650 C   0  0  0  0  0  3  0  0  0  0  0  0
  184.4800  176.4420  137.3490 C   0  0  0  0  0  3  0  0  0  0  0  0
  183.7170  175.2740  137.3950 C   0  0  0  0  0  3  0  0  0  0  0  0
  186.5840  178.1300  139.0720 C   0  0  0  0  0  2  0  0  0  0  0  0
  183.5360  178.7080  142.8060 C   0  0  1  0  0  3  0  0  0  0  0  0
  185.6120  178.0690  141.8970 C   0  0  2  0  0  3  0  0  0  0  0  0
  182.0640  178.4730  142.6160 C   0  0  2  0  0  3  0  0  0  0  0  0
  184.2690  179.3510  145.0760 C   0  0  0  0  0  1  0  0  0  0  0  0
  183.3380  178.2480  140.5010 C   0  0  1  0  0  3  0  0  0  0  0  0
  1  6  1  0  0  0  0
  1 16  1  0  0  0  0
  2  8  2  0  0  0  0
  4 20  1  0  0  0  0
  5 27  1  1  0  0  0
  6 23  1  0  0  0  0
  7  8  2  0  0  0  0
  8 14  1  0  0  0  0
  9 13  1  0  0  0  0
  9 18  1  1  0  0  0
 10  8  1  6  0  0  0
 10 26  1  0  0  0  0
 12 25  1  0  0  0  0
 12 24  1  0  0  0  0
 14  9  1  0  0  0  0
 15 11  1  0  0  0  0
 15 19  1  0  0  0  0
 16 20  2  0  0  0  0
 16 28  1  0  0  0  0
 17  3  1  0  0  0  0
 17  5  1  0  0  0  0
 19 25  1  0  0  0  0
 21 22  1  0  0  0  0
 21  1  2  0  0  0  0
 22  4  2  0  0  0  0
 23 15  1  0  0  0  0
 24  5  1  0  0  0  0
 25 17  1  0  0  0  0
 26 24  1  0  0  0  0
 26 13  1  0  0  0  0
 28 10  1  0  0  0  0
 28 12  1  0  0  0  0
M  END
>  <MODEL>
6

>  <REMARK>
 VINA RESULT:      -5.3      1.841      5.150
  Name = 
  0 active torsions:
  status: ('A' for Active; 'I' for Inactive)
                            x       y       z     vdW  Elec       q    Type
                         _______ _______ _______ _____ _____    ______ ____

>  <TORSDO>
F 0

$$$$
=
 OpenBabel11122411503D

 28 32  0  0  1  0  0  0  0  0999 V2000
  185.1570  178.9340  144.2180 C   0  0  0  0  0  0  0  0  0  0  0  0
  189.0010  179.4690  141.7610 O   0  0  0  0  0  0  0  0  0  0  0  0
  181.8050  175.9500  140.2180 C   0  0  0  0  0  1  0  0  0  0  0  0
  186.8080  176.7530  144.8100 C   0  0  0  0  0  3  0  0  0  0  0  0
  183.7030  177.0480  139.0140 C   0  0  2  0  0  3  0  0  0  0  0  0
  184.1230  179.9770  143.9310 C   0  0  0  0  0  2  0  0  0  0  0  0
  188.6370  177.0290  141.6310 O   0  0  0  0  0  0  0  0  0  0  0  0
  188.3760  178.3530  140.9720 S   0  0  0  0  0  0  0  0  0  0  0  0
  188.0480  178.9610  138.3250 C   0  0  1  0  0  3  0  0  0  0  0  0
  186.6510  178.6630  140.6840 C   0  0  1  0  0  3  0  0  0  0  0  0
  180.6720  179.2050  142.7110 O   0  0  0  0  0  1  0  0  0  0  0  0
  184.4970  177.7420  141.0790 C   0  0  2  0  0  3  0  0  0  0  0  0
  186.7300  178.2950  138.2270 N   0  0  0  0  0  2  0  0  0  0  0  0
  189.0270  178.2920  139.3080 C   0  0  0  0  0  2  0  0  0  0  0  0
  181.9540  179.7530  142.6460 C   0  0  2  0  0  3  0  0  0  0  0  0
  185.8040  178.2420  143.1710 C   0  0  0  0  0  0  0  0  0  0  0  0
  182.4800  177.2760  139.9280 C   0  0  2  0  0  3  0  0  0  0  0  0
  188.6800  179.0340  136.9520 C   0  0  0  0  0  1  0  0  0  0  0  0
  182.6080  179.3760  141.3150 C   0  0  0  0  0  2  0  0  0  0  0  0
  186.5920  177.1280  143.4820 C   0  0  0  0  0  3  0  0  0  0  0  0
  185.3750  178.5530  145.5470 C   0  0  0  0  0  3  0  0  0  0  0  0
  186.2100  177.4740  145.8430 C   0  0  0  0  0  3  0  0  0  0  0  0
  182.7580  179.3060  143.8650 C   0  0  0  0  0  2  0  0  0  0  0  0
  184.7160  177.9670  139.6290 C   0  0  1  0  0  3  0  0  0  0  0  0
  183.0000  177.8970  141.2400 C   0  0  2  0  0  3  0  0  0  0  0  0
  186.2040  177.8000  139.5090 C   0  0  2  0  0  3  0  0  0  0  0  0
  183.3840  177.4960  137.6010 C   0  0  0  0  0  1  0  0  0  0  0  0
  185.5220  178.6340  141.7430 C   0  0  1  0  0  3  0  0  0  0  0  0
  1 21  1  0  0  0  0
  4 22  1  0  0  0  0
  5 27  1  6  0  0  0
  5 24  1  0  0  0  0
  5 17  1  0  0  0  0
  6  1  1  0  0  0  0
  8  7  2  0  0  0  0
  8  2  2  0  0  0  0
  9 18  1  6  0  0  0
  9 14  1  0  0  0  0
 10  8  1  1  0  0  0
 10 28  1  0  0  0  0
 12 25  1  0  0  0  0
 12 28  1  0  0  0  0
 13  9  1  0  0  0  0
 13 26  1  0  0  0  0
 14  8  1  0  0  0  0
 15 11  1  0  0  0  0
 15 23  1  0  0  0  0
 16 20  1  0  0  0  0
 16  1  2  0  0  0  0
 17  3  1  0  0  0  0
 17 25  1  0  0  0  0
 19 15  1  0  0  0  0
 20  4  2  0  0  0  0
 21 22  2  0  0  0  0
 23  6  1  0  0  0  0
 24 12  1  0  0  0  0
 25 19  1  0  0  0  0
 26 24  1  0  0  0  0
 26 10  1  0  0  0  0
 28 16  1  0  0  0  0
M  END
>  <MODEL>
7

>  <REMARK>
 VINA RESULT:      -5.2      2.627      5.744
  Name = 
  0 active torsions:
  status: ('A' for Active; 'I' for Inactive)
                            x       y       z     vdW  Elec       q    Type
                         _______ _______ _______ _____ _____    ______ ____

>  <TORSDO>
F 0

$$$$
=
 OpenBabel11122411503D

 28 32  0  0  1  0  0  0  0  0999 V2000
  188.6880  177.0840  138.2000 C   0  0  0  0  0  0  0  0  0  0  0  0
  185.9120  173.5580  137.2210 O   0  0  0  0  0  0  0  0  0  0  0  0
  193.3140  175.7630  134.5950 C   0  0  0  0  0  1  0  0  0  0  0  0
  187.0090  177.9250  136.1230 C   0  0  0  0  0  3  0  0  0  0  0  0
  191.9120  173.7110  134.8860 C   0  0  2  0  0  3  0  0  0  0  0  0
  189.7210  176.7540  139.2300 C   0  0  0  0  0  2  0  0  0  0  0  0
  186.3810  174.4870  134.9810 O   0  0  0  0  0  0  0  0  0  0  0  0
  186.8090  173.4870  136.0180 S   0  0  0  0  0  0  0  0  0  0  0  0
  188.0080  171.0480  135.7140 C   0  0  1  0  0  3  0  0  0  0  0  0
  188.5150  173.6470  136.4820 C   0  0  1  0  0  3  0  0  0  0  0  0
  193.4050  177.0440  138.6500 O   0  0  0  0  0  1  0  0  0  0  0  0
  190.4310  175.0050  136.1150 C   0  0  2  0  0  3  0  0  0  0  0  0
  189.3020  171.6200  135.2770 N   0  0  0  0  0  2  0  0  0  0  0  0
  186.7730  171.8600  135.2790 C   0  0  0  0  0  2  0  0  0  0  0  0
  192.2070  176.3850  138.9270 C   0  0  2  0  0  3  0  0  0  0  0  0
  188.4660  176.2370  137.0930 C   0  0  0  0  0  0  0  0  0  0  0  0
  192.7360  174.7970  135.6100 C   0  0  2  0  0  3  0  0  0  0  0  0
  187.8860  169.6280  135.2020 C   0  0  0  0  0  1  0  0  0  0  0  0
  192.0650  175.1670  138.0110 C   0  0  0  0  0  2  0  0  0  0  0  0
  187.6580  176.6910  136.0440 C   0  0  0  0  0  3  0  0  0  0  0  0
  188.0380  178.3220  138.2730 C   0  0  0  0  0  3  0  0  0  0  0  0
  187.1900  178.7360  137.2450 C   0  0  0  0  0  3  0  0  0  0  0  0
  191.0470  177.3710  138.8080 C   0  0  0  0  0  2  0  0  0  0  0  0
  190.7180  173.5860  135.7850 C   0  0  1  0  0  3  0  0  0  0  0  0
  191.7740  175.5450  136.5560 C   0  0  2  0  0  3  0  0  0  0  0  0
  189.3690  173.0890  135.3490 C   0  0  2  0  0  3  0  0  0  0  0  0
  192.6830  172.4060  134.8610 C   0  0  0  0  0  1  0  0  0  0  0  0
  189.2100  174.9280  137.0040 C   0  0  1  0  0  3  0  0  0  0  0  0
  1 21  1  0  0  0  0
  1  6  1  0  0  0  0
  3 17  1  0  0  0  0
  4 22  1  0  0  0  0
  5 27  1  1  0  0  0
  5 17  1  0  0  0  0
  5 24  1  0  0  0  0
  7  8  2  0  0  0  0
  8  2  2  0  0  0  0
  9 18  1  6  0  0  0
 10  8  1  6  0  0  0
 10 28  1  0  0  0  0
 11 15  1  0  0  0  0
 12 25  1  0  0  0  0
 12 28  1  0  0  0  0
 13 26  1  0  0  0  0
 13  9  1  0  0  0  0
 14  9  1  0  0  0  0
 14  8  1  0  0  0  0
 16  1  2  0  0  0  0
 17 25  1  0  0  0  0
 19 15  1  0  0  0  0
 20  4  2  0  0  0  0
 20 16  1  0  0  0  0
 22 21  2  0  0  0  0
 23 15  1  0  0  0  0
 23  6  1  0  0  0  0
 24 12  1  0  0  0  0
 25 19  1  0  0  0  0
 26 24  1  0  0  0  0
 26 10  1  0  0  0  0
 28 16  1  0  0  0  0
M  END
>  <MODEL>
8

>  <REMARK>
 VINA RESULT:      -5.0      7.282     10.966
  Name = 
  0 active torsions:
  status: ('A' for Active; 'I' for Inactive)
                            x       y       z     vdW  Elec       q    Type
                         _______ _______ _______ _____ _____    ______ ____

>  <TORSDO>
F 0

$$$$
=
 OpenBabel11122411503D

 28 32  0  0  1  0  0  0  0  0999 V2000
  181.1130  179.3950  137.9870 C   0  0  0  0  0  0  0  0  0  0  0  0
  178.9630  175.5790  136.6050 O   0  0  0  0  0  0  0  0  0  0  0  0
  186.7840  177.8940  136.6730 C   0  0  0  0  0  1  0  0  0  0  0  0
  180.3600  179.8090  135.3230 C   0  0  0  0  0  3  0  0  0  0  0  0
  185.3970  175.8140  136.7340 C   0  0  2  0  0  3  0  0  0  0  0  0
  181.6700  179.2890  139.3720 C   0  0  0  0  0  2  0  0  0  0  0  0
  180.2520  176.2060  134.5940 O   0  0  0  0  0  0  0  0  0  0  0  0
  180.2550  175.3990  135.8600 S   0  0  0  0  0  0  0  0  0  0  0  0
  181.5010  173.0310  136.4300 C   0  0  1  0  0  3  0  0  0  0  0  0
  181.6480  175.7430  136.9060 C   0  0  1  0  0  3  0  0  0  0  0  0
  185.2900  179.7500  140.1980 O   0  0  0  0  0  1  0  0  0  0  0  0
  183.5440  177.1640  137.0830 C   0  0  2  0  0  3  0  0  0  0  0  0
  182.8570  173.6230  136.4310 N   0  0  0  0  0  2  0  0  0  0  0  0
  180.5220  173.6830  135.4340 C   0  0  0  0  0  2  0  0  0  0  0  0
  184.0830  179.0550  140.0990 C   0  0  2  0  0  3  0  0  0  0  0  0
  181.3440  178.3830  137.0300 C   0  0  0  0  0  0  0  0  0  0  0  0
  185.8670  177.0470  137.5330 C   0  0  2  0  0  3  0  0  0  0  0  0
  181.5990  171.5470  136.1440 C   0  0  0  0  0  1  0  0  0  0  0  0
  184.3180  177.7110  139.4060 C   0  0  0  0  0  2  0  0  0  0  0  0
  180.9990  178.6240  135.6950 C   0  0  0  0  0  3  0  0  0  0  0  0
  180.4740  180.5820  137.6090 C   0  0  0  0  0  3  0  0  0  0  0  0
  180.0850  180.7820  136.2840 C   0  0  0  0  0  3  0  0  0  0  0  0
  183.0520  179.9300  139.3920 C   0  0  0  0  0  2  0  0  0  0  0  0
  183.9500  175.7360  137.1180 C   0  0  1  0  0  3  0  0  0  0  0  0
  184.6080  177.8540  137.9090 C   0  0  2  0  0  3  0  0  0  0  0  0
  182.8780  175.0880  136.2880 C   0  0  2  0  0  3  0  0  0  0  0  0
  186.1290  174.5760  137.2120 C   0  0  0  0  0  1  0  0  0  0  0  0
  182.0750  177.1310  137.4420 C   0  0  1  0  0  3  0  0  0  0  0  0
  1  6  1  0  0  0  0
  3 17  1  0  0  0  0
  4 20  2  0  0  0  0
  4 22  1  0  0  0  0
  5 24  1  0  0  0  0
  5 27  1  1  0  0  0
  5 17  1  0  0  0  0
  6 23  1  0  0  0  0
  7  8  2  0  0  0  0
  8  2  2  0  0  0  0
  9 18  1  6  0  0  0
  9 13  1  0  0  0  0
 10  8  1  6  0  0  0
 10 28  1  0  0  0  0
 12 24  1  0  0  0  0
 12 28  1  0  0  0  0
 12 25  1  0  0  0  0
 14  8  1  0  0  0  0
 14  9  1  0  0  0  0
 15 11  1  0  0  0  0
 16 28  1  0  0  0  0
 16  1  2  0  0  0  0
 17 25  1  0  0  0  0
 19 15  1  0  0  0  0
 20 16  1  0  0  0  0
 21  1  1  0  0  0  0
 22 21  2  0  0  0  0
 23 15  1  0  0  0  0
 25 19  1  0  0  0  0
 26 13  1  0  0  0  0
 26 10  1  0  0  0  0
 26 24  1  0  0  0  0
M  END
>  <MODEL>
9

>  <REMARK>
 VINA RESULT:      -4.8      3.875      7.580
  Name = 
  0 active torsions:
  status: ('A' for Active; 'I' for Inactive)
                            x       y       z     vdW  Elec       q    Type
                         _______ _______ _______ _____ _____    ______ ____

>  <TORSDO>
F 0

$$$$
