=
 OpenBabel11122410353D

 32 38  0  0  1  0  0  0  0  0999 V2000
  191.1710  174.9850  138.0280 N   0  0  2  0  0  0  0  0  0  0  0  0
  188.8750  177.8480  141.4350 C   0  0  0  0  0  0  0  0  0  0  0  0
  191.7960  176.7680  145.1980 C   0  0  0  0  0  3  0  0  0  0  0  0
  190.7180  176.8690  146.0750 C   0  0  0  0  0  3  0  0  0  0  0  0
  186.5310  178.4730  141.8970 C   0  0  1  0  0  3  0  0  0  0  0  0
  185.4760  178.6410  142.8990 C   0  0  2  0  0  3  0  0  0  0  0  0
  189.7220  177.3310  139.0930 C   0  0  1  0  0  3  0  0  0  0  0  0
  191.2790  177.2660  141.0190 C   0  0  0  0  0  3  0  0  0  0  0  0
  184.6610  178.7320  144.9830 C   0  0  0  0  0  0  0  0  0  0  0  0
  192.3170  176.8670  138.8410 C   0  0  0  0  0  2  0  0  0  0  0  0
  191.6010  176.9760  143.8330 C   0  0  0  0  0  3  0  0  0  0  0  0
  190.1430  177.4830  141.9460 C   0  0  0  0  0  0  0  0  0  0  0  0
  190.3280  177.2940  143.3230 C   0  0  0  0  0  0  0  0  0  0  0  0
  187.9430  177.6910  143.7110 C   0  0  0  0  0  0  0  0  0  0  0  0
  184.2390  179.7550  144.3190 N   0  0  0  0  0  0  0  0  0  0  0  0
  189.7980  175.2310  137.6120 C   0  0  0  0  0  2  0  0  0  0  0  0
  191.1200  177.2220  139.6970 C   0  0  0  0  0  0  0  0  0  0  0  0
  184.7820  179.7220  143.0320 N   0  0  0  0  0  2  0  0  0  0  0  0
  189.0780  175.9660  138.7600 C   0  0  0  0  0  2  0  0  0  0  0  0
  191.8020  176.2350  137.5660 C   0  0  1  0  0  3  0  0  0  0  0  0
  189.4490  177.1770  145.5850 C   0  0  0  0  0  3  0  0  0  0  0  0
  189.2330  177.3970  144.2080 C   0  0  0  0  0  0  0  0  0  0  0  0
  186.9010  177.6880  144.5800 C   0  0  0  0  0  2  0  0  0  0  0  0
  188.8010  178.1850  139.9610 C   0  0  0  0  0  2  0  0  0  0  0  0
  186.1980  178.9310  140.5120 C   0  0  0  0  0  1  0  0  0  0  0  0
  184.2420  178.4460  146.3810 C   0  0  0  0  0  1  0  0  0  0  0  0
  187.7530  177.9960  142.3130 C   0  0  0  0  0  0  0  0  0  0  0  0
  185.4830  177.8280  144.1300 C   0  0  2  0  0  3  0  0  0  0  0  0
  192.3020  174.9650  137.0680 C   0  0  2  0  0  3  0  0  0  0  0  0
  191.8480  174.7070  135.6620 C   0  0  0  0  0  0  0  0  0  0  0  0
  191.6250  175.7670  134.7910 O   0  0  0  0  0  0  0  0  0  0  0  0
  191.7080  173.5250  135.2530 O   0  0  0  0  0  1  0  0  0  0  0  0
  1 16  1  6  0  0  0
  2 12  2  0  0  0  0
  2 27  1  0  0  0  0
  3  4  1  0  0  0  0
  5 25  1  1  0  0  0
  5 27  1  0  0  0  0
  5  6  1  0  0  0  0
  6 18  1  1  0  0  0
  6 28  1  0  0  0  0
  7 19  1  1  0  0  0
  7 17  1  0  0  0  0
  7 24  1  0  0  0  0
  8 12  1  0  0  0  0
  9 26  1  0  0  0  0
 10 17  1  0  0  0  0
 11  3  2  0  0  0  0
 12 13  1  0  0  0  0
 13 11  1  0  0  0  0
 13 22  2  0  0  0  0
 14 22  1  0  0  0  0
 14 23  1  0  0  0  0
 15  9  2  0  0  0  0
 16 19  1  0  0  0  0
 17  8  2  0  0  0  0
 18 15  1  0  0  0  0
 20  1  1  0  0  0  0
 20 10  1  1  0  0  0
 21  4  2  0  0  0  0
 22 21  1  0  0  0  0
 24  2  1  0  0  0  0
 27 14  2  0  0  0  0
 28 23  1  1  0  0  0
 28  9  1  0  0  0  0
 29 30  1  6  0  0  0
 29 20  1  0  0  0  0
 29  1  1  0  0  0  0
 31 30  2  0  0  0  0
 32 30  1  0  0  0  0
M  END
>  <MODEL>
1

>  <REMARK>
 VINA RESULT:     -10.6      0.000      0.000
  Name = 
  1 active torsions:
  status: ('A' for Active; 'I' for Inactive)
    1  A    between atoms: C_29  and  C_30
                            x       y       z     vdW  Elec       q    Type
                         _______ _______ _______ _____ _____    ______ ____

>  <TORSDO>
F 1

$$$$
=
 OpenBabel11122410353D

 32 38  0  0  1  0  0  0  0  0999 V2000
  183.1100  176.7030  138.2970 N   0  0  2  0  0  0  0  0  0  0  0  0
  185.5400  178.5380  142.2720 C   0  0  0  0  0  0  0  0  0  0  0  0
  190.0660  177.5490  140.7220 C   0  0  0  0  0  3  0  0  0  0  0  0
  190.4710  177.3070  142.0320 C   0  0  0  0  0  3  0  0  0  0  0  0
  185.1100  178.6080  144.7030 C   0  0  1  0  0  3  0  0  0  0  0  0
  185.6440  178.4180  146.0540 C   0  0  2  0  0  3  0  0  0  0  0  0
  183.6720  178.5370  140.5470 C   0  0  1  0  0  3  0  0  0  0  0  0
  186.0380  178.5160  139.8140 C   0  0  0  0  0  3  0  0  0  0  0  0
  187.2630  178.0490  147.5560 C   0  0  0  0  0  0  0  0  0  0  0  0
  184.4000  178.6440  138.0030 C   0  0  0  0  0  2  0  0  0  0  0  0
  188.7430  177.9040  140.4600 C   0  0  0  0  0  3  0  0  0  0  0  0
  186.4740  178.3670  141.2230 C   0  0  0  0  0  0  0  0  0  0  0  0
  187.8060  178.0270  141.5030 C   0  0  0  0  0  0  0  0  0  0  0  0
  187.2800  177.8780  143.8900 C   0  0  0  0  0  0  0  0  0  0  0  0
  186.5460  179.0500  147.9450 N   0  0  0  0  0  0  0  0  0  0  0  0
  182.2170  176.7240  139.4470 C   0  0  0  0  0  2  0  0  0  0  0  0
  184.7550  178.6270  139.4750 C   0  0  0  0  0  0  0  0  0  0  0  0
  185.5630  179.3080  146.9870 N   0  0  0  0  0  2  0  0  0  0  0  0
  183.0450  177.1310  140.6840 C   0  0  0  0  0  2  0  0  0  0  0  0
  182.9920  178.1070  137.8620 C   0  0  1  0  0  3  0  0  0  0  0  0
  189.5530  177.4190  143.0770 C   0  0  0  0  0  3  0  0  0  0  0  0
  188.2120  177.7830  142.8320 C   0  0  0  0  0  0  0  0  0  0  0  0
  187.6860  177.5440  145.1400 C   0  0  0  0  0  2  0  0  0  0  0  0
  184.1710  179.0580  141.8930 C   0  0  0  0  0  2  0  0  0  0  0  0
  183.7310  179.1800  144.6180 C   0  0  0  0  0  1  0  0  0  0  0  0
  188.3800  177.4910  148.3660 C   0  0  0  0  0  1  0  0  0  0  0  0
  185.9330  178.3320  143.6350 C   0  0  0  0  0  0  0  0  0  0  0  0
  186.7390  177.4580  146.2930 C   0  0  2  0  0  3  0  0  0  0  0  0
  182.6520  177.0460  136.9280 C   0  0  2  0  0  3  0  0  0  0  0  0
  181.1670  176.9030  136.7740 C   0  0  0  0  0  0  0  0  0  0  0  0
  180.3370  178.0090  136.9120 O   0  0  0  0  0  1  0  0  0  0  0  0
  180.6710  175.7850  136.4760 O   0  0  0  0  0  0  0  0  0  0  0  0
  1 16  1  1  0  0  0
  2 27  1  0  0  0  0
  3  4  1  0  0  0  0
  4 21  2  0  0  0  0
  5 25  1  1  0  0  0
  5  6  1  0  0  0  0
  6 28  1  0  0  0  0
  6 18  1  6  0  0  0
  7 19  1  1  0  0  0
  7 24  1  0  0  0  0
  8 12  1  0  0  0  0
  9 15  2  0  0  0  0
  9 26  1  0  0  0  0
 10 17  1  0  0  0  0
 11  3  2  0  0  0  0
 11 13  1  0  0  0  0
 12 13  1  0  0  0  0
 12  2  2  0  0  0  0
 13 22  2  0  0  0  0
 14 23  1  0  0  0  0
 16 19  1  0  0  0  0
 17  8  2  0  0  0  0
 17  7  1  0  0  0  0
 18 15  1  0  0  0  0
 20 10  1  6  0  0  0
 20  1  1  0  0  0  0
 22 21  1  0  0  0  0
 22 14  1  0  0  0  0
 24  2  1  0  0  0  0
 27 14  2  0  0  0  0
 27  5  1  0  0  0  0
 28 23  1  6  0  0  0
 28  9  1  0  0  0  0
 29 30  1  1  0  0  0
 29 20  1  0  0  0  0
 29  1  1  0  0  0  0
 30 31  1  0  0  0  0
 32 30  2  0  0  0  0
M  END
>  <MODEL>
2

>  <REMARK>
 VINA RESULT:     -10.5      3.961      6.065
  Name = 
  1 active torsions:
  status: ('A' for Active; 'I' for Inactive)
    1  A    between atoms: C_29  and  C_30
                            x       y       z     vdW  Elec       q    Type
                         _______ _______ _______ _____ _____    ______ ____

>  <TORSDO>
F 1

$$$$
=
 OpenBabel11122410353D

 32 38  0  0  1  0  0  0  0  0999 V2000
  180.7410  181.6220  139.1750 N   0  0  2  0  0  0  0  0  0  0  0  0
  184.4770  178.6030  140.5890 C   0  0  0  0  0  0  0  0  0  0  0  0
  183.4950  178.6270  145.3740 C   0  0  0  0  0  3  0  0  0  0  0  0
  184.8550  178.5410  145.6630 C   0  0  0  0  0  3  0  0  0  0  0  0
  186.8110  178.2540  139.8610 C   0  0  1  0  0  3  0  0  0  0  0  0
  188.2100  178.0780  140.2560 C   0  0  2  0  0  3  0  0  0  0  0  0
  182.6430  179.3660  139.0010 C   0  0  1  0  0  3  0  0  0  0  0  0
  182.1120  178.8940  141.3740 C   0  0  0  0  0  3  0  0  0  0  0  0
  189.8760  177.7680  141.7200 C   0  0  0  0  0  0  0  0  0  0  0  0
  180.1880  179.4880  139.9870 C   0  0  0  0  0  2  0  0  0  0  0  0
  183.0700  178.6730  144.0470 C   0  0  0  0  0  3  0  0  0  0  0  0
  183.5540  178.6940  141.6580 C   0  0  0  0  0  0  0  0  0  0  0  0
  183.9950  178.6280  142.9880 C   0  0  0  0  0  0  0  0  0  0  0  0
  186.3190  178.5200  142.2250 C   0  0  0  0  0  0  0  0  0  0  0  0
  190.0140  176.9370  140.7420 N   0  0  0  0  0  0  0  0  0  0  0  0
  181.7940  181.6460  138.1700 C   0  0  0  0  0  2  0  0  0  0  0  0
  181.6600  179.1740  140.1530 C   0  0  0  0  0  0  0  0  0  0  0  0
  188.9510  177.1010  139.8500 N   0  0  0  0  0  2  0  0  0  0  0  0
  182.9920  180.8450  138.7180 C   0  0  0  0  0  2  0  0  0  0  0  0
  180.0420  180.3860  138.7780 C   0  0  1  0  0  3  0  0  0  0  0  0
  185.7850  178.5010  144.6240 C   0  0  0  0  0  3  0  0  0  0  0  0
  185.3740  178.5410  143.2750 C   0  0  0  0  0  0  0  0  0  0  0  0
  187.6380  178.5310  142.5440 C   0  0  0  0  0  2  0  0  0  0  0  0
  183.9020  178.5230  139.1920 C   0  0  0  0  0  2  0  0  0  0  0  0
  186.5140  178.0800  138.4060 C   0  0  0  0  0  1  0  0  0  0  0  0
  190.8600  177.8800  142.8310 C   0  0  0  0  0  1  0  0  0  0  0  0
  185.8800  178.4770  140.8510 C   0  0  0  0  0  0  0  0  0  0  0  0
  188.7100  178.6710  141.5120 C   0  0  2  0  0  3  0  0  0  0  0  0
  179.3000  181.6350  138.8190 C   0  0  2  0  0  3  0  0  0  0  0  0
  179.0610  182.1800  137.4430 C   0  0  0  0  0  0  0  0  0  0  0  0
  178.9360  181.3190  136.3590 O   0  0  0  0  0  0  0  0  0  0  0  0
  178.9310  183.4200  137.2720 O   0  0  0  0  0  1  0  0  0  0  0  0
  1 16  1  6  0  0  0
  2 27  2  0  0  0  0
  2 12  1  0  0  0  0
  3  4  1  0  0  0  0
  5 25  1  1  0  0  0
  5  6  1  0  0  0  0
  5 27  1  0  0  0  0
  6 18  1  1  0  0  0
  6 28  1  0  0  0  0
  7 19  1  1  0  0  0
  7 24  1  0  0  0  0
  7 17  1  0  0  0  0
  8 12  1  0  0  0  0
  9 26  1  0  0  0  0
 10 17  1  0  0  0  0
 11  3  2  0  0  0  0
 12 13  2  0  0  0  0
 13 22  1  0  0  0  0
 13 11  1  0  0  0  0
 14 23  1  0  0  0  0
 14 22  2  0  0  0  0
 15  9  2  0  0  0  0
 16 19  1  0  0  0  0
 17  8  2  0  0  0  0
 18 15  1  0  0  0  0
 20 29  1  0  0  0  0
 20  1  1  0  0  0  0
 20 10  1  1  0  0  0
 21  4  2  0  0  0  0
 22 21  1  0  0  0  0
 24  2  1  0  0  0  0
 27 14  1  0  0  0  0
 28  9  1  0  0  0  0
 28 23  1  1  0  0  0
 29 30  1  6  0  0  0
 29  1  1  0  0  0  0
 31 30  2  0  0  0  0
 32 30  1  0  0  0  0
M  END
>  <MODEL>
3

>  <REMARK>
 VINA RESULT:      -8.8      5.066      8.588
  Name = 
  1 active torsions:
  status: ('A' for Active; 'I' for Inactive)
    1  A    between atoms: C_29  and  C_30
                            x       y       z     vdW  Elec       q    Type
                         _______ _______ _______ _____ _____    ______ ____

>  <TORSDO>
F 1

$$$$
=
 OpenBabel11122410353D

 32 38  0  0  1  0  0  0  0  0999 V2000
  187.8640  175.9740  137.6230 N   0  0  2  0  0  0  0  0  0  0  0  0
  184.7670  178.8440  140.3150 C   0  0  0  0  0  0  0  0  0  0  0  0
  186.8210  178.0290  144.6710 C   0  0  0  0  0  3  0  0  0  0  0  0
  185.5740  178.1100  145.2840 C   0  0  0  0  0  3  0  0  0  0  0  0
  182.3570  179.3760  140.2240 C   0  0  1  0  0  3  0  0  0  0  0  0
  181.1010  179.5300  140.9620 C   0  0  2  0  0  3  0  0  0  0  0  0
  186.1290  178.2860  138.2410 C   0  0  1  0  0  3  0  0  0  0  0  0
  187.2240  178.3590  140.4620 C   0  0  0  0  0  3  0  0  0  0  0  0
  179.8430  179.6550  142.8100 C   0  0  0  0  0  0  0  0  0  0  0  0
  188.7310  177.9330  138.5840 C   0  0  0  0  0  2  0  0  0  0  0  0
  186.9260  178.1810  143.2890 C   0  0  0  0  0  3  0  0  0  0  0  0
  185.9030  178.5550  141.1070 C   0  0  0  0  0  0  0  0  0  0  0  0
  185.7860  178.4220  142.4990 C   0  0  0  0  0  0  0  0  0  0  0  0
  183.3610  178.7220  142.3360 C   0  0  0  0  0  0  0  0  0  0  0  0
  179.5400  180.6340  142.0260 N   0  0  0  0  0  0  0  0  0  0  0  0
  186.6080  176.1420  136.9050 C   0  0  0  0  0  2  0  0  0  0  0  0
  187.3620  178.2620  139.1410 C   0  0  0  0  0  0  0  0  0  0  0  0
  180.3550  180.5820  140.8920 N   0  0  0  0  0  2  0  0  0  0  0  0
  185.6250  176.8830  137.8350 C   0  0  0  0  0  2  0  0  0  0  0  0
  188.5340  177.2350  137.2560 C   0  0  1  0  0  3  0  0  0  0  0  0
  184.4340  178.3430  144.5150 C   0  0  0  0  0  3  0  0  0  0  0  0
  184.5200  178.5050  143.1160 C   0  0  0  0  0  0  0  0  0  0  0  0
  182.1540  178.7010  142.9550 C   0  0  0  0  0  2  0  0  0  0  0  0
  185.0080  179.1260  138.8480 C   0  0  0  0  0  2  0  0  0  0  0  0
  182.3220  179.7700  138.7810 C   0  0  0  0  0  1  0  0  0  0  0  0
  179.1370  179.3980  144.0940 C   0  0  0  0  0  1  0  0  0  0  0  0
  183.4730  178.9700  140.9180 C   0  0  0  0  0  0  0  0  0  0  0  0
  180.8660  178.7610  142.1990 C   0  0  2  0  0  3  0  0  0  0  0  0
  189.1790  175.9720  136.9360 C   0  0  2  0  0  3  0  0  0  0  0  0
  189.0570  175.6460  135.4770 C   0  0  0  0  0  0  0  0  0  0  0  0
  188.8830  174.3310  135.0650 O   0  0  0  0  0  1  0  0  0  0  0  0
  189.0690  176.5710  134.6230 O   0  0  0  0  0  0  0  0  0  0  0  0
  1 16  1  6  0  0  0
  2 27  2  0  0  0  0
  2 12  1  0  0  0  0
  3  4  1  0  0  0  0
  5 25  1  1  0  0  0
  5 27  1  0  0  0  0
  5  6  1  0  0  0  0
  6 18  1  1  0  0  0
  6 28  1  0  0  0  0
  7 19  1  1  0  0  0
  7 24  1  0  0  0  0
  7 17  1  0  0  0  0
  8 12  1  0  0  0  0
  9 26  1  0  0  0  0
 10 17  1  0  0  0  0
 11  3  2  0  0  0  0
 12 13  2  0  0  0  0
 13 22  1  0  0  0  0
 13 11  1  0  0  0  0
 14 23  1  0  0  0  0
 14 22  2  0  0  0  0
 15  9  2  0  0  0  0
 16 19  1  0  0  0  0
 17  8  2  0  0  0  0
 18 15  1  0  0  0  0
 20  1  1  0  0  0  0
 20 10  1  1  0  0  0
 21  4  2  0  0  0  0
 22 21  1  0  0  0  0
 24  2  1  0  0  0  0
 27 14  1  0  0  0  0
 28  9  1  0  0  0  0
 28 23  1  1  0  0  0
 29 30  1  6  0  0  0
 29 20  1  0  0  0  0
 29  1  1  0  0  0  0
 31 30  1  0  0  0  0
 32 30  2  0  0  0  0
M  END
>  <MODEL>
4

>  <REMARK>
 VINA RESULT:      -8.7      3.054      4.475
  Name = 
  1 active torsions:
  status: ('A' for Active; 'I' for Inactive)
    1  A    between atoms: C_29  and  C_30
                            x       y       z     vdW  Elec       q    Type
                         _______ _______ _______ _____ _____    ______ ____

>  <TORSDO>
F 1

$$$$
=
 OpenBabel11122410353D

 32 38  0  0  1  0  0  0  0  0999 V2000
  186.5880  177.2110  145.8470 N   0  0  2  0  0  0  0  0  0  0  0  0
  183.8990  178.6270  141.8670 C   0  0  0  0  0  0  0  0  0  0  0  0
  179.5640  178.8330  144.1110 C   0  0  0  0  0  3  0  0  0  0  0  0
  178.9310  178.4110  142.9440 C   0  0  0  0  0  3  0  0  0  0  0  0
  183.9580  178.1230  139.4510 C   0  0  1  0  0  3  0  0  0  0  0  0
  183.2010  177.7680  138.2480 C   0  0  2  0  0  3  0  0  0  0  0  0
  185.9850  178.6250  143.3220 C   0  0  1  0  0  3  0  0  0  0  0  0
  183.7850  179.1940  144.3080 C   0  0  0  0  0  3  0  0  0  0  0  0
  181.3340  177.4110  137.0640 C   0  0  0  0  0  0  0  0  0  0  0  0
  185.6800  179.3780  145.8430 C   0  0  0  0  0  2  0  0  0  0  0  0
  180.9500  178.9800  144.1320 C   0  0  0  0  0  3  0  0  0  0  0  0
  183.1210  178.8490  143.0280 C   0  0  0  0  0  0  0  0  0  0  0  0
  181.7250  178.7140  142.9880 C   0  0  0  0  0  0  0  0  0  0  0  0
  181.8510  177.9910  140.6520 C   0  0  0  0  0  0  0  0  0  0  0  0
  182.1310  178.1610  136.3800 N   0  0  0  0  0  0  0  0  0  0  0  0
  187.2870  176.8330  144.6270 C   0  0  0  0  0  2  0  0  0  0  0  0
  185.1060  179.1310  144.4630 C   0  0  0  0  0  0  0  0  0  0  0  0
  183.2780  178.4190  137.1360 N   0  0  0  0  0  2  0  0  0  0  0  0
  186.3550  177.1290  143.4350 C   0  0  0  0  0  2  0  0  0  0  0  0
  186.9910  178.6270  145.9380 C   0  0  1  0  0  3  0  0  0  0  0  0
  179.6840  178.1380  141.8030 C   0  0  0  0  0  3  0  0  0  0  0  0
  181.0870  178.2860  141.8030 C   0  0  0  0  0  0  0  0  0  0  0  0
  181.2110  177.4920  139.5640 C   0  0  0  0  0  2  0  0  0  0  0  0
  185.3740  178.9470  141.9600 C   0  0  0  0  0  2  0  0  0  0  0  0
  185.4070  178.4320  139.2450 C   0  0  0  0  0  1  0  0  0  0  0  0
  180.0330  176.9200  136.5350 C   0  0  0  0  0  1  0  0  0  0  0  0
  183.2750  178.2270  140.6410 C   0  0  0  0  0  0  0  0  0  0  0  0
  181.9450  177.0000  138.3590 C   0  0  2  0  0  3  0  0  0  0  0  0
  187.2980  177.7320  147.0420 C   0  0  2  0  0  3  0  0  0  0  0  0
  188.7480  177.3490  147.0520 C   0  0  0  0  0  0  0  0  0  0  0  0
  189.6820  178.1170  146.3680 O   0  0  0  0  0  0  0  0  0  0  0  0
  189.1290  176.3510  147.7180 O   0  0  0  0  0  1  0  0  0  0  0  0
  1 16  1  6  0  0  0
  1 20  1  0  0  0  0
  1 29  1  0  0  0  0
  2 24  1  0  0  0  0
  2 12  1  0  0  0  0
  3 11  2  0  0  0  0
  4  3  1  0  0  0  0
  5 25  1  6  0  0  0
  5 27  1  0  0  0  0
  6 18  1  1  0  0  0
  6 28  1  0  0  0  0
  6  5  1  0  0  0  0
  7 24  1  6  0  0  0
  7 19  1  0  0  0  0
  7 17  1  0  0  0  0
  8 17  2  0  0  0  0
  9 28  1  0  0  0  0
 12  8  1  0  0  0  0
 13 12  2  0  0  0  0
 13 11  1  0  0  0  0
 14 22  2  0  0  0  0
 15  9  2  0  0  0  0
 15 18  1  0  0  0  0
 17 10  1  0  0  0  0
 19 16  1  0  0  0  0
 20 10  1  1  0  0  0
 20 29  1  0  0  0  0
 21  4  2  0  0  0  0
 22 21  1  0  0  0  0
 22 13  1  0  0  0  0
 23 14  1  0  0  0  0
 26  9  1  0  0  0  0
 27 14  1  0  0  0  0
 27  2  2  0  0  0  0
 28 23  1  1  0  0  0
 29 30  1  6  0  0  0
 30 32  1  0  0  0  0
 31 30  2  0  0  0  0
M  END
>  <MODEL>
5

>  <REMARK>
 VINA RESULT:      -8.6      5.232      8.710
  Name = 
  1 active torsions:
  status: ('A' for Active; 'I' for Inactive)
    1  A    between atoms: C_29  and  C_30
                            x       y       z     vdW  Elec       q    Type
                         _______ _______ _______ _____ _____    ______ ____

>  <TORSDO>
F 1

$$$$
=
 OpenBabel11122410353D

 32 38  0  0  1  0  0  0  0  0999 V2000
  190.8130  175.1260  138.3540 N   0  0  2  0  0  0  0  0  0  0  0  0
  187.1660  178.1220  140.0260 C   0  0  0  0  0  0  0  0  0  0  0  0
  188.2200  177.7610  144.7820 C   0  0  0  0  0  3  0  0  0  0  0  0
  186.8670  177.8560  145.0980 C   0  0  0  0  0  3  0  0  0  0  0  0
  184.8300  178.5680  139.3610 C   0  0  1  0  0  3  0  0  0  0  0  0
  183.4410  178.7470  139.7900 C   0  0  2  0  0  3  0  0  0  0  0  0
  188.9590  177.4270  138.3610 C   0  0  1  0  0  3  0  0  0  0  0  0
  189.5360  177.7300  140.7510 C   0  0  0  0  0  3  0  0  0  0  0  0
  181.8050  178.9940  141.2990 C   0  0  0  0  0  0  0  0  0  0  0  0
  191.4250  177.1890  139.2950 C   0  0  0  0  0  2  0  0  0  0  0  0
  188.6240  177.7930  143.4480 C   0  0  0  0  0  3  0  0  0  0  0  0
  188.1030  177.9410  141.0700 C   0  0  0  0  0  0  0  0  0  0  0  0
  187.6840  177.9280  142.4090 C   0  0  0  0  0  0  0  0  0  0  0  0
  185.3520  178.1350  141.6940 C   0  0  0  0  0  0  0  0  0  0  0  0
  181.6710  179.8910  140.3800 N   0  0  0  0  0  0  0  0  0  0  0  0
  189.7450  175.1900  137.3670 C   0  0  0  0  0  2  0  0  0  0  0  0
  189.9630  177.5220  139.5060 C   0  0  0  0  0  0  0  0  0  0  0  0
  182.7160  179.7640  139.4610 N   0  0  0  0  0  2  0  0  0  0  0  0
  188.5730  175.9790  137.9870 C   0  0  0  0  0  2  0  0  0  0  0  0
  191.5330  176.3710  138.0270 C   0  0  1  0  0  3  0  0  0  0  0  0
  185.9220  177.9840  144.0800 C   0  0  0  0  0  3  0  0  0  0  0  0
  186.3120  178.0250  142.7250 C   0  0  0  0  0  0  0  0  0  0  0  0
  184.0380  178.1310  142.0330 C   0  0  0  0  0  2  0  0  0  0  0  0
  187.7220  178.2820  138.6270 C   0  0  0  0  0  2  0  0  0  0  0  0
  185.1090  178.8320  137.9150 C   0  0  0  0  0  1  0  0  0  0  0  0
  180.8360  178.8290  142.4150 C   0  0  0  0  0  1  0  0  0  0  0  0
  185.7710  178.2600  140.3180 C   0  0  0  0  0  0  0  0  0  0  0  0
  182.9480  178.0830  141.0120 C   0  0  2  0  0  3  0  0  0  0  0  0
  192.2480  175.1060  137.9740 C   0  0  2  0  0  3  0  0  0  0  0  0
  192.4540  174.6480  136.5610 C   0  0  0  0  0  0  0  0  0  0  0  0
  192.4220  173.2950  136.2500 O   0  0  0  0  0  1  0  0  0  0  0  0
  192.6140  175.4950  135.6430 O   0  0  0  0  0  0  0  0  0  0  0  0
  1 16  1  6  0  0  0
  2 27  2  0  0  0  0
  2 12  1  0  0  0  0
  3  4  1  0  0  0  0
  5 25  1  1  0  0  0
  5  6  1  0  0  0  0
  5 27  1  0  0  0  0
  6 18  1  1  0  0  0
  6 28  1  0  0  0  0
  7 19  1  1  0  0  0
  7 24  1  0  0  0  0
  7 17  1  0  0  0  0
  8 12  1  0  0  0  0
  9 26  1  0  0  0  0
 10 17  1  0  0  0  0
 11  3  2  0  0  0  0
 12 13  2  0  0  0  0
 13 22  1  0  0  0  0
 13 11  1  0  0  0  0
 14 23  1  0  0  0  0
 14 22  2  0  0  0  0
 15  9  2  0  0  0  0
 16 19  1  0  0  0  0
 17  8  2  0  0  0  0
 18 15  1  0  0  0  0
 20  1  1  0  0  0  0
 20 10  1  1  0  0  0
 21  4  2  0  0  0  0
 22 21  1  0  0  0  0
 24  2  1  0  0  0  0
 27 14  1  0  0  0  0
 28  9  1  0  0  0  0
 28 23  1  1  0  0  0
 29 30  1  6  0  0  0
 29 20  1  0  0  0  0
 29  1  1  0  0  0  0
 31 30  1  0  0  0  0
 32 30  2  0  0  0  0
M  END
>  <MODEL>
6

>  <REMARK>
 VINA RESULT:      -8.4      1.964      2.969
  Name = 
  1 active torsions:
  status: ('A' for Active; 'I' for Inactive)
    1  A    between atoms: C_29  and  C_30
                            x       y       z     vdW  Elec       q    Type
                         _______ _______ _______ _____ _____    ______ ____

>  <TORSDO>
F 1

$$$$
=
 OpenBabel11122410353D

 32 38  0  0  1  0  0  0  0  0999 V2000
  185.4780  177.7680  143.6110 N   0  0  2  0  0  0  0  0  0  0  0  0
  188.8080  177.7840  139.8710 C   0  0  0  0  0  0  0  0  0  0  0  0
  185.6330  177.0420  136.2330 C   0  0  0  0  0  3  0  0  0  0  0  0
  186.5860  176.2990  135.5410 C   0  0  0  0  0  3  0  0  0  0  0  0
  191.1290  176.9890  139.5960 C   0  0  1  0  0  3  0  0  0  0  0  0
  192.0930  176.2670  138.7620 C   0  0  2  0  0  3  0  0  0  0  0  0
  187.8850  178.5840  142.1020 C   0  0  1  0  0  3  0  0  0  0  0  0
  186.4540  178.6270  140.0800 C   0  0  0  0  0  3  0  0  0  0  0  0
  192.7790  175.2280  136.9010 C   0  0  0  0  0  0  0  0  0  0  0  0
  185.4220  179.5580  142.0920 C   0  0  0  0  0  2  0  0  0  0  0  0
  185.9470  177.5840  137.4790 C   0  0  0  0  0  3  0  0  0  0  0  0
  187.5160  177.9310  139.3130 C   0  0  0  0  0  0  0  0  0  0  0  0
  187.2190  177.3960  138.0510 C   0  0  0  0  0  0  0  0  0  0  0  0
  189.4630  176.4230  137.9230 C   0  0  0  0  0  0  0  0  0  0  0  0
  193.6830  176.0740  137.2700 N   0  0  0  0  0  0  0  0  0  0  0  0
  186.7980  177.4410  144.1320 C   0  0  0  0  0  2  0  0  0  0  0  0
  186.6090  178.9680  141.3580 C   0  0  0  0  0  0  0  0  0  0  0  0
  193.2360  176.7530  138.4070 N   0  0  0  0  0  2  0  0  0  0  0  0
  187.7570  177.2880  142.9340 C   0  0  0  0  0  2  0  0  0  0  0  0
  185.5840  179.2380  143.5620 C   0  0  1  0  0  3  0  0  0  0  0  0
  187.8500  176.0980  136.0970 C   0  0  0  0  0  3  0  0  0  0  0  0
  188.1880  176.6430  137.3530 C   0  0  0  0  0  0  0  0  0  0  0  0
  190.3320  175.6160  137.2650 C   0  0  0  0  0  2  0  0  0  0  0  0
  189.0860  178.5250  141.1600 C   0  0  0  0  0  2  0  0  0  0  0  0
  191.6900  177.6700  140.8040 C   0  0  0  0  0  1  0  0  0  0  0  0
  192.9530  174.3150  135.7400 C   0  0  0  0  0  1  0  0  0  0  0  0
  189.8230  177.0560  139.1690 C   0  0  0  0  0  0  0  0  0  0  0  0
  191.6380  175.1940  137.8570 C   0  0  2  0  0  3  0  0  0  0  0  0
  184.5220  178.6310  144.3480 C   0  0  2  0  0  3  0  0  0  0  0  0
  184.8240  178.6860  145.8160 C   0  0  0  0  0  0  0  0  0  0  0  0
  185.6810  179.6570  146.3200 O   0  0  0  0  0  0  0  0  0  0  0  0
  184.2670  177.8770  146.6040 O   0  0  0  0  0  1  0  0  0  0  0  0
  1 16  1  1  0  0  0
  1 29  1  0  0  0  0
  2 24  1  0  0  0  0
  3 11  2  0  0  0  0
  4 21  2  0  0  0  0
  4  3  1  0  0  0  0
  5 25  1  6  0  0  0
  6 18  1  6  0  0  0
  6  5  1  0  0  0  0
  7 24  1  6  0  0  0
  7 19  1  0  0  0  0
  8 17  2  0  0  0  0
  9 15  2  0  0  0  0
  9 28  1  0  0  0  0
 11 13  1  0  0  0  0
 12  2  1  0  0  0  0
 12  8  1  0  0  0  0
 13 12  2  0  0  0  0
 14 27  1  0  0  0  0
 15 18  1  0  0  0  0
 17 10  1  0  0  0  0
 17  7  1  0  0  0  0
 19 16  1  0  0  0  0
 20 10  1  6  0  0  0
 20  1  1  0  0  0  0
 20 29  1  0  0  0  0
 21 22  1  0  0  0  0
 22 14  2  0  0  0  0
 22 13  1  0  0  0  0
 23 14  1  0  0  0  0
 26  9  1  0  0  0  0
 27  5  1  0  0  0  0
 27  2  2  0  0  0  0
 28 23  1  6  0  0  0
 28  6  1  0  0  0  0
 29 30  1  1  0  0  0
 30 31  2  0  0  0  0
 30 32  1  0  0  0  0
M  END
>  <MODEL>
7

>  <REMARK>
 VINA RESULT:      -8.4      3.878      8.839
  Name = 
  1 active torsions:
  status: ('A' for Active; 'I' for Inactive)
    1  A    between atoms: C_29  and  C_30
                            x       y       z     vdW  Elec       q    Type
                         _______ _______ _______ _____ _____    ______ ____

>  <TORSDO>
F 1

$$$$
=
 OpenBabel11122410353D

 32 38  0  0  1  0  0  0  0  0999 V2000
  187.9760  176.6580  143.3390 N   0  0  2  0  0  0  0  0  0  0  0  0
  190.7690  176.6890  139.1830 C   0  0  0  0  0  0  0  0  0  0  0  0
  187.1590  175.7680  136.0230 C   0  0  0  0  0  3  0  0  0  0  0  0
  188.0340  175.0380  135.2230 C   0  0  0  0  0  3  0  0  0  0  0  0
  193.0580  175.9590  138.6110 C   0  0  1  0  0  3  0  0  0  0  0  0
  193.9240  175.2480  137.6680 C   0  0  2  0  0  3  0  0  0  0  0  0
  190.1290  177.5120  141.5030 C   0  0  1  0  0  3  0  0  0  0  0  0
  188.4380  177.4650  139.6930 C   0  0  0  0  0  3  0  0  0  0  0  0
  194.3870  174.1880  135.7500 C   0  0  0  0  0  0  0  0  0  0  0  0
  187.6570  178.4100  141.8090 C   0  0  0  0  0  2  0  0  0  0  0  0
  187.6200  176.3470  137.2050 C   0  0  0  0  0  3  0  0  0  0  0  0
  189.4090  176.7840  138.8030 C   0  0  0  0  0  0  0  0  0  0  0  0
  188.9630  176.2110  137.6030 C   0  0  0  0  0  0  0  0  0  0  0  0
  191.2000  175.3040  137.1900 C   0  0  0  0  0  0  0  0  0  0  0  0
  195.3030  175.0690  135.9780 N   0  0  0  0  0  0  0  0  0  0  0  0
  189.3640  176.3840  143.6830 C   0  0  0  0  0  2  0  0  0  0  0  0
  188.7520  177.8400  140.9320 C   0  0  0  0  0  0  0  0  0  0  0  0
  194.9910  175.7600  137.1520 N   0  0  0  0  0  2  0  0  0  0  0  0
  190.1580  176.2320  142.3690 C   0  0  0  0  0  2  0  0  0  0  0  0
  188.0250  178.1290  143.2490 C   0  0  1  0  0  3  0  0  0  0  0  0
  189.3670  174.8890  135.6060 C   0  0  0  0  0  3  0  0  0  0  0  0
  189.8540  175.4720  136.7940 C   0  0  0  0  0  0  0  0  0  0  0  0
  192.0000  174.5090  136.4350 C   0  0  0  0  0  2  0  0  0  0  0  0
  191.1940  177.4680  140.4090 C   0  0  0  0  0  2  0  0  0  0  0  0
  193.7530  176.6850  139.7190 C   0  0  0  0  0  1  0  0  0  0  0  0
  194.4330  173.2530  134.5940 C   0  0  0  0  0  1  0  0  0  0  0  0
  191.7040  175.9760  138.3640 C   0  0  0  0  0  0  0  0  0  0  0  0
  193.3870  174.1410  136.8530 C   0  0  2  0  0  3  0  0  0  0  0  0
  187.1010  177.5080  144.1830 C   0  0  2  0  0  3  0  0  0  0  0  0
  187.5960  177.6060  145.5950 C   0  0  0  0  0  0  0  0  0  0  0  0
  188.7890  178.2610  145.8770 O   0  0  0  0  0  0  0  0  0  0  0  0
  186.9080  177.1320  146.5370 O   0  0  0  0  0  1  0  0  0  0  0  0
  1 16  1  1  0  0  0
  1 29  1  0  0  0  0
  2 24  1  0  0  0  0
  3 11  2  0  0  0  0
  4 21  2  0  0  0  0
  4  3  1  0  0  0  0
  5 25  1  6  0  0  0
  6 18  1  6  0  0  0
  6  5  1  0  0  0  0
  7 24  1  6  0  0  0
  7 19  1  0  0  0  0
  8 17  2  0  0  0  0
  9 15  2  0  0  0  0
  9 28  1  0  0  0  0
 11 13  1  0  0  0  0
 12  2  1  0  0  0  0
 12  8  1  0  0  0  0
 13 12  2  0  0  0  0
 14 27  1  0  0  0  0
 15 18  1  0  0  0  0
 17  7  1  0  0  0  0
 17 10  1  0  0  0  0
 19 16  1  0  0  0  0
 20 10  1  6  0  0  0
 20  1  1  0  0  0  0
 20 29  1  0  0  0  0
 21 22  1  0  0  0  0
 22 14  2  0  0  0  0
 22 13  1  0  0  0  0
 23 14  1  0  0  0  0
 26  9  1  0  0  0  0
 27  5  1  0  0  0  0
 27  2  2  0  0  0  0
 28 23  1  6  0  0  0
 28  6  1  0  0  0  0
 29 30  1  1  0  0  0
 30 31  2  0  0  0  0
 30 32  1  0  0  0  0
M  END
>  <MODEL>
8

>  <REMARK>
 VINA RESULT:      -7.8      3.636      9.064
  Name = 
  1 active torsions:
  status: ('A' for Active; 'I' for Inactive)
    1  A    between atoms: C_29  and  C_30
                            x       y       z     vdW  Elec       q    Type
                         _______ _______ _______ _____ _____    ______ ____

>  <TORSDO>
F 1

$$$$
=
 OpenBabel11122410353D

 32 38  0  0  1  0  0  0  0  0999 V2000
  181.2130  181.2360  139.4910 N   0  0  2  0  0  0  0  0  0  0  0  0
  185.1440  178.2270  140.2440 C   0  0  0  0  0  0  0  0  0  0  0  0
  184.9680  178.2140  145.1250 C   0  0  0  0  0  3  0  0  0  0  0  0
  186.3570  178.1330  145.1840 C   0  0  0  0  0  3  0  0  0  0  0  0
  187.3260  177.8950  139.1370 C   0  0  1  0  0  3  0  0  0  0  0  0
  188.7720  177.7240  139.2930 C   0  0  2  0  0  3  0  0  0  0  0  0
  183.0690  178.9920  138.9870 C   0  0  1  0  0  3  0  0  0  0  0  0
  182.9410  178.5010  141.4120 C   0  0  0  0  0  3  0  0  0  0  0  0
  190.6590  177.4130  140.4580 C   0  0  0  0  0  0  0  0  0  0  0  0
  180.8110  179.0940  140.3670 C   0  0  0  0  0  2  0  0  0  0  0  0
  184.3290  178.2670  143.8880 C   0  0  0  0  0  3  0  0  0  0  0  0
  184.4100  178.3070  141.4510 C   0  0  0  0  0  0  0  0  0  0  0  0
  185.0650  178.2340  142.6890 C   0  0  0  0  0  0  0  0  0  0  0  0
  187.2320  178.1430  141.5510 C   0  0  0  0  0  0  0  0  0  0  0  0
  190.6360  176.5890  139.4640 N   0  0  0  0  0  0  0  0  0  0  0  0
  182.0840  181.2730  138.3260 C   0  0  0  0  0  2  0  0  0  0  0  0
  182.2910  178.7870  140.2850 C   0  0  0  0  0  0  0  0  0  0  0  0
  189.4390  176.7530  138.7620 N   0  0  0  0  0  2  0  0  0  0  0  0
  183.3600  180.4740  138.6620 C   0  0  0  0  0  2  0  0  0  0  0  0
  180.4620  179.9990  139.2060 C   0  0  1  0  0  3  0  0  0  0  0  0
  187.1030  178.1050  144.0050 C   0  0  0  0  0  3  0  0  0  0  0  0
  186.4740  178.1520  142.7440 C   0  0  0  0  0  0  0  0  0  0  0  0
  188.5850  178.1590  141.6470 C   0  0  0  0  0  2  0  0  0  0  0  0
  184.3450  178.1540  138.9600 C   0  0  0  0  0  2  0  0  0  0  0  0
  186.7920  177.7290  137.7490 C   0  0  0  0  0  1  0  0  0  0  0  0
  191.8130  177.5230  141.3910 C   0  0  0  0  0  1  0  0  0  0  0  0
  186.5710  178.1070  140.2680 C   0  0  0  0  0  0  0  0  0  0  0  0
  189.4700  178.3110  140.4530 C   0  0  2  0  0  3  0  0  0  0  0  0
  179.7330  181.2450  139.3790 C   0  0  2  0  0  3  0  0  0  0  0  0
  179.2670  181.7980  138.0650 C   0  0  0  0  0  0  0  0  0  0  0  0
  178.9600  183.1470  137.9410 O   0  0  0  0  0  1  0  0  0  0  0  0
  179.1930  181.0460  137.0580 O   0  0  0  0  0  0  0  0  0  0  0  0
  1 16  1  6  0  0  0
  2 27  2  0  0  0  0
  2 12  1  0  0  0  0
  3  4  1  0  0  0  0
  5 25  1  1  0  0  0
  5  6  1  0  0  0  0
  5 27  1  0  0  0  0
  6 18  1  1  0  0  0
  6 28  1  0  0  0  0
  7 19  1  1  0  0  0
  7 17  1  0  0  0  0
  8 12  1  0  0  0  0
  9 26  1  0  0  0  0
 11  3  2  0  0  0  0
 12 13  2  0  0  0  0
 13 22  1  0  0  0  0
 13 11  1  0  0  0  0
 14 23  1  0  0  0  0
 14 22  2  0  0  0  0
 15  9  2  0  0  0  0
 16 19  1  0  0  0  0
 17 10  1  0  0  0  0
 17  8  2  0  0  0  0
 18 15  1  0  0  0  0
 20 29  1  0  0  0  0
 20  1  1  0  0  0  0
 20 10  1  1  0  0  0
 21  4  2  0  0  0  0
 22 21  1  0  0  0  0
 24  7  1  0  0  0  0
 24  2  1  0  0  0  0
 27 14  1  0  0  0  0
 28  9  1  0  0  0  0
 28 23  1  1  0  0  0
 29 30  1  6  0  0  0
 29  1  1  0  0  0  0
 31 30  1  0  0  0  0
 32 30  2  0  0  0  0
M  END
>  <MODEL>
9

>  <REMARK>
 VINA RESULT:      -7.7      4.796      8.357
  Name = 
  1 active torsions:
  status: ('A' for Active; 'I' for Inactive)
    1  A    between atoms: C_29  and  C_30
                            x       y       z     vdW  Elec       q    Type
                         _______ _______ _______ _____ _____    ______ ____

>  <TORSDO>
F 1

$$$$
