=
 OpenBabel11122410553D

 31 35  0  0  1  0  0  0  0  0999 V2000
  184.5650  178.5490  145.1930 C   0  0  0  0  0  0  0  0  0  0  0  0
  187.6470  177.9930  143.2470 C   0  0  0  0  0  0  0  0  0  0  0  0
  188.6810  177.6470  144.2710 C   0  0  0  0  0  0  0  0  0  0  0  0
  189.4340  177.4070  146.5750 C   0  0  0  0  0  0  0  0  0  0  0  0
  186.2950  178.2790  143.5720 C   0  0  0  0  0  0  0  0  0  0  0  0
  183.6330  178.8330  144.1960 C   0  0  0  0  0  3  0  0  0  0  0  0
  188.4610  177.7930  145.6510 C   0  0  0  0  0  3  0  0  0  0  0  0
  187.0960  178.2690  140.8680 C   0  0  0  0  0  0  0  0  0  0  0  0
  184.1840  178.5410  146.4930 F   0  0  0  0  0  0  0  0  0  0  0  0
  190.1690  176.9860  142.4730 O   0  0  0  0  0  0  0  0  0  0  0  0
  189.1820  177.5660  148.0300 C   0  0  0  0  0  1  0  0  0  0  0  0
  185.7720  178.5520  141.2120 C   0  0  0  0  0  3  0  0  0  0  0  0
  188.0290  177.9810  141.8810 C   0  0  0  0  0  0  0  0  0  0  0  0
  185.8570  178.2810  144.8640 N   0  0  0  0  0  0  0  0  0  0  0  0
  190.6390  176.8580  146.1320 C   0  0  0  0  0  3  0  0  0  0  0  0
  185.3700  178.5580  142.5410 C   0  0  0  0  0  0  0  0  0  0  0  0
  184.0400  178.8360  142.8630 C   0  0  0  0  0  3  0  0  0  0  0  0
  189.4720  177.7640  141.5030 C   0  0  0  0  0  2  0  0  0  0  0  0
  189.9110  177.1190  143.8370 C   0  0  0  0  0  0  0  0  0  0  0  0
  190.8760  176.7120  144.7640 C   0  0  0  0  0  3  0  0  0  0  0  0
  185.4390  178.1200  138.4260 O   0  0  0  0  0  0  0  0  0  0  0  0
  186.6920  178.2060  138.3280 C   0  0  0  0  0  0  0  0  0  0  0  0
  187.5220  178.2730  139.4960 N   0  0  0  0  0  2  0  0  0  0  0  0
  189.5660  176.3340  136.7190 C   0  0  1  0  0  3  0  0  0  0  0  0
  187.1620  176.8820  136.2430 C   0  0  0  0  0  2  0  0  0  0  0  0
  188.9240  179.8880  137.6660 O   0  0  0  0  0  1  0  0  0  0  0  0
  190.4580  175.3280  137.2650 N   0  0  0  0  0  1  0  0  0  0  0  0
  188.1270  175.8340  136.8010 C   0  0  0  0  0  2  0  0  0  0  0  0
  188.7780  178.6980  136.9520 C   0  0  2  0  0  3  0  0  0  0  0  0
  187.3130  178.2280  136.9610 C   0  0  2  0  0  3  0  0  0  0  0  0
  189.7210  177.6320  137.5050 C   0  0  0  0  0  2  0  0  0  0  0  0
  1  9  1  0  0  0  0
  2  5  1  0  0  0  0
  2  3  1  0  0  0  0
  3  7  1  0  0  0  0
  4 11  1  0  0  0  0
  5 14  2  0  0  0  0
  6  1  2  0  0  0  0
  7  4  2  0  0  0  0
  8 12  2  0  0  0  0
  8 13  1  0  0  0  0
 10 19  1  0  0  0  0
 12 16  1  0  0  0  0
 13  2  2  0  0  0  0
 14  1  1  0  0  0  0
 15  4  1  0  0  0  0
 16 17  2  0  0  0  0
 16  5  1  0  0  0  0
 17  6  1  0  0  0  0
 18 13  1  0  0  0  0
 18 10  1  0  0  0  0
 19  3  2  0  0  0  0
 19 20  1  0  0  0  0
 20 15  2  0  0  0  0
 22 21  2  0  0  0  0
 22 23  1  0  0  0  0
 23  8  1  0  0  0  0
 24 28  1  0  0  0  0
 24 27  1  1  0  0  0
 24 31  1  0  0  0  0
 25 28  1  0  0  0  0
 25 30  1  0  0  0  0
 29 30  1  0  0  0  0
 29 31  1  0  0  0  0
 29 26  1  1  0  0  0
 30 22  1  1  0  0  0
M  END
>  <MODEL>
1

>  <REMARK>
 VINA RESULT:     -11.4      0.000      0.000
  Name = 
  2 active torsions:
  status: ('A' for Active; 'I' for Inactive)
    1  A    between atoms: C_5  and  C_30
    2  A    between atoms: C_10  and  N_16
                            x       y       z     vdW  Elec       q    Type
                         _______ _______ _______ _____ _____    ______ ____

>  <TORSDO>
F 2

$$$$
=
 OpenBabel11122410553D

 31 35  0  0  1  0  0  0  0  0999 V2000
  184.6020  178.5410  144.6560 C   0  0  0  0  0  0  0  0  0  0  0  0
  188.1260  177.8930  143.7820 C   0  0  0  0  0  0  0  0  0  0  0  0
  188.7990  177.6470  145.0950 C   0  0  0  0  0  0  0  0  0  0  0  0
  188.8180  177.5970  147.5300 C   0  0  0  0  0  0  0  0  0  0  0  0
  186.7400  178.1790  143.6600 C   0  0  0  0  0  0  0  0  0  0  0  0
  184.0170  178.7310  143.4050 C   0  0  0  0  0  3  0  0  0  0  0  0
  188.1730  177.8930  146.3280 C   0  0  0  0  0  3  0  0  0  0  0  0
  188.3230  177.9770  141.3350 C   0  0  0  0  0  0  0  0  0  0  0  0
  183.8450  178.6250  145.7760 F   0  0  0  0  0  0  0  0  0  0  0  0
  190.7580  176.8770  143.8890 O   0  0  0  0  0  0  0  0  0  0  0  0
  188.1380  177.8630  148.8240 C   0  0  0  0  0  1  0  0  0  0  0  0
  186.9590  178.2610  141.2380 C   0  0  0  0  0  3  0  0  0  0  0  0
  188.9040  177.7840  142.6020 C   0  0  0  0  0  0  0  0  0  0  0  0
  185.9320  178.2720  144.7550 N   0  0  0  0  0  0  0  0  0  0  0  0
  190.0970  177.0380  147.5160 C   0  0  0  0  0  3  0  0  0  0  0  0
  186.1720  178.3610  142.3790 C   0  0  0  0  0  0  0  0  0  0  0  0
  184.8100  178.6380  142.2610 C   0  0  0  0  0  3  0  0  0  0  0  0
  190.3920  177.5650  142.6950 C   0  0  0  0  0  2  0  0  0  0  0  0
  190.1000  177.1090  145.0960 C   0  0  0  0  0  0  0  0  0  0  0  0
  190.7360  176.7920  146.3000 C   0  0  0  0  0  3  0  0  0  0  0  0
  187.5010  177.4040  138.5550 O   0  0  0  0  0  0  0  0  0  0  0  0
  188.7150  177.6100  138.8180 C   0  0  0  0  0  0  0  0  0  0  0  0
  189.1440  177.8840  140.1600 N   0  0  0  0  0  2  0  0  0  0  0  0
  188.7980  175.8920  135.4420 C   0  0  1  0  0  3  0  0  0  0  0  0
  189.1740  178.1780  136.4120 C   0  0  0  0  0  2  0  0  0  0  0  0
  190.7120  175.5540  138.6300 O   0  0  0  0  0  1  0  0  0  0  0  0
  187.8210  175.0330  134.7990 N   0  0  0  0  0  1  0  0  0  0  0  0
  188.1690  177.2540  135.7210 C   0  0  0  0  0  2  0  0  0  0  0  0
  190.2810  176.1470  137.4430 C   0  0  2  0  0  3  0  0  0  0  0  0
  189.7190  177.5550  137.7030 C   0  0  2  0  0  3  0  0  0  0  0  0
  189.2620  175.2470  136.7440 C   0  0  0  0  0  2  0  0  0  0  0  0
  1 14  1  0  0  0  0
  1  9  1  0  0  0  0
  2  3  1  0  0  0  0
  3 19  2  0  0  0  0
  3  7  1  0  0  0  0
  4 11  1  0  0  0  0
  5  2  1  0  0  0  0
  5 14  2  0  0  0  0
  6  1  2  0  0  0  0
  7  4  2  0  0  0  0
  8 13  1  0  0  0  0
 10 19  1  0  0  0  0
 12  8  2  0  0  0  0
 12 16  1  0  0  0  0
 13 18  1  0  0  0  0
 13  2  2  0  0  0  0
 15  4  1  0  0  0  0
 16  5  1  0  0  0  0
 17 16  2  0  0  0  0
 17  6  1  0  0  0  0
 18 10  1  0  0  0  0
 19 20  1  0  0  0  0
 20 15  2  0  0  0  0
 21 22  2  0  0  0  0
 22 23  1  0  0  0  0
 23  8  1  0  0  0  0
 24 27  1  1  0  0  0
 24 28  1  0  0  0  0
 24 31  1  0  0  0  0
 25 30  1  0  0  0  0
 28 25  1  0  0  0  0
 29 30  1  0  0  0  0
 29 26  1  1  0  0  0
 30 22  1  1  0  0  0
 31 29  1  0  0  0  0
M  END
>  <MODEL>
2

>  <REMARK>
 VINA RESULT:     -11.4      1.418      1.853
  Name = 
  2 active torsions:
  status: ('A' for Active; 'I' for Inactive)
    1  A    between atoms: C_5  and  C_30
    2  A    between atoms: C_10  and  N_16
                            x       y       z     vdW  Elec       q    Type
                         _______ _______ _______ _____ _____    ______ ____

>  <TORSDO>
F 2

$$$$
=
 OpenBabel11122410553D

 31 35  0  0  1  0  0  0  0  0999 V2000
  185.4950  178.3160  143.7550 C   0  0  0  0  0  0  0  0  0  0  0  0
  189.0560  177.7110  143.0140 C   0  0  0  0  0  0  0  0  0  0  0  0
  189.6710  177.4130  144.3450 C   0  0  0  0  0  0  0  0  0  0  0  0
  189.5820  177.2660  146.7750 C   0  0  0  0  0  0  0  0  0  0  0  0
  187.6760  177.9990  142.8420 C   0  0  0  0  0  0  0  0  0  0  0  0
  184.9650  178.5550  142.4870 C   0  0  0  0  0  3  0  0  0  0  0  0
  188.9890  177.6090  145.5580 C   0  0  0  0  0  3  0  0  0  0  0  0
  189.3620  177.8930  140.5830 C   0  0  0  0  0  0  0  0  0  0  0  0
  184.6880  178.3540  144.8420 F   0  0  0  0  0  0  0  0  0  0  0  0
  191.6850  176.6960  143.1980 O   0  0  0  0  0  0  0  0  0  0  0  0
  188.8430  177.4780  148.0460 C   0  0  0  0  0  1  0  0  0  0  0  0
  188.0020  178.1780  140.4380 C   0  0  0  0  0  3  0  0  0  0  0  0
  189.8860  177.6500  141.8660 C   0  0  0  0  0  0  0  0  0  0  0  0
  186.8200  178.0460  143.9020 N   0  0  0  0  0  0  0  0  0  0  0  0
  190.8620  176.7100  146.7960 C   0  0  0  0  0  3  0  0  0  0  0  0
  187.1650  178.2310  141.5450 C   0  0  0  0  0  0  0  0  0  0  0  0
  185.8080  178.5100  141.3770 C   0  0  0  0  0  3  0  0  0  0  0  0
  191.3700  177.4310  142.0180 C   0  0  0  0  0  2  0  0  0  0  0  0
  190.9720  176.8790  144.3830 C   0  0  0  0  0  0  0  0  0  0  0  0
  191.5560  176.5150  145.6000 C   0  0  0  0  0  3  0  0  0  0  0  0
  190.1540  175.5530  138.9620 O   0  0  0  0  0  0  0  0  0  0  0  0
  190.5970  176.6950  138.6700 C   0  0  0  0  0  0  0  0  0  0  0  0
  190.2350  177.8480  139.4440 N   0  0  0  0  0  2  0  0  0  0  0  0
  192.3210  174.2230  136.3750 C   0  0  1  0  0  3  0  0  0  0  0  0
  190.9040  176.2890  136.2080 C   0  0  0  0  0  2  0  0  0  0  0  0
  193.4560  176.6800  138.9470 O   0  0  0  0  0  1  0  0  0  0  0  0
  192.2930  172.7720  136.3620 N   0  0  0  0  0  1  0  0  0  0  0  0
  190.9050  174.7590  136.1860 C   0  0  0  0  0  2  0  0  0  0  0  0
  192.9210  176.2350  137.7370 C   0  0  2  0  0  3  0  0  0  0  0  0
  191.5250  176.8360  137.4980 C   0  0  2  0  0  3  0  0  0  0  0  0
  192.8980  174.7080  137.7010 C   0  0  0  0  0  2  0  0  0  0  0  0
  1 14  1  0  0  0  0
  1  9  1  0  0  0  0
  2  3  1  0  0  0  0
  3 19  2  0  0  0  0
  3  7  1  0  0  0  0
  4 15  1  0  0  0  0
  4 11  1  0  0  0  0
  5  2  1  0  0  0  0
  5 14  2  0  0  0  0
  6  1  2  0  0  0  0
  7  4  2  0  0  0  0
  8 13  1  0  0  0  0
 10 19  1  0  0  0  0
 12  8  2  0  0  0  0
 12 16  1  0  0  0  0
 13 18  1  0  0  0  0
 13  2  2  0  0  0  0
 16  5  1  0  0  0  0
 17 16  2  0  0  0  0
 17  6  1  0  0  0  0
 18 10  1  0  0  0  0
 19 20  1  0  0  0  0
 20 15  2  0  0  0  0
 22 21  2  0  0  0  0
 22 23  1  0  0  0  0
 23  8  1  0  0  0  0
 24 27  1  1  0  0  0
 24 31  1  0  0  0  0
 25 30  1  0  0  0  0
 28 25  1  0  0  0  0
 28 24  1  0  0  0  0
 29 26  1  1  0  0  0
 30 29  1  0  0  0  0
 30 22  1  1  0  0  0
 31 29  1  0  0  0  0
M  END
>  <MODEL>
3

>  <REMARK>
 VINA RESULT:     -11.3      2.179      2.835
  Name = 
  2 active torsions:
  status: ('A' for Active; 'I' for Inactive)
    1  A    between atoms: C_5  and  C_30
    2  A    between atoms: C_10  and  N_16
                            x       y       z     vdW  Elec       q    Type
                         _______ _______ _______ _____ _____    ______ ____

>  <TORSDO>
F 2

$$$$
=
 OpenBabel11122410553D

 31 35  0  0  1  0  0  0  0  0999 V2000
  186.4790  178.1340  146.9700 C   0  0  0  0  0  0  0  0  0  0  0  0
  187.6100  178.0570  143.4610 C   0  0  0  0  0  0  0  0  0  0  0  0
  188.9960  177.4990  143.5250 C   0  0  0  0  0  0  0  0  0  0  0  0
  190.9630  176.7530  144.7530 C   0  0  0  0  0  0  0  0  0  0  0  0
  186.7960  178.2510  144.6080 C   0  0  0  0  0  0  0  0  0  0  0  0
  185.1800  178.6270  146.8520 C   0  0  0  0  0  3  0  0  0  0  0  0
  189.6910  177.3280  144.7340 C   0  0  0  0  0  3  0  0  0  0  0  0
  185.7600  178.8570  142.0550 C   0  0  0  0  0  0  0  0  0  0  0  0
  186.9780  177.8300  148.1920 F   0  0  0  0  0  0  0  0  0  0  0  0
  188.9630  177.2720  141.1100 O   0  0  0  0  0  0  0  0  0  0  0  0
  191.6800  176.5780  146.0430 C   0  0  0  0  0  1  0  0  0  0  0  0
  184.9780  179.0440  143.1980 C   0  0  0  0  0  3  0  0  0  0  0  0
  187.0690  178.3560  142.1850 C   0  0  0  0  0  0  0  0  0  0  0  0
  187.2470  177.9580  145.8610 N   0  0  0  0  0  0  0  0  0  0  0  0
  191.5550  176.3280  143.5630 C   0  0  0  0  0  3  0  0  0  0  0  0
  185.4810  178.7470  144.4580 C   0  0  0  0  0  0  0  0  0  0  0  0
  184.6800  178.9330  145.5860 C   0  0  0  0  0  3  0  0  0  0  0  0
  187.9310  178.2430  140.9530 C   0  0  0  0  0  2  0  0  0  0  0  0
  189.6170  177.0930  142.3290 C   0  0  0  0  0  0  0  0  0  0  0  0
  190.8810  176.4960  142.3510 C   0  0  0  0  0  3  0  0  0  0  0  0
  183.4550  177.6670  140.6400 O   0  0  0  0  0  0  0  0  0  0  0  0
  184.1230  178.5820  140.0900 C   0  0  0  0  0  0  0  0  0  0  0  0
  185.2510  179.1740  140.7500 N   0  0  0  0  0  2  0  0  0  0  0  0
  180.8990  178.4480  138.1040 C   0  0  1  0  0  3  0  0  0  0  0  0
  182.6440  180.1280  138.7690 C   0  0  0  0  0  2  0  0  0  0  0  0
  184.2730  176.8820  137.7800 O   0  0  0  0  0  1  0  0  0  0  0  0
  179.6020  177.8980  138.4500 N   0  0  0  0  0  1  0  0  0  0  0  0
  181.2720  179.5390  139.1030 C   0  0  0  0  0  2  0  0  0  0  0  0
  183.3190  177.9000  137.7710 C   0  0  2  0  0  3  0  0  0  0  0  0
  183.7260  179.0440  138.7170 C   0  0  2  0  0  3  0  0  0  0  0  0
  181.9430  177.3350  138.1210 C   0  0  0  0  0  2  0  0  0  0  0  0
  1  9  1  0  0  0  0
  2  3  1  0  0  0  0
  2  5  1  0  0  0  0
  3  7  1  0  0  0  0
  4 11  1  0  0  0  0
  5 14  1  0  0  0  0
  6  1  1  0  0  0  0
  7  4  2  0  0  0  0
  8 13  1  0  0  0  0
  8 12  2  0  0  0  0
 10 19  1  0  0  0  0
 12 16  1  0  0  0  0
 13  2  2  0  0  0  0
 14  1  2  0  0  0  0
 15  4  1  0  0  0  0
 16  5  2  0  0  0  0
 16 17  1  0  0  0  0
 17  6  2  0  0  0  0
 18 10  1  0  0  0  0
 18 13  1  0  0  0  0
 19 20  1  0  0  0  0
 19  3  2  0  0  0  0
 20 15  2  0  0  0  0
 22 21  2  0  0  0  0
 22 23  1  0  0  0  0
 23  8  1  0  0  0  0
 24 31  1  0  0  0  0
 24 27  1  1  0  0  0
 24 28  1  0  0  0  0
 25 28  1  0  0  0  0
 29 26  1  1  0  0  0
 29 31  1  0  0  0  0
 29 30  1  0  0  0  0
 30 25  1  0  0  0  0
 30 22  1  1  0  0  0
M  END
>  <MODEL>
4

>  <REMARK>
 VINA RESULT:     -11.1      2.846      4.297
  Name = 
  2 active torsions:
  status: ('A' for Active; 'I' for Inactive)
    1  A    between atoms: C_5  and  C_30
    2  A    between atoms: C_10  and  N_16
                            x       y       z     vdW  Elec       q    Type
                         _______ _______ _______ _____ _____    ______ ____

>  <TORSDO>
F 2

$$$$
=
 OpenBabel11122410553D

 31 35  0  0  1  0  0  0  0  0999 V2000
  190.1410  176.8500  146.6760 C   0  0  0  0  0  0  0  0  0  0  0  0
  188.3990  177.5020  143.4920 C   0  0  0  0  0  0  0  0  0  0  0  0
  187.0340  177.9600  143.8970 C   0  0  0  0  0  0  0  0  0  0  0  0
  185.3020  178.3580  145.5630 C   0  0  0  0  0  0  0  0  0  0  0  0
  189.4100  177.1480  144.4250 C   0  0  0  0  0  0  0  0  0  0  0  0
  191.4090  176.4610  146.2460 C   0  0  0  0  0  3  0  0  0  0  0  0
  186.5630  177.8680  145.2180 C   0  0  0  0  0  3  0  0  0  0  0  0
  189.9850  177.0770  141.6650 C   0  0  0  0  0  0  0  0  0  0  0  0
  189.8620  176.8980  148.0010 F   0  0  0  0  0  0  0  0  0  0  0  0
  186.6290  178.6250  141.6000 O   0  0  0  0  0  0  0  0  0  0  0  0
  184.8230  178.2540  146.9660 C   0  0  0  0  0  1  0  0  0  0  0  0
  190.9630  176.7300  142.5990 C   0  0  0  0  0  3  0  0  0  0  0  0
  188.7100  177.4720  142.1090 C   0  0  0  0  0  0  0  0  0  0  0  0
  189.1830  177.1820  145.7690 N   0  0  0  0  0  0  0  0  0  0  0  0
  184.4970  178.9580  144.5940 C   0  0  0  0  0  3  0  0  0  0  0  0
  190.6870  176.7630  143.9610 C   0  0  0  0  0  0  0  0  0  0  0  0
  191.6810  176.4200  144.8790 C   0  0  0  0  0  3  0  0  0  0  0  0
  187.6390  177.7590  141.0870 C   0  0  0  0  0  2  0  0  0  0  0  0
  186.2000  178.5420  142.9240 C   0  0  0  0  0  0  0  0  0  0  0  0
  184.9470  179.0520  143.2760 C   0  0  0  0  0  3  0  0  0  0  0  0
  192.5680  177.4540  140.2800 O   0  0  0  0  0  0  0  0  0  0  0  0
  191.5290  177.2140  139.6100 C   0  0  0  0  0  0  0  0  0  0  0  0
  190.2600  177.0340  140.2550 N   0  0  0  0  0  2  0  0  0  0  0  0
  190.4570  174.6380  137.0470 C   0  0  1  0  0  3  0  0  0  0  0  0
  190.2530  177.1090  137.4460 C   0  0  0  0  0  2  0  0  0  0  0  0
  193.7330  175.9390  138.2810 O   0  0  0  0  0  1  0  0  0  0  0  0
  189.7930  173.3600  137.2180 N   0  0  0  0  0  1  0  0  0  0  0  0
  189.5710  175.7490  137.6020 C   0  0  0  0  0  2  0  0  0  0  0  0
  192.5040  175.9610  137.6200 C   0  0  2  0  0  3  0  0  0  0  0  0
  191.6330  177.1280  138.1150 C   0  0  2  0  0  3  0  0  0  0  0  0
  191.7970  174.6160  137.7780 C   0  0  0  0  0  2  0  0  0  0  0  0
  1  9  1  0  0  0  0
  2  3  1  0  0  0  0
  2  5  1  0  0  0  0
  3  7  1  0  0  0  0
  4 11  1  0  0  0  0
  5 14  1  0  0  0  0
  6  1  1  0  0  0  0
  7  4  2  0  0  0  0
  8 13  1  0  0  0  0
  8 12  2  0  0  0  0
 10 19  1  0  0  0  0
 12 16  1  0  0  0  0
 13  2  2  0  0  0  0
 14  1  2  0  0  0  0
 15  4  1  0  0  0  0
 16  5  2  0  0  0  0
 16 17  1  0  0  0  0
 17  6  2  0  0  0  0
 18 10  1  0  0  0  0
 18 13  1  0  0  0  0
 19 20  1  0  0  0  0
 19  3  2  0  0  0  0
 20 15  2  0  0  0  0
 22 23  1  0  0  0  0
 22 21  2  0  0  0  0
 23  8  1  0  0  0  0
 24 27  1  1  0  0  0
 24 28  1  0  0  0  0
 24 31  1  0  0  0  0
 25 28  1  0  0  0  0
 25 30  1  0  0  0  0
 29 31  1  0  0  0  0
 29 30  1  0  0  0  0
 29 26  1  1  0  0  0
 30 22  1  1  0  0  0
M  END
>  <MODEL>
5

>  <REMARK>
 VINA RESULT:     -11.0      2.363      4.725
  Name = 
  2 active torsions:
  status: ('A' for Active; 'I' for Inactive)
    1  A    between atoms: C_5  and  C_30
    2  A    between atoms: C_10  and  N_16
                            x       y       z     vdW  Elec       q    Type
                         _______ _______ _______ _____ _____    ______ ____

>  <TORSDO>
F 2

$$$$
=
 OpenBabel11122410553D

 31 35  0  0  1  0  0  0  0  0999 V2000
  190.2020  177.1030  145.8650 C   0  0  0  0  0  0  0  0  0  0  0  0
  188.0160  177.8780  142.9980 C   0  0  0  0  0  0  0  0  0  0  0  0
  186.7050  178.2490  143.6150 C   0  0  0  0  0  0  0  0  0  0  0  0
  185.2070  178.4660  145.5240 C   0  0  0  0  0  0  0  0  0  0  0  0
  189.1570  177.5100  143.7590 C   0  0  0  0  0  0  0  0  0  0  0  0
  191.4110  176.7970  145.2400 C   0  0  0  0  0  3  0  0  0  0  0  0
  186.4240  178.0540  144.9780 C   0  0  0  0  0  3  0  0  0  0  0  0
  189.3480  177.6390  140.9480 C   0  0  0  0  0  0  0  0  0  0  0  0
  190.1070  177.0550  147.2150 F   0  0  0  0  0  0  0  0  0  0  0  0
  185.9630  179.0400  141.4450 O   0  0  0  0  0  0  0  0  0  0  0  0
  184.9310  178.2530  146.9680 C   0  0  0  0  0  1  0  0  0  0  0  0
  190.4570  177.2760  141.7150 C   0  0  0  0  0  3  0  0  0  0  0  0
  188.1330  177.9490  141.5870 C   0  0  0  0  0  0  0  0  0  0  0  0
  189.1170  177.4490  145.1210 N   0  0  0  0  0  0  0  0  0  0  0  0
  184.2550  179.0910  144.7160 C   0  0  0  0  0  3  0  0  0  0  0  0
  190.3710  177.2110  143.1010 C   0  0  0  0  0  0  0  0  0  0  0  0
  191.4930  176.8540  143.8490 C   0  0  0  0  0  3  0  0  0  0  0  0
  186.9220  178.2530  140.7420 C   0  0  0  0  0  2  0  0  0  0  0  0
  185.7250  178.8550  142.8070 C   0  0  0  0  0  0  0  0  0  0  0  0
  184.5150  179.2870  143.3590 C   0  0  0  0  0  3  0  0  0  0  0  0
  190.5560  175.6830  139.0910 O   0  0  0  0  0  0  0  0  0  0  0  0
  190.0150  176.7250  138.6360 C   0  0  0  0  0  0  0  0  0  0  0  0
  189.4260  177.6960  139.5140 N   0  0  0  0  0  2  0  0  0  0  0  0
  187.2650  177.2590  136.0860 C   0  0  1  0  0  3  0  0  0  0  0  0
  189.4300  178.3220  136.7840 C   0  0  0  0  0  2  0  0  0  0  0  0
  189.7720  174.5730  136.7500 O   0  0  0  0  0  1  0  0  0  0  0  0
  185.8240  177.3050  136.2510 N   0  0  0  0  0  1  0  0  0  0  0  0
  187.9070  178.3560  136.9290 C   0  0  0  0  0  2  0  0  0  0  0  0
  189.3000  175.8280  136.3630 C   0  0  2  0  0  3  0  0  0  0  0  0
  190.0020  176.9470  137.1510 C   0  0  2  0  0  3  0  0  0  0  0  0
  187.7810  175.8890  136.5170 C   0  0  0  0  0  2  0  0  0  0  0  0
  1  9  1  0  0  0  0
  2  3  1  0  0  0  0
  2  5  1  0  0  0  0
  3  7  1  0  0  0  0
  4 11  1  0  0  0  0
  5 14  1  0  0  0  0
  6  1  1  0  0  0  0
  7  4  2  0  0  0  0
  8 13  1  0  0  0  0
  8 12  2  0  0  0  0
 10 19  1  0  0  0  0
 12 16  1  0  0  0  0
 13  2  2  0  0  0  0
 14  1  2  0  0  0  0
 15  4  1  0  0  0  0
 16  5  2  0  0  0  0
 16 17  1  0  0  0  0
 17  6  2  0  0  0  0
 18 10  1  0  0  0  0
 18 13  1  0  0  0  0
 19 20  1  0  0  0  0
 19  3  2  0  0  0  0
 20 15  2  0  0  0  0
 22 21  2  0  0  0  0
 22 23  1  0  0  0  0
 23  8  1  0  0  0  0
 24 27  1  1  0  0  0
 24 31  1  0  0  0  0
 24 28  1  0  0  0  0
 25 28  1  0  0  0  0
 25 30  1  0  0  0  0
 29 31  1  0  0  0  0
 29 26  1  1  0  0  0
 29 30  1  0  0  0  0
 30 22  1  1  0  0  0
M  END
>  <MODEL>
6

>  <REMARK>
 VINA RESULT:     -10.9      2.114      4.491
  Name = 
  2 active torsions:
  status: ('A' for Active; 'I' for Inactive)
    1  A    between atoms: C_5  and  C_30
    2  A    between atoms: C_10  and  N_16
                            x       y       z     vdW  Elec       q    Type
                         _______ _______ _______ _____ _____    ______ ____

>  <TORSDO>
F 2

$$$$
=
 OpenBabel11122410553D

 31 35  0  0  1  0  0  0  0  0999 V2000
  190.2610  177.3770  141.8950 C   0  0  0  0  0  0  0  0  0  0  0  0
  186.9840  178.1780  143.3850 C   0  0  0  0  0  0  0  0  0  0  0  0
  187.1930  178.0220  144.8580 C   0  0  0  0  0  0  0  0  0  0  0  0
  188.5290  177.3650  146.7860 C   0  0  0  0  0  0  0  0  0  0  0  0
  188.0110  177.9680  142.4270 C   0  0  0  0  0  0  0  0  0  0  0  0
  190.0220  177.5690  140.5350 C   0  0  0  0  0  3  0  0  0  0  0  0
  188.3510  177.4420  145.4040 C   0  0  0  0  0  3  0  0  0  0  0  0
  185.4590  178.8010  141.5630 C   0  0  0  0  0  0  0  0  0  0  0  0
  191.4870  176.9880  142.3180 F   0  0  0  0  0  0  0  0  0  0  0  0
  185.0350  179.0680  145.2250 O   0  0  0  0  0  0  0  0  0  0  0  0
  189.7620  176.7510  147.3440 C   0  0  0  0  0  1  0  0  0  0  0  0
  186.4830  178.5850  140.6370 C   0  0  0  0  0  3  0  0  0  0  0  0
  185.7110  178.6090  142.9330 C   0  0  0  0  0  0  0  0  0  0  0  0
  189.2650  177.5790  142.7990 N   0  0  0  0  0  0  0  0  0  0  0  0
  187.5550  177.8790  147.6450 C   0  0  0  0  0  3  0  0  0  0  0  0
  187.7430  178.1750  141.0560 C   0  0  0  0  0  0  0  0  0  0  0  0
  188.7540  177.9720  140.1160 C   0  0  0  0  0  3  0  0  0  0  0  0
  184.5740  178.7610  143.9110 C   0  0  0  0  0  2  0  0  0  0  0  0
  186.2070  178.5100  145.7360 C   0  0  0  0  0  0  0  0  0  0  0  0
  186.3960  178.4520  147.1200 C   0  0  0  0  0  3  0  0  0  0  0  0
  183.2330  177.1280  140.5740 O   0  0  0  0  0  0  0  0  0  0  0  0
  183.0850  178.3750  140.6650 C   0  0  0  0  0  0  0  0  0  0  0  0
  184.1510  179.2130  141.1360 N   0  0  0  0  0  2  0  0  0  0  0  0
  179.4900  177.1900  140.8200 C   0  0  1  0  0  3  0  0  0  0  0  0
  180.8500  179.1990  141.4700 C   0  0  0  0  0  2  0  0  0  0  0  0
  181.9090  177.9510  138.0800 O   0  0  0  0  0  1  0  0  0  0  0  0
  178.9310  175.9410  141.3040 N   0  0  0  0  0  1  0  0  0  0  0  0
  180.2370  177.8830  141.9550 C   0  0  0  0  0  2  0  0  0  0  0  0
  181.0480  178.2090  139.1470 C   0  0  2  0  0  3  0  0  0  0  0  0
  181.7710  178.9810  140.2640 C   0  0  2  0  0  3  0  0  0  0  0  0
  180.4380  176.9050  139.6590 C   0  0  0  0  0  2  0  0  0  0  0  0
  1  9  1  0  0  0  0
  1 14  1  0  0  0  0
  2  3  1  0  0  0  0
  3  7  2  0  0  0  0
  3 19  1  0  0  0  0
  4 11  1  0  0  0  0
  4 15  2  0  0  0  0
  5 14  2  0  0  0  0
  5  2  1  0  0  0  0
  6  1  2  0  0  0  0
  7  4  1  0  0  0  0
  8 13  1  0  0  0  0
 10 19  1  0  0  0  0
 12 16  1  0  0  0  0
 12  8  2  0  0  0  0
 13  2  2  0  0  0  0
 13 18  1  0  0  0  0
 16  5  1  0  0  0  0
 17  6  1  0  0  0  0
 17 16  2  0  0  0  0
 18 10  1  0  0  0  0
 19 20  2  0  0  0  0
 20 15  1  0  0  0  0
 21 22  2  0  0  0  0
 22 23  1  0  0  0  0
 23  8  1  0  0  0  0
 24 27  1  1  0  0  0
 24 28  1  0  0  0  0
 25 28  1  0  0  0  0
 29 26  1  6  0  0  0
 29 31  1  0  0  0  0
 29 30  1  0  0  0  0
 30 22  1  1  0  0  0
 30 25  1  0  0  0  0
 31 24  1  0  0  0  0
M  END
>  <MODEL>
7

>  <REMARK>
 VINA RESULT:     -10.9      3.498      5.982
  Name = 
  2 active torsions:
  status: ('A' for Active; 'I' for Inactive)
    1  A    between atoms: C_5  and  C_30
    2  A    between atoms: C_10  and  N_16
                            x       y       z     vdW  Elec       q    Type
                         _______ _______ _______ _____ _____    ______ ____

>  <TORSDO>
F 2

$$$$
=
 OpenBabel11122410553D

 31 35  0  0  1  0  0  0  0  0999 V2000
  182.0850  178.8130  143.0960 C   0  0  0  0  0  0  0  0  0  0  0  0
  185.6490  178.4730  142.2150 C   0  0  0  0  0  0  0  0  0  0  0  0
  186.3380  178.2360  143.5220 C   0  0  0  0  0  0  0  0  0  0  0  0
  186.3580  178.1080  145.9540 C   0  0  0  0  0  0  0  0  0  0  0  0
  184.2460  178.6530  142.0980 C   0  0  0  0  0  0  0  0  0  0  0  0
  181.4880  178.9970  141.8500 C   0  0  0  0  0  3  0  0  0  0  0  0
  185.6930  178.3920  144.7600 C   0  0  0  0  0  3  0  0  0  0  0  0
  185.8430  178.6530  139.7730 C   0  0  0  0  0  0  0  0  0  0  0  0
  181.3220  178.8000  144.2150 F   0  0  0  0  0  0  0  0  0  0  0  0
  188.3530  177.6630  142.2990 O   0  0  0  0  0  0  0  0  0  0  0  0
  185.6570  178.2760  147.2530 C   0  0  0  0  0  1  0  0  0  0  0  0
  184.4600  178.8320  139.6800 C   0  0  0  0  0  3  0  0  0  0  0  0
  186.4350  178.4640  141.0350 C   0  0  0  0  0  0  0  0  0  0  0  0
  183.4310  178.6450  143.1920 N   0  0  0  0  0  0  0  0  0  0  0  0
  187.6770  177.6510  145.9270 C   0  0  0  0  0  3  0  0  0  0  0  0
  183.6670  178.8320  140.8210 C   0  0  0  0  0  0  0  0  0  0  0  0
  182.2870  179.0050  140.7070 C   0  0  0  0  0  3  0  0  0  0  0  0
  187.9360  178.3600  141.1270 C   0  0  0  0  0  2  0  0  0  0  0  0
  187.6770  177.8030  143.5100 C   0  0  0  0  0  0  0  0  0  0  0  0
  188.3350  177.4970  144.7060 C   0  0  0  0  0  3  0  0  0  0  0  0
  185.8290  176.7720  137.4940 O   0  0  0  0  0  0  0  0  0  0  0  0
  186.6360  177.7380  137.5020 C   0  0  0  0  0  0  0  0  0  0  0  0
  186.6700  178.6640  138.5990 N   0  0  0  0  0  2  0  0  0  0  0  0
  189.9760  176.1990  136.5910 C   0  0  1  0  0  3  0  0  0  0  0  0
  187.7330  176.6100  135.5410 C   0  0  0  0  0  2  0  0  0  0  0  0
  188.8070  179.6180  137.5330 O   0  0  0  0  0  1  0  0  0  0  0  0
  190.7850  175.2210  137.2940 N   0  0  0  0  0  1  0  0  0  0  0  0
  188.6130  175.5940  136.2710 C   0  0  0  0  0  2  0  0  0  0  0  0
  188.9510  178.4780  136.7410 C   0  0  2  0  0  3  0  0  0  0  0  0
  187.5780  177.9060  136.3450 C   0  0  2  0  0  3  0  0  0  0  0  0
  189.8130  177.4420  137.4610 C   0  0  0  0  0  2  0  0  0  0  0  0
  1 14  1  0  0  0  0
  1  9  1  0  0  0  0
  2  3  1  0  0  0  0
  3  7  1  0  0  0  0
  4 11  1  0  0  0  0
  5  2  1  0  0  0  0
  5 14  2  0  0  0  0
  6  1  2  0  0  0  0
  7  4  2  0  0  0  0
  8 13  1  0  0  0  0
 10 19  1  0  0  0  0
 12  8  2  0  0  0  0
 12 16  1  0  0  0  0
 13 18  1  0  0  0  0
 13  2  2  0  0  0  0
 15  4  1  0  0  0  0
 16  5  1  0  0  0  0
 17 16  2  0  0  0  0
 17  6  1  0  0  0  0
 18 10  1  0  0  0  0
 19  3  2  0  0  0  0
 19 20  1  0  0  0  0
 20 15  2  0  0  0  0
 21 22  2  0  0  0  0
 22 23  1  0  0  0  0
 23  8  1  0  0  0  0
 24 27  1  1  0  0  0
 24 31  1  0  0  0  0
 25 28  1  0  0  0  0
 25 30  1  0  0  0  0
 28 24  1  0  0  0  0
 29 31  1  0  0  0  0
 29 26  1  1  0  0  0
 30 29  1  0  0  0  0
 30 22  1  1  0  0  0
M  END
>  <MODEL>
8

>  <REMARK>
 VINA RESULT:     -10.5      1.584      2.235
  Name = 
  2 active torsions:
  status: ('A' for Active; 'I' for Inactive)
    1  A    between atoms: C_5  and  C_30
    2  A    between atoms: C_10  and  N_16
                            x       y       z     vdW  Elec       q    Type
                         _______ _______ _______ _____ _____    ______ ____

>  <TORSDO>
F 2

$$$$
=
 OpenBabel11122410553D

 31 35  0  0  1  0  0  0  0  0999 V2000
  190.1410  177.1280  145.6780 C   0  0  0  0  0  0  0  0  0  0  0  0
  187.8210  177.7550  142.8810 C   0  0  0  0  0  0  0  0  0  0  0  0
  186.5550  178.2060  143.5370 C   0  0  0  0  0  0  0  0  0  0  0  0
  185.1690  178.6000  145.5000 C   0  0  0  0  0  0  0  0  0  0  0  0
  188.9930  177.4120  143.6050 C   0  0  0  0  0  0  0  0  0  0  0  0
  191.3070  176.7450  145.0150 C   0  0  0  0  0  3  0  0  0  0  0  0
  186.3440  178.1170  144.9230 C   0  0  0  0  0  3  0  0  0  0  0  0
  189.0340  177.3320  140.7860 C   0  0  0  0  0  0  0  0  0  0  0  0
  190.1190  177.1800  147.0310 F   0  0  0  0  0  0  0  0  0  0  0  0
  185.7160  178.8580  141.3560 O   0  0  0  0  0  0  0  0  0  0  0  0
  184.9660  178.5000  146.9690 C   0  0  0  0  0  1  0  0  0  0  0  0
  190.1740  176.9950  141.5190 C   0  0  0  0  0  3  0  0  0  0  0  0
  187.8640  177.7210  141.4630 C   0  0  0  0  0  0  0  0  0  0  0  0
  189.0260  177.4500  144.9680 N   0  0  0  0  0  0  0  0  0  0  0  0
  184.1900  179.1920  144.7000 C   0  0  0  0  0  3  0  0  0  0  0  0
  190.1620  177.0330  142.9080 C   0  0  0  0  0  0  0  0  0  0  0  0
  191.3140  176.6990  143.6210 C   0  0  0  0  0  3  0  0  0  0  0  0
  186.6160  177.9970  140.6630 C   0  0  0  0  0  2  0  0  0  0  0  0
  185.5470  178.7790  142.7380 C   0  0  0  0  0  0  0  0  0  0  0  0
  184.3800  179.2830  143.3200 C   0  0  0  0  0  3  0  0  0  0  0  0
  189.0560  179.5810  138.8690 O   0  0  0  0  0  0  0  0  0  0  0  0
  189.0530  178.3950  138.4430 C   0  0  0  0  0  0  0  0  0  0  0  0
  189.0360  177.2840  139.3500 N   0  0  0  0  0  2  0  0  0  0  0  0
  187.5540  175.7310  136.2060 C   0  0  1  0  0  3  0  0  0  0  0  0
  187.6490  178.2350  136.3630 C   0  0  0  0  0  2  0  0  0  0  0  0
  191.0200  176.7530  137.1450 O   0  0  0  0  0  1  0  0  0  0  0  0
  186.7620  174.5600  136.5360 N   0  0  0  0  0  1  0  0  0  0  0  0
  186.8300  176.9840  136.6870 C   0  0  0  0  0  2  0  0  0  0  0  0
  189.7640  176.8550  136.5440 C   0  0  2  0  0  3  0  0  0  0  0  0
  189.0590  178.1570  136.9600 C   0  0  2  0  0  3  0  0  0  0  0  0
  188.9230  175.6220  136.8700 C   0  0  0  0  0  2  0  0  0  0  0  0
  1  9  1  0  0  0  0
  2  3  1  0  0  0  0
  2  5  1  0  0  0  0
  3  7  1  0  0  0  0
  4 11  1  0  0  0  0
  5 14  1  0  0  0  0
  6  1  1  0  0  0  0
  7  4  2  0  0  0  0
  8 13  1  0  0  0  0
  8 12  2  0  0  0  0
 10 19  1  0  0  0  0
 12 16  1  0  0  0  0
 13  2  2  0  0  0  0
 14  1  2  0  0  0  0
 15  4  1  0  0  0  0
 16  5  2  0  0  0  0
 16 17  1  0  0  0  0
 17  6  2  0  0  0  0
 18 10  1  0  0  0  0
 18 13  1  0  0  0  0
 19 20  1  0  0  0  0
 19  3  2  0  0  0  0
 20 15  2  0  0  0  0
 22 21  2  0  0  0  0
 22 23  1  0  0  0  0
 23  8  1  0  0  0  0
 24 27  1  1  0  0  0
 24 28  1  0  0  0  0
 24 31  1  0  0  0  0
 25 28  1  0  0  0  0
 25 30  1  0  0  0  0
 29 31  1  0  0  0  0
 29 30  1  0  0  0  0
 29 26  1  1  0  0  0
 30 22  1  1  0  0  0
M  END
>  <MODEL>
9

>  <REMARK>
 VINA RESULT:     -10.5      1.961      4.202
  Name = 
  2 active torsions:
  status: ('A' for Active; 'I' for Inactive)
    1  A    between atoms: C_5  and  C_30
    2  A    between atoms: C_10  and  N_16
                            x       y       z     vdW  Elec       q    Type
                         _______ _______ _______ _____ _____    ______ ____

>  <TORSDO>
F 2

$$$$
