=
 OpenBabel11122412003D

 28 32  0  0  1  0  0  0  0  0999 V2000
  190.0670  177.3230  144.5000 C   0  0  0  0  0  0  0  0  0  0  0  0
  188.2930  179.3320  142.2260 F   0  0  0  0  0  0  0  0  0  0  0  0
  184.8310  177.2580  147.1350 O   0  0  0  0  0  0  0  0  0  0  0  0
  190.8250  174.9640  143.1890 C   0  0  0  0  0  3  0  0  0  0  0  0
  184.6740  178.1980  144.9070 C   0  0  2  0  0  3  0  0  0  0  0  0
  189.7160  178.4900  145.1770 O   0  0  0  0  0  0  0  0  0  0  0  0
  189.0570  177.6290  140.7840 C   0  0  0  0  0  1  0  0  0  0  0  0
  187.8550  178.2850  141.4330 C   0  0  1  0  0  0  0  0  0  0  0  0
  185.6190  179.0520  140.5670 C   0  0  0  0  0  0  0  0  0  0  0  0
  187.0600  177.2450  142.2670 C   0  0  2  0  0  3  0  0  0  0  0  0
  188.7570  178.5710  148.7880 C   0  0  0  0  0  1  0  0  0  0  0  0
  187.1250  178.0810  144.5640 C   0  0  1  0  0  3  0  0  0  0  0  0
  185.0050  178.5510  141.5930 N   0  0  0  0  0  0  0  0  0  0  0  0
  187.0150  178.8270  140.3750 N   0  0  0  0  0  2  0  0  0  0  0  0
  188.5340  178.5380  147.2900 C   0  0  2  0  0  3  0  0  0  0  0  0
  189.1150  176.6080  143.7340 C   0  0  0  0  0  0  0  0  0  0  0  0
  185.3960  177.6400  146.0740 C   0  0  0  0  0  0  0  0  0  0  0  0
  184.8820  179.7760  139.5890 N   0  0  0  0  0  1  0  0  0  0  0  0
  187.7640  177.2730  146.9240 C   0  0  0  0  0  2  0  0  0  0  0  0
  189.5100  175.4230  143.0970 C   0  0  0  0  0  3  0  0  0  0  0  0
  191.3820  176.8480  144.5930 C   0  0  0  0  0  3  0  0  0  0  0  0
  191.7620  175.6770  143.9360 C   0  0  0  0  0  3  0  0  0  0  0  0
  189.8860  178.5970  146.5840 C   0  0  0  0  0  2  0  0  0  0  0  0
  185.8040  178.5470  143.9300 C   0  0  1  0  0  3  0  0  0  0  0  0
  186.7910  177.5540  145.8730 N   0  0  0  0  0  0  0  0  0  0  0  0
  185.6590  177.7580  142.6360 C   0  0  2  0  0  3  0  0  0  0  0  0
  183.9470  179.4690  145.3040 C   0  0  0  0  0  1  0  0  0  0  0  0
  187.6480  176.9760  143.6530 C   0  0  2  0  0  3  0  0  0  0  0  0
  1 21  1  0  0  0  0
  1  6  1  0  0  0  0
  4 22  1  0  0  0  0
  5 27  1  1  0  0  0
  5 17  1  0  0  0  0
  6 23  1  0  0  0  0
  8  7  1  6  0  0  0
  8  2  1  0  0  0  0
  8 10  1  0  0  0  0
  9 13  2  0  0  0  0
 10 26  1  0  0  0  0
 10 28  1  0  0  0  0
 12 25  1  0  0  0  0
 13 26  1  0  0  0  0
 14  9  1  0  0  0  0
 14  8  1  0  0  0  0
 15 11  1  0  0  0  0
 16  1  2  0  0  0  0
 17  3  2  0  0  0  0
 18  9  1  0  0  0  0
 19 15  1  0  0  0  0
 20  4  2  0  0  0  0
 20 16  1  0  0  0  0
 22 21  2  0  0  0  0
 23 15  1  0  0  0  0
 24 12  1  0  0  0  0
 24  5  1  0  0  0  0
 25 17  1  0  0  0  0
 25 19  1  0  0  0  0
 26 24  1  0  0  0  0
 28 16  1  0  0  0  0
 28 12  1  0  0  0  0
M  END
>  <MODEL>
1

>  <REMARK>
 VINA RESULT:      -6.3      0.000      0.000
  Name = 
  0 active torsions:
  status: ('A' for Active; 'I' for Inactive)
                            x       y       z     vdW  Elec       q    Type
                         _______ _______ _______ _____ _____    ______ ____

>  <TORSDO>
F 0

$$$$
=
 OpenBabel11122412003D

 28 32  0  0  1  0  0  0  0  0999 V2000
  186.0300  177.8870  143.8040 C   0  0  0  0  0  0  0  0  0  0  0  0
  183.8060  176.8770  141.2780 F   0  0  0  0  0  0  0  0  0  0  0  0
  189.4140  178.9640  139.1400 O   0  0  0  0  0  0  0  0  0  0  0  0
  184.9460  180.1280  145.0930 C   0  0  0  0  0  3  0  0  0  0  0  0
  187.1310  178.5030  138.4730 C   0  0  2  0  0  3  0  0  0  0  0  0
  186.5920  176.7670  143.1920 O   0  0  0  0  0  0  0  0  0  0  0  0
  182.5030  178.5190  142.3620 C   0  0  0  0  0  1  0  0  0  0  0  0
  183.2340  178.1250  141.0930 C   0  0  1  0  0  0  0  0  0  0  0  0
  182.6230  178.1760  138.6520 C   0  0  0  0  0  0  0  0  0  0  0  0
  184.3100  179.1880  140.7410 C   0  0  2  0  0  3  0  0  0  0  0  0
  190.2630  176.3410  142.6420 C   0  0  0  0  0  1  0  0  0  0  0  0
  186.4390  177.9860  140.7950 C   0  0  1  0  0  3  0  0  0  0  0  0
  183.7880  178.6460  138.3290 N   0  0  0  0  0  0  0  0  0  0  0  0
  182.2530  178.0310  140.0220 N   0  0  0  0  0  2  0  0  0  0  0  0
  188.8350  176.6910  142.2810 C   0  0  2  0  0  3  0  0  0  0  0  0
  185.5200  178.9610  143.0350 C   0  0  0  0  0  0  0  0  0  0  0  0
  188.2390  178.6280  139.4480 C   0  0  0  0  0  0  0  0  0  0  0  0
  181.6810  177.8680  137.6320 N   0  0  0  0  0  1  0  0  0  0  0  0
  188.7610  178.1640  141.8930 C   0  0  0  0  0  2  0  0  0  0  0  0
  184.9940  180.0790  143.6990 C   0  0  0  0  0  3  0  0  0  0  0  0
  185.9850  177.9510  145.2040 C   0  0  0  0  0  3  0  0  0  0  0  0
  185.4410  179.0630  145.8460 C   0  0  0  0  0  3  0  0  0  0  0  0
  187.9310  176.3780  143.4700 C   0  0  0  0  0  2  0  0  0  0  0  0
  185.9570  178.0240  139.3350 C   0  0  1  0  0  3  0  0  0  0  0  0
  187.8420  178.3520  140.7750 N   0  0  0  0  0  0  0  0  0  0  0  0
  184.8150  179.0330  139.2980 C   0  0  2  0  0  3  0  0  0  0  0  0
  187.4610  177.4380  137.4430 C   0  0  0  0  0  1  0  0  0  0  0  0
  185.6140  179.0390  141.5260 C   0  0  2  0  0  3  0  0  0  0  0  0
  1 21  1  0  0  0  0
  3 17  2  0  0  0  0
  4 22  1  0  0  0  0
  5 27  1  6  0  0  0
  5 24  1  0  0  0  0
  5 17  1  0  0  0  0
  6 23  1  0  0  0  0
  6  1  1  0  0  0  0
  8  2  1  0  0  0  0
  8  7  1  1  0  0  0
  9 14  1  0  0  0  0
 10  8  1  0  0  0  0
 10 28  1  0  0  0  0
 12 28  1  0  0  0  0
 13  9  2  0  0  0  0
 13 26  1  0  0  0  0
 14  8  1  0  0  0  0
 15 11  1  0  0  0  0
 15 23  1  0  0  0  0
 16 20  1  0  0  0  0
 16  1  2  0  0  0  0
 17 25  1  0  0  0  0
 18  9  1  0  0  0  0
 19 15  1  0  0  0  0
 20  4  2  0  0  0  0
 21 22  2  0  0  0  0
 24 12  1  0  0  0  0
 25 12  1  0  0  0  0
 25 19  1  0  0  0  0
 26 24  1  0  0  0  0
 26 10  1  0  0  0  0
 28 16  1  0  0  0  0
M  END
>  <MODEL>
2

>  <REMARK>
 VINA RESULT:      -6.0      2.636      5.660
  Name = 
  0 active torsions:
  status: ('A' for Active; 'I' for Inactive)
                            x       y       z     vdW  Elec       q    Type
                         _______ _______ _______ _____ _____    ______ ____

>  <TORSDO>
F 0

$$$$
=
 OpenBabel11122412003D

 28 32  0  0  1  0  0  0  0  0999 V2000
  180.4470  178.5830  139.7680 C   0  0  0  0  0  0  0  0  0  0  0  0
  183.3880  176.9000  138.8350 F   0  0  0  0  0  0  0  0  0  0  0  0
  183.8030  180.0280  144.3510 O   0  0  0  0  0  0  0  0  0  0  0  0
  179.9610  180.6150  137.8980 C   0  0  0  0  0  3  0  0  0  0  0  0
  185.1220  179.0100  142.5920 C   0  0  2  0  0  3  0  0  0  0  0  0
  180.6530  177.5750  140.7080 O   0  0  0  0  0  0  0  0  0  0  0  0
  183.0740  178.2840  136.9510 C   0  0  0  0  0  1  0  0  0  0  0  0
  183.9440  177.9670  138.1510 C   0  0  1  0  0  0  0  0  0  0  0  0
  186.4260  177.6860  138.4680 C   0  0  0  0  0  0  0  0  0  0  0  0
  184.0730  179.2150  139.0660 C   0  0  2  0  0  3  0  0  0  0  0  0
  179.8610  177.9490  144.3410 C   0  0  0  0  0  1  0  0  0  0  0  0
  183.1190  178.5340  141.2130 C   0  0  1  0  0  3  0  0  0  0  0  0
  186.4050  178.3800  139.5630 N   0  0  0  0  0  0  0  0  0  0  0  0
  185.2560  177.5690  137.6600 N   0  0  0  0  0  2  0  0  0  0  0  0
  180.7310  177.9370  143.1020 C   0  0  2  0  0  3  0  0  0  0  0  0
  181.4990  179.4500  139.3820 C   0  0  0  0  0  0  0  0  0  0  0  0
  183.8620  179.4590  143.2280 C   0  0  0  0  0  0  0  0  0  0  0  0
  187.6430  177.0920  138.0330 N   0  0  0  0  0  1  0  0  0  0  0  0
  181.3440  179.3200  142.9040 C   0  0  0  0  0  2  0  0  0  0  0  0
  181.2320  180.4680  138.4560 C   0  0  0  0  0  3  0  0  0  0  0  0
  179.1730  178.7460  139.2070 C   0  0  0  0  0  3  0  0  0  0  0  0
  178.9310  179.7530  138.2730 C   0  0  0  0  0  3  0  0  0  0  0  0
  179.8840  177.5220  141.9020 C   0  0  0  0  0  2  0  0  0  0  0  0
  184.6430  178.3470  141.2940 C   0  0  1  0  0  3  0  0  0  0  0  0
  182.7220  179.2060  142.4350 N   0  0  0  0  0  0  0  0  0  0  0  0
  185.2180  179.0650  140.0790 C   0  0  2  0  0  3  0  0  0  0  0  0
  185.8030  177.9700  143.4620 C   0  0  0  0  0  1  0  0  0  0  0  0
  182.8810  179.4270  140.0010 C   0  0  2  0  0  3  0  0  0  0  0  0
  1  6  1  0  0  0  0
  4 22  2  0  0  0  0
  4 20  1  0  0  0  0
  5 17  1  0  0  0  0
  5 27  1  1  0  0  0
  6 23  1  0  0  0  0
  8  7  1  6  0  0  0
  8  2  1  0  0  0  0
  8 10  1  0  0  0  0
  9 13  2  0  0  0  0
 10 28  1  0  0  0  0
 10 26  1  0  0  0  0
 12 24  1  0  0  0  0
 12 25  1  0  0  0  0
 13 26  1  0  0  0  0
 14  8  1  0  0  0  0
 14  9  1  0  0  0  0
 15 11  1  0  0  0  0
 16  1  1  0  0  0  0
 16 28  1  0  0  0  0
 17  3  2  0  0  0  0
 18  9  1  0  0  0  0
 19 15  1  0  0  0  0
 20 16  2  0  0  0  0
 21  1  2  0  0  0  0
 22 21  1  0  0  0  0
 23 15  1  0  0  0  0
 24  5  1  0  0  0  0
 25 19  1  0  0  0  0
 25 17  1  0  0  0  0
 26 24  1  0  0  0  0
 28 12  1  0  0  0  0
M  END
>  <MODEL>
3

>  <REMARK>
 VINA RESULT:      -5.9      4.213      7.798
  Name = 
  0 active torsions:
  status: ('A' for Active; 'I' for Inactive)
                            x       y       z     vdW  Elec       q    Type
                         _______ _______ _______ _____ _____    ______ ____

>  <TORSDO>
F 0

$$$$
=
 OpenBabel11122412003D

 28 32  0  0  1  0  0  0  0  0999 V2000
  181.5780  178.6380  140.9640 C   0  0  0  0  0  0  0  0  0  0  0  0
  181.2530  175.4720  139.4740 F   0  0  0  0  0  0  0  0  0  0  0  0
  186.4000  178.7110  137.6330 O   0  0  0  0  0  0  0  0  0  0  0  0
  179.4490  180.2440  140.0990 C   0  0  0  0  0  3  0  0  0  0  0  0
  184.9630  176.8520  137.0440 C   0  0  2  0  0  3  0  0  0  0  0  0
  182.6420  177.8630  141.4230 O   0  0  0  0  0  0  0  0  0  0  0  0
  179.2040  176.4540  138.8380 C   0  0  0  0  0  1  0  0  0  0  0  0
  180.5410  175.9130  138.3710 C   0  0  1  0  0  0  0  0  0  0  0  0
  181.2300  174.3530  136.5200 C   0  0  0  0  0  0  0  0  0  0  0  0
  181.3250  177.0090  137.6000 C   0  0  2  0  0  3  0  0  0  0  0  0
  186.0660  179.2220  142.0480 C   0  0  0  0  0  1  0  0  0  0  0  0
  183.3780  177.3510  138.8830 C   0  0  1  0  0  3  0  0  0  0  0  0
  182.2290  175.1130  136.1970 N   0  0  0  0  0  0  0  0  0  0  0  0
  180.2840  174.7750  137.5010 N   0  0  0  0  0  2  0  0  0  0  0  0
  184.9690  178.5170  141.2780 C   0  0  2  0  0  3  0  0  0  0  0  0
  181.2510  178.6900  139.5870 C   0  0  0  0  0  0  0  0  0  0  0  0
  185.3650  178.0270  137.8520 C   0  0  0  0  0  0  0  0  0  0  0  0
  181.0360  173.1180  135.8410 N   0  0  0  0  0  1  0  0  0  0  0  0
  184.7100  179.2650  139.9740 C   0  0  0  0  0  2  0  0  0  0  0  0
  180.1920  179.5100  139.1730 C   0  0  0  0  0  3  0  0  0  0  0  0
  180.8310  179.3870  141.8840 C   0  0  0  0  0  3  0  0  0  0  0  0
  179.7680  180.1830  141.4550 C   0  0  0  0  0  3  0  0  0  0  0  0
  183.7150  178.4510  142.1450 C   0  0  0  0  0  2  0  0  0  0  0  0
  183.6910  176.3620  137.7480 C   0  0  1  0  0  3  0  0  0  0  0  0
  184.4520  178.3250  138.8880 N   0  0  0  0  0  0  0  0  0  0  0  0
  182.4980  176.4190  136.8020 C   0  0  2  0  0  3  0  0  0  0  0  0
  186.0270  175.7730  137.1300 C   0  0  0  0  0  1  0  0  0  0  0  0
  182.0550  178.0050  138.5020 C   0  0  2  0  0  3  0  0  0  0  0  0
  1  6  1  0  0  0  0
  1 21  1  0  0  0  0
  3 17  2  0  0  0  0
  4 22  1  0  0  0  0
  5 27  1  1  0  0  0
  5 24  1  0  0  0  0
  5 17  1  0  0  0  0
  6 23  1  0  0  0  0
  8  7  1  1  0  0  0
  8  2  1  0  0  0  0
  9 14  1  0  0  0  0
 10  8  1  0  0  0  0
 10 28  1  0  0  0  0
 12 25  1  0  0  0  0
 13  9  2  0  0  0  0
 13 26  1  0  0  0  0
 14  8  1  0  0  0  0
 15 11  1  0  0  0  0
 15 23  1  0  0  0  0
 16  1  2  0  0  0  0
 17 25  1  0  0  0  0
 18  9  1  0  0  0  0
 19 15  1  0  0  0  0
 20 16  1  0  0  0  0
 20  4  2  0  0  0  0
 22 21  2  0  0  0  0
 24 12  1  0  0  0  0
 25 19  1  0  0  0  0
 26 10  1  0  0  0  0
 26 24  1  0  0  0  0
 28 12  1  0  0  0  0
 28 16  1  0  0  0  0
M  END
>  <MODEL>
4

>  <REMARK>
 VINA RESULT:      -5.7      5.426      8.760
  Name = 
  0 active torsions:
  status: ('A' for Active; 'I' for Inactive)
                            x       y       z     vdW  Elec       q    Type
                         _______ _______ _______ _____ _____    ______ ____

>  <TORSDO>
F 0

$$$$
=
 OpenBabel11122412003D

 28 32  0  0  1  0  0  0  0  0999 V2000
  187.7430  176.4540  136.6400 C   0  0  0  0  0  0  0  0  0  0  0  0
  189.0560  175.9880  139.8660 F   0  0  0  0  0  0  0  0  0  0  0  0
  183.8770  179.6650  139.6570 O   0  0  0  0  0  0  0  0  0  0  0  0
  189.6190  177.8780  135.1200 C   0  0  0  0  0  3  0  0  0  0  0  0
  185.7700  179.0550  141.0400 C   0  0  2  0  0  3  0  0  0  0  0  0
  186.7930  175.7350  137.3640 O   0  0  0  0  0  0  0  0  0  0  0  0
  190.9370  176.8910  138.7680 C   0  0  0  0  0  1  0  0  0  0  0  0
  189.8840  177.0970  139.8380 C   0  0  1  0  0  0  0  0  0  0  0  0
  189.9710  177.8720  142.2310 C   0  0  0  0  0  0  0  0  0  0  0  0
  189.0760  178.3930  139.5550 C   0  0  2  0  0  3  0  0  0  0  0  0
  183.1070  176.1980  136.9640 C   0  0  0  0  0  1  0  0  0  0  0  0
  186.7650  177.6530  139.2540 C   0  0  1  0  0  3  0  0  0  0  0  0
  188.9300  178.6280  142.0660 N   0  0  0  0  0  0  0  0  0  0  0  0
  190.5630  177.2000  141.1210 N   0  0  0  0  0  2  0  0  0  0  0  0
  184.4720  176.3850  137.5930 C   0  0  2  0  0  3  0  0  0  0  0  0
  188.3490  177.6150  137.1790 C   0  0  0  0  0  0  0  0  0  0  0  0
  184.9600  179.0350  139.8000 C   0  0  0  0  0  0  0  0  0  0  0  0
  190.5680  177.7680  143.5180 N   0  0  0  0  0  1  0  0  0  0  0  0
  184.8490  177.8620  137.5470 C   0  0  0  0  0  2  0  0  0  0  0  0
  189.2740  178.3210  136.3980 C   0  0  0  0  0  3  0  0  0  0  0  0
  188.0900  176.0240  135.3520 C   0  0  0  0  0  3  0  0  0  0  0  0
  189.0280  176.7280  134.5970 C   0  0  0  0  0  3  0  0  0  0  0  0
  185.4870  175.5230  136.8470 C   0  0  0  0  0  2  0  0  0  0  0  0
  186.9290  178.1030  140.7160 C   0  0  1  0  0  3  0  0  0  0  0  0
  185.5350  178.2530  138.7750 N   0  0  0  0  0  0  0  0  0  0  0  0
  188.2620  178.8380  140.7800 C   0  0  2  0  0  3  0  0  0  0  0  0
  184.9680  178.4870  142.1960 C   0  0  0  0  0  1  0  0  0  0  0  0
  187.9700  178.2230  138.5140 C   0  0  2  0  0  3  0  0  0  0  0  0
  1 16  1  0  0  0  0
  1  6  1  0  0  0  0
  3 17  2  0  0  0  0
  4 20  1  0  0  0  0
  5 27  1  1  0  0  0
  8  7  1  6  0  0  0
  8  2  1  0  0  0  0
  8 14  1  0  0  0  0
  9 18  1  0  0  0  0
 10  8  1  0  0  0  0
 10 26  1  0  0  0  0
 11 15  1  0  0  0  0
 12 24  1  0  0  0  0
 13  9  2  0  0  0  0
 14  9  1  0  0  0  0
 16 28  1  0  0  0  0
 17  5  1  0  0  0  0
 19 15  1  0  0  0  0
 19 25  1  0  0  0  0
 20 16  2  0  0  0  0
 21  1  2  0  0  0  0
 22  4  2  0  0  0  0
 22 21  1  0  0  0  0
 23  6  1  0  0  0  0
 23 15  1  0  0  0  0
 24 26  1  0  0  0  0
 24  5  1  0  0  0  0
 25 12  1  0  0  0  0
 25 17  1  0  0  0  0
 26 13  1  0  0  0  0
 28 12  1  0  0  0  0
 28 10  1  0  0  0  0
M  END
>  <MODEL>
5

>  <REMARK>
 VINA RESULT:      -5.7      4.117      7.174
  Name = 
  0 active torsions:
  status: ('A' for Active; 'I' for Inactive)
                            x       y       z     vdW  Elec       q    Type
                         _______ _______ _______ _____ _____    ______ ____

>  <TORSDO>
F 0

$$$$
=
 OpenBabel11122412003D

 28 32  0  0  1  0  0  0  0  0999 V2000
  181.4700  175.9640  137.0030 C   0  0  0  0  0  0  0  0  0  0  0  0
  184.8890  175.8350  137.8040 F   0  0  0  0  0  0  0  0  0  0  0  0
  181.3650  179.1580  141.9170 O   0  0  0  0  0  0  0  0  0  0  0  0
  181.1770  177.3760  134.5990 C   0  0  0  0  0  3  0  0  0  0  0  0
  183.6390  178.7770  141.1740 C   0  0  2  0  0  3  0  0  0  0  0  0
  181.5810  175.2470  138.1940 O   0  0  0  0  0  0  0  0  0  0  0  0
  184.9930  176.7630  135.6370 C   0  0  0  0  0  1  0  0  0  0  0  0
  185.2330  176.9880  137.1170 C   0  0  1  0  0  0  0  0  0  0  0  0
  187.1460  177.9530  138.4380 C   0  0  0  0  0  0  0  0  0  0  0  0
  184.4080  178.2050  137.6170 C   0  0  2  0  0  3  0  0  0  0  0  0
  179.0840  175.4500  140.9660 C   0  0  0  0  0  1  0  0  0  0  0  0
  182.9050  177.3030  139.3220 C   0  0  1  0  0  3  0  0  0  0  0  0
  186.3360  178.6270  139.1940 N   0  0  0  0  0  0  0  0  0  0  0  0
  186.6550  177.2330  137.3090 N   0  0  0  0  0  2  0  0  0  0  0  0
  180.3620  175.7690  140.2210 C   0  0  2  0  0  3  0  0  0  0  0  0
  182.1400  177.1990  136.8280 C   0  0  0  0  0  0  0  0  0  0  0  0
  182.1680  178.6100  141.1150 C   0  0  0  0  0  0  0  0  0  0  0  0
  188.5440  177.9870  138.6970 N   0  0  0  0  0  1  0  0  0  0  0  0
  180.3950  177.2590  139.8930 C   0  0  0  0  0  2  0  0  0  0  0  0
  181.9690  177.8970  135.6240 C   0  0  0  0  0  3  0  0  0  0  0  0
  180.6680  175.4560  135.9710 C   0  0  0  0  0  3  0  0  0  0  0  0
  180.5270  176.1550  134.7720 C   0  0  0  0  0  3  0  0  0  0  0  0
  180.4290  174.9150  138.9570 C   0  0  0  0  0  2  0  0  0  0  0  0
  184.1400  177.8760  140.0380 C   0  0  1  0  0  3  0  0  0  0  0  0
  181.7470  177.7860  140.0490 N   0  0  0  0  0  0  0  0  0  0  0  0
  184.8880  178.6940  138.9920 C   0  0  2  0  0  3  0  0  0  0  0  0
  184.1710  178.2540  142.4950 C   0  0  0  0  0  1  0  0  0  0  0  0
  182.9430  177.8850  137.9130 C   0  0  2  0  0  3  0  0  0  0  0  0
  1  6  1  0  0  0  0
  4 22  2  0  0  0  0
  4 20  1  0  0  0  0
  5 27  1  1  0  0  0
  6 23  1  0  0  0  0
  8  7  1  6  0  0  0
  8 14  1  0  0  0  0
  8 10  1  0  0  0  0
  8  2  1  0  0  0  0
  9 18  1  0  0  0  0
  9 13  2  0  0  0  0
 10 28  1  0  0  0  0
 10 26  1  0  0  0  0
 12 24  1  0  0  0  0
 12 25  1  0  0  0  0
 14  9  1  0  0  0  0
 15 11  1  0  0  0  0
 16  1  1  0  0  0  0
 16 28  1  0  0  0  0
 17  5  1  0  0  0  0
 17  3  2  0  0  0  0
 19 25  1  0  0  0  0
 19 15  1  0  0  0  0
 20 16  2  0  0  0  0
 21  1  2  0  0  0  0
 22 21  1  0  0  0  0
 23 15  1  0  0  0  0
 24  5  1  0  0  0  0
 25 17  1  0  0  0  0
 26 13  1  0  0  0  0
 26 24  1  0  0  0  0
 28 12  1  0  0  0  0
M  END
>  <MODEL>
6

>  <REMARK>
 VINA RESULT:      -5.7      5.321      8.635
  Name = 
  0 active torsions:
  status: ('A' for Active; 'I' for Inactive)
                            x       y       z     vdW  Elec       q    Type
                         _______ _______ _______ _____ _____    ______ ____

>  <TORSDO>
F 0

$$$$
=
 OpenBabel11122412003D

 28 32  0  0  1  0  0  0  0  0999 V2000
  185.7340  178.8030  140.6750 C   0  0  0  0  0  0  0  0  0  0  0  0
  186.0300  180.2570  143.8600 F   0  0  0  0  0  0  0  0  0  0  0  0
  189.8990  175.3140  142.8740 O   0  0  0  0  0  0  0  0  0  0  0  0
  183.1730  177.6860  140.4480 C   0  0  0  0  0  3  0  0  0  0  0  0
  188.9160  176.6950  144.6050 C   0  0  2  0  0  3  0  0  0  0  0  0
  187.0100  179.3580  140.7500 O   0  0  0  0  0  0  0  0  0  0  0  0
  183.7340  179.7150  143.8520 C   0  0  0  0  0  1  0  0  0  0  0  0
  185.0910  179.4420  144.4700 C   0  0  1  0  0  0  0  0  0  0  0  0
  185.9030  179.2200  146.8420 C   0  0  0  0  0  0  0  0  0  0  0  0
  185.4620  177.9430  144.3110 C   0  0  2  0  0  3  0  0  0  0  0  0
  190.0290  177.8110  139.1840 C   0  0  0  0  0  1  0  0  0  0  0  0
  187.5120  177.9290  142.9780 C   0  0  1  0  0  3  0  0  0  0  0  0
  186.6260  178.1870  146.5400 N   0  0  0  0  0  0  0  0  0  0  0  0
  185.0190  179.7930  145.8810 N   0  0  0  0  0  2  0  0  0  0  0  0
  189.0560  178.1440  140.2950 C   0  0  2  0  0  3  0  0  0  0  0  0
  185.2260  177.9910  141.7180 C   0  0  0  0  0  0  0  0  0  0  0  0
  189.1090  176.2370  143.2090 C   0  0  0  0  0  0  0  0  0  0  0  0
  185.9410  179.7450  148.1640 N   0  0  0  0  0  1  0  0  0  0  0  0
  188.4460  176.8530  140.8330 C   0  0  0  0  0  2  0  0  0  0  0  0
  183.9490  177.4300  141.5790 C   0  0  0  0  0  3  0  0  0  0  0  0
  184.9490  179.0450  139.5390 C   0  0  0  0  0  3  0  0  0  0  0  0
  183.6720  178.4940  139.4270 C   0  0  0  0  0  3  0  0  0  0  0  0
  187.9850  179.0870  139.7520 C   0  0  0  0  0  2  0  0  0  0  0  0
  187.9140  177.8470  144.4600 C   0  0  1  0  0  3  0  0  0  0  0  0
  188.2950  176.9260  142.2830 N   0  0  0  0  0  0  0  0  0  0  0  0
  186.6320  177.5440  145.2250 C   0  0  2  0  0  3  0  0  0  0  0  0
  190.2200  177.2350  145.1600 C   0  0  0  0  0  1  0  0  0  0  0  0
  186.0280  177.5830  142.9370 C   0  0  2  0  0  3  0  0  0  0  0  0
  1  6  1  0  0  0  0
  1 16  1  0  0  0  0
  2  8  1  0  0  0  0
  3 17  2  0  0  0  0
  4 20  1  0  0  0  0
  5 27  1  6  0  0  0
  8  7  1  6  0  0  0
  8 14  1  0  0  0  0
  9 18  1  0  0  0  0
 10  8  1  0  0  0  0
 10 26  1  0  0  0  0
 11 15  1  0  0  0  0
 12 24  1  0  0  0  0
 13  9  2  0  0  0  0
 14  9  1  0  0  0  0
 15 19  1  0  0  0  0
 16 28  1  0  0  0  0
 17  5  1  0  0  0  0
 19 25  1  0  0  0  0
 20 16  2  0  0  0  0
 21  1  2  0  0  0  0
 22 21  1  0  0  0  0
 22  4  2  0  0  0  0
 23 15  1  0  0  0  0
 23  6  1  0  0  0  0
 24  5  1  0  0  0  0
 24 26  1  0  0  0  0
 25 12  1  0  0  0  0
 25 17  1  0  0  0  0
 26 13  1  0  0  0  0
 28 12  1  0  0  0  0
 28 10  1  0  0  0  0
M  END
>  <MODEL>
7

>  <REMARK>
 VINA RESULT:      -5.6      2.519      6.025
  Name = 
  0 active torsions:
  status: ('A' for Active; 'I' for Inactive)
                            x       y       z     vdW  Elec       q    Type
                         _______ _______ _______ _____ _____    ______ ____

>  <TORSDO>
F 0

$$$$
=
 OpenBabel11122412003D

 28 32  0  0  1  0  0  0  0  0999 V2000
  191.3810  174.7060  137.4760 C   0  0  0  0  0  0  0  0  0  0  0  0
  189.4900  175.8290  140.2160 F   0  0  0  0  0  0  0  0  0  0  0  0
  186.6110  176.5220  134.5940 O   0  0  0  0  0  0  0  0  0  0  0  0
  193.6580  176.3260  137.2500 C   0  0  0  0  0  3  0  0  0  0  0  0
  186.5690  177.2610  136.9000 C   0  0  2  0  0  3  0  0  0  0  0  0
  190.2660  173.8750  137.5670 O   0  0  0  0  0  0  0  0  0  0  0  0
  191.4380  177.1320  140.4810 C   0  0  0  0  0  1  0  0  0  0  0  0
  189.9530  177.1330  140.1760 C   0  0  1  0  0  0  0  0  0  0  0  0
  188.0140  178.5100  141.0010 C   0  0  0  0  0  0  0  0  0  0  0  0
  189.6890  177.7800  138.7890 C   0  0  2  0  0  3  0  0  0  0  0  0
  188.4850  172.4780  134.5940 C   0  0  0  0  0  1  0  0  0  0  0  0
  188.6420  176.0210  137.4520 C   0  0  1  0  0  3  0  0  0  0  0  0
  187.5360  178.6280  139.8020 N   0  0  0  0  0  0  0  0  0  0  0  0
  189.2820  177.8950  141.2190 N   0  0  0  0  0  2  0  0  0  0  0  0
  188.7380  173.4350  135.7390 C   0  0  2  0  0  3  0  0  0  0  0  0
  191.2500  176.1150  137.5350 C   0  0  0  0  0  0  0  0  0  0  0  0
  187.1270  176.5230  135.7440 C   0  0  0  0  0  0  0  0  0  0  0  0
  187.3000  179.0600  142.1010 N   0  0  0  0  0  1  0  0  0  0  0  0
  188.9490  174.8400  135.1840 C   0  0  0  0  0  2  0  0  0  0  0  0
  192.3990  176.9080  137.4060 C   0  0  0  0  0  3  0  0  0  0  0  0
  192.6500  174.1330  137.3090 C   0  0  0  0  0  3  0  0  0  0  0  0
  193.7840  174.9380  137.2020 C   0  0  0  0  0  3  0  0  0  0  0  0
  189.9540  172.9550  136.5290 C   0  0  0  0  0  2  0  0  0  0  0  0
  187.5220  176.8920  138.0440 C   0  0  1  0  0  3  0  0  0  0  0  0
  188.3190  175.8320  136.0510 N   0  0  0  0  0  0  0  0  0  0  0  0
  188.2070  178.1350  138.5970 C   0  0  2  0  0  3  0  0  0  0  0  0
  185.1790  176.7480  137.2240 C   0  0  0  0  0  1  0  0  0  0  0  0
  189.9210  176.8360  137.6080 C   0  0  2  0  0  3  0  0  0  0  0  0
  1 16  1  0  0  0  0
  1  6  1  0  0  0  0
  3 17  2  0  0  0  0
  4 20  1  0  0  0  0
  5 27  1  1  0  0  0
  5 24  1  0  0  0  0
  8  2  1  0  0  0  0
  8  7  1  1  0  0  0
  8 14  1  0  0  0  0
  9 14  1  0  0  0  0
  9 18  1  0  0  0  0
 10  8  1  0  0  0  0
 11 15  1  0  0  0  0
 12 28  1  0  0  0  0
 12 24  1  0  0  0  0
 13  9  2  0  0  0  0
 15 23  1  0  0  0  0
 16 28  1  0  0  0  0
 17 25  1  0  0  0  0
 17  5  1  0  0  0  0
 19 15  1  0  0  0  0
 19 25  1  0  0  0  0
 20 16  2  0  0  0  0
 21  1  2  0  0  0  0
 22  4  2  0  0  0  0
 22 21  1  0  0  0  0
 23  6  1  0  0  0  0
 24 26  1  0  0  0  0
 25 12  1  0  0  0  0
 26 10  1  0  0  0  0
 26 13  1  0  0  0  0
 28 10  1  0  0  0  0
M  END
>  <MODEL>
8

>  <REMARK>
 VINA RESULT:      -5.6      5.174      8.065
  Name = 
  0 active torsions:
  status: ('A' for Active; 'I' for Inactive)
                            x       y       z     vdW  Elec       q    Type
                         _______ _______ _______ _____ _____    ______ ____

>  <TORSDO>
F 0

$$$$
=
 OpenBabel11122412003D

 28 32  0  0  1  0  0  0  0  0999 V2000
  186.3290  175.3120  136.0860 C   0  0  0  0  0  0  0  0  0  0  0  0
  183.0770  176.2610  135.1500 F   0  0  0  0  0  0  0  0  0  0  0  0
  185.3720  179.4020  140.1750 O   0  0  0  0  0  0  0  0  0  0  0  0
  186.2560  172.6480  136.9560 C   0  0  0  0  0  3  0  0  0  0  0  0
  183.3280  178.8540  138.9960 C   0  0  2  0  0  3  0  0  0  0  0  0
  186.4020  176.6340  135.6490 O   0  0  0  0  0  0  0  0  0  0  0  0
  182.7610  173.9500  135.5070 C   0  0  0  0  0  1  0  0  0  0  0  0
  182.4290  175.3540  135.9720 C   0  0  1  0  0  0  0  0  0  0  0  0
  180.2850  176.5090  136.6070 C   0  0  0  0  0  0  0  0  0  0  0  0
  182.8490  175.5420  137.4550 C   0  0  2  0  0  3  0  0  0  0  0  0
  188.6600  179.1900  137.1740 C   0  0  0  0  0  1  0  0  0  0  0  0
  184.5070  177.3390  137.4280 C   0  0  1  0  0  3  0  0  0  0  0  0
  180.8430  177.0660  137.6370 N   0  0  0  0  0  0  0  0  0  0  0  0
  180.9930  175.5450  135.8310 N   0  0  0  0  0  2  0  0  0  0  0  0
  187.3630  178.4460  136.9360 C   0  0  2  0  0  3  0  0  0  0  0  0
  185.3320  174.8990  137.0030 C   0  0  0  0  0  0  0  0  0  0  0  0
  184.7840  178.7730  139.2540 C   0  0  0  0  0  0  0  0  0  0  0  0
  178.9320  176.8120  136.2900 N   0  0  0  0  0  1  0  0  0  0  0  0
  186.9050  177.8030  138.2410 C   0  0  0  0  0  2  0  0  0  0  0  0
  185.3210  173.5660  137.4370 C   0  0  0  0  0  3  0  0  0  0  0  0
  187.2690  174.3840  135.6180 C   0  0  0  0  0  3  0  0  0  0  0  0
  187.2310  173.0570  136.0460 C   0  0  0  0  0  3  0  0  0  0  0  0
  187.5810  177.4030  135.8430 C   0  0  0  0  0  2  0  0  0  0  0  0
  183.1410  177.9630  137.7610 C   0  0  1  0  0  3  0  0  0  0  0  0
  185.4540  177.8950  138.3740 N   0  0  0  0  0  0  0  0  0  0  0  0
  182.2130  176.7960  138.0750 C   0  0  2  0  0  3  0  0  0  0  0  0
  182.9390  180.2780  138.6460 C   0  0  0  0  0  1  0  0  0  0  0  0
  184.3360  175.8410  137.6490 C   0  0  2  0  0  3  0  0  0  0  0  0
  1 16  1  0  0  0  0
  2  8  1  0  0  0  0
  4 20  1  0  0  0  0
  5 27  1  6  0  0  0
  5 17  1  0  0  0  0
  6 23  1  0  0  0  0
  6  1  1  0  0  0  0
  8  7  1  6  0  0  0
  8 10  1  0  0  0  0
  9 13  2  0  0  0  0
 10 28  1  0  0  0  0
 10 26  1  0  0  0  0
 12 28  1  0  0  0  0
 12 24  1  0  0  0  0
 12 25  1  0  0  0  0
 13 26  1  0  0  0  0
 14  8  1  0  0  0  0
 14  9  1  0  0  0  0
 15 11  1  0  0  0  0
 15 19  1  0  0  0  0
 16 20  2  0  0  0  0
 16 28  1  0  0  0  0
 17  3  2  0  0  0  0
 18  9  1  0  0  0  0
 19 25  1  0  0  0  0
 21 22  1  0  0  0  0
 21  1  2  0  0  0  0
 22  4  2  0  0  0  0
 23 15  1  0  0  0  0
 24 26  1  0  0  0  0
 24  5  1  0  0  0  0
 25 17  1  0  0  0  0
M  END
>  <MODEL>
9

>  <REMARK>
 VINA RESULT:      -5.5      6.418      8.295
  Name = 
  0 active torsions:
  status: ('A' for Active; 'I' for Inactive)
                            x       y       z     vdW  Elec       q    Type
                         _______ _______ _______ _____ _____    ______ ____

>  <TORSDO>
F 0

$$$$
