=
 OpenBabel11122411433D

 37 44  0  0  1  0  0  0  0  0999 V2000
  187.3370  178.0730  139.3720 C   0  0  2  0  0  3  0  0  0  0  0  0
  187.5400  177.4070  143.9010 C   0  0  0  0  0  0  0  0  0  0  0  0
  183.8200  178.8600  142.6410 C   0  0  0  0  0  0  0  0  0  0  0  0
  187.9970  178.4860  138.0750 C   0  0  2  0  0  3  0  0  0  0  0  0
  182.9940  177.2260  139.1360 C   0  0  0  0  0  2  0  0  0  0  0  0
  185.4200  178.6610  144.4630 C   0  0  0  0  0  0  0  0  0  0  0  0
  183.8840  178.6840  141.1360 C   0  0  2  0  0  3  0  0  0  0  0  0
  186.0480  177.2290  137.2200 C   0  0  2  0  0  3  0  0  0  0  0  0
  185.1420  178.7160  143.1660 C   0  0  0  0  0  0  0  0  0  0  0  0
  182.8440  177.6630  140.6080 C   0  0  1  0  0  3  0  0  0  0  0  0
  184.3420  178.9950  145.4580 C   0  0  0  0  0  2  0  0  0  0  0  0
  187.2740  177.1460  138.1430 C   0  0  2  0  0  3  0  0  0  0  0  0
  186.0700  178.3910  142.1610 N   0  0  0  0  0  0  0  0  0  0  0  0
  186.9480  176.0080  143.9680 C   0  0  0  0  0  1  0  0  0  0  0  0
  181.3620  179.1450  143.0290 C   0  0  0  0  0  2  0  0  0  0  0  0
  183.0270  179.0050  144.8690 O   0  0  0  0  0  0  0  0  0  0  0  0
  187.4330  177.9490  142.4650 C   0  0  0  0  0  2  0  0  0  0  0  0
  184.7800  177.7460  137.8860 C   0  0  1  0  0  3  0  0  0  0  0  0
  184.2960  176.8150  138.8250 O   0  0  0  0  0  0  0  0  0  0  0  0
  182.7800  179.0010  143.4820 C   0  0  0  0  0  0  0  0  0  0  0  0
  185.3530  178.1910  140.9030 C   0  0  2  0  0  3  0  0  0  0  0  0
  186.8220  178.3370  144.9010 C   0  0  0  0  0  2  0  0  0  0  0  0
  181.4910  178.1820  140.8240 N   0  0  0  0  0  0  0  0  0  0  0  0
  189.0020  177.3240  144.2790 C   0  0  0  0  0  1  0  0  0  0  0  0
  185.1180  179.0860  138.5360 C   0  0  0  0  0  2  0  0  0  0  0  0
  185.8120  175.9870  136.6310 O   0  0  0  0  0  1  0  0  0  0  0  0
  186.0640  178.8790  139.7220 C   0  0  2  0  0  3  0  0  0  0  0  0
  180.9310  177.9830  142.1500 C   0  0  0  0  0  2  0  0  0  0  0  0
  179.5480  178.9620  139.5100 C   0  0  0  0  0  3  0  0  0  0  0  0
  180.8700  179.1500  139.9460 C   0  0  0  0  0  0  0  0  0  0  0  0
  181.5590  180.3050  139.5360 C   0  0  0  0  0  3  0  0  0  0  0  0
  181.6230  182.3470  138.3100 F   0  0  0  0  0  0  0  0  0  0  0  0
  179.6320  181.0390  138.2700 C   0  0  0  0  0  3  0  0  0  0  0  0
  180.9450  181.2420  138.7010 C   0  0  0  0  0  0  0  0  0  0  0  0
  178.9330  179.8990  138.6750 C   0  0  0  0  0  3  0  0  0  0  0  0
  189.8560  178.1940  139.5110 F   0  0  0  0  0  0  0  0  0  0  0  0
  189.4900  178.2540  138.1800 C   0  0  0  0  0  2  0  0  0  0  0  0
  1 27  1  0  0  0  0
  2 14  1  0  0  0  0
  2 24  1  0  0  0  0
  2 22  1  0  0  0  0
  3  9  1  0  0  0  0
  3 20  2  0  0  0  0
  4 12  1  0  0  0  0
  4 37  1  0  0  0  0
  4  1  1  0  0  0  0
  5 10  1  0  0  0  0
  6 22  1  0  0  0  0
  6 11  1  0  0  0  0
  7  3  1  0  0  0  0
  8 18  1  0  0  0  0
  8 12  1  0  0  0  0
  9  6  2  0  0  0  0
 10 23  1  0  0  0  0
 10  7  1  0  0  0  0
 12  1  1  0  0  0  0
 13 17  1  0  0  0  0
 13  9  1  0  0  0  0
 15 20  1  0  0  0  0
 16 11  1  0  0  0  0
 17  2  1  0  0  0  0
 18 25  1  0  0  0  0
 18 19  1  0  0  0  0
 19  5  1  0  0  0  0
 20 16  1  0  0  0  0
 21  7  1  0  0  0  0
 21 13  1  0  0  0  0
 23 28  1  0  0  0  0
 25 27  1  0  0  0  0
 26  8  1  0  0  0  0
 27 21  1  0  0  0  0
 28 15  1  0  0  0  0
 29 30  1  0  0  0  0
 30 23  1  0  0  0  0
 31 30  2  0  0  0  0
 32 34  1  0  0  0  0
 33 35  1  0  0  0  0
 33 34  2  0  0  0  0
 34 31  1  0  0  0  0
 35 29  2  0  0  0  0
 37 36  1  0  0  0  0
M  END
>  <MODEL>
1

>  <REMARK>
 VINA RESULT:      -7.1      0.000      0.000
  Name = 
  2 active torsions:
  status: ('A' for Active; 'I' for Inactive)
    1  A    between atoms: C_4  and  C_37
    2  A    between atoms: N_23  and  C_30
                            x       y       z     vdW  Elec       q    Type
                         _______ _______ _______ _____ _____    ______ ____

>  <TORSDO>
F 2

$$$$
=
 OpenBabel11122411433D

 37 44  0  0  1  0  0  0  0  0999 V2000
  189.0750  177.0340  141.0910 C   0  0  2  0  0  3  0  0  0  0  0  0
  185.0690  178.7910  142.4550 C   0  0  0  0  0  0  0  0  0  0  0  0
  187.5080  177.6400  145.6570 C   0  0  0  0  0  0  0  0  0  0  0  0
  189.8820  176.2110  140.1120 C   0  0  2  0  0  3  0  0  0  0  0  0
  191.2580  178.4340  144.6830 C   0  0  0  0  0  2  0  0  0  0  0  0
  185.2460  178.0530  144.8650 C   0  0  0  0  0  0  0  0  0  0  0  0
  188.8520  177.4160  144.9910 C   0  0  2  0  0  3  0  0  0  0  0  0
  191.6790  177.4860  141.2300 C   0  0  2  0  0  3  0  0  0  0  0  0
  186.5090  177.7120  144.6380 C   0  0  0  0  0  0  0  0  0  0  0  0
  189.9350  178.4130  145.4770 C   0  0  1  0  0  3  0  0  0  0  0  0
  184.7560  178.1490  146.2840 C   0  0  0  0  0  2  0  0  0  0  0  0
  190.3540  177.6160  140.4620 C   0  0  2  0  0  3  0  0  0  0  0  0
  187.0700  177.6290  143.3510 N   0  0  0  0  0  0  0  0  0  0  0  0
  185.4970  180.2330  142.6730 C   0  0  0  0  0  1  0  0  0  0  0  0
  188.1490  177.8350  148.0720 C   0  0  0  0  0  2  0  0  0  0  0  0
  185.8330  178.1870  147.2410 O   0  0  0  0  0  0  0  0  0  0  0  0
  186.3000  177.9240  142.1400 C   0  0  0  0  0  2  0  0  0  0  0  0
  191.5310  177.3520  142.7400 C   0  0  1  0  0  3  0  0  0  0  0  0
  191.0570  178.5520  143.3030 O   0  0  0  0  0  0  0  0  0  0  0  0
  187.1730  177.8740  146.9390 C   0  0  0  0  0  0  0  0  0  0  0  0
  188.5260  177.6080  143.4710 C   0  0  2  0  0  3  0  0  0  0  0  0
  184.3210  178.2640  143.6970 C   0  0  0  0  0  2  0  0  0  0  0  0
  190.2240  178.1750  146.8940 N   0  0  0  0  0  0  0  0  0  0  0  0
  184.1300  178.7470  141.2690 C   0  0  0  0  0  1  0  0  0  0  0  0
  190.5810  176.1860  143.0050 C   0  0  0  0  0  2  0  0  0  0  0  0
  192.5150  178.5590  140.9210 O   0  0  0  0  0  1  0  0  0  0  0  0
  189.1610  176.5440  142.5550 C   0  0  2  0  0  3  0  0  0  0  0  0
  189.3120  178.7860  147.8460 C   0  0  0  0  0  2  0  0  0  0  0  0
  191.1410  175.8910  146.6740 C   0  0  0  0  0  3  0  0  0  0  0  0
  191.1020  177.1200  147.3520 C   0  0  0  0  0  0  0  0  0  0  0  0
  191.9470  177.3080  148.4600 C   0  0  0  0  0  3  0  0  0  0  0  0
  193.6070  176.4830  149.9560 F   0  0  0  0  0  0  0  0  0  0  0  0
  192.8260  175.0680  148.2040 C   0  0  0  0  0  3  0  0  0  0  0  0
  192.8010  176.2890  148.8850 C   0  0  0  0  0  0  0  0  0  0  0  0
  191.9970  174.8700  147.0980 C   0  0  0  0  0  3  0  0  0  0  0  0
  188.1450  177.1270  138.7900 F   0  0  0  0  0  0  0  0  0  0  0  0
  189.2000  176.2350  138.7600 C   0  0  0  0  0  2  0  0  0  0  0  0
  1 27  1  0  0  0  0
  2 14  1  0  0  0  0
  2 22  1  0  0  0  0
  3 20  2  0  0  0  0
  4 12  1  0  0  0  0
  4  1  1  0  0  0  0
  5 10  1  0  0  0  0
  6 11  1  0  0  0  0
  7 10  1  0  0  0  0
  7  3  1  0  0  0  0
  8 18  1  0  0  0  0
  9  6  2  0  0  0  0
  9  3  1  0  0  0  0
 10 23  1  0  0  0  0
 11 16  1  0  0  0  0
 12  1  1  0  0  0  0
 12  8  1  0  0  0  0
 13 21  1  0  0  0  0
 13  9  1  0  0  0  0
 17  2  1  0  0  0  0
 17 13  1  0  0  0  0
 18 25  1  0  0  0  0
 18 19  1  0  0  0  0
 19  5  1  0  0  0  0
 20 16  1  0  0  0  0
 20 15  1  0  0  0  0
 21  7  1  0  0  0  0
 22  6  1  0  0  0  0
 23 30  1  0  0  0  0
 23 28  1  0  0  0  0
 24  2  1  0  0  0  0
 26  8  1  0  0  0  0
 27 25  1  0  0  0  0
 27 21  1  0  0  0  0
 28 15  1  0  0  0  0
 29 35  2  0  0  0  0
 29 30  1  0  0  0  0
 30 31  2  0  0  0  0
 31 34  1  0  0  0  0
 33 34  2  0  0  0  0
 34 32  1  0  0  0  0
 35 33  1  0  0  0  0
 37 36  1  0  0  0  0
 37  4  1  0  0  0  0
M  END
>  <MODEL>
2

>  <REMARK>
 VINA RESULT:      -6.1      3.965      8.659
  Name = 
  2 active torsions:
  status: ('A' for Active; 'I' for Inactive)
    1  A    between atoms: C_4  and  C_37
    2  A    between atoms: N_23  and  C_30
                            x       y       z     vdW  Elec       q    Type
                         _______ _______ _______ _____ _____    ______ ____

>  <TORSDO>
F 2

$$$$
=
 OpenBabel11122411433D

 37 44  0  0  1  0  0  0  0  0999 V2000
  186.3640  178.1510  144.8660 C   0  0  2  0  0  3  0  0  0  0  0  0
  190.8910  178.0970  144.1650 C   0  0  0  0  0  0  0  0  0  0  0  0
  188.7050  177.2610  140.6940 C   0  0  0  0  0  0  0  0  0  0  0  0
  185.1690  177.8710  145.7500 C   0  0  2  0  0  3  0  0  0  0  0  0
  185.4360  179.4870  140.7450 C   0  0  0  0  0  2  0  0  0  0  0  0
  190.8090  177.0080  141.8870 C   0  0  0  0  0  0  0  0  0  0  0  0
  187.2930  177.6550  141.0850 C   0  0  2  0  0  3  0  0  0  0  0  0
  184.1780  179.4460  144.1230 C   0  0  2  0  0  3  0  0  0  0  0  0
  189.4920  177.1800  141.8840 C   0  0  0  0  0  0  0  0  0  0  0  0
  186.7550  178.8500  140.2570 C   0  0  1  0  0  3  0  0  0  0  0  0
  191.5040  176.6450  140.6030 C   0  0  0  0  0  2  0  0  0  0  0  0
  185.3230  179.2550  145.1310 C   0  0  2  0  0  3  0  0  0  0  0  0
  188.7570  177.5530  143.0240 N   0  0  0  0  0  0  0  0  0  0  0  0
  191.0800  179.5240  143.6790 C   0  0  0  0  0  1  0  0  0  0  0  0
  188.5520  177.1870  138.1950 C   0  0  0  0  0  2  0  0  0  0  0  0
  190.6780  176.8660  139.4430 O   0  0  0  0  0  0  0  0  0  0  0  0
  189.3910  177.7930  144.3210 C   0  0  0  0  0  2  0  0  0  0  0  0
  184.4870  178.9730  142.7090 C   0  0  1  0  0  3  0  0  0  0  0  0
  185.4590  179.7970  142.1090 O   0  0  0  0  0  0  0  0  0  0  0  0
  189.2900  177.1060  139.4940 C   0  0  0  0  0  0  0  0  0  0  0  0
  187.4370  178.0170  142.6020 C   0  0  2  0  0  3  0  0  0  0  0  0
  191.5600  177.1090  143.1870 C   0  0  0  0  0  2  0  0  0  0  0  0
  186.6110  178.4530  138.8540 N   0  0  0  0  0  0  0  0  0  0  0  0
  191.5560  177.9630  145.5190 C   0  0  0  0  0  1  0  0  0  0  0  0
  184.9520  177.5220  142.8020 C   0  0  0  0  0  2  0  0  0  0  0  0
  183.7750  180.7810  144.1090 O   0  0  0  0  0  1  0  0  0  0  0  0
  186.3170  177.4430  143.4920 C   0  0  2  0  0  3  0  0  0  0  0  0
  187.8170  178.5080  138.0460 C   0  0  0  0  0  2  0  0  0  0  0  0
  185.6030  176.9160  137.2030 C   0  0  0  0  0  3  0  0  0  0  0  0
  185.4780  177.7020  138.3600 C   0  0  0  0  0  0  0  0  0  0  0  0
  184.2450  177.7200  139.0350 C   0  0  0  0  0  3  0  0  0  0  0  0
  181.9780  177.0090  139.2170 F   0  0  0  0  0  0  0  0  0  0  0  0
  183.2980  176.2050  137.4030 C   0  0  0  0  0  3  0  0  0  0  0  0
  183.1620  176.9780  138.5590 C   0  0  0  0  0  0  0  0  0  0  0  0
  184.5190  176.1720  136.7260 C   0  0  0  0  0  3  0  0  0  0  0  0
  186.1450  179.1610  147.4780 F   0  0  0  0  0  0  0  0  0  0  0  0
  185.6000  177.9230  147.2010 C   0  0  0  0  0  2  0  0  0  0  0  0
  1 12  1  0  0  0  0
  1  4  1  0  0  0  0
  2 17  1  0  0  0  0
  2 24  1  0  0  0  0
  3  7  1  0  0  0  0
  3  9  1  0  0  0  0
  4 37  1  0  0  0  0
  5 19  1  0  0  0  0
  6 22  1  0  0  0  0
  7 21  1  0  0  0  0
  8 12  1  0  0  0  0
  9  6  2  0  0  0  0
  9 13  1  0  0  0  0
 10  5  1  0  0  0  0
 10  7  1  0  0  0  0
 11  6  1  0  0  0  0
 12  4  1  0  0  0  0
 13 17  1  0  0  0  0
 14  2  1  0  0  0  0
 15 20  1  0  0  0  0
 16 20  1  0  0  0  0
 16 11  1  0  0  0  0
 18 25  1  0  0  0  0
 18  8  1  0  0  0  0
 19 18  1  0  0  0  0
 20  3  2  0  0  0  0
 21 13  1  0  0  0  0
 21 27  1  0  0  0  0
 22  2  1  0  0  0  0
 23 10  1  0  0  0  0
 25 27  1  0  0  0  0
 26  8  1  0  0  0  0
 27  1  1  0  0  0  0
 28 15  1  0  0  0  0
 28 23  1  0  0  0  0
 29 30  1  0  0  0  0
 30 23  1  0  0  0  0
 30 31  2  0  0  0  0
 33 34  2  0  0  0  0
 34 31  1  0  0  0  0
 34 32  1  0  0  0  0
 35 29  2  0  0  0  0
 35 33  1  0  0  0  0
 37 36  1  0  0  0  0
M  END
>  <MODEL>
3

>  <REMARK>
 VINA RESULT:      -6.0      3.139      6.196
  Name = 
  2 active torsions:
  status: ('A' for Active; 'I' for Inactive)
    1  A    between atoms: C_4  and  C_37
    2  A    between atoms: N_23  and  C_30
                            x       y       z     vdW  Elec       q    Type
                         _______ _______ _______ _____ _____    ______ ____

>  <TORSDO>
F 2

$$$$
=
 OpenBabel11122411433D

 37 44  0  0  1  0  0  0  0  0999 V2000
  182.2500  178.3440  141.8340 C   0  0  2  0  0  3  0  0  0  0  0  0
  185.2140  178.6880  145.3100 C   0  0  0  0  0  0  0  0  0  0  0  0
  187.0570  177.6040  141.7100 C   0  0  0  0  0  0  0  0  0  0  0  0
  180.8820  177.9700  141.3080 C   0  0  2  0  0  3  0  0  0  0  0  0
  185.2300  179.5260  138.7760 C   0  0  0  0  0  2  0  0  0  0  0  0
  187.1490  177.5600  144.1410 C   0  0  0  0  0  0  0  0  0  0  0  0
  185.9730  177.8740  140.6850 C   0  0  2  0  0  3  0  0  0  0  0  0
  181.6960  179.4240  139.4820 C   0  0  2  0  0  3  0  0  0  0  0  0
  186.4580  177.6130  143.0080 C   0  0  0  0  0  0  0  0  0  0  0  0
  186.3560  179.0040  139.6930 C   0  0  1  0  0  3  0  0  0  0  0  0
  188.6190  177.2420  144.0880 C   0  0  0  0  0  2  0  0  0  0  0  0
  181.4420  179.3530  140.9960 C   0  0  2  0  0  3  0  0  0  0  0  0
  185.0900  177.9350  142.9500 N   0  0  0  0  0  0  0  0  0  0  0  0
  185.6790  180.1190  145.0940 C   0  0  0  0  0  1  0  0  0  0  0  0
  189.1100  177.4770  140.2790 C   0  0  0  0  0  2  0  0  0  0  0  0
  189.1670  177.3690  142.7620 O   0  0  0  0  0  0  0  0  0  0  0  0
  184.3080  178.2530  144.1460 C   0  0  0  0  0  2  0  0  0  0  0  0
  183.0790  178.9590  139.0440 C   0  0  1  0  0  3  0  0  0  0  0  0
  184.0690  179.8580  139.4830 O   0  0  0  0  0  0  0  0  0  0  0  0
  188.3910  177.4840  141.5920 C   0  0  0  0  0  0  0  0  0  0  0  0
  184.7440  178.2720  141.5700 C   0  0  2  0  0  3  0  0  0  0  0  0
  186.4310  177.7490  145.4490 C   0  0  0  0  0  2  0  0  0  0  0  0
  187.4900  178.5740  138.8710 N   0  0  0  0  0  0  0  0  0  0  0  0
  184.4130  178.6360  146.5930 C   0  0  0  0  0  1  0  0  0  0  0  0
  183.2920  177.5570  139.6100 C   0  0  0  0  0  2  0  0  0  0  0  0
  181.4520  180.7160  139.0190 O   0  0  0  0  0  1  0  0  0  0  0  0
  183.4200  177.6130  141.1350 C   0  0  2  0  0  3  0  0  0  0  0  0
  188.8070  178.7240  139.4660 C   0  0  0  0  0  2  0  0  0  0  0  0
  187.6830  178.1890  136.4380 C   0  0  0  0  0  3  0  0  0  0  0  0
  187.3450  177.7150  137.7160 C   0  0  0  0  0  0  0  0  0  0  0  0
  186.8900  176.3910  137.8480 C   0  0  0  0  0  3  0  0  0  0  0  0
  186.3250  174.2930  136.8700 F   0  0  0  0  0  0  0  0  0  0  0  0
  187.1030  176.0510  135.4610 C   0  0  0  0  0  3  0  0  0  0  0  0
  186.7680  175.5650  136.7280 C   0  0  0  0  0  0  0  0  0  0  0  0
  187.5620  177.3620  135.3160 C   0  0  0  0  0  3  0  0  0  0  0  0
  180.5270  178.2590  143.6300 F   0  0  0  0  0  0  0  0  0  0  0  0
  179.8690  178.0830  142.4280 C   0  0  0  0  0  2  0  0  0  0  0  0
  2 22  1  0  0  0  0
  2 24  1  0  0  0  0
  3  9  1  0  0  0  0
  4  1  1  0  0  0  0
  4 37  1  0  0  0  0
  5 19  1  0  0  0  0
  5 10  1  0  0  0  0
  6 22  1  0  0  0  0
  7 21  1  0  0  0  0
  7  3  1  0  0  0  0
  8 12  1  0  0  0  0
  9  6  2  0  0  0  0
 10  7  1  0  0  0  0
 11  6  1  0  0  0  0
 12  4  1  0  0  0  0
 12  1  1  0  0  0  0
 13  9  1  0  0  0  0
 13 17  1  0  0  0  0
 14  2  1  0  0  0  0
 15 20  1  0  0  0  0
 16 11  1  0  0  0  0
 17  2  1  0  0  0  0
 18  8  1  0  0  0  0
 18 19  1  0  0  0  0
 18 25  1  0  0  0  0
 20  3  2  0  0  0  0
 20 16  1  0  0  0  0
 21 13  1  0  0  0  0
 23 28  1  0  0  0  0
 23 10  1  0  0  0  0
 25 27  1  0  0  0  0
 26  8  1  0  0  0  0
 27 21  1  0  0  0  0
 27  1  1  0  0  0  0
 28 15  1  0  0  0  0
 29 30  1  0  0  0  0
 30 31  2  0  0  0  0
 30 23  1  0  0  0  0
 33 34  2  0  0  0  0
 34 32  1  0  0  0  0
 34 31  1  0  0  0  0
 35 33  1  0  0  0  0
 35 29  2  0  0  0  0
 37 36  1  0  0  0  0
M  END
>  <MODEL>
4

>  <REMARK>
 VINA RESULT:      -5.4      2.477      6.118
  Name = 
  2 active torsions:
  status: ('A' for Active; 'I' for Inactive)
    1  A    between atoms: C_4  and  C_37
    2  A    between atoms: N_23  and  C_30
                            x       y       z     vdW  Elec       q    Type
                         _______ _______ _______ _____ _____    ______ ____

>  <TORSDO>
F 2

$$$$
=
 OpenBabel11122411433D

 37 44  0  0  1  0  0  0  0  0999 V2000
  187.7220  177.4880  146.0760 C   0  0  2  0  0  3  0  0  0  0  0  0
  190.7600  177.6000  142.6480 C   0  0  0  0  0  0  0  0  0  0  0  0
  186.7980  177.7970  141.3090 C   0  0  0  0  0  0  0  0  0  0  0  0
  187.2940  176.9780  147.4340 C   0  0  2  0  0  3  0  0  0  0  0  0
  184.7350  179.9430  143.9130 C   0  0  0  0  0  2  0  0  0  0  0  0
  189.0990  177.2000  140.7880 C   0  0  0  0  0  0  0  0  0  0  0  0
  186.0270  178.0740  142.5850 C   0  0  2  0  0  3  0  0  0  0  0  0
  185.8300  178.9570  147.2030 C   0  0  2  0  0  3  0  0  0  0  0  0
  188.1170  177.3770  141.6650 C   0  0  0  0  0  0  0  0  0  0  0  0
  185.3300  179.4600  142.5730 C   0  0  1  0  0  3  0  0  0  0  0  0
  188.7780  177.2110  139.3180 C   0  0  0  0  0  2  0  0  0  0  0  0
  187.2910  178.4800  147.1730 C   0  0  2  0  0  3  0  0  0  0  0  0
  188.3200  177.4170  143.0560 N   0  0  0  0  0  0  0  0  0  0  0  0
  190.8740  179.1050  142.4720 C   0  0  0  0  0  1  0  0  0  0  0  0
  185.1360  178.4340  139.5460 C   0  0  0  0  0  2  0  0  0  0  0  0
  187.4740  177.7570  139.0380 O   0  0  0  0  0  0  0  0  0  0  0  0
  189.6470  177.2760  143.6590 C   0  0  0  0  0  2  0  0  0  0  0  0
  185.1130  178.9010  145.8600 C   0  0  1  0  0  3  0  0  0  0  0  0
  185.6460  179.8540  144.9710 O   0  0  0  0  0  0  0  0  0  0  0  0
  186.4840  177.9840  140.0150 C   0  0  0  0  0  0  0  0  0  0  0  0
  187.1350  177.9910  143.6890 C   0  0  2  0  0  3  0  0  0  0  0  0
  190.4900  176.9240  141.2880 C   0  0  0  0  0  2  0  0  0  0  0  0
  184.2860  179.4770  141.5450 N   0  0  0  0  0  0  0  0  0  0  0  0
  192.0740  177.0840  143.1930 C   0  0  0  0  0  1  0  0  0  0  0  0
  185.2560  177.4790  145.3230 C   0  0  0  0  0  2  0  0  0  0  0  0
  185.7610  180.2440  147.7340 O   0  0  0  0  0  1  0  0  0  0  0  0
  186.7120  177.1980  144.9410 C   0  0  2  0  0  3  0  0  0  0  0  0
  184.7270  179.7490  140.1870 C   0  0  0  0  0  2  0  0  0  0  0  0
  182.3350  178.2180  140.7000 C   0  0  0  0  0  3  0  0  0  0  0  0
  182.9730  178.9050  141.7460 C   0  0  0  0  0  0  0  0  0  0  0  0
  182.3230  178.9990  142.9890 C   0  0  0  0  0  3  0  0  0  0  0  0
  180.4450  178.5310  144.3790 F   0  0  0  0  0  0  0  0  0  0  0  0
  180.4350  177.7530  142.1270 C   0  0  0  0  0  3  0  0  0  0  0  0
  181.0610  178.4290  143.1780 C   0  0  0  0  0  0  0  0  0  0  0  0
  181.0730  177.6460  140.8880 C   0  0  0  0  0  3  0  0  0  0  0  0
  189.1830  177.7650  148.6230 F   0  0  0  0  0  0  0  0  0  0  0  0
  188.5230  176.6140  148.2400 C   0  0  0  0  0  2  0  0  0  0  0  0
  1 12  1  0  0  0  0
  1  4  1  0  0  0  0
  2 24  1  0  0  0  0
  2 17  1  0  0  0  0
  3  9  1  0  0  0  0
  3  7  1  0  0  0  0
  4 37  1  0  0  0  0
  5 19  1  0  0  0  0
  6 22  1  0  0  0  0
  6  9  2  0  0  0  0
  7 21  1  0  0  0  0
  8 26  1  0  0  0  0
  9 13  1  0  0  0  0
 10  7  1  0  0  0  0
 10  5  1  0  0  0  0
 11  6  1  0  0  0  0
 12  8  1  0  0  0  0
 12  4  1  0  0  0  0
 13 17  1  0  0  0  0
 13 21  1  0  0  0  0
 14  2  1  0  0  0  0
 15 20  1  0  0  0  0
 15 28  1  0  0  0  0
 16 11  1  0  0  0  0
 16 20  1  0  0  0  0
 18  8  1  0  0  0  0
 19 18  1  0  0  0  0
 20  3  2  0  0  0  0
 21 27  1  0  0  0  0
 22  2  1  0  0  0  0
 23 30  1  0  0  0  0
 23 10  1  0  0  0  0
 25 18  1  0  0  0  0
 27 25  1  0  0  0  0
 27  1  1  0  0  0  0
 28 23  1  0  0  0  0
 29 35  2  0  0  0  0
 29 30  1  0  0  0  0
 30 31  2  0  0  0  0
 31 34  1  0  0  0  0
 33 34  2  0  0  0  0
 34 32  1  0  0  0  0
 35 33  1  0  0  0  0
 37 36  1  0  0  0  0
M  END
>  <MODEL>
5

>  <REMARK>
 VINA RESULT:      -5.0      2.814      6.172
  Name = 
  2 active torsions:
  status: ('A' for Active; 'I' for Inactive)
    1  A    between atoms: C_4  and  C_37
    2  A    between atoms: N_23  and  C_30
                            x       y       z     vdW  Elec       q    Type
                         _______ _______ _______ _____ _____    ______ ____

>  <TORSDO>
F 2

$$$$
=
 OpenBabel11122411433D

 37 44  0  0  1  0  0  0  0  0999 V2000
  184.2750  178.3580  140.3870 C   0  0  2  0  0  3  0  0  0  0  0  0
  187.7070  178.0910  137.3640 C   0  0  0  0  0  0  0  0  0  0  0  0
  184.5770  175.4490  136.4990 C   0  0  0  0  0  0  0  0  0  0  0  0
  183.7870  178.5550  141.8050 C   0  0  2  0  0  3  0  0  0  0  0  0
  181.1750  177.2410  137.4250 C   0  0  0  0  0  2  0  0  0  0  0  0
  186.9470  175.9470  136.2650 C   0  0  0  0  0  0  0  0  0  0  0  0
  183.4630  175.9420  137.4020 C   0  0  2  0  0  3  0  0  0  0  0  0
  181.7060  178.9760  140.5400 C   0  0  2  0  0  3  0  0  0  0  0  0
  185.8010  176.0460  136.9310 C   0  0  0  0  0  0  0  0  0  0  0  0
  182.2470  176.4870  136.6090 C   0  0  1  0  0  3  0  0  0  0  0  0
  187.0470  174.9760  135.1200 C   0  0  0  0  0  2  0  0  0  0  0  0
  183.1770  179.3950  140.6900 C   0  0  2  0  0  3  0  0  0  0  0  0
  185.5980  176.9470  137.9920 N   0  0  0  0  0  0  0  0  0  0  0  0
  187.1730  179.0400  136.3040 C   0  0  0  0  0  1  0  0  0  0  0  0
  183.3250  174.0390  134.8490 C   0  0  0  0  0  2  0  0  0  0  0  0
  185.7590  174.5110  134.6720 O   0  0  0  0  0  0  0  0  0  0  0  0
  186.6400  177.8680  138.4490 C   0  0  0  0  0  2  0  0  0  0  0  0
  181.4640  177.8290  139.5680 C   0  0  1  0  0  3  0  0  0  0  0  0
  181.7210  178.2350  138.2440 O   0  0  0  0  0  0  0  0  0  0  0  0
  184.5580  174.6940  135.3860 C   0  0  0  0  0  0  0  0  0  0  0  0
  184.1620  177.0660  138.2390 C   0  0  2  0  0  3  0  0  0  0  0  0
  188.1310  176.7560  136.7170 C   0  0  0  0  0  2  0  0  0  0  0  0
  181.6120  175.3950  135.8680 N   0  0  0  0  0  0  0  0  0  0  0  0
  188.9220  178.7270  138.0030 C   0  0  0  0  0  1  0  0  0  0  0  0
  182.3650  176.6720  139.9920 C   0  0  0  0  0  2  0  0  0  0  0  0
  180.9310  180.0800  140.1870 O   0  0  0  0  0  1  0  0  0  0  0  0
  183.8350  177.0220  139.7440 C   0  0  2  0  0  3  0  0  0  0  0  0
  182.2180  175.0480  134.5940 C   0  0  0  0  0  2  0  0  0  0  0  0
  179.8650  173.6580  135.6750 C   0  0  0  0  0  3  0  0  0  0  0  0
  180.6950  174.4570  136.4780 C   0  0  0  0  0  0  0  0  0  0  0  0
  180.6330  174.3070  137.8750 C   0  0  0  0  0  3  0  0  0  0  0  0
  179.7030  173.2570  139.8010 F   0  0  0  0  0  0  0  0  0  0  0  0
  178.9310  172.6030  137.6430 C   0  0  0  0  0  3  0  0  0  0  0  0
  179.7550  173.3880  138.4530 C   0  0  0  0  0  0  0  0  0  0  0  0
  178.9860  172.7370  136.2540 C   0  0  0  0  0  3  0  0  0  0  0  0
  185.8240  179.7590  141.7210 F   0  0  0  0  0  0  0  0  0  0  0  0
  184.7940  179.3920  142.5660 C   0  0  0  0  0  2  0  0  0  0  0  0
  1 12  1  0  0  0  0
  1  4  1  0  0  0  0
  2 24  1  0  0  0  0
  2 17  1  0  0  0  0
  3  9  1  0  0  0  0
  3  7  1  0  0  0  0
  4 37  1  0  0  0  0
  5 19  1  0  0  0  0
  6 22  1  0  0  0  0
  6  9  2  0  0  0  0
  7 21  1  0  0  0  0
  8 12  1  0  0  0  0
  9 13  1  0  0  0  0
 10  7  1  0  0  0  0
 10  5  1  0  0  0  0
 11  6  1  0  0  0  0
 12  4  1  0  0  0  0
 13 21  1  0  0  0  0
 13 17  1  0  0  0  0
 14  2  1  0  0  0  0
 15 20  1  0  0  0  0
 16 11  1  0  0  0  0
 16 20  1  0  0  0  0
 18 25  1  0  0  0  0
 18  8  1  0  0  0  0
 19 18  1  0  0  0  0
 20  3  2  0  0  0  0
 21 27  1  0  0  0  0
 22  2  1  0  0  0  0
 23 30  1  0  0  0  0
 23 10  1  0  0  0  0
 26  8  1  0  0  0  0
 27 25  1  0  0  0  0
 27  1  1  0  0  0  0
 28 15  1  0  0  0  0
 28 23  1  0  0  0  0
 29 35  2  0  0  0  0
 29 30  1  0  0  0  0
 30 31  2  0  0  0  0
 31 34  1  0  0  0  0
 33 34  2  0  0  0  0
 34 32  1  0  0  0  0
 35 33  1  0  0  0  0
 36 37  1  0  0  0  0
M  END
>  <MODEL>
6

>  <REMARK>
 VINA RESULT:      -4.7      3.687      6.782
  Name = 
  2 active torsions:
  status: ('A' for Active; 'I' for Inactive)
    1  A    between atoms: C_4  and  C_37
    2  A    between atoms: N_23  and  C_30
                            x       y       z     vdW  Elec       q    Type
                         _______ _______ _______ _____ _____    ______ ____

>  <TORSDO>
F 2

$$$$
=
 OpenBabel11122411433D

 37 44  0  0  1  0  0  0  0  0999 V2000
  188.0720  177.3900  137.2080 C   0  0  2  0  0  3  0  0  0  0  0  0
  188.3330  178.0040  141.7410 C   0  0  0  0  0  0  0  0  0  0  0  0
  184.4550  178.5340  140.2540 C   0  0  0  0  0  0  0  0  0  0  0  0
  188.6770  177.5260  135.8280 C   0  0  2  0  0  3  0  0  0  0  0  0
  183.8960  175.9180  137.3410 C   0  0  0  0  0  2  0  0  0  0  0  0
  186.0530  179.0570  142.0120 C   0  0  0  0  0  0  0  0  0  0  0  0
  184.5550  177.9700  138.8500 C   0  0  2  0  0  3  0  0  0  0  0  0
  186.9330  175.8270  135.4010 C   0  0  2  0  0  3  0  0  0  0  0  0
  185.7800  178.7220  140.7560 C   0  0  0  0  0  0  0  0  0  0  0  0
  183.6740  176.7100  138.6470 C   0  0  1  0  0  3  0  0  0  0  0  0
  184.9310  179.4940  142.9140 C   0  0  0  0  0  2  0  0  0  0  0  0
  188.1510  176.1670  136.2740 C   0  0  2  0  0  3  0  0  0  0  0  0
  186.7530  178.2690  139.8470 N   0  0  0  0  0  0  0  0  0  0  0  0
  187.9450  176.6070  142.1980 C   0  0  0  0  0  1  0  0  0  0  0  0
  181.9780  178.5700  140.6270 C   0  0  0  0  0  2  0  0  0  0  0  0
  183.6320  179.1630  142.3850 O   0  0  0  0  0  0  0  0  0  0  0  0
  188.1620  178.1190  140.2160 C   0  0  0  0  0  2  0  0  0  0  0  0
  185.5990  176.3240  135.9430 C   0  0  1  0  0  3  0  0  0  0  0  0
  185.2440  175.6240  137.1120 O   0  0  0  0  0  0  0  0  0  0  0  0
  183.3990  178.7520  141.0580 C   0  0  0  0  0  0  0  0  0  0  0  0
  186.0800  177.6400  138.7120 C   0  0  2  0  0  3  0  0  0  0  0  0
  187.4830  179.0600  142.4770 C   0  0  0  0  0  2  0  0  0  0  0  0
  182.2590  177.0760  138.7570 N   0  0  0  0  0  0  0  0  0  0  0  0
  189.7900  178.2290  142.0820 C   0  0  0  0  0  1  0  0  0  0  0  0
  185.7390  177.8230  136.1990 C   0  0  0  0  0  2  0  0  0  0  0  0
  186.8800  174.4530  135.1730 O   0  0  0  0  0  1  0  0  0  0  0  0
  186.6960  178.0760  137.3680 C   0  0  2  0  0  3  0  0  0  0  0  0
  181.7230  177.1660  140.1040 C   0  0  0  0  0  2  0  0  0  0  0  0
  180.6510  176.8920  136.8900 C   0  0  0  0  0  3  0  0  0  0  0  0
  181.5140  177.6760  137.6720 C   0  0  0  0  0  0  0  0  0  0  0  0
  181.6150  179.0510  137.3960 C   0  0  0  0  0  3  0  0  0  0  0  0
  180.9910  180.9490  136.0980 F   0  0  0  0  0  0  0  0  0  0  0  0
  180.0290  178.8310  135.5810 C   0  0  0  0  0  3  0  0  0  0  0  0
  180.8800  179.6240  136.3560 C   0  0  0  0  0  0  0  0  0  0  0  0
  179.9140  177.4650  135.8490 C   0  0  0  0  0  3  0  0  0  0  0  0
  190.5590  177.0580  137.1850 F   0  0  0  0  0  0  0  0  0  0  0  0
  190.1870  177.5390  135.9450 C   0  0  0  0  0  2  0  0  0  0  0  0
  1 27  1  0  0  0  0
  2 24  1  0  0  0  0
  2 14  1  0  0  0  0
  2 22  1  0  0  0  0
  3  9  1  0  0  0  0
  3 20  2  0  0  0  0
  4 37  1  0  0  0  0
  4 12  1  0  0  0  0
  4  1  1  0  0  0  0
  5 10  1  0  0  0  0
  6 22  1  0  0  0  0
  6 11  1  0  0  0  0
  7  3  1  0  0  0  0
  8 18  1  0  0  0  0
  8 12  1  0  0  0  0
  9  6  2  0  0  0  0
 10 23  1  0  0  0  0
 10  7  1  0  0  0  0
 12  1  1  0  0  0  0
 13 17  1  0  0  0  0
 13  9  1  0  0  0  0
 15 20  1  0  0  0  0
 16 11  1  0  0  0  0
 17  2  1  0  0  0  0
 18 25  1  0  0  0  0
 18 19  1  0  0  0  0
 19  5  1  0  0  0  0
 20 16  1  0  0  0  0
 21  7  1  0  0  0  0
 21 13  1  0  0  0  0
 23 28  1  0  0  0  0
 25 27  1  0  0  0  0
 26  8  1  0  0  0  0
 27 21  1  0  0  0  0
 28 15  1  0  0  0  0
 29 30  1  0  0  0  0
 30 23  1  0  0  0  0
 31 30  2  0  0  0  0
 32 34  1  0  0  0  0
 33 35  1  0  0  0  0
 33 34  2  0  0  0  0
 34 31  1  0  0  0  0
 35 29  2  0  0  0  0
 37 36  1  0  0  0  0
M  END
>  <MODEL>
7

>  <REMARK>
 VINA RESULT:      -4.5      2.038      2.607
  Name = 
  2 active torsions:
  status: ('A' for Active; 'I' for Inactive)
    1  A    between atoms: C_4  and  C_37
    2  A    between atoms: N_23  and  C_30
                            x       y       z     vdW  Elec       q    Type
                         _______ _______ _______ _____ _____    ______ ____

>  <TORSDO>
F 2

$$$$
=
 OpenBabel11122411433D

 37 44  0  0  1  0  0  0  0  0999 V2000
  183.5890  178.1830  138.1330 C   0  0  2  0  0  3  0  0  0  0  0  0
  187.9550  177.1940  137.1550 C   0  0  0  0  0  0  0  0  0  0  0  0
  185.4090  173.8980  136.7180 C   0  0  0  0  0  0  0  0  0  0  0  0
  182.5660  178.9310  138.9580 C   0  0  2  0  0  3  0  0  0  0  0  0
  181.9590  175.2010  135.2900 C   0  0  0  0  0  2  0  0  0  0  0  0
  187.6740  174.6830  137.1320 C   0  0  0  0  0  0  0  0  0  0  0  0
  184.0320  174.5310  136.7650 C   0  0  2  0  0  3  0  0  0  0  0  0
  181.1950  178.2770  137.0080 C   0  0  2  0  0  3  0  0  0  0  0  0
  186.3590  174.8580  137.1870 C   0  0  0  0  0  0  0  0  0  0  0  0
  183.2580  174.3800  135.4300 C   0  0  1  0  0  3  0  0  0  0  0  0
  188.2190  173.3250  136.7790 C   0  0  0  0  0  2  0  0  0  0  0  0
  182.4820  178.9980  137.4380 C   0  0  2  0  0  3  0  0  0  0  0  0
  185.7540  176.0950  137.4740 N   0  0  0  0  0  0  0  0  0  0  0  0
  187.9190  177.3950  135.6500 C   0  0  0  0  0  1  0  0  0  0  0  0
  184.9200  171.6570  135.7110 C   0  0  0  0  0  2  0  0  0  0  0  0
  187.2200  172.4590  136.2060 O   0  0  0  0  0  0  0  0  0  0  0  0
  186.5320  177.3080  137.7300 C   0  0  0  0  0  2  0  0  0  0  0  0
  181.3540  176.7830  136.7570 C   0  0  1  0  0  3  0  0  0  0  0  0
  182.1380  176.5510  135.6110 O   0  0  0  0  0  0  0  0  0  0  0  0
  185.8360  172.7180  136.2350 C   0  0  0  0  0  0  0  0  0  0  0  0
  184.3450  176.0310  137.0880 C   0  0  2  0  0  3  0  0  0  0  0  0
  188.5830  175.8260  137.4940 C   0  0  0  0  0  2  0  0  0  0  0  0
  182.9640  172.9640  135.1880 N   0  0  0  0  0  0  0  0  0  0  0  0
  188.8110  178.2840  137.7620 C   0  0  0  0  0  1  0  0  0  0  0  0
  181.9800  176.1720  138.0070 C   0  0  0  0  0  2  0  0  0  0  0  0
  180.6520  178.9010  135.8850 O   0  0  0  0  0  1  0  0  0  0  0  0
  183.4280  176.6450  138.1630 C   0  0  2  0  0  3  0  0  0  0  0  0
  184.0340  172.1800  134.5940 C   0  0  0  0  0  2  0  0  0  0  0  0
  181.4540  172.6210  137.1130 C   0  0  0  0  0  3  0  0  0  0  0  0
  181.8610  172.2710  135.8150 C   0  0  0  0  0  0  0  0  0  0  0  0
  181.1600  171.2580  135.1370 C   0  0  0  0  0  3  0  0  0  0  0  0
  179.4230  169.6280  135.0820 F   0  0  0  0  0  0  0  0  0  0  0  0
  179.6960  170.9590  137.0400 C   0  0  0  0  0  3  0  0  0  0  0  0
  180.0860  170.6050  135.7460 C   0  0  0  0  0  0  0  0  0  0  0  0
  180.3790  171.9680  137.7230 C   0  0  0  0  0  3  0  0  0  0  0  0
  182.4340  181.2920  139.0670 F   0  0  0  0  0  0  0  0  0  0  0  0
  183.1860  180.2100  139.4810 C   0  0  0  0  0  2  0  0  0  0  0  0
  1 27  1  0  0  0  0
  1  4  1  0  0  0  0
  2 22  1  0  0  0  0
  2 17  1  0  0  0  0
  2 24  1  0  0  0  0
  3  7  1  0  0  0  0
  3  9  1  0  0  0  0
  4 37  1  0  0  0  0
  5 10  1  0  0  0  0
  5 19  1  0  0  0  0
  6  9  2  0  0  0  0
  6 22  1  0  0  0  0
  7 21  1  0  0  0  0
  8 12  1  0  0  0  0
  9 13  1  0  0  0  0
 10  7  1  0  0  0  0
 11  6  1  0  0  0  0
 12  1  1  0  0  0  0
 12  4  1  0  0  0  0
 13 17  1  0  0  0  0
 14  2  1  0  0  0  0
 15 20  1  0  0  0  0
 16 20  1  0  0  0  0
 16 11  1  0  0  0  0
 18  8  1  0  0  0  0
 18 25  1  0  0  0  0
 19 18  1  0  0  0  0
 20  3  2  0  0  0  0
 21 13  1  0  0  0  0
 21 27  1  0  0  0  0
 23 10  1  0  0  0  0
 23 30  1  0  0  0  0
 25 27  1  0  0  0  0
 26  8  1  0  0  0  0
 28 23  1  0  0  0  0
 28 15  1  0  0  0  0
 29 35  1  0  0  0  0
 30 29  2  0  0  0  0
 31 34  2  0  0  0  0
 31 30  1  0  0  0  0
 32 34  1  0  0  0  0
 33 35  2  0  0  0  0
 34 33  1  0  0  0  0
 36 37  1  0  0  0  0
M  END
>  <MODEL>
8

>  <REMARK>
 VINA RESULT:      -4.3      4.751      7.734
  Name = 
  2 active torsions:
  status: ('A' for Active; 'I' for Inactive)
    1  A    between atoms: C_4  and  C_37
    2  A    between atoms: N_23  and  C_30
                            x       y       z     vdW  Elec       q    Type
                         _______ _______ _______ _____ _____    ______ ____

>  <TORSDO>
F 2

$$$$
=
 OpenBabel11122411433D

 37 44  0  0  1  0  0  0  0  0999 V2000
  189.9700  176.6700  138.5470 C   0  0  2  0  0  3  0  0  0  0  0  0
  190.9490  173.0180  135.9590 C   0  0  0  0  0  0  0  0  0  0  0  0
  186.8380  173.7750  136.2050 C   0  0  0  0  0  0  0  0  0  0  0  0
  190.2560  177.5400  139.7510 C   0  0  2  0  0  3  0  0  0  0  0  0
  186.3200  177.6950  136.2550 C   0  0  0  0  0  2  0  0  0  0  0  0
  188.5880  172.1280  135.8260 C   0  0  0  0  0  0  0  0  0  0  0  0
  186.7890  175.1660  136.8070 C   0  0  2  0  0  3  0  0  0  0  0  0
  188.8770  179.0750  138.3900 C   0  0  2  0  0  3  0  0  0  0  0  0
  188.1610  173.2600  136.3730 C   0  0  0  0  0  0  0  0  0  0  0  0
  186.1830  176.2160  135.8400 C   0  0  1  0  0  3  0  0  0  0  0  0
  187.5900  171.2030  135.1830 C   0  0  0  0  0  2  0  0  0  0  0  0
  190.1340  178.1910  138.3790 C   0  0  2  0  0  3  0  0  0  0  0  0
  189.0180  174.2050  136.9670 N   0  0  0  0  0  0  0  0  0  0  0  0
  190.9700  173.6860  134.5940 C   0  0  0  0  0  1  0  0  0  0  0  0
  184.5310  173.5340  135.2590 C   0  0  0  0  0  2  0  0  0  0  0  0
  186.3190  171.8370  134.9440 O   0  0  0  0  0  0  0  0  0  0  0  0
  190.4690  174.0210  137.0220 C   0  0  0  0  0  2  0  0  0  0  0  0
  187.5950  178.3660  137.9720 C   0  0  1  0  0  3  0  0  0  0  0  0
  187.6310  178.0390  136.6030 O   0  0  0  0  0  0  0  0  0  0  0  0
  185.9330  173.0730  135.5000 C   0  0  0  0  0  0  0  0  0  0  0  0
  188.2950  175.4660  137.1190 C   0  0  2  0  0  3  0  0  0  0  0  0
  190.0450  171.7680  135.9260 C   0  0  0  0  0  2  0  0  0  0  0  0
  184.7700  175.9080  135.6020 N   0  0  0  0  0  0  0  0  0  0  0  0
  192.3590  172.5880  136.3000 C   0  0  0  0  0  1  0  0  0  0  0  0
  187.4500  177.1250  138.8490 C   0  0  0  0  0  2  0  0  0  0  0  0
  189.0830  180.2060  137.6020 O   0  0  0  0  0  1  0  0  0  0  0  0
  188.5330  176.0990  138.5030 C   0  0  2  0  0  3  0  0  0  0  0  0
  184.4940  174.8990  134.5940 C   0  0  0  0  0  2  0  0  0  0  0  0
  182.6660  177.0990  136.1120 C   0  0  0  0  0  3  0  0  0  0  0  0
  183.7190  176.2680  136.5290 C   0  0  0  0  0  0  0  0  0  0  0  0
  183.7130  175.7780  137.8460 C   0  0  0  0  0  3  0  0  0  0  0  0
  182.6960  175.6440  139.9970 F   0  0  0  0  0  0  0  0  0  0  0  0
  181.6470  176.9520  138.3030 C   0  0  0  0  0  3  0  0  0  0  0  0
  182.6850  176.1200  138.7290 C   0  0  0  0  0  0  0  0  0  0  0  0
  181.6360  177.4410  136.9950 C   0  0  0  0  0  3  0  0  0  0  0  0
  191.8500  177.3570  141.4910 F   0  0  0  0  0  0  0  0  0  0  0  0
  191.7210  177.4180  140.1170 C   0  0  0  0  0  2  0  0  0  0  0  0
  1  4  1  0  0  0  0
  2 24  1  0  0  0  0
  2 17  1  0  0  0  0
  3  9  1  0  0  0  0
  3  7  1  0  0  0  0
  4 37  1  0  0  0  0
  5 19  1  0  0  0  0
  6 22  1  0  0  0  0
  6  9  2  0  0  0  0
  7 21  1  0  0  0  0
  9 13  1  0  0  0  0
 10  5  1  0  0  0  0
 10  7  1  0  0  0  0
 11  6  1  0  0  0  0
 12  8  1  0  0  0  0
 12  1  1  0  0  0  0
 12  4  1  0  0  0  0
 13 17  1  0  0  0  0
 13 21  1  0  0  0  0
 14  2  1  0  0  0  0
 15 20  1  0  0  0  0
 16 11  1  0  0  0  0
 16 20  1  0  0  0  0
 18  8  1  0  0  0  0
 18 25  1  0  0  0  0
 19 18  1  0  0  0  0
 20  3  2  0  0  0  0
 21 27  1  0  0  0  0
 22  2  1  0  0  0  0
 23 10  1  0  0  0  0
 23 30  1  0  0  0  0
 26  8  1  0  0  0  0
 27  1  1  0  0  0  0
 27 25  1  0  0  0  0
 28 15  1  0  0  0  0
 28 23  1  0  0  0  0
 29 30  2  0  0  0  0
 29 35  1  0  0  0  0
 30 31  1  0  0  0  0
 31 34  2  0  0  0  0
 33 34  1  0  0  0  0
 34 32  1  0  0  0  0
 35 33  2  0  0  0  0
 37 36  1  0  0  0  0
M  END
>  <MODEL>
9

>  <REMARK>
 VINA RESULT:      -4.2      4.499      7.282
  Name = 
  2 active torsions:
  status: ('A' for Active; 'I' for Inactive)
    1  A    between atoms: C_4  and  C_37
    2  A    between atoms: N_23  and  C_30
                            x       y       z     vdW  Elec       q    Type
                         _______ _______ _______ _____ _____    ______ ____

>  <TORSDO>
F 2

$$$$
