=
 OpenBabel11122410253D

 30 35  0  0  1  0  0  0  0  0999 V2000
  189.0540  177.4160  143.5010 C   0  0  1  0  0  3  0  0  0  0  0  0
  191.1400  176.8570  144.8620 C   0  0  0  0  0  0  0  0  0  0  0  0
  186.9280  177.9180  146.9840 N   0  0  0  0  0  0  0  0  0  0  0  0
  187.6830  178.1320  143.6260 C   0  0  1  0  0  3  0  0  0  0  0  0
  189.8740  178.1290  142.6050 O   0  0  0  0  0  0  0  0  0  0  0  0
  187.3570  178.5350  140.0090 O   0  0  0  0  0  1  0  0  0  0  0  0
  184.5630  178.0880  142.7480 C   0  0  1  0  0  3  0  0  0  0  0  0
  187.9130  178.6890  141.2820 C   0  0  2  0  0  3  0  0  0  0  0  0
  184.3700  177.9600  144.2620 C   0  0  2  0  0  3  0  0  0  0  0  0
  185.6790  178.2880  146.4350 C   0  0  0  0  0  0  0  0  0  0  0  0
  189.3030  178.0360  141.3170 C   0  0  2  0  0  3  0  0  0  0  0  0
  187.0180  178.1200  142.3060 N   0  0  2  0  0  0  0  0  0  0  0  0
  191.7750  176.6160  146.0840 C   0  0  0  0  0  3  0  0  0  0  0  0
  183.3380  179.0110  144.6150 C   0  0  0  0  0  2  0  0  0  0  0  0
  183.2860  178.7160  142.2090 C   0  0  0  0  0  2  0  0  0  0  0  0
  191.8700  176.7730  143.7210 F   0  0  0  0  0  0  0  0  0  0  0  0
  187.5980  177.4410  145.9860 C   0  0  0  0  0  0  0  0  0  0  0  0
  191.0520  176.6640  147.2770 C   0  0  0  0  0  3  0  0  0  0  0  0
  189.7660  177.1740  144.8260 C   0  0  0  0  0  0  0  0  0  0  0  0
  186.8440  177.4130  144.6910 C   0  0  1  0  0  3  0  0  0  0  0  0
  184.7290  178.7220  147.1380 O   0  0  0  0  0  0  0  0  0  0  0  0
  185.6110  178.1210  145.0210 N   0  0  0  0  0  0  0  0  0  0  0  0
  182.4300  179.0860  143.4080 C   0  0  0  0  0  2  0  0  0  0  0  0
  185.9000  180.3060  142.9290 C   0  0  0  0  0  1  0  0  0  0  0  0
  189.6840  176.9350  147.2530 C   0  0  0  0  0  3  0  0  0  0  0  0
  189.0360  177.1670  146.0340 C   0  0  0  0  0  0  0  0  0  0  0  0
  185.7770  178.9140  142.2950 C   0  0  2  0  0  3  0  0  0  0  0  0
  189.2600  176.7040  140.8760 O   0  0  0  0  0  0  0  0  0  0  0  0
  189.9620  176.5470  138.6120 C   0  0  0  0  0  1  0  0  0  0  0  0
  190.3860  176.5600  140.0650 C   0  0  0  0  0  2  0  0  0  0  0  0
  1  5  1  6  0  0  0
  1  4  1  0  0  0  0
  1 19  1  0  0  0  0
  2 13  1  0  0  0  0
  4 20  1  0  0  0  0
  6  8  1  0  0  0  0
  7  9  1  0  0  0  0
  8 11  1  0  0  0  0
  8 12  1  0  0  0  0
  9 14  1  0  0  0  0
  9 22  1  0  0  0  0
 10  3  1  0  0  0  0
 10 21  2  0  0  0  0
 11  5  1  0  0  0  0
 12  4  1  0  0  0  0
 13 18  2  0  0  0  0
 15  7  1  0  0  0  0
 15 23  1  0  0  0  0
 16  2  1  0  0  0  0
 17 26  1  0  0  0  0
 17  3  2  0  0  0  0
 19  2  2  0  0  0  0
 19 26  1  0  0  0  0
 20 22  1  0  0  0  0
 20 17  1  0  0  0  0
 22 10  1  0  0  0  0
 23 14  1  0  0  0  0
 25 18  1  0  0  0  0
 26 25  2  0  0  0  0
 27 12  1  0  0  0  0
 27  7  1  0  0  0  0
 27 24  1  0  0  0  0
 28 11  1  0  0  0  0
 29 30  1  0  0  0  0
 30 28  1  0  0  0  0
M  END
>  <MODEL>
1

>  <REMARK>
 VINA RESULT:     -10.0      0.000      0.000
  Name = 
  2 active torsions:
  status: ('A' for Active; 'I' for Inactive)
    1  A    between atoms: C_11  and  O_28
    2  A    between atoms: O_28  and  C_30
                            x       y       z     vdW  Elec       q    Type
                         _______ _______ _______ _____ _____    ______ ____

>  <TORSDO>
F 2

$$$$
=
 OpenBabel11122410253D

 30 35  0  0  1  0  0  0  0  0999 V2000
  187.1260  178.3670  140.5630 C   0  0  1  0  0  3  0  0  0  0  0  0
  184.7560  178.7270  139.6850 C   0  0  0  0  0  0  0  0  0  0  0  0
  185.6340  177.8780  144.3620 N   0  0  0  0  0  0  0  0  0  0  0  0
  187.8920  177.7420  141.7600 C   0  0  1  0  0  3  0  0  0  0  0  0
  187.4080  177.6330  139.3940 O   0  0  0  0  0  0  0  0  0  0  0  0
  191.0130  177.5030  139.8750 O   0  0  0  0  0  1  0  0  0  0  0  0
  190.4450  178.0360  143.7340 C   0  0  1  0  0  3  0  0  0  0  0  0
  189.6730  177.2620  140.1940 C   0  0  2  0  0  3  0  0  0  0  0  0
  189.3380  178.1180  144.7890 C   0  0  2  0  0  3  0  0  0  0  0  0
  186.8430  177.6160  145.0480 C   0  0  0  0  0  0  0  0  0  0  0  0
  188.7730  177.8160  139.0800 C   0  0  2  0  0  3  0  0  0  0  0  0
  189.3440  177.8510  141.5040 N   0  0  2  0  0  0  0  0  0  0  0  0
  183.3830  178.8760  139.8980 C   0  0  0  0  0  3  0  0  0  0  0  0
  189.7430  177.1280  145.8610 C   0  0  0  0  0  2  0  0  0  0  0  0
  191.6810  177.5190  144.4570 C   0  0  0  0  0  2  0  0  0  0  0  0
  185.2300  178.8040  138.4170 F   0  0  0  0  0  0  0  0  0  0  0  0
  186.0010  178.3460  143.2140 C   0  0  0  0  0  0  0  0  0  0  0  0
  182.8600  178.8320  141.1910 C   0  0  0  0  0  3  0  0  0  0  0  0
  185.6240  178.5070  140.7750 C   0  0  0  0  0  0  0  0  0  0  0  0
  187.4850  178.4760  143.0450 C   0  0  1  0  0  3  0  0  0  0  0  0
  186.8750  177.2230  146.2440 O   0  0  0  0  0  0  0  0  0  0  0  0
  188.0040  177.8420  144.2520 N   0  0  0  0  0  0  0  0  0  0  0  0
  191.2550  177.1630  145.8710 C   0  0  0  0  0  2  0  0  0  0  0  0
  189.6660  175.7250  142.8440 C   0  0  0  0  0  1  0  0  0  0  0  0
  183.7100  178.6570  142.2830 C   0  0  0  0  0  3  0  0  0  0  0  0
  185.0890  178.5180  142.0810 C   0  0  0  0  0  0  0  0  0  0  0  0
  190.1470  177.1460  142.5190 C   0  0  2  0  0  3  0  0  0  0  0  0
  189.0560  179.1630  138.8080 O   0  0  0  0  0  0  0  0  0  0  0  0
  189.4310  178.0300  136.7540 C   0  0  0  0  0  1  0  0  0  0  0  0
  188.9150  179.2850  137.4250 C   0  0  0  0  0  2  0  0  0  0  0  0
  1  5  1  6  0  0  0
  1 19  1  0  0  0  0
  1  4  1  0  0  0  0
  2 13  2  0  0  0  0
  2 19  1  0  0  0  0
  3 10  1  0  0  0  0
  4 20  1  0  0  0  0
  6  8  1  0  0  0  0
  7 15  1  0  0  0  0
  7  9  1  0  0  0  0
  8 12  1  0  0  0  0
  9 14  1  0  0  0  0
 10 21  2  0  0  0  0
 11  5  1  0  0  0  0
 11  8  1  0  0  0  0
 12  4  1  0  0  0  0
 12 27  1  0  0  0  0
 13 18  1  0  0  0  0
 14 23  1  0  0  0  0
 15 23  1  0  0  0  0
 16  2  1  0  0  0  0
 17  3  2  0  0  0  0
 18 25  2  0  0  0  0
 19 26  2  0  0  0  0
 20 17  1  0  0  0  0
 20 22  1  0  0  0  0
 22  9  1  0  0  0  0
 22 10  1  0  0  0  0
 26 25  1  0  0  0  0
 26 17  1  0  0  0  0
 27 24  1  0  0  0  0
 27  7  1  0  0  0  0
 28 11  1  0  0  0  0
 29 30  1  0  0  0  0
 30 28  1  0  0  0  0
M  END
>  <MODEL>
2

>  <REMARK>
 VINA RESULT:      -9.4      2.308      5.689
  Name = 
  2 active torsions:
  status: ('A' for Active; 'I' for Inactive)
    1  A    between atoms: C_11  and  O_28
    2  A    between atoms: O_28  and  C_30
                            x       y       z     vdW  Elec       q    Type
                         _______ _______ _______ _____ _____    ______ ____

>  <TORSDO>
F 2

$$$$
=
 OpenBabel11122410253D

 30 35  0  0  1  0  0  0  0  0999 V2000
  187.0530  177.9180  145.0720 C   0  0  1  0  0  3  0  0  0  0  0  0
  184.6310  178.5340  145.5910 C   0  0  0  0  0  0  0  0  0  0  0  0
  186.3780  178.6600  141.0850 N   0  0  0  0  0  0  0  0  0  0  0  0
  188.1500  178.1240  143.9930 C   0  0  1  0  0  3  0  0  0  0  0  0
  187.4350  178.5730  146.2590 O   0  0  0  0  0  0  0  0  0  0  0  0
  190.8480  177.3110  146.3200 O   0  0  0  0  0  1  0  0  0  0  0  0
  190.6380  176.7580  142.4280 C   0  0  1  0  0  3  0  0  0  0  0  0
  189.7560  178.0130  145.8010 C   0  0  2  0  0  3  0  0  0  0  0  0
  189.7330  177.0220  141.2200 C   0  0  2  0  0  3  0  0  0  0  0  0
  187.6740  178.4020  140.5840 C   0  0  0  0  0  0  0  0  0  0  0  0
  188.5730  177.9160  146.7760 C   0  0  2  0  0  3  0  0  0  0  0  0
  189.4040  177.4980  144.4650 N   0  0  2  0  0  0  0  0  0  0  0  0
  183.3450  178.8950  145.1770 C   0  0  0  0  0  3  0  0  0  0  0  0
  190.6230  177.7110  140.2060 C   0  0  0  0  0  2  0  0  0  0  0  0
  192.0610  176.7230  141.8900 C   0  0  0  0  0  2  0  0  0  0  0  0
  184.8670  178.3740  146.9170 F   0  0  0  0  0  0  0  0  0  0  0  0
  186.3830  178.1710  142.2820 C   0  0  0  0  0  0  0  0  0  0  0  0
  183.0550  179.0400  143.8200 C   0  0  0  0  0  3  0  0  0  0  0  0
  185.6530  178.3360  144.6400 C   0  0  0  0  0  0  0  0  0  0  0  0
  187.6690  177.5080  142.6730 C   0  0  1  0  0  3  0  0  0  0  0  0
  188.0120  178.6690  139.4010 O   0  0  0  0  0  0  0  0  0  0  0  0
  188.5450  177.8140  141.5480 N   0  0  0  0  0  0  0  0  0  0  0  0
  191.9940  177.1110  140.4230 C   0  0  0  0  0  2  0  0  0  0  0  0
  190.6860  179.2490  143.1570 C   0  0  0  0  0  1  0  0  0  0  0  0
  184.0450  178.8070  142.8660 C   0  0  0  0  0  3  0  0  0  0  0  0
  185.3330  178.4340  143.2690 C   0  0  0  0  0  0  0  0  0  0  0  0
  190.5420  177.7790  143.5720 C   0  0  2  0  0  3  0  0  0  0  0  0
  188.2840  176.5830  147.1070 O   0  0  0  0  0  0  0  0  0  0  0  0
  188.2570  177.9830  149.0270 C   0  0  0  0  0  1  0  0  0  0  0  0
  187.9250  176.6210  148.4550 C   0  0  0  0  0  2  0  0  0  0  0  0
  1 19  1  6  0  0  0
  1  5  1  0  0  0  0
  2 16  1  0  0  0  0
  3 17  2  0  0  0  0
  4 12  1  0  0  0  0
  4  1  1  0  0  0  0
  5 11  1  0  0  0  0
  7 27  1  0  0  0  0
  8  6  1  0  0  0  0
  8 11  1  0  0  0  0
  9 22  1  0  0  0  0
  9  7  1  0  0  0  0
 10  3  1  0  0  0  0
 10 22  1  0  0  0  0
 11 28  1  0  0  0  0
 12  8  1  0  0  0  0
 13  2  1  0  0  0  0
 14 23  1  0  0  0  0
 14  9  1  0  0  0  0
 15  7  1  0  0  0  0
 17 20  1  0  0  0  0
 17 26  1  0  0  0  0
 18 13  2  0  0  0  0
 19  2  2  0  0  0  0
 20  4  1  0  0  0  0
 21 10  2  0  0  0  0
 22 20  1  0  0  0  0
 23 15  1  0  0  0  0
 24 27  1  0  0  0  0
 25 26  2  0  0  0  0
 25 18  1  0  0  0  0
 26 19  1  0  0  0  0
 27 12  1  0  0  0  0
 28 30  1  0  0  0  0
 30 29  1  0  0  0  0
M  END
>  <MODEL>
3

>  <REMARK>
 VINA RESULT:      -9.2      2.362      6.607
  Name = 
  2 active torsions:
  status: ('A' for Active; 'I' for Inactive)
    1  A    between atoms: C_11  and  O_28
    2  A    between atoms: O_28  and  C_30
                            x       y       z     vdW  Elec       q    Type
                         _______ _______ _______ _____ _____    ______ ____

>  <TORSDO>
F 2

$$$$
=
 OpenBabel11122410253D

 30 35  0  0  1  0  0  0  0  0999 V2000
  187.0890  177.8800  140.0410 C   0  0  1  0  0  3  0  0  0  0  0  0
  189.0100  177.4870  138.4070 C   0  0  0  0  0  0  0  0  0  0  0  0
  189.7330  177.6810  143.1830 N   0  0  0  0  0  0  0  0  0  0  0  0
  186.8110  178.3700  141.4880 C   0  0  1  0  0  3  0  0  0  0  0  0
  186.5450  178.8000  139.1240 O   0  0  0  0  0  0  0  0  0  0  0  0
  183.3090  179.1150  140.7580 O   0  0  0  0  0  1  0  0  0  0  0  0
  184.9810  177.9660  144.1320 C   0  0  1  0  0  3  0  0  0  0  0  0
  184.7000  179.2080  140.6530 C   0  0  2  0  0  3  0  0  0  0  0  0
  186.3440  177.6460  144.7540 C   0  0  2  0  0  3  0  0  0  0  0  0
  188.8370  177.9220  144.2490 C   0  0  0  0  0  0  0  0  0  0  0  0
  185.1390  178.7650  139.2490 C   0  0  2  0  0  3  0  0  0  0  0  0
  185.3490  178.4050  141.7050 N   0  0  2  0  0  0  0  0  0  0  0  0
  190.3550  177.2100  138.1440 C   0  0  0  0  0  3  0  0  0  0  0  0
  186.4100  178.4890  146.0100 C   0  0  0  0  0  2  0  0  0  0  0  0
  184.1000  178.4550  145.2730 C   0  0  0  0  0  2  0  0  0  0  0  0
  188.1600  177.6370  137.3610 F   0  0  0  0  0  0  0  0  0  0  0  0
  188.9760  177.4190  142.1680 C   0  0  0  0  0  0  0  0  0  0  0  0
  191.2550  177.0200  139.1940 C   0  0  0  0  0  3  0  0  0  0  0  0
  188.5560  177.6020  139.7370 C   0  0  0  0  0  0  0  0  0  0  0  0
  187.5090  177.4230  142.4730 C   0  0  1  0  0  3  0  0  0  0  0  0
  189.2230  178.1320  145.4290 O   0  0  0  0  0  0  0  0  0  0  0  0
  187.4680  177.9030  143.8510 N   0  0  0  0  0  0  0  0  0  0  0  0
  184.9820  178.5620  146.5040 C   0  0  0  0  0  2  0  0  0  0  0  0
  185.7080  180.3230  143.3220 C   0  0  0  0  0  1  0  0  0  0  0  0
  190.8120  177.0890  140.5140 C   0  0  0  0  0  3  0  0  0  0  0  0
  189.4650  177.3560  140.7890 C   0  0  0  0  0  0  0  0  0  0  0  0
  184.9890  179.0050  143.0020 C   0  0  2  0  0  3  0  0  0  0  0  0
  184.6310  177.4990  138.9230 O   0  0  0  0  0  0  0  0  0  0  0  0
  185.1850  176.3230  136.9350 C   0  0  0  0  0  1  0  0  0  0  0  0
  184.4800  177.5200  137.5370 C   0  0  0  0  0  2  0  0  0  0  0  0
  1  5  1  6  0  0  0
  1  4  1  0  0  0  0
  2 19  1  0  0  0  0
  3 10  1  0  0  0  0
  4 12  1  0  0  0  0
  4 20  1  0  0  0  0
  5 11  1  0  0  0  0
  7  9  1  0  0  0  0
  7 15  1  0  0  0  0
  8  6  1  0  0  0  0
  8 12  1  0  0  0  0
  9 14  1  0  0  0  0
 10 21  2  0  0  0  0
 11  8  1  0  0  0  0
 12 27  1  0  0  0  0
 13  2  2  0  0  0  0
 13 18  1  0  0  0  0
 14 23  1  0  0  0  0
 15 23  1  0  0  0  0
 16  2  1  0  0  0  0
 17 20  1  0  0  0  0
 17  3  2  0  0  0  0
 18 25  2  0  0  0  0
 19  1  1  0  0  0  0
 19 26  2  0  0  0  0
 20 22  1  0  0  0  0
 22 10  1  0  0  0  0
 22  9  1  0  0  0  0
 25 26  1  0  0  0  0
 26 17  1  0  0  0  0
 27 24  1  0  0  0  0
 27  7  1  0  0  0  0
 28 11  1  0  0  0  0
 29 30  1  0  0  0  0
 30 28  1  0  0  0  0
M  END
>  <MODEL>
4

>  <REMARK>
 VINA RESULT:      -7.5      2.564      4.691
  Name = 
  2 active torsions:
  status: ('A' for Active; 'I' for Inactive)
    1  A    between atoms: C_11  and  O_28
    2  A    between atoms: O_28  and  C_30
                            x       y       z     vdW  Elec       q    Type
                         _______ _______ _______ _____ _____    ______ ____

>  <TORSDO>
F 2

$$$$
=
 OpenBabel11122410253D

 30 35  0  0  1  0  0  0  0  0999 V2000
  186.2980  178.1600  142.5030 C   0  0  1  0  0  3  0  0  0  0  0  0
  186.8210  178.3990  144.9900 C   0  0  0  0  0  0  0  0  0  0  0  0
  182.3320  178.9230  143.2720 N   0  0  0  0  0  0  0  0  0  0  0  0
  185.2340  178.5580  141.4460 C   0  0  1  0  0  3  0  0  0  0  0  0
  187.5080  178.8260  142.2230 O   0  0  0  0  0  0  0  0  0  0  0  0
  187.5520  178.0730  138.6630 O   0  0  0  0  0  1  0  0  0  0  0  0
  183.6420  177.6200  138.7830 C   0  0  1  0  0  3  0  0  0  0  0  0
  187.0470  178.6240  139.8440 C   0  0  2  0  0  3  0  0  0  0  0  0
  182.4380  177.7870  139.7150 C   0  0  2  0  0  3  0  0  0  0  0  0
  181.8320  178.8720  141.9510 C   0  0  0  0  0  0  0  0  0  0  0  0
  188.0110  178.3250  141.0020 C   0  0  2  0  0  3  0  0  0  0  0  0
  185.6940  178.1070  140.1150 N   0  0  2  0  0  0  0  0  0  0  0  0
  186.4110  178.5820  146.3140 C   0  0  0  0  0  3  0  0  0  0  0  0
  181.4520  178.6300  138.9330 C   0  0  0  0  0  2  0  0  0  0  0  0
  183.1130  177.8090  137.3690 C   0  0  0  0  0  2  0  0  0  0  0  0
  188.1430  178.2340  144.7350 F   0  0  0  0  0  0  0  0  0  0  0  0
  183.5140  178.4010  143.1980 C   0  0  0  0  0  0  0  0  0  0  0  0
  185.0560  178.7270  146.6200 C   0  0  0  0  0  3  0  0  0  0  0  0
  185.8700  178.3830  143.9480 C   0  0  0  0  0  0  0  0  0  0  0  0
  183.8920  177.9200  141.8300 C   0  0  1  0  0  3  0  0  0  0  0  0
  180.6600  179.2230  141.6540 O   0  0  0  0  0  0  0  0  0  0  0  0
  182.7820  178.3870  141.0050 N   0  0  0  0  0  0  0  0  0  0  0  0
  181.6590  178.2310  137.4890 C   0  0  0  0  0  2  0  0  0  0  0  0
  184.4500  180.0670  139.1000 C   0  0  0  0  0  1  0  0  0  0  0  0
  184.1010  178.6710  145.6050 C   0  0  0  0  0  3  0  0  0  0  0  0
  184.5010  178.4770  144.2770 C   0  0  0  0  0  0  0  0  0  0  0  0
  184.8170  178.5780  139.0290 C   0  0  2  0  0  3  0  0  0  0  0  0
  188.2990  176.9550  141.0950 O   0  0  0  0  0  0  0  0  0  0  0  0
  189.6780  176.0410  142.7990 C   0  0  0  0  0  1  0  0  0  0  0  0
  189.6160  176.8970  141.5510 C   0  0  0  0  0  2  0  0  0  0  0  0
  1  5  1  6  0  0  0
  1 19  1  0  0  0  0
  2 13  1  0  0  0  0
  4 20  1  0  0  0  0
  4  1  1  0  0  0  0
  6  8  1  0  0  0  0
  7 27  1  0  0  0  0
  7  9  1  0  0  0  0
  8 12  1  0  0  0  0
  8 11  1  0  0  0  0
  9 22  1  0  0  0  0
 10  3  1  0  0  0  0
 11 28  1  0  0  0  0
 11  5  1  0  0  0  0
 12  4  1  0  0  0  0
 13 18  2  0  0  0  0
 14  9  1  0  0  0  0
 15 23  1  0  0  0  0
 15  7  1  0  0  0  0
 16  2  1  0  0  0  0
 17  3  2  0  0  0  0
 17 26  1  0  0  0  0
 19 26  1  0  0  0  0
 19  2  2  0  0  0  0
 20 17  1  0  0  0  0
 21 10  2  0  0  0  0
 22 20  1  0  0  0  0
 22 10  1  0  0  0  0
 23 14  1  0  0  0  0
 25 18  1  0  0  0  0
 26 25  2  0  0  0  0
 27 24  1  0  0  0  0
 27 12  1  0  0  0  0
 28 30  1  0  0  0  0
 30 29  1  0  0  0  0
M  END
>  <MODEL>
5

>  <REMARK>
 VINA RESULT:      -7.5      2.841      4.486
  Name = 
  2 active torsions:
  status: ('A' for Active; 'I' for Inactive)
    1  A    between atoms: C_11  and  O_28
    2  A    between atoms: O_28  and  C_30
                            x       y       z     vdW  Elec       q    Type
                         _______ _______ _______ _____ _____    ______ ____

>  <TORSDO>
F 2

$$$$
=
 OpenBabel11122410253D

 30 35  0  0  1  0  0  0  0  0999 V2000
  188.1080  177.6450  142.7700 C   0  0  1  0  0  3  0  0  0  0  0  0
  187.1280  178.1590  145.0700 C   0  0  0  0  0  0  0  0  0  0  0  0
  184.7620  179.2450  140.9970 N   0  0  0  0  0  0  0  0  0  0  0  0
  187.9900  178.0690  141.2810 C   0  0  1  0  0  3  0  0  0  0  0  0
  189.3720  178.0210  143.2650 O   0  0  0  0  0  0  0  0  0  0  0  0
  191.2910  176.7390  140.4520 O   0  0  0  0  0  1  0  0  0  0  0  0
  188.0720  177.0500  138.2050 C   0  0  1  0  0  3  0  0  0  0  0  0
  190.3460  177.5490  141.0880 C   0  0  2  0  0  3  0  0  0  0  0  0
  186.6350  177.5800  138.2260 C   0  0  2  0  0  3  0  0  0  0  0  0
  185.1280  179.0870  139.6400 C   0  0  0  0  0  0  0  0  0  0  0  0
  190.3510  177.2550  142.5960 C   0  0  2  0  0  3  0  0  0  0  0  0
  189.0120  177.3410  140.4980 N   0  0  2  0  0  0  0  0  0  0  0  0
  186.0850  178.6150  145.8810 C   0  0  0  0  0  3  0  0  0  0  0  0
  186.5260  178.4630  137.0000 C   0  0  0  0  0  2  0  0  0  0  0  0
  188.5270  177.1170  136.7550 C   0  0  0  0  0  2  0  0  0  0  0  0
  188.2640  177.7120  145.6610 F   0  0  0  0  0  0  0  0  0  0  0  0
  185.5980  178.5060  141.6510 C   0  0  0  0  0  0  0  0  0  0  0  0
  184.8890  179.0560  145.3110 C   0  0  0  0  0  3  0  0  0  0  0  0
  186.9900  178.1620  143.6660 C   0  0  0  0  0  0  0  0  0  0  0  0
  186.5700  177.7600  140.7890 C   0  0  1  0  0  3  0  0  0  0  0  0
  184.4740  179.6020  138.6950 O   0  0  0  0  0  0  0  0  0  0  0  0
  186.2990  178.2950  139.4590 N   0  0  0  0  0  0  0  0  0  0  0  0
  187.4290  177.8160  135.9740 C   0  0  0  0  0  2  0  0  0  0  0  0
  189.1070  179.3210  138.9190 C   0  0  0  0  0  1  0  0  0  0  0  0
  184.7230  179.0250  143.9270 C   0  0  0  0  0  3  0  0  0  0  0  0
  185.7570  178.5590  143.1060 C   0  0  0  0  0  0  0  0  0  0  0  0
  189.0740  177.7970  139.0980 C   0  0  2  0  0  3  0  0  0  0  0  0
  190.1910  175.8850  142.8560 O   0  0  0  0  0  0  0  0  0  0  0  0
  191.4540  176.3120  144.8220 C   0  0  0  0  0  1  0  0  0  0  0  0
  191.3480  175.5140  143.5400 C   0  0  0  0  0  2  0  0  0  0  0  0
  1  5  1  1  0  0  0
  1 19  1  0  0  0  0
  2 16  1  0  0  0  0
  2 13  1  0  0  0  0
  3 17  2  0  0  0  0
  4  1  1  0  0  0  0
  6  8  1  0  0  0  0
  7  9  1  0  0  0  0
  7 27  1  0  0  0  0
  8 11  1  0  0  0  0
  9 22  1  0  0  0  0
 10  3  1  0  0  0  0
 11 28  1  0  0  0  0
 11  5  1  0  0  0  0
 12  8  1  0  0  0  0
 12  4  1  0  0  0  0
 14  9  1  0  0  0  0
 15  7  1  0  0  0  0
 17 26  1  0  0  0  0
 18 13  2  0  0  0  0
 19  2  2  0  0  0  0
 20  4  1  0  0  0  0
 20 17  1  0  0  0  0
 21 10  2  0  0  0  0
 22 10  1  0  0  0  0
 22 20  1  0  0  0  0
 23 15  1  0  0  0  0
 23 14  1  0  0  0  0
 24 27  1  0  0  0  0
 25 18  1  0  0  0  0
 26 19  1  0  0  0  0
 26 25  2  0  0  0  0
 27 12  1  0  0  0  0
 28 30  1  0  0  0  0
 30 29  1  0  0  0  0
M  END
>  <MODEL>
6

>  <REMARK>
 VINA RESULT:      -7.4      2.565      5.367
  Name = 
  2 active torsions:
  status: ('A' for Active; 'I' for Inactive)
    1  A    between atoms: C_11  and  O_28
    2  A    between atoms: O_28  and  C_30
                            x       y       z     vdW  Elec       q    Type
                         _______ _______ _______ _____ _____    ______ ____

>  <TORSDO>
F 2

$$$$
=
 OpenBabel11122410253D

 30 35  0  0  1  0  0  0  0  0999 V2000
  188.1330  177.5100  145.0810 C   0  0  1  0  0  3  0  0  0  0  0  0
  186.1330  178.0580  146.5700 C   0  0  0  0  0  0  0  0  0  0  0  0
  185.9630  178.6240  141.7720 N   0  0  0  0  0  0  0  0  0  0  0  0
  188.7220  177.8250  143.6790 C   0  0  1  0  0  3  0  0  0  0  0  0
  188.9730  178.0520  146.0730 O   0  0  0  0  0  0  0  0  0  0  0  0
  192.0910  176.8110  144.6650 O   0  0  0  0  0  1  0  0  0  0  0  0
  190.3440  176.6300  141.1410 C   0  0  1  0  0  3  0  0  0  0  0  0
  190.9060  177.5520  144.6850 C   0  0  2  0  0  3  0  0  0  0  0  0
  189.0450  177.0020  140.4190 C   0  0  2  0  0  3  0  0  0  0  0  0
  186.9480  178.4230  140.7780 C   0  0  0  0  0  0  0  0  0  0  0  0
  190.2010  177.3550  146.0360 C   0  0  2  0  0  3  0  0  0  0  0  0
  190.0390  177.1650  143.5580 N   0  0  2  0  0  0  0  0  0  0  0  0
  184.8010  178.4490  146.7330 C   0  0  0  0  0  3  0  0  0  0  0  0
  189.4840  177.7890  139.2030 C   0  0  0  0  0  2  0  0  0  0  0  0
  191.4380  176.6550  140.0830 C   0  0  0  0  0  2  0  0  0  0  0  0
  186.8690  177.7750  147.6730 F   0  0  0  0  0  0  0  0  0  0  0  0
  186.4250  178.0230  142.8190 C   0  0  0  0  0  0  0  0  0  0  0  0
  184.0030  178.7210  145.6200 C   0  0  0  0  0  3  0  0  0  0  0  0
  186.6900  177.9580  145.2780 C   0  0  0  0  0  0  0  0  0  0  0  0
  187.7390  177.3340  142.6080 C   0  0  1  0  0  3  0  0  0  0  0  0
  186.8000  178.8040  139.5860 O   0  0  0  0  0  0  0  0  0  0  0  0
  188.1100  177.7520  141.2600 N   0  0  0  0  0  0  0  0  0  0  0  0
  190.8100  177.1810  138.8040 C   0  0  0  0  0  2  0  0  0  0  0  0
  190.7560  179.0410  142.0130 C   0  0  0  0  0  1  0  0  0  0  0  0
  184.5280  178.5860  144.3350 C   0  0  0  0  0  3  0  0  0  0  0  0
  185.8580  178.1840  144.1600 C   0  0  0  0  0  0  0  0  0  0  0  0
  190.7400  177.5360  142.3160 C   0  0  2  0  0  3  0  0  0  0  0  0
  190.0240  175.9960  146.3340 O   0  0  0  0  0  0  0  0  0  0  0  0
  191.8910  176.4070  147.7450 C   0  0  0  0  0  1  0  0  0  0  0  0
  190.4850  175.8540  147.6430 C   0  0  0  0  0  2  0  0  0  0  0  0
  1 19  1  6  0  0  0
  1  5  1  0  0  0  0
  2 13  1  0  0  0  0
  2 16  1  0  0  0  0
  3 17  2  0  0  0  0
  4  1  1  0  0  0  0
  6  8  1  0  0  0  0
  7 27  1  0  0  0  0
  8 11  1  0  0  0  0
  9  7  1  0  0  0  0
  9 22  1  0  0  0  0
 10 22  1  0  0  0  0
 10  3  1  0  0  0  0
 11  5  1  0  0  0  0
 11 28  1  0  0  0  0
 12  4  1  0  0  0  0
 12  8  1  0  0  0  0
 14  9  1  0  0  0  0
 15  7  1  0  0  0  0
 17 26  1  0  0  0  0
 18 13  2  0  0  0  0
 19  2  2  0  0  0  0
 20 17  1  0  0  0  0
 20  4  1  0  0  0  0
 21 10  2  0  0  0  0
 22 20  1  0  0  0  0
 23 14  1  0  0  0  0
 23 15  1  0  0  0  0
 24 27  1  0  0  0  0
 25 18  1  0  0  0  0
 26 25  2  0  0  0  0
 26 19  1  0  0  0  0
 27 12  1  0  0  0  0
 28 30  1  0  0  0  0
 30 29  1  0  0  0  0
M  END
>  <MODEL>
7

>  <REMARK>
 VINA RESULT:      -7.4      2.316      5.967
  Name = 
  2 active torsions:
  status: ('A' for Active; 'I' for Inactive)
    1  A    between atoms: C_11  and  O_28
    2  A    between atoms: O_28  and  C_30
                            x       y       z     vdW  Elec       q    Type
                         _______ _______ _______ _____ _____    ______ ____

>  <TORSDO>
F 2

$$$$
=
 OpenBabel11122410253D

 30 35  0  0  1  0  0  0  0  0999 V2000
  185.3680  178.7160  140.8670 C   0  0  1  0  0  3  0  0  0  0  0  0
  184.2130  178.8560  143.1390 C   0  0  0  0  0  0  0  0  0  0  0  0
  188.6930  177.1020  142.6690 N   0  0  0  0  0  0  0  0  0  0  0  0
  186.5190  177.9710  140.1380 C   0  0  1  0  0  3  0  0  0  0  0  0
  184.1340  178.3360  140.3040 O   0  0  0  0  0  0  0  0  0  0  0  0
  185.1540  178.7220  136.8320 O   0  0  0  0  0  1  0  0  0  0  0  0
  188.8970  178.2310  137.9520 C   0  0  1  0  0  3  0  0  0  0  0  0
  185.1960  178.1850  138.1220 C   0  0  2  0  0  3  0  0  0  0  0  0
  189.7530  177.8720  139.1700 C   0  0  2  0  0  3  0  0  0  0  0  0
  189.4950  176.9010  141.5230 C   0  0  0  0  0  0  0  0  0  0  0  0
  184.0900  178.8200  138.9780 C   0  0  2  0  0  3  0  0  0  0  0  0
  186.5290  178.3860  138.7190 N   0  0  2  0  0  0  0  0  0  0  0  0
  184.2270  178.7120  144.5290 C   0  0  0  0  0  3  0  0  0  0  0  0
  190.6480  176.7440  138.7010 C   0  0  0  0  0  2  0  0  0  0  0  0
  189.6880  177.7810  136.7320 C   0  0  0  0  0  2  0  0  0  0  0  0
  183.0810  179.3090  142.5430 F   0  0  0  0  0  0  0  0  0  0  0  0
  187.7410  177.8820  142.2710 C   0  0  0  0  0  0  0  0  0  0  0  0
  185.3810  178.2770  145.1820 C   0  0  0  0  0  3  0  0  0  0  0  0
  185.3590  178.5410  142.3800 C   0  0  0  0  0  0  0  0  0  0  0  0
  187.8440  178.3020  140.8360 C   0  0  1  0  0  3  0  0  0  0  0  0
  190.5730  176.2500  141.5530 O   0  0  0  0  0  0  0  0  0  0  0  0
  188.9620  177.5030  140.3460 N   0  0  0  0  0  0  0  0  0  0  0  0
  190.9100  177.0360  137.2410 C   0  0  0  0  0  2  0  0  0  0  0  0
  187.4340  176.0940  138.1300 C   0  0  0  0  0  1  0  0  0  0  0  0
  186.5350  178.0010  144.4500 C   0  0  0  0  0  3  0  0  0  0  0  0
  186.5350  178.1530  143.0580 C   0  0  0  0  0  0  0  0  0  0  0  0
  187.4920  177.6120  137.9150 C   0  0  2  0  0  3  0  0  0  0  0  0
  184.1520  180.2220  138.9460 O   0  0  0  0  0  0  0  0  0  0  0  0
  181.9960  179.7670  138.0580 C   0  0  0  0  0  1  0  0  0  0  0  0
  182.8210  180.6380  138.9810 C   0  0  0  0  0  2  0  0  0  0  0  0
  1  5  1  6  0  0  0
  1 19  1  0  0  0  0
  2 13  1  0  0  0  0
  4 20  1  0  0  0  0
  4  1  1  0  0  0  0
  6  8  1  0  0  0  0
  7  9  1  0  0  0  0
  8 12  1  0  0  0  0
  8 11  1  0  0  0  0
  9 22  1  0  0  0  0
 10 21  2  0  0  0  0
 10  3  1  0  0  0  0
 11  5  1  0  0  0  0
 12  4  1  0  0  0  0
 13 18  2  0  0  0  0
 14  9  1  0  0  0  0
 15 23  1  0  0  0  0
 15  7  1  0  0  0  0
 16  2  1  0  0  0  0
 17  3  2  0  0  0  0
 17 26  1  0  0  0  0
 19 26  1  0  0  0  0
 19  2  2  0  0  0  0
 20 17  1  0  0  0  0
 22 20  1  0  0  0  0
 22 10  1  0  0  0  0
 23 14  1  0  0  0  0
 25 18  1  0  0  0  0
 26 25  2  0  0  0  0
 27  7  1  0  0  0  0
 27 24  1  0  0  0  0
 27 12  1  0  0  0  0
 28 11  1  0  0  0  0
 28 30  1  0  0  0  0
 29 30  1  0  0  0  0
M  END
>  <MODEL>
8

>  <REMARK>
 VINA RESULT:      -7.4      3.312      6.561
  Name = 
  2 active torsions:
  status: ('A' for Active; 'I' for Inactive)
    1  A    between atoms: C_11  and  O_28
    2  A    between atoms: O_28  and  C_30
                            x       y       z     vdW  Elec       q    Type
                         _______ _______ _______ _____ _____    ______ ____

>  <TORSDO>
F 2

$$$$
=
 OpenBabel11122410253D

 30 35  0  0  1  0  0  0  0  0999 V2000
  187.9210  178.1670  141.7850 C   0  0  1  0  0  3  0  0  0  0  0  0
  188.9920  177.7490  144.0640 C   0  0  0  0  0  0  0  0  0  0  0  0
  191.3430  176.8300  139.9410 N   0  0  0  0  0  0  0  0  0  0  0  0
  188.0370  177.7430  140.2960 C   0  0  1  0  0  3  0  0  0  0  0  0
  186.7030  177.6930  142.3120 O   0  0  0  0  0  0  0  0  0  0  0  0
  184.6210  178.7970  139.5390 O   0  0  0  0  0  1  0  0  0  0  0  0
  187.8020  178.7310  137.2190 C   0  0  1  0  0  3  0  0  0  0  0  0
  185.6430  178.0700  140.1570 C   0  0  2  0  0  3  0  0  0  0  0  0
  189.2770  178.3190  137.2070 C   0  0  2  0  0  3  0  0  0  0  0  0
  190.9340  176.9480  138.5930 C   0  0  0  0  0  0  0  0  0  0  0  0
  185.6500  178.3730  141.6630 C   0  0  2  0  0  3  0  0  0  0  0  0
  186.9430  178.3800  139.5340 N   0  0  2  0  0  0  0  0  0  0  0  0
  190.0880  177.3840  144.8520 C   0  0  0  0  0  3  0  0  0  0  0  0
  189.4280  177.4390  135.9840 C   0  0  0  0  0  2  0  0  0  0  0  0
  187.3200  178.6180  135.7800 C   0  0  0  0  0  2  0  0  0  0  0  0
  187.8380  178.1070  144.6800 F   0  0  0  0  0  0  0  0  0  0  0  0
  190.4650  177.5030  140.6110 C   0  0  0  0  0  0  0  0  0  0  0  0
  191.3020  177.0370  144.2560 C   0  0  0  0  0  3  0  0  0  0  0  0
  189.0970  177.7480  142.6570 C   0  0  0  0  0  0  0  0  0  0  0  0
  189.4160  178.1620  139.7690 C   0  0  1  0  0  3  0  0  0  0  0  0
  191.6050  176.4810  137.6350 O   0  0  0  0  0  0  0  0  0  0  0  0
  189.6990  177.6420  138.4360 N   0  0  0  0  0  0  0  0  0  0  0  0
  188.4520  178.0040  134.9760 C   0  0  0  0  0  2  0  0  0  0  0  0
  186.9710  176.3880  137.9680 C   0  0  0  0  0  1  0  0  0  0  0  0
  191.4330  177.0720  142.8680 C   0  0  0  0  0  3  0  0  0  0  0  0
  190.3450  177.4470  142.0700 C   0  0  0  0  0  0  0  0  0  0  0  0
  186.8840  177.9110  138.1380 C   0  0  2  0  0  3  0  0  0  0  0  0
  185.7050  179.7530  141.9130 O   0  0  0  0  0  0  0  0  0  0  0  0
  183.9000  179.0570  143.2910 C   0  0  0  0  0  1  0  0  0  0  0  0
  185.1470  179.9090  143.1820 C   0  0  0  0  0  2  0  0  0  0  0  0
  1  5  1  1  0  0  0
  1 19  1  0  0  0  0
  2 16  1  0  0  0  0
  2 13  1  0  0  0  0
  3 17  2  0  0  0  0
  4  1  1  0  0  0  0
  6  8  1  0  0  0  0
  7 27  1  0  0  0  0
  8 11  1  0  0  0  0
  9  7  1  0  0  0  0
  9 22  1  0  0  0  0
 10  3  1  0  0  0  0
 11 28  1  0  0  0  0
 11  5  1  0  0  0  0
 12  8  1  0  0  0  0
 12  4  1  0  0  0  0
 14  9  1  0  0  0  0
 15  7  1  0  0  0  0
 17 26  1  0  0  0  0
 18 13  2  0  0  0  0
 19  2  2  0  0  0  0
 20  4  1  0  0  0  0
 20 17  1  0  0  0  0
 21 10  2  0  0  0  0
 22 10  1  0  0  0  0
 22 20  1  0  0  0  0
 23 15  1  0  0  0  0
 23 14  1  0  0  0  0
 24 27  1  0  0  0  0
 25 18  1  0  0  0  0
 26 19  1  0  0  0  0
 26 25  2  0  0  0  0
 27 12  1  0  0  0  0
 28 30  1  0  0  0  0
 30 29  1  0  0  0  0
M  END
>  <MODEL>
9

>  <REMARK>
 VINA RESULT:      -7.4      2.783      6.251
  Name = 
  2 active torsions:
  status: ('A' for Active; 'I' for Inactive)
    1  A    between atoms: C_11  and  O_28
    2  A    between atoms: O_28  and  C_30
                            x       y       z     vdW  Elec       q    Type
                         _______ _______ _______ _____ _____    ______ ____

>  <TORSDO>
F 2

$$$$
