=
 OpenBabel11122411403D

 37 43  0  0  1  0  0  0  0  0999 V2000
  190.4080  177.3250  143.9010 C   0  0  0  0  0  0  0  0  0  0  0  0
  186.3640  177.9920  144.5280 C   0  0  0  0  0  0  0  0  0  0  0  0
  184.4280  177.6990  141.6140 O   0  0  0  0  0  0  0  0  0  0  0  0
  188.4490  177.3160  145.5170 C   0  0  0  0  0  0  0  0  0  0  0  0
  186.0540  178.5470  143.1720 C   0  0  2  0  0  3  0  0  0  0  0  0
  187.5900  177.4070  144.4310 C   0  0  0  0  0  0  0  0  0  0  0  0
  184.5940  178.5540  142.7180 C   0  0  2  0  0  3  0  0  0  0  0  0
  187.9640  177.6240  146.7890 C   0  0  0  0  0  3  0  0  0  0  0  0
  188.0300  177.2640  143.0380 C   0  0  2  0  0  3  0  0  0  0  0  0
  190.7990  175.9450  143.4010 C   0  0  0  0  0  1  0  0  0  0  0  0
  184.4450  178.8420  146.0520 C   0  0  0  0  0  2  0  0  0  0  0  0
  186.6440  178.0950  146.9290 C   0  0  0  0  0  3  0  0  0  0  0  0
  189.3920  177.9740  142.9230 C   0  0  0  0  0  2  0  0  0  0  0  0
  185.1710  179.7110  140.5240 O   0  0  0  0  0  0  0  0  0  0  0  0
  184.5700  178.4310  140.4020 C   0  0  1  0  0  3  0  0  0  0  0  0
  185.8430  178.3430  145.7960 C   0  0  0  0  0  0  0  0  0  0  0  0
  186.9010  177.7840  142.2280 N   0  0  2  0  0  0  0  0  0  0  0  0
  189.8560  177.2120  145.2610 N   0  0  0  0  0  2  0  0  0  0  0  0
  183.5080  178.3930  143.7790 C   0  0  1  0  0  3  0  0  0  0  0  0
  191.6540  178.1880  143.9450 C   0  0  0  0  0  1  0  0  0  0  0  0
  186.0030  178.6930  140.0250 C   0  0  2  0  0  3  0  0  0  0  0  0
  187.2170  178.5330  140.9900 C   0  0  2  0  0  3  0  0  0  0  0  0
  183.7240  179.4460  144.8540 C   0  0  0  0  0  2  0  0  0  0  0  0
  181.0780  178.5140  143.9880 C   0  0  0  0  0  3  0  0  0  0  0  0
  182.1460  178.5760  143.1780 C   0  0  0  0  0  0  0  0  0  0  0  0
  181.9960  179.0290  141.7430 C   0  0  0  0  0  2  0  0  0  0  0  0
  180.3380  178.8470  139.6040 S   0  0  0  0  0  0  0  0  0  0  0  0
  179.4810  178.8050  142.1560 C   0  0  0  0  0  3  0  0  0  0  0  0
  180.6150  178.8010  141.2150 C   0  0  0  0  0  0  0  0  0  0  0  0
  179.7060  178.6900  143.4710 C   0  0  0  0  0  3  0  0  0  0  0  0
  188.3420  177.8250  140.1830 C   0  0  0  0  0  2  0  0  0  0  0  0
  188.1880  177.8800  138.7120 N   0  0  0  0  0  0  0  0  0  0  0  0
  188.4440  179.5980  137.1380 O   0  0  0  0  0  1  0  0  0  0  0  0
  189.0940  178.8830  138.1470 C   0  0  0  0  0  2  0  0  0  0  0  0
  188.4590  176.5610  138.1260 C   0  0  0  0  0  2  0  0  0  0  0  0
  189.9340  176.3980  137.7740 C   0  0  0  0  0  2  0  0  0  0  0  0
  190.5480  175.5460  138.6890 O   0  0  0  0  0  1  0  0  0  0  0  0
  1 20  1  0  0  0  0
  1 18  1  0  0  0  0
  2 16  1  0  0  0  0
  4  8  2  0  0  0  0
  5  2  1  1  0  0  0
  6  2  2  0  0  0  0
  6  4  1  0  0  0  0
  7  3  1  6  0  0  0
  7  5  1  0  0  0  0
  7 19  1  0  0  0  0
  8 12  1  0  0  0  0
  9 13  1  1  0  0  0
  9  6  1  0  0  0  0
 10  1  1  0  0  0  0
 13  1  1  0  0  0  0
 15 14  1  1  0  0  0
 15  3  1  0  0  0  0
 16 11  1  0  0  0  0
 16 12  2  0  0  0  0
 17  9  1  0  0  0  0
 17  5  1  0  0  0  0
 18  4  1  0  0  0  0
 19 23  1  0  0  0  0
 21 15  1  0  0  0  0
 21 14  1  0  0  0  0
 21 22  1  0  0  0  0
 22 17  1  0  0  0  0
 23 11  1  0  0  0  0
 25 19  1  0  0  0  0
 25 24  2  0  0  0  0
 26 25  1  0  0  0  0
 27 29  2  0  0  0  0
 28 30  2  0  0  0  0
 29 26  1  0  0  0  0
 29 28  1  0  0  0  0
 30 24  1  0  0  0  0
 31 22  1  0  0  0  0
 32 31  1  0  0  0  0
 33 34  1  0  0  0  0
 34 32  1  0  0  0  0
 35 32  1  0  0  0  0
 36 35  1  0  0  0  0
 36 37  1  0  0  0  0
M  END
>  <MODEL>
1

>  <REMARK>
 VINA RESULT:     -10.9      0.000      0.000
  Name = 
  6 active torsions:
  status: ('A' for Active; 'I' for Inactive)
    1  A    between atoms: C_1  and  N_4
    2  A    between atoms: C_1  and  C_27
    3  A    between atoms: N_4  and  C_12
    4  A    between atoms: N_4  and  C_37
    5  A    between atoms: C_8  and  C_12
    6  A    between atoms: C_23  and  C_30
                            x       y       z     vdW  Elec       q    Type
                         _______ _______ _______ _____ _____    ______ ____

>  <TORSDO>
F 6

$$$$
=
 OpenBabel11122411403D

 37 43  0  0  1  0  0  0  0  0999 V2000
  186.9160  178.1900  137.7630 C   0  0  0  0  0  0  0  0  0  0  0  0
  186.7800  178.1770  141.9070 C   0  0  0  0  0  0  0  0  0  0  0  0
  189.9470  178.0180  143.4120 O   0  0  0  0  0  0  0  0  0  0  0  0
  185.6540  178.8090  139.8780 C   0  0  0  0  0  0  0  0  0  0  0  0
  188.0170  177.3650  142.1320 C   0  0  2  0  0  3  0  0  0  0  0  0
  186.8130  178.5730  140.6040 C   0  0  0  0  0  0  0  0  0  0  0  0
  188.6750  177.4290  143.5110 C   0  0  2  0  0  3  0  0  0  0  0  0
  184.4340  178.8640  140.5530 C   0  0  0  0  0  3  0  0  0  0  0  0
  188.1210  178.3350  139.9830 C   0  0  2  0  0  3  0  0  0  0  0  0
  187.6340  179.3590  137.1110 C   0  0  0  0  0  1  0  0  0  0  0  0
  185.4170  177.9410  144.1010 C   0  0  0  0  0  2  0  0  0  0  0  0
  184.3980  178.6010  141.9360 C   0  0  0  0  0  3  0  0  0  0  0  0
  187.8760  177.4590  138.7400 C   0  0  0  0  0  2  0  0  0  0  0  0
  190.4600  175.7350  142.8560 O   0  0  0  0  0  0  0  0  0  0  0  0
  190.9400  177.0140  143.2380 C   0  0  1  0  0  3  0  0  0  0  0  0
  185.5590  178.1950  142.6230 C   0  0  0  0  0  0  0  0  0  0  0  0
  188.9630  177.7810  141.0720 N   0  0  2  0  0  0  0  0  0  0  0  0
  185.7110  178.6810  138.4510 N   0  0  0  0  0  2  0  0  0  0  0  0
  187.8490  177.9600  144.6800 C   0  0  1  0  0  3  0  0  0  0  0  0
  186.5020  177.2170  136.6760 C   0  0  0  0  0  1  0  0  0  0  0  0
  191.0320  176.5010  141.8260 C   0  0  2  0  0  3  0  0  0  0  0  0
  189.9510  176.7330  140.7270 C   0  0  2  0  0  3  0  0  0  0  0  0
  186.5550  177.1670  144.7560 C   0  0  0  0  0  2  0  0  0  0  0  0
  188.1920  178.5270  147.0300 C   0  0  0  0  0  3  0  0  0  0  0  0
  188.5950  177.8080  145.9710 C   0  0  0  0  0  0  0  0  0  0  0  0
  189.6340  176.7210  146.1330 C   0  0  0  0  0  2  0  0  0  0  0  0
  191.9290  176.1350  147.4540 S   0  0  0  0  0  0  0  0  0  0  0  0
  189.9870  177.6970  148.4710 C   0  0  0  0  0  3  0  0  0  0  0  0
  190.5190  176.9500  147.3180 C   0  0  0  0  0  0  0  0  0  0  0  0
  188.8730  178.4270  148.3360 C   0  0  0  0  0  3  0  0  0  0  0  0
  190.7110  177.0940  139.4190 C   0  0  0  0  0  2  0  0  0  0  0  0
  191.4790  175.9830  138.8140 N   0  0  0  0  0  0  0  0  0  0  0  0
  190.4100  174.1560  137.8090 O   0  0  0  0  0  1  0  0  0  0  0  0
  190.7920  175.4860  137.6190 C   0  0  0  0  0  2  0  0  0  0  0  0
  192.8340  176.4340  138.4700 C   0  0  0  0  0  2  0  0  0  0  0  0
  193.1850  176.1000  137.0230 C   0  0  0  0  0  2  0  0  0  0  0  0
  194.3090  176.8220  136.6300 O   0  0  0  0  0  1  0  0  0  0  0  0
  1 18  1  0  0  0  0
  1 13  1  0  0  0  0
  2 16  1  0  0  0  0
  4  8  2  0  0  0  0
  4  6  1  0  0  0  0
  5  2  1  1  0  0  0
  5  7  1  0  0  0  0
  6  2  2  0  0  0  0
  7  3  1  6  0  0  0
  7 19  1  0  0  0  0
  8 12  1  0  0  0  0
  9 13  1  6  0  0  0
  9  6  1  0  0  0  0
  9 17  1  0  0  0  0
 10  1  1  0  0  0  0
 11 23  1  0  0  0  0
 12 16  2  0  0  0  0
 15 14  1  1  0  0  0
 15  3  1  0  0  0  0
 16 11  1  0  0  0  0
 17  5  1  0  0  0  0
 18  4  1  0  0  0  0
 19 23  1  0  0  0  0
 19 25  1  0  0  0  0
 20  1  1  0  0  0  0
 21 14  1  0  0  0  0
 21 15  1  0  0  0  0
 22 17  1  0  0  0  0
 22 21  1  0  0  0  0
 24 30  1  0  0  0  0
 25 26  1  0  0  0  0
 25 24  2  0  0  0  0
 26 29  1  0  0  0  0
 29 27  2  0  0  0  0
 29 28  1  0  0  0  0
 30 28  2  0  0  0  0
 31 22  1  0  0  0  0
 32 31  1  0  0  0  0
 34 33  1  0  0  0  0
 34 32  1  0  0  0  0
 35 32  1  0  0  0  0
 36 35  1  0  0  0  0
 37 36  1  0  0  0  0
M  END
>  <MODEL>
2

>  <REMARK>
 VINA RESULT:     -10.3      3.557      6.593
  Name = 
  6 active torsions:
  status: ('A' for Active; 'I' for Inactive)
    1  A    between atoms: C_1  and  N_4
    2  A    between atoms: C_1  and  C_27
    3  A    between atoms: N_4  and  C_12
    4  A    between atoms: N_4  and  C_37
    5  A    between atoms: C_8  and  C_12
    6  A    between atoms: C_23  and  C_30
                            x       y       z     vdW  Elec       q    Type
                         _______ _______ _______ _____ _____    ______ ____

>  <TORSDO>
F 6

$$$$
=
 OpenBabel11122411403D

 37 43  0  0  1  0  0  0  0  0999 V2000
  189.6720  177.6520  143.8790 C   0  0  0  0  0  0  0  0  0  0  0  0
  185.5660  178.2090  144.0290 C   0  0  0  0  0  0  0  0  0  0  0  0
  183.9830  177.7970  140.9230 O   0  0  0  0  0  0  0  0  0  0  0  0
  187.5430  177.6170  145.2640 C   0  0  0  0  0  0  0  0  0  0  0  0
  185.3970  178.7260  142.6340 C   0  0  2  0  0  3  0  0  0  0  0  0
  186.8100  177.6590  144.0860 C   0  0  0  0  0  0  0  0  0  0  0  0
  183.9980  178.6790  142.0180 C   0  0  2  0  0  3  0  0  0  0  0  0
  186.9080  177.9360  146.4650 C   0  0  0  0  0  3  0  0  0  0  0  0
  187.4100  177.5010  142.7550 C   0  0  2  0  0  3  0  0  0  0  0  0
  190.1550  176.2740  143.4600 C   0  0  0  0  0  1  0  0  0  0  0  0
  183.4640  179.0320  145.3060 C   0  0  0  0  0  2  0  0  0  0  0  0
  185.5690  178.3700  146.4430 C   0  0  0  0  0  3  0  0  0  0  0  0
  188.7560  178.2500  142.7780 C   0  0  0  0  0  2  0  0  0  0  0  0
  184.7890  179.8070  139.8760 O   0  0  0  0  0  0  0  0  0  0  0  0
  184.2410  178.5080  139.7180 C   0  0  1  0  0  3  0  0  0  0  0  0
  184.8950  178.5700  145.2220 C   0  0  0  0  0  0  0  0  0  0  0  0
  186.3660  177.9700  141.8110 N   0  0  2  0  0  0  0  0  0  0  0  0
  188.9720  177.5500  145.1710 N   0  0  0  0  0  2  0  0  0  0  0  0
  182.8030  178.5080  142.9530 C   0  0  1  0  0  3  0  0  0  0  0  0
  190.8800  178.5530  144.0430 C   0  0  0  0  0  1  0  0  0  0  0  0
  185.6990  178.8050  139.4990 C   0  0  2  0  0  3  0  0  0  0  0  0
  186.8000  178.7020  140.5980 C   0  0  2  0  0  3  0  0  0  0  0  0
  182.8670  179.5880  144.0200 C   0  0  0  0  0  2  0  0  0  0  0  0
  181.0240  177.5510  141.5820 C   0  0  0  0  0  3  0  0  0  0  0  0
  181.5140  178.6370  142.1980 C   0  0  0  0  0  0  0  0  0  0  0  0
  180.6860  179.8980  142.3070 C   0  0  0  0  0  2  0  0  0  0  0  0
  178.9310  181.4310  140.9190 S   0  0  0  0  0  0  0  0  0  0  0  0
  179.1180  178.7600  140.6350 C   0  0  0  0  0  3  0  0  0  0  0  0
  179.6560  179.9980  141.2250 C   0  0  0  0  0  0  0  0  0  0  0  0
  179.7570  177.5990  140.8240 C   0  0  0  0  0  3  0  0  0  0  0  0
  188.0290  178.0130  139.9410 C   0  0  0  0  0  2  0  0  0  0  0  0
  188.0210  177.9960  138.4610 N   0  0  0  0  0  0  0  0  0  0  0  0
  188.7690  179.8650  137.2620 O   0  0  0  0  0  1  0  0  0  0  0  0
  189.1850  178.7180  137.9420 C   0  0  0  0  0  2  0  0  0  0  0  0
  188.0220  176.6110  137.9710 C   0  0  0  0  0  2  0  0  0  0  0  0
  186.9250  176.3820  136.9370 C   0  0  0  0  0  2  0  0  0  0  0  0
  186.4950  177.6030  136.4240 O   0  0  0  0  0  1  0  0  0  0  0  0
  1 20  1  0  0  0  0
  1 18  1  0  0  0  0
  2  6  2  0  0  0  0
  2 16  1  0  0  0  0
  4  8  2  0  0  0  0
  5  2  1  1  0  0  0
  6  4  1  0  0  0  0
  7  3  1  6  0  0  0
  7  5  1  0  0  0  0
  7 19  1  0  0  0  0
  9 13  1  1  0  0  0
  9  6  1  0  0  0  0
 10  1  1  0  0  0  0
 12  8  1  0  0  0  0
 13  1  1  0  0  0  0
 15 14  1  1  0  0  0
 15  3  1  0  0  0  0
 16 11  1  0  0  0  0
 16 12  2  0  0  0  0
 17  5  1  0  0  0  0
 17  9  1  0  0  0  0
 18  4  1  0  0  0  0
 19 23  1  0  0  0  0
 21 15  1  0  0  0  0
 21 14  1  0  0  0  0
 21 22  1  0  0  0  0
 22 17  1  0  0  0  0
 23 11  1  0  0  0  0
 24 25  2  0  0  0  0
 25 26  1  0  0  0  0
 25 19  1  0  0  0  0
 27 29  2  0  0  0  0
 28 30  2  0  0  0  0
 28 29  1  0  0  0  0
 29 26  1  0  0  0  0
 30 24  1  0  0  0  0
 31 22  1  0  0  0  0
 32 31  1  0  0  0  0
 33 34  1  0  0  0  0
 34 32  1  0  0  0  0
 35 32  1  0  0  0  0
 36 35  1  0  0  0  0
 37 36  1  0  0  0  0
M  END
>  <MODEL>
3

>  <REMARK>
 VINA RESULT:     -10.2      1.340      1.560
  Name = 
  6 active torsions:
  status: ('A' for Active; 'I' for Inactive)
    1  A    between atoms: C_1  and  N_4
    2  A    between atoms: C_1  and  C_27
    3  A    between atoms: N_4  and  C_12
    4  A    between atoms: N_4  and  C_37
    5  A    between atoms: C_8  and  C_12
    6  A    between atoms: C_23  and  C_30
                            x       y       z     vdW  Elec       q    Type
                         _______ _______ _______ _____ _____    ______ ____

>  <TORSDO>
F 6

$$$$
=
 OpenBabel11122411403D

 37 43  0  0  1  0  0  0  0  0999 V2000
  185.8420  178.3600  145.8620 C   0  0  0  0  0  0  0  0  0  0  0  0
  187.5150  177.9200  142.0930 C   0  0  0  0  0  0  0  0  0  0  0  0
  190.4500  175.9950  142.0810 O   0  0  0  0  0  0  0  0  0  0  0  0
  185.5030  178.3370  143.3450 C   0  0  0  0  0  0  0  0  0  0  0  0
  188.9410  177.8140  142.5340 C   0  0  2  0  0  3  0  0  0  0  0  0
  186.7550  177.7510  143.2110 C   0  0  0  0  0  0  0  0  0  0  0  0
  189.9480  177.2000  141.5600 C   0  0  2  0  0  3  0  0  0  0  0  0
  184.9090  178.9220  142.2260 C   0  0  0  0  0  3  0  0  0  0  0  0
  187.5390  177.2520  144.3470 C   0  0  2  0  0  3  0  0  0  0  0  0
  185.3860  177.0880  146.5550 C   0  0  0  0  0  1  0  0  0  0  0  0
  187.6360  178.6290  139.6010 C   0  0  0  0  0  2  0  0  0  0  0  0
  185.6250  178.9770  141.0140 C   0  0  0  0  0  3  0  0  0  0  0  0
  187.3480  178.2560  145.5000 C   0  0  0  0  0  2  0  0  0  0  0  0
  191.8920  177.5900  143.1580 O   0  0  0  0  0  0  0  0  0  0  0  0
  191.6480  176.2370  142.8080 C   0  0  1  0  0  3  0  0  0  0  0  0
  186.9590  178.5310  140.9440 C   0  0  0  0  0  0  0  0  0  0  0  0
  188.9080  177.0620  143.8080 N   0  0  2  0  0  0  0  0  0  0  0  0
  185.0110  178.5880  144.6680 N   0  0  0  0  0  2  0  0  0  0  0  0
  189.5620  177.1110  140.0850 C   0  0  1  0  0  3  0  0  0  0  0  0
  185.6550  179.5200  146.8200 C   0  0  0  0  0  1  0  0  0  0  0  0
  191.4090  176.7730  144.1940 C   0  0  2  0  0  3  0  0  0  0  0  0
  190.0560  177.3630  144.6950 C   0  0  2  0  0  3  0  0  0  0  0  0
  189.1530  178.4950  139.6090 C   0  0  0  0  0  2  0  0  0  0  0  0
  191.9320  177.1490  139.4990 C   0  0  0  0  0  3  0  0  0  0  0  0
  190.7180  176.6290  139.2610 C   0  0  0  0  0  0  0  0  0  0  0  0
  190.5590  175.4420  138.3380 C   0  0  0  0  0  2  0  0  0  0  0  0
  191.5050  174.3890  136.0250 S   0  0  0  0  0  0  0  0  0  0  0  0
  192.9970  175.8800  137.6970 C   0  0  0  0  0  3  0  0  0  0  0  0
  191.6720  175.3400  137.3430 C   0  0  0  0  0  0  0  0  0  0  0  0
  193.1190  176.7200  138.7320 C   0  0  0  0  0  3  0  0  0  0  0  0
  189.8200  176.7960  146.1230 C   0  0  0  0  0  2  0  0  0  0  0  0
  190.2840  177.6660  147.2270 N   0  0  0  0  0  0  0  0  0  0  0  0
  188.3750  176.7550  148.2370 O   0  0  0  0  0  1  0  0  0  0  0  0
  189.2010  177.8800  148.1900 C   0  0  0  0  0  2  0  0  0  0  0  0
  191.4440  177.0600  147.8950 C   0  0  0  0  0  2  0  0  0  0  0  0
  191.6760  175.6280  147.4230 C   0  0  0  0  0  2  0  0  0  0  0  0
  193.0340  175.3240  147.4840 O   0  0  0  0  0  1  0  0  0  0  0  0
  1 10  1  0  0  0  0
  1 20  1  0  0  0  0
  2  6  1  0  0  0  0
  4 18  1  0  0  0  0
  5  2  1  6  0  0  0
  5 17  1  0  0  0  0
  6  4  2  0  0  0  0
  6  9  1  0  0  0  0
  7  3  1  1  0  0  0
  7  5  1  0  0  0  0
  8  4  1  0  0  0  0
  9 13  1  1  0  0  0
 11 23  1  0  0  0  0
 11 16  1  0  0  0  0
 12  8  2  0  0  0  0
 13  1  1  0  0  0  0
 14 21  1  0  0  0  0
 15  3  1  6  0  0  0
 15 14  1  0  0  0  0
 15 21  1  0  0  0  0
 16 12  1  0  0  0  0
 16  2  2  0  0  0  0
 17  9  1  0  0  0  0
 17 22  1  0  0  0  0
 18  1  1  0  0  0  0
 19  7  1  0  0  0  0
 21 22  1  0  0  0  0
 22 31  1  0  0  0  0
 23 19  1  0  0  0  0
 25 24  2  0  0  0  0
 25 19  1  0  0  0  0
 26 25  1  0  0  0  0
 27 29  2  0  0  0  0
 28 30  2  0  0  0  0
 29 28  1  0  0  0  0
 29 26  1  0  0  0  0
 30 24  1  0  0  0  0
 31 32  1  0  0  0  0
 32 35  1  0  0  0  0
 32 34  1  0  0  0  0
 34 33  1  0  0  0  0
 36 37  1  0  0  0  0
 36 35  1  0  0  0  0
M  END
>  <MODEL>
4

>  <REMARK>
 VINA RESULT:      -9.0      3.625      8.047
  Name = 
  6 active torsions:
  status: ('A' for Active; 'I' for Inactive)
    1  A    between atoms: C_1  and  N_4
    2  A    between atoms: C_1  and  C_27
    3  A    between atoms: N_4  and  C_12
    4  A    between atoms: N_4  and  C_37
    5  A    between atoms: C_8  and  C_12
    6  A    between atoms: C_23  and  C_30
                            x       y       z     vdW  Elec       q    Type
                         _______ _______ _______ _____ _____    ______ ____

>  <TORSDO>
F 6

$$$$
=
 OpenBabel11122411403D

 37 43  0  0  1  0  0  0  0  0999 V2000
  183.8390  178.9190  139.7980 C   0  0  0  0  0  0  0  0  0  0  0  0
  185.2780  178.4700  143.6610 C   0  0  0  0  0  0  0  0  0  0  0  0
  188.7820  178.5010  143.8630 O   0  0  0  0  0  0  0  0  0  0  0  0
  183.4320  179.1790  142.2920 C   0  0  0  0  0  0  0  0  0  0  0  0
  186.5560  177.7780  143.3040 C   0  0  2  0  0  3  0  0  0  0  0  0
  184.7920  178.9970  142.5030 C   0  0  0  0  0  0  0  0  0  0  0  0
  187.6800  177.7710  144.3410 C   0  0  2  0  0  3  0  0  0  0  0  0
  182.5560  179.0330  143.3690 C   0  0  0  0  0  3  0  0  0  0  0  0
  185.7810  178.9670  141.4200 C   0  0  2  0  0  3  0  0  0  0  0  0
  184.1830  180.2200  139.0930 C   0  0  0  0  0  1  0  0  0  0  0  0
  184.8620  177.8640  146.1490 C   0  0  0  0  0  2  0  0  0  0  0  0
  183.0620  178.6280  144.6190 C   0  0  0  0  0  3  0  0  0  0  0  0
  185.1390  178.2010  140.2470 C   0  0  0  0  0  2  0  0  0  0  0  0
  189.1870  176.3550  142.8540 O   0  0  0  0  0  0  0  0  0  0  0  0
  189.6960  177.6330  143.2030 C   0  0  1  0  0  3  0  0  0  0  0  0
  184.4190  178.2820  144.7710 C   0  0  0  0  0  0  0  0  0  0  0  0
  187.0040  178.3990  142.0380 N   0  0  2  0  0  0  0  0  0  0  0  0
  182.9540  179.2040  140.9400 N   0  0  0  0  0  2  0  0  0  0  0  0
  187.3250  178.0880  145.7920 C   0  0  1  0  0  3  0  0  0  0  0  0
  183.1060  178.0240  138.8190 C   0  0  0  0  0  1  0  0  0  0  0  0
  189.2800  177.2810  141.8000 C   0  0  2  0  0  3  0  0  0  0  0  0
  187.8520  177.5050  141.2160 C   0  0  2  0  0  3  0  0  0  0  0  0
  186.2080  177.1560  146.2290 C   0  0  0  0  0  2  0  0  0  0  0  0
  188.6040  178.6270  147.8010 C   0  0  0  0  0  3  0  0  0  0  0  0
  188.5120  177.8860  146.6860 C   0  0  0  0  0  0  0  0  0  0  0  0
  189.4640  176.7360  146.4490 C   0  0  0  0  0  2  0  0  0  0  0  0
  192.0550  176.0020  146.7680 S   0  0  0  0  0  0  0  0  0  0  0  0
  190.7710  177.6830  148.4340 C   0  0  0  0  0  3  0  0  0  0  0  0
  190.7570  176.9050  147.1820 C   0  0  0  0  0  0  0  0  0  0  0  0
  189.7390  178.4820  148.7330 C   0  0  0  0  0  3  0  0  0  0  0  0
  188.0380  178.0770  139.7820 C   0  0  0  0  0  2  0  0  0  0  0  0
  188.6030  177.1280  138.7970 N   0  0  0  0  0  0  0  0  0  0  0  0
  187.0130  178.0910  137.3690 O   0  0  0  0  0  1  0  0  0  0  0  0
  187.6430  176.8930  137.7160 C   0  0  0  0  0  2  0  0  0  0  0  0
  189.8620  177.6540  138.2530 C   0  0  0  0  0  2  0  0  0  0  0  0
  190.8490  176.5330  137.9440 C   0  0  0  0  0  2  0  0  0  0  0  0
  190.8850  175.6280  139.0020 O   0  0  0  0  0  1  0  0  0  0  0  0
  1 13  1  0  0  0  0
  1 18  1  0  0  0  0
  2 16  1  0  0  0  0
  4  6  1  0  0  0  0
  4  8  2  0  0  0  0
  5  2  1  1  0  0  0
  5  7  1  0  0  0  0
  6  2  2  0  0  0  0
  7  3  1  6  0  0  0
  7 19  1  0  0  0  0
  8 12  1  0  0  0  0
  9 13  1  6  0  0  0
  9 17  1  0  0  0  0
  9  6  1  0  0  0  0
 10  1  1  0  0  0  0
 11 23  1  0  0  0  0
 12 16  2  0  0  0  0
 15 14  1  1  0  0  0
 15  3  1  0  0  0  0
 16 11  1  0  0  0  0
 17  5  1  0  0  0  0
 18  4  1  0  0  0  0
 19 23  1  0  0  0  0
 19 25  1  0  0  0  0
 20  1  1  0  0  0  0
 21 14  1  0  0  0  0
 21 15  1  0  0  0  0
 22 21  1  0  0  0  0
 22 17  1  0  0  0  0
 24 30  1  0  0  0  0
 25 24  2  0  0  0  0
 26 25  1  0  0  0  0
 26 29  1  0  0  0  0
 27 29  2  0  0  0  0
 28 30  2  0  0  0  0
 29 28  1  0  0  0  0
 31 22  1  0  0  0  0
 32 31  1  0  0  0  0
 33 34  1  0  0  0  0
 34 32  1  0  0  0  0
 35 32  1  0  0  0  0
 36 35  1  0  0  0  0
 36 37  1  0  0  0  0
M  END
>  <MODEL>
5

>  <REMARK>
 VINA RESULT:      -8.9      2.988      6.333
  Name = 
  6 active torsions:
  status: ('A' for Active; 'I' for Inactive)
    1  A    between atoms: C_1  and  N_4
    2  A    between atoms: C_1  and  C_27
    3  A    between atoms: N_4  and  C_12
    4  A    between atoms: N_4  and  C_37
    5  A    between atoms: C_8  and  C_12
    6  A    between atoms: C_23  and  C_30
                            x       y       z     vdW  Elec       q    Type
                         _______ _______ _______ _____ _____    ______ ____

>  <TORSDO>
F 6

$$$$
=
 OpenBabel11122411403D

 37 43  0  0  1  0  0  0  0  0999 V2000
  188.0730  177.7100  147.5020 C   0  0  0  0  0  0  0  0  0  0  0  0
  187.3200  177.8560  143.4260 C   0  0  0  0  0  0  0  0  0  0  0  0
  190.0040  176.7270  141.4660 O   0  0  0  0  0  0  0  0  0  0  0  0
  186.3590  177.7050  145.6260 C   0  0  0  0  0  0  0  0  0  0  0  0
  188.7310  178.0910  142.9850 C   0  0  2  0  0  3  0  0  0  0  0  0
  187.3870  177.4570  144.7270 C   0  0  0  0  0  0  0  0  0  0  0  0
  189.0850  177.7890  141.5280 C   0  0  2  0  0  3  0  0  0  0  0  0
  185.1360  178.1690  145.1410 C   0  0  0  0  0  3  0  0  0  0  0  0
  188.7570  177.1240  145.1370 C   0  0  2  0  0  3  0  0  0  0  0  0
  188.3390  176.3370  148.0940 C   0  0  0  0  0  1  0  0  0  0  0  0
  185.8550  178.6730  141.4480 C   0  0  0  0  0  2  0  0  0  0  0  0
  185.0000  178.4500  143.7680 C   0  0  0  0  0  3  0  0  0  0  0  0
  189.0850  178.0000  146.3610 C   0  0  0  0  0  2  0  0  0  0  0  0
  191.4840  178.5870  141.8350 O   0  0  0  0  0  0  0  0  0  0  0  0
  191.3340  177.2310  141.4450 C   0  0  1  0  0  3  0  0  0  0  0  0
  186.1050  178.3550  142.8990 C   0  0  0  0  0  0  0  0  0  0  0  0
  189.5740  177.3030  143.9110 N   0  0  2  0  0  0  0  0  0  0  0  0
  186.6820  177.7710  147.0220 N   0  0  0  0  0  2  0  0  0  0  0  0
  187.9460  177.6670  140.5190 C   0  0  1  0  0  3  0  0  0  0  0  0
  188.2640  178.7460  148.5920 C   0  0  0  0  0  1  0  0  0  0  0  0
  191.8430  177.6330  142.8030 C   0  0  2  0  0  3  0  0  0  0  0  0
  190.9440  177.8460  144.0590 C   0  0  2  0  0  3  0  0  0  0  0  0
  187.0940  178.9230  140.5990 C   0  0  0  0  0  2  0  0  0  0  0  0
  188.8820  178.6280  138.4790 C   0  0  0  0  0  3  0  0  0  0  0  0
  188.4810  177.5230  139.1260 C   0  0  0  0  0  0  0  0  0  0  0  0
  188.7600  176.1530  138.5500 C   0  0  0  0  0  2  0  0  0  0  0  0
  188.8430  174.7950  136.2040 S   0  0  0  0  0  0  0  0  0  0  0  0
  189.4290  177.4130  136.4260 C   0  0  0  0  0  3  0  0  0  0  0  0
  188.9270  176.1830  137.0630 C   0  0  0  0  0  0  0  0  0  0  0  0
  189.4250  178.5660  137.1080 C   0  0  0  0  0  3  0  0  0  0  0  0
  191.6810  177.1800  145.2560 C   0  0  0  0  0  2  0  0  0  0  0  0
  191.4460  175.7260  145.4050 N   0  0  0  0  0  0  0  0  0  0  0  0
  192.4900  173.7440  144.7180 O   0  0  0  0  0  1  0  0  0  0  0  0
  192.0550  175.0000  144.2890 C   0  0  0  0  0  2  0  0  0  0  0  0
  192.0000  175.2530  146.6810 C   0  0  0  0  0  2  0  0  0  0  0  0
  192.0500  176.3710  147.7180 C   0  0  0  0  0  2  0  0  0  0  0  0
  193.1660  176.2080  148.5360 O   0  0  0  0  0  1  0  0  0  0  0  0
  1 10  1  0  0  0  0
  1 20  1  0  0  0  0
  2  6  1  0  0  0  0
  4 18  1  0  0  0  0
  5  2  1  6  0  0  0
  5 17  1  0  0  0  0
  6  9  1  0  0  0  0
  6  4  2  0  0  0  0
  7  3  1  1  0  0  0
  7  5  1  0  0  0  0
  8  4  1  0  0  0  0
  9 13  1  1  0  0  0
 11 16  1  0  0  0  0
 12  8  2  0  0  0  0
 13  1  1  0  0  0  0
 14 21  1  0  0  0  0
 15  3  1  1  0  0  0
 15 14  1  0  0  0  0
 15 21  1  0  0  0  0
 16  2  2  0  0  0  0
 16 12  1  0  0  0  0
 17 22  1  0  0  0  0
 17  9  1  0  0  0  0
 18  1  1  0  0  0  0
 19 23  1  0  0  0  0
 19  7  1  0  0  0  0
 21 22  1  0  0  0  0
 22 31  1  0  0  0  0
 23 11  1  0  0  0  0
 24 25  2  0  0  0  0
 25 19  1  0  0  0  0
 26 25  1  0  0  0  0
 27 29  2  0  0  0  0
 28 29  1  0  0  0  0
 28 30  2  0  0  0  0
 29 26  1  0  0  0  0
 30 24  1  0  0  0  0
 31 32  1  0  0  0  0
 32 35  1  0  0  0  0
 34 33  1  0  0  0  0
 34 32  1  0  0  0  0
 35 36  1  0  0  0  0
 36 37  1  0  0  0  0
M  END
>  <MODEL>
6

>  <REMARK>
 VINA RESULT:      -8.7      3.277      6.779
  Name = 
  6 active torsions:
  status: ('A' for Active; 'I' for Inactive)
    1  A    between atoms: C_1  and  N_4
    2  A    between atoms: C_1  and  C_27
    3  A    between atoms: N_4  and  C_12
    4  A    between atoms: N_4  and  C_37
    5  A    between atoms: C_8  and  C_12
    6  A    between atoms: C_23  and  C_30
                            x       y       z     vdW  Elec       q    Type
                         _______ _______ _______ _____ _____    ______ ____

>  <TORSDO>
F 6

$$$$
=
 OpenBabel11122411403D

 37 43  0  0  1  0  0  0  0  0999 V2000
  189.0390  177.4490  136.6870 C   0  0  0  0  0  0  0  0  0  0  0  0
  189.8560  177.3930  140.7520 C   0  0  0  0  0  0  0  0  0  0  0  0
  186.9760  177.2810  142.7570 O   0  0  0  0  0  0  0  0  0  0  0  0
  190.6750  176.8890  138.5470 C   0  0  0  0  0  0  0  0  0  0  0  0
  188.6170  178.1040  141.2000 C   0  0  2  0  0  3  0  0  0  0  0  0
  189.6370  177.0210  139.4600 C   0  0  0  0  0  0  0  0  0  0  0  0
  188.2020  177.9630  142.6660 C   0  0  2  0  0  3  0  0  0  0  0  0
  191.9900  176.9140  139.0130 C   0  0  0  0  0  3  0  0  0  0  0  0
  188.2310  177.1700  139.0680 C   0  0  2  0  0  3  0  0  0  0  0  0
  188.3110  176.2410  136.1240 C   0  0  0  0  0  1  0  0  0  0  0  0
  191.5400  177.6920  142.7010 C   0  0  0  0  0  2  0  0  0  0  0  0
  192.2340  177.1540  140.3790 C   0  0  0  0  0  3  0  0  0  0  0  0
  188.2040  178.0860  137.8300 C   0  0  0  0  0  2  0  0  0  0  0  0
  186.2150  179.5280  142.3630 O   0  0  0  0  0  0  0  0  0  0  0  0
  185.8990  178.2090  142.7780 C   0  0  1  0  0  3  0  0  0  0  0  0
  191.1760  177.4560  141.2590 C   0  0  0  0  0  0  0  0  0  0  0  0
  187.5420  177.6370  140.2960 N   0  0  2  0  0  0  0  0  0  0  0  0
  190.3750  177.0400  137.1530 N   0  0  0  0  0  2  0  0  0  0  0  0
  189.2450  177.4750  143.6670 C   0  0  1  0  0  3  0  0  0  0  0  0
  189.1980  178.4710  135.5780 C   0  0  0  0  0  1  0  0  0  0  0  0
  185.5380  178.7390  141.4170 C   0  0  2  0  0  3  0  0  0  0  0  0
  186.4370  178.6120  140.1490 C   0  0  2  0  0  3  0  0  0  0  0  0
  190.4730  178.3630  143.5560 C   0  0  0  0  0  2  0  0  0  0  0  0
  189.4990  177.1270  146.0700 C   0  0  0  0  0  3  0  0  0  0  0  0
  188.7130  177.5450  145.0670 C   0  0  0  0  0  0  0  0  0  0  0  0
  187.4130  178.2620  145.3580 C   0  0  0  0  0  2  0  0  0  0  0  0
  185.3030  178.2580  147.0610 S   0  0  0  0  0  0  0  0  0  0  0  0
  187.7920  177.5240  147.7780 C   0  0  0  0  0  3  0  0  0  0  0  0
  186.8610  177.9170  146.7050 C   0  0  0  0  0  0  0  0  0  0  0  0
  189.0470  177.1700  147.4750 C   0  0  0  0  0  3  0  0  0  0  0  0
  185.5000  178.2190  138.9720 C   0  0  0  0  0  2  0  0  0  0  0  0
  184.0540  178.2530  139.2840 N   0  0  0  0  0  0  0  0  0  0  0  0
  184.1790  180.5800  139.0340 O   0  0  0  0  0  1  0  0  0  0  0  0
  183.4390  179.4450  138.6940 C   0  0  0  0  0  2  0  0  0  0  0  0
  183.3990  177.0400  138.7770 C   0  0  0  0  0  2  0  0  0  0  0  0
  182.5080  176.4010  139.8360 C   0  0  0  0  0  2  0  0  0  0  0  0
  181.1680  176.5930  139.5080 O   0  0  0  0  0  1  0  0  0  0  0  0
  1 18  1  0  0  0  0
  1 13  1  0  0  0  0
  2 16  1  0  0  0  0
  3 15  1  0  0  0  0
  4  8  2  0  0  0  0
  4  6  1  0  0  0  0
  5  2  1  1  0  0  0
  5  7  1  0  0  0  0
  6  2  2  0  0  0  0
  7  3  1  6  0  0  0
  7 19  1  0  0  0  0
  8 12  1  0  0  0  0
  9 13  1  6  0  0  0
  9  6  1  0  0  0  0
  9 17  1  0  0  0  0
 10  1  1  0  0  0  0
 11 23  1  0  0  0  0
 12 16  2  0  0  0  0
 15 14  1  1  0  0  0
 16 11  1  0  0  0  0
 17  5  1  0  0  0  0
 18  4  1  0  0  0  0
 19 25  1  0  0  0  0
 20  1  1  0  0  0  0
 21 14  1  0  0  0  0
 21 15  1  0  0  0  0
 22 17  1  0  0  0  0
 22 21  1  0  0  0  0
 23 19  1  0  0  0  0
 24 30  1  0  0  0  0
 25 26  1  0  0  0  0
 25 24  2  0  0  0  0
 26 29  1  0  0  0  0
 29 27  2  0  0  0  0
 29 28  1  0  0  0  0
 30 28  2  0  0  0  0
 31 32  1  0  0  0  0
 31 22  1  0  0  0  0
 34 33  1  0  0  0  0
 34 32  1  0  0  0  0
 35 32  1  0  0  0  0
 35 36  1  0  0  0  0
 37 36  1  0  0  0  0
M  END
>  <MODEL>
7

>  <REMARK>
 VINA RESULT:      -8.3      3.039      6.558
  Name = 
  6 active torsions:
  status: ('A' for Active; 'I' for Inactive)
    1  A    between atoms: C_1  and  N_4
    2  A    between atoms: C_1  and  C_27
    3  A    between atoms: N_4  and  C_12
    4  A    between atoms: N_4  and  C_37
    5  A    between atoms: C_8  and  C_12
    6  A    between atoms: C_23  and  C_30
                            x       y       z     vdW  Elec       q    Type
                         _______ _______ _______ _____ _____    ______ ____

>  <TORSDO>
F 6

$$$$
=
 OpenBabel11122411403D

 37 43  0  0  1  0  0  0  0  0999 V2000
  189.2590  177.6990  147.2720 C   0  0  0  0  0  0  0  0  0  0  0  0
  185.9140  178.0880  144.8530 C   0  0  0  0  0  0  0  0  0  0  0  0
  186.5790  177.5540  141.4470 O   0  0  0  0  0  0  0  0  0  0  0  0
  186.7300  177.6010  147.0620 C   0  0  0  0  0  0  0  0  0  0  0  0
  186.6250  178.5710  143.6270 C   0  0  2  0  0  3  0  0  0  0  0  0
  186.8740  177.5910  145.6820 C   0  0  0  0  0  0  0  0  0  0  0  0
  185.9000  178.4550  142.2860 C   0  0  2  0  0  3  0  0  0  0  0  0
  185.4850  177.9150  147.6080 C   0  0  0  0  0  3  0  0  0  0  0  0
  188.1670  177.4330  145.0050 C   0  0  2  0  0  3  0  0  0  0  0  0
  189.9280  176.3350  147.2920 C   0  0  0  0  0  1  0  0  0  0  0  0
  183.4540  178.8460  144.5400 C   0  0  0  0  0  2  0  0  0  0  0  0
  184.4320  178.2930  146.7540 C   0  0  0  0  0  3  0  0  0  0  0  0
  189.2000  178.2380  145.8170 C   0  0  0  0  0  2  0  0  0  0  0  0
  187.8140  179.5760  141.0340 O   0  0  0  0  0  0  0  0  0  0  0  0
  187.5060  178.2530  140.6260 C   0  0  1  0  0  3  0  0  0  0  0  0
  184.6450  178.4430  145.3690 C   0  0  0  0  0  0  0  0  0  0  0  0
  187.9120  177.8410  143.6010 N   0  0  2  0  0  0  0  0  0  0  0  0
  187.9170  177.5920  147.8670 N   0  0  0  0  0  2  0  0  0  0  0  0
  184.3870  178.2520  142.2990 C   0  0  1  0  0  3  0  0  0  0  0  0
  190.0930  178.6520  148.1050 C   0  0  0  0  0  1  0  0  0  0  0  0
  188.7860  178.6060  141.3350 C   0  0  2  0  0  3  0  0  0  0  0  0
  188.9820  178.5690  142.8800 C   0  0  2  0  0  3  0  0  0  0  0  0
  183.7600  179.3530  143.1370 C   0  0  0  0  0  2  0  0  0  0  0  0
  184.1400  179.3710  140.1430 C   0  0  0  0  0  3  0  0  0  0  0  0
  183.8300  178.3140  140.9090 C   0  0  0  0  0  0  0  0  0  0  0  0
  183.1160  177.1200  140.3150 C   0  0  0  0  0  2  0  0  0  0  0  0
  181.1780  176.4510  138.5400 S   0  0  0  0  0  0  0  0  0  0  0  0
  182.7550  178.6160  138.2720 C   0  0  0  0  0  3  0  0  0  0  0  0
  182.3200  177.4780  139.1000 C   0  0  0  0  0  0  0  0  0  0  0  0
  183.6340  179.4990  138.7620 C   0  0  0  0  0  3  0  0  0  0  0  0
  190.3710  177.9190  143.1420 C   0  0  0  0  0  2  0  0  0  0  0  0
  190.7490  176.8480  142.1940 N   0  0  0  0  0  0  0  0  0  0  0  0
  191.8890  177.4440  140.2340 O   0  0  0  0  0  1  0  0  0  0  0  0
  192.0500  177.1450  141.5890 C   0  0  0  0  0  2  0  0  0  0  0  0
  190.7950  175.5530  142.8860 C   0  0  0  0  0  2  0  0  0  0  0  0
  191.6940  175.6070  144.1170 C   0  0  0  0  0  2  0  0  0  0  0  0
  192.2690  174.3580  144.3390 O   0  0  0  0  0  1  0  0  0  0  0  0
  1 10  1  0  0  0  0
  1 18  1  0  0  0  0
  1 20  1  0  0  0  0
  2 16  2  0  0  0  0
  2  6  1  0  0  0  0
  4  8  1  0  0  0  0
  4 18  1  0  0  0  0
  5  2  1  1  0  0  0
  6  4  2  0  0  0  0
  7  3  1  1  0  0  0
  7 19  1  0  0  0  0
  7  5  1  0  0  0  0
  9  6  1  0  0  0  0
  9 13  1  1  0  0  0
 11 16  1  0  0  0  0
 12  8  2  0  0  0  0
 13  1  1  0  0  0  0
 14 21  1  0  0  0  0
 15 14  1  1  0  0  0
 15 21  1  0  0  0  0
 15  3  1  0  0  0  0
 16 12  1  0  0  0  0
 17  5  1  0  0  0  0
 17  9  1  0  0  0  0
 19 23  1  0  0  0  0
 21 22  1  0  0  0  0
 22 31  1  0  0  0  0
 22 17  1  0  0  0  0
 23 11  1  0  0  0  0
 24 25  2  0  0  0  0
 25 19  1  0  0  0  0
 26 25  1  0  0  0  0
 27 29  2  0  0  0  0
 28 30  2  0  0  0  0
 28 29  1  0  0  0  0
 29 26  1  0  0  0  0
 30 24  1  0  0  0  0
 32 35  1  0  0  0  0
 32 31  1  0  0  0  0
 33 34  1  0  0  0  0
 34 32  1  0  0  0  0
 35 36  1  0  0  0  0
 36 37  1  0  0  0  0
M  END
>  <MODEL>
8

>  <REMARK>
 VINA RESULT:      -8.2      2.237      3.515
  Name = 
  6 active torsions:
  status: ('A' for Active; 'I' for Inactive)
    1  A    between atoms: C_1  and  N_4
    2  A    between atoms: C_1  and  C_27
    3  A    between atoms: N_4  and  C_12
    4  A    between atoms: N_4  and  C_37
    5  A    between atoms: C_8  and  C_12
    6  A    between atoms: C_23  and  C_30
                            x       y       z     vdW  Elec       q    Type
                         _______ _______ _______ _____ _____    ______ ____

>  <TORSDO>
F 6

$$$$
=
 OpenBabel11122411403D

 37 43  0  0  1  0  0  0  0  0999 V2000
  190.8130  177.2990  142.4680 C   0  0  0  0  0  0  0  0  0  0  0  0
  187.5730  178.1990  140.0410 C   0  0  0  0  0  0  0  0  0  0  0  0
  184.9310  179.7520  141.7530 O   0  0  0  0  0  0  0  0  0  0  0  0
  189.9430  177.8010  140.1350 C   0  0  0  0  0  0  0  0  0  0  0  0
  186.5130  178.0650  141.0890 C   0  0  2  0  0  3  0  0  0  0  0  0
  188.7620  178.2550  140.7040 C   0  0  0  0  0  0  0  0  0  0  0  0
  185.1570  178.7220  140.8250 C   0  0  2  0  0  3  0  0  0  0  0  0
  189.9610  177.4910  138.7740 C   0  0  0  0  0  3  0  0  0  0  0  0
  188.5850  178.4550  142.1470 C   0  0  2  0  0  3  0  0  0  0  0  0
  191.5140  178.4740  143.1280 C   0  0  0  0  0  1  0  0  0  0  0  0
  186.3220  177.9280  137.7860 C   0  0  0  0  0  2  0  0  0  0  0  0
  188.7660  177.5680  138.0330 C   0  0  0  0  0  3  0  0  0  0  0  0
  189.3100  177.2930  142.8540 C   0  0  0  0  0  2  0  0  0  0  0  0
  184.1850  177.8400  143.0080 O   0  0  0  0  0  0  0  0  0  0  0  0
  184.2130  179.2530  142.8750 C   0  0  1  0  0  3  0  0  0  0  0  0
  187.5420  177.8660  138.6660 C   0  0  0  0  0  0  0  0  0  0  0  0
  187.1190  178.5810  142.3360 N   0  0  2  0  0  0  0  0  0  0  0  0
  190.9990  177.3790  141.0090 N   0  0  0  0  0  2  0  0  0  0  0  0
  184.8120  179.1100  139.3890 C   0  0  1  0  0  3  0  0  0  0  0  0
  191.4460  176.0180  142.9750 C   0  0  0  0  0  1  0  0  0  0  0  0
  185.0780  178.5130  143.8590 C   0  0  2  0  0  3  0  0  0  0  0  0
  186.5210  178.0010  143.5610 C   0  0  2  0  0  3  0  0  0  0  0  0
  184.9800  177.8860  138.5040 C   0  0  0  0  0  2  0  0  0  0  0  0
  183.1660  180.7850  138.7200 C   0  0  0  0  0  3  0  0  0  0  0  0
  183.3960  179.5950  139.2950 C   0  0  0  0  0  0  0  0  0  0  0  0
  182.2470  178.6760  139.6440 C   0  0  0  0  0  2  0  0  0  0  0  0
  179.7110  178.6930  140.6050 S   0  0  0  0  0  0  0  0  0  0  0  0
  180.7560  180.6930  139.1370 C   0  0  0  0  0  3  0  0  0  0  0  0
  180.9650  179.4200  139.8500 C   0  0  0  0  0  0  0  0  0  0  0  0
  181.7990  181.3260  138.5850 C   0  0  0  0  0  3  0  0  0  0  0  0
  187.3820  178.3330  144.8130 C   0  0  0  0  0  2  0  0  0  0  0  0
  187.5940  177.2030  145.7440 N   0  0  0  0  0  0  0  0  0  0  0  0
  189.1150  176.7390  147.4660 O   0  0  0  0  0  1  0  0  0  0  0  0
  189.0060  177.1230  146.1280 C   0  0  0  0  0  2  0  0  0  0  0  0
  186.7520  177.3660  146.9370 C   0  0  0  0  0  2  0  0  0  0  0  0
  186.3170  178.8160  147.1210 C   0  0  0  0  0  2  0  0  0  0  0  0
  184.9290  178.8850  147.2180 O   0  0  0  0  0  1  0  0  0  0  0  0
  1 13  1  0  0  0  0
  1 20  1  0  0  0  0
  1 10  1  0  0  0  0
  2  6  1  0  0  0  0
  4  6  2  0  0  0  0
  4 18  1  0  0  0  0
  5  2  1  6  0  0  0
  5 17  1  0  0  0  0
  6  9  1  0  0  0  0
  7  5  1  0  0  0  0
  7  3  1  1  0  0  0
  8  4  1  0  0  0  0
  9 17  1  0  0  0  0
  9 13  1  1  0  0  0
 11 23  1  0  0  0  0
 11 16  1  0  0  0  0
 12 16  1  0  0  0  0
 12  8  2  0  0  0  0
 14 21  1  0  0  0  0
 15  3  1  6  0  0  0
 15 14  1  0  0  0  0
 15 21  1  0  0  0  0
 16  2  2  0  0  0  0
 17 22  1  0  0  0  0
 18  1  1  0  0  0  0
 19  7  1  0  0  0  0
 22 21  1  0  0  0  0
 22 31  1  0  0  0  0
 23 19  1  0  0  0  0
 24 25  2  0  0  0  0
 25 19  1  0  0  0  0
 25 26  1  0  0  0  0
 26 29  1  0  0  0  0
 28 29  1  0  0  0  0
 29 27  2  0  0  0  0
 30 24  1  0  0  0  0
 30 28  2  0  0  0  0
 31 32  1  0  0  0  0
 32 34  1  0  0  0  0
 32 35  1  0  0  0  0
 34 33  1  0  0  0  0
 35 36  1  0  0  0  0
 36 37  1  0  0  0  0
M  END
>  <MODEL>
9

>  <REMARK>
 VINA RESULT:      -8.1      2.303      5.638
  Name = 
  6 active torsions:
  status: ('A' for Active; 'I' for Inactive)
    1  A    between atoms: C_1  and  N_4
    2  A    between atoms: C_1  and  C_27
    3  A    between atoms: N_4  and  C_12
    4  A    between atoms: N_4  and  C_37
    5  A    between atoms: C_8  and  C_12
    6  A    between atoms: C_23  and  C_30
                            x       y       z     vdW  Elec       q    Type
                         _______ _______ _______ _____ _____    ______ ____

>  <TORSDO>
F 6

$$$$
