=
 OpenBabel11122410503D

 32 37  0  0  1  0  0  0  0  0999 V2000
  191.9770  177.2450  142.4520 C   0  0  0  0  0  2  0  0  0  0  0  0
  186.6140  177.9770  141.1890 C   0  0  2  0  0  3  0  0  0  0  0  0
  184.6180  178.4680  145.6780 C   0  0  0  0  0  2  0  0  0  0  0  0
  183.4010  179.1600  145.0770 C   0  0  0  0  0  2  0  0  0  0  0  0
  185.1490  178.1630  139.0930 C   0  0  1  0  0  3  0  0  0  0  0  0
  183.7600  178.5400  138.5570 C   0  0  1  0  0  3  0  0  0  0  0  0
  189.0300  177.2370  140.9640 C   0  0  2  0  0  3  0  0  0  0  0  0
  187.9950  177.8150  143.2240 C   0  0  0  0  0  2  0  0  0  0  0  0
  182.1200  177.2090  139.8460 C   0  0  2  0  0  3  0  0  0  0  0  0
  189.8290  176.0430  143.1290 C   0  0  0  0  0  2  0  0  0  0  0  0
  185.8520  178.7540  144.8270 C   0  0  0  0  0  2  0  0  0  0  0  0
  186.8410  178.4770  142.5660 N   0  0  2  0  0  0  0  0  0  0  0  0
  185.6440  178.2440  143.3910 C   0  0  2  0  0  3  0  0  0  0  0  0
  184.1890  178.5240  141.3640 C   0  0  1  0  0  3  0  0  0  0  0  0
  181.9490  176.6040  138.4700 C   0  0  0  0  0  2  0  0  0  0  0  0
  191.4560  177.1050  141.0920 N   0  0  0  0  0  2  0  0  0  0  0  0
  188.6830  176.7330  142.3800 C   0  0  2  0  0  3  0  0  0  0  0  0
  183.2280  177.2770  137.3550 S   0  0  0  0  0  0  0  0  0  0  0  0
  190.3390  178.0180  140.8990 C   0  0  0  0  0  2  0  0  0  0  0  0
  190.9160  177.0380  143.5410 C   0  0  1  0  0  3  0  0  0  0  0  0
  183.1860  178.6860  143.6440 C   0  0  0  0  0  2  0  0  0  0  0  0
  184.4280  178.9740  142.7970 C   0  0  1  0  0  3  0  0  0  0  0  0
  183.1120  179.2450  140.8160 O   0  0  0  0  0  0  0  0  0  0  0  0
  187.9130  178.1050  140.3860 C   0  0  0  0  0  2  0  0  0  0  0  0
  186.1730  178.6710  138.0890 C   0  0  0  0  0  1  0  0  0  0  0  0
  180.7780  177.2800  140.5470 C   0  0  0  0  0  1  0  0  0  0  0  0
  185.4420  178.7180  140.5050 C   0  0  1  0  0  3  0  0  0  0  0  0
  182.6840  178.6020  139.6350 C   0  0  1  0  0  3  0  0  0  0  0  0
  191.5650  176.5940  144.7650 N   0  0  0  0  0  2  0  0  0  0  0  0
  191.0850  176.9490  146.0640 C   0  0  0  0  0  0  0  0  0  0  0  0
  191.7540  176.4600  147.2190 N   0  0  0  0  0  1  0  0  0  0  0  0
  190.0800  177.6970  146.1940 O   0  0  0  0  0  0  0  0  0  0  0  0
  1 20  1  0  0  0  0
  2 24  1  6  0  0  0
  2 12  1  0  0  0  0
  4  3  1  0  0  0  0
  5 25  1  6  0  0  0
  5 27  1  0  0  0  0
  6 18  1  6  0  0  0
  6  5  1  0  0  0  0
  6 28  1  0  0  0  0
  7 24  1  1  0  0  0
  7 17  1  0  0  0  0
  9 26  1  6  0  0  0
 10 20  1  0  0  0  0
 11  3  1  0  0  0  0
 12  8  1  1  0  0  0
 12 13  1  0  0  0  0
 13 11  1  1  0  0  0
 14 23  1  6  0  0  0
 14 22  1  0  0  0  0
 15  9  1  0  0  0  0
 16  1  1  0  0  0  0
 17 10  1  1  0  0  0
 17  8  1  0  0  0  0
 18 15  1  0  0  0  0
 19  7  1  0  0  0  0
 19 16  1  0  0  0  0
 20 29  1  1  0  0  0
 21  4  1  0  0  0  0
 22 13  1  0  0  0  0
 22 21  1  1  0  0  0
 27  2  1  0  0  0  0
 27 14  1  0  0  0  0
 28  9  1  0  0  0  0
 28 23  1  0  0  0  0
 29 30  1  0  0  0  0
 30 32  2  0  0  0  0
 30 31  1  0  0  0  0
M  END
>  <MODEL>
1

>  <REMARK>
 VINA RESULT:      -9.3      0.000      0.000
  Name = 
  1 active torsions:
  status: ('A' for Active; 'I' for Inactive)
    1  A    between atoms: C_20  and  N_29
                            x       y       z     vdW  Elec       q    Type
                         _______ _______ _______ _____ _____    ______ ____

>  <TORSDO>
F 1

$$$$
=
 OpenBabel11122410503D

 32 37  0  0  1  0  0  0  0  0999 V2000
  189.3180  178.0480  146.3120 C   0  0  0  0  0  2  0  0  0  0  0  0
  189.6230  177.2680  140.8170 C   0  0  2  0  0  3  0  0  0  0  0  0
  185.0320  178.4250  139.4180 C   0  0  0  0  0  2  0  0  0  0  0  0
  185.5120  178.6660  137.9910 C   0  0  0  0  0  2  0  0  0  0  0  0
  191.3800  176.6030  139.0730 C   0  0  1  0  0  3  0  0  0  0  0  0
  191.6980  176.5250  137.5720 C   0  0  1  0  0  3  0  0  0  0  0  0
  190.1600  177.0340  143.2860 C   0  0  2  0  0  3  0  0  0  0  0  0
  187.9120  177.9210  142.4670 C   0  0  0  0  0  2  0  0  0  0  0  0
  189.8620  175.2390  136.5260 C   0  0  2  0  0  3  0  0  0  0  0  0
  187.9940  176.6200  144.6610 C   0  0  0  0  0  2  0  0  0  0  0  0
  186.1500  178.7480  140.4040 C   0  0  0  0  0  2  0  0  0  0  0  0
  188.4530  178.1330  141.1020 N   0  0  2  0  0  0  0  0  0  0  0  0
  187.3780  177.8620  140.1320 C   0  0  2  0  0  3  0  0  0  0  0  0
  189.0910  177.3060  138.3830 C   0  0  1  0  0  3  0  0  0  0  0  0
  191.0200  174.2870  136.3220 C   0  0  0  0  0  2  0  0  0  0  0  0
  190.4890  177.4630  145.6580 N   0  0  0  0  0  2  0  0  0  0  0  0
  188.6300  176.8380  143.2830 C   0  0  2  0  0  3  0  0  0  0  0  0
  192.4810  174.9180  137.2160 S   0  0  0  0  0  0  0  0  0  0  0  0
  190.6440  178.0360  144.3280 C   0  0  0  0  0  2  0  0  0  0  0  0
  188.0220  177.8960  145.5040 C   0  0  1  0  0  3  0  0  0  0  0  0
  186.7430  177.8130  137.7040 C   0  0  0  0  0  2  0  0  0  0  0  0
  187.8590  178.1410  138.6990 C   0  0  1  0  0  3  0  0  0  0  0  0
  189.5540  177.6170  137.0920 O   0  0  0  0  0  0  0  0  0  0  0  0
  190.6750  177.4680  141.9130 C   0  0  0  0  0  2  0  0  0  0  0  0
  192.6500  177.0520  139.7800 C   0  0  0  0  0  1  0  0  0  0  0  0
  188.9400  175.1920  135.3240 C   0  0  0  0  0  1  0  0  0  0  0  0
  190.2010  177.5430  139.4100 C   0  0  1  0  0  3  0  0  0  0  0  0
  190.4660  176.6220  136.6800 C   0  0  1  0  0  3  0  0  0  0  0  0
  186.8850  177.9230  146.4110 N   0  0  0  0  0  2  0  0  0  0  0  0
  185.6430  178.5430  146.0710 C   0  0  0  0  0  0  0  0  0  0  0  0
  184.5640  178.5120  146.9970 N   0  0  0  0  0  1  0  0  0  0  0  0
  185.4970  179.1230  144.9620 O   0  0  0  0  0  0  0  0  0  0  0  0
  2 12  1  0  0  0  0
  2 24  1  1  0  0  0
  3 11  1  0  0  0  0
  4  3  1  0  0  0  0
  5 27  1  0  0  0  0
  5 25  1  1  0  0  0
  6 18  1  1  0  0  0
  6  5  1  0  0  0  0
  7 24  1  6  0  0  0
  7 19  1  0  0  0  0
  9 26  1  6  0  0  0
  9 28  1  0  0  0  0
 10 20  1  0  0  0  0
 12  8  1  1  0  0  0
 13 11  1  1  0  0  0
 13 12  1  0  0  0  0
 14 23  1  6  0  0  0
 14 22  1  0  0  0  0
 14 27  1  0  0  0  0
 15  9  1  0  0  0  0
 15 18  1  0  0  0  0
 16  1  1  0  0  0  0
 17  8  1  1  0  0  0
 17  7  1  0  0  0  0
 17 10  1  0  0  0  0
 19 16  1  0  0  0  0
 20  1  1  0  0  0  0
 20 29  1  1  0  0  0
 21  4  1  0  0  0  0
 22 21  1  6  0  0  0
 22 13  1  0  0  0  0
 27  2  1  0  0  0  0
 28 23  1  0  0  0  0
 28  6  1  0  0  0  0
 30 29  1  0  0  0  0
 30 31  1  0  0  0  0
 32 30  2  0  0  0  0
M  END
>  <MODEL>
2

>  <REMARK>
 VINA RESULT:      -9.2      3.484      6.014
  Name = 
  1 active torsions:
  status: ('A' for Active; 'I' for Inactive)
    1  A    between atoms: C_20  and  N_29
                            x       y       z     vdW  Elec       q    Type
                         _______ _______ _______ _____ _____    ______ ____

>  <TORSDO>
F 1

$$$$
=
 OpenBabel11122410503D

 32 37  0  0  1  0  0  0  0  0999 V2000
  191.1140  177.5070  144.8600 C   0  0  0  0  0  2  0  0  0  0  0  0
  188.6800  177.3930  139.8650 C   0  0  2  0  0  3  0  0  0  0  0  0
  184.1410  178.9960  140.9600 C   0  0  0  0  0  2  0  0  0  0  0  0
  183.9100  179.3810  139.5040 C   0  0  0  0  0  2  0  0  0  0  0  0
  189.3090  176.8400  137.4410 C   0  0  1  0  0  3  0  0  0  0  0  0
  188.8640  176.9280  135.9730 C   0  0  1  0  0  3  0  0  0  0  0  0
  190.2950  176.8230  141.7370 C   0  0  2  0  0  3  0  0  0  0  0  0
  188.0450  177.9430  142.1820 C   0  0  0  0  0  2  0  0  0  0  0  0
  186.6180  175.8970  135.8520 C   0  0  2  0  0  3  0  0  0  0  0  0
  189.0120  176.3790  143.9520 C   0  0  0  0  0  2  0  0  0  0  0  0
  185.6220  179.1250  141.3030 C   0  0  0  0  0  2  0  0  0  0  0  0
  187.8930  178.2870  140.7470 N   0  0  2  0  0  0  0  0  0  0  0  0
  186.4630  178.2050  140.4020 C   0  0  2  0  0  3  0  0  0  0  0  0
  187.0630  177.7640  138.0040 C   0  0  1  0  0  3  0  0  0  0  0  0
  187.4230  174.9070  135.0390 C   0  0  0  0  0  2  0  0  0  0  0  0
  191.7580  176.9350  143.6770 N   0  0  0  0  0  2  0  0  0  0  0  0
  188.9360  176.7240  142.4600 C   0  0  2  0  0  3  0  0  0  0  0  0
  189.1950  175.3320  135.1590 S   0  0  0  0  0  0  0  0  0  0  0  0
  191.3260  177.6570  142.4890 C   0  0  0  0  0  2  0  0  0  0  0  0
  189.5820  177.5370  144.7720 C   0  0  1  0  0  3  0  0  0  0  0  0
  184.7500  178.4950  138.5910 C   0  0  0  0  0  2  0  0  0  0  0  0
  186.2340  178.6280  138.9420 C   0  0  1  0  0  3  0  0  0  0  0  0
  186.8890  178.2020  136.6790 O   0  0  0  0  0  0  0  0  0  0  0  0
  190.1410  177.3900  140.3250 C   0  0  0  0  0  2  0  0  0  0  0  0
  190.8030  177.1190  137.4770 C   0  0  0  0  0  1  0  0  0  0  0  0
  185.2370  176.0560  135.2480 C   0  0  0  0  0  1  0  0  0  0  0  0
  188.5470  177.8030  138.3800 C   0  0  1  0  0  3  0  0  0  0  0  0
  187.3760  177.2110  135.8010 C   0  0  1  0  0  3  0  0  0  0  0  0
  189.0240  177.5230  146.1160 N   0  0  0  0  0  2  0  0  0  0  0  0
  187.6670  177.8800  146.3900 C   0  0  0  0  0  0  0  0  0  0  0  0
  187.1800  177.8200  147.7250 N   0  0  0  0  0  1  0  0  0  0  0  0
  186.9010  178.2530  145.4620 O   0  0  0  0  0  0  0  0  0  0  0  0
  2 24  1  1  0  0  0
  2 12  1  0  0  0  0
  3 11  1  0  0  0  0
  4  3  1  0  0  0  0
  5 25  1  6  0  0  0
  5 27  1  0  0  0  0
  6 18  1  6  0  0  0
  6  5  1  0  0  0  0
  7 24  1  6  0  0  0
  7 17  1  0  0  0  0
  7 19  1  0  0  0  0
  9 26  1  6  0  0  0
 10 20  1  0  0  0  0
 12  8  1  1  0  0  0
 13 12  1  0  0  0  0
 13 11  1  1  0  0  0
 14 23  1  6  0  0  0
 14 27  1  0  0  0  0
 14 22  1  0  0  0  0
 15 18  1  0  0  0  0
 15  9  1  0  0  0  0
 16  1  1  0  0  0  0
 17  8  1  1  0  0  0
 17 10  1  0  0  0  0
 19 16  1  0  0  0  0
 20  1  1  0  0  0  0
 20 29  1  1  0  0  0
 21  4  1  0  0  0  0
 22 21  1  6  0  0  0
 22 13  1  0  0  0  0
 27  2  1  0  0  0  0
 28  9  1  0  0  0  0
 28  6  1  0  0  0  0
 28 23  1  0  0  0  0
 29 30  1  0  0  0  0
 30 31  1  0  0  0  0
 32 30  2  0  0  0  0
M  END
>  <MODEL>
3

>  <REMARK>
 VINA RESULT:      -9.0      2.840      4.272
  Name = 
  1 active torsions:
  status: ('A' for Active; 'I' for Inactive)
    1  A    between atoms: C_20  and  N_29
                            x       y       z     vdW  Elec       q    Type
                         _______ _______ _______ _____ _____    ______ ____

>  <TORSDO>
F 1

$$$$
=
 OpenBabel11122410503D

 32 37  0  0  1  0  0  0  0  0999 V2000
  190.3210  178.1240  144.5380 C   0  0  0  0  0  2  0  0  0  0  0  0
  185.9270  178.0980  141.1340 C   0  0  2  0  0  3  0  0  0  0  0  0
  182.2230  178.7720  144.3280 C   0  0  0  0  0  2  0  0  0  0  0  0
  181.3200  179.2570  143.2000 C   0  0  0  0  0  2  0  0  0  0  0  0
  185.4530  177.9120  138.6210 C   0  0  1  0  0  3  0  0  0  0  0  0
  184.3880  178.0700  137.5250 C   0  0  1  0  0  3  0  0  0  0  0  0
  188.2630  177.6290  142.0040 C   0  0  2  0  0  3  0  0  0  0  0  0
  186.3480  178.2920  143.5540 C   0  0  0  0  0  2  0  0  0  0  0  0
  182.4570  176.6840  138.2110 C   0  0  2  0  0  3  0  0  0  0  0  0
  188.1730  176.7470  144.4460 C   0  0  0  0  0  2  0  0  0  0  0  0
  183.6750  179.1200  144.0160 C   0  0  0  0  0  2  0  0  0  0  0  0
  185.5280  178.7490  142.4050 N   0  0  2  0  0  0  0  0  0  0  0  0
  184.1150  178.4560  142.7010 C   0  0  2  0  0  3  0  0  0  0  0  0
  183.6150  178.3710  140.2420 C   0  0  1  0  0  3  0  0  0  0  0  0
  182.9120  175.9360  136.9770 C   0  0  0  0  0  2  0  0  0  0  0  0
  190.4220  177.7950  143.1150 N   0  0  0  0  0  2  0  0  0  0  0  0
  187.3960  177.2240  143.2140 C   0  0  2  0  0  3  0  0  0  0  0  0
  184.4890  176.6460  136.3930 S   0  0  0  0  0  0  0  0  0  0  0  0
  189.4240  178.5490  142.3670 C   0  0  0  0  0  2  0  0  0  0  0  0
  188.9210  177.8970  145.1230 C   0  0  1  0  0  3  0  0  0  0  0  0
  181.7500  178.6280  141.8800 C   0  0  0  0  0  2  0  0  0  0  0  0
  183.2080  178.9790  141.5760 C   0  0  1  0  0  3  0  0  0  0  0  0
  182.8160  178.9050  139.2150 O   0  0  0  0  0  0  0  0  0  0  0  0
  187.4290  178.3020  140.9130 C   0  0  0  0  0  2  0  0  0  0  0  0
  186.7620  178.4400  138.0570 C   0  0  0  0  0  1  0  0  0  0  0  0
  180.9430  176.6620  138.2950 C   0  0  0  0  0  1  0  0  0  0  0  0
  185.0950  178.6280  139.9430 C   0  0  1  0  0  3  0  0  0  0  0  0
  182.9610  178.1070  138.0600 C   0  0  1  0  0  3  0  0  0  0  0  0
  189.0330  177.6500  146.5530 N   0  0  0  0  0  2  0  0  0  0  0  0
  187.9540  177.8780  147.4610 C   0  0  0  0  0  0  0  0  0  0  0  0
  188.1250  177.5920  148.8430 N   0  0  0  0  0  1  0  0  0  0  0  0
  186.8540  178.3360  147.0500 O   0  0  0  0  0  0  0  0  0  0  0  0
  1 20  1  0  0  0  0
  2 24  1  6  0  0  0
  2 12  1  0  0  0  0
  4  3  1  0  0  0  0
  5 25  1  6  0  0  0
  5 27  1  0  0  0  0
  6 18  1  6  0  0  0
  6 28  1  0  0  0  0
  6  5  1  0  0  0  0
  7 24  1  6  0  0  0
  7 19  1  0  0  0  0
  7 17  1  0  0  0  0
  9 26  1  6  0  0  0
 10 20  1  0  0  0  0
 11  3  1  0  0  0  0
 12 13  1  0  0  0  0
 12  8  1  1  0  0  0
 13 11  1  1  0  0  0
 14 23  1  6  0  0  0
 14 22  1  0  0  0  0
 15  9  1  0  0  0  0
 16  1  1  0  0  0  0
 17  8  1  1  0  0  0
 17 10  1  0  0  0  0
 18 15  1  0  0  0  0
 19 16  1  0  0  0  0
 20 29  1  1  0  0  0
 21  4  1  0  0  0  0
 22 21  1  1  0  0  0
 22 13  1  0  0  0  0
 27 14  1  0  0  0  0
 27  2  1  0  0  0  0
 28  9  1  0  0  0  0
 28 23  1  0  0  0  0
 29 30  1  0  0  0  0
 30 31  1  0  0  0  0
 32 30  2  0  0  0  0
M  END
>  <MODEL>
4

>  <REMARK>
 VINA RESULT:      -8.8      1.783      2.154
  Name = 
  1 active torsions:
  status: ('A' for Active; 'I' for Inactive)
    1  A    between atoms: C_20  and  N_29
                            x       y       z     vdW  Elec       q    Type
                         _______ _______ _______ _____ _____    ______ ____

>  <TORSDO>
F 1

$$$$
=
 OpenBabel11122410503D

 32 37  0  0  1  0  0  0  0  0999 V2000
  192.2980  174.9170  135.3200 C   0  0  0  0  0  2  0  0  0  0  0  0
  188.6460  177.2130  138.8250 C   0  0  2  0  0  3  0  0  0  0  0  0
  191.2320  177.2520  143.0310 C   0  0  0  0  0  2  0  0  0  0  0  0
  190.3220  178.3360  143.5970 C   0  0  0  0  0  2  0  0  0  0  0  0
  186.2760  178.1880  138.7530 C   0  0  1  0  0  3  0  0  0  0  0  0
  185.2250  179.0030  139.5220 C   0  0  1  0  0  3  0  0  0  0  0  0
  189.5430  175.9540  136.8130 C   0  0  2  0  0  3  0  0  0  0  0  0
  190.9310  176.2940  138.9270 C   0  0  0  0  0  2  0  0  0  0  0  0
  184.9320  177.8890  141.7120 C   0  0  2  0  0  3  0  0  0  0  0  0
  191.2920  174.1780  137.5470 C   0  0  0  0  0  2  0  0  0  0  0  0
  191.3220  177.3890  141.5140 C   0  0  0  0  0  2  0  0  0  0  0  0
  190.0020  177.3450  139.4110 N   0  0  2  0  0  0  0  0  0  0  0  0
  189.9280  177.2550  140.8800 C   0  0  2  0  0  3  0  0  0  0  0  0
  187.6460  178.3020  140.8320 C   0  0  1  0  0  3  0  0  0  0  0  0
  183.5750  177.6440  141.0910 C   0  0  0  0  0  2  0  0  0  0  0  0
  190.9100  175.1950  134.9490 N   0  0  0  0  0  2  0  0  0  0  0  0
  190.3050  175.2730  137.9690 C   0  0  2  0  0  3  0  0  0  0  0  0
  183.6040  178.1890  139.3490 S   0  0  0  0  0  0  0  0  0  0  0  0
  190.4420  176.3780  135.6570 C   0  0  0  0  0  2  0  0  0  0  0  0
  192.5120  174.7620  136.8320 C   0  0  1  0  0  3  0  0  0  0  0  0
  188.9370  178.2360  142.9670 C   0  0  0  0  0  2  0  0  0  0  0  0
  189.0370  178.3720  141.4450 C   0  0  1  0  0  3  0  0  0  0  0  0
  186.8630  179.3660  141.3130 O   0  0  0  0  0  0  0  0  0  0  0  0
  188.7600  177.1750  137.2980 C   0  0  0  0  0  2  0  0  0  0  0  0
  186.2030  178.6190  137.2960 C   0  0  0  0  0  1  0  0  0  0  0  0
  184.7780  178.1470  143.1980 C   0  0  0  0  0  1  0  0  0  0  0  0
  187.7120  178.3480  139.3030 C   0  0  1  0  0  3  0  0  0  0  0  0
  185.5070  179.1090  141.0170 C   0  0  1  0  0  3  0  0  0  0  0  0
  193.6790  173.9270  137.0690 N   0  0  0  0  0  2  0  0  0  0  0  0
  194.7240  174.3010  137.9700 C   0  0  0  0  0  0  0  0  0  0  0  0
  195.8260  173.4260  138.1720 N   0  0  0  0  0  1  0  0  0  0  0  0
  194.6800  175.4020  138.5820 O   0  0  0  0  0  0  0  0  0  0  0  0
  1 20  1  0  0  0  0
  2 24  1  6  0  0  0
  2 27  1  0  0  0  0
  2 12  1  0  0  0  0
  3  4  1  0  0  0  0
  5 25  1  6  0  0  0
  5 27  1  0  0  0  0
  5  6  1  0  0  0  0
  6 18  1  1  0  0  0
  6 28  1  0  0  0  0
  7 19  1  6  0  0  0
  7 24  1  0  0  0  0
  7 17  1  0  0  0  0
  9 26  1  1  0  0  0
 11  3  1  0  0  0  0
 12  8  1  6  0  0  0
 12 13  1  0  0  0  0
 13 22  1  0  0  0  0
 13 11  1  1  0  0  0
 14 23  1  1  0  0  0
 14 22  1  0  0  0  0
 15  9  1  0  0  0  0
 16  1  1  0  0  0  0
 16 19  1  0  0  0  0
 17 10  1  6  0  0  0
 17  8  1  0  0  0  0
 18 15  1  0  0  0  0
 20 29  1  6  0  0  0
 20 10  1  0  0  0  0
 21  4  1  0  0  0  0
 22 21  1  1  0  0  0
 27 14  1  0  0  0  0
 28 23  1  0  0  0  0
 28  9  1  0  0  0  0
 29 30  1  0  0  0  0
 30 31  1  0  0  0  0
 30 32  2  0  0  0  0
M  END
>  <MODEL>
5

>  <REMARK>
 VINA RESULT:      -7.9      3.790      5.619
  Name = 
  1 active torsions:
  status: ('A' for Active; 'I' for Inactive)
    1  A    between atoms: C_20  and  N_29
                            x       y       z     vdW  Elec       q    Type
                         _______ _______ _______ _____ _____    ______ ____

>  <TORSDO>
F 1

$$$$
=
 OpenBabel11122410503D

 32 37  0  0  1  0  0  0  0  0999 V2000
  191.2700  177.4270  146.4820 C   0  0  0  0  0  2  0  0  0  0  0  0
  189.2620  177.3550  141.3000 C   0  0  2  0  0  3  0  0  0  0  0  0
  184.6580  178.9850  142.0220 C   0  0  0  0  0  2  0  0  0  0  0  0
  184.5520  179.3780  140.5530 C   0  0  0  0  0  2  0  0  0  0  0  0
  190.0880  176.8110  138.9340 C   0  0  1  0  0  3  0  0  0  0  0  0
  189.7680  176.9100  137.4350 C   0  0  1  0  0  3  0  0  0  0  0  0
  190.7110  176.7650  143.2970 C   0  0  2  0  0  3  0  0  0  0  0  0
  188.4400  177.8980  143.5590 C   0  0  0  0  0  2  0  0  0  0  0  0
  187.5330  175.8950  137.1210 C   0  0  2  0  0  3  0  0  0  0  0  0
  189.2440  176.3180  145.3950 C   0  0  0  0  0  2  0  0  0  0  0  0
  186.1060  179.1010  142.4880 C   0  0  0  0  0  2  0  0  0  0  0  0
  188.4100  178.2510  142.1180 N   0  0  2  0  0  0  0  0  0  0  0  0
  187.0130  178.1800  141.6550 C   0  0  2  0  0  3  0  0  0  0  0  0
  187.8090  177.7470  139.3130 C   0  0  1  0  0  3  0  0  0  0  0  0
  188.3970  174.9040  136.3720 C   0  0  0  0  0  2  0  0  0  0  0  0
  192.0080  176.8570  145.3540 N   0  0  0  0  0  2  0  0  0  0  0  0
  189.2960  176.6720  143.9040 C   0  0  2  0  0  3  0  0  0  0  0  0
  190.1550  175.3150  136.6420 S   0  0  0  0  0  0  0  0  0  0  0  0
  191.6810  177.5880  144.1370 C   0  0  0  0  0  2  0  0  0  0  0  0
  189.7510  177.4680  146.2670 C   0  0  1  0  0  3  0  0  0  0  0  0
  185.4600  178.4920  139.7080 C   0  0  0  0  0  2  0  0  0  0  0  0
  186.9100  178.6120  140.1830 C   0  0  1  0  0  3  0  0  0  0  0  0
  187.7490  178.1940  137.9810 O   0  0  0  0  0  0  0  0  0  0  0  0
  190.6800  177.3400  141.8810 C   0  0  0  0  0  2  0  0  0  0  0  0
  191.5760  177.0790  139.0970 C   0  0  0  0  0  1  0  0  0  0  0  0
  186.2090  176.0670  136.4040 C   0  0  0  0  0  1  0  0  0  0  0  0
  189.2560  177.7740  139.8120 C   0  0  1  0  0  3  0  0  0  0  0  0
  188.3010  177.2040  137.1400 C   0  0  1  0  0  3  0  0  0  0  0  0
  189.0830  177.4510  147.5580 N   0  0  0  0  0  2  0  0  0  0  0  0
  187.7270  177.8700  147.7300 C   0  0  0  0  0  0  0  0  0  0  0  0
  187.1280  177.8040  149.0180 N   0  0  0  0  0  1  0  0  0  0  0  0
  187.0610  178.3030  146.7530 O   0  0  0  0  0  0  0  0  0  0  0  0
  2 24  1  1  0  0  0
  2 12  1  0  0  0  0
  3 11  1  0  0  0  0
  4  3  1  0  0  0  0
  5 25  1  6  0  0  0
  5 27  1  0  0  0  0
  6 18  1  6  0  0  0
  6  5  1  0  0  0  0
  7 24  1  6  0  0  0
  7 17  1  0  0  0  0
  7 19  1  0  0  0  0
  9 26  1  6  0  0  0
  9 28  1  0  0  0  0
 10 20  1  0  0  0  0
 12  8  1  1  0  0  0
 13 12  1  0  0  0  0
 13 11  1  1  0  0  0
 14 23  1  6  0  0  0
 14 27  1  0  0  0  0
 14 22  1  0  0  0  0
 15 18  1  0  0  0  0
 15  9  1  0  0  0  0
 16  1  1  0  0  0  0
 17  8  1  1  0  0  0
 17 10  1  0  0  0  0
 19 16  1  0  0  0  0
 20  1  1  0  0  0  0
 20 29  1  1  0  0  0
 21  4  1  0  0  0  0
 22 21  1  6  0  0  0
 22 13  1  0  0  0  0
 27  2  1  0  0  0  0
 28  6  1  0  0  0  0
 28 23  1  0  0  0  0
 29 30  1  0  0  0  0
 30 31  1  0  0  0  0
 32 30  2  0  0  0  0
M  END
>  <MODEL>
6

>  <REMARK>
 VINA RESULT:      -7.1      2.726      4.441
  Name = 
  1 active torsions:
  status: ('A' for Active; 'I' for Inactive)
    1  A    between atoms: C_20  and  N_29
                            x       y       z     vdW  Elec       q    Type
                         _______ _______ _______ _____ _____    ______ ____

>  <TORSDO>
F 1

$$$$
=
 OpenBabel11122410503D

 32 37  0  0  1  0  0  0  0  0999 V2000
  189.9210  177.2920  137.4810 C   0  0  0  0  0  2  0  0  0  0  0  0
  188.8700  177.3110  142.9390 C   0  0  2  0  0  3  0  0  0  0  0  0
  184.2410  179.0260  143.0290 C   0  0  0  0  0  2  0  0  0  0  0  0
  184.0350  178.4380  144.4200 C   0  0  0  0  0  2  0  0  0  0  0  0
  190.0510  176.6570  145.1190 C   0  0  1  0  0  3  0  0  0  0  0  0
  189.8710  176.4150  146.6250 C   0  0  1  0  0  3  0  0  0  0  0  0
  190.1850  177.3660  140.7710 C   0  0  2  0  0  3  0  0  0  0  0  0
  187.7010  177.9390  140.8630 C   0  0  0  0  0  2  0  0  0  0  0  0
  188.8300  178.4590  147.5510 C   0  0  2  0  0  3  0  0  0  0  0  0
  189.1650  179.0960  139.1220 C   0  0  0  0  0  2  0  0  0  0  0  0
  185.2370  178.1760  142.2470 C   0  0  0  0  0  2  0  0  0  0  0  0
  187.5760  177.3420  142.2150 N   0  0  2  0  0  0  0  0  0  0  0  0
  186.5900  178.1280  142.9770 C   0  0  2  0  0  3  0  0  0  0  0  0
  187.6760  177.4130  145.1250 C   0  0  1  0  0  3  0  0  0  0  0  0
  190.1870  178.5110  148.2180 C   0  0  0  0  0  2  0  0  0  0  0  0
  190.9450  177.0090  138.4870 N   0  0  0  0  0  2  0  0  0  0  0  0
  189.1080  178.4370  140.5050 C   0  0  2  0  0  3  0  0  0  0  0  0
  191.2510  177.2020  147.5190 S   0  0  0  0  0  0  0  0  0  0  0  0
  190.3340  176.3570  139.6380 C   0  0  0  0  0  2  0  0  0  0  0  0
  188.7490  178.1260  138.0160 C   0  0  1  0  0  3  0  0  0  0  0  0
  185.3670  178.3600  145.1570 C   0  0  0  0  0  2  0  0  0  0  0  0
  186.3620  177.5080  144.3650 C   0  0  1  0  0  3  0  0  0  0  0  0
  187.4600  176.7890  146.3670 O   0  0  0  0  0  0  0  0  0  0  0  0
  189.9170  176.6070  142.0710 C   0  0  0  0  0  2  0  0  0  0  0  0
  191.0080  175.5950  144.6020 C   0  0  0  0  0  1  0  0  0  0  0  0
  187.7670  178.9550  148.5100 C   0  0  0  0  0  1  0  0  0  0  0  0
  188.7260  176.6390  144.3240 C   0  0  1  0  0  3  0  0  0  0  0  0
  188.5850  177.0060  147.1910 C   0  0  1  0  0  3  0  0  0  0  0  0
  188.1360  178.8540  136.9150 N   0  0  0  0  0  2  0  0  0  0  0  0
  187.2710  178.2280  135.9650 C   0  0  0  0  0  0  0  0  0  0  0  0
  186.6870  179.0050  134.9260 N   0  0  0  0  0  1  0  0  0  0  0  0
  187.0260  176.9950  136.0340 O   0  0  0  0  0  0  0  0  0  0  0  0
  1 20  1  0  0  0  0
  1 16  1  0  0  0  0
  2 24  1  6  0  0  0
  2 27  1  0  0  0  0
  3  4  1  0  0  0  0
  4 21  1  0  0  0  0
  5 25  1  6  0  0  0
  5  6  1  0  0  0  0
  6 28  1  0  0  0  0
  6 18  1  1  0  0  0
  7 19  1  6  0  0  0
  7 24  1  0  0  0  0
  9 15  1  0  0  0  0
  9 26  1  1  0  0  0
 11  3  1  0  0  0  0
 12  8  1  6  0  0  0
 12  2  1  0  0  0  0
 12 13  1  0  0  0  0
 13 11  1  6  0  0  0
 13 22  1  0  0  0  0
 14 23  1  1  0  0  0
 16 19  1  0  0  0  0
 17 10  1  6  0  0  0
 17  7  1  0  0  0  0
 17  8  1  0  0  0  0
 18 15  1  0  0  0  0
 20 29  1  6  0  0  0
 20 10  1  0  0  0  0
 22 14  1  0  0  0  0
 22 21  1  1  0  0  0
 23 28  1  0  0  0  0
 27  5  1  0  0  0  0
 27 14  1  0  0  0  0
 28  9  1  0  0  0  0
 30 32  2  0  0  0  0
 30 29  1  0  0  0  0
 31 30  1  0  0  0  0
M  END
>  <MODEL>
7

>  <REMARK>
 VINA RESULT:      -7.0      3.672      7.222
  Name = 
  1 active torsions:
  status: ('A' for Active; 'I' for Inactive)
    1  A    between atoms: C_20  and  N_29
                            x       y       z     vdW  Elec       q    Type
                         _______ _______ _______ _____ _____    ______ ____

>  <TORSDO>
F 1

$$$$
