=
 OpenBabel11122411233D

 37 44  0  0  1  0  0  0  0  0999 V2000
  189.2980  176.2490  139.2190 C   0  0  0  0  0  2  0  0  0  0  0  0
  190.4120  177.4950  143.5700 C   0  0  0  0  0  0  0  0  0  0  0  0
  186.4350  178.0900  142.4670 C   0  0  0  0  0  0  0  0  0  0  0  0
  189.7140  176.0700  137.8370 N   0  0  0  0  0  0  0  0  0  0  0  0
  186.0660  178.6110  138.6530 C   0  0  0  0  0  2  0  0  0  0  0  0
  187.9770  177.6630  144.2810 C   0  0  0  0  0  0  0  0  0  0  0  0
  186.5250  178.0770  141.0920 C   0  0  0  0  0  0  0  0  0  0  0  0
  187.4960  175.7560  136.7900 C   0  0  2  0  0  3  0  0  0  0  0  0
  187.6750  177.7580  142.9360 C   0  0  0  0  0  0  0  0  0  0  0  0
  185.5360  178.4540  140.0660 C   0  0  0  0  0  0  0  0  0  0  0  0
  186.9380  177.8910  145.1970 C   0  0  0  0  0  3  0  0  0  0  0  0
  188.9280  175.2450  136.9290 C   0  0  0  0  0  2  0  0  0  0  0  0
  188.5410  177.5320  141.9480 N   0  0  0  0  0  0  0  0  0  0  0  0
  191.6610  176.7020  143.8910 C   0  0  0  0  0  1  0  0  0  0  0  0
  184.0110  178.5660  142.8940 C   0  0  0  0  0  3  0  0  0  0  0  0
  185.6440  178.2160  144.7250 C   0  0  0  0  0  3  0  0  0  0  0  0
  189.9140  177.0780  142.1660 C   0  0  0  0  0  2  0  0  0  0  0  0
  187.4040  177.2780  136.8800 C   0  0  0  0  0  2  0  0  0  0  0  0
  187.3300  177.8090  138.3140 C   0  0  1  0  0  0  0  0  0  0  0  0
  185.3790  178.3190  143.3400 C   0  0  0  0  0  0  0  0  0  0  0  0
  187.8340  177.6930  140.8030 C   0  0  0  0  0  0  0  0  0  0  0  0
  189.3620  177.2300  144.6790 C   0  0  0  0  0  2  0  0  0  0  0  0
  184.2340  178.7560  140.3250 C   0  0  0  0  0  0  0  0  0  0  0  0
  190.7740  178.9690  143.5580 C   0  0  0  0  0  1  0  0  0  0  0  0
  188.5660  178.6730  138.5840 C   0  0  0  0  0  2  0  0  0  0  0  0
  186.6580  175.1360  137.7210 O   0  0  0  0  0  1  0  0  0  0  0  0
  188.3360  177.4340  139.4180 C   0  0  1  0  0  0  0  0  0  0  0  0
  183.5590  178.7340  141.6490 C   0  0  0  0  0  3  0  0  0  0  0  0
  182.8770  178.1820  138.3100 C   0  0  0  0  0  3  0  0  0  0  0  0
  183.3260  179.1470  139.2240 C   0  0  0  0  0  0  0  0  0  0  0  0
  182.8640  180.4680  139.1100 C   0  0  0  0  0  3  0  0  0  0  0  0
  181.5490  182.0990  137.9740 F   0  0  0  0  0  0  0  0  0  0  0  0
  181.5530  179.8570  137.1690 C   0  0  0  0  0  3  0  0  0  0  0  0
  181.9850  180.8210  138.0820 C   0  0  0  0  0  0  0  0  0  0  0  0
  181.9970  178.5370  137.2840 C   0  0  0  0  0  3  0  0  0  0  0  0
  192.0060  176.9240  137.0890 N   0  0  0  0  0  0  0  0  0  0  0  0
  190.9690  176.5390  137.4270 C   0  0  0  0  0  0  0  0  0  0  0  0
  1 27  1  0  0  0  0
  2 14  1  0  0  0  0
  2 22  1  0  0  0  0
  3  9  2  0  0  0  0
  3 20  1  0  0  0  0
  4  1  1  0  0  0  0
  5 10  1  0  0  0  0
  6 22  1  0  0  0  0
  6 11  2  0  0  0  0
  7  3  1  0  0  0  0
  8 18  1  0  0  0  0
  8 12  1  0  0  0  0
  8 26  1  1  0  0  0
  9  6  1  0  0  0  0
 10 23  2  0  0  0  0
 10  7  1  0  0  0  0
 12  4  1  0  0  0  0
 13 17  1  0  0  0  0
 13  9  1  0  0  0  0
 15 20  1  0  0  0  0
 16 11  1  0  0  0  0
 17  2  1  0  0  0  0
 19 18  1  6  0  0  0
 19 25  1  0  0  0  0
 19  5  1  0  0  0  0
 19 27  1  0  0  0  0
 20 16  2  0  0  0  0
 21  7  2  0  0  0  0
 21 13  1  0  0  0  0
 23 28  1  0  0  0  0
 24  2  1  0  0  0  0
 27 25  1  6  0  0  0
 27 21  1  0  0  0  0
 28 15  2  0  0  0  0
 29 30  1  0  0  0  0
 30 23  1  0  0  0  0
 31 30  2  0  0  0  0
 32 34  1  0  0  0  0
 33 35  1  0  0  0  0
 33 34  2  0  0  0  0
 34 31  1  0  0  0  0
 35 29  2  0  0  0  0
 36 37  3  0  0  0  0
 37  4  1  0  0  0  0
M  END
>  <MODEL>
1

>  <REMARK>
 VINA RESULT:      -9.0      0.000      0.000
  Name = 
  2 active torsions:
  status: ('A' for Active; 'I' for Inactive)
    1  A    between atoms: N_4  and  C_37
    2  A    between atoms: C_23  and  C_30
                            x       y       z     vdW  Elec       q    Type
                         _______ _______ _______ _____ _____    ______ ____

>  <TORSDO>
F 2

$$$$
=
 OpenBabel11122411233D

 37 44  0  0  1  0  0  0  0  0999 V2000
  191.0520  176.9220  142.5650 C   0  0  0  0  0  2  0  0  0  0  0  0
  191.1160  175.8790  138.0220 C   0  0  0  0  0  0  0  0  0  0  0  0
  187.7340  177.9070  139.3780 C   0  0  0  0  0  0  0  0  0  0  0  0
  191.4640  176.5850  143.9190 N   0  0  0  0  0  0  0  0  0  0  0  0
  187.0600  177.2290  143.1260 C   0  0  0  0  0  2  0  0  0  0  0  0
  189.1950  177.4610  137.5030 C   0  0  0  0  0  0  0  0  0  0  0  0
  187.7910  177.6640  140.7330 C   0  0  0  0  0  0  0  0  0  0  0  0
  190.0010  178.1330  145.1760 C   0  0  2  0  0  3  0  0  0  0  0  0
  188.8870  177.4010  138.8490 C   0  0  0  0  0  0  0  0  0  0  0  0
  186.7880  177.8930  141.7890 C   0  0  0  0  0  0  0  0  0  0  0  0
  188.2790  178.1070  136.6560 C   0  0  0  0  0  3  0  0  0  0  0  0
  191.4130  177.5850  144.9770 C   0  0  0  0  0  2  0  0  0  0  0  0
  189.6710  176.8580  139.7800 N   0  0  0  0  0  0  0  0  0  0  0  0
  192.5810  175.6870  137.6910 C   0  0  0  0  0  1  0  0  0  0  0  0
  185.6120  179.2140  139.1040 C   0  0  0  0  0  3  0  0  0  0  0  0
  187.0890  178.6530  137.1950 C   0  0  0  0  0  3  0  0  0  0  0  0
  191.0020  176.3190  139.5020 C   0  0  0  0  0  2  0  0  0  0  0  0
  188.9220  177.0810  144.9210 C   0  0  0  0  0  2  0  0  0  0  0  0
  188.5330  176.9400  143.4470 C   0  0  1  0  0  0  0  0  0  0  0  0
  186.8050  178.5570  138.5770 C   0  0  0  0  0  0  0  0  0  0  0  0
  189.0210  177.0440  140.9540 C   0  0  0  0  0  0  0  0  0  0  0  0
  190.5230  176.9240  137.0420 C   0  0  0  0  0  2  0  0  0  0  0  0
  185.6180  178.5650  141.6070 C   0  0  0  0  0  0  0  0  0  0  0  0
  190.4070  174.5500  137.8360 C   0  0  0  0  0  1  0  0  0  0  0  0
  188.8860  175.5240  142.9780 C   0  0  0  0  0  2  0  0  0  0  0  0
  189.8000  179.2730  144.3950 O   0  0  0  0  0  1  0  0  0  0  0  0
  189.5490  176.7090  142.3130 C   0  0  1  0  0  0  0  0  0  0  0  0
  185.1460  179.2120  140.3550 C   0  0  0  0  0  3  0  0  0  0  0  0
  183.2850  178.7500  142.4760 C   0  0  0  0  0  3  0  0  0  0  0  0
  184.6650  178.7200  142.7280 C   0  0  0  0  0  0  0  0  0  0  0  0
  185.1210  178.7850  144.0540 C   0  0  0  0  0  3  0  0  0  0  0  0
  184.6610  178.9740  146.3850 F   0  0  0  0  0  0  0  0  0  0  0  0
  182.8410  178.9470  144.8470 C   0  0  0  0  0  3  0  0  0  0  0  0
  184.2120  178.9040  145.1090 C   0  0  0  0  0  0  0  0  0  0  0  0
  182.3770  178.8680  143.5310 C   0  0  0  0  0  3  0  0  0  0  0  0
  192.5960  174.3370  144.3710 N   0  0  0  0  0  0  0  0  0  0  0  0
  192.0850  175.3540  144.1660 C   0  0  0  0  0  0  0  0  0  0  0  0
  1  4  1  0  0  0  0
  2 17  1  0  0  0  0
  3  7  1  0  0  0  0
  4 37  1  0  0  0  0
  4 12  1  0  0  0  0
  5 19  1  0  0  0  0
  6  9  2  0  0  0  0
  7 21  2  0  0  0  0
  7 10  1  0  0  0  0
  8 26  1  6  0  0  0
  9  3  1  0  0  0  0
  9 13  1  0  0  0  0
 10  5  1  0  0  0  0
 11 16  2  0  0  0  0
 11  6  1  0  0  0  0
 12  8  1  0  0  0  0
 13 21  1  0  0  0  0
 14  2  1  0  0  0  0
 15 28  2  0  0  0  0
 16 20  1  0  0  0  0
 17 13  1  0  0  0  0
 18  8  1  0  0  0  0
 19 25  1  1  0  0  0
 19 18  1  0  0  0  0
 20 15  1  0  0  0  0
 20  3  2  0  0  0  0
 21 27  1  0  0  0  0
 22  6  1  0  0  0  0
 22  2  1  0  0  0  0
 23 10  2  0  0  0  0
 23 30  1  0  0  0  0
 24  2  1  0  0  0  0
 27  1  1  1  0  0  0
 27 25  1  0  0  0  0
 27 19  1  0  0  0  0
 28 23  1  0  0  0  0
 29 30  2  0  0  0  0
 29 35  1  0  0  0  0
 30 31  1  0  0  0  0
 31 34  2  0  0  0  0
 33 34  1  0  0  0  0
 34 32  1  0  0  0  0
 35 33  2  0  0  0  0
 37 36  3  0  0  0  0
M  END
>  <MODEL>
2

>  <REMARK>
 VINA RESULT:      -8.5      2.848      6.009
  Name = 
  2 active torsions:
  status: ('A' for Active; 'I' for Inactive)
    1  A    between atoms: N_4  and  C_37
    2  A    between atoms: C_23  and  C_30
                            x       y       z     vdW  Elec       q    Type
                         _______ _______ _______ _____ _____    ______ ____

>  <TORSDO>
F 2

$$$$
=
 OpenBabel11122411233D

 37 44  0  0  1  0  0  0  0  0999 V2000
  184.6890  177.9550  144.3620 C   0  0  0  0  0  2  0  0  0  0  0  0
  180.2810  178.9890  143.2520 C   0  0  0  0  0  0  0  0  0  0  0  0
  182.7820  178.0160  140.0600 C   0  0  0  0  0  0  0  0  0  0  0  0
  185.8150  178.1420  145.2620 N   0  0  0  0  0  0  0  0  0  0  0  0
  186.4840  178.8160  140.8430 C   0  0  0  0  0  2  0  0  0  0  0  0
  180.5160  178.0410  140.9050 C   0  0  0  0  0  0  0  0  0  0  0  0
  184.0280  178.2160  140.6150 C   0  0  0  0  0  0  0  0  0  0  0  0
  187.5880  177.0710  143.9110 C   0  0  2  0  0  3  0  0  0  0  0  0
  181.8810  178.1710  141.0760 C   0  0  0  0  0  0  0  0  0  0  0  0
  185.3580  178.2760  139.9820 C   0  0  0  0  0  0  0  0  0  0  0  0
  180.0520  177.6990  139.6240 C   0  0  0  0  0  3  0  0  0  0  0  0
  186.9150  177.1870  145.2770 C   0  0  0  0  0  2  0  0  0  0  0  0
  182.4750  178.4520  142.2360 N   0  0  0  0  0  0  0  0  0  0  0  0
  179.4960  178.7510  144.5240 C   0  0  0  0  0  1  0  0  0  0  0  0
  183.2890  177.3860  137.6870 C   0  0  0  0  0  3  0  0  0  0  0  0
  180.9770  177.5160  138.5680 C   0  0  0  0  0  3  0  0  0  0  0  0
  181.7530  178.5840  143.5010 C   0  0  0  0  0  2  0  0  0  0  0  0
  187.5940  178.3940  143.1450 C   0  0  0  0  0  2  0  0  0  0  0  0
  186.3080  178.6600  142.3600 C   0  0  1  0  0  0  0  0  0  0  0  0
  182.3660  177.6740  138.7800 C   0  0  0  0  0  0  0  0  0  0  0  0
  183.8040  178.4490  141.9720 C   0  0  0  0  0  0  0  0  0  0  0  0
  179.6230  178.1740  142.1080 C   0  0  0  0  0  2  0  0  0  0  0  0
  185.6040  177.9750  138.6770 C   0  0  0  0  0  0  0  0  0  0  0  0
  180.2150  180.4690  142.9210 C   0  0  0  0  0  1  0  0  0  0  0  0
  185.6370  179.9170  142.9240 C   0  0  0  0  0  2  0  0  0  0  0  0
  187.0050  176.0480  143.1590 O   0  0  0  0  0  1  0  0  0  0  0  0
  184.8990  178.5990  142.9800 C   0  0  1  0  0  0  0  0  0  0  0  0
  184.6180  177.5080  137.6670 C   0  0  0  0  0  3  0  0  0  0  0  0
  187.1780  178.6470  136.8600 C   0  0  0  0  0  3  0  0  0  0  0  0
  186.9750  178.0910  138.1320 C   0  0  0  0  0  0  0  0  0  0  0  0
  188.0860  177.6970  138.8940 C   0  0  0  0  0  3  0  0  0  0  0  0
  190.4450  177.4470  139.1190 F   0  0  0  0  0  0  0  0  0  0  0  0
  189.5710  178.3780  137.1080 C   0  0  0  0  0  3  0  0  0  0  0  0
  189.3790  177.8350  138.3810 C   0  0  0  0  0  0  0  0  0  0  0  0
  188.4710  178.7860  136.3480 C   0  0  0  0  0  3  0  0  0  0  0  0
  185.7060  179.9560  147.0620 N   0  0  0  0  0  0  0  0  0  0  0  0
  185.7550  179.1360  146.2480 C   0  0  0  0  0  0  0  0  0  0  0  0
  1  4  1  0  0  0  0
  2 17  1  0  0  0  0
  2 14  1  0  0  0  0
  3  7  1  0  0  0  0
  3  9  1  0  0  0  0
  4 12  1  0  0  0  0
  4 37  1  0  0  0  0
  6  9  2  0  0  0  0
  6 22  1  0  0  0  0
  7 21  2  0  0  0  0
  8 26  1  6  0  0  0
  8 12  1  0  0  0  0
  9 13  1  0  0  0  0
 10  7  1  0  0  0  0
 10  5  1  0  0  0  0
 11  6  1  0  0  0  0
 13 17  1  0  0  0  0
 15 20  1  0  0  0  0
 16 20  1  0  0  0  0
 16 11  2  0  0  0  0
 18  8  1  0  0  0  0
 19  5  1  6  0  0  0
 19 25  1  0  0  0  0
 19 27  1  0  0  0  0
 19 18  1  0  0  0  0
 20  3  2  0  0  0  0
 21 13  1  0  0  0  0
 21 27  1  0  0  0  0
 22  2  1  0  0  0  0
 23 10  2  0  0  0  0
 24  2  1  0  0  0  0
 27 25  1  1  0  0  0
 27  1  1  0  0  0  0
 28 15  2  0  0  0  0
 28 23  1  0  0  0  0
 29 30  1  0  0  0  0
 30 23  1  0  0  0  0
 30 31  2  0  0  0  0
 33 34  2  0  0  0  0
 34 31  1  0  0  0  0
 34 32  1  0  0  0  0
 35 29  2  0  0  0  0
 35 33  1  0  0  0  0
 37 36  3  0  0  0  0
M  END
>  <MODEL>
3

>  <REMARK>
 VINA RESULT:      -6.5      3.486      7.284
  Name = 
  2 active torsions:
  status: ('A' for Active; 'I' for Inactive)
    1  A    between atoms: N_4  and  C_37
    2  A    between atoms: C_23  and  C_30
                            x       y       z     vdW  Elec       q    Type
                         _______ _______ _______ _____ _____    ______ ____

>  <TORSDO>
F 2

$$$$
=
 OpenBabel11122411233D

 37 44  0  0  1  0  0  0  0  0999 V2000
  183.8570  177.5430  137.9840 C   0  0  0  0  0  2  0  0  0  0  0  0
  188.0640  178.0430  136.0410 C   0  0  0  0  0  0  0  0  0  0  0  0
  188.0160  177.5640  140.1830 C   0  0  0  0  0  0  0  0  0  0  0  0
  182.4320  177.8320  137.9430 N   0  0  0  0  0  0  0  0  0  0  0  0
  184.6960  178.8030  141.7330 C   0  0  0  0  0  2  0  0  0  0  0  0
  189.2650  177.2500  138.1360 C   0  0  0  0  0  0  0  0  0  0  0  0
  186.7140  177.8980  140.4840 C   0  0  0  0  0  0  0  0  0  0  0  0
  181.8060  177.0710  140.2110 C   0  0  2  0  0  3  0  0  0  0  0  0
  188.1030  177.5500  138.8190 C   0  0  0  0  0  0  0  0  0  0  0  0
  186.0710  178.1630  141.7850 C   0  0  0  0  0  0  0  0  0  0  0  0
  190.3970  176.9130  138.8970 C   0  0  0  0  0  3  0  0  0  0  0  0
  181.4930  177.0300  138.7170 C   0  0  0  0  0  2  0  0  0  0  0  0
  186.9400  177.8490  138.2400 N   0  0  0  0  0  0  0  0  0  0  0  0
  187.8710  177.6430  134.5940 C   0  0  0  0  0  1  0  0  0  0  0  0
  189.0440  177.1230  142.4260 C   0  0  0  0  0  3  0  0  0  0  0  0
  190.3150  176.9050  140.3110 C   0  0  0  0  0  3  0  0  0  0  0  0
  186.7290  177.8230  136.7930 C   0  0  0  0  0  2  0  0  0  0  0  0
  182.3720  178.4190  140.6570 C   0  0  0  0  0  2  0  0  0  0  0  0
  183.8840  178.5520  140.4560 C   0  0  1  0  0  0  0  0  0  0  0  0
  189.1100  177.2330  140.9720 C   0  0  0  0  0  0  0  0  0  0  0  0
  186.0650  178.0330  139.2570 C   0  0  0  0  0  0  0  0  0  0  0  0
  189.2270  177.2060  136.6330 C   0  0  0  0  0  2  0  0  0  0  0  0
  186.6650  177.9610  142.9920 C   0  0  0  0  0  0  0  0  0  0  0  0
  188.4280  179.5160  136.0830 C   0  0  0  0  0  1  0  0  0  0  0  0
  184.1500  179.6810  139.4540 C   0  0  0  0  0  2  0  0  0  0  0  0
  182.6530  176.0180  140.5660 O   0  0  0  0  0  1  0  0  0  0  0  0
  184.5950  178.2760  139.1180 C   0  0  1  0  0  0  0  0  0  0  0  0
  188.0270  177.4190  143.2380 C   0  0  0  0  0  3  0  0  0  0  0  0
  184.5720  178.5900  144.2000 C   0  0  0  0  0  3  0  0  0  0  0  0
  185.9400  178.2820  144.2430 C   0  0  0  0  0  0  0  0  0  0  0  0
  186.5940  178.2320  145.4840 C   0  0  0  0  0  3  0  0  0  0  0  0
  186.5340  178.4670  147.8550 F   0  0  0  0  0  0  0  0  0  0  0  0
  184.5360  178.8290  146.6090 C   0  0  0  0  0  3  0  0  0  0  0  0
  185.8950  178.5100  146.6610 C   0  0  0  0  0  0  0  0  0  0  0  0
  183.8740  178.8670  145.3780 C   0  0  0  0  0  3  0  0  0  0  0  0
  181.5340  179.5260  136.2500 N   0  0  0  0  0  0  0  0  0  0  0  0
  181.9400  178.7610  137.0160 C   0  0  0  0  0  0  0  0  0  0  0  0
  2 24  1  0  0  0  0
  2 22  1  0  0  0  0
  2 17  1  0  0  0  0
  3  7  1  0  0  0  0
  3 20  1  0  0  0  0
  4  1  1  0  0  0  0
  4 12  1  0  0  0  0
  5 10  1  0  0  0  0
  6  9  1  0  0  0  0
  6 11  2  0  0  0  0
  7 10  1  0  0  0  0
  8 26  1  6  0  0  0
  8 18  1  0  0  0  0
  9  3  2  0  0  0  0
 10 23  2  0  0  0  0
 11 16  1  0  0  0  0
 12  8  1  0  0  0  0
 13  9  1  0  0  0  0
 13 21  1  0  0  0  0
 14  2  1  0  0  0  0
 15 28  2  0  0  0  0
 16 20  2  0  0  0  0
 17 13  1  0  0  0  0
 19 25  1  6  0  0  0
 19 18  1  0  0  0  0
 19  5  1  0  0  0  0
 20 15  1  0  0  0  0
 21  7  2  0  0  0  0
 22  6  1  0  0  0  0
 23 28  1  0  0  0  0
 23 30  1  0  0  0  0
 27  1  1  6  0  0  0
 27 21  1  0  0  0  0
 27 25  1  0  0  0  0
 27 19  1  0  0  0  0
 29 30  2  0  0  0  0
 29 35  1  0  0  0  0
 30 31  1  0  0  0  0
 31 34  2  0  0  0  0
 33 34  1  0  0  0  0
 34 32  1  0  0  0  0
 35 33  2  0  0  0  0
 36 37  3  0  0  0  0
 37  4  1  0  0  0  0
M  END
>  <MODEL>
4

>  <REMARK>
 VINA RESULT:      -6.4      3.161      6.701
  Name = 
  2 active torsions:
  status: ('A' for Active; 'I' for Inactive)
    1  A    between atoms: N_4  and  C_37
    2  A    between atoms: C_23  and  C_30
                            x       y       z     vdW  Elec       q    Type
                         _______ _______ _______ _____ _____    ______ ____

>  <TORSDO>
F 2

$$$$
=
 OpenBabel11122411233D

 37 44  0  0  1  0  0  0  0  0999 V2000
  181.5060  176.6040  139.2690 C   0  0  0  0  0  2  0  0  0  0  0  0
  180.2780  172.7860  136.8940 C   0  0  0  0  0  0  0  0  0  0  0  0
  184.3550  173.6570  136.9600 C   0  0  0  0  0  0  0  0  0  0  0  0
  181.1550  177.9340  139.7420 N   0  0  0  0  0  0  0  0  0  0  0  0
  185.0070  177.4400  137.4290 C   0  0  0  0  0  2  0  0  0  0  0  0
  182.6700  171.9320  136.7830 C   0  0  0  0  0  0  0  0  0  0  0  0
  184.3470  174.9920  137.3020 C   0  0  0  0  0  0  0  0  0  0  0  0
  183.3840  178.6840  140.5090 C   0  0  2  0  0  3  0  0  0  0  0  0
  183.0610  173.2300  137.0500 C   0  0  0  0  0  0  0  0  0  0  0  0
  185.4310  175.9910  137.2820 C   0  0  0  0  0  0  0  0  0  0  0  0
  183.6710  171.0110  136.4340 C   0  0  0  0  0  3  0  0  0  0  0  0
  181.8980  178.5490  140.8340 C   0  0  0  0  0  2  0  0  0  0  0  0
  182.2360  174.2060  137.4310 N   0  0  0  0  0  0  0  0  0  0  0  0
  178.9320  172.3920  137.4640 C   0  0  0  0  0  1  0  0  0  0  0  0
  186.7880  173.1530  136.6200 C   0  0  0  0  0  3  0  0  0  0  0  0
  185.0200  171.4360  136.3560 C   0  0  0  0  0  3  0  0  0  0  0  0
  180.8100  174.0030  137.6880 C   0  0  0  0  0  2  0  0  0  0  0  0
  183.6380  178.9520  139.0260 C   0  0  0  0  0  2  0  0  0  0  0  0
  183.6850  177.6840  138.1680 C   0  0  1  0  0  0  0  0  0  0  0  0
  185.3770  172.7780  136.6230 C   0  0  0  0  0  0  0  0  0  0  0  0
  183.0230  175.2910  137.6220 C   0  0  0  0  0  0  0  0  0  0  0  0
  181.2240  171.5600  136.9740 C   0  0  0  0  0  2  0  0  0  0  0  0
  186.7400  175.7020  137.0480 C   0  0  0  0  0  0  0  0  0  0  0  0
  180.0830  173.1800  135.4410 C   0  0  0  0  0  1  0  0  0  0  0  0
  182.5370  177.7340  137.1530 C   0  0  0  0  0  2  0  0  0  0  0  0
  184.0900  177.5650  140.9560 O   0  0  0  0  0  1  0  0  0  0  0  0
  182.5790  176.6130  138.1660 C   0  0  1  0  0  0  0  0  0  0  0  0
  187.3290  174.3580  136.8060 C   0  0  0  0  0  3  0  0  0  0  0  0
  188.1530  177.3410  135.8020 C   0  0  0  0  0  3  0  0  0  0  0  0
  187.7500  176.7840  137.0250 C   0  0  0  0  0  0  0  0  0  0  0  0
  188.2770  177.2980  138.2200 C   0  0  0  0  0  3  0  0  0  0  0  0
  189.7190  178.8250  139.3480 F   0  0  0  0  0  0  0  0  0  0  0  0
  189.6140  178.8790  136.9680 C   0  0  0  0  0  3  0  0  0  0  0  0
  189.2100  178.3390  138.1900 C   0  0  0  0  0  0  0  0  0  0  0  0
  189.0850  178.3820  135.7740 C   0  0  0  0  0  3  0  0  0  0  0  0
  179.0220  179.0580  138.8880 N   0  0  0  0  0  0  0  0  0  0  0  0
  179.9860  178.5490  139.2740 C   0  0  0  0  0  0  0  0  0  0  0  0
  1  4  1  0  0  0  0
  2 22  1  0  0  0  0
  2 14  1  0  0  0  0
  2 17  1  0  0  0  0
  3  9  1  0  0  0  0
  3  7  1  0  0  0  0
  4 12  1  0  0  0  0
  5 19  1  0  0  0  0
  6 22  1  0  0  0  0
  6  9  2  0  0  0  0
  7 21  2  0  0  0  0
  8 12  1  0  0  0  0
  8 26  1  6  0  0  0
  9 13  1  0  0  0  0
 10  7  1  0  0  0  0
 10  5  1  0  0  0  0
 11  6  1  0  0  0  0
 13 21  1  0  0  0  0
 13 17  1  0  0  0  0
 15 20  1  0  0  0  0
 15 28  2  0  0  0  0
 16 11  2  0  0  0  0
 16 20  1  0  0  0  0
 18  8  1  0  0  0  0
 19 25  1  6  0  0  0
 19 18  1  0  0  0  0
 20  3  2  0  0  0  0
 21 27  1  0  0  0  0
 23 10  2  0  0  0  0
 24  2  1  0  0  0  0
 27 25  1  6  0  0  0
 27 19  1  0  0  0  0
 27  1  1  0  0  0  0
 28 23  1  0  0  0  0
 29 30  1  0  0  0  0
 30 23  1  0  0  0  0
 30 31  2  0  0  0  0
 33 34  2  0  0  0  0
 34 31  1  0  0  0  0
 34 32  1  0  0  0  0
 35 29  2  0  0  0  0
 35 33  1  0  0  0  0
 36 37  3  0  0  0  0
 37  4  1  0  0  0  0
M  END
>  <MODEL>
5

>  <REMARK>
 VINA RESULT:      -6.1      4.474      8.731
  Name = 
  2 active torsions:
  status: ('A' for Active; 'I' for Inactive)
    1  A    between atoms: N_4  and  C_37
    2  A    between atoms: C_23  and  C_30
                            x       y       z     vdW  Elec       q    Type
                         _______ _______ _______ _____ _____    ______ ____

>  <TORSDO>
F 2

$$$$
