=
 OpenBabel11122411213D

 37 43  0  0  1  0  0  0  0  0999 V2000
  188.4460  176.5610  138.4770 C   0  0  0  0  0  2  0  0  0  0  0  0
  189.8350  177.3530  143.2260 C   0  0  0  0  0  0  0  0  0  0  0  0
  186.1140  178.4520  141.7380 C   0  0  0  0  0  0  0  0  0  0  0  0
  189.2840  176.3320  137.2940 N   0  0  0  0  0  0  0  0  0  0  0  0
  185.6100  179.2810  138.0560 O   0  0  0  0  0  0  0  0  0  0  0  0
  187.3990  177.6370  143.5990 C   0  0  0  0  0  0  0  0  0  0  0  0
  186.3470  178.6140  140.3850 C   0  0  0  0  0  0  0  0  0  0  0  0
  187.2220  176.7710  135.7860 C   0  0  2  0  0  3  0  0  0  0  0  0
  187.2860  178.0540  142.2940 C   0  0  0  0  0  0  0  0  0  0  0  0
  185.2420  178.9180  139.3770 C   0  0  2  0  0  3  0  0  0  0  0  0
  186.2420  177.6480  144.3990 C   0  0  0  0  0  3  0  0  0  0  0  0
  188.7460  176.8950  136.0360 C   0  0  0  0  0  2  0  0  0  0  0  0
  188.2600  177.9390  141.3960 N   0  0  0  0  0  0  0  0  0  0  0  0
  190.8310  176.2690  143.5750 C   0  0  0  0  0  1  0  0  0  0  0  0
  183.6160  178.8030  141.8420 C   0  0  0  0  0  2  0  0  0  0  0  0
  185.0040  178.0550  143.8340 C   0  0  0  0  0  3  0  0  0  0  0  0
  189.5350  177.2870  141.7020 C   0  0  0  0  0  2  0  0  0  0  0  0
  186.4420  178.0450  136.1290 C   0  0  0  0  0  2  0  0  0  0  0  0
  186.5710  178.3720  137.6030 C   0  0  1  0  0  3  0  0  0  0  0  0
  184.9270  178.4460  142.4760 C   0  0  0  0  0  0  0  0  0  0  0  0
  187.7020  178.2500  140.2000 C   0  0  0  0  0  0  0  0  0  0  0  0
  188.6500  177.1810  144.0330 O   0  0  0  0  0  0  0  0  0  0  0  0
  184.0420  177.9940  139.4940 C   0  0  0  0  0  0  0  0  0  0  0  0
  190.4610  178.6990  143.5430 C   0  0  0  0  0  1  0  0  0  0  0  0
  187.8540  178.8670  137.8770 O   0  0  0  0  0  0  0  0  0  0  0  0
  186.6580  175.6420  136.3840 O   0  0  0  0  0  1  0  0  0  0  0  0
  188.4040  178.0480  138.8810 C   0  0  2  0  0  3  0  0  0  0  0  0
  183.3310  177.9510  140.6340 C   0  0  0  0  0  3  0  0  0  0  0  0
  183.0180  177.5650  137.2600 C   0  0  0  0  0  3  0  0  0  0  0  0
  183.6660  177.0760  138.4040 C   0  0  0  0  0  0  0  0  0  0  0  0
  183.9820  175.7120  138.4830 C   0  0  0  0  0  3  0  0  0  0  0  0
  183.9420  173.4950  137.5330 O   0  0  0  0  0  1  0  0  0  0  0  0
  182.9790  175.3380  136.3110 C   0  0  0  0  0  3  0  0  0  0  0  0
  183.6350  174.8450  137.4420 C   0  0  0  0  0  0  0  0  0  0  0  0
  182.6720  176.6990  136.2190 C   0  0  0  0  0  3  0  0  0  0  0  0
  190.8880  174.5040  137.2890 C   0  0  0  0  0  1  0  0  0  0  0  0
  189.4330  174.8960  137.1230 C   0  0  0  0  0  2  0  0  0  0  0  0
  2 24  1  0  0  0  0
  2 14  1  0  0  0  0
  2 22  1  0  0  0  0
  3  9  2  0  0  0  0
  3 20  1  0  0  0  0
  4  1  1  0  0  0  0
  6 22  1  0  0  0  0
  6 11  2  0  0  0  0
  7  3  1  0  0  0  0
  8 12  1  0  0  0  0
  8 18  1  0  0  0  0
  8 26  1  1  0  0  0
  9  6  1  0  0  0  0
 10  5  1  6  0  0  0
 10 23  1  0  0  0  0
 10  7  1  0  0  0  0
 12  4  1  0  0  0  0
 13 17  1  0  0  0  0
 13  9  1  0  0  0  0
 15 20  1  0  0  0  0
 16 11  1  0  0  0  0
 17  2  1  0  0  0  0
 19 18  1  6  0  0  0
 19 25  1  0  0  0  0
 19  5  1  0  0  0  0
 20 16  2  0  0  0  0
 21  7  2  0  0  0  0
 21 13  1  0  0  0  0
 23 28  2  0  0  0  0
 25 27  1  0  0  0  0
 27  1  1  6  0  0  0
 27 21  1  0  0  0  0
 28 15  1  0  0  0  0
 29 30  1  0  0  0  0
 30 31  2  0  0  0  0
 30 23  1  0  0  0  0
 33 34  2  0  0  0  0
 34 32  1  0  0  0  0
 34 31  1  0  0  0  0
 35 33  1  0  0  0  0
 35 29  2  0  0  0  0
 37 36  1  0  0  0  0
 37  4  1  0  0  0  0
M  END
>  <MODEL>
1

>  <REMARK>
 VINA RESULT:      -9.0      0.000      0.000
  Name = 
  2 active torsions:
  status: ('A' for Active; 'I' for Inactive)
    1  A    between atoms: N_4  and  C_37
    2  A    between atoms: C_23  and  C_30
                            x       y       z     vdW  Elec       q    Type
                         _______ _______ _______ _____ _____    ______ ____

>  <TORSDO>
F 2

$$$$
=
 OpenBabel11122411213D

 37 43  0  0  1  0  0  0  0  0999 V2000
  188.3630  176.5350  138.4890 C   0  0  0  0  0  2  0  0  0  0  0  0
  189.8470  177.3070  143.2130 C   0  0  0  0  0  0  0  0  0  0  0  0
  186.1170  178.4620  141.7900 C   0  0  0  0  0  0  0  0  0  0  0  0
  189.1760  176.2930  137.2920 N   0  0  0  0  0  0  0  0  0  0  0  0
  185.5620  179.2980  138.1170 O   0  0  0  0  0  0  0  0  0  0  0  0
  187.4220  177.6280  143.6280 C   0  0  0  0  0  0  0  0  0  0  0  0
  186.3290  178.6200  140.4330 C   0  0  0  0  0  0  0  0  0  0  0  0
  187.0950  176.7630  135.8200 C   0  0  2  0  0  3  0  0  0  0  0  0
  187.2930  178.0460  142.3260 C   0  0  0  0  0  0  0  0  0  0  0  0
  185.2120  178.9410  139.4450 C   0  0  2  0  0  3  0  0  0  0  0  0
  186.2800  177.6570  144.4490 C   0  0  0  0  0  3  0  0  0  0  0  0
  188.6250  176.8630  136.0440 C   0  0  0  0  0  2  0  0  0  0  0  0
  188.2490  177.9160  141.4110 N   0  0  0  0  0  0  0  0  0  0  0  0
  190.8320  176.2070  143.5450 C   0  0  0  0  0  1  0  0  0  0  0  0
  183.6280  178.8510  141.9380 C   0  0  0  0  0  2  0  0  0  0  0  0
  185.0390  178.0830  143.9050 C   0  0  0  0  0  3  0  0  0  0  0  0
  189.5190  177.2450  141.6950 C   0  0  0  0  0  2  0  0  0  0  0  0
  186.3410  178.0480  136.1760 C   0  0  0  0  0  2  0  0  0  0  0  0
  186.5000  178.3740  137.6480 C   0  0  1  0  0  3  0  0  0  0  0  0
  184.9440  178.4750  142.5490 C   0  0  0  0  0  0  0  0  0  0  0  0
  187.6750  178.2350  140.2240 C   0  0  0  0  0  0  0  0  0  0  0  0
  188.6740  177.1530  144.0410 O   0  0  0  0  0  0  0  0  0  0  0  0
  184.0000  178.0360  139.5830 C   0  0  0  0  0  0  0  0  0  0  0  0
  190.4990  178.6430  143.5190 C   0  0  0  0  0  1  0  0  0  0  0  0
  187.7960  178.8490  137.8990 O   0  0  0  0  0  0  0  0  0  0  0  0
  186.5240  175.6420  136.4290 O   0  0  0  0  0  1  0  0  0  0  0  0
  188.3510  178.0220  138.8940 C   0  0  2  0  0  3  0  0  0  0  0  0
  183.3090  178.0030  140.7350 C   0  0  0  0  0  3  0  0  0  0  0  0
  183.7750  175.7380  138.6360 C   0  0  0  0  0  3  0  0  0  0  0  0
  183.5900  177.1230  138.5010 C   0  0  0  0  0  0  0  0  0  0  0  0
  182.9800  177.6220  137.3420 C   0  0  0  0  0  3  0  0  0  0  0  0
  181.9870  177.2570  135.1740 O   0  0  0  0  0  1  0  0  0  0  0  0
  182.7790  175.3760  136.4600 C   0  0  0  0  0  3  0  0  0  0  0  0
  182.5800  176.7530  136.3220 C   0  0  0  0  0  0  0  0  0  0  0  0
  183.3740  174.8690  137.6180 C   0  0  0  0  0  3  0  0  0  0  0  0
  190.7540  174.4420  137.2420 C   0  0  0  0  0  1  0  0  0  0  0  0
  189.2990  174.8540  137.1200 C   0  0  0  0  0  2  0  0  0  0  0  0
  2 24  1  0  0  0  0
  2 14  1  0  0  0  0
  2 22  1  0  0  0  0
  3  9  2  0  0  0  0
  3 20  1  0  0  0  0
  4  1  1  0  0  0  0
  6 22  1  0  0  0  0
  6 11  2  0  0  0  0
  7  3  1  0  0  0  0
  8 12  1  0  0  0  0
  8 18  1  0  0  0  0
  8 26  1  1  0  0  0
  9  6  1  0  0  0  0
 10  5  1  6  0  0  0
 10 23  1  0  0  0  0
 10  7  1  0  0  0  0
 12  4  1  0  0  0  0
 13 17  1  0  0  0  0
 13  9  1  0  0  0  0
 15 20  1  0  0  0  0
 16 11  1  0  0  0  0
 17  2  1  0  0  0  0
 19 18  1  6  0  0  0
 19 25  1  0  0  0  0
 19  5  1  0  0  0  0
 20 16  2  0  0  0  0
 21  7  2  0  0  0  0
 21 13  1  0  0  0  0
 23 28  2  0  0  0  0
 25 27  1  0  0  0  0
 27  1  1  6  0  0  0
 27 21  1  0  0  0  0
 28 15  1  0  0  0  0
 30 29  1  0  0  0  0
 30 23  1  0  0  0  0
 31 30  2  0  0  0  0
 32 34  1  0  0  0  0
 33 35  1  0  0  0  0
 34 33  2  0  0  0  0
 34 31  1  0  0  0  0
 35 29  2  0  0  0  0
 37 36  1  0  0  0  0
 37  4  1  0  0  0  0
M  END
>  <MODEL>
2

>  <REMARK>
 VINA RESULT:      -9.0      0.806      1.132
  Name = 
  2 active torsions:
  status: ('A' for Active; 'I' for Inactive)
    1  A    between atoms: N_4  and  C_37
    2  A    between atoms: C_23  and  C_30
                            x       y       z     vdW  Elec       q    Type
                         _______ _______ _______ _____ _____    ______ ____

>  <TORSDO>
F 2

$$$$
=
 OpenBabel11122411213D

 37 43  0  0  1  0  0  0  0  0999 V2000
  189.9860  175.9770  138.1700 C   0  0  0  0  0  2  0  0  0  0  0  0
  190.3820  177.1320  143.0300 C   0  0  0  0  0  0  0  0  0  0  0  0
  187.2260  178.4060  140.6450 C   0  0  0  0  0  0  0  0  0  0  0  0
  191.0320  175.5490  137.2330 N   0  0  0  0  0  0  0  0  0  0  0  0
  187.6380  178.8880  136.8910 O   0  0  0  0  0  0  0  0  0  0  0  0
  187.9710  177.6760  142.8110 C   0  0  0  0  0  0  0  0  0  0  0  0
  187.7660  178.4030  139.3730 C   0  0  0  0  0  0  0  0  0  0  0  0
  189.4140  176.0160  135.2620 C   0  0  2  0  0  3  0  0  0  0  0  0
  188.1950  177.9620  141.4860 C   0  0  0  0  0  0  0  0  0  0  0  0
  186.9510  178.7000  138.1180 C   0  0  2  0  0  3  0  0  0  0  0  0
  186.6760  177.8780  143.3220 C   0  0  0  0  0  3  0  0  0  0  0  0
  190.8490  176.0240  135.8440 C   0  0  0  0  0  2  0  0  0  0  0  0
  189.3230  177.6650  140.8470 N   0  0  0  0  0  0  0  0  0  0  0  0
  191.1470  176.0030  143.6850 C   0  0  0  0  0  1  0  0  0  0  0  0
  184.8220  178.9950  140.1470 C   0  0  0  0  0  2  0  0  0  0  0  0
  185.6460  178.3360  142.4570 C   0  0  0  0  0  3  0  0  0  0  0  0
  190.4170  176.9340  141.4890 C   0  0  0  0  0  2  0  0  0  0  0  0
  188.7270  177.3850  135.3130 C   0  0  0  0  0  2  0  0  0  0  0  0
  188.5650  177.8520  136.7460 C   0  0  1  0  0  3  0  0  0  0  0  0
  185.9130  178.5870  141.0900 C   0  0  0  0  0  0  0  0  0  0  0  0
  189.0790  177.8990  139.5340 C   0  0  0  0  0  0  0  0  0  0  0  0
  189.0360  177.1560  143.5560 O   0  0  0  0  0  0  0  0  0  0  0  0
  185.6580  177.9080  138.0320 C   0  0  0  0  0  0  0  0  0  0  0  0
  191.0700  178.4410  143.3720 C   0  0  0  0  0  1  0  0  0  0  0  0
  189.8050  178.2520  137.2650 O   0  0  0  0  0  0  0  0  0  0  0  0
  188.6080  175.0120  135.8060 O   0  0  0  0  0  1  0  0  0  0  0  0
  190.0260  177.4950  138.4320 C   0  0  2  0  0  3  0  0  0  0  0  0
  184.7140  178.0500  138.9790 C   0  0  0  0  0  3  0  0  0  0  0  0
  185.0890  177.3430  135.6700 C   0  0  0  0  0  3  0  0  0  0  0  0
  185.4280  176.9190  136.9640 C   0  0  0  0  0  0  0  0  0  0  0  0
  185.5790  175.5490  137.2190 C   0  0  0  0  0  3  0  0  0  0  0  0
  185.5150  173.2590  136.4640 O   0  0  0  0  0  1  0  0  0  0  0  0
  185.0240  175.0430  134.9170 C   0  0  0  0  0  3  0  0  0  0  0  0
  185.3730  174.6140  136.2000 C   0  0  0  0  0  0  0  0  0  0  0  0
  184.8840  176.4080  134.6510 C   0  0  0  0  0  3  0  0  0  0  0  0
  192.1280  173.6020  136.2730 C   0  0  0  0  0  1  0  0  0  0  0  0
  191.0500  174.0960  137.2180 C   0  0  0  0  0  2  0  0  0  0  0  0
  2 24  1  0  0  0  0
  2 22  1  0  0  0  0
  2 14  1  0  0  0  0
  3 20  2  0  0  0  0
  3  9  1  0  0  0  0
  4  1  1  0  0  0  0
  6 11  1  0  0  0  0
  6 22  1  0  0  0  0
  7 21  2  0  0  0  0
  7  3  1  0  0  0  0
  8 18  1  0  0  0  0
  8 26  1  1  0  0  0
  8 12  1  0  0  0  0
  9  6  2  0  0  0  0
 10  5  1  6  0  0  0
 10  7  1  0  0  0  0
 12  4  1  0  0  0  0
 13  9  1  0  0  0  0
 13 17  1  0  0  0  0
 15 20  1  0  0  0  0
 16 11  2  0  0  0  0
 17  2  1  0  0  0  0
 19 18  1  6  0  0  0
 19  5  1  0  0  0  0
 19 25  1  0  0  0  0
 20 16  1  0  0  0  0
 21 13  1  0  0  0  0
 23 10  1  0  0  0  0
 23 28  2  0  0  0  0
 25 27  1  0  0  0  0
 27  1  1  6  0  0  0
 27 21  1  0  0  0  0
 28 15  1  0  0  0  0
 29 30  1  0  0  0  0
 30 31  2  0  0  0  0
 30 23  1  0  0  0  0
 33 34  2  0  0  0  0
 34 32  1  0  0  0  0
 34 31  1  0  0  0  0
 35 33  1  0  0  0  0
 35 29  2  0  0  0  0
 36 37  1  0  0  0  0
 37  4  1  0  0  0  0
M  END
>  <MODEL>
3

>  <REMARK>
 VINA RESULT:      -8.8      1.489      1.879
  Name = 
  2 active torsions:
  status: ('A' for Active; 'I' for Inactive)
    1  A    between atoms: N_4  and  C_37
    2  A    between atoms: C_23  and  C_30
                            x       y       z     vdW  Elec       q    Type
                         _______ _______ _______ _____ _____    ______ ____

>  <TORSDO>
F 2

$$$$
=
 OpenBabel11122411213D

 37 43  0  0  1  0  0  0  0  0999 V2000
  188.7420  177.2660  140.7710 C   0  0  0  0  0  2  0  0  0  0  0  0
  184.9600  178.8000  143.6800 C   0  0  0  0  0  0  0  0  0  0  0  0
  184.6200  178.3580  139.5620 C   0  0  0  0  0  0  0  0  0  0  0  0
  190.1840  177.2910  141.0400 N   0  0  0  0  0  0  0  0  0  0  0  0
  187.6360  178.7200  137.2670 O   0  0  0  0  0  0  0  0  0  0  0  0
  183.5710  178.1880  141.7180 C   0  0  0  0  0  0  0  0  0  0  0  0
  185.9190  178.5130  139.1170 C   0  0  0  0  0  0  0  0  0  0  0  0
  190.6300  176.8480  138.5260 C   0  0  2  0  0  3  0  0  0  0  0  0
  184.6540  178.4540  140.9160 C   0  0  0  0  0  0  0  0  0  0  0  0
  186.3300  178.3270  137.6590 C   0  0  2  0  0  3  0  0  0  0  0  0
  182.3620  177.8210  141.0980 C   0  0  0  0  0  3  0  0  0  0  0  0
  191.0310  177.5380  139.8530 C   0  0  0  0  0  2  0  0  0  0  0  0
  185.8850  178.6530  141.3790 N   0  0  0  0  0  0  0  0  0  0  0  0
  185.1820  178.1820  145.0440 C   0  0  0  0  0  1  0  0  0  0  0  0
  183.4380  177.7710  137.4100 C   0  0  0  0  0  2  0  0  0  0  0  0
  182.3080  177.7090  139.6840 C   0  0  0  0  0  3  0  0  0  0  0  0
  186.2150  178.5360  142.8000 C   0  0  0  0  0  2  0  0  0  0  0  0
  189.8550  177.7630  137.5710 C   0  0  0  0  0  2  0  0  0  0  0  0
  188.5460  178.2030  138.1940 C   0  0  1  0  0  3  0  0  0  0  0  0
  183.4560  177.9610  138.8970 C   0  0  0  0  0  0  0  0  0  0  0  0
  186.6940  178.6630  140.2910 C   0  0  0  0  0  0  0  0  0  0  0  0
  183.7540  178.2530  143.1050 O   0  0  0  0  0  0  0  0  0  0  0  0
  185.8210  177.0350  137.0440 C   0  0  0  0  0  0  0  0  0  0  0  0
  184.7920  180.2980  143.8540 C   0  0  0  0  0  1  0  0  0  0  0  0
  188.7840  179.1510  139.1990 O   0  0  0  0  0  0  0  0  0  0  0  0
  189.9760  175.6280  138.7180 O   0  0  0  0  0  1  0  0  0  0  0  0
  188.1990  178.6540  140.3800 C   0  0  2  0  0  3  0  0  0  0  0  0
  184.4990  176.8020  136.9600 C   0  0  0  0  0  3  0  0  0  0  0  0
  187.5970  176.2050  135.5010 C   0  0  0  0  0  3  0  0  0  0  0  0
  186.7430  175.9780  136.5920 C   0  0  0  0  0  0  0  0  0  0  0  0
  186.8040  174.7510  137.2660 C   0  0  0  0  0  3  0  0  0  0  0  0
  187.7350  172.5390  137.5100 O   0  0  0  0  0  1  0  0  0  0  0  0
  188.5280  173.9840  135.7490 C   0  0  0  0  0  3  0  0  0  0  0  0
  187.6890  173.7550  136.8440 C   0  0  0  0  0  0  0  0  0  0  0  0
  188.4830  175.2100  135.0800 C   0  0  0  0  0  3  0  0  0  0  0  0
  190.1730  175.9510  143.0700 C   0  0  0  0  0  1  0  0  0  0  0  0
  190.5560  176.0030  141.6030 C   0  0  0  0  0  2  0  0  0  0  0  0
  1  4  1  0  0  0  0
  2 24  1  0  0  0  0
  2 14  1  0  0  0  0
  3  9  1  0  0  0  0
  4 37  1  0  0  0  0
  5 10  1  0  0  0  0
  5 19  1  0  0  0  0
  6 22  1  0  0  0  0
  7  3  1  0  0  0  0
  7 21  2  0  0  0  0
  8 26  1  1  0  0  0
  8 12  1  0  0  0  0
  9 13  1  0  0  0  0
  9  6  2  0  0  0  0
 10 23  1  1  0  0  0
 10  7  1  0  0  0  0
 11  6  1  0  0  0  0
 12  4  1  0  0  0  0
 13 17  1  0  0  0  0
 15 20  1  0  0  0  0
 16 11  2  0  0  0  0
 17  2  1  0  0  0  0
 18  8  1  0  0  0  0
 19 18  1  6  0  0  0
 19 25  1  0  0  0  0
 20  3  2  0  0  0  0
 20 16  1  0  0  0  0
 21 27  1  0  0  0  0
 21 13  1  0  0  0  0
 22  2  1  0  0  0  0
 25 27  1  0  0  0  0
 27  1  1  6  0  0  0
 28 23  2  0  0  0  0
 28 15  1  0  0  0  0
 29 30  1  0  0  0  0
 30 23  1  0  0  0  0
 30 31  2  0  0  0  0
 33 34  2  0  0  0  0
 34 31  1  0  0  0  0
 34 32  1  0  0  0  0
 35 29  2  0  0  0  0
 35 33  1  0  0  0  0
 37 36  1  0  0  0  0
M  END
>  <MODEL>
4

>  <REMARK>
 VINA RESULT:      -7.6      1.945      4.085
  Name = 
  2 active torsions:
  status: ('A' for Active; 'I' for Inactive)
    1  A    between atoms: N_4  and  C_37
    2  A    between atoms: C_23  and  C_30
                            x       y       z     vdW  Elec       q    Type
                         _______ _______ _______ _____ _____    ______ ____

>  <TORSDO>
F 2

$$$$
=
 OpenBabel11122411213D

 37 43  0  0  1  0  0  0  0  0999 V2000
  186.4230  176.7810  138.7720 C   0  0  0  0  0  2  0  0  0  0  0  0
  189.4830  177.2160  142.7170 C   0  0  0  0  0  0  0  0  0  0  0  0
  185.6030  178.7030  142.6810 C   0  0  0  0  0  0  0  0  0  0  0  0
  186.7590  176.5390  137.3640 N   0  0  0  0  0  0  0  0  0  0  0  0
  183.9060  179.7530  139.4390 O   0  0  0  0  0  0  0  0  0  0  0  0
  187.3790  177.6890  143.9440 C   0  0  0  0  0  0  0  0  0  0  0  0
  185.3540  178.9110  141.3380 C   0  0  0  0  0  0  0  0  0  0  0  0
  184.3490  177.2280  136.7040 C   0  0  2  0  0  3  0  0  0  0  0  0
  186.8510  178.1780  142.7740 C   0  0  0  0  0  0  0  0  0  0  0  0
  183.9980  179.3580  140.7990 C   0  0  2  0  0  3  0  0  0  0  0  0
  186.5900  177.7610  145.1070 C   0  0  0  0  0  3  0  0  0  0  0  0
  185.8660  177.2070  136.3930 C   0  0  0  0  0  2  0  0  0  0  0  0
  187.4250  178.0250  141.5840 N   0  0  0  0  0  0  0  0  0  0  0  0
  190.4260  176.0330  142.6690 C   0  0  0  0  0  1  0  0  0  0  0  0
  183.3540  179.2630  143.6810 C   0  0  0  0  0  2  0  0  0  0  0  0
  185.2790  178.3010  145.0300 C   0  0  0  0  0  3  0  0  0  0  0  0
  188.6550  177.2500  141.4020 C   0  0  0  0  0  2  0  0  0  0  0  0
  183.8710  178.5460  137.3230 C   0  0  0  0  0  2  0  0  0  0  0  0
  184.5470  178.7880  138.6580 C   0  0  1  0  0  3  0  0  0  0  0  0
  184.7620  178.7640  143.7960 C   0  0  0  0  0  0  0  0  0  0  0  0
  186.5120  178.4410  140.6730 C   0  0  0  0  0  0  0  0  0  0  0  0
  188.6520  177.1070  143.8940 O   0  0  0  0  0  0  0  0  0  0  0  0
  182.8340  178.5370  141.3240 C   0  0  0  0  0  0  0  0  0  0  0  0
  190.3090  178.4850  142.8090 C   0  0  0  0  0  1  0  0  0  0  0  0
  185.8870  179.1560  138.4600 O   0  0  0  0  0  0  0  0  0  0  0  0
  183.9260  176.1230  137.4480 O   0  0  0  0  0  1  0  0  0  0  0  0
  186.6750  178.2440  139.1870 C   0  0  2  0  0  3  0  0  0  0  0  0
  182.5750  178.4990  142.6430 C   0  0  0  0  0  3  0  0  0  0  0  0
  182.3190  176.3560  140.2280 C   0  0  0  0  0  3  0  0  0  0  0  0
  182.0060  177.7090  140.4290 C   0  0  0  0  0  0  0  0  0  0  0  0
  180.8780  178.2530  139.7990 C   0  0  0  0  0  3  0  0  0  0  0  0
  178.9780  178.0110  138.3320 O   0  0  0  0  0  1  0  0  0  0  0  0
  180.4120  176.1180  138.7550 C   0  0  0  0  0  3  0  0  0  0  0  0
  180.0870  177.4620  138.9600 C   0  0  0  0  0  0  0  0  0  0  0  0
  181.5270  175.5650  139.3910 C   0  0  0  0  0  3  0  0  0  0  0  0
  188.0050  174.6190  136.5420 C   0  0  0  0  0  1  0  0  0  0  0  0
  186.6950  175.1050  137.1300 C   0  0  0  0  0  2  0  0  0  0  0  0
  2 24  1  0  0  0  0
  2 22  1  0  0  0  0
  3  9  2  0  0  0  0
  3 20  1  0  0  0  0
  4  1  1  0  0  0  0
  6 11  2  0  0  0  0
  7  3  1  0  0  0  0
  8 18  1  0  0  0  0
  8 26  1  1  0  0  0
  9  6  1  0  0  0  0
 10  5  1  6  0  0  0
 10 23  1  0  0  0  0
 10  7  1  0  0  0  0
 12  8  1  0  0  0  0
 12  4  1  0  0  0  0
 13  9  1  0  0  0  0
 14  2  1  0  0  0  0
 15 20  1  0  0  0  0
 16 11  1  0  0  0  0
 17 13  1  0  0  0  0
 17  2  1  0  0  0  0
 19 18  1  6  0  0  0
 19  5  1  0  0  0  0
 20 16  2  0  0  0  0
 21  7  2  0  0  0  0
 21 13  1  0  0  0  0
 22  6  1  0  0  0  0
 23 28  2  0  0  0  0
 25 19  1  0  0  0  0
 25 27  1  0  0  0  0
 27  1  1  1  0  0  0
 27 21  1  0  0  0  0
 28 15  1  0  0  0  0
 29 30  1  0  0  0  0
 30 23  1  0  0  0  0
 31 30  2  0  0  0  0
 32 34  1  0  0  0  0
 33 34  2  0  0  0  0
 33 35  1  0  0  0  0
 34 31  1  0  0  0  0
 35 29  2  0  0  0  0
 36 37  1  0  0  0  0
 37  4  1  0  0  0  0
M  END
>  <MODEL>
5

>  <REMARK>
 VINA RESULT:      -7.0      1.957      2.544
  Name = 
  2 active torsions:
  status: ('A' for Active; 'I' for Inactive)
    1  A    between atoms: N_4  and  C_37
    2  A    between atoms: C_23  and  C_30
                            x       y       z     vdW  Elec       q    Type
                         _______ _______ _______ _____ _____    ______ ____

>  <TORSDO>
F 2

$$$$
