=
 OpenBabel11122412133D

 34 41  0  0  1  0  0  0  0  0999 V2000
  188.2860  178.0140  141.1080 C   0  0  0  0  0  0  0  0  0  0  0  0
  186.5420  178.1710  139.2680 C   0  0  0  0  0  2  0  0  0  0  0  0
  190.0410  177.7450  147.3540 C   0  0  1  0  0  3  0  0  0  0  0  0
  189.6880  177.4390  143.0250 C   0  0  0  0  0  0  0  0  0  0  0  0
  188.7780  177.4800  145.3020 C   0  0  0  0  0  0  0  0  0  0  0  0
  187.9570  177.7590  147.7750 C   0  0  0  0  0  2  0  0  0  0  0  0
  189.2150  178.1320  148.5610 C   0  0  0  0  0  2  0  0  0  0  0  0
  191.3580  176.0530  146.2730 C   0  0  0  0  0  2  0  0  0  0  0  0
  186.0130  179.0660  141.4580 C   0  0  2  0  0  3  0  0  0  0  0  0
  183.0210  178.6510  142.2810 C   0  0  0  0  0  2  0  0  0  0  0  0
  187.5130  177.8450  144.7350 N   0  0  0  0  0  2  0  0  0  0  0  0
  191.2660  176.9700  145.0230 C   0  0  0  0  0  2  0  0  0  0  0  0
  186.0240  178.3860  142.8400 C   0  0  1  0  0  3  0  0  0  0  0  0
  185.1120  178.6760  139.2220 C   0  0  0  0  0  2  0  0  0  0  0  0
  189.8570  177.2780  144.4930 C   0  0  0  0  0  0  0  0  0  0  0  0
  191.0820  176.7450  147.5550 N   0  0  0  0  0  2  0  0  0  0  0  0
  183.7660  177.9930  141.2120 N   0  0  0  0  0  0  0  0  0  0  0  0
  188.4820  177.9480  142.5000 C   0  0  0  0  0  0  0  0  0  0  0  0
  188.8370  177.0870  146.7400 C   0  0  2  0  0  3  0  0  0  0  0  0
  187.4330  178.5000  143.4340 C   0  0  2  0  0  3  0  0  0  0  0  0
  190.5010  177.0930  140.7580 C   0  0  0  0  0  3  0  0  0  0  0  0
  183.6560  178.3600  143.6330 C   0  0  0  0  0  2  0  0  0  0  0  0
  190.6930  177.0180  142.1400 C   0  0  0  0  0  3  0  0  0  0  0  0
  185.0080  179.0440  143.7650 C   0  0  0  0  0  2  0  0  0  0  0  0
  184.6960  178.9960  140.6650 C   0  0  1  0  0  3  0  0  0  0  0  0
  189.2980  177.5800  140.2430 C   0  0  0  0  0  3  0  0  0  0  0  0
  187.0270  178.4780  140.5970 N   0  0  0  0  0  0  0  0  0  0  0  0
  182.8470  177.6820  140.2610 O   0  0  0  0  0  0  0  0  0  0  0  0
  181.6910  178.3750  140.6370 C   0  0  0  0  0  2  0  0  0  0  0  0
  181.4180  180.4620  137.8170 C   0  0  0  0  0  2  0  0  0  0  0  0
  181.2850  178.1530  138.2450 N   0  0  0  0  0  2  0  0  0  0  0  0
  181.0240  178.9780  139.4140 C   0  0  2  0  0  3  0  0  0  0  0  0
  181.4730  179.1040  137.1740 C   0  0  0  0  0  2  0  0  0  0  0  0
  181.5170  180.2720  139.1970 O   0  0  0  0  0  0  0  0  0  0  0  0
  1 18  1  0  0  0  0
  2 27  1  0  0  0  0
  3 16  1  0  0  0  0
  3  7  1  1  0  0  0
  4 15  1  0  0  0  0
  5 19  1  0  0  0  0
  6  7  1  0  0  0  0
  8 16  1  0  0  0  0
  9 27  1  6  0  0  0
  9 13  1  0  0  0  0
 10 22  1  0  0  0  0
 11  5  1  0  0  0  0
 12  8  1  0  0  0  0
 13 20  1  0  0  0  0
 13 24  1  1  0  0  0
 14  2  1  0  0  0  0
 15 12  1  0  0  0  0
 15  5  2  0  0  0  0
 17 10  1  0  0  0  0
 18  4  2  0  0  0  0
 19  3  1  0  0  0  0
 19  6  1  1  0  0  0
 20 18  1  6  0  0  0
 20 11  1  0  0  0  0
 21 23  2  0  0  0  0
 22 24  1  0  0  0  0
 23  4  1  0  0  0  0
 25 14  1  6  0  0  0
 25 17  1  0  0  0  0
 25  9  1  0  0  0  0
 26 21  1  0  0  0  0
 26  1  2  0  0  0  0
 27  1  1  0  0  0  0
 28 29  1  0  0  0  0
 28 17  1  0  0  0  0
 30 34  1  0  0  0  0
 31 32  1  0  0  0  0
 32 29  1  1  0  0  0
 33 30  1  0  0  0  0
 33 31  1  0  0  0  0
 34 32  1  0  0  0  0
M  END
>  <MODEL>
1

>  <REMARK>
 VINA RESULT:     -10.1      0.000      0.000
  Name = 
  3 active torsions:
  status: ('A' for Active; 'I' for Inactive)
    1  A    between atoms: N_17  and  O_28
    2  A    between atoms: O_28  and  C_29
    3  A    between atoms: C_29  and  C_32
                            x       y       z     vdW  Elec       q    Type
                         _______ _______ _______ _____ _____    ______ ____

>  <TORSDO>
F 3

$$$$
=
 OpenBabel11122412133D

 34 41  0  0  1  0  0  0  0  0999 V2000
  188.3390  178.0030  141.0160 C   0  0  0  0  0  0  0  0  0  0  0  0
  186.6460  178.1310  139.1280 C   0  0  0  0  0  2  0  0  0  0  0  0
  189.9220  177.7960  147.3110 C   0  0  1  0  0  3  0  0  0  0  0  0
  189.6920  177.4540  142.9760 C   0  0  0  0  0  0  0  0  0  0  0  0
  188.7180  177.5050  145.2260 C   0  0  0  0  0  0  0  0  0  0  0  0
  187.8260  177.7960  147.6740 C   0  0  0  0  0  2  0  0  0  0  0  0
  189.0590  178.1850  148.4910 C   0  0  0  0  0  2  0  0  0  0  0  0
  191.2820  176.1080  146.2810 C   0  0  0  0  0  2  0  0  0  0  0  0
  186.0480  179.0370  141.2950 C   0  0  2  0  0  3  0  0  0  0  0  0
  183.0380  178.6020  142.0380 C   0  0  0  0  0  2  0  0  0  0  0  0
  187.4670  177.8540  144.6220 N   0  0  0  0  0  2  0  0  0  0  0  0
  191.2170  177.0140  145.0210 C   0  0  0  0  0  2  0  0  0  0  0  0
  186.0270  178.3680  142.6820 C   0  0  1  0  0  3  0  0  0  0  0  0
  185.2130  178.6220  139.0380 C   0  0  0  0  0  2  0  0  0  0  0  0
  189.8210  177.3060  144.4500 C   0  0  0  0  0  0  0  0  0  0  0  0
  190.9650  176.8070  147.5490 N   0  0  0  0  0  2  0  0  0  0  0  0
  183.8180  177.9420  140.9950 N   0  0  0  0  0  0  0  0  0  0  0  0
  188.4970  177.9490  142.4140 C   0  0  0  0  0  0  0  0  0  0  0  0
  188.7410  177.1240  146.6690 C   0  0  2  0  0  3  0  0  0  0  0  0
  187.4170  178.4990  143.3140 C   0  0  2  0  0  3  0  0  0  0  0  0
  190.5710  177.0980  140.7360 C   0  0  0  0  0  3  0  0  0  0  0  0
  183.6380  178.3270  143.4090 C   0  0  0  0  0  2  0  0  0  0  0  0
  190.7250  177.0360  142.1220 C   0  0  0  0  0  3  0  0  0  0  0  0
  184.9790  179.0240  143.5740 C   0  0  0  0  0  2  0  0  0  0  0  0
  184.7540  178.9490  140.4670 C   0  0  1  0  0  3  0  0  0  0  0  0
  189.3790  177.5710  140.1840 C   0  0  0  0  0  3  0  0  0  0  0  0
  187.0900  178.4510  140.4680 N   0  0  0  0  0  0  0  0  0  0  0  0
  182.9290  177.6160  140.0210 O   0  0  0  0  0  0  0  0  0  0  0  0
  181.6850  178.0210  140.5190 C   0  0  0  0  0  2  0  0  0  0  0  0
  180.1690  174.9570  139.6840 C   0  0  0  0  0  2  0  0  0  0  0  0
  179.6450  176.7990  141.0500 N   0  0  0  0  0  2  0  0  0  0  0  0
  180.5910  177.1100  139.9900 C   0  0  2  0  0  3  0  0  0  0  0  0
  179.3010  175.4150  140.8230 C   0  0  0  0  0  2  0  0  0  0  0  0
  181.1590  175.9250  139.5020 O   0  0  0  0  0  0  0  0  0  0  0  0
  1 18  1  0  0  0  0
  2 27  1  0  0  0  0
  3 16  1  0  0  0  0
  3  7  1  1  0  0  0
  4 15  1  0  0  0  0
  5 19  1  0  0  0  0
  6  7  1  0  0  0  0
  8 16  1  0  0  0  0
  9 27  1  6  0  0  0
  9 13  1  0  0  0  0
 10 22  1  0  0  0  0
 11  5  1  0  0  0  0
 12  8  1  0  0  0  0
 13 20  1  0  0  0  0
 13 24  1  1  0  0  0
 14  2  1  0  0  0  0
 15 12  1  0  0  0  0
 15  5  2  0  0  0  0
 17 10  1  0  0  0  0
 18  4  2  0  0  0  0
 19  3  1  0  0  0  0
 19  6  1  1  0  0  0
 20 18  1  6  0  0  0
 20 11  1  0  0  0  0
 21 23  2  0  0  0  0
 22 24  1  0  0  0  0
 23  4  1  0  0  0  0
 25 14  1  6  0  0  0
 25 17  1  0  0  0  0
 25  9  1  0  0  0  0
 26 21  1  0  0  0  0
 26  1  2  0  0  0  0
 27  1  1  0  0  0  0
 28 29  1  0  0  0  0
 28 17  1  0  0  0  0
 30 33  1  0  0  0  0
 32 29  1  1  0  0  0
 32 31  1  0  0  0  0
 33 31  1  0  0  0  0
 34 30  1  0  0  0  0
 34 32  1  0  0  0  0
M  END
>  <MODEL>
2

>  <REMARK>
 VINA RESULT:     -10.1      1.241      1.743
  Name = 
  3 active torsions:
  status: ('A' for Active; 'I' for Inactive)
    1  A    between atoms: N_17  and  O_28
    2  A    between atoms: O_28  and  C_29
    3  A    between atoms: C_29  and  C_32
                            x       y       z     vdW  Elec       q    Type
                         _______ _______ _______ _____ _____    ______ ____

>  <TORSDO>
F 3

$$$$
=
 OpenBabel11122412133D

 34 41  0  0  1  0  0  0  0  0999 V2000
  188.2330  177.9940  140.7920 C   0  0  0  0  0  0  0  0  0  0  0  0
  186.6050  178.1070  138.8470 C   0  0  0  0  0  2  0  0  0  0  0  0
  189.6040  177.8280  147.1380 C   0  0  1  0  0  3  0  0  0  0  0  0
  189.5210  177.4590  142.7990 C   0  0  0  0  0  0  0  0  0  0  0  0
  188.4720  177.5220  145.0150 C   0  0  0  0  0  0  0  0  0  0  0  0
  187.4970  177.8260  147.4300 C   0  0  0  0  0  2  0  0  0  0  0  0
  188.7020  178.2230  148.2850 C   0  0  0  0  0  2  0  0  0  0  0  0
  191.0010  176.1360  146.1640 C   0  0  0  0  0  2  0  0  0  0  0  0
  185.9330  179.0260  140.9870 C   0  0  2  0  0  3  0  0  0  0  0  0
  182.9000  178.5910  141.6310 C   0  0  0  0  0  2  0  0  0  0  0  0
  187.2410  177.8660  144.3670 N   0  0  0  0  0  2  0  0  0  0  0  0
  190.9770  177.0350  144.8970 C   0  0  0  0  0  2  0  0  0  0  0  0
  185.8660  178.3650  142.3770 C   0  0  1  0  0  3  0  0  0  0  0  0
  185.1750  178.5960  138.7060 C   0  0  0  0  0  2  0  0  0  0  0  0
  189.6010  177.3200  144.2780 C   0  0  0  0  0  0  0  0  0  0  0  0
  190.6400  176.8420  147.4170 N   0  0  0  0  0  2  0  0  0  0  0  0
  183.7160  177.9260  140.6190 N   0  0  0  0  0  0  0  0  0  0  0  0
  188.3450  177.9490  142.1940 C   0  0  0  0  0  0  0  0  0  0  0  0
  188.4460  177.1500  146.4600 C   0  0  2  0  0  3  0  0  0  0  0  0
  187.2350  178.5020  143.0540 C   0  0  2  0  0  3  0  0  0  0  0  0
  190.4750  177.0910  140.5920 C   0  0  0  0  0  3  0  0  0  0  0  0
  183.4540  178.3250  143.0230 C   0  0  0  0  0  2  0  0  0  0  0  0
  190.5820  177.0370  141.9840 C   0  0  0  0  0  3  0  0  0  0  0  0
  184.7880  179.0250  143.2290 C   0  0  0  0  0  2  0  0  0  0  0  0
  184.6680  178.9310  140.1160 C   0  0  1  0  0  3  0  0  0  0  0  0
  189.3010  177.5590  139.9980 C   0  0  0  0  0  3  0  0  0  0  0  0
  187.0040  178.4370  140.1990 N   0  0  0  0  0  0  0  0  0  0  0  0
  182.8600  177.5920  139.6180 O   0  0  0  0  0  0  0  0  0  0  0  0
  182.7110  176.2050  139.7200 C   0  0  0  0  0  2  0  0  0  0  0  0
  182.7130  176.1710  136.2010 C   0  0  0  0  0  2  0  0  0  0  0  0
  183.8900  175.0710  137.9140 N   0  0  0  0  0  2  0  0  0  0  0  0
  182.5990  175.5900  138.3360 C   0  0  2  0  0  3  0  0  0  0  0  0
  183.9520  175.3760  136.5030 C   0  0  0  0  0  2  0  0  0  0  0  0
  182.1600  176.5600  137.4230 O   0  0  0  0  0  0  0  0  0  0  0  0
  1 18  1  0  0  0  0
  2 27  1  0  0  0  0
  3 16  1  0  0  0  0
  3  7  1  1  0  0  0
  4 15  1  0  0  0  0
  5 19  1  0  0  0  0
  6  7  1  0  0  0  0
  8 16  1  0  0  0  0
  9 27  1  6  0  0  0
  9 13  1  0  0  0  0
 10 22  1  0  0  0  0
 11  5  1  0  0  0  0
 12  8  1  0  0  0  0
 13 20  1  0  0  0  0
 13 24  1  1  0  0  0
 14  2  1  0  0  0  0
 15 12  1  0  0  0  0
 15  5  2  0  0  0  0
 17 10  1  0  0  0  0
 18  4  2  0  0  0  0
 19  3  1  0  0  0  0
 19  6  1  1  0  0  0
 20 18  1  6  0  0  0
 20 11  1  0  0  0  0
 21 23  2  0  0  0  0
 22 24  1  0  0  0  0
 23  4  1  0  0  0  0
 25 14  1  6  0  0  0
 25 17  1  0  0  0  0
 25  9  1  0  0  0  0
 26 21  1  0  0  0  0
 26  1  2  0  0  0  0
 27  1  1  0  0  0  0
 28 29  1  0  0  0  0
 28 17  1  0  0  0  0
 30 33  1  0  0  0  0
 30 34  1  0  0  0  0
 31 32  1  0  0  0  0
 32 29  1  1  0  0  0
 33 31  1  0  0  0  0
 34 32  1  0  0  0  0
M  END
>  <MODEL>
3

>  <REMARK>
 VINA RESULT:      -9.9      1.567      1.755
  Name = 
  3 active torsions:
  status: ('A' for Active; 'I' for Inactive)
    1  A    between atoms: N_17  and  O_28
    2  A    between atoms: O_28  and  C_29
    3  A    between atoms: C_29  and  C_32
                            x       y       z     vdW  Elec       q    Type
                         _______ _______ _______ _____ _____    ______ ____

>  <TORSDO>
F 3

$$$$
=
 OpenBabel11122412133D

 34 41  0  0  1  0  0  0  0  0999 V2000
  190.2580  177.4540  141.2860 C   0  0  0  0  0  0  0  0  0  0  0  0
  191.2600  176.8800  139.0240 C   0  0  0  0  0  2  0  0  0  0  0  0
  185.2610  179.0050  145.1320 C   0  0  1  0  0  3  0  0  0  0  0  0
  188.9830  177.5930  143.3660 C   0  0  0  0  0  0  0  0  0  0  0  0
  186.5730  178.0500  143.3300 C   0  0  0  0  0  0  0  0  0  0  0  0
  184.0620  178.7970  143.3890 C   0  0  0  0  0  2  0  0  0  0  0  0
  183.9110  179.5420  144.7160 C   0  0  0  0  0  2  0  0  0  0  0  0
  186.4730  177.3270  146.3480 C   0  0  0  0  0  2  0  0  0  0  0  0
  189.2230  178.1910  139.1000 C   0  0  2  0  0  3  0  0  0  0  0  0
  187.2290  177.5290  136.7780 C   0  0  0  0  0  2  0  0  0  0  0  0
  186.6480  178.0620  141.9000 N   0  0  0  0  0  2  0  0  0  0  0  0
  187.7210  177.8820  145.6070 C   0  0  0  0  0  2  0  0  0  0  0  0
  187.8640  177.8820  139.7570 C   0  0  1  0  0  3  0  0  0  0  0  0
  190.8220  177.1280  137.5920 C   0  0  0  0  0  2  0  0  0  0  0  0
  187.6960  177.8260  144.0720 C   0  0  0  0  0  0  0  0  0  0  0  0
  185.3220  178.2600  146.3830 N   0  0  0  0  0  2  0  0  0  0  0  0
  188.3790  176.7530  137.2340 N   0  0  0  0  0  0  0  0  0  0  0  0
  189.0670  177.7630  141.9680 C   0  0  0  0  0  0  0  0  0  0  0  0
  185.2310  178.0370  143.9830 C   0  0  2  0  0  3  0  0  0  0  0  0
  187.9020  178.3570  141.2150 C   0  0  2  0  0  3  0  0  0  0  0  0
  191.2930  176.8320  143.3890 C   0  0  0  0  0  3  0  0  0  0  0  0
  186.2100  177.6820  137.8970 C   0  0  0  0  0  2  0  0  0  0  0  0
  190.1080  177.1300  144.0650 C   0  0  0  0  0  3  0  0  0  0  0  0
  186.7370  178.5800  139.0050 C   0  0  0  0  0  2  0  0  0  0  0  0
  189.4070  177.7230  137.6460 C   0  0  1  0  0  3  0  0  0  0  0  0
  191.3660  176.9840  142.0030 C   0  0  0  0  0  3  0  0  0  0  0  0
  190.3010  177.5750  139.8560 N   0  0  0  0  0  0  0  0  0  0  0  0
  188.8240  176.0790  136.1420 O   0  0  0  0  0  0  0  0  0  0  0  0
  188.3510  174.7720  136.3090 C   0  0  0  0  0  2  0  0  0  0  0  0
  191.4870  173.6710  135.1520 C   0  0  0  0  0  2  0  0  0  0  0  0
  190.3690  173.7530  137.2200 N   0  0  0  0  0  2  0  0  0  0  0  0
  189.4750  173.7780  136.0730 C   0  0  2  0  0  3  0  0  0  0  0  0
  191.6840  173.6090  136.6410 C   0  0  0  0  0  2  0  0  0  0  0  0
  190.1920  174.1420  134.9240 O   0  0  0  0  0  0  0  0  0  0  0  0
  1 18  2  0  0  0  0
  1 26  1  0  0  0  0
  2 27  1  0  0  0  0
  3  7  1  1  0  0  0
  3 16  1  0  0  0  0
  4 23  2  0  0  0  0
  4 15  1  0  0  0  0
  5 19  1  0  0  0  0
  5 15  2  0  0  0  0
  6  7  1  0  0  0  0
  8 16  1  0  0  0  0
  9 13  1  0  0  0  0
  9 27  1  1  0  0  0
 10 17  1  0  0  0  0
 10 22  1  0  0  0  0
 11  5  1  0  0  0  0
 12  8  1  0  0  0  0
 13 24  1  6  0  0  0
 13 20  1  0  0  0  0
 14  2  1  0  0  0  0
 15 12  1  0  0  0  0
 17 25  1  0  0  0  0
 18  4  1  0  0  0  0
 19  6  1  6  0  0  0
 19  3  1  0  0  0  0
 20 11  1  1  0  0  0
 20 18  1  0  0  0  0
 21 23  1  0  0  0  0
 22 24  1  0  0  0  0
 25 14  1  1  0  0  0
 25  9  1  0  0  0  0
 26 21  2  0  0  0  0
 27  1  1  0  0  0  0
 28 29  1  0  0  0  0
 28 17  1  0  0  0  0
 30 33  1  0  0  0  0
 32 29  1  1  0  0  0
 32 31  1  0  0  0  0
 33 31  1  0  0  0  0
 34 30  1  0  0  0  0
 34 32  1  0  0  0  0
M  END
>  <MODEL>
4

>  <REMARK>
 VINA RESULT:      -9.7      3.491      6.219
  Name = 
  3 active torsions:
  status: ('A' for Active; 'I' for Inactive)
    1  A    between atoms: N_17  and  O_28
    2  A    between atoms: O_28  and  C_29
    3  A    between atoms: C_29  and  C_32
                            x       y       z     vdW  Elec       q    Type
                         _______ _______ _______ _____ _____    ______ ____

>  <TORSDO>
F 3

$$$$
=
 OpenBabel11122412133D

 34 41  0  0  1  0  0  0  0  0999 V2000
  190.1310  177.5620  141.5030 C   0  0  0  0  0  0  0  0  0  0  0  0
  190.1690  177.3010  138.9780 C   0  0  0  0  0  2  0  0  0  0  0  0
  187.0520  178.5770  147.1300 C   0  0  1  0  0  3  0  0  0  0  0  0
  189.7480  177.4170  143.9120 C   0  0  0  0  0  0  0  0  0  0  0  0
  187.5320  177.8760  144.8590 C   0  0  0  0  0  0  0  0  0  0  0  0
  185.2720  178.6090  145.9670 C   0  0  0  0  0  2  0  0  0  0  0  0
  185.6750  179.1670  147.3330 C   0  0  0  0  0  2  0  0  0  0  0  0
  188.5440  176.7480  147.5680 C   0  0  0  0  0  2  0  0  0  0  0  0
  188.3850  178.5910  139.9910 C   0  0  2  0  0  3  0  0  0  0  0  0
  185.6280  178.2530  138.5450 C   0  0  0  0  0  2  0  0  0  0  0  0
  187.0600  178.0830  143.5220 N   0  0  0  0  0  2  0  0  0  0  0  0
  189.4460  177.3980  146.4830 C   0  0  0  0  0  2  0  0  0  0  0  0
  187.3630  178.1960  141.0730 C   0  0  1  0  0  3  0  0  0  0  0  0
  189.2350  177.7420  137.8660 C   0  0  0  0  0  2  0  0  0  0  0  0
  188.8380  177.5530  145.0810 C   0  0  0  0  0  0  0  0  0  0  0  0
  187.5430  177.6680  148.1580 N   0  0  0  0  0  2  0  0  0  0  0  0
  186.8230  177.4210  138.4250 N   0  0  0  0  0  0  0  0  0  0  0  0
  189.3050  177.7760  142.6220 C   0  0  0  0  0  0  0  0  0  0  0  0
  186.5380  177.7750  145.9680 C   0  0  2  0  0  3  0  0  0  0  0  0
  187.9740  178.4680  142.4530 C   0  0  2  0  0  3  0  0  0  0  0  0
  191.8510  176.6590  142.9540 C   0  0  0  0  0  3  0  0  0  0  0  0
  185.1190  178.2520  139.9780 C   0  0  0  0  0  2  0  0  0  0  0  0
  191.0280  176.8630  144.0640 C   0  0  0  0  0  3  0  0  0  0  0  0
  186.0730  178.9910  140.9040 C   0  0  0  0  0  2  0  0  0  0  0  0
  187.9800  178.3260  138.5300 C   0  0  1  0  0  3  0  0  0  0  0  0
  191.4010  176.9990  141.6770 C   0  0  0  0  0  3  0  0  0  0  0  0
  189.6350  177.8770  140.1930 N   0  0  0  0  0  0  0  0  0  0  0  0
  186.7850  176.9020  137.1700 O   0  0  0  0  0  0  0  0  0  0  0  0
  185.4590  176.4940  136.9900 C   0  0  0  0  0  2  0  0  0  0  0  0
  186.4300  173.1160  137.1740 C   0  0  0  0  0  2  0  0  0  0  0  0
  184.4490  174.3390  137.5130 N   0  0  0  0  0  2  0  0  0  0  0  0
  185.4100  175.0130  136.6550 C   0  0  2  0  0  3  0  0  0  0  0  0
  185.0660  173.0650  137.8040 C   0  0  0  0  0  2  0  0  0  0  0  0
  186.6810  174.4480  136.8340 O   0  0  0  0  0  0  0  0  0  0  0  0
  1 26  2  0  0  0  0
  1 18  1  0  0  0  0
  2 27  1  0  0  0  0
  3  7  1  1  0  0  0
  3 16  1  0  0  0  0
  4 23  1  0  0  0  0
  4 15  1  0  0  0  0
  5 15  2  0  0  0  0
  5 19  1  0  0  0  0
  6  7  1  0  0  0  0
  8 16  1  0  0  0  0
  9 27  1  1  0  0  0
  9 13  1  0  0  0  0
 10 22  1  0  0  0  0
 11  5  1  0  0  0  0
 12  8  1  0  0  0  0
 13 24  1  6  0  0  0
 13 20  1  0  0  0  0
 14  2  1  0  0  0  0
 15 12  1  0  0  0  0
 17 25  1  0  0  0  0
 17 10  1  0  0  0  0
 18  4  2  0  0  0  0
 19  6  1  6  0  0  0
 19  3  1  0  0  0  0
 20 18  1  1  0  0  0
 20 11  1  0  0  0  0
 21 23  2  0  0  0  0
 22 24  1  0  0  0  0
 25 14  1  6  0  0  0
 25  9  1  0  0  0  0
 26 21  1  0  0  0  0
 27  1  1  0  0  0  0
 28 17  1  0  0  0  0
 29 28  1  0  0  0  0
 30 33  1  0  0  0  0
 31 33  1  0  0  0  0
 32 34  1  0  0  0  0
 32 29  1  1  0  0  0
 32 31  1  0  0  0  0
 34 30  1  0  0  0  0
M  END
>  <MODEL>
5

>  <REMARK>
 VINA RESULT:      -9.6      2.739      4.035
  Name = 
  3 active torsions:
  status: ('A' for Active; 'I' for Inactive)
    1  A    between atoms: N_17  and  O_28
    2  A    between atoms: O_28  and  C_29
    3  A    between atoms: C_29  and  C_32
                            x       y       z     vdW  Elec       q    Type
                         _______ _______ _______ _____ _____    ______ ____

>  <TORSDO>
F 3

$$$$
=
 OpenBabel11122412133D

 34 41  0  0  1  0  0  0  0  0999 V2000
  183.6260  178.5400  143.7470 C   0  0  0  0  0  0  0  0  0  0  0  0
  181.3550  179.3680  142.9680 C   0  0  0  0  0  2  0  0  0  0  0  0
  189.8370  176.9590  142.6980 C   0  0  1  0  0  3  0  0  0  0  0  0
  185.9820  178.2010  144.3000 C   0  0  0  0  0  0  0  0  0  0  0  0
  187.6750  178.0440  142.5320 C   0  0  2  0  0  3  0  0  0  0  0  0
  189.4960  177.6010  140.7000 C   0  0  0  0  0  2  0  0  0  0  0  0
  190.5000  176.6630  141.3720 C   0  0  0  0  0  2  0  0  0  0  0  0
  189.8660  178.2510  144.7210 C   0  0  0  0  0  2  0  0  0  0  0  0
  182.8280  178.3120  141.3590 C   0  0  2  0  0  3  0  0  0  0  0  0
  182.6720  179.5900  138.5040 C   0  0  0  0  0  2  0  0  0  0  0  0
  186.6270  178.2670  141.5790 N   0  0  0  0  0  2  0  0  0  0  0  0
  188.4360  177.6870  144.9440 C   0  0  0  0  0  2  0  0  0  0  0  0
  184.2720  178.6630  140.9510 C   0  0  1  0  0  3  0  0  0  0  0  0
  180.6680  179.4200  141.6160 C   0  0  0  0  0  2  0  0  0  0  0  0
  187.3910  178.0050  143.8650 C   0  0  2  0  0  3  0  0  0  0  0  0
  190.6870  177.4680  143.7670 N   0  0  0  0  0  2  0  0  0  0  0  0
  182.1880  180.1360  139.7690 N   0  0  0  0  0  0  0  0  0  0  0  0
  184.9460  178.2620  143.3450 C   0  0  0  0  0  0  0  0  0  0  0  0
  189.0930  178.1050  142.0710 C   0  0  2  0  0  3  0  0  0  0  0  0
  185.2400  177.9470  141.8990 C   0  0  2  0  0  3  0  0  0  0  0  0
  184.3630  178.6690  146.0540 C   0  0  0  0  0  3  0  0  0  0  0  0
  184.1770  179.3710  138.5570 C   0  0  0  0  0  2  0  0  0  0  0  0
  185.6740  178.4020  145.6540 C   0  0  0  0  0  3  0  0  0  0  0  0
  184.5360  178.2420  139.5110 C   0  0  0  0  0  2  0  0  0  0  0  0
  181.7020  178.9950  140.5630 C   0  0  1  0  0  3  0  0  0  0  0  0
  183.3430  178.7470  145.1030 C   0  0  0  0  0  3  0  0  0  0  0  0
  182.5990  178.6590  142.7520 N   0  0  0  0  0  0  0  0  0  0  0  0
  181.1330  180.9290  139.4480 O   0  0  0  0  0  0  0  0  0  0  0  0
  181.3190  181.2460  138.0980 C   0  0  0  0  0  2  0  0  0  0  0  0
  181.5560  184.6120  137.0970 C   0  0  0  0  0  2  0  0  0  0  0  0
  180.2880  182.7340  136.4660 N   0  0  0  0  0  2  0  0  0  0  0  0
  180.8170  182.6520  137.8190 C   0  0  2  0  0  3  0  0  0  0  0  0
  180.6980  184.0390  136.0030 C   0  0  0  0  0  2  0  0  0  0  0  0
  181.8680  183.5670  137.9710 O   0  0  0  0  0  0  0  0  0  0  0  0
  1 26  1  0  0  0  0
  3  7  1  6  0  0  0
  3 16  1  0  0  0  0
  4 23  2  0  0  0  0
  5 11  1  1  0  0  0
  5 15  1  0  0  0  0
  6  7  1  0  0  0  0
  8 12  1  0  0  0  0
  9 27  1  1  0  0  0
 10 22  1  0  0  0  0
 10 17  1  0  0  0  0
 13 24  1  6  0  0  0
 13  9  1  0  0  0  0
 13 20  1  0  0  0  0
 14  2  1  0  0  0  0
 15  4  1  0  0  0  0
 15 12  1  6  0  0  0
 16  8  1  0  0  0  0
 17 25  1  0  0  0  0
 18  1  2  0  0  0  0
 18  4  1  0  0  0  0
 19  6  1  6  0  0  0
 19  5  1  0  0  0  0
 19  3  1  0  0  0  0
 20 11  1  6  0  0  0
 20 18  1  0  0  0  0
 22 24  1  0  0  0  0
 23 21  1  0  0  0  0
 25  9  1  0  0  0  0
 25 14  1  1  0  0  0
 26 21  2  0  0  0  0
 27  2  1  0  0  0  0
 27  1  1  0  0  0  0
 28 17  1  0  0  0  0
 29 28  1  0  0  0  0
 30 34  1  0  0  0  0
 31 32  1  0  0  0  0
 32 34  1  0  0  0  0
 32 29  1  6  0  0  0
 33 31  1  0  0  0  0
 33 30  1  0  0  0  0
M  END
>  <MODEL>
6

>  <REMARK>
 VINA RESULT:      -9.5      2.008      4.738
  Name = 
  3 active torsions:
  status: ('A' for Active; 'I' for Inactive)
    1  A    between atoms: N_17  and  O_28
    2  A    between atoms: O_28  and  C_29
    3  A    between atoms: C_29  and  C_32
                            x       y       z     vdW  Elec       q    Type
                         _______ _______ _______ _____ _____    ______ ____

>  <TORSDO>
F 3

$$$$
=
 OpenBabel11122412133D

 34 41  0  0  1  0  0  0  0  0999 V2000
  190.2530  177.4020  141.5610 C   0  0  0  0  0  0  0  0  0  0  0  0
  191.3570  176.7570  139.3670 C   0  0  0  0  0  2  0  0  0  0  0  0
  185.1040  179.1640  145.1040 C   0  0  1  0  0  3  0  0  0  0  0  0
  188.8730  177.6160  143.5660 C   0  0  0  0  0  0  0  0  0  0  0  0
  186.4830  178.1390  143.3930 C   0  0  0  0  0  0  0  0  0  0  0  0
  183.9940  178.9560  143.3020 C   0  0  0  0  0  2  0  0  0  0  0  0
  183.7930  179.7310  144.6050 C   0  0  0  0  0  2  0  0  0  0  0  0
  186.2000  177.4770  146.4120 C   0  0  0  0  0  2  0  0  0  0  0  0
  189.3580  178.1250  139.3100 C   0  0  2  0  0  3  0  0  0  0  0  0
  187.4730  177.4740  136.8960 C   0  0  0  0  0  2  0  0  0  0  0  0
  186.6340  178.1220  141.9680 N   0  0  0  0  0  2  0  0  0  0  0  0
  187.5010  177.9830  145.7310 C   0  0  0  0  0  2  0  0  0  0  0  0
  187.9580  177.8670  139.8980 C   0  0  1  0  0  3  0  0  0  0  0  0
  191.0040  176.9890  137.9100 C   0  0  0  0  0  2  0  0  0  0  0  0
  187.5570  177.8990  144.1980 C   0  0  0  0  0  0  0  0  0  0  0  0
  185.0760  178.4420  146.3690 N   0  0  0  0  0  2  0  0  0  0  0  0
  188.5740  176.6750  137.4270 N   0  0  0  0  0  0  0  0  0  0  0  0
  189.0370  177.7570  142.1730 C   0  0  0  0  0  0  0  0  0  0  0  0
  185.1080  178.1760  143.9720 C   0  0  2  0  0  3  0  0  0  0  0  0
  187.9310  178.3680  141.3470 C   0  0  2  0  0  3  0  0  0  0  0  0
  191.1560  176.7930  143.7280 C   0  0  0  0  0  3  0  0  0  0  0  0
  186.4000  177.6760  137.9550 C   0  0  0  0  0  2  0  0  0  0  0  0
  189.9450  177.1360  144.3340 C   0  0  0  0  0  3  0  0  0  0  0  0
  186.8930  178.5810  139.0740 C   0  0  0  0  0  2  0  0  0  0  0  0
  189.6060  177.6250  137.8760 C   0  0  1  0  0  3  0  0  0  0  0  0
  191.3070  176.9160  142.3450 C   0  0  0  0  0  3  0  0  0  0  0  0
  190.3760  177.4950  140.1340 N   0  0  0  0  0  0  0  0  0  0  0  0
  189.0570  175.9680  136.3730 O   0  0  0  0  0  0  0  0  0  0  0  0
  187.9400  175.7060  135.5720 C   0  0  0  0  0  2  0  0  0  0  0  0
  187.9270  172.4710  136.9570 C   0  0  0  0  0  2  0  0  0  0  0  0
  186.3170  174.1010  136.4230 N   0  0  0  0  0  2  0  0  0  0  0  0
  187.5570  174.2410  135.6760 C   0  0  2  0  0  3  0  0  0  0  0  0
  186.5110  172.9070  137.2120 C   0  0  0  0  0  2  0  0  0  0  0  0
  188.5790  173.5300  136.3220 O   0  0  0  0  0  0  0  0  0  0  0  0
  1 18  2  0  0  0  0
  1 26  1  0  0  0  0
  2 27  1  0  0  0  0
  3  7  1  6  0  0  0
  3 16  1  0  0  0  0
  4 15  1  0  0  0  0
  4 23  2  0  0  0  0
  5 19  1  0  0  0  0
  5 15  2  0  0  0  0
  6  7  1  0  0  0  0
  9 13  1  0  0  0  0
  9 27  1  1  0  0  0
 10 17  1  0  0  0  0
 10 22  1  0  0  0  0
 11  5  1  0  0  0  0
 12  8  1  0  0  0  0
 13 24  1  6  0  0  0
 13 20  1  0  0  0  0
 14  2  1  0  0  0  0
 15 12  1  0  0  0  0
 16  8  1  0  0  0  0
 17 25  1  0  0  0  0
 18  4  1  0  0  0  0
 19  6  1  6  0  0  0
 19  3  1  0  0  0  0
 20 11  1  1  0  0  0
 20 18  1  0  0  0  0
 21 23  1  0  0  0  0
 22 24  1  0  0  0  0
 25 14  1  1  0  0  0
 25  9  1  0  0  0  0
 26 21  2  0  0  0  0
 27  1  1  0  0  0  0
 28 17  1  0  0  0  0
 29 28  1  0  0  0  0
 30 33  1  0  0  0  0
 31 33  1  0  0  0  0
 32 29  1  1  0  0  0
 32 34  1  0  0  0  0
 32 31  1  0  0  0  0
 34 30  1  0  0  0  0
M  END
>  <MODEL>
7

>  <REMARK>
 VINA RESULT:      -9.5      3.437      5.698
  Name = 
  3 active torsions:
  status: ('A' for Active; 'I' for Inactive)
    1  A    between atoms: N_17  and  O_28
    2  A    between atoms: O_28  and  C_29
    3  A    between atoms: C_29  and  C_32
                            x       y       z     vdW  Elec       q    Type
                         _______ _______ _______ _____ _____    ______ ____

>  <TORSDO>
F 3

$$$$
=
 OpenBabel11122412133D

 34 41  0  0  1  0  0  0  0  0999 V2000
  190.5490  177.5400  143.7080 C   0  0  0  0  0  0  0  0  0  0  0  0
  192.3790  176.7330  142.1440 C   0  0  0  0  0  2  0  0  0  0  0  0
  184.4310  179.3200  144.9610 C   0  0  1  0  0  3  0  0  0  0  0  0
  188.5390  177.8800  145.0560 C   0  0  0  0  0  0  0  0  0  0  0  0
  186.3550  178.2100  143.9900 C   0  0  0  0  0  0  0  0  0  0  0  0
  184.0420  178.8340  142.9270 C   0  0  0  0  0  2  0  0  0  0  0  0
  183.3700  179.7340  143.9650 C   0  0  0  0  0  2  0  0  0  0  0  0
  185.0320  177.8720  146.7780 C   0  0  0  0  0  2  0  0  0  0  0  0
  190.4960  177.9420  141.2130 C   0  0  2  0  0  3  0  0  0  0  0  0
  189.6140  176.8930  138.3970 C   0  0  0  0  0  2  0  0  0  0  0  0
  187.0050  178.0440  142.7240 N   0  0  0  0  0  2  0  0  0  0  0  0
  186.4770  178.3900  146.5360 C   0  0  0  0  0  2  0  0  0  0  0  0
  188.9860  177.6520  141.3010 C   0  0  1  0  0  3  0  0  0  0  0  0
  192.5630  176.7750  140.6390 C   0  0  0  0  0  2  0  0  0  0  0  0
  187.0770  178.1380  145.1450 C   0  0  0  0  0  0  0  0  0  0  0  0
  183.9730  178.7450  146.2190 N   0  0  0  0  0  2  0  0  0  0  0  0
  190.4740  176.2380  139.3790 N   0  0  0  0  0  0  0  0  0  0  0  0
  189.1850  177.8750  143.8030 C   0  0  0  0  0  0  0  0  0  0  0  0
  184.8640  178.2140  144.0400 C   0  0  2  0  0  3  0  0  0  0  0  0
  188.4320  178.3100  142.5700 C   0  0  2  0  0  3  0  0  0  0  0  0
  190.6350  177.2430  146.1140 C   0  0  0  0  0  3  0  0  0  0  0  0
  188.2290  177.1360  138.9770 C   0  0  0  0  0  2  0  0  0  0  0  0
  189.2800  177.5660  146.2070 C   0  0  0  0  0  3  0  0  0  0  0  0
  188.2670  178.1930  140.0710 C   0  0  0  0  0  2  0  0  0  0  0  0
  191.2530  177.3020  140.0350 C   0  0  1  0  0  3  0  0  0  0  0  0
  191.2660  177.2210  144.8680 C   0  0  0  0  0  3  0  0  0  0  0  0
  191.1700  177.4810  142.4160 N   0  0  0  0  0  0  0  0  0  0  0  0
  191.3200  175.4530  138.6630 O   0  0  0  0  0  0  0  0  0  0  0  0
  191.7850  176.2740  137.6300 C   0  0  0  0  0  2  0  0  0  0  0  0
  193.8690  175.0490  135.0720 C   0  0  0  0  0  2  0  0  0  0  0  0
  193.9810  176.7530  136.6900 N   0  0  0  0  0  2  0  0  0  0  0  0
  193.0510  175.6880  137.0300 C   0  0  2  0  0  3  0  0  0  0  0  0
  194.5800  176.3190  135.4490 C   0  0  0  0  0  2  0  0  0  0  0  0
  192.7310  174.9560  135.8770 O   0  0  0  0  0  0  0  0  0  0  0  0
  1 18  2  0  0  0  0
  1 26  1  0  0  0  0
  2 27  1  0  0  0  0
  3  7  1  6  0  0  0
  3 16  1  0  0  0  0
  4 15  1  0  0  0  0
  4 23  2  0  0  0  0
  5 19  1  0  0  0  0
  5 15  2  0  0  0  0
  6  7  1  0  0  0  0
  9 13  1  0  0  0  0
  9 27  1  1  0  0  0
 10 22  1  0  0  0  0
 10 17  1  0  0  0  0
 11  5  1  0  0  0  0
 12  8  1  0  0  0  0
 13 24  1  6  0  0  0
 13 20  1  0  0  0  0
 14  2  1  0  0  0  0
 15 12  1  0  0  0  0
 16  8  1  0  0  0  0
 17 25  1  0  0  0  0
 18  4  1  0  0  0  0
 19  6  1  6  0  0  0
 19  3  1  0  0  0  0
 20 11  1  1  0  0  0
 20 18  1  0  0  0  0
 21 23  1  0  0  0  0
 22 24  1  0  0  0  0
 25 14  1  1  0  0  0
 25  9  1  0  0  0  0
 26 21  2  0  0  0  0
 27  1  1  0  0  0  0
 28 17  1  0  0  0  0
 29 28  1  0  0  0  0
 30 33  1  0  0  0  0
 30 34  1  0  0  0  0
 31 32  1  0  0  0  0
 32 29  1  6  0  0  0
 33 31  1  0  0  0  0
 34 32  1  0  0  0  0
M  END
>  <MODEL>
8

>  <REMARK>
 VINA RESULT:      -9.4      3.843      7.385
  Name = 
  3 active torsions:
  status: ('A' for Active; 'I' for Inactive)
    1  A    between atoms: N_17  and  O_28
    2  A    between atoms: O_28  and  C_29
    3  A    between atoms: C_29  and  C_32
                            x       y       z     vdW  Elec       q    Type
                         _______ _______ _______ _____ _____    ______ ____

>  <TORSDO>
F 3

$$$$
=
 OpenBabel11122412133D

 34 41  0  0  1  0  0  0  0  0999 V2000
  186.0420  178.2330  142.5790 C   0  0  0  0  0  0  0  0  0  0  0  0
  185.5060  178.7430  140.1500 C   0  0  0  0  0  2  0  0  0  0  0  0
  190.1580  176.6420  147.3440 C   0  0  1  0  0  3  0  0  0  0  0  0
  186.9050  178.1350  144.8630 C   0  0  0  0  0  0  0  0  0  0  0  0
  189.2520  177.5680  145.2940 C   0  0  0  0  0  0  0  0  0  0  0  0
  191.6670  176.7120  145.8470 C   0  0  0  0  0  2  0  0  0  0  0  0
  191.5320  176.0240  147.2060 C   0  0  0  0  0  2  0  0  0  0  0  0
  188.8350  178.4300  148.2470 C   0  0  0  0  0  2  0  0  0  0  0  0
  187.4210  177.3460  140.6540 C   0  0  2  0  0  3  0  0  0  0  0  0
  189.8390  177.8040  138.7190 C   0  0  0  0  0  2  0  0  0  0  0  0
  189.4410  177.4910  143.8760 N   0  0  0  0  0  2  0  0  0  0  0  0
  187.7170  177.8970  147.3100 C   0  0  0  0  0  2  0  0  0  0  0  0
  188.6500  177.6240  141.5390 C   0  0  1  0  0  3  0  0  0  0  0  0
  186.1850  178.4070  138.8350 C   0  0  0  0  0  2  0  0  0  0  0  0
  188.0260  177.8780  145.8050 C   0  0  0  0  0  0  0  0  0  0  0  0
  189.9090  177.4480  148.5320 N   0  0  0  0  0  2  0  0  0  0  0  0
  188.6690  178.6530  138.9230 N   0  0  0  0  0  0  0  0  0  0  0  0
  187.0700  177.9030  143.4820 C   0  0  0  0  0  0  0  0  0  0  0  0
  190.4510  177.5510  146.1830 C   0  0  2  0  0  3  0  0  0  0  0  0
  188.3200  177.2210  142.9810 C   0  0  2  0  0  3  0  0  0  0  0  0
  184.6740  179.0010  144.4280 C   0  0  0  0  0  3  0  0  0  0  0  0
  190.6260  177.6590  140.0130 C   0  0  0  0  0  2  0  0  0  0  0  0
  185.6970  178.6820  145.3230 C   0  0  0  0  0  3  0  0  0  0  0  0
  189.8570  176.8400  141.0370 C   0  0  0  0  0  2  0  0  0  0  0  0
  187.5320  177.7510  139.1730 C   0  0  1  0  0  3  0  0  0  0  0  0
  184.8490  178.7860  143.0590 C   0  0  0  0  0  3  0  0  0  0  0  0
  186.2570  178.0450  141.1720 N   0  0  0  0  0  0  0  0  0  0  0  0
  188.4690  179.2940  137.7420 O   0  0  0  0  0  0  0  0  0  0  0  0
  189.3220  178.6550  136.8360 C   0  0  0  0  0  2  0  0  0  0  0  0
  187.2220  176.3130  135.2580 C   0  0  0  0  0  2  0  0  0  0  0  0
  187.1800  178.6280  135.6740 N   0  0  0  0  0  2  0  0  0  0  0  0
  188.5180  178.0560  135.6960 C   0  0  2  0  0  3  0  0  0  0  0  0
  186.3260  177.5190  135.3180 C   0  0  0  0  0  2  0  0  0  0  0  0
  188.4340  176.6660  135.8570 O   0  0  0  0  0  0  0  0  0  0  0  0
  1 26  2  0  0  0  0
  1 18  1  0  0  0  0
  2 27  1  0  0  0  0
  3  7  1  1  0  0  0
  3 16  1  0  0  0  0
  4 23  1  0  0  0  0
  4 15  1  0  0  0  0
  5 15  2  0  0  0  0
  5 19  1  0  0  0  0
  6  7  1  0  0  0  0
  8 16  1  0  0  0  0
  9 27  1  1  0  0  0
  9 13  1  0  0  0  0
 10 17  1  0  0  0  0
 10 22  1  0  0  0  0
 11  5  1  0  0  0  0
 12  8  1  0  0  0  0
 13 24  1  6  0  0  0
 13 20  1  0  0  0  0
 14  2  1  0  0  0  0
 15 12  1  0  0  0  0
 17 25  1  0  0  0  0
 18  4  2  0  0  0  0
 19  6  1  6  0  0  0
 19  3  1  0  0  0  0
 20 18  1  1  0  0  0
 20 11  1  0  0  0  0
 21 23  2  0  0  0  0
 22 24  1  0  0  0  0
 25 14  1  1  0  0  0
 25  9  1  0  0  0  0
 26 21  1  0  0  0  0
 27  1  1  0  0  0  0
 28 17  1  0  0  0  0
 29 28  1  0  0  0  0
 30 33  1  0  0  0  0
 30 34  1  0  0  0  0
 31 32  1  0  0  0  0
 32 34  1  0  0  0  0
 32 29  1  1  0  0  0
 33 31  1  0  0  0  0
M  END
>  <MODEL>
9

>  <REMARK>
 VINA RESULT:      -9.3      2.719      4.936
  Name = 
  3 active torsions:
  status: ('A' for Active; 'I' for Inactive)
    1  A    between atoms: N_17  and  O_28
    2  A    between atoms: O_28  and  C_29
    3  A    between atoms: C_29  and  C_32
                            x       y       z     vdW  Elec       q    Type
                         _______ _______ _______ _____ _____    ______ ____

>  <TORSDO>
F 3

$$$$
