=
 OpenBabel11122410353D

 32 38  0  0  1  0  0  0  0  0999 V2000
  187.6120  178.6000  137.0160 C   0  0  1  0  0  3  0  0  0  0  0  0
  187.7400  177.8750  142.2660 C   0  0  0  0  0  0  0  0  0  0  0  0
  183.1940  178.9850  143.6870 C   0  0  0  0  0  3  0  0  0  0  0  0
  183.5660  178.8190  145.0200 C   0  0  0  0  0  3  0  0  0  0  0  0
  189.4410  177.2810  144.0370 C   0  0  0  0  0  0  0  0  0  0  0  0
  189.6880  177.1530  145.4020 C   0  0  0  0  0  0  0  0  0  0  0  0
  188.1650  177.5510  139.7880 C   0  0  1  0  0  3  0  0  0  0  0  0
  185.9380  178.3520  140.5110 C   0  0  0  0  0  2  0  0  0  0  0  0
  189.2870  177.1230  147.6710 C   0  0  1  0  0  3  0  0  0  0  0  0
  186.5210  178.6250  138.0880 C   0  0  2  0  0  3  0  0  0  0  0  0
  184.1330  178.7920  142.6730 C   0  0  0  0  0  3  0  0  0  0  0  0
  186.4040  178.2500  141.9510 C   0  0  0  0  0  0  0  0  0  0  0  0
  185.4600  178.4330  142.9760 C   0  0  0  0  0  0  0  0  0  0  0  0
  187.1460  177.8950  144.6570 C   0  0  0  0  0  0  0  0  0  0  0  0
  190.6930  176.7200  147.4430 N   0  0  0  0  0  0  0  0  0  0  0  0
  189.0450  178.5390  137.5870 C   0  0  0  0  0  2  0  0  0  0  0  0
  187.0710  178.5880  139.5290 C   0  0  2  0  0  3  0  0  0  0  0  0
  190.8750  176.7480  146.0420 N   0  0  0  0  0  0  0  0  0  0  0  0
  189.2670  177.5340  138.7250 C   0  0  0  0  0  2  0  0  0  0  0  0
  186.7780  177.3550  137.2860 C   0  0  1  0  0  3  0  0  0  0  0  0
  184.8770  178.4620  145.3370 C   0  0  0  0  0  3  0  0  0  0  0  0
  185.8340  178.2650  144.3270 C   0  0  0  0  0  0  0  0  0  0  0  0
  187.4800  177.7360  145.9740 N   0  0  0  0  0  0  0  0  0  0  0  0
  188.7670  177.8240  141.1550 C   0  0  0  0  0  2  0  0  0  0  0  0
  190.5630  176.9480  143.1050 C   0  0  0  0  0  1  0  0  0  0  0  0
  189.2520  178.3910  148.5040 C   0  0  0  0  0  1  0  0  0  0  0  0
  188.1250  177.6830  143.6270 C   0  0  0  0  0  0  0  0  0  0  0  0
  188.7380  177.3840  146.3190 C   0  0  0  0  0  0  0  0  0  0  0  0
  185.7620  177.2230  136.2540 N   0  0  0  0  0  2  0  0  0  0  0  0
  184.4620  176.6760  136.4960 C   0  0  0  0  0  0  0  0  0  0  0  0
  184.2700  175.1920  137.1630 S   0  0  0  0  0  0  0  0  0  0  0  0
  183.3110  177.4340  136.1460 N   0  0  0  0  0  1  0  0  0  0  0  0
  1 20  1  0  0  0  0
  1 16  1  1  0  0  0
  1 10  1  0  0  0  0
  2 27  1  0  0  0  0
  3  4  1  0  0  0  0
  4 21  2  0  0  0  0
  5  6  1  0  0  0  0
  6 18  1  0  0  0  0
  6 28  2  0  0  0  0
  7 19  1  6  0  0  0
  7 24  1  0  0  0  0
  8 12  1  0  0  0  0
  9 26  1  1  0  0  0
 10 17  1  0  0  0  0
 11 13  1  0  0  0  0
 11  3  2  0  0  0  0
 12  2  2  0  0  0  0
 12 13  1  0  0  0  0
 13 22  2  0  0  0  0
 14 23  2  0  0  0  0
 15  9  1  0  0  0  0
 16 19  1  0  0  0  0
 17  7  1  0  0  0  0
 17  8  1  0  0  0  0
 18 15  2  0  0  0  0
 20 10  1  0  0  0  0
 22 14  1  0  0  0  0
 22 21  1  0  0  0  0
 23 28  1  0  0  0  0
 24  2  1  0  0  0  0
 25  5  1  0  0  0  0
 27  5  2  0  0  0  0
 27 14  1  0  0  0  0
 28  9  1  0  0  0  0
 29 30  1  0  0  0  0
 29 20  1  0  0  0  0
 30 31  2  0  0  0  0
 32 30  1  0  0  0  0
M  END
>  <MODEL>
1

>  <REMARK>
 VINA RESULT:     -10.8      0.000      0.000
  Name = 
  2 active torsions:
  status: ('A' for Active; 'I' for Inactive)
    1  A    between atoms: C_20  and  N_29
    2  A    between atoms: N_29  and  C_30
                            x       y       z     vdW  Elec       q    Type
                         _______ _______ _______ _____ _____    ______ ____

>  <TORSDO>
F 2

$$$$
=
 OpenBabel11122410353D

 32 38  0  0  1  0  0  0  0  0999 V2000
  180.3590  178.6110  141.3360 C   0  0  1  0  0  3  0  0  0  0  0  0
  185.1280  178.3530  143.6360 C   0  0  0  0  0  0  0  0  0  0  0  0
  188.2160  178.1220  139.8500 C   0  0  0  0  0  3  0  0  0  0  0  0
  189.2860  177.9580  140.7270 C   0  0  0  0  0  3  0  0  0  0  0  0
  186.0790  178.2060  145.9730 C   0  0  0  0  0  0  0  0  0  0  0  0
  187.2280  178.0300  146.7410 C   0  0  0  0  0  0  0  0  0  0  0  0
  182.7210  178.9960  143.1700 C   0  0  1  0  0  3  0  0  0  0  0  0
  184.2420  178.6320  141.2510 C   0  0  0  0  0  2  0  0  0  0  0  0
  189.4580  177.7560  147.2520 C   0  0  1  0  0  3  0  0  0  0  0  0
  181.7800  178.6580  140.7720 C   0  0  2  0  0  3  0  0  0  0  0  0
  186.9200  178.2610  140.3500 C   0  0  0  0  0  3  0  0  0  0  0  0
  185.3660  178.3670  142.2330 C   0  0  0  0  0  0  0  0  0  0  0  0
  186.6740  178.2360  141.7360 C   0  0  0  0  0  0  0  0  0  0  0  0
  187.5450  178.0550  144.0080 C   0  0  0  0  0  0  0  0  0  0  0  0
  188.6990  177.8470  148.5190 N   0  0  0  0  0  0  0  0  0  0  0  0
  180.2940  178.2300  142.8310 C   0  0  0  0  0  2  0  0  0  0  0  0
  182.8670  178.3110  141.8110 C   0  0  2  0  0  3  0  0  0  0  0  0
  187.3490  178.0230  148.1430 N   0  0  0  0  0  0  0  0  0  0  0  0
  181.3030  178.9370  143.7430 C   0  0  0  0  0  2  0  0  0  0  0  0
  181.0280  179.9520  141.0620 C   0  0  1  0  0  3  0  0  0  0  0  0
  189.0590  177.9320  142.1040 C   0  0  0  0  0  3  0  0  0  0  0  0
  187.7600  178.0710  142.6230 C   0  0  0  0  0  0  0  0  0  0  0  0
  188.6170  177.8970  144.8450 N   0  0  0  0  0  0  0  0  0  0  0  0
  183.6990  178.3530  144.1360 C   0  0  0  0  0  2  0  0  0  0  0  0
  184.7930  178.4210  146.7050 C   0  0  0  0  0  1  0  0  0  0  0  0
  190.1470  176.4070  147.1690 C   0  0  0  0  0  1  0  0  0  0  0  0
  186.2210  178.2060  144.5430 C   0  0  0  0  0  0  0  0  0  0  0  0
  188.4360  177.8740  146.1840 C   0  0  0  0  0  0  0  0  0  0  0  0
  180.5150  180.5000  139.8160 N   0  0  0  0  0  2  0  0  0  0  0  0
  181.3190  180.6790  138.6460 C   0  0  0  0  0  0  0  0  0  0  0  0
  180.9410  179.9470  137.2300 S   0  0  0  0  0  0  0  0  0  0  0  0
  182.4740  181.5050  138.7140 N   0  0  0  0  0  1  0  0  0  0  0  0
  1 16  1  1  0  0  0
  2 24  1  0  0  0  0
  2 27  1  0  0  0  0
  3 11  2  0  0  0  0
  3  4  1  0  0  0  0
  4 21  2  0  0  0  0
  5 25  1  0  0  0  0
  5  6  1  0  0  0  0
  6 18  1  0  0  0  0
  7 19  1  1  0  0  0
  7 24  1  0  0  0  0
  8 17  1  0  0  0  0
  8 12  1  0  0  0  0
  9 26  1  1  0  0  0
  9 15  1  0  0  0  0
 10 20  1  0  0  0  0
 10  1  1  0  0  0  0
 10 17  1  0  0  0  0
 11 13  1  0  0  0  0
 12  2  2  0  0  0  0
 13 12  1  0  0  0  0
 13 22  2  0  0  0  0
 14 27  1  0  0  0  0
 14 23  2  0  0  0  0
 16 19  1  0  0  0  0
 17  7  1  0  0  0  0
 18 15  2  0  0  0  0
 20  1  1  0  0  0  0
 21 22  1  0  0  0  0
 22 14  1  0  0  0  0
 23 28  1  0  0  0  0
 27  5  2  0  0  0  0
 28  6  2  0  0  0  0
 28  9  1  0  0  0  0
 29 20  1  0  0  0  0
 30 32  1  0  0  0  0
 30 29  1  0  0  0  0
 31 30  2  0  0  0  0
M  END
>  <MODEL>
2

>  <REMARK>
 VINA RESULT:     -10.4      2.490      5.186
  Name = 
  2 active torsions:
  status: ('A' for Active; 'I' for Inactive)
    1  A    between atoms: C_20  and  N_29
    2  A    between atoms: N_29  and  C_30
                            x       y       z     vdW  Elec       q    Type
                         _______ _______ _______ _____ _____    ______ ____

>  <TORSDO>
F 2

$$$$
=
 OpenBabel11122410353D

 32 38  0  0  1  0  0  0  0  0999 V2000
  188.8360  178.0620  147.8950 C   0  0  1  0  0  3  0  0  0  0  0  0
  186.0110  178.2890  143.4140 C   0  0  0  0  0  0  0  0  0  0  0  0
  189.3880  177.8390  139.9060 C   0  0  0  0  0  3  0  0  0  0  0  0
  188.4110  178.0400  138.9330 C   0  0  0  0  0  3  0  0  0  0  0  0
  183.6080  178.6640  142.7280 C   0  0  0  0  0  0  0  0  0  0  0  0
  182.7300  178.8580  141.6650 C   0  0  0  0  0  0  0  0  0  0  0  0
  186.6920  177.7540  145.7960 C   0  0  1  0  0  3  0  0  0  0  0  0
  188.4390  177.7730  144.0420 C   0  0  0  0  0  2  0  0  0  0  0  0
  181.9830  179.0450  139.4930 C   0  0  1  0  0  3  0  0  0  0  0  0
  189.2100  177.8510  146.4260 C   0  0  2  0  0  3  0  0  0  0  0  0
  189.0390  177.8500  141.2570 C   0  0  0  0  0  3  0  0  0  0  0  0
  187.3630  178.0840  143.0200 C   0  0  0  0  0  0  0  0  0  0  0  0
  187.7070  178.0650  141.6570 C   0  0  0  0  0  0  0  0  0  0  0  0
  185.3800  178.4700  141.0400 C   0  0  0  0  0  0  0  0  0  0  0  0
  180.8170  179.1630  140.3960 N   0  0  0  0  0  0  0  0  0  0  0  0
  187.4150  178.6320  148.0990 C   0  0  0  0  0  2  0  0  0  0  0  0
  188.0940  178.2530  145.4410 C   0  0  2  0  0  3  0  0  0  0  0  0
  181.3330  179.0320  141.7040 N   0  0  0  0  0  0  0  0  0  0  0  0
  186.3090  177.9780  147.2620 C   0  0  0  0  0  2  0  0  0  0  0  0
  188.8680  176.6570  147.3090 C   0  0  1  0  0  3  0  0  0  0  0  0
  187.0850  178.2530  139.3130 C   0  0  0  0  0  3  0  0  0  0  0  0
  186.7180  178.2670  140.6700 C   0  0  0  0  0  0  0  0  0  0  0  0
  184.4420  178.6600  140.0610 N   0  0  0  0  0  0  0  0  0  0  0  0
  185.6940  178.4470  144.8870 C   0  0  0  0  0  2  0  0  0  0  0  0
  183.0200  178.6280  144.1030 C   0  0  0  0  0  1  0  0  0  0  0  0
  182.1360  180.3250  138.6920 C   0  0  0  0  0  1  0  0  0  0  0  0
  184.9990  178.4760  142.4250 C   0  0  0  0  0  0  0  0  0  0  0  0
  183.1480  178.8620  140.3920 C   0  0  0  0  0  0  0  0  0  0  0  0
  190.0950  175.9920  147.7190 N   0  0  0  0  0  2  0  0  0  0  0  0
  191.3830  176.3280  147.1960 C   0  0  0  0  0  0  0  0  0  0  0  0
  191.6810  176.3190  145.5850 S   0  0  0  0  0  0  0  0  0  0  0  0
  192.4310  176.6740  148.0930 N   0  0  0  0  0  1  0  0  0  0  0  0
  1 16  1  6  0  0  0
  2 24  1  0  0  0  0
  3 11  2  0  0  0  0
  4 21  2  0  0  0  0
  4  3  1  0  0  0  0
  5 25  1  0  0  0  0
  6 18  1  0  0  0  0
  6  5  2  0  0  0  0
  7 24  1  6  0  0  0
  7 19  1  0  0  0  0
  8 17  1  0  0  0  0
  9 26  1  1  0  0  0
  9 28  1  0  0  0  0
  9 15  1  0  0  0  0
 10 20  1  0  0  0  0
 10  1  1  0  0  0  0
 11 13  1  0  0  0  0
 12  2  1  0  0  0  0
 12  8  1  0  0  0  0
 13 12  2  0  0  0  0
 14 27  1  0  0  0  0
 15 18  2  0  0  0  0
 17  7  1  0  0  0  0
 17 10  1  0  0  0  0
 19 16  1  0  0  0  0
 20 29  1  0  0  0  0
 20  1  1  0  0  0  0
 21 22  1  0  0  0  0
 22 14  2  0  0  0  0
 22 13  1  0  0  0  0
 23 28  2  0  0  0  0
 23 14  1  0  0  0  0
 27  5  1  0  0  0  0
 27  2  2  0  0  0  0
 28  6  1  0  0  0  0
 30 29  1  0  0  0  0
 30 32  1  0  0  0  0
 31 30  2  0  0  0  0
M  END
>  <MODEL>
3

>  <REMARK>
 VINA RESULT:     -10.3      2.995      8.555
  Name = 
  2 active torsions:
  status: ('A' for Active; 'I' for Inactive)
    1  A    between atoms: C_20  and  N_29
    2  A    between atoms: N_29  and  C_30
                            x       y       z     vdW  Elec       q    Type
                         _______ _______ _______ _____ _____    ______ ____

>  <TORSDO>
F 2

$$$$
=
 OpenBabel11122410353D

 32 38  0  0  1  0  0  0  0  0999 V2000
  181.5890  179.4960  139.1970 C   0  0  1  0  0  3  0  0  0  0  0  0
  186.0040  178.3460  141.8970 C   0  0  0  0  0  0  0  0  0  0  0  0
  184.5550  178.4630  146.5670 C   0  0  0  0  0  3  0  0  0  0  0  0
  185.8680  178.2530  146.9840 C   0  0  0  0  0  3  0  0  0  0  0  0
  188.4470  177.9230  141.4070 C   0  0  0  0  0  0  0  0  0  0  0  0
  189.7140  177.7230  141.9500 C   0  0  0  0  0  0  0  0  0  0  0  0
  184.2180  178.3260  140.0980 C   0  0  1  0  0  3  0  0  0  0  0  0
  183.5220  178.6340  142.4540 C   0  0  0  0  0  2  0  0  0  0  0  0
  191.3540  177.4180  143.5400 C   0  0  1  0  0  3  0  0  0  0  0  0
  181.8510  179.2230  140.6790 C   0  0  2  0  0  3  0  0  0  0  0  0
  184.2610  178.5390  145.2040 C   0  0  0  0  0  3  0  0  0  0  0  0
  184.9740  178.4930  142.8670 C   0  0  0  0  0  0  0  0  0  0  0  0
  185.2750  178.4070  144.2380 C   0  0  0  0  0  0  0  0  0  0  0  0
  187.6330  178.0430  143.7200 C   0  0  0  0  0  0  0  0  0  0  0  0
  191.9770  177.3040  142.2030 N   0  0  0  0  0  0  0  0  0  0  0  0
  182.8750  179.6510  138.3560 C   0  0  0  0  0  2  0  0  0  0  0  0
  183.3500  179.1610  141.0400 C   0  0  2  0  0  3  0  0  0  0  0  0
  190.9270  177.4900  141.2760 N   0  0  0  0  0  0  0  0  0  0  0  0
  183.9690  178.6080  138.6140 C   0  0  0  0  0  2  0  0  0  0  0  0
  181.3790  178.0990  139.7650 C   0  0  1  0  0  3  0  0  0  0  0  0
  186.8860  178.1180  146.0380 C   0  0  0  0  0  3  0  0  0  0  0  0
  186.6040  178.1910  144.6620 C   0  0  0  0  0  0  0  0  0  0  0  0
  188.9120  177.8330  144.1610 N   0  0  0  0  0  0  0  0  0  0  0  0
  185.6750  178.5840  140.4380 C   0  0  0  0  0  2  0  0  0  0  0  0
  188.3280  177.8870  139.9160 C   0  0  0  0  0  1  0  0  0  0  0  0
  191.9760  178.5790  144.2930 C   0  0  0  0  0  1  0  0  0  0  0  0
  187.3490  178.1090  142.3140 C   0  0  0  0  0  0  0  0  0  0  0  0
  189.9210  177.6910  143.2730 C   0  0  0  0  0  0  0  0  0  0  0  0
  179.9580  177.8720  139.9740 N   0  0  0  0  0  2  0  0  0  0  0  0
  179.4410  176.9820  140.9670 C   0  0  0  0  0  0  0  0  0  0  0  0
  178.9960  175.4500  140.5930 S   0  0  0  0  0  0  0  0  0  0  0  0
  179.3050  177.4360  142.3080 N   0  0  0  0  0  1  0  0  0  0  0  0
  1 16  1  6  0  0  0
  1 20  1  0  0  0  0
  1 10  1  0  0  0  0
  2 27  2  0  0  0  0
  2 12  1  0  0  0  0
  3  4  1  0  0  0  0
  5  6  2  0  0  0  0
  5 27  1  0  0  0  0
  6 28  1  0  0  0  0
  7 19  1  6  0  0  0
  7 24  1  0  0  0  0
  7 17  1  0  0  0  0
  8 12  1  0  0  0  0
  9 26  1  1  0  0  0
 10 17  1  0  0  0  0
 11  3  2  0  0  0  0
 12 13  2  0  0  0  0
 13 22  1  0  0  0  0
 13 11  1  0  0  0  0
 14 23  1  0  0  0  0
 14 22  2  0  0  0  0
 15  9  1  0  0  0  0
 16 19  1  0  0  0  0
 17  8  1  0  0  0  0
 18  6  1  0  0  0  0
 18 15  2  0  0  0  0
 20 29  1  0  0  0  0
 20 10  1  0  0  0  0
 21  4  2  0  0  0  0
 22 21  1  0  0  0  0
 24  2  1  0  0  0  0
 25  5  1  0  0  0  0
 27 14  1  0  0  0  0
 28  9  1  0  0  0  0
 28 23  2  0  0  0  0
 29 30  1  0  0  0  0
 30 32  1  0  0  0  0
 31 30  2  0  0  0  0
M  END
>  <MODEL>
4

>  <REMARK>
 VINA RESULT:     -10.1      2.973      4.370
  Name = 
  2 active torsions:
  status: ('A' for Active; 'I' for Inactive)
    1  A    between atoms: C_20  and  N_29
    2  A    between atoms: N_29  and  C_30
                            x       y       z     vdW  Elec       q    Type
                         _______ _______ _______ _____ _____    ______ ____

>  <TORSDO>
F 2

$$$$
=
 OpenBabel11122410353D

 32 38  0  0  1  0  0  0  0  0999 V2000
  191.7180  175.7020  146.7390 C   0  0  1  0  0  3  0  0  0  0  0  0
  188.0960  177.6140  143.3740 C   0  0  0  0  0  0  0  0  0  0  0  0
  184.2780  178.6330  146.2550 C   0  0  0  0  0  3  0  0  0  0  0  0
  183.5210  178.9770  145.1370 C   0  0  0  0  0  3  0  0  0  0  0  0
  187.8510  177.9680  140.8830 C   0  0  0  0  0  0  0  0  0  0  0  0
  186.9910  178.3330  139.8500 C   0  0  0  0  0  0  0  0  0  0  0  0
  190.3260  177.1330  144.4790 C   0  0  1  0  0  3  0  0  0  0  0  0
  188.3270  177.4070  145.9150 C   0  0  0  0  0  2  0  0  0  0  0  0
  185.0790  179.0710  138.7960 C   0  0  1  0  0  3  0  0  0  0  0  0
  190.3470  176.3450  146.9550 C   0  0  2  0  0  3  0  0  0  0  0  0
  185.5990  178.2090  146.0980 C   0  0  0  0  0  3  0  0  0  0  0  0
  187.5110  177.6870  144.6680 C   0  0  0  0  0  0  0  0  0  0  0  0
  186.1830  178.1230  144.8200 C   0  0  0  0  0  0  0  0  0  0  0  0
  185.9750  178.4090  142.4060 C   0  0  0  0  0  0  0  0  0  0  0  0
  186.1240  178.8630  137.7690 N   0  0  0  0  0  0  0  0  0  0  0  0
  192.0280  175.3760  145.2620 C   0  0  0  0  0  2  0  0  0  0  0  0
  189.5440  176.5370  145.6510 C   0  0  2  0  0  3  0  0  0  0  0  0
  187.2670  178.4220  138.4730 N   0  0  0  0  0  0  0  0  0  0  0  0
  191.6920  176.4800  144.2520 C   0  0  0  0  0  2  0  0  0  0  0  0
  191.6120  177.1910  147.0420 C   0  0  1  0  0  3  0  0  0  0  0  0
  184.0860  178.8980  143.8630 C   0  0  0  0  0  3  0  0  0  0  0  0
  185.4150  178.4740  143.6890 C   0  0  0  0  0  0  0  0  0  0  0  0
  185.2080  178.7590  141.3270 N   0  0  0  0  0  0  0  0  0  0  0  0
  189.4770  177.0080  143.2280 C   0  0  0  0  0  2  0  0  0  0  0  0
  189.2590  177.6250  140.5130 C   0  0  0  0  0  1  0  0  0  0  0  0
  183.9030  178.1550  138.5170 C   0  0  0  0  0  1  0  0  0  0  0  0
  187.3350  177.9850  142.2240 C   0  0  0  0  0  0  0  0  0  0  0  0
  185.7230  178.7010  140.0800 C   0  0  0  0  0  0  0  0  0  0  0  0
  191.9410  177.4230  148.4390 N   0  0  0  0  0  2  0  0  0  0  0  0
  192.9970  176.7410  149.1220 C   0  0  0  0  0  0  0  0  0  0  0  0
  193.8460  177.4650  150.3220 S   0  0  0  0  0  0  0  0  0  0  0  0
  193.3220  175.4080  148.7490 N   0  0  0  0  0  1  0  0  0  0  0  0
  1 16  1  6  0  0  0
  1 10  1  0  0  0  0
  1 20  1  0  0  0  0
  2 12  1  0  0  0  0
  4  3  1  0  0  0  0
  5 27  1  0  0  0  0
  6 28  1  0  0  0  0
  6  5  2  0  0  0  0
  7 24  1  6  0  0  0
  7 17  1  0  0  0  0
  9 26  1  6  0  0  0
  9 28  1  0  0  0  0
 10 20  1  0  0  0  0
 11  3  2  0  0  0  0
 12 13  2  0  0  0  0
 12  8  1  0  0  0  0
 13 11  1  0  0  0  0
 14 22  2  0  0  0  0
 15 18  2  0  0  0  0
 15  9  1  0  0  0  0
 17  8  1  0  0  0  0
 17 10  1  0  0  0  0
 18  6  1  0  0  0  0
 19  7  1  0  0  0  0
 19 16  1  0  0  0  0
 20 29  1  0  0  0  0
 21  4  2  0  0  0  0
 22 21  1  0  0  0  0
 22 13  1  0  0  0  0
 23 14  1  0  0  0  0
 24  2  1  0  0  0  0
 25  5  1  0  0  0  0
 27 14  1  0  0  0  0
 27  2  2  0  0  0  0
 28 23  2  0  0  0  0
 29 30  1  0  0  0  0
 30 31  2  0  0  0  0
 32 30  1  0  0  0  0
M  END
>  <MODEL>
5

>  <REMARK>
 VINA RESULT:      -8.8      3.480      8.158
  Name = 
  2 active torsions:
  status: ('A' for Active; 'I' for Inactive)
    1  A    between atoms: C_20  and  N_29
    2  A    between atoms: N_29  and  C_30
                            x       y       z     vdW  Elec       q    Type
                         _______ _______ _______ _____ _____    ______ ____

>  <TORSDO>
F 2

$$$$
=
 OpenBabel11122410353D

 32 38  0  0  1  0  0  0  0  0999 V2000
  193.2710  174.7260  136.0480 C   0  0  1  0  0  3  0  0  0  0  0  0
  189.5910  177.1440  139.0000 C   0  0  0  0  0  0  0  0  0  0  0  0
  191.6730  177.4370  143.4150 C   0  0  0  0  0  3  0  0  0  0  0  0
  190.4970  177.9710  143.9390 C   0  0  0  0  0  3  0  0  0  0  0  0
  187.2200  177.9780  138.7310 C   0  0  0  0  0  0  0  0  0  0  0  0
  186.1060  178.5110  139.3750 C   0  0  0  0  0  0  0  0  0  0  0  0
  191.0620  176.5290  137.0290 C   0  0  1  0  0  3  0  0  0  0  0  0
  192.0340  176.4430  139.3050 C   0  0  0  0  0  2  0  0  0  0  0  0
  184.8040  179.3790  141.0660 C   0  0  1  0  0  3  0  0  0  0  0  0
  193.2870  175.2660  137.4800 C   0  0  2  0  0  3  0  0  0  0  0  0
  191.7420  177.0990  142.0630 C   0  0  0  0  0  3  0  0  0  0  0  0
  190.7100  176.9380  139.8540 C   0  0  0  0  0  0  0  0  0  0  0  0
  190.6370  177.2880  141.2130 C   0  0  0  0  0  0  0  0  0  0  0  0
  188.3340  178.0430  140.9190 C   0  0  0  0  0  0  0  0  0  0  0  0
  184.0200  179.4150  139.8120 N   0  0  0  0  0  0  0  0  0  0  0  0
  191.8680  174.7110  135.4040 C   0  0  0  0  0  2  0  0  0  0  0  0
  191.8950  175.6850  137.9960 C   0  0  2  0  0  3  0  0  0  0  0  0
  184.8680  178.8820  138.8160 N   0  0  0  0  0  0  0  0  0  0  0  0
  191.0320  175.9820  135.6000 C   0  0  0  0  0  2  0  0  0  0  0  0
  193.8140  176.1200  136.3330 C   0  0  1  0  0  3  0  0  0  0  0  0
  189.3920  178.1670  143.1090 C   0  0  0  0  0  3  0  0  0  0  0  0
  189.4470  177.8310  141.7450 C   0  0  0  0  0  0  0  0  0  0  0  0
  187.1950  178.5730  141.4610 N   0  0  0  0  0  0  0  0  0  0  0  0
  189.6500  176.6270  137.5770 C   0  0  0  0  0  2  0  0  0  0  0  0
  187.1200  177.7630  137.2540 C   0  0  0  0  0  1  0  0  0  0  0  0
  184.1010  178.4960  142.0800 C   0  0  0  0  0  1  0  0  0  0  0  0
  188.3890  177.7100  139.5220 C   0  0  0  0  0  0  0  0  0  0  0  0
  186.1080  178.7820  140.6870 C   0  0  0  0  0  0  0  0  0  0  0  0
  195.2680  176.0810  136.3310 N   0  0  0  0  0  2  0  0  0  0  0  0
  196.0710  176.7680  135.3670 C   0  0  0  0  0  0  0  0  0  0  0  0
  197.3060  176.0180  134.5940 S   0  0  0  0  0  0  0  0  0  0  0  0
  195.7970  178.1330  135.0770 N   0  0  0  0  0  1  0  0  0  0  0  0
  1 16  1  6  0  0  0
  1 20  1  0  0  0  0
  1 10  1  0  0  0  0
  2 27  2  0  0  0  0
  2 12  1  0  0  0  0
  3  4  1  0  0  0  0
  5  6  2  0  0  0  0
  5 27  1  0  0  0  0
  6 28  1  0  0  0  0
  7 19  1  6  0  0  0
  7 24  1  0  0  0  0
  7 17  1  0  0  0  0
  8 12  1  0  0  0  0
  9 26  1  1  0  0  0
 10 17  1  0  0  0  0
 11  3  2  0  0  0  0
 12 13  2  0  0  0  0
 13 22  1  0  0  0  0
 13 11  1  0  0  0  0
 14 23  1  0  0  0  0
 14 22  2  0  0  0  0
 15  9  1  0  0  0  0
 16 19  1  0  0  0  0
 17  8  1  0  0  0  0
 18  6  1  0  0  0  0
 18 15  2  0  0  0  0
 20 10  1  0  0  0  0
 21  4  2  0  0  0  0
 22 21  1  0  0  0  0
 24  2  1  0  0  0  0
 25  5  1  0  0  0  0
 27 14  1  0  0  0  0
 28  9  1  0  0  0  0
 28 23  2  0  0  0  0
 29 20  1  0  0  0  0
 30 29  1  0  0  0  0
 31 30  2  0  0  0  0
 32 30  1  0  0  0  0
M  END
>  <MODEL>
6

>  <REMARK>
 VINA RESULT:      -8.7      4.515      7.368
  Name = 
  2 active torsions:
  status: ('A' for Active; 'I' for Inactive)
    1  A    between atoms: C_20  and  N_29
    2  A    between atoms: N_29  and  C_30
                            x       y       z     vdW  Elec       q    Type
                         _______ _______ _______ _____ _____    ______ ____

>  <TORSDO>
F 2

$$$$
=
 OpenBabel11122410353D

 32 38  0  0  1  0  0  0  0  0999 V2000
  191.2640  175.9390  137.8570 C   0  0  1  0  0  3  0  0  0  0  0  0
  188.6780  177.4310  142.2370 C   0  0  0  0  0  0  0  0  0  0  0  0
  191.8180  176.3800  145.8370 C   0  0  0  0  0  3  0  0  0  0  0  0
  190.8640  176.7530  146.7820 C   0  0  0  0  0  3  0  0  0  0  0  0
  186.4020  178.3390  142.8550 C   0  0  0  0  0  0  0  0  0  0  0  0
  185.5380  178.6750  143.8940 C   0  0  0  0  0  0  0  0  0  0  0  0
  189.5460  177.4030  139.8560 C   0  0  1  0  0  3  0  0  0  0  0  0
  191.0450  176.6370  141.6710 C   0  0  0  0  0  2  0  0  0  0  0  0
  184.7860  179.0230  146.0450 C   0  0  1  0  0  3  0  0  0  0  0  0
  191.6880  176.0330  139.3240 C   0  0  2  0  0  3  0  0  0  0  0  0
  191.5150  176.4550  144.4760 C   0  0  0  0  0  3  0  0  0  0  0  0
  189.9510  176.9660  142.6680 C   0  0  0  0  0  0  0  0  0  0  0  0
  190.2530  176.9020  144.0400 C   0  0  0  0  0  0  0  0  0  0  0  0
  188.0290  177.7410  144.5930 C   0  0  0  0  0  0  0  0  0  0  0  0
  183.7190  179.4380  145.1070 N   0  0  0  0  0  0  0  0  0  0  0  0
  189.7490  176.1340  137.6320 C   0  0  0  0  0  2  0  0  0  0  0  0
  190.5140  176.3010  140.2890 C   0  0  2  0  0  3  0  0  0  0  0  0
  184.2390  179.2110  143.8140 N   0  0  0  0  0  0  0  0  0  0  0  0
  189.1090  177.3020  138.3920 C   0  0  0  0  0  2  0  0  0  0  0  0
  191.9860  177.1800  138.3660 C   0  0  1  0  0  3  0  0  0  0  0  0
  189.6090  177.1990  146.3670 C   0  0  0  0  0  3  0  0  0  0  0  0
  189.2900  177.2800  145.0000 C   0  0  0  0  0  0  0  0  0  0  0  0
  187.1160  178.1040  145.5460 N   0  0  0  0  0  0  0  0  0  0  0  0
  188.3310  177.3550  140.7650 C   0  0  0  0  0  2  0  0  0  0  0  0
  185.9160  178.5710  141.4590 C   0  0  0  0  0  1  0  0  0  0  0  0
  184.2810  177.8910  146.9190 C   0  0  0  0  0  1  0  0  0  0  0  0
  187.7020  177.8340  143.1980 C   0  0  0  0  0  0  0  0  0  0  0  0
  185.8930  178.5470  145.1800 C   0  0  0  0  0  0  0  0  0  0  0  0
  193.3830  177.1230  137.9660 N   0  0  0  0  0  2  0  0  0  0  0  0
  193.9320  176.0630  137.1770 C   0  0  0  0  0  0  0  0  0  0  0  0
  193.7050  175.9980  135.5560 S   0  0  0  0  0  0  0  0  0  0  0  0
  194.6890  175.0410  137.8130 N   0  0  0  0  0  1  0  0  0  0  0  0
  1 16  1  1  0  0  0
  1 20  1  0  0  0  0
  1 10  1  0  0  0  0
  2 12  2  0  0  0  0
  2 27  1  0  0  0  0
  3  4  1  0  0  0  0
  5 27  2  0  0  0  0
  5  6  1  0  0  0  0
  6 28  2  0  0  0  0
  7 19  1  6  0  0  0
  7 17  1  0  0  0  0
  7 24  1  0  0  0  0
  8 12  1  0  0  0  0
  9 26  1  1  0  0  0
 10 17  1  0  0  0  0
 11  3  2  0  0  0  0
 12 13  1  0  0  0  0
 13 11  1  0  0  0  0
 13 22  2  0  0  0  0
 14 22  1  0  0  0  0
 14 23  2  0  0  0  0
 15  9  1  0  0  0  0
 16 19  1  0  0  0  0
 17  8  1  0  0  0  0
 18  6  1  0  0  0  0
 18 15  2  0  0  0  0
 20 10  1  0  0  0  0
 21  4  2  0  0  0  0
 22 21  1  0  0  0  0
 24  2  1  0  0  0  0
 25  5  1  0  0  0  0
 27 14  1  0  0  0  0
 28 23  1  0  0  0  0
 28  9  1  0  0  0  0
 29 20  1  0  0  0  0
 30 32  1  0  0  0  0
 30 29  1  0  0  0  0
 31 30  2  0  0  0  0
M  END
>  <MODEL>
7

>  <REMARK>
 VINA RESULT:      -8.6      3.356      5.747
  Name = 
  2 active torsions:
  status: ('A' for Active; 'I' for Inactive)
    1  A    between atoms: C_20  and  N_29
    2  A    between atoms: N_29  and  C_30
                            x       y       z     vdW  Elec       q    Type
                         _______ _______ _______ _____ _____    ______ ____

>  <TORSDO>
F 2

$$$$
=
 OpenBabel11122410353D

 32 38  0  0  1  0  0  0  0  0999 V2000
  190.3400  177.9040  145.3540 C   0  0  1  0  0  3  0  0  0  0  0  0
  185.7790  178.3240  142.6850 C   0  0  0  0  0  0  0  0  0  0  0  0
  187.1840  178.2780  138.0000 C   0  0  0  0  0  3  0  0  0  0  0  0
  185.8680  178.5050  137.6000 C   0  0  0  0  0  3  0  0  0  0  0  0
  183.3250  178.6380  143.2010 C   0  0  0  0  0  0  0  0  0  0  0  0
  182.0560  178.8680  142.6730 C   0  0  0  0  0  0  0  0  0  0  0  0
  187.4770  177.6500  144.4420 C   0  0  1  0  0  3  0  0  0  0  0  0
  188.2290  177.8740  142.0940 C   0  0  0  0  0  2  0  0  0  0  0  0
  180.3980  179.1760  141.1030 C   0  0  1  0  0  3  0  0  0  0  0  0
  190.0040  177.8150  143.8640 C   0  0  2  0  0  3  0  0  0  0  0  0
  187.4900  178.1770  139.3580 C   0  0  0  0  0  3  0  0  0  0  0  0
  186.8020  178.2090  141.7030 C   0  0  0  0  0  0  0  0  0  0  0  0
  186.4860  178.3020  140.3370 C   0  0  0  0  0  0  0  0  0  0  0  0
  184.1320  178.6450  140.8810 C   0  0  0  0  0  0  0  0  0  0  0  0
  179.7730  179.1770  142.4440 N   0  0  0  0  0  0  0  0  0  0  0  0
  189.1650  178.3930  146.2290 C   0  0  0  0  0  2  0  0  0  0  0  0
  188.5570  178.2360  143.5320 C   0  0  2  0  0  3  0  0  0  0  0  0
  180.8310  178.9760  143.3580 N   0  0  0  0  0  0  0  0  0  0  0  0
  187.8030  177.7520  145.9350 C   0  0  0  0  0  2  0  0  0  0  0  0
  190.1110  176.5470  144.7020 C   0  0  1  0  0  3  0  0  0  0  0  0
  184.8600  178.6300  138.5570 C   0  0  0  0  0  3  0  0  0  0  0  0
  185.1540  178.5300  139.9280 C   0  0  0  0  0  0  0  0  0  0  0  0
  182.8490  178.8630  140.4560 N   0  0  0  0  0  0  0  0  0  0  0  0
  186.1680  178.3610  144.1480 C   0  0  0  0  0  2  0  0  0  0  0  0
  183.4300  178.4770  144.6840 C   0  0  0  0  0  1  0  0  0  0  0  0
  180.1590  180.5150  140.4310 C   0  0  0  0  0  1  0  0  0  0  0  0
  184.4250  178.5350  142.2830 C   0  0  0  0  0  0  0  0  0  0  0  0
  181.8470  178.9820  141.3550 C   0  0  0  0  0  0  0  0  0  0  0  0
  191.3940  175.9100  144.4510 N   0  0  0  0  0  2  0  0  0  0  0  0
  192.0840  175.1210  145.4250 C   0  0  0  0  0  0  0  0  0  0  0  0
  192.2200  175.6120  146.9820 S   0  0  0  0  0  0  0  0  0  0  0  0
  192.6690  173.8860  145.0330 N   0  0  0  0  0  1  0  0  0  0  0  0
  1 16  1  1  0  0  0
  2 24  1  0  0  0  0
  3 11  1  0  0  0  0
  4  3  2  0  0  0  0
  4 21  1  0  0  0  0
  5 25  1  0  0  0  0
  6  5  1  0  0  0  0
  6 18  1  0  0  0  0
  7 24  1  1  0  0  0
  7 19  1  0  0  0  0
  8 17  1  0  0  0  0
  9 26  1  1  0  0  0
  9 28  1  0  0  0  0
  9 15  1  0  0  0  0
 10 20  1  0  0  0  0
 10  1  1  0  0  0  0
 11 13  2  0  0  0  0
 12  8  1  0  0  0  0
 12  2  2  0  0  0  0
 13 12  1  0  0  0  0
 14 27  1  0  0  0  0
 15 18  2  0  0  0  0
 17 10  1  0  0  0  0
 17  7  1  0  0  0  0
 19 16  1  0  0  0  0
 20  1  1  0  0  0  0
 21 22  2  0  0  0  0
 22 13  1  0  0  0  0
 22 14  1  0  0  0  0
 23 14  2  0  0  0  0
 23 28  1  0  0  0  0
 27  2  1  0  0  0  0
 27  5  2  0  0  0  0
 28  6  2  0  0  0  0
 29 20  1  0  0  0  0
 29 30  1  0  0  0  0
 30 31  2  0  0  0  0
 32 30  1  0  0  0  0
M  END
>  <MODEL>
8

>  <REMARK>
 VINA RESULT:      -8.6      3.432      8.000
  Name = 
  2 active torsions:
  status: ('A' for Active; 'I' for Inactive)
    1  A    between atoms: C_20  and  N_29
    2  A    between atoms: N_29  and  C_30
                            x       y       z     vdW  Elec       q    Type
                         _______ _______ _______ _____ _____    ______ ____

>  <TORSDO>
F 2

$$$$
=
 OpenBabel11122410353D

 32 38  0  0  1  0  0  0  0  0999 V2000
  190.5510  177.8030  144.9040 C   0  0  1  0  0  3  0  0  0  0  0  0
  186.6280  178.2630  141.3690 C   0  0  0  0  0  0  0  0  0  0  0  0
  188.9510  178.2190  137.0650 C   0  0  0  0  0  3  0  0  0  0  0  0
  187.7450  178.4560  136.4080 C   0  0  0  0  0  3  0  0  0  0  0  0
  184.1220  178.5940  141.3790 C   0  0  0  0  0  0  0  0  0  0  0  0
  182.9880  178.8340  140.6070 C   0  0  0  0  0  0  0  0  0  0  0  0
  187.9310  177.5720  143.4310 C   0  0  1  0  0  3  0  0  0  0  0  0
  189.1430  177.7970  141.2840 C   0  0  0  0  0  2  0  0  0  0  0  0
  181.6840  179.1590  138.7350 C   0  0  1  0  0  3  0  0  0  0  0  0
  190.5240  177.7210  143.3760 C   0  0  2  0  0  3  0  0  0  0  0  0
  188.9750  178.1120  138.4570 C   0  0  0  0  0  3  0  0  0  0  0  0
  187.8280  178.1430  140.6140 C   0  0  0  0  0  0  0  0  0  0  0  0
  187.7950  178.2420  139.2130 C   0  0  0  0  0  0  0  0  0  0  0  0
  185.3820  178.6010  139.2710 C   0  0  0  0  0  0  0  0  0  0  0  0
  180.8010  179.1610  139.9220 N   0  0  0  0  0  0  0  0  0  0  0  0
  189.2280  178.2980  145.5250 C   0  0  0  0  0  2  0  0  0  0  0  0
  189.1770  178.1530  142.7600 C   0  0  2  0  0  3  0  0  0  0  0  0
  181.6500  178.9490  141.0300 N   0  0  0  0  0  0  0  0  0  0  0  0
  187.9500  177.6680  144.9590 C   0  0  0  0  0  2  0  0  0  0  0  0
  190.4500  176.4490  144.2130 C   0  0  1  0  0  3  0  0  0  0  0  0
  186.5650  178.5860  137.1420 C   0  0  0  0  0  3  0  0  0  0  0  0
  186.5750  178.4800  138.5440 C   0  0  0  0  0  0  0  0  0  0  0  0
  184.2130  178.8290  138.5960 N   0  0  0  0  0  0  0  0  0  0  0  0
  186.7140  178.2930  142.8810 C   0  0  0  0  0  2  0  0  0  0  0  0
  183.9250  178.4280  142.8530 C   0  0  0  0  0  1  0  0  0  0  0  0
  181.5950  180.5010  138.0340 C   0  0  0  0  0  1  0  0  0  0  0  0
  185.3850  178.4850  140.7030 C   0  0  0  0  0  0  0  0  0  0  0  0
  183.0500  178.9530  139.2740 C   0  0  0  0  0  0  0  0  0  0  0  0
  191.7540  175.8040  144.2250 N   0  0  0  0  0  2  0  0  0  0  0  0
  192.2260  175.0040  145.3130 C   0  0  0  0  0  0  0  0  0  0  0  0
  192.2090  175.5620  146.8540 S   0  0  0  0  0  0  0  0  0  0  0  0
  192.7250  173.6980  145.0530 N   0  0  0  0  0  1  0  0  0  0  0  0
  1 16  1  1  0  0  0
  2 24  1  0  0  0  0
  3 11  1  0  0  0  0
  4  3  2  0  0  0  0
  4 21  1  0  0  0  0
  5 25  1  0  0  0  0
  6 18  1  0  0  0  0
  6  5  2  0  0  0  0
  7 24  1  6  0  0  0
  7 19  1  0  0  0  0
  8 17  1  0  0  0  0
  9 26  1  1  0  0  0
  9 28  1  0  0  0  0
  9 15  1  0  0  0  0
 10 20  1  0  0  0  0
 10  1  1  0  0  0  0
 11 13  2  0  0  0  0
 12  8  1  0  0  0  0
 12  2  2  0  0  0  0
 13 12  1  0  0  0  0
 14 27  2  0  0  0  0
 15 18  2  0  0  0  0
 17 10  1  0  0  0  0
 17  7  1  0  0  0  0
 19 16  1  0  0  0  0
 20 29  1  0  0  0  0
 20  1  1  0  0  0  0
 21 22  2  0  0  0  0
 22 13  1  0  0  0  0
 22 14  1  0  0  0  0
 23 14  1  0  0  0  0
 23 28  2  0  0  0  0
 27  2  1  0  0  0  0
 27  5  1  0  0  0  0
 28  6  1  0  0  0  0
 29 30  1  0  0  0  0
 30 31  2  0  0  0  0
 32 30  1  0  0  0  0
M  END
>  <MODEL>
9

>  <REMARK>
 VINA RESULT:      -8.4      3.192      8.283
  Name = 
  2 active torsions:
  status: ('A' for Active; 'I' for Inactive)
    1  A    between atoms: C_20  and  N_29
    2  A    between atoms: N_29  and  C_30
                            x       y       z     vdW  Elec       q    Type
                         _______ _______ _______ _____ _____    ______ ____

>  <TORSDO>
F 2

$$$$
