=
 OpenBabel11122410503D

 32 37  0  0  1  0  0  0  0  0999 V2000
  181.3730  177.2810  139.0300 C   0  0  1  0  0  3  0  0  0  0  0  0
  185.0790  176.8370  136.7650 C   0  0  0  0  0  2  0  0  0  0  0  0
  184.3520  175.9210  135.7890 C   0  0  0  0  0  2  0  0  0  0  0  0
  180.7780  174.8280  138.7430 C   0  0  2  0  0  3  0  0  0  0  0  0
  180.1980  173.7440  137.8230 C   0  0  2  0  0  3  0  0  0  0  0  0
  181.1130  178.6560  141.1420 C   0  0  2  0  0  3  0  0  0  0  0  0
  182.4570  179.6130  139.1720 C   0  0  0  0  0  2  0  0  0  0  0  0
  180.2420  172.9010  135.5390 C   0  0  1  0  0  3  0  0  0  0  0  0
  184.1120  177.3140  137.8420 C   0  0  0  0  0  2  0  0  0  0  0  0
  181.9110  178.4950  138.2650 C   0  0  1  0  0  3  0  0  0  0  0  0
  182.9270  178.0650  137.2180 C   0  0  2  0  0  3  0  0  0  0  0  0
  181.2910  176.1550  136.7130 C   0  0  0  0  0  0  0  0  0  0  0  0
  180.7300  171.8230  136.4940 C   0  0  0  0  0  2  0  0  0  0  0  0
  182.4500  179.2680  140.6700 C   0  0  2  0  0  3  0  0  0  0  0  0
  181.0840  172.5210  137.7890 C   0  0  0  0  0  2  0  0  0  0  0  0
  183.2140  176.6820  135.1160 C   0  0  0  0  0  2  0  0  0  0  0  0
  182.2140  177.2230  136.1490 C   0  0  2  0  0  3  0  0  0  0  0  0
  180.9410  175.1770  135.9470 N   0  0  0  0  0  0  0  0  0  0  0  0
  180.4060  177.7850  140.0950 C   0  0  0  0  0  2  0  0  0  0  0  0
  180.0550  174.7520  140.0770 C   0  0  0  0  0  1  0  0  0  0  0  0
  178.9500  172.4550  134.8860 C   0  0  0  0  0  1  0  0  0  0  0  0
  180.7030  176.2350  138.1170 C   0  0  2  0  0  3  0  0  0  0  0  0
  180.0000  174.1560  136.3600 C   0  0  2  0  0  3  0  0  0  0  0  0
  184.9240  179.0030  140.6530 C   0  0  0  0  0  2  0  0  0  0  0  0
  183.6090  178.3410  141.0110 C   0  0  1  0  0  3  0  0  0  0  0  0
  184.4610  178.9740  142.0940 C   0  0  1  0  0  3  0  0  0  0  0  0
  185.1910  177.8780  142.8440 C   0  0  0  0  0  2  0  0  0  0  0  0
  185.3830  178.2760  144.2650 C   0  0  0  0  0  0  0  0  0  0  0  0
  186.4340  177.7430  145.0000 O   0  0  0  0  0  1  0  0  0  0  0  0
  184.5740  179.0690  144.8110 O   0  0  0  0  0  0  0  0  0  0  0  0
  180.1110  179.7690  143.1360 C   0  0  0  0  0  1  0  0  0  0  0  0
  180.1620  179.7390  141.6200 C   0  0  0  0  0  2  0  0  0  0  0  0
  1 19  1  1  0  0  0
  2  9  1  0  0  0  0
  3  2  1  0  0  0  0
  4 20  1  1  0  0  0
  5 15  1  6  0  0  0
  5  4  1  0  0  0  0
  6 32  1  6  0  0  0
  8 21  1  1  0  0  0
  8 23  1  0  0  0  0
  8 13  1  0  0  0  0
 10  1  1  0  0  0  0
 10  7  1  1  0  0  0
 11  9  1  1  0  0  0
 11 10  1  0  0  0  0
 13 15  1  0  0  0  0
 14  7  1  6  0  0  0
 14 25  1  0  0  0  0
 14  6  1  0  0  0  0
 16  3  1  0  0  0  0
 17 16  1  1  0  0  0
 17 12  1  0  0  0  0
 17 11  1  0  0  0  0
 18 12  2  0  0  0  0
 19  6  1  0  0  0  0
 22 12  1  6  0  0  0
 22  4  1  0  0  0  0
 22  1  1  0  0  0  0
 23 18  1  6  0  0  0
 23  5  1  0  0  0  0
 24 26  1  0  0  0  0
 25 24  1  6  0  0  0
 25 26  1  0  0  0  0
 26 27  1  1  0  0  0
 27 28  1  0  0  0  0
 28 30  2  0  0  0  0
 28 29  1  0  0  0  0
 32 31  1  0  0  0  0
M  END
>  <MODEL>
1

>  <REMARK>
 VINA RESULT:      -5.5      0.000      0.000
  Name = 
  4 active torsions:
  status: ('A' for Active; 'I' for Inactive)
    1  A    between atoms: C_7  and  C_19
    2  A    between atoms: C_10  and  C_17
    3  A    between atoms: C_20  and  C_29
    4  A    between atoms: C_29  and  C_30
                            x       y       z     vdW  Elec       q    Type
                         _______ _______ _______ _____ _____    ______ ____

>  <TORSDO>
F 4

$$$$
=
 OpenBabel11122410503D

 32 37  0  0  1  0  0  0  0  0999 V2000
  181.9180  177.3280  139.7720 C   0  0  1  0  0  3  0  0  0  0  0  0
  178.9740  176.0520  136.8100 C   0  0  0  0  0  2  0  0  0  0  0  0
  180.0310  175.1620  136.1690 C   0  0  0  0  0  2  0  0  0  0  0  0
  183.7690  177.4480  138.0360 C   0  0  2  0  0  3  0  0  0  0  0  0
  184.8020  176.6770  137.2010 C   0  0  2  0  0  3  0  0  0  0  0  0
  181.4850  178.9930  141.6310 C   0  0  2  0  0  3  0  0  0  0  0  0
  179.7210  177.1980  141.1110 C   0  0  0  0  0  2  0  0  0  0  0  0
  185.1030  174.6880  135.8300 C   0  0  1  0  0  3  0  0  0  0  0  0
  179.5680  176.7720  138.0140 C   0  0  0  0  0  2  0  0  0  0  0  0
  180.7460  176.4550  140.2350 C   0  0  1  0  0  3  0  0  0  0  0  0
  180.0870  175.7640  139.0510 C   0  0  2  0  0  3  0  0  0  0  0  0
  182.4790  175.3390  138.2300 C   0  0  0  0  0  0  0  0  0  0  0  0
  185.3630  175.9320  134.9950 C   0  0  0  0  0  2  0  0  0  0  0  0
  180.0100  178.6980  141.2810 C   0  0  2  0  0  3  0  0  0  0  0  0
  184.7560  177.0940  135.7510 C   0  0  0  0  0  2  0  0  0  0  0  0
  180.5020  174.1160  137.1740 C   0  0  0  0  0  2  0  0  0  0  0  0
  181.0840  174.7720  138.4350 C   0  0  2  0  0  3  0  0  0  0  0  0
  183.2720  174.7430  137.4050 N   0  0  0  0  0  0  0  0  0  0  0  0
  182.4950  178.0290  140.9950 C   0  0  0  0  0  2  0  0  0  0  0  0
  184.4870  178.5810  138.7480 C   0  0  0  0  0  1  0  0  0  0  0  0
  186.3810  173.8840  135.9560 C   0  0  0  0  0  1  0  0  0  0  0  0
  183.0040  176.5360  139.0160 C   0  0  2  0  0  3  0  0  0  0  0  0
  184.6470  175.1520  137.2020 C   0  0  2  0  0  3  0  0  0  0  0  0
  178.9310  180.7720  140.4290 C   0  0  0  0  0  2  0  0  0  0  0  0
  179.5950  179.4680  140.0350 C   0  0  1  0  0  3  0  0  0  0  0  0
  180.3710  180.7680  139.9620 C   0  0  1  0  0  3  0  0  0  0  0  0
  180.4400  181.2150  138.5150 C   0  0  0  0  0  2  0  0  0  0  0  0
  181.6330  182.0820  138.3080 C   0  0  0  0  0  0  0  0  0  0  0  0
  181.5020  183.2980  137.6510 O   0  0  0  0  0  0  0  0  0  0  0  0
  182.7650  181.6970  138.6970 O   0  0  0  0  0  1  0  0  0  0  0  0
  183.1700  178.9630  143.4690 C   0  0  0  0  0  1  0  0  0  0  0  0
  181.6900  179.0150  143.1350 C   0  0  0  0  0  2  0  0  0  0  0  0
  1 10  1  0  0  0  0
  1 19  1  1  0  0  0
  2  9  1  0  0  0  0
  3  2  1  0  0  0  0
  3 16  1  0  0  0  0
  4 20  1  1  0  0  0
  4 22  1  0  0  0  0
  5 15  1  6  0  0  0
  5 23  1  0  0  0  0
  5  4  1  0  0  0  0
  6 32  1  1  0  0  0
  8 21  1  1  0  0  0
  8 23  1  0  0  0  0
 10  7  1  6  0  0  0
 11  9  1  6  0  0  0
 11 10  1  0  0  0  0
 12 17  1  0  0  0  0
 13 15  1  0  0  0  0
 13  8  1  0  0  0  0
 14  7  1  6  0  0  0
 14  6  1  0  0  0  0
 17 16  1  6  0  0  0
 17 11  1  0  0  0  0
 18 12  2  0  0  0  0
 19  6  1  0  0  0  0
 22 12  1  6  0  0  0
 22  1  1  0  0  0  0
 23 18  1  6  0  0  0
 25 24  1  1  0  0  0
 25 14  1  0  0  0  0
 26 27  1  6  0  0  0
 26 25  1  0  0  0  0
 26 24  1  0  0  0  0
 28 27  1  0  0  0  0
 28 30  1  0  0  0  0
 29 28  2  0  0  0  0
 32 31  1  0  0  0  0
M  END
>  <MODEL>
2

>  <REMARK>
 VINA RESULT:      -5.1      2.554      5.076
  Name = 
  4 active torsions:
  status: ('A' for Active; 'I' for Inactive)
    1  A    between atoms: C_7  and  C_19
    2  A    between atoms: C_10  and  C_17
    3  A    between atoms: C_20  and  C_29
    4  A    between atoms: C_29  and  C_30
                            x       y       z     vdW  Elec       q    Type
                         _______ _______ _______ _____ _____    ______ ____

>  <TORSDO>
F 4

$$$$
=
 OpenBabel11122410503D

 32 37  0  0  1  0  0  0  0  0999 V2000
  186.7370  177.8360  138.4930 C   0  0  1  0  0  3  0  0  0  0  0  0
  182.9700  175.6340  138.6500 C   0  0  0  0  0  2  0  0  0  0  0  0
  182.5460  176.4800  139.8430 C   0  0  0  0  0  2  0  0  0  0  0  0
  186.9460  177.8690  141.0250 C   0  0  2  0  0  3  0  0  0  0  0  0
  186.5080  178.5230  142.3440 C   0  0  2  0  0  3  0  0  0  0  0  0
  188.6040  177.4120  136.8330 C   0  0  2  0  0  3  0  0  0  0  0  0
  186.1670  177.4250  136.0150 C   0  0  0  0  0  2  0  0  0  0  0  0
  184.5640  179.3420  143.5590 C   0  0  1  0  0  3  0  0  0  0  0  0
  184.3500  176.0700  138.1730 C   0  0  0  0  0  2  0  0  0  0  0  0
  185.7270  178.0350  137.3580 C   0  0  1  0  0  3  0  0  0  0  0  0
  184.3450  177.5540  137.7760 C   0  0  2  0  0  3  0  0  0  0  0  0
  184.8440  178.7070  140.0110 C   0  0  0  0  0  0  0  0  0  0  0  0
  185.2220  178.2160  144.3400 C   0  0  0  0  0  2  0  0  0  0  0  0
  187.4920  176.6470  136.0820 C   0  0  2  0  0  3  0  0  0  0  0  0
  186.1220  177.4840  143.3690 C   0  0  0  0  0  2  0  0  0  0  0  0
  182.4750  177.9480  139.4360 C   0  0  0  0  0  2  0  0  0  0  0  0
  183.8280  178.4500  138.9110 C   0  0  2  0  0  3  0  0  0  0  0  0
  184.4200  179.1200  141.1570 N   0  0  0  0  0  0  0  0  0  0  0  0
  188.1040  178.2860  137.9920 C   0  0  0  0  0  2  0  0  0  0  0  0
  188.4640  177.8430  140.9910 C   0  0  0  0  0  1  0  0  0  0  0  0
  184.6670  180.6340  144.3430 C   0  0  0  0  0  1  0  0  0  0  0  0
  186.3470  178.5730  139.7900 C   0  0  2  0  0  3  0  0  0  0  0  0
  185.3110  179.4740  142.2430 C   0  0  2  0  0  3  0  0  0  0  0  0
  186.3360  174.4570  135.8430 C   0  0  0  0  0  2  0  0  0  0  0  0
  187.2760  175.2750  136.7050 C   0  0  1  0  0  3  0  0  0  0  0  0
  187.8280  174.2080  135.7800 C   0  0  1  0  0  3  0  0  0  0  0  0
  188.1760  172.9820  136.6020 C   0  0  0  0  0  2  0  0  0  0  0  0
  188.2030  171.7770  135.7290 C   0  0  0  0  0  0  0  0  0  0  0  0
  189.3370  171.4870  134.9810 O   0  0  0  0  0  0  0  0  0  0  0  0
  187.1880  171.0400  135.6410 O   0  0  0  0  0  1  0  0  0  0  0  0
  189.6950  177.5020  134.5940 C   0  0  0  0  0  1  0  0  0  0  0  0
  189.4150  178.2660  135.8750 C   0  0  0  0  0  2  0  0  0  0  0  0
  1 19  1  6  0  0  0
  1 22  1  0  0  0  0
  2  3  1  0  0  0  0
  4 20  1  6  0  0  0
  4  5  1  0  0  0  0
  5 15  1  1  0  0  0
  6 32  1  6  0  0  0
  6 19  1  0  0  0  0
  8 13  1  0  0  0  0
  8 21  1  1  0  0  0
  9  2  1  0  0  0  0
 10  7  1  6  0  0  0
 10 11  1  0  0  0  0
 10  1  1  0  0  0  0
 11  9  1  1  0  0  0
 11 17  1  0  0  0  0
 12 18  2  0  0  0  0
 14  7  1  1  0  0  0
 14 25  1  0  0  0  0
 14  6  1  0  0  0  0
 15 13  1  0  0  0  0
 16  3  1  0  0  0  0
 17 16  1  1  0  0  0
 17 12  1  0  0  0  0
 22 12  1  1  0  0  0
 22  4  1  0  0  0  0
 23 18  1  6  0  0  0
 23  5  1  0  0  0  0
 23  8  1  0  0  0  0
 25 24  1  6  0  0  0
 26 24  1  0  0  0  0
 26 27  1  1  0  0  0
 26 25  1  0  0  0  0
 28 27  1  0  0  0  0
 29 28  2  0  0  0  0
 30 28  1  0  0  0  0
 31 32  1  0  0  0  0
M  END
>  <MODEL>
3

>  <REMARK>
 VINA RESULT:      -5.0      4.286      8.354
  Name = 
  4 active torsions:
  status: ('A' for Active; 'I' for Inactive)
    1  A    between atoms: C_7  and  C_19
    2  A    between atoms: C_10  and  C_17
    3  A    between atoms: C_20  and  C_29
    4  A    between atoms: C_29  and  C_30
                            x       y       z     vdW  Elec       q    Type
                         _______ _______ _______ _____ _____    ______ ____

>  <TORSDO>
F 4

$$$$
=
 OpenBabel11122410503D

 32 37  0  0  1  0  0  0  0  0999 V2000
  182.6780  177.6860  137.6440 C   0  0  1  0  0  3  0  0  0  0  0  0
  183.6670  177.7380  141.8960 C   0  0  0  0  0  2  0  0  0  0  0  0
  185.1070  178.0830  141.5390 C   0  0  0  0  0  2  0  0  0  0  0  0
  184.8610  176.5350  137.0410 C   0  0  2  0  0  3  0  0  0  0  0  0
  186.3680  176.6870  136.7860 C   0  0  2  0  0  3  0  0  0  0  0  0
  180.3890  177.1710  136.6880 C   0  0  2  0  0  3  0  0  0  0  0  0
  180.5810  178.6970  138.7460 C   0  0  0  0  0  2  0  0  0  0  0  0
  188.3920  177.7320  137.6460 C   0  0  1  0  0  3  0  0  0  0  0  0
  182.8370  177.6130  140.6250 C   0  0  0  0  0  2  0  0  0  0  0  0
  182.0990  178.8070  138.5150 C   0  0  1  0  0  3  0  0  0  0  0  0
  182.8660  178.9230  139.8230 C   0  0  2  0  0  3  0  0  0  0  0  0
  184.9650  178.6180  138.3820 C   0  0  0  0  0  0  0  0  0  0  0  0
  188.5500  176.2190  137.6560 C   0  0  0  0  0  2  0  0  0  0  0  0
  179.9410  177.4370  138.1420 C   0  0  2  0  0  3  0  0  0  0  0  0
  187.1580  175.6390  137.5330 C   0  0  0  0  0  2  0  0  0  0  0  0
  185.1500  179.4170  140.8000 C   0  0  0  0  0  2  0  0  0  0  0  0
  184.3020  179.3760  139.5200 C   0  0  2  0  0  3  0  0  0  0  0  0
  186.2520  178.6510  138.2860 N   0  0  0  0  0  0  0  0  0  0  0  0
  181.8330  177.5880  136.3790 C   0  0  0  0  0  2  0  0  0  0  0  0
  184.2530  175.8010  135.8590 C   0  0  0  0  0  1  0  0  0  0  0  0
  189.3840  178.3400  136.6760 C   0  0  0  0  0  1  0  0  0  0  0  0
  184.1680  177.8870  137.3060 C   0  0  2  0  0  3  0  0  0  0  0  0
  186.9740  178.0340  137.1930 C   0  0  2  0  0  3  0  0  0  0  0  0
  179.1640  176.1020  140.0930 C   0  0  0  0  0  2  0  0  0  0  0  0
  180.2240  176.2220  139.0160 C   0  0  1  0  0  3  0  0  0  0  0  0
  179.0970  175.2190  138.8650 C   0  0  1  0  0  3  0  0  0  0  0  0
  179.6260  173.8380  139.2000 C   0  0  0  0  0  2  0  0  0  0  0  0
  179.7150  173.0150  137.9620 C   0  0  0  0  0  0  0  0  0  0  0  0
  180.4410  171.8310  137.9660 O   0  0  0  0  0  1  0  0  0  0  0  0
  179.1620  173.4090  136.9040 O   0  0  0  0  0  0  0  0  0  0  0  0
  180.1470  179.0030  135.0150 C   0  0  0  0  0  1  0  0  0  0  0  0
  179.4500  177.8430  135.7010 C   0  0  0  0  0  2  0  0  0  0  0  0
  1 19  1  6  0  0  0
  1 10  1  0  0  0  0
  3  2  1  0  0  0  0
  4 20  1  6  0  0  0
  4 22  1  0  0  0  0
  5  4  1  0  0  0  0
  5 23  1  0  0  0  0
  5 15  1  1  0  0  0
  6 32  1  6  0  0  0
  6 14  1  0  0  0  0
  8 21  1  6  0  0  0
  8 13  1  0  0  0  0
  9  2  1  0  0  0  0
 10  7  1  1  0  0  0
 10 11  1  0  0  0  0
 11  9  1  6  0  0  0
 12 17  1  0  0  0  0
 14  7  1  1  0  0  0
 14 25  1  0  0  0  0
 15 13  1  0  0  0  0
 16  3  1  0  0  0  0
 17 11  1  0  0  0  0
 17 16  1  1  0  0  0
 18 12  2  0  0  0  0
 19  6  1  0  0  0  0
 22  1  1  0  0  0  0
 22 12  1  1  0  0  0
 23  8  1  0  0  0  0
 23 18  1  1  0  0  0
 25 24  1  1  0  0  0
 26 25  1  0  0  0  0
 26 27  1  1  0  0  0
 26 24  1  0  0  0  0
 28 29  1  0  0  0  0
 28 27  1  0  0  0  0
 30 28  2  0  0  0  0
 31 32  1  0  0  0  0
M  END
>  <MODEL>
4

>  <REMARK>
 VINA RESULT:      -5.0      3.482      6.756
  Name = 
  4 active torsions:
  status: ('A' for Active; 'I' for Inactive)
    1  A    between atoms: C_7  and  C_19
    2  A    between atoms: C_10  and  C_17
    3  A    between atoms: C_20  and  C_29
    4  A    between atoms: C_29  and  C_30
                            x       y       z     vdW  Elec       q    Type
                         _______ _______ _______ _____ _____    ______ ____

>  <TORSDO>
F 4

$$$$
=
 OpenBabel11122410503D

 32 37  0  0  1  0  0  0  0  0999 V2000
  183.3920  177.7500  137.9580 C   0  0  1  0  0  3  0  0  0  0  0  0
  179.8660  175.8270  136.2460 C   0  0  0  0  0  2  0  0  0  0  0  0
  178.9840  176.8160  136.9970 C   0  0  0  0  0  2  0  0  0  0  0  0
  182.2740  178.0260  140.2220 C   0  0  2  0  0  3  0  0  0  0  0  0
  181.2960  178.8370  141.0840 C   0  0  2  0  0  3  0  0  0  0  0  0
  185.7870  177.0380  137.5380 C   0  0  2  0  0  3  0  0  0  0  0  0
  184.1350  177.1280  135.5710 C   0  0  0  0  0  2  0  0  0  0  0  0
  179.1050  179.9010  141.0640 C   0  0  1  0  0  3  0  0  0  0  0  0
  181.3320  176.1220  136.5350 C   0  0  0  0  0  2  0  0  0  0  0  0
  183.1370  177.8990  136.4540 C   0  0  1  0  0  3  0  0  0  0  0  0
  181.6940  177.5540  136.1160 C   0  0  2  0  0  3  0  0  0  0  0  0
  181.0970  178.8930  138.2200 C   0  0  0  0  0  0  0  0  0  0  0  0
  179.1420  178.8190  142.1320 C   0  0  0  0  0  2  0  0  0  0  0  0
  185.1440  176.2760  136.3590 C   0  0  2  0  0  3  0  0  0  0  0  0
  180.3270  177.9350  141.8110 C   0  0  0  0  0  2  0  0  0  0  0  0
  179.2920  178.2370  136.5360 C   0  0  0  0  0  2  0  0  0  0  0  0
  180.7690  178.5930  136.7670 C   0  0  2  0  0  3  0  0  0  0  0  0
  180.1920  179.4470  138.9540 N   0  0  0  0  0  0  0  0  0  0  0  0
  184.8630  178.0560  138.2190 C   0  0  0  0  0  2  0  0  0  0  0  0
  183.5810  177.8960  140.9850 C   0  0  0  0  0  1  0  0  0  0  0  0
  178.9310  181.2560  141.7180 C   0  0  0  0  0  1  0  0  0  0  0  0
  182.4750  178.6380  138.8210 C   0  0  2  0  0  3  0  0  0  0  0  0
  180.4320  179.8500  140.3250 C   0  0  2  0  0  3  0  0  0  0  0  0
  183.9700  174.1920  135.6710 C   0  0  0  0  0  2  0  0  0  0  0  0
  184.4910  174.9910  136.8490 C   0  0  1  0  0  3  0  0  0  0  0  0
  185.2730  173.7980  136.3340 C   0  0  1  0  0  3  0  0  0  0  0  0
  185.0380  172.6230  137.2630 C   0  0  0  0  0  2  0  0  0  0  0  0
  184.4470  171.4870  136.5040 C   0  0  0  0  0  0  0  0  0  0  0  0
  183.1940  170.9990  136.8500 O   0  0  0  0  0  1  0  0  0  0  0  0
  185.0970  170.9460  135.5730 O   0  0  0  0  0  0  0  0  0  0  0  0
  187.9510  176.7770  136.3260 C   0  0  0  0  0  1  0  0  0  0  0  0
  187.0630  177.7350  137.0990 C   0  0  0  0  0  2  0  0  0  0  0  0
  1 19  1  6  0  0  0
  1 22  1  0  0  0  0
  2  9  1  0  0  0  0
  2  3  1  0  0  0  0
  4 20  1  1  0  0  0
  4  5  1  0  0  0  0
  5 15  1  6  0  0  0
  6 32  1  6  0  0  0
  6 19  1  0  0  0  0
  8 21  1  1  0  0  0
  8 13  1  0  0  0  0
 10  7  1  6  0  0  0
 10  1  1  0  0  0  0
 11 10  1  0  0  0  0
 11  9  1  1  0  0  0
 11 17  1  0  0  0  0
 12 18  2  0  0  0  0
 14  7  1  1  0  0  0
 14 25  1  0  0  0  0
 14  6  1  0  0  0  0
 15 13  1  0  0  0  0
 16  3  1  0  0  0  0
 17 16  1  1  0  0  0
 17 12  1  0  0  0  0
 22 12  1  6  0  0  0
 22  4  1  0  0  0  0
 23 18  1  6  0  0  0
 23  8  1  0  0  0  0
 23  5  1  0  0  0  0
 24 26  1  0  0  0  0
 25 24  1  6  0  0  0
 26 25  1  0  0  0  0
 26 27  1  1  0  0  0
 28 29  1  0  0  0  0
 28 27  1  0  0  0  0
 30 28  2  0  0  0  0
 31 32  1  0  0  0  0
M  END
>  <MODEL>
5

>  <REMARK>
 VINA RESULT:      -4.8      3.577      6.844
  Name = 
  4 active torsions:
  status: ('A' for Active; 'I' for Inactive)
    1  A    between atoms: C_7  and  C_19
    2  A    between atoms: C_10  and  C_17
    3  A    between atoms: C_20  and  C_29
    4  A    between atoms: C_29  and  C_30
                            x       y       z     vdW  Elec       q    Type
                         _______ _______ _______ _____ _____    ______ ____

>  <TORSDO>
F 4

$$$$
=
 OpenBabel11122410503D

 32 37  0  0  1  0  0  0  0  0999 V2000
  186.8550  178.0290  139.5390 C   0  0  1  0  0  3  0  0  0  0  0  0
  182.7390  176.5740  139.6010 C   0  0  0  0  0  2  0  0  0  0  0  0
  182.5520  177.2150  140.9700 C   0  0  0  0  0  2  0  0  0  0  0  0
  187.1940  177.4940  141.9990 C   0  0  2  0  0  3  0  0  0  0  0  0
  186.9630  177.9270  143.4540 C   0  0  2  0  0  3  0  0  0  0  0  0
  188.5140  177.6250  137.6670 C   0  0  2  0  0  3  0  0  0  0  0  0
  186.0910  178.2560  137.0900 C   0  0  0  0  0  2  0  0  0  0  0  0
  185.2830  178.8180  144.9760 C   0  0  1  0  0  3  0  0  0  0  0  0
  184.1520  176.8390  139.0970 C   0  0  0  0  0  2  0  0  0  0  0  0
  185.8490  178.6430  138.5600 C   0  0  1  0  0  3  0  0  0  0  0  0
  184.4220  178.3480  138.9980 C   0  0  2  0  0  3  0  0  0  0  0  0
  185.2520  178.8970  141.3610 C   0  0  0  0  0  0  0  0  0  0  0  0
  185.7440  177.4520  145.4600 C   0  0  0  0  0  2  0  0  0  0  0  0
  187.2360  177.2520  136.8840 C   0  0  2  0  0  3  0  0  0  0  0  0
  186.4310  176.7860  144.2880 C   0  0  0  0  0  2  0  0  0  0  0  0
  182.7530  178.7240  140.8650 C   0  0  0  0  0  2  0  0  0  0  0  0
  184.1510  179.0670  140.3280 C   0  0  2  0  0  3  0  0  0  0  0  0
  184.9770  179.1330  142.6000 N   0  0  0  0  0  0  0  0  0  0  0  0
  188.2570  178.3140  139.0140 C   0  0  0  0  0  2  0  0  0  0  0  0
  188.6740  177.1970  141.8240 C   0  0  0  0  0  1  0  0  0  0  0  0
  185.6800  179.8760  145.9840 C   0  0  0  0  0  1  0  0  0  0  0  0
  186.6860  178.5370  140.9840 C   0  0  2  0  0  3  0  0  0  0  0  0
  185.9740  179.0820  143.6490 C   0  0  2  0  0  3  0  0  0  0  0  0
  185.7810  175.3440  136.2240 C   0  0  0  0  0  2  0  0  0  0  0  0
  186.7840  175.8430  137.2440 C   0  0  1  0  0  3  0  0  0  0  0  0
  187.2210  174.8790  136.1580 C   0  0  1  0  0  3  0  0  0  0  0  0
  187.3360  173.4910  136.7560 C   0  0  0  0  0  2  0  0  0  0  0  0
  188.6900  172.9330  136.4860 C   0  0  0  0  0  0  0  0  0  0  0  0
  189.7830  173.3770  137.2180 O   0  0  0  0  0  1  0  0  0  0  0  0
  188.8500  172.0860  135.5700 O   0  0  0  0  0  0  0  0  0  0  0  0
  189.5980  177.9010  135.4380 C   0  0  0  0  0  1  0  0  0  0  0  0
  189.4300  178.4950  136.8240 C   0  0  0  0  0  2  0  0  0  0  0  0
  1 19  1  6  0  0  0
  1 22  1  0  0  0  0
  2  3  1  0  0  0  0
  4 20  1  1  0  0  0
  4  5  1  0  0  0  0
  5 23  1  0  0  0  0
  5 15  1  1  0  0  0
  6 32  1  6  0  0  0
  6 19  1  0  0  0  0
  8 13  1  0  0  0  0
  8 21  1  1  0  0  0
  9  2  1  0  0  0  0
 10  7  1  6  0  0  0
 10 11  1  0  0  0  0
 10  1  1  0  0  0  0
 11  9  1  1  0  0  0
 11 17  1  0  0  0  0
 12 18  2  0  0  0  0
 14  7  1  1  0  0  0
 14 25  1  0  0  0  0
 14  6  1  0  0  0  0
 15 13  1  0  0  0  0
 16  3  1  0  0  0  0
 17 16  1  1  0  0  0
 17 12  1  0  0  0  0
 22 12  1  1  0  0  0
 22  4  1  0  0  0  0
 23 18  1  6  0  0  0
 23  8  1  0  0  0  0
 25 24  1  6  0  0  0
 26 24  1  0  0  0  0
 26 27  1  1  0  0  0
 26 25  1  0  0  0  0
 28 27  1  0  0  0  0
 28 29  1  0  0  0  0
 30 28  2  0  0  0  0
 31 32  1  0  0  0  0
M  END
>  <MODEL>
6

>  <REMARK>
 VINA RESULT:      -4.7      4.308      8.411
  Name = 
  4 active torsions:
  status: ('A' for Active; 'I' for Inactive)
    1  A    between atoms: C_7  and  C_19
    2  A    between atoms: C_10  and  C_17
    3  A    between atoms: C_20  and  C_29
    4  A    between atoms: C_29  and  C_30
                            x       y       z     vdW  Elec       q    Type
                         _______ _______ _______ _____ _____    ______ ____

>  <TORSDO>
F 4

$$$$
=
 OpenBabel11122410503D

 32 37  0  0  1  0  0  0  0  0999 V2000
  186.9160  177.8940  138.9960 C   0  0  1  0  0  3  0  0  0  0  0  0
  183.8530  177.6520  142.0980 C   0  0  0  0  0  2  0  0  0  0  0  0
  184.8800  178.1150  143.1230 C   0  0  0  0  0  2  0  0  0  0  0  0
  188.6980  176.9350  140.5310 C   0  0  2  0  0  3  0  0  0  0  0  0
  189.6940  177.2000  141.6690 C   0  0  2  0  0  3  0  0  0  0  0  0
  186.5630  177.3200  136.5540 C   0  0  2  0  0  3  0  0  0  0  0  0
  184.7730  178.6780  137.8000 C   0  0  0  0  0  2  0  0  0  0  0  0
  189.9330  178.2930  143.8320 C   0  0  1  0  0  3  0  0  0  0  0  0
  184.4960  177.5830  140.7190 C   0  0  0  0  0  2  0  0  0  0  0  0
  185.7600  178.9000  138.9610 C   0  0  1  0  0  3  0  0  0  0  0  0
  185.0520  178.9540  140.3070 C   0  0  2  0  0  3  0  0  0  0  0  0
  187.4080  178.9010  141.3170 C   0  0  0  0  0  0  0  0  0  0  0  0
  190.1650  176.7980  143.9830 C   0  0  0  0  0  2  0  0  0  0  0  0
  185.0740  177.4350  136.9480 C   0  0  2  0  0  3  0  0  0  0  0  0
  189.5920  176.1450  142.7440 C   0  0  0  0  0  2  0  0  0  0  0  0
  185.3870  179.5060  142.7550 C   0  0  0  0  0  2  0  0  0  0  0  0
  186.0210  179.5190  141.3570 C   0  0  2  0  0  3  0  0  0  0  0  0
  188.1660  179.0220  142.3550 N   0  0  0  0  0  0  0  0  0  0  0  0
  187.5440  177.8500  137.6080 C   0  0  0  0  0  2  0  0  0  0  0  0
  189.4480  176.2650  139.3930 C   0  0  0  0  0  1  0  0  0  0  0  0
  191.2120  179.0400  144.1500 C   0  0  0  0  0  1  0  0  0  0  0  0
  187.9680  178.2150  140.0760 C   0  0  2  0  0  3  0  0  0  0  0  0
  189.5330  178.5440  142.3880 C   0  0  2  0  0  3  0  0  0  0  0  0
  183.1010  176.0840  137.6340 C   0  0  0  0  0  2  0  0  0  0  0  0
  184.6130  176.1720  137.6620 C   0  0  1  0  0  3  0  0  0  0  0  0
  183.9230  175.2550  136.6710 C   0  0  1  0  0  3  0  0  0  0  0  0
  184.0180  173.8300  137.1780 C   0  0  0  0  0  2  0  0  0  0  0  0
  182.9600  172.9950  136.5460 C   0  0  0  0  0  0  0  0  0  0  0  0
  182.5280  171.8320  137.1700 O   0  0  0  0  0  1  0  0  0  0  0  0
  182.4810  173.3240  135.4300 O   0  0  0  0  0  0  0  0  0  0  0  0
  188.0960  177.4740  134.5940 C   0  0  0  0  0  1  0  0  0  0  0  0
  186.8270  178.0130  135.2290 C   0  0  0  0  0  2  0  0  0  0  0  0
  1 19  1  6  0  0  0
  1 22  1  0  0  0  0
  2  3  1  0  0  0  0
  4 20  1  6  0  0  0
  4  5  1  0  0  0  0
  5 23  1  0  0  0  0
  5 15  1  1  0  0  0
  6 32  1  6  0  0  0
  6 14  1  0  0  0  0
  6 19  1  0  0  0  0
  8 13  1  0  0  0  0
  8 21  1  6  0  0  0
  9  2  1  0  0  0  0
 10  7  1  6  0  0  0
 10  1  1  0  0  0  0
 10 11  1  0  0  0  0
 11  9  1  1  0  0  0
 11 17  1  0  0  0  0
 12 17  1  0  0  0  0
 12 18  2  0  0  0  0
 14 25  1  0  0  0  0
 14  7  1  1  0  0  0
 15 13  1  0  0  0  0
 16  3  1  0  0  0  0
 17 16  1  1  0  0  0
 22  4  1  0  0  0  0
 22 12  1  1  0  0  0
 23 18  1  1  0  0  0
 23  8  1  0  0  0  0
 25 24  1  1  0  0  0
 26 27  1  1  0  0  0
 26 24  1  0  0  0  0
 26 25  1  0  0  0  0
 28 29  1  0  0  0  0
 28 27  1  0  0  0  0
 30 28  2  0  0  0  0
 31 32  1  0  0  0  0
M  END
>  <MODEL>
7

>  <REMARK>
 VINA RESULT:      -4.4      4.405      8.877
  Name = 
  4 active torsions:
  status: ('A' for Active; 'I' for Inactive)
    1  A    between atoms: C_7  and  C_19
    2  A    between atoms: C_10  and  C_17
    3  A    between atoms: C_20  and  C_29
    4  A    between atoms: C_29  and  C_30
                            x       y       z     vdW  Elec       q    Type
                         _______ _______ _______ _____ _____    ______ ____

>  <TORSDO>
F 4

$$$$
=
 OpenBabel11122410503D

 32 37  0  0  1  0  0  0  0  0999 V2000
  185.3660  176.8620  137.6430 C   0  0  1  0  0  3  0  0  0  0  0  0
  188.9740  177.7170  139.9480 C   0  0  0  0  0  2  0  0  0  0  0  0
  189.7500  176.7590  139.0540 C   0  0  0  0  0  2  0  0  0  0  0  0
  185.9330  174.3920  137.4700 C   0  0  2  0  0  3  0  0  0  0  0  0
  186.7570  173.3070  136.7620 C   0  0  2  0  0  3  0  0  0  0  0  0
  183.0790  177.8550  138.0960 C   0  0  2  0  0  3  0  0  0  0  0  0
  185.1540  179.3680  138.2010 C   0  0  0  0  0  2  0  0  0  0  0  0
  188.9890  172.7850  135.9400 C   0  0  1  0  0  3  0  0  0  0  0  0
  187.5210  177.7810  139.4950 C   0  0  0  0  0  2  0  0  0  0  0  0
  185.9880  178.2590  137.5340 C   0  0  1  0  0  3  0  0  0  0  0  0
  187.4240  178.2490  138.0350 C   0  0  2  0  0  3  0  0  0  0  0  0
  187.6400  176.0390  136.7510 C   0  0  0  0  0  0  0  0  0  0  0  0
  188.5830  171.7760  137.0030 C   0  0  0  0  0  2  0  0  0  0  0  0
  183.9010  178.8590  138.9330 C   0  0  2  0  0  3  0  0  0  0  0  0
  187.4220  172.3860  137.7570 C   0  0  0  0  0  2  0  0  0  0  0  0
  189.7150  177.2550  137.6120 C   0  0  0  0  0  2  0  0  0  0  0  0
  188.2730  177.3770  137.0970 C   0  0  2  0  0  3  0  0  0  0  0  0
  188.3970  175.1010  136.2920 N   0  0  0  0  0  0  0  0  0  0  0  0
  183.9170  176.9540  137.1780 C   0  0  0  0  0  2  0  0  0  0  0  0
  184.4750  173.9650  137.4520 C   0  0  0  0  0  1  0  0  0  0  0  0
  189.1450  172.0840  134.6060 C   0  0  0  0  0  1  0  0  0  0  0  0
  186.1390  175.7890  136.8510 C   0  0  2  0  0  3  0  0  0  0  0  0
  187.8810  173.8200  135.8540 C   0  0  2  0  0  3  0  0  0  0  0  0
  185.1210  179.2270  141.0700 C   0  0  0  0  0  2  0  0  0  0  0  0
  184.2770  178.2500  140.2770 C   0  0  1  0  0  3  0  0  0  0  0  0
  183.6510  179.0630  141.3930 C   0  0  1  0  0  3  0  0  0  0  0  0
  183.4920  178.1770  142.6120 C   0  0  0  0  0  2  0  0  0  0  0  0
  183.1010  178.9990  143.7900 C   0  0  0  0  0  0  0  0  0  0  0  0
  184.0400  179.8130  144.4110 O   0  0  0  0  0  1  0  0  0  0  0  0
  181.9300  178.9310  144.2450 O   0  0  0  0  0  0  0  0  0  0  0  0
  180.8100  178.8870  138.1200 C   0  0  0  0  0  1  0  0  0  0  0  0
  182.0270  178.5730  137.2700 C   0  0  0  0  0  2  0  0  0  0  0  0
  1 19  1  6  0  0  0
  3  2  1  0  0  0  0
  4 20  1  6  0  0  0
  5  4  1  0  0  0  0
  5 15  1  1  0  0  0
  6 32  1  6  0  0  0
  6 14  1  0  0  0  0
  8 21  1  6  0  0  0
  8 13  1  0  0  0  0
  9  2  1  0  0  0  0
 10  1  1  0  0  0  0
 10 11  1  0  0  0  0
 10  7  1  1  0  0  0
 11  9  1  1  0  0  0
 12 17  1  0  0  0  0
 13 15  1  0  0  0  0
 14  7  1  6  0  0  0
 14 25  1  0  0  0  0
 16  3  1  0  0  0  0
 17 16  1  1  0  0  0
 17 11  1  0  0  0  0
 18 12  2  0  0  0  0
 19  6  1  0  0  0  0
 22 12  1  1  0  0  0
 22  4  1  0  0  0  0
 22  1  1  0  0  0  0
 23  8  1  0  0  0  0
 23 18  1  1  0  0  0
 23  5  1  0  0  0  0
 24 26  1  0  0  0  0
 25 24  1  1  0  0  0
 25 26  1  0  0  0  0
 26 27  1  1  0  0  0
 27 28  1  0  0  0  0
 28 30  2  0  0  0  0
 28 29  1  0  0  0  0
 32 31  1  0  0  0  0
M  END
>  <MODEL>
8

>  <REMARK>
 VINA RESULT:      -4.3      3.412      5.375
  Name = 
  4 active torsions:
  status: ('A' for Active; 'I' for Inactive)
    1  A    between atoms: C_7  and  C_19
    2  A    between atoms: C_10  and  C_17
    3  A    between atoms: C_20  and  C_29
    4  A    between atoms: C_29  and  C_30
                            x       y       z     vdW  Elec       q    Type
                         _______ _______ _______ _____ _____    ______ ____

>  <TORSDO>
F 4

$$$$
=
 OpenBabel11122410503D

 32 37  0  0  1  0  0  0  0  0999 V2000
  182.5890  177.3340  137.8700 C   0  0  1  0  0  3  0  0  0  0  0  0
  185.7960  178.6250  140.5370 C   0  0  0  0  0  2  0  0  0  0  0  0
  186.7940  177.8630  139.6750 C   0  0  0  0  0  2  0  0  0  0  0  0
  183.5760  175.0040  137.6370 C   0  0  2  0  0  3  0  0  0  0  0  0
  184.6270  174.1140  136.9580 C   0  0  2  0  0  3  0  0  0  0  0  0
  180.1380  177.9100  138.1540 C   0  0  2  0  0  3  0  0  0  0  0  0
  181.9120  179.7320  138.5200 C   0  0  0  0  0  2  0  0  0  0  0  0
  186.9760  174.0150  136.3250 C   0  0  1  0  0  3  0  0  0  0  0  0
  184.3960  178.4780  139.9540 C   0  0  0  0  0  2  0  0  0  0  0  0
  182.9740  178.8170  137.8840 C   0  0  1  0  0  3  0  0  0  0  0  0
  184.3450  179.0120  138.5150 C   0  0  2  0  0  3  0  0  0  0  0  0
  185.0360  176.9490  137.1560 C   0  0  0  0  0  0  0  0  0  0  0  0
  186.6580  172.8900  137.2970 C   0  0  0  0  0  2  0  0  0  0  0  0
  180.7060  178.9820  139.1090 C   0  0  2  0  0  3  0  0  0  0  0  0
  185.3510  173.2550  137.9670 C   0  0  0  0  0  2  0  0  0  0  0  0
  186.7970  178.4330  138.2610 C   0  0  0  0  0  2  0  0  0  0  0  0
  185.4030  178.3490  137.6200 C   0  0  2  0  0  3  0  0  0  0  0  0
  185.9750  176.1770  136.7260 N   0  0  0  0  0  0  0  0  0  0  0  0
  181.1890  177.2160  137.2770 C   0  0  0  0  0  2  0  0  0  0  0  0
  182.2170  174.3470  137.4630 C   0  0  0  0  0  1  0  0  0  0  0  0
  187.3590  173.4310  134.9800 C   0  0  0  0  0  1  0  0  0  0  0  0
  183.5950  176.4520  137.1050 C   0  0  2  0  0  3  0  0  0  0  0  0
  185.7210  174.8580  136.1840 C   0  0  2  0  0  3  0  0  0  0  0  0
  181.3170  179.4510  141.4750 C   0  0  0  0  0  2  0  0  0  0  0  0
  181.0650  178.3620  140.4520 C   0  0  1  0  0  3  0  0  0  0  0  0
  179.9970  178.7090  141.4710 C   0  0  1  0  0  3  0  0  0  0  0  0
  180.0010  177.6550  142.5600 C   0  0  0  0  0  2  0  0  0  0  0  0
  180.0990  178.3060  143.8950 C   0  0  0  0  0  0  0  0  0  0  0  0
  178.9470  178.5870  144.6180 O   0  0  0  0  0  1  0  0  0  0  0  0
  181.2240  178.6330  144.3540 O   0  0  0  0  0  0  0  0  0  0  0  0
  179.2020  177.9910  135.8440 C   0  0  0  0  0  1  0  0  0  0  0  0
  179.0530  178.4950  137.2670 C   0  0  0  0  0  2  0  0  0  0  0  0
  1 19  1  6  0  0  0
  1 10  1  0  0  0  0
  3  2  1  0  0  0  0
  4 20  1  6  0  0  0
  5  4  1  0  0  0  0
  5 15  1  1  0  0  0
  6 32  1  6  0  0  0
  6 14  1  0  0  0  0
  8 21  1  6  0  0  0
  8 13  1  0  0  0  0
  9  2  1  0  0  0  0
 10 11  1  0  0  0  0
 10  7  1  1  0  0  0
 11  9  1  1  0  0  0
 12 17  1  0  0  0  0
 13 15  1  0  0  0  0
 14  7  1  6  0  0  0
 14 25  1  0  0  0  0
 16  3  1  0  0  0  0
 17 16  1  1  0  0  0
 17 11  1  0  0  0  0
 18 12  2  0  0  0  0
 19  6  1  0  0  0  0
 22 12  1  1  0  0  0
 22  4  1  0  0  0  0
 22  1  1  0  0  0  0
 23  8  1  0  0  0  0
 23 18  1  1  0  0  0
 23  5  1  0  0  0  0
 25 26  1  0  0  0  0
 25 24  1  1  0  0  0
 26 24  1  0  0  0  0
 26 27  1  1  0  0  0
 27 28  1  0  0  0  0
 28 30  2  0  0  0  0
 28 29  1  0  0  0  0
 31 32  1  0  0  0  0
M  END
>  <MODEL>
9

>  <REMARK>
 VINA RESULT:      -4.2      2.517      4.563
  Name = 
  4 active torsions:
  status: ('A' for Active; 'I' for Inactive)
    1  A    between atoms: C_7  and  C_19
    2  A    between atoms: C_10  and  C_17
    3  A    between atoms: C_20  and  C_29
    4  A    between atoms: C_29  and  C_30
                            x       y       z     vdW  Elec       q    Type
                         _______ _______ _______ _____ _____    ______ ____

>  <TORSDO>
F 4

$$$$
