=
 OpenBabel11122411063D

 31 35  0  0  1  0  0  0  0  0999 V2000
  189.6870  177.2590  145.2660 C   0  0  0  0  0  0  0  0  0  0  0  0
  186.9850  178.2700  142.8420 C   0  0  0  0  0  0  0  0  0  0  0  0
  185.7900  178.4620  143.6090 C   0  0  0  0  0  0  0  0  0  0  0  0
  184.5630  178.4740  145.7250 C   0  0  0  0  0  0  0  0  0  0  0  0
  188.2450  177.8790  143.3930 C   0  0  0  0  0  0  0  0  0  0  0  0
  190.7700  177.1070  144.4010 C   0  0  0  0  0  3  0  0  0  0  0  0
  185.7430  178.2800  145.0040 C   0  0  0  0  0  3  0  0  0  0  0  0
  188.0580  178.3100  140.6320 C   0  0  0  0  0  0  0  0  0  0  0  0
  189.8480  177.0300  146.6260 O   0  0  0  0  0  1  0  0  0  0  0  0
  184.5640  179.0500  141.5820 C   0  0  0  0  0  3  0  0  0  0  0  0
  184.5530  178.2860  147.1000 O   0  0  0  0  0  1  0  0  0  0  0  0
  189.2330  177.9370  141.1990 N   0  0  0  0  0  0  0  0  0  0  0  0
  186.9170  178.4830  141.4330 C   0  0  0  0  0  0  0  0  0  0  0  0
  187.9880  178.5210  139.2180 N   0  0  0  0  0  2  0  0  0  0  0  0
  188.4420  177.6400  144.7650 C   0  0  0  0  0  3  0  0  0  0  0  0
  183.3970  178.8560  145.0650 C   0  0  0  0  0  3  0  0  0  0  0  0
  189.3580  177.7200  142.5290 C   0  0  0  0  0  0  0  0  0  0  0  0
  190.6050  177.3380  143.0360 C   0  0  0  0  0  3  0  0  0  0  0  0
  185.7140  178.8660  140.8290 C   0  0  0  0  0  3  0  0  0  0  0  0
  184.5890  178.8520  142.9560 C   0  0  0  0  0  0  0  0  0  0  0  0
  183.4110  179.0450  143.6840 C   0  0  0  0  0  3  0  0  0  0  0  0
  189.1310  179.3890  137.3730 O   0  0  0  0  0  1  0  0  0  0  0  0
  189.1410  178.3810  138.3390 C   0  0  2  0  0  3  0  0  0  0  0  0
  188.6750  174.3250  137.1460 C   0  0  0  0  0  0  0  0  0  0  0  0
  187.9970  176.6900  136.8350 C   0  0  0  0  0  2  0  0  0  0  0  0
  191.2640  176.4900  138.4380 O   0  0  0  0  0  0  0  0  0  0  0  0
  188.4980  173.1290  136.7980 O   0  0  0  0  0  0  0  0  0  0  0  0
  187.5180  175.2780  137.1680 C   0  0  0  0  0  2  0  0  0  0  0  0
  190.1720  176.1270  137.9260 C   0  0  0  0  0  0  0  0  0  0  0  0
  189.1180  177.0730  137.6960 N   0  0  0  0  0  0  0  0  0  0  0  0
  189.9670  174.7570  137.5820 N   0  0  0  0  0  2  0  0  0  0  0  0
  1  9  1  0  0  0  0
  2  5  1  0  0  0  0
  2  3  1  0  0  0  0
  3  7  1  0  0  0  0
  4 11  1  0  0  0  0
  5 15  2  0  0  0  0
  6  1  2  0  0  0  0
  7  4  2  0  0  0  0
  8 12  2  0  0  0  0
  8 13  1  0  0  0  0
 10 20  1  0  0  0  0
 12 17  1  0  0  0  0
 13  2  2  0  0  0  0
 14  8  1  0  0  0  0
 15  1  1  0  0  0  0
 16  4  1  0  0  0  0
 17 18  2  0  0  0  0
 17  5  1  0  0  0  0
 18  6  1  0  0  0  0
 19 13  1  0  0  0  0
 19 10  2  0  0  0  0
 20  3  2  0  0  0  0
 20 21  1  0  0  0  0
 21 16  2  0  0  0  0
 23 22  1  6  0  0  0
 23 14  1  0  0  0  0
 24 28  1  0  0  0  0
 24 31  1  0  0  0  0
 25 28  1  0  0  0  0
 25 30  1  0  0  0  0
 27 24  2  0  0  0  0
 29 26  2  0  0  0  0
 30 29  1  0  0  0  0
 30 23  1  0  0  0  0
 31 29  1  0  0  0  0
M  END
>  <MODEL>
1

>  <REMARK>
 VINA RESULT:     -11.4      0.000      0.000
  Name = 
  2 active torsions:
  status: ('A' for Active; 'I' for Inactive)
    1  A    between atoms: C_5  and  N_16
    2  A    between atoms: C_5  and  N_30
                            x       y       z     vdW  Elec       q    Type
                         _______ _______ _______ _____ _____    ______ ____

>  <TORSDO>
F 2

$$$$
=
 OpenBabel11122411063D

 31 35  0  0  1  0  0  0  0  0999 V2000
  190.7830  177.2820  141.6680 C   0  0  0  0  0  0  0  0  0  0  0  0
  187.3840  178.0880  143.0840 C   0  0  0  0  0  0  0  0  0  0  0  0
  187.4710  177.9010  144.5020 C   0  0  0  0  0  0  0  0  0  0  0  0
  188.7080  177.3170  146.5300 C   0  0  0  0  0  0  0  0  0  0  0  0
  188.4690  177.8830  142.1740 C   0  0  0  0  0  0  0  0  0  0  0  0
  190.5580  177.5000  140.3100 C   0  0  0  0  0  3  0  0  0  0  0  0
  188.6530  177.4910  145.1460 C   0  0  0  0  0  3  0  0  0  0  0  0
  185.9920  178.7050  141.1570 C   0  0  0  0  0  0  0  0  0  0  0  0
  192.0360  176.8750  142.1070 O   0  0  0  0  0  1  0  0  0  0  0  0
  185.1280  178.5400  144.7460 C   0  0  0  0  0  3  0  0  0  0  0  0
  189.8910  176.9110  147.1310 O   0  0  0  0  0  1  0  0  0  0  0  0
  187.0490  178.4970  140.3310 N   0  0  0  0  0  0  0  0  0  0  0  0
  186.1340  178.5060  142.5400 C   0  0  0  0  0  0  0  0  0  0  0  0
  184.7370  179.1220  140.6100 N   0  0  0  0  0  2  0  0  0  0  0  0
  189.7490  177.4720  142.5860 C   0  0  0  0  0  3  0  0  0  0  0  0
  187.5750  177.5500  147.3070 C   0  0  0  0  0  3  0  0  0  0  0  0
  188.2590  178.1000  140.7890 C   0  0  0  0  0  0  0  0  0  0  0  0
  189.2980  177.9090  139.8720 C   0  0  0  0  0  3  0  0  0  0  0  0
  185.0320  178.7240  143.3740 C   0  0  0  0  0  3  0  0  0  0  0  0
  186.3280  178.1330  145.3140 C   0  0  0  0  0  0  0  0  0  0  0  0
  186.3880  177.9580  146.7000 C   0  0  0  0  0  3  0  0  0  0  0  0
  183.6200  180.4080  139.0100 O   0  0  0  0  0  1  0  0  0  0  0  0
  184.5340  179.3680  139.1890 C   0  0  2  0  0  3  0  0  0  0  0  0
  183.4540  175.4470  137.9430 C   0  0  0  0  0  0  0  0  0  0  0  0
  182.7170  177.6310  138.8570 C   0  0  0  0  0  2  0  0  0  0  0  0
  185.9020  177.9750  137.1200 O   0  0  0  0  0  0  0  0  0  0  0  0
  183.1160  174.2820  137.6100 O   0  0  0  0  0  0  0  0  0  0  0  0
  182.7750  176.1230  139.0960 C   0  0  0  0  0  2  0  0  0  0  0  0
  184.8740  177.4400  137.6140 C   0  0  0  0  0  0  0  0  0  0  0  0
  184.0460  178.1570  138.5410 N   0  0  0  0  0  0  0  0  0  0  0  0
  184.5310  176.0990  137.2640 N   0  0  0  0  0  2  0  0  0  0  0  0
  1  9  1  0  0  0  0
  1 15  1  0  0  0  0
  2  3  1  0  0  0  0
  3  7  2  0  0  0  0
  3 20  1  0  0  0  0
  4 11  1  0  0  0  0
  4 16  2  0  0  0  0
  5 15  2  0  0  0  0
  5  2  1  0  0  0  0
  6  1  2  0  0  0  0
  7  4  1  0  0  0  0
  8 13  1  0  0  0  0
 10 20  1  0  0  0  0
 12 17  1  0  0  0  0
 12  8  2  0  0  0  0
 13  2  2  0  0  0  0
 13 19  1  0  0  0  0
 14  8  1  0  0  0  0
 17  5  1  0  0  0  0
 18  6  1  0  0  0  0
 18 17  2  0  0  0  0
 19 10  2  0  0  0  0
 20 21  2  0  0  0  0
 21 16  1  0  0  0  0
 23 22  1  1  0  0  0
 23 14  1  0  0  0  0
 24 28  1  0  0  0  0
 25 28  1  0  0  0  0
 26 29  2  0  0  0  0
 27 24  2  0  0  0  0
 29 30  1  0  0  0  0
 30 25  1  0  0  0  0
 30 23  1  0  0  0  0
 31 29  1  0  0  0  0
 31 24  1  0  0  0  0
M  END
>  <MODEL>
2

>  <REMARK>
 VINA RESULT:     -11.1      2.765      4.164
  Name = 
  2 active torsions:
  status: ('A' for Active; 'I' for Inactive)
    1  A    between atoms: C_5  and  N_16
    2  A    between atoms: C_5  and  N_30
                            x       y       z     vdW  Elec       q    Type
                         _______ _______ _______ _____ _____    ______ ____

>  <TORSDO>
F 2

$$$$
=
 OpenBabel11122411063D

 31 35  0  0  1  0  0  0  0  0999 V2000
  190.7670  176.9560  144.6460 C   0  0  0  0  0  0  0  0  0  0  0  0
  187.6040  178.0920  142.9410 C   0  0  0  0  0  0  0  0  0  0  0  0
  186.6170  178.2630  143.9670 C   0  0  0  0  0  0  0  0  0  0  0  0
  185.9040  178.1970  146.3060 C   0  0  0  0  0  0  0  0  0  0  0  0
  188.9490  177.6670  143.1760 C   0  0  0  0  0  0  0  0  0  0  0  0
  191.6230  176.8320  143.5520 C   0  0  0  0  0  3  0  0  0  0  0  0
  186.8850  178.0230  145.3280 C   0  0  0  0  0  3  0  0  0  0  0  0
  188.1470  178.2150  140.5490 C   0  0  0  0  0  0  0  0  0  0  0  0
  191.2290  176.6690  145.9240 O   0  0  0  0  0  1  0  0  0  0  0  0
  184.9740  178.9450  142.2970 C   0  0  0  0  0  3  0  0  0  0  0  0
  186.2030  177.9520  147.6390 O   0  0  0  0  0  1  0  0  0  0  0  0
  189.4130  177.8080  140.8180 N   0  0  0  0  0  0  0  0  0  0  0  0
  187.2210  178.3640  141.5940 C   0  0  0  0  0  0  0  0  0  0  0  0
  187.7620  178.4860  139.1970 N   0  0  0  0  0  2  0  0  0  0  0  0
  189.4470  177.3690  144.4560 C   0  0  0  0  0  3  0  0  0  0  0  0
  184.6250  178.6170  145.9430 C   0  0  0  0  0  3  0  0  0  0  0  0
  189.8340  177.5350  142.0750 C   0  0  0  0  0  0  0  0  0  0  0  0
  191.1560  177.1210  142.2700 C   0  0  0  0  0  3  0  0  0  0  0  0
  185.9200  178.7840  141.2950 C   0  0  0  0  0  3  0  0  0  0  0  0
  185.3080  178.6900  143.6210 C   0  0  0  0  0  0  0  0  0  0  0  0
  184.3280  178.8630  144.6040 C   0  0  0  0  0  3  0  0  0  0  0  0
  188.9050  179.6300  137.5100 O   0  0  0  0  0  1  0  0  0  0  0  0
  188.6830  178.3720  138.0740 C   0  0  2  0  0  3  0  0  0  0  0  0
  186.4830  175.6030  135.7100 C   0  0  0  0  0  0  0  0  0  0  0  0
  187.1840  177.9540  136.0710 C   0  0  0  0  0  2  0  0  0  0  0  0
  189.4740  175.6610  137.7380 O   0  0  0  0  0  0  0  0  0  0  0  0
  185.8010  174.8080  135.0140 O   0  0  0  0  0  0  0  0  0  0  0  0
  185.9970  177.0020  135.9430 C   0  0  0  0  0  2  0  0  0  0  0  0
  188.4850  176.0750  137.0750 C   0  0  0  0  0  0  0  0  0  0  0  0
  188.1340  177.4660  137.0730 N   0  0  0  0  0  0  0  0  0  0  0  0
  187.6900  175.1530  136.3310 N   0  0  0  0  0  2  0  0  0  0  0  0
  1  9  1  0  0  0  0
  2  5  1  0  0  0  0
  2  3  1  0  0  0  0
  3  7  1  0  0  0  0
  4 11  1  0  0  0  0
  5 15  2  0  0  0  0
  6  1  2  0  0  0  0
  7  4  2  0  0  0  0
  8 12  2  0  0  0  0
  8 13  1  0  0  0  0
 10 20  1  0  0  0  0
 12 17  1  0  0  0  0
 13  2  2  0  0  0  0
 14  8  1  0  0  0  0
 15  1  1  0  0  0  0
 16  4  1  0  0  0  0
 17 18  2  0  0  0  0
 17  5  1  0  0  0  0
 18  6  1  0  0  0  0
 19 13  1  0  0  0  0
 19 10  2  0  0  0  0
 20  3  2  0  0  0  0
 20 21  1  0  0  0  0
 21 16  2  0  0  0  0
 23 22  1  6  0  0  0
 23 14  1  0  0  0  0
 24 28  1  0  0  0  0
 24 31  1  0  0  0  0
 25 30  1  0  0  0  0
 27 24  2  0  0  0  0
 28 25  1  0  0  0  0
 29 26  2  0  0  0  0
 30 29  1  0  0  0  0
 30 23  1  0  0  0  0
 31 29  1  0  0  0  0
M  END
>  <MODEL>
3

>  <REMARK>
 VINA RESULT:     -10.8      1.336      1.519
  Name = 
  2 active torsions:
  status: ('A' for Active; 'I' for Inactive)
    1  A    between atoms: C_5  and  N_16
    2  A    between atoms: C_5  and  N_30
                            x       y       z     vdW  Elec       q    Type
                         _______ _______ _______ _____ _____    ______ ____

>  <TORSDO>
F 2

$$$$
=
 OpenBabel11122411063D

 31 35  0  0  1  0  0  0  0  0999 V2000
  189.8760  177.1080  146.8390 C   0  0  0  0  0  0  0  0  0  0  0  0
  188.0230  177.7590  143.6230 C   0  0  0  0  0  0  0  0  0  0  0  0
  186.6890  178.1410  143.9820 C   0  0  0  0  0  0  0  0  0  0  0  0
  184.9490  178.6000  145.6390 C   0  0  0  0  0  0  0  0  0  0  0  0
  189.0490  177.4260  144.5610 C   0  0  0  0  0  0  0  0  0  0  0  0
  191.1320  176.7530  146.3480 C   0  0  0  0  0  3  0  0  0  0  0  0
  186.2550  178.2260  145.3190 C   0  0  0  0  0  3  0  0  0  0  0  0
  189.6440  177.3390  141.8260 C   0  0  0  0  0  0  0  0  0  0  0  0
  189.6480  177.1320  148.2080 O   0  0  0  0  0  1  0  0  0  0  0  0
  186.1060  178.3880  141.6250 C   0  0  0  0  0  3  0  0  0  0  0  0
  184.5560  178.6740  146.9680 O   0  0  0  0  0  1  0  0  0  0  0  0
  190.5860  177.0300  142.7520 N   0  0  0  0  0  0  0  0  0  0  0  0
  188.3520  177.7060  142.2360 C   0  0  0  0  0  0  0  0  0  0  0  0
  189.9740  177.2830  140.4340 N   0  0  0  0  0  2  0  0  0  0  0  0
  188.8500  177.4400  145.9530 C   0  0  0  0  0  3  0  0  0  0  0  0
  184.0410  178.9000  144.6250 C   0  0  0  0  0  3  0  0  0  0  0  0
  190.3330  177.0610  144.0810 C   0  0  0  0  0  0  0  0  0  0  0  0
  191.3590  176.7300  144.9730 C   0  0  0  0  0  3  0  0  0  0  0  0
  187.3940  178.0190  141.2650 C   0  0  0  0  0  3  0  0  0  0  0  0
  185.7470  178.4510  142.9650 C   0  0  0  0  0  0  0  0  0  0  0  0
  184.4400  178.8260  143.2910 C   0  0  0  0  0  3  0  0  0  0  0  0
  192.2330  177.8780  140.3810 O   0  0  0  0  0  1  0  0  0  0  0  0
  191.3010  176.9330  139.9480 C   0  0  2  0  0  3  0  0  0  0  0  0
  190.9950  175.9780  135.8140 C   0  0  0  0  0  0  0  0  0  0  0  0
  190.1060  177.2680  137.7360 C   0  0  0  0  0  2  0  0  0  0  0  0
  193.5560  176.2650  138.3480 O   0  0  0  0  0  0  0  0  0  0  0  0
  190.8650  175.6880  134.5970 O   0  0  0  0  0  0  0  0  0  0  0  0
  189.7810  176.2390  136.6550 C   0  0  0  0  0  2  0  0  0  0  0  0
  192.4380  176.3770  137.7770 C   0  0  0  0  0  0  0  0  0  0  0  0
  191.2950  176.8690  138.4910 N   0  0  0  0  0  0  0  0  0  0  0  0
  192.2950  175.9960  136.4090 N   0  0  0  0  0  2  0  0  0  0  0  0
  1  9  1  0  0  0  0
  2  3  1  0  0  0  0
  2  5  1  0  0  0  0
  3  7  1  0  0  0  0
  4 11  1  0  0  0  0
  5 15  1  0  0  0  0
  6  1  1  0  0  0  0
  7  4  2  0  0  0  0
  8 13  1  0  0  0  0
  8 12  2  0  0  0  0
 10 20  1  0  0  0  0
 12 17  1  0  0  0  0
 13  2  2  0  0  0  0
 14  8  1  0  0  0  0
 15  1  2  0  0  0  0
 16  4  1  0  0  0  0
 17  5  2  0  0  0  0
 17 18  1  0  0  0  0
 18  6  2  0  0  0  0
 19 10  2  0  0  0  0
 19 13  1  0  0  0  0
 20 21  1  0  0  0  0
 20  3  2  0  0  0  0
 21 16  2  0  0  0  0
 23 22  1  6  0  0  0
 23 14  1  0  0  0  0
 24 31  1  0  0  0  0
 24 28  1  0  0  0  0
 25 30  1  0  0  0  0
 27 24  2  0  0  0  0
 28 25  1  0  0  0  0
 29 26  2  0  0  0  0
 29 30  1  0  0  0  0
 30 23  1  0  0  0  0
 31 29  1  0  0  0  0
M  END
>  <MODEL>
4

>  <REMARK>
 VINA RESULT:     -10.6      1.788      2.190
  Name = 
  2 active torsions:
  status: ('A' for Active; 'I' for Inactive)
    1  A    between atoms: C_5  and  N_16
    2  A    between atoms: C_5  and  N_30
                            x       y       z     vdW  Elec       q    Type
                         _______ _______ _______ _____ _____    ______ ____

>  <TORSDO>
F 2

$$$$
=
 OpenBabel11122411063D

 31 35  0  0  1  0  0  0  0  0999 V2000
  184.5850  178.7440  144.8130 C   0  0  0  0  0  0  0  0  0  0  0  0
  188.1060  177.8500  143.8090 C   0  0  0  0  0  0  0  0  0  0  0  0
  188.8020  177.4930  145.0100 C   0  0  0  0  0  0  0  0  0  0  0  0
  188.8930  177.1550  147.4310 C   0  0  0  0  0  0  0  0  0  0  0  0
  186.7350  178.2540  143.7590 C   0  0  0  0  0  0  0  0  0  0  0  0
  184.0340  179.0650  143.5730 C   0  0  0  0  0  3  0  0  0  0  0  0
  188.1900  177.5070  146.2780 C   0  0  0  0  0  3  0  0  0  0  0  0
  188.1940  178.1370  141.3710 C   0  0  0  0  0  0  0  0  0  0  0  0
  183.8060  178.8230  145.9590 O   0  0  0  0  0  1  0  0  0  0  0  0
  190.8330  177.0680  143.7260 C   0  0  0  0  0  3  0  0  0  0  0  0
  188.2580  177.1800  148.6650 O   0  0  0  0  0  1  0  0  0  0  0  0
  186.8910  178.5170  141.3720 N   0  0  0  0  0  0  0  0  0  0  0  0
  188.8260  177.7990  142.5790 C   0  0  0  0  0  0  0  0  0  0  0  0
  188.9170  178.0890  140.1370 N   0  0  0  0  0  2  0  0  0  0  0  0
  185.9190  178.3440  144.9010 C   0  0  0  0  0  3  0  0  0  0  0  0
  190.2320  176.7780  147.3430 C   0  0  0  0  0  3  0  0  0  0  0  0
  186.1570  178.5850  142.5070 C   0  0  0  0  0  0  0  0  0  0  0  0
  184.8190  178.9840  142.4230 C   0  0  0  0  0  3  0  0  0  0  0  0
  190.1700  177.4120  142.5580 C   0  0  0  0  0  3  0  0  0  0  0  0
  190.1670  177.1050  144.9440 C   0  0  0  0  0  0  0  0  0  0  0  0
  190.8670  176.7530  146.1030 C   0  0  0  0  0  3  0  0  0  0  0  0
  186.9250  178.2480  138.9250 O   0  0  0  0  0  1  0  0  0  0  0  0
  188.3110  178.4050  138.8510 C   0  0  2  0  0  3  0  0  0  0  0  0
  190.5530  176.3780  135.8580 C   0  0  0  0  0  0  0  0  0  0  0  0
  189.6840  176.3810  138.1810 C   0  0  0  0  0  2  0  0  0  0  0  0
  187.7300  178.6230  136.0760 O   0  0  0  0  0  0  0  0  0  0  0  0
  191.2470  175.7740  134.9990 O   0  0  0  0  0  0  0  0  0  0  0  0
  190.9350  176.3170  137.3070 C   0  0  0  0  0  2  0  0  0  0  0  0
  188.6270  177.8130  136.4300 C   0  0  0  0  0  0  0  0  0  0  0  0
  188.8570  177.5340  137.8180 N   0  0  0  0  0  0  0  0  0  0  0  0
  189.4400  177.1740  135.4450 N   0  0  0  0  0  2  0  0  0  0  0  0
  1 15  1  0  0  0  0
  1  9  1  0  0  0  0
  2  3  1  0  0  0  0
  3  7  1  0  0  0  0
  4 11  1  0  0  0  0
  5  2  1  0  0  0  0
  5 15  2  0  0  0  0
  6  1  2  0  0  0  0
  7  4  2  0  0  0  0
  8 12  2  0  0  0  0
  8 13  1  0  0  0  0
 10 20  1  0  0  0  0
 12 17  1  0  0  0  0
 13  2  2  0  0  0  0
 14  8  1  0  0  0  0
 16  4  1  0  0  0  0
 17  5  1  0  0  0  0
 18 17  2  0  0  0  0
 18  6  1  0  0  0  0
 19 13  1  0  0  0  0
 19 10  2  0  0  0  0
 20  3  2  0  0  0  0
 20 21  1  0  0  0  0
 21 16  2  0  0  0  0
 23 22  1  1  0  0  0
 23 14  1  0  0  0  0
 24 28  1  0  0  0  0
 26 29  2  0  0  0  0
 27 24  2  0  0  0  0
 28 25  1  0  0  0  0
 29 30  1  0  0  0  0
 30 25  1  0  0  0  0
 30 23  1  0  0  0  0
 31 24  1  0  0  0  0
 31 29  1  0  0  0  0
M  END
>  <MODEL>
5

>  <REMARK>
 VINA RESULT:     -10.3      1.658      4.332
  Name = 
  2 active torsions:
  status: ('A' for Active; 'I' for Inactive)
    1  A    between atoms: C_5  and  N_16
    2  A    between atoms: C_5  and  N_30
                            x       y       z     vdW  Elec       q    Type
                         _______ _______ _______ _____ _____    ______ ____

>  <TORSDO>
F 2

$$$$
=
 OpenBabel11122411063D

 31 35  0  0  1  0  0  0  0  0999 V2000
  184.6750  178.5620  145.6970 C   0  0  0  0  0  0  0  0  0  0  0  0
  187.2870  178.0570  143.0280 C   0  0  0  0  0  0  0  0  0  0  0  0
  188.4810  177.6240  143.6920 C   0  0  0  0  0  0  0  0  0  0  0  0
  189.7350  177.0310  145.7070 C   0  0  0  0  0  0  0  0  0  0  0  0
  186.0570  178.3580  143.6910 C   0  0  0  0  0  0  0  0  0  0  0  0
  183.5900  178.9740  144.9250 C   0  0  0  0  0  3  0  0  0  0  0  0
  188.5570  177.4530  145.0870 C   0  0  0  0  0  3  0  0  0  0  0  0
  186.1830  178.6160  140.9060 C   0  0  0  0  0  0  0  0  0  0  0  0
  184.5450  178.4550  147.0750 O   0  0  0  0  0  1  0  0  0  0  0  0
  189.6470  177.5000  141.5510 C   0  0  0  0  0  3  0  0  0  0  0  0
  189.7740  176.8720  147.0850 O   0  0  0  0  0  1  0  0  0  0  0  0
  185.0370  178.8920  141.5780 N   0  0  0  0  0  0  0  0  0  0  0  0
  187.3250  178.1970  141.6090 C   0  0  0  0  0  0  0  0  0  0  0  0
  186.2220  178.7590  139.4820 N   0  0  0  0  0  2  0  0  0  0  0  0
  185.8920  178.2590  145.0850 C   0  0  0  0  0  3  0  0  0  0  0  0
  190.8700  176.7700  144.9420 C   0  0  0  0  0  3  0  0  0  0  0  0
  184.9410  178.7780  142.9230 C   0  0  0  0  0  0  0  0  0  0  0  0
  183.7240  179.0810  143.5410 C   0  0  0  0  0  3  0  0  0  0  0  0
  188.4970  177.9180  140.8980 C   0  0  0  0  0  3  0  0  0  0  0  0
  189.6500  177.3520  142.9320 C   0  0  0  0  0  0  0  0  0  0  0  0
  190.8270  176.9300  143.5580 C   0  0  0  0  0  3  0  0  0  0  0  0
  184.2570  180.0230  139.4450 O   0  0  0  0  0  1  0  0  0  0  0  0
  185.0660  179.1660  138.6950 C   0  0  2  0  0  3  0  0  0  0  0  0
  183.2590  175.3600  138.1100 C   0  0  0  0  0  0  0  0  0  0  0  0
  183.0080  177.6980  138.8990 C   0  0  0  0  0  2  0  0  0  0  0  0
  185.8010  177.4190  136.5740 O   0  0  0  0  0  0  0  0  0  0  0  0
  182.7120  174.2350  137.9750 O   0  0  0  0  0  0  0  0  0  0  0  0
  182.9160  176.2230  139.2870 C   0  0  0  0  0  2  0  0  0  0  0  0
  184.8310  177.0860  137.3060 C   0  0  0  0  0  0  0  0  0  0  0  0
  184.3050  177.9920  138.2860 N   0  0  0  0  0  0  0  0  0  0  0  0
  184.2530  175.7870  137.1760 N   0  0  0  0  0  2  0  0  0  0  0  0
  1  9  1  0  0  0  0
  2  5  1  0  0  0  0
  2  3  1  0  0  0  0
  3  7  1  0  0  0  0
  4 11  1  0  0  0  0
  5 15  2  0  0  0  0
  6  1  2  0  0  0  0
  7  4  2  0  0  0  0
  8 12  2  0  0  0  0
  8 13  1  0  0  0  0
 10 20  1  0  0  0  0
 12 17  1  0  0  0  0
 13  2  2  0  0  0  0
 14  8  1  0  0  0  0
 15  1  1  0  0  0  0
 16  4  1  0  0  0  0
 17 18  2  0  0  0  0
 17  5  1  0  0  0  0
 18  6  1  0  0  0  0
 19 10  2  0  0  0  0
 19 13  1  0  0  0  0
 20 21  1  0  0  0  0
 20  3  2  0  0  0  0
 21 16  2  0  0  0  0
 23 22  1  1  0  0  0
 23 14  1  0  0  0  0
 24 28  1  0  0  0  0
 25 28  1  0  0  0  0
 26 29  2  0  0  0  0
 27 24  2  0  0  0  0
 29 30  1  0  0  0  0
 30 23  1  0  0  0  0
 30 25  1  0  0  0  0
 31 29  1  0  0  0  0
 31 24  1  0  0  0  0
M  END
>  <MODEL>
6

>  <REMARK>
 VINA RESULT:     -10.2      2.607      4.995
  Name = 
  2 active torsions:
  status: ('A' for Active; 'I' for Inactive)
    1  A    between atoms: C_5  and  N_16
    2  A    between atoms: C_5  and  N_30
                            x       y       z     vdW  Elec       q    Type
                         _______ _______ _______ _____ _____    ______ ____

>  <TORSDO>
F 2

$$$$
=
 OpenBabel11122411063D

 31 35  0  0  1  0  0  0  0  0999 V2000
  184.5130  178.7840  144.6180 C   0  0  0  0  0  0  0  0  0  0  0  0
  188.0830  177.8190  143.8910 C   0  0  0  0  0  0  0  0  0  0  0  0
  188.7030  177.5400  145.1530 C   0  0  0  0  0  0  0  0  0  0  0  0
  188.6460  177.3610  147.5920 C   0  0  0  0  0  0  0  0  0  0  0  0
  186.7210  178.2220  143.7310 C   0  0  0  0  0  0  0  0  0  0  0  0
  184.0400  179.0240  143.3280 C   0  0  0  0  0  3  0  0  0  0  0  0
  188.0150  177.6390  146.3770 C   0  0  0  0  0  3  0  0  0  0  0  0
  188.3210  177.9470  141.4490 C   0  0  0  0  0  0  0  0  0  0  0  0
  183.6660  178.9390  145.7070 O   0  0  0  0  0  1  0  0  0  0  0  0
  190.8060  177.0280  144.0260 C   0  0  0  0  0  3  0  0  0  0  0  0
  187.9370  177.4680  148.7800 O   0  0  0  0  0  1  0  0  0  0  0  0
  187.0230  178.3280  141.3460 N   0  0  0  0  0  0  0  0  0  0  0  0
  188.8770  177.6870  142.7130 C   0  0  0  0  0  0  0  0  0  0  0  0
  189.1180  177.8160  140.2670 N   0  0  0  0  0  2  0  0  0  0  0  0
  185.8380  178.3880  144.8130 C   0  0  0  0  0  3  0  0  0  0  0  0
  189.9850  176.9760  147.6100 C   0  0  0  0  0  3  0  0  0  0  0  0
  186.2220  178.4710  142.4270 C   0  0  0  0  0  0  0  0  0  0  0  0
  184.8940  178.8670  142.2360 C   0  0  0  0  0  3  0  0  0  0  0  0
  190.2170  177.2960  142.7990 C   0  0  0  0  0  3  0  0  0  0  0  0
  190.0670  177.1460  145.1960 C   0  0  0  0  0  0  0  0  0  0  0  0
  190.6930  176.8690  146.4150 C   0  0  0  0  0  3  0  0  0  0  0  0
  187.2160  178.2740  138.9890 O   0  0  0  0  0  1  0  0  0  0  0  0
  188.5930  178.0490  138.9290 C   0  0  2  0  0  3  0  0  0  0  0  0
  189.0660  174.2570  137.0600 C   0  0  0  0  0  0  0  0  0  0  0  0
  187.8840  176.4360  137.1050 C   0  0  0  0  0  2  0  0  0  0  0  0
  191.0820  176.6750  138.8360 O   0  0  0  0  0  0  0  0  0  0  0  0
  189.1660  173.1300  136.5100 O   0  0  0  0  0  0  0  0  0  0  0  0
  187.7250  174.9190  137.1740 C   0  0  0  0  0  2  0  0  0  0  0  0
  190.1080  176.1780  138.2090 C   0  0  0  0  0  0  0  0  0  0  0  0
  188.8750  176.8980  138.0790 N   0  0  0  0  0  0  0  0  0  0  0  0
  190.2200  174.8760  137.6340 N   0  0  0  0  0  2  0  0  0  0  0  0
  1 15  1  0  0  0  0
  1  9  1  0  0  0  0
  2  3  1  0  0  0  0
  3 20  2  0  0  0  0
  3  7  1  0  0  0  0
  4 16  1  0  0  0  0
  4 11  1  0  0  0  0
  5  2  1  0  0  0  0
  5 15  2  0  0  0  0
  6  1  2  0  0  0  0
  7  4  2  0  0  0  0
  8 13  1  0  0  0  0
 10 20  1  0  0  0  0
 12  8  2  0  0  0  0
 12 17  1  0  0  0  0
 13 19  1  0  0  0  0
 13  2  2  0  0  0  0
 14  8  1  0  0  0  0
 17  5  1  0  0  0  0
 18 17  2  0  0  0  0
 18  6  1  0  0  0  0
 19 10  2  0  0  0  0
 20 21  1  0  0  0  0
 21 16  2  0  0  0  0
 23 22  1  1  0  0  0
 23 14  1  0  0  0  0
 24 28  1  0  0  0  0
 24 31  1  0  0  0  0
 25 28  1  0  0  0  0
 25 30  1  0  0  0  0
 27 24  2  0  0  0  0
 29 26  2  0  0  0  0
 30 29  1  0  0  0  0
 30 23  1  0  0  0  0
 31 29  1  0  0  0  0
M  END
>  <MODEL>
7

>  <REMARK>
 VINA RESULT:     -10.1      1.285      3.989
  Name = 
  2 active torsions:
  status: ('A' for Active; 'I' for Inactive)
    1  A    between atoms: C_5  and  N_16
    2  A    between atoms: C_5  and  N_30
                            x       y       z     vdW  Elec       q    Type
                         _______ _______ _______ _____ _____    ______ ____

>  <TORSDO>
F 2

$$$$
=
 OpenBabel11122411063D

 31 35  0  0  1  0  0  0  0  0999 V2000
  184.4170  178.7450  145.0390 C   0  0  0  0  0  0  0  0  0  0  0  0
  187.7950  177.9130  143.5900 C   0  0  0  0  0  0  0  0  0  0  0  0
  188.6470  177.5720  144.6920 C   0  0  0  0  0  0  0  0  0  0  0  0
  189.0560  177.2430  147.0810 C   0  0  0  0  0  0  0  0  0  0  0  0
  186.4220  178.2930  143.7170 C   0  0  0  0  0  0  0  0  0  0  0  0
  183.7050  179.0520  143.8800 C   0  0  0  0  0  3  0  0  0  0  0  0
  188.2030  177.5790  146.0270 C   0  0  0  0  0  3  0  0  0  0  0  0
  187.5630  178.1960  141.1610 C   0  0  0  0  0  0  0  0  0  0  0  0
  183.7900  178.8130  146.2760 O   0  0  0  0  0  1  0  0  0  0  0  0
  190.5030  177.1810  143.1570 C   0  0  0  0  0  3  0  0  0  0  0  0
  188.5840  177.2600  148.3860 O   0  0  0  0  0  1  0  0  0  0  0  0
  186.2640  178.5520  141.3300 N   0  0  0  0  0  0  0  0  0  0  0  0
  188.3520  177.8730  142.2780 C   0  0  0  0  0  0  0  0  0  0  0  0
  188.1220  178.1570  139.8440 N   0  0  0  0  0  2  0  0  0  0  0  0
  185.7590  178.3700  144.9550 C   0  0  0  0  0  3  0  0  0  0  0  0
  190.3780  176.8900  146.8210 C   0  0  0  0  0  3  0  0  0  0  0  0
  185.6820  178.6090  142.5500 C   0  0  0  0  0  0  0  0  0  0  0  0
  184.3370  178.9840  142.6390 C   0  0  0  0  0  3  0  0  0  0  0  0
  189.6890  177.5100  142.0830 C   0  0  0  0  0  3  0  0  0  0  0  0
  189.9990  177.2100  144.4510 C   0  0  0  0  0  0  0  0  0  0  0  0
  190.8480  176.8730  145.5090 C   0  0  0  0  0  3  0  0  0  0  0  0
  185.9890  178.2710  138.8970 O   0  0  0  0  0  1  0  0  0  0  0  0
  187.3500  178.4590  138.6470 C   0  0  2  0  0  3  0  0  0  0  0  0
  189.0820  175.5960  136.0200 C   0  0  0  0  0  0  0  0  0  0  0  0
  187.0770  176.3450  137.2720 C   0  0  0  0  0  2  0  0  0  0  0  0
  189.3930  179.1160  136.7800 O   0  0  0  0  0  0  0  0  0  0  0  0
  189.5810  174.7200  135.2670 O   0  0  0  0  0  0  0  0  0  0  0  0
  188.0710  175.2060  137.0560 C   0  0  0  0  0  2  0  0  0  0  0  0
  188.9190  177.9490  136.7510 C   0  0  0  0  0  0  0  0  0  0  0  0
  187.7790  177.6000  137.5500 N   0  0  0  0  0  0  0  0  0  0  0  0
  189.5270  176.9520  135.9300 N   0  0  0  0  0  2  0  0  0  0  0  0
  1  9  1  0  0  0  0
  2  5  1  0  0  0  0
  2  3  1  0  0  0  0
  3  7  1  0  0  0  0
  4 11  1  0  0  0  0
  5 15  2  0  0  0  0
  6  1  2  0  0  0  0
  7  4  2  0  0  0  0
  8 12  2  0  0  0  0
  8 13  1  0  0  0  0
 10 20  1  0  0  0  0
 12 17  1  0  0  0  0
 13  2  2  0  0  0  0
 14  8  1  0  0  0  0
 15  1  1  0  0  0  0
 16  4  1  0  0  0  0
 17 18  2  0  0  0  0
 17  5  1  0  0  0  0
 18  6  1  0  0  0  0
 19 13  1  0  0  0  0
 19 10  2  0  0  0  0
 20  3  2  0  0  0  0
 20 21  1  0  0  0  0
 21 16  2  0  0  0  0
 23 22  1  1  0  0  0
 23 14  1  0  0  0  0
 24 28  1  0  0  0  0
 25 30  1  0  0  0  0
 27 24  2  0  0  0  0
 28 25  1  0  0  0  0
 29 26  2  0  0  0  0
 29 30  1  0  0  0  0
 30 23  1  0  0  0  0
 31 24  1  0  0  0  0
 31 29  1  0  0  0  0
M  END
>  <MODEL>
8

>  <REMARK>
 VINA RESULT:     -10.0      1.448      4.163
  Name = 
  2 active torsions:
  status: ('A' for Active; 'I' for Inactive)
    1  A    between atoms: C_5  and  N_16
    2  A    between atoms: C_5  and  N_30
                            x       y       z     vdW  Elec       q    Type
                         _______ _______ _______ _____ _____    ______ ____

>  <TORSDO>
F 2

$$$$
=
 OpenBabel11122411063D

 31 35  0  0  1  0  0  0  0  0999 V2000
  185.3810  178.6580  143.4990 C   0  0  0  0  0  0  0  0  0  0  0  0
  188.9690  177.5300  143.7230 C   0  0  0  0  0  0  0  0  0  0  0  0
  189.2700  177.3770  145.1160 C   0  0  0  0  0  0  0  0  0  0  0  0
  188.6490  177.4710  147.4800 C   0  0  0  0  0  0  0  0  0  0  0  0
  187.7010  177.9470  143.2110 C   0  0  0  0  0  0  0  0  0  0  0  0
  185.2270  178.7650  142.1170 C   0  0  0  0  0  3  0  0  0  0  0  0
  188.3280  177.6280  146.1300 C   0  0  0  0  0  3  0  0  0  0  0  0
  189.7630  177.3790  141.4030 C   0  0  0  0  0  0  0  0  0  0  0  0
  184.3160  178.9540  144.3400 O   0  0  0  0  0  1  0  0  0  0  0  0
  191.5470  176.6910  144.5660 C   0  0  0  0  0  3  0  0  0  0  0  0
  187.6950  177.7270  148.4540 O   0  0  0  0  0  1  0  0  0  0  0  0
  188.5440  177.7790  140.9630 N   0  0  0  0  0  0  0  0  0  0  0  0
  190.0030  177.2480  142.7810 C   0  0  0  0  0  0  0  0  0  0  0  0
  190.8010  177.0980  140.4580 N   0  0  0  0  0  2  0  0  0  0  0  0
  186.6040  178.2540  144.0350 C   0  0  0  0  0  3  0  0  0  0  0  0
  189.9280  177.0570  147.8480 C   0  0  0  0  0  3  0  0  0  0  0  0
  187.5250  178.0620  141.8080 C   0  0  0  0  0  0  0  0  0  0  0  0
  186.2970  178.4670  141.2750 C   0  0  0  0  0  3  0  0  0  0  0  0
  191.2670  176.8350  143.2150 C   0  0  0  0  0  3  0  0  0  0  0  0
  190.5670  176.9560  145.5140 C   0  0  0  0  0  0  0  0  0  0  0  0
  190.8850  176.8000  146.8670 C   0  0  0  0  0  3  0  0  0  0  0  0
  189.3810  176.6290  138.6620 O   0  0  0  0  0  1  0  0  0  0  0  0
  190.6070  177.1940  139.0180 C   0  0  2  0  0  3  0  0  0  0  0  0
  193.6210  174.5860  137.5320 C   0  0  0  0  0  0  0  0  0  0  0  0
  191.4110  175.6500  137.1730 C   0  0  0  0  0  2  0  0  0  0  0  0
  193.3710  177.5460  139.5900 O   0  0  0  0  0  0  0  0  0  0  0  0
  194.4850  173.7870  137.0860 O   0  0  0  0  0  0  0  0  0  0  0  0
  192.1650  174.3270  137.2890 C   0  0  0  0  0  2  0  0  0  0  0  0
  193.0460  176.6360  138.7820 C   0  0  0  0  0  0  0  0  0  0  0  0
  191.6920  176.5100  138.3240 N   0  0  0  0  0  0  0  0  0  0  0  0
  194.0270  175.7050  138.3240 N   0  0  0  0  0  2  0  0  0  0  0  0
  1 15  1  0  0  0  0
  1  9  1  0  0  0  0
  2  3  1  0  0  0  0
  3 20  2  0  0  0  0
  3  7  1  0  0  0  0
  4 16  1  0  0  0  0
  4 11  1  0  0  0  0
  5  2  1  0  0  0  0
  5 15  2  0  0  0  0
  6  1  2  0  0  0  0
  7  4  2  0  0  0  0
  8 13  1  0  0  0  0
 10 20  1  0  0  0  0
 12  8  2  0  0  0  0
 12 17  1  0  0  0  0
 13 19  1  0  0  0  0
 13  2  2  0  0  0  0
 14  8  1  0  0  0  0
 17  5  1  0  0  0  0
 18 17  2  0  0  0  0
 18  6  1  0  0  0  0
 19 10  2  0  0  0  0
 20 21  1  0  0  0  0
 21 16  2  0  0  0  0
 23 22  1  1  0  0  0
 23 14  1  0  0  0  0
 24 31  1  0  0  0  0
 25 28  1  0  0  0  0
 25 30  1  0  0  0  0
 27 24  2  0  0  0  0
 28 24  1  0  0  0  0
 29 26  2  0  0  0  0
 30 29  1  0  0  0  0
 30 23  1  0  0  0  0
 31 29  1  0  0  0  0
M  END
>  <MODEL>
9

>  <REMARK>
 VINA RESULT:      -9.8      2.119      4.580
  Name = 
  2 active torsions:
  status: ('A' for Active; 'I' for Inactive)
    1  A    between atoms: C_5  and  N_16
    2  A    between atoms: C_5  and  N_30
                            x       y       z     vdW  Elec       q    Type
                         _______ _______ _______ _____ _____    ______ ____

>  <TORSDO>
F 2

$$$$
