=
 OpenBabel11122411543D

 28 32  0  0  1  0  0  0  0  0999 V2000
  190.9470  176.4340  138.7410 C   0  0  0  0  0  0  0  0  0  0  0  0
  190.1870  174.9150  142.8520 O   0  0  0  0  0  0  0  0  0  0  0  0
  184.9240  178.7180  138.7280 C   0  0  0  0  0  1  0  0  0  0  0  0
  193.0910  177.5030  140.1500 C   0  0  0  0  0  3  0  0  0  0  0  0
  186.2140  179.0910  140.9270 C   0  0  2  0  0  3  0  0  0  0  0  0
  189.8590  175.9330  137.8750 C   0  0  0  0  0  2  0  0  0  0  0  0
  191.4100  176.9780  143.4550 O   0  0  0  0  0  0  0  0  0  0  0  0
  190.0590  176.3690  143.2060 S   0  0  0  0  0  0  0  0  0  0  0  0
  187.9420  177.4320  144.6880 C   0  0  0  0  0  0  0  0  0  0  0  0
  189.1890  177.2190  141.9630 C   0  0  0  0  0  0  0  0  0  0  0  0
  187.2760  177.9410  136.1320 C   0  0  0  0  0  1  0  0  0  0  0  0
  188.2450  178.0460  140.1230 C   0  0  0  0  0  0  0  0  0  0  0  0
  187.5120  178.1160  143.6620 N   0  0  0  0  0  0  0  0  0  0  0  0
  189.0780  176.5490  144.6200 N   0  0  0  0  0  2  0  0  0  0  0  0
  187.8880  176.8230  136.9570 C   0  0  2  0  0  3  0  0  0  0  0  0
  190.6990  177.0430  139.9950 C   0  0  0  0  0  0  0  0  0  0  0  0
  186.1130  178.6000  139.5570 N   0  0  0  0  0  0  0  0  0  0  0  0
  187.2210  177.5590  145.9820 C   0  0  0  0  0  1  0  0  0  0  0  0
  187.1800  176.6730  138.3040 C   0  0  0  0  0  2  0  0  0  0  0  0
  191.8030  177.5870  140.6710 C   0  0  0  0  0  3  0  0  0  0  0  0
  192.2150  176.3710  138.2520 N   0  0  0  0  0  0  0  0  0  0  0  0
  193.2810  176.8780  138.9230 C   0  0  0  0  0  3  0  0  0  0  0  0
  189.3110  177.0540  137.1280 N   0  0  0  0  0  2  0  0  0  0  0  0
  187.5960  178.6410  141.2630 C   0  0  0  0  0  0  0  0  0  0  0  0
  187.2940  177.8730  139.1960 C   0  0  2  0  0  3  0  0  0  0  0  0
  188.0940  178.0830  142.3540 C   0  0  2  0  0  3  0  0  0  0  0  0
  185.1640  178.4060  141.7930 C   0  0  0  0  0  1  0  0  0  0  0  0
  189.3460  177.1850  140.6250 C   0  0  0  0  0  0  0  0  0  0  0  0
  1 16  1  0  0  0  0
  2  8  2  0  0  0  0
  3 17  1  0  0  0  0
  4 20  1  0  0  0  0
  5 24  1  0  0  0  0
  5 27  1  1  0  0  0
  6  1  1  0  0  0  0
  8  7  2  0  0  0  0
  8 14  1  0  0  0  0
  9 18  1  0  0  0  0
 10 26  1  0  0  0  0
 10  8  1  0  0  0  0
 12 28  1  0  0  0  0
 12 24  2  0  0  0  0
 13  9  2  0  0  0  0
 14  9  1  0  0  0  0
 15 11  1  1  0  0  0
 15 23  1  0  0  0  0
 15 19  1  0  0  0  0
 16 28  1  0  0  0  0
 16 20  2  0  0  0  0
 17  5  1  0  0  0  0
 21  1  2  0  0  0  0
 21 22  1  0  0  0  0
 22  4  2  0  0  0  0
 23  6  1  0  0  0  0
 25 19  1  1  0  0  0
 25 17  1  0  0  0  0
 25 12  1  0  0  0  0
 26 24  1  6  0  0  0
 26 13  1  0  0  0  0
 28 10  2  0  0  0  0
M  END
>  <MODEL>
1

>  <REMARK>
 VINA RESULT:      -8.3      0.000      0.000
  Name = 
  0 active torsions:
  status: ('A' for Active; 'I' for Inactive)
                            x       y       z     vdW  Elec       q    Type
                         _______ _______ _______ _____ _____    ______ ____

>  <TORSDO>
F 0

$$$$
=
 OpenBabel11122411543D

 28 32  0  0  1  0  0  0  0  0999 V2000
  184.7610  178.8800  140.3280 C   0  0  0  0  0  0  0  0  0  0  0  0
  184.8030  180.7490  144.3640 O   0  0  0  0  0  0  0  0  0  0  0  0
  190.6180  176.5300  141.6170 C   0  0  0  0  0  1  0  0  0  0  0  0
  182.3670  177.9670  141.4040 C   0  0  0  0  0  3  0  0  0  0  0  0
  188.9390  176.3700  143.5660 C   0  0  2  0  0  3  0  0  0  0  0  0
  186.0020  179.2880  139.6370 C   0  0  0  0  0  2  0  0  0  0  0  0
  183.4320  178.7640  144.9060 O   0  0  0  0  0  0  0  0  0  0  0  0
  184.8220  179.3310  144.8570 S   0  0  0  0  0  0  0  0  0  0  0  0
  186.6030  178.3790  146.7890 C   0  0  0  0  0  0  0  0  0  0  0  0
  185.8800  178.3640  143.8730 C   0  0  0  0  0  0  0  0  0  0  0  0
  188.8020  177.1020  138.5770 C   0  0  0  0  0  1  0  0  0  0  0  0
  187.1190  177.3640  142.3150 C   0  0  0  0  0  0  0  0  0  0  0  0
  187.1930  177.6010  145.9220 N   0  0  0  0  0  0  0  0  0  0  0  0
  185.5240  179.2660  146.4380 N   0  0  0  0  0  2  0  0  0  0  0  0
  188.0820  178.2960  139.1760 C   0  0  2  0  0  3  0  0  0  0  0  0
  184.7590  178.3810  141.6530 C   0  0  0  0  0  0  0  0  0  0  0  0
  189.3020  176.7360  142.2010 N   0  0  0  0  0  0  0  0  0  0  0  0
  187.0720  178.3590  148.1990 C   0  0  0  0  0  1  0  0  0  0  0  0
  188.5360  178.5570  140.6120 C   0  0  0  0  0  2  0  0  0  0  0  0
  183.5350  177.9130  142.1590 C   0  0  0  0  0  3  0  0  0  0  0  0
  183.6050  178.9140  139.6100 N   0  0  0  0  0  0  0  0  0  0  0  0
  182.4210  178.4830  140.1150 C   0  0  0  0  0  3  0  0  0  0  0  0
  186.6440  178.0980  139.1020 N   0  0  0  0  0  2  0  0  0  0  0  0
  187.5320  176.8650  143.6010 C   0  0  0  0  0  0  0  0  0  0  0  0
  188.2270  177.4430  141.5670 C   0  0  2  0  0  3  0  0  0  0  0  0
  186.8610  177.5240  144.5310 C   0  0  2  0  0  3  0  0  0  0  0  0
  189.8330  177.1170  144.5480 C   0  0  0  0  0  1  0  0  0  0  0  0
  185.9700  178.2800  142.5310 C   0  0  0  0  0  0  0  0  0  0  0  0
  1 16  1  0  0  0  0
  2  8  2  0  0  0  0
  3 17  1  0  0  0  0
  4 20  1  0  0  0  0
  5 24  1  0  0  0  0
  5 27  1  1  0  0  0
  6  1  1  0  0  0  0
  8  7  2  0  0  0  0
  8 14  1  0  0  0  0
  9 18  1  0  0  0  0
 10 26  1  0  0  0  0
 10  8  1  0  0  0  0
 12 28  1  0  0  0  0
 12 24  2  0  0  0  0
 13  9  2  0  0  0  0
 14  9  1  0  0  0  0
 15 11  1  1  0  0  0
 15 19  1  0  0  0  0
 16 20  2  0  0  0  0
 16 28  1  0  0  0  0
 17  5  1  0  0  0  0
 21 22  1  0  0  0  0
 21  1  2  0  0  0  0
 22  4  2  0  0  0  0
 23 15  1  0  0  0  0
 23  6  1  0  0  0  0
 25 19  1  1  0  0  0
 25 17  1  0  0  0  0
 25 12  1  0  0  0  0
 26 24  1  6  0  0  0
 26 13  1  0  0  0  0
 28 10  2  0  0  0  0
M  END
>  <MODEL>
2

>  <REMARK>
 VINA RESULT:      -7.7      3.154      5.797
  Name = 
  0 active torsions:
  status: ('A' for Active; 'I' for Inactive)
                            x       y       z     vdW  Elec       q    Type
                         _______ _______ _______ _____ _____    ______ ____

>  <TORSDO>
F 0

$$$$
=
 OpenBabel11122411543D

 28 32  0  0  1  0  0  0  0  0999 V2000
  190.8120  177.6360  141.8740 C   0  0  0  0  0  0  0  0  0  0  0  0
  187.3000  180.2420  141.0660 O   0  0  0  0  0  0  0  0  0  0  0  0
  188.6100  176.9370  147.8870 C   0  0  0  0  0  1  0  0  0  0  0  0
  189.7380  176.4560  139.5990 C   0  0  0  0  0  3  0  0  0  0  0  0
  186.8020  176.8080  146.0540 C   0  0  2  0  0  3  0  0  0  0  0  0
  191.4840  178.1590  143.0820 C   0  0  0  0  0  2  0  0  0  0  0  0
  186.4320  178.1550  140.0620 O   0  0  0  0  0  0  0  0  0  0  0  0
  186.5030  178.9920  141.3080 S   0  0  0  0  0  0  0  0  0  0  0  0
  184.2840  178.8620  143.0010 C   0  0  0  0  0  0  0  0  0  0  0  0
  187.1690  178.1020  142.6450 C   0  0  0  0  0  0  0  0  0  0  0  0
  191.8250  176.4720  146.3650 C   0  0  0  0  0  1  0  0  0  0  0  0
  188.3710  177.1060  144.2340 C   0  0  0  0  0  0  0  0  0  0  0  0
  184.9110  178.0740  143.8320 N   0  0  0  0  0  0  0  0  0  0  0  0
  184.9000  179.4020  141.8170 N   0  0  0  0  0  2  0  0  0  0  0  0
  191.5600  177.5750  145.3570 C   0  0  2  0  0  3  0  0  0  0  0  0
  189.4130  177.4270  141.8140 C   0  0  0  0  0  0  0  0  0  0  0  0
  188.1840  176.9620  146.4960 N   0  0  0  0  0  0  0  0  0  0  0  0
  182.8740  179.2300  143.2940 C   0  0  0  0  0  1  0  0  0  0  0  0
  190.1880  178.2130  145.5770 C   0  0  0  0  0  2  0  0  0  0  0  0
  188.9070  176.8130  140.6560 C   0  0  0  0  0  3  0  0  0  0  0  0
  191.6020  177.2710  140.8280 N   0  0  0  0  0  0  0  0  0  0  0  0
  191.1020  176.7010  139.7020 C   0  0  0  0  0  3  0  0  0  0  0  0
  191.6930  177.0560  144.0070 N   0  0  0  0  0  2  0  0  0  0  0  0
  186.9800  176.9790  144.5830 C   0  0  0  0  0  0  0  0  0  0  0  0
  189.0350  177.2740  145.3850 C   0  0  2  0  0  3  0  0  0  0  0  0
  186.2710  177.6480  143.6880 C   0  0  2  0  0  3  0  0  0  0  0  0
  185.9470  177.9150  146.6580 C   0  0  0  0  0  1  0  0  0  0  0  0
  188.4490  177.7720  142.9090 C   0  0  0  0  0  0  0  0  0  0  0  0
  1  6  1  0  0  0  0
  2  8  2  0  0  0  0
  4 22  2  0  0  0  0
  4 20  1  0  0  0  0
  5 17  1  0  0  0  0
  5 27  1  1  0  0  0
  6 23  1  0  0  0  0
  7  8  2  0  0  0  0
  8 14  1  0  0  0  0
  8 10  1  0  0  0  0
  9 18  1  0  0  0  0
  9 13  2  0  0  0  0
 10 28  2  0  0  0  0
 12 24  2  0  0  0  0
 12 25  1  0  0  0  0
 14  9  1  0  0  0  0
 15 19  1  0  0  0  0
 15 11  1  1  0  0  0
 16  1  1  0  0  0  0
 16 28  1  0  0  0  0
 17  3  1  0  0  0  0
 20 16  2  0  0  0  0
 21  1  2  0  0  0  0
 22 21  1  0  0  0  0
 23 15  1  0  0  0  0
 24  5  1  0  0  0  0
 25 19  1  1  0  0  0
 25 17  1  0  0  0  0
 26 10  1  1  0  0  0
 26 13  1  0  0  0  0
 26 24  1  0  0  0  0
 28 12  1  0  0  0  0
M  END
>  <MODEL>
3

>  <REMARK>
 VINA RESULT:      -7.2      2.859      5.689
  Name = 
  0 active torsions:
  status: ('A' for Active; 'I' for Inactive)
                            x       y       z     vdW  Elec       q    Type
                         _______ _______ _______ _____ _____    ______ ____

>  <TORSDO>
F 0

$$$$
=
 OpenBabel11122411543D

 28 32  0  0  1  0  0  0  0  0999 V2000
  190.4460  177.0530  144.9720 C   0  0  0  0  0  0  0  0  0  0  0  0
  189.2660  179.3230  141.3340 O   0  0  0  0  0  0  0  0  0  0  0  0
  184.7270  178.5990  147.5010 C   0  0  0  0  0  1  0  0  0  0  0  0
  190.8870  175.1820  142.9660 C   0  0  0  0  0  3  0  0  0  0  0  0
  184.6560  177.8920  145.0240 C   0  0  2  0  0  3  0  0  0  0  0  0
  190.2530  177.9470  146.1340 C   0  0  0  0  0  2  0  0  0  0  0  0
  188.7540  177.0460  140.5150 O   0  0  0  0  0  0  0  0  0  0  0  0
  188.2070  178.2660  141.1990 S   0  0  0  0  0  0  0  0  0  0  0  0
  185.5050  178.8180  140.7460 C   0  0  0  0  0  0  0  0  0  0  0  0
  187.5340  177.8850  142.7560 C   0  0  0  0  0  0  0  0  0  0  0  0
  187.8410  177.5190  148.9160 C   0  0  0  0  0  1  0  0  0  0  0  0
  187.0370  177.4740  144.8880 C   0  0  0  0  0  0  0  0  0  0  0  0
  185.1700  178.3540  141.9190 N   0  0  0  0  0  0  0  0  0  0  0  0
  186.8690  178.8840  140.2900 N   0  0  0  0  0  2  0  0  0  0  0  0
  188.6320  178.2020  147.8160 C   0  0  2  0  0  3  0  0  0  0  0  0
  189.4570  176.8840  143.9740 C   0  0  0  0  0  0  0  0  0  0  0  0
  185.3630  178.1450  146.2740 N   0  0  0  0  0  0  0  0  0  0  0  0
  184.4330  179.3130  139.8430 C   0  0  0  0  0  1  0  0  0  0  0  0
  187.7100  178.9220  146.8320 C   0  0  0  0  0  2  0  0  0  0  0  0
  189.7060  175.9180  142.9850 C   0  0  0  0  0  3  0  0  0  0  0  0
  191.5890  176.3160  144.9340 N   0  0  0  0  0  0  0  0  0  0  0  0
  191.8330  175.4020  143.9600 C   0  0  0  0  0  3  0  0  0  0  0  0
  189.4790  177.2360  147.1390 N   0  0  0  0  0  2  0  0  0  0  0  0
  185.8040  177.5260  144.1450 C   0  0  0  0  0  0  0  0  0  0  0  0
  186.7780  178.0150  146.0860 C   0  0  2  0  0  3  0  0  0  0  0  0
  186.0920  177.8590  142.8980 C   0  0  0  0  0  0  0  0  0  0  0  0
  183.9660  179.1690  144.5600 C   0  0  0  0  0  1  0  0  0  0  0  0
  188.1560  177.6260  143.9230 C   0  0  1  0  0  3  0  0  0  0  0  0
  1  6  1  0  0  0  0
  4 20  2  0  0  0  0
  4 22  1  0  0  0  0
  5 27  1  6  0  0  0
  5 17  1  0  0  0  0
  6 23  1  0  0  0  0
  7  8  2  0  0  0  0
  8  2  2  0  0  0  0
  8 10  1  0  0  0  0
  9 13  2  0  0  0  0
 10 26  2  0  0  0  0
 12 25  1  0  0  0  0
 13 26  1  0  0  0  0
 14  9  1  0  0  0  0
 14  8  1  0  0  0  0
 15 11  1  1  0  0  0
 16  1  2  0  0  0  0
 17  3  1  0  0  0  0
 18  9  1  0  0  0  0
 19 15  1  0  0  0  0
 20 16  1  0  0  0  0
 21  1  1  0  0  0  0
 22 21  2  0  0  0  0
 23 15  1  0  0  0  0
 24 12  2  0  0  0  0
 24  5  1  0  0  0  0
 25 17  1  0  0  0  0
 25 19  1  6  0  0  0
 26 24  1  0  0  0  0
 28 10  1  6  0  0  0
 28 16  1  0  0  0  0
 28 12  1  0  0  0  0
M  END
>  <MODEL>
4

>  <REMARK>
 VINA RESULT:      -7.1      3.368      6.311
  Name = 
  0 active torsions:
  status: ('A' for Active; 'I' for Inactive)
                            x       y       z     vdW  Elec       q    Type
                         _______ _______ _______ _____ _____    ______ ____

>  <TORSDO>
F 0

$$$$
=
 OpenBabel11122411543D

 28 32  0  0  1  0  0  0  0  0999 V2000
  190.7000  177.2270  147.1760 C   0  0  0  0  0  0  0  0  0  0  0  0
  191.9690  178.8110  143.2180 O   0  0  0  0  0  0  0  0  0  0  0  0
  184.6140  178.4200  145.4340 C   0  0  0  0  0  1  0  0  0  0  0  0
  192.2920  175.1610  146.2190 C   0  0  0  0  0  3  0  0  0  0  0  0
  186.0780  177.3710  143.5900 C   0  0  2  0  0  3  0  0  0  0  0  0
  189.8290  178.2450  147.8020 C   0  0  0  0  0  2  0  0  0  0  0  0
  192.0860  176.3980  142.6900 O   0  0  0  0  0  0  0  0  0  0  0  0
  191.2230  177.6280  142.6720 S   0  0  0  0  0  0  0  0  0  0  0  0
  189.3570  177.7860  140.5970 C   0  0  0  0  0  0  0  0  0  0  0  0
  189.7420  177.3900  143.5510 C   0  0  0  0  0  0  0  0  0  0  0  0
  186.2230  177.9250  148.6010 C   0  0  0  0  0  1  0  0  0  0  0  0
  188.0490  177.2240  144.9890 C   0  0  0  0  0  0  0  0  0  0  0  0
  188.3790  177.4540  141.3960 N   0  0  0  0  0  0  0  0  0  0  0  0
  190.7150  177.9490  141.0480 N   0  0  0  0  0  2  0  0  0  0  0  0
  187.5150  178.5370  148.0930 C   0  0  2  0  0  3  0  0  0  0  0  0
  190.5290  176.8040  145.8360 C   0  0  0  0  0  0  0  0  0  0  0  0
  185.8710  177.8780  144.9420 N   0  0  0  0  0  0  0  0  0  0  0  0
  189.0560  178.0190  139.1610 C   0  0  0  0  0  1  0  0  0  0  0  0
  187.3810  178.9990  146.6420 C   0  0  0  0  0  2  0  0  0  0  0  0
  191.3390  175.7470  145.3910 C   0  0  0  0  0  3  0  0  0  0  0  0
  191.6340  176.6330  147.9660 N   0  0  0  0  0  0  0  0  0  0  0  0
  192.4310  175.6280  147.5210 C   0  0  0  0  0  3  0  0  0  0  0  0
  188.6080  177.5940  148.2510 N   0  0  0  0  0  2  0  0  0  0  0  0
  187.5270  177.0250  143.6620 C   0  0  0  0  0  0  0  0  0  0  0  0
  187.1080  177.8920  145.6680 C   0  0  2  0  0  3  0  0  0  0  0  0
  188.5140  177.2130  142.8020 C   0  0  0  0  0  0  0  0  0  0  0  0
  185.8040  178.4800  142.5820 C   0  0  0  0  0  1  0  0  0  0  0  0
  189.5230  177.3720  144.8800 C   0  0  1  0  0  3  0  0  0  0  0  0
  1  6  1  0  0  0  0
  1 21  1  0  0  0  0
  4 22  1  0  0  0  0
  5 27  1  6  0  0  0
  5 24  1  0  0  0  0
  5 17  1  0  0  0  0
  6 23  1  0  0  0  0
  8  7  2  0  0  0  0
  8  2  2  0  0  0  0
  8 10  1  0  0  0  0
  9 14  1  0  0  0  0
  9 13  2  0  0  0  0
 12 25  1  0  0  0  0
 13 26  1  0  0  0  0
 14  8  1  0  0  0  0
 15 23  1  0  0  0  0
 15 11  1  6  0  0  0
 16  1  2  0  0  0  0
 17  3  1  0  0  0  0
 17 25  1  0  0  0  0
 18  9  1  0  0  0  0
 19 15  1  0  0  0  0
 20 16  1  0  0  0  0
 20  4  2  0  0  0  0
 22 21  2  0  0  0  0
 24 12  2  0  0  0  0
 25 19  1  6  0  0  0
 26 10  2  0  0  0  0
 26 24  1  0  0  0  0
 28 10  1  6  0  0  0
 28 12  1  0  0  0  0
 28 16  1  0  0  0  0
M  END
>  <MODEL>
5

>  <REMARK>
 VINA RESULT:      -6.8      2.732      6.632
  Name = 
  0 active torsions:
  status: ('A' for Active; 'I' for Inactive)
                            x       y       z     vdW  Elec       q    Type
                         _______ _______ _______ _____ _____    ______ ____

>  <TORSDO>
F 0

$$$$
=
 OpenBabel11122411543D

 28 32  0  0  1  0  0  0  0  0999 V2000
  187.5490  177.7810  141.5870 C   0  0  0  0  0  0  0  0  0  0  0  0
  190.3940  174.7130  143.0950 O   0  0  0  0  0  0  0  0  0  0  0  0
  185.7900  178.8110  147.6970 C   0  0  0  0  0  1  0  0  0  0  0  0
  189.9360  178.5950  140.4200 C   0  0  0  0  0  3  0  0  0  0  0  0
  188.3280  178.5440  147.3350 C   0  0  2  0  0  3  0  0  0  0  0  0
  186.2180  177.4630  142.1440 C   0  0  0  0  0  2  0  0  0  0  0  0
  191.9970  176.5740  142.8070 O   0  0  0  0  0  0  0  0  0  0  0  0
  191.0670  175.8800  143.7610 S   0  0  0  0  0  0  0  0  0  0  0  0
  191.8200  175.9160  146.4520 C   0  0  0  0  0  0  0  0  0  0  0  0
  189.8800  176.9700  144.4140 C   0  0  0  0  0  0  0  0  0  0  0  0
  184.2430  179.4970  144.5340 C   0  0  0  0  0  1  0  0  0  0  0  0
  188.1370  178.2530  144.9390 C   0  0  0  0  0  0  0  0  0  0  0  0
  190.9500  176.8500  146.7260 N   0  0  0  0  0  0  0  0  0  0  0  0
  191.9600  175.3370  145.1410 N   0  0  0  0  0  2  0  0  0  0  0  0
  184.8860  178.2760  143.9020 C   0  0  2  0  0  3  0  0  0  0  0  0
  188.7170  177.8180  142.3860 C   0  0  0  0  0  0  0  0  0  0  0  0
  186.9530  178.5980  146.8500 N   0  0  0  0  0  0  0  0  0  0  0  0
  192.6960  175.4160  147.5440 C   0  0  0  0  0  1  0  0  0  0  0  0
  185.7350  177.5060  144.9140 C   0  0  0  0  0  2  0  0  0  0  0  0
  189.9020  178.2500  141.7680 C   0  0  0  0  0  3  0  0  0  0  0  0
  187.6100  178.1310  140.2730 N   0  0  0  0  0  0  0  0  0  0  0  0
  188.7640  178.5240  139.6770 C   0  0  0  0  0  3  0  0  0  0  0  0
  185.6690  178.6700  142.7430 N   0  0  0  0  0  2  0  0  0  0  0  0
  189.0420  178.2500  146.0600 C   0  0  0  0  0  0  0  0  0  0  0  0
  186.9010  178.2800  145.4530 C   0  0  2  0  0  3  0  0  0  0  0  0
  190.0320  177.4170  145.7840 C   0  0  2  0  0  3  0  0  0  0  0  0
  188.4680  177.4100  148.3440 C   0  0  0  0  0  1  0  0  0  0  0  0
  188.7670  177.4720  143.8440 C   0  0  0  0  0  0  0  0  0  0  0  0
  1  6  1  0  0  0  0
  1 16  1  0  0  0  0
  2  8  2  0  0  0  0
  4 20  1  0  0  0  0
  5 27  1  1  0  0  0
  6 23  1  0  0  0  0
  7  8  2  0  0  0  0
  8 10  1  0  0  0  0
  8 14  1  0  0  0  0
  9 13  2  0  0  0  0
  9 18  1  0  0  0  0
 12 25  1  0  0  0  0
 12 24  2  0  0  0  0
 14  9  1  0  0  0  0
 15 11  1  1  0  0  0
 15 19  1  0  0  0  0
 16 28  1  0  0  0  0
 17  5  1  0  0  0  0
 17  3  1  0  0  0  0
 20 16  2  0  0  0  0
 21  1  2  0  0  0  0
 22 21  1  0  0  0  0
 22  4  2  0  0  0  0
 23 15  1  0  0  0  0
 24  5  1  0  0  0  0
 25 19  1  1  0  0  0
 25 17  1  0  0  0  0
 26 10  1  1  0  0  0
 26 24  1  0  0  0  0
 26 13  1  0  0  0  0
 28 10  2  0  0  0  0
 28 12  1  0  0  0  0
M  END
>  <MODEL>
6

>  <REMARK>
 VINA RESULT:      -6.8      2.536      5.410
  Name = 
  0 active torsions:
  status: ('A' for Active; 'I' for Inactive)
                            x       y       z     vdW  Elec       q    Type
                         _______ _______ _______ _____ _____    ______ ____

>  <TORSDO>
F 0

$$$$
=
 OpenBabel11122411543D

 28 32  0  0  1  0  0  0  0  0999 V2000
  187.0460  178.5440  146.8050 C   0  0  0  0  0  0  0  0  0  0  0  0
  190.9560  179.4960  144.9110 O   0  0  0  0  0  0  0  0  0  0  0  0
  184.4410  178.6270  140.9140 C   0  0  0  0  0  1  0  0  0  0  0  0
  188.6800  176.5460  147.8350 C   0  0  0  0  0  3  0  0  0  0  0  0
  186.7230  177.4370  141.0690 C   0  0  2  0  0  3  0  0  0  0  0  0
  186.0680  179.5460  146.3310 C   0  0  0  0  0  2  0  0  0  0  0  0
  191.2780  177.0600  145.1860 O   0  0  0  0  0  0  0  0  0  0  0  0
  190.8040  178.1480  144.2660 S   0  0  0  0  0  0  0  0  0  0  0  0
  191.1510  177.6810  141.5330 C   0  0  0  0  0  0  0  0  0  0  0  0
  189.1560  177.9000  143.7690 C   0  0  0  0  0  0  0  0  0  0  0  0
  183.0820  178.9410  144.2190 C   0  0  0  0  0  1  0  0  0  0  0  0
  186.9540  177.8020  143.4520 C   0  0  0  0  0  0  0  0  0  0  0  0
  189.8880  177.3870  141.3800 N   0  0  0  0  0  0  0  0  0  0  0  0
  191.7120  178.0920  142.7940 N   0  0  0  0  0  2  0  0  0  0  0  0
  184.3500  179.6010  144.7290 C   0  0  2  0  0  3  0  0  0  0  0  0
  187.9160  177.8570  145.9240 C   0  0  0  0  0  0  0  0  0  0  0  0
  185.6020  178.1610  141.6580 N   0  0  0  0  0  0  0  0  0  0  0  0
  192.0490  177.6000  140.3510 C   0  0  0  0  0  1  0  0  0  0  0  0
  185.3830  179.7600  143.6130 C   0  0  0  0  0  2  0  0  0  0  0  0
  188.7150  176.8430  146.4760 C   0  0  0  0  0  3  0  0  0  0  0  0
  187.0270  178.2290  148.1290 N   0  0  0  0  0  0  0  0  0  0  0  0
  187.8210  177.2640  148.6590 C   0  0  0  0  0  3  0  0  0  0  0  0
  184.8890  178.8460  145.8470 N   0  0  0  0  0  2  0  0  0  0  0  0
  187.5980  177.2920  142.2680 C   0  0  0  0  0  0  0  0  0  0  0  0
  185.8670  178.4650  143.0340 C   0  0  2  0  0  3  0  0  0  0  0  0
  188.9030  177.4350  142.4200 C   0  0  0  0  0  0  0  0  0  0  0  0
  187.3710  178.2940  139.9880 C   0  0  0  0  0  1  0  0  0  0  0  0
  188.0110  178.1070  144.4490 C   0  0  1  0  0  3  0  0  0  0  0  0
  1 21  1  0  0  0  0
  3 17  1  0  0  0  0
  4 22  1  0  0  0  0
  5 27  1  6  0  0  0
  5 17  1  0  0  0  0
  5 24  1  0  0  0  0
  6  1  1  0  0  0  0
  8  2  2  0  0  0  0
  8  7  2  0  0  0  0
  9 14  1  0  0  0  0
 10  8  1  0  0  0  0
 10 28  1  0  0  0  0
 13  9  2  0  0  0  0
 13 26  1  0  0  0  0
 14  8  1  0  0  0  0
 15 11  1  6  0  0  0
 15 23  1  0  0  0  0
 16 20  1  0  0  0  0
 16  1  2  0  0  0  0
 17 25  1  0  0  0  0
 18  9  1  0  0  0  0
 19 15  1  0  0  0  0
 20  4  2  0  0  0  0
 21 22  2  0  0  0  0
 23  6  1  0  0  0  0
 24 26  1  0  0  0  0
 24 12  2  0  0  0  0
 25 12  1  0  0  0  0
 25 19  1  6  0  0  0
 26 10  2  0  0  0  0
 28 12  1  6  0  0  0
 28 16  1  0  0  0  0
M  END
>  <MODEL>
7

>  <REMARK>
 VINA RESULT:      -6.7      2.355      6.314
  Name = 
  0 active torsions:
  status: ('A' for Active; 'I' for Inactive)
                            x       y       z     vdW  Elec       q    Type
                         _______ _______ _______ _____ _____    ______ ____

>  <TORSDO>
F 0

$$$$
=
 OpenBabel11122411543D

 28 32  0  0  1  0  0  0  0  0999 V2000
  186.6160  177.9020  139.2200 C   0  0  0  0  0  0  0  0  0  0  0  0
  188.2840  175.7350  142.7280 O   0  0  0  0  0  0  0  0  0  0  0  0
  181.5120  179.3820  142.8620 C   0  0  0  0  0  1  0  0  0  0  0  0
  189.1480  179.0260  139.4320 C   0  0  0  0  0  3  0  0  0  0  0  0
  183.7880  179.6020  144.0530 C   0  0  2  0  0  3  0  0  0  0  0  0
  185.2460  177.3940  138.9960 C   0  0  0  0  0  2  0  0  0  0  0  0
  189.5770  177.8310  142.9570 O   0  0  0  0  0  0  0  0  0  0  0  0
  188.3300  177.0970  143.3600 S   0  0  0  0  0  0  0  0  0  0  0  0
  187.3460  177.6630  145.9140 C   0  0  0  0  0  0  0  0  0  0  0  0
  186.8950  177.9960  142.9620 C   0  0  0  0  0  0  0  0  0  0  0  0
  182.0730  179.2830  139.3200 C   0  0  0  0  0  1  0  0  0  0  0  0
  185.0720  178.9470  142.1070 C   0  0  0  0  0  0  0  0  0  0  0  0
  186.4030  178.4240  145.4270 N   0  0  0  0  0  0  0  0  0  0  0  0
  188.2820  176.9500  145.0840 N   0  0  0  0  0  2  0  0  0  0  0  0
  183.0690  178.1480  139.4620 C   0  0  2  0  0  3  0  0  0  0  0  0
  187.0800  178.2930  140.4990 C   0  0  0  0  0  0  0  0  0  0  0  0
  182.9650  179.3010  142.8870 N   0  0  0  0  0  0  0  0  0  0  0  0
  187.4510  177.5140  147.3890 C   0  0  0  0  0  1  0  0  0  0  0  0
  183.2230  177.7200  140.9220 C   0  0  0  0  0  2  0  0  0  0  0  0
  188.3570  178.8720  140.5670 C   0  0  0  0  0  3  0  0  0  0  0  0
  187.4070  178.0710  138.1260 N   0  0  0  0  0  0  0  0  0  0  0  0
  188.6510  178.6090  138.2030 C   0  0  0  0  0  3  0  0  0  0  0  0
  184.3450  178.5310  138.8840 N   0  0  0  0  0  2  0  0  0  0  0  0
  185.1390  179.2890  143.5040 C   0  0  0  0  0  0  0  0  0  0  0  0
  183.7740  178.7870  141.8200 C   0  0  2  0  0  3  0  0  0  0  0  0
  186.1700  178.6500  144.0320 C   0  0  2  0  0  3  0  0  0  0  0  0
  183.4070  178.6740  145.1990 C   0  0  0  0  0  1  0  0  0  0  0  0
  186.2920  178.1710  141.7690 C   0  0  0  0  0  0  0  0  0  0  0  0
  1 16  1  0  0  0  0
  2  8  2  0  0  0  0
  3 17  1  0  0  0  0
  4 20  1  0  0  0  0
  5 27  1  1  0  0  0
  6  1  1  0  0  0  0
  7  8  2  0  0  0  0
  8 14  1  0  0  0  0
  9 18  1  0  0  0  0
 10  8  1  0  0  0  0
 12 24  2  0  0  0  0
 13  9  2  0  0  0  0
 14  9  1  0  0  0  0
 15 11  1  1  0  0  0
 15 19  1  0  0  0  0
 16 20  2  0  0  0  0
 16 28  1  0  0  0  0
 17  5  1  0  0  0  0
 21 22  1  0  0  0  0
 21  1  2  0  0  0  0
 22  4  2  0  0  0  0
 23  6  1  0  0  0  0
 23 15  1  0  0  0  0
 24 26  1  0  0  0  0
 24  5  1  0  0  0  0
 25 19  1  1  0  0  0
 25 12  1  0  0  0  0
 25 17  1  0  0  0  0
 26 10  1  6  0  0  0
 26 13  1  0  0  0  0
 28 12  1  0  0  0  0
 28 10  2  0  0  0  0
M  END
>  <MODEL>
8

>  <REMARK>
 VINA RESULT:      -6.7      2.412      3.973
  Name = 
  0 active torsions:
  status: ('A' for Active; 'I' for Inactive)
                            x       y       z     vdW  Elec       q    Type
                         _______ _______ _______ _____ _____    ______ ____

>  <TORSDO>
F 0

$$$$
=
 OpenBabel11122411543D

 28 32  0  0  1  0  0  0  0  0999 V2000
  190.5780  177.2570  141.8500 C   0  0  0  0  0  0  0  0  0  0  0  0
  187.1810  176.2770  144.5500 O   0  0  0  0  0  0  0  0  0  0  0  0
  186.2770  178.0560  137.1210 C   0  0  0  0  0  1  0  0  0  0  0  0
  191.0120  179.0030  143.9680 C   0  0  0  0  0  3  0  0  0  0  0  0
  185.5850  179.0620  139.3910 C   0  0  2  0  0  3  0  0  0  0  0  0
  190.4640  176.3870  140.6600 C   0  0  0  0  0  2  0  0  0  0  0  0
  187.5010  178.6360  145.2210 O   0  0  0  0  0  0  0  0  0  0  0  0
  186.7680  177.7000  144.3030 S   0  0  0  0  0  0  0  0  0  0  0  0
  184.1790  178.4670  143.5800 C   0  0  0  0  0  0  0  0  0  0  0  0
  187.0090  178.1160  142.6320 C   0  0  0  0  0  0  0  0  0  0  0  0
  189.8110  177.4410  137.1670 C   0  0  0  0  0  1  0  0  0  0  0  0
  187.6270  178.4000  140.5110 C   0  0  0  0  0  0  0  0  0  0  0  0
  184.5800  178.8610  142.4020 N   0  0  0  0  0  0  0  0  0  0  0  0
  185.0630  177.8710  144.5490 N   0  0  0  0  0  2  0  0  0  0  0  0
  189.7030  176.6410  138.4510 C   0  0  2  0  0  3  0  0  0  0  0  0
  189.4780  177.9840  142.3660 C   0  0  0  0  0  0  0  0  0  0  0  0
  186.5180  178.3500  138.5250 N   0  0  0  0  0  0  0  0  0  0  0  0
  182.7450  178.6280  143.9360 C   0  0  0  0  0  1  0  0  0  0  0  0
  188.2540  176.5470  138.9290 C   0  0  0  0  0  2  0  0  0  0  0  0
  189.7370  178.8690  143.4260 C   0  0  0  0  0  3  0  0  0  0  0  0
  191.8150  177.4120  142.3950 N   0  0  0  0  0  0  0  0  0  0  0  0
  192.0520  178.2510  143.4350 C   0  0  0  0  0  3  0  0  0  0  0  0
  190.5610  177.2180  139.4710 N   0  0  0  0  0  2  0  0  0  0  0  0
  186.3300  179.0030  140.6810 C   0  0  0  0  0  0  0  0  0  0  0  0
  187.6360  177.8670  139.2820 C   0  0  2  0  0  3  0  0  0  0  0  0
  185.9230  178.7560  141.9150 C   0  0  2  0  0  3  0  0  0  0  0  0
  184.2670  178.2990  139.4560 C   0  0  0  0  0  1  0  0  0  0  0  0
  188.0770  177.9070  141.8370 C   0  0  0  0  0  0  0  0  0  0  0  0
  1 16  2  0  0  0  0
  1 21  1  0  0  0  0
  3 17  1  0  0  0  0
  5 27  1  1  0  0  0
  5 24  1  0  0  0  0
  6  1  1  0  0  0  0
  8 14  1  0  0  0  0
  8  2  2  0  0  0  0
  8  7  2  0  0  0  0
  9 18  1  0  0  0  0
  9 14  1  0  0  0  0
 10  8  1  0  0  0  0
 12 24  2  0  0  0  0
 12 28  1  0  0  0  0
 13  9  2  0  0  0  0
 15 11  1  6  0  0  0
 15 19  1  0  0  0  0
 15 23  1  0  0  0  0
 16 20  1  0  0  0  0
 17 25  1  0  0  0  0
 17  5  1  0  0  0  0
 20  4  2  0  0  0  0
 21 22  2  0  0  0  0
 22  4  1  0  0  0  0
 23  6  1  0  0  0  0
 25 19  1  1  0  0  0
 25 12  1  0  0  0  0
 26 24  1  6  0  0  0
 26 13  1  0  0  0  0
 26 10  1  0  0  0  0
 28 16  1  0  0  0  0
 28 10  2  0  0  0  0
M  END
>  <MODEL>
9

>  <REMARK>
 VINA RESULT:      -6.7      2.231      3.149
  Name = 
  0 active torsions:
  status: ('A' for Active; 'I' for Inactive)
                            x       y       z     vdW  Elec       q    Type
                         _______ _______ _______ _____ _____    ______ ____

>  <TORSDO>
F 0

$$$$
