=
 OpenBabel11122411573D

 28 32  0  0  1  0  0  0  0  0999 V2000
  189.3800  178.0830  138.1930 C   0  0  0  0  0  0  0  0  0  0  0  0
  192.6980  176.2470  134.8750 F   0  0  0  0  0  0  0  0  0  0  0  0
  186.9840  174.2900  137.1050 O   0  0  0  0  0  0  0  0  0  0  0  0
  189.9770  176.8720  140.6440 C   0  0  0  0  0  3  0  0  0  0  0  0
  189.2520  173.5350  136.8090 C   0  0  2  0  0  3  0  0  0  0  0  0
  189.0540  178.6360  136.9540 O   0  0  0  0  0  0  0  0  0  0  0  0
  194.0250  177.0380  136.5100 F   0  0  0  0  0  0  0  0  0  0  0  0
  193.2620  175.9570  136.1090 C   0  0  0  0  0  0  0  0  0  0  0  0
  193.2970  173.5200  135.7240 C   0  0  1  0  0  3  0  0  0  0  0  0
  192.1780  175.6870  137.1760 C   0  0  2  0  0  3  0  0  0  0  0  0
  186.4320  177.1390  137.5760 C   0  0  0  0  0  1  0  0  0  0  0  0
  190.0170  175.7410  136.0220 C   0  0  1  0  0  3  0  0  0  0  0  0
  192.5590  173.2350  136.8860 O   0  0  0  0  0  0  0  0  0  0  0  0
  194.1680  174.7470  135.9520 C   0  0  0  0  0  2  0  0  0  0  0  0
  186.9540  177.6690  136.3240 N   0  0  0  0  0  0  0  0  0  0  0  0
  190.3150  177.0380  138.2410 C   0  0  0  0  0  0  0  0  0  0  0  0
  188.1770  174.5490  136.7940 C   0  0  0  0  0  0  0  0  0  0  0  0
  194.1080  172.4300  135.4120 O   0  0  0  0  0  1  0  0  0  0  0  0
  187.7040  176.6710  135.5370 C   0  0  0  0  0  2  0  0  0  0  0  0
  190.5980  176.4280  139.4750 C   0  0  0  0  0  3  0  0  0  0  0  0
  188.7580  178.5260  139.3690 C   0  0  0  0  0  3  0  0  0  0  0  0
  189.0610  177.9250  140.5920 C   0  0  0  0  0  3  0  0  0  0  0  0
  187.7100  178.9020  136.5700 C   0  0  0  0  0  2  0  0  0  0  0  0
  190.4290  174.2660  136.1700 C   0  0  1  0  0  3  0  0  0  0  0  0
  188.5970  175.8300  136.3460 N   0  0  0  0  0  0  0  0  0  0  0  0
  191.6130  174.2630  137.1210 C   0  0  2  0  0  3  0  0  0  0  0  0
  188.8920  172.4510  136.0080 O   0  0  0  0  0  1  0  0  0  0  0  0
  190.9480  176.5640  136.9480 C   0  0  1  0  0  3  0  0  0  0  0  0
  1 16  2  0  0  0  0
  1 21  1  0  0  0  0
  2  8  1  0  0  0  0
  5 27  1  6  0  0  0
  6  1  1  0  0  0  0
  8  7  1  0  0  0  0
  9 18  1  1  0  0  0
  9 14  1  0  0  0  0
  9 13  1  0  0  0  0
 10  8  1  6  0  0  0
 12 24  1  0  0  0  0
 12 25  1  1  0  0  0
 12 28  1  0  0  0  0
 13 26  1  0  0  0  0
 14  8  1  0  0  0  0
 15 23  1  0  0  0  0
 15 11  1  0  0  0  0
 16 20  1  0  0  0  0
 17  5  1  0  0  0  0
 17  3  2  0  0  0  0
 19 15  1  0  0  0  0
 19 25  1  0  0  0  0
 20  4  2  0  0  0  0
 21 22  2  0  0  0  0
 22  4  1  0  0  0  0
 23  6  1  0  0  0  0
 24  5  1  0  0  0  0
 24 26  1  0  0  0  0
 25 17  1  0  0  0  0
 26 10  1  0  0  0  0
 28 10  1  0  0  0  0
 28 16  1  0  0  0  0
M  END
>  <MODEL>
1

>  <REMARK>
 VINA RESULT:      -6.6      0.000      0.000
  Name = 
  0 active torsions:
  status: ('A' for Active; 'I' for Inactive)
                            x       y       z     vdW  Elec       q    Type
                         _______ _______ _______ _____ _____    ______ ____

>  <TORSDO>
F 0

$$$$
=
 OpenBabel11122411573D

 28 32  0  0  1  0  0  0  0  0999 V2000
  180.8530  179.2460  138.0200 C   0  0  0  0  0  0  0  0  0  0  0  0
  185.1910  176.7000  138.3230 F   0  0  0  0  0  0  0  0  0  0  0  0
  180.8970  178.8370  142.6180 O   0  0  0  0  0  0  0  0  0  0  0  0
  181.5080  181.9450  138.3620 C   0  0  0  0  0  3  0  0  0  0  0  0
  183.2510  178.9020  142.1120 C   0  0  2  0  0  3  0  0  0  0  0  0
  180.5300  177.8930  137.9100 O   0  0  0  0  0  0  0  0  0  0  0  0
  185.6240  178.2200  136.7230 F   0  0  0  0  0  0  0  0  0  0  0  0
  185.5850  178.0090  138.0880 C   0  0  0  0  0  0  0  0  0  0  0  0
  186.8930  178.1790  140.1740 C   0  0  1  0  0  3  0  0  0  0  0  0
  184.6020  179.0180  138.7230 C   0  0  2  0  0  3  0  0  0  0  0  0
  178.9310  178.6170  140.4440 C   0  0  0  0  0  1  0  0  0  0  0  0
  182.9530  177.7090  139.9770 C   0  0  1  0  0  3  0  0  0  0  0  0
  186.1930  179.3120  140.6260 O   0  0  0  0  0  0  0  0  0  0  0  0
  186.9830  178.1990  138.6550 C   0  0  0  0  0  2  0  0  0  0  0  0
  179.3420  177.3240  139.9120 N   0  0  0  0  0  0  0  0  0  0  0  0
  182.1550  179.6010  138.4030 C   0  0  0  0  0  0  0  0  0  0  0  0
  181.8390  178.5740  141.8240 C   0  0  0  0  0  0  0  0  0  0  0  0
  188.1790  178.1840  140.7130 O   0  0  0  0  0  1  0  0  0  0  0  0
  180.6180  176.8430  140.4750 C   0  0  0  0  0  2  0  0  0  0  0  0
  182.4700  180.9580  138.5840 C   0  0  0  0  0  3  0  0  0  0  0  0
  179.8890  180.2400  137.7980 C   0  0  0  0  0  3  0  0  0  0  0  0
  180.2180  181.5860  137.9640 C   0  0  0  0  0  3  0  0  0  0  0  0
  179.3280  177.3510  138.4450 C   0  0  0  0  0  2  0  0  0  0  0  0
  184.0060  178.2140  140.9790 C   0  0  1  0  0  3  0  0  0  0  0  0
  181.6430  177.8880  140.5960 N   0  0  0  0  0  0  0  0  0  0  0  0
  184.8380  179.2350  140.2220 C   0  0  2  0  0  3  0  0  0  0  0  0
  183.6300  178.3350  143.3290 O   0  0  0  0  0  1  0  0  0  0  0  0
  183.1650  178.5010  138.6630 C   0  0  1  0  0  3  0  0  0  0  0  0
  1 16  1  0  0  0  0
  4 20  1  0  0  0  0
  5 27  1  1  0  0  0
  6  1  1  0  0  0  0
  6 23  1  0  0  0  0
  7  8  1  0  0  0  0
  8  2  1  0  0  0  0
  8 14  1  0  0  0  0
  9 13  1  0  0  0  0
  9 18  1  1  0  0  0
 10  8  1  1  0  0  0
 10 26  1  0  0  0  0
 12 25  1  1  0  0  0
 12 24  1  0  0  0  0
 14  9  1  0  0  0  0
 15 11  1  0  0  0  0
 15 19  1  0  0  0  0
 16 20  2  0  0  0  0
 16 28  1  0  0  0  0
 17  5  1  0  0  0  0
 17  3  2  0  0  0  0
 19 25  1  0  0  0  0
 21 22  1  0  0  0  0
 21  1  2  0  0  0  0
 22  4  2  0  0  0  0
 23 15  1  0  0  0  0
 24  5  1  0  0  0  0
 25 17  1  0  0  0  0
 26 13  1  0  0  0  0
 26 24  1  0  0  0  0
 28 10  1  0  0  0  0
 28 12  1  0  0  0  0
M  END
>  <MODEL>
2

>  <REMARK>
 VINA RESULT:      -5.8      6.146      8.961
  Name = 
  0 active torsions:
  status: ('A' for Active; 'I' for Inactive)
                            x       y       z     vdW  Elec       q    Type
                         _______ _______ _______ _____ _____    ______ ____

>  <TORSDO>
F 0

$$$$
=
 OpenBabel11122411573D

 28 32  0  0  1  0  0  0  0  0999 V2000
  182.4510  177.7470  136.5090 C   0  0  0  0  0  0  0  0  0  0  0  0
  184.4530  177.4380  141.1230 F   0  0  0  0  0  0  0  0  0  0  0  0
  178.9310  175.4810  138.4530 O   0  0  0  0  0  0  0  0  0  0  0  0
  180.8380  180.0350  136.5090 C   0  0  0  0  0  3  0  0  0  0  0  0
  179.7790  176.7520  140.3140 C   0  0  2  0  0  3  0  0  0  0  0  0
  183.2100  176.5780  136.5370 O   0  0  0  0  0  0  0  0  0  0  0  0
  185.0190  179.5180  140.4800 F   0  0  0  0  0  0  0  0  0  0  0  0
  184.0120  178.7510  141.0340 C   0  0  0  0  0  0  0  0  0  0  0  0
  182.4800  178.5560  142.9590 C   0  0  1  0  0  3  0  0  0  0  0  0
  182.7510  178.8660  140.1500 C   0  0  2  0  0  3  0  0  0  0  0  0
  180.4310  175.3930  135.9270 C   0  0  0  0  0  1  0  0  0  0  0  0
  182.1080  176.5840  139.5300 C   0  0  1  0  0  3  0  0  0  0  0  0
  181.3560  178.9680  142.2200 O   0  0  0  0  0  0  0  0  0  0  0  0
  183.7260  179.2570  142.4390 C   0  0  0  0  0  2  0  0  0  0  0  0
  181.6490  174.7640  136.4210 N   0  0  0  0  0  0  0  0  0  0  0  0
  182.2060  178.4230  137.7140 C   0  0  0  0  0  0  0  0  0  0  0  0
  179.9090  176.0120  139.0420 C   0  0  0  0  0  0  0  0  0  0  0  0
  182.2950  178.8790  144.3020 O   0  0  0  0  0  1  0  0  0  0  0  0
  181.7060  174.6840  137.8940 C   0  0  0  0  0  2  0  0  0  0  0  0
  181.3850  179.5630  137.7050 C   0  0  0  0  0  3  0  0  0  0  0  0
  181.9000  178.2230  135.3100 C   0  0  0  0  0  3  0  0  0  0  0  0
  181.1000  179.3670  135.3110 C   0  0  0  0  0  3  0  0  0  0  0  0
  182.8280  175.4040  135.8280 C   0  0  0  0  0  2  0  0  0  0  0  0
  181.2270  177.0090  140.7180 C   0  0  1  0  0  3  0  0  0  0  0  0
  181.2450  175.9040  138.5700 N   0  0  0  0  0  0  0  0  0  0  0  0
  181.4570  178.5010  140.8870 C   0  0  2  0  0  3  0  0  0  0  0  0
  179.1690  175.9430  141.2740 O   0  0  0  0  0  1  0  0  0  0  0  0
  182.7930  177.8660  138.9950 C   0  0  1  0  0  3  0  0  0  0  0  0
  1  6  1  0  0  0  0
  1 16  1  0  0  0  0
  3 17  2  0  0  0  0
  4 20  1  0  0  0  0
  5 24  1  0  0  0  0
  5 27  1  1  0  0  0
  7  8  1  0  0  0  0
  8  2  1  0  0  0  0
  8 14  1  0  0  0  0
  9 18  1  1  0  0  0
 10 26  1  0  0  0  0
 10  8  1  1  0  0  0
 11 15  1  0  0  0  0
 12 25  1  6  0  0  0
 12 24  1  0  0  0  0
 13  9  1  0  0  0  0
 14  9  1  0  0  0  0
 15 19  1  0  0  0  0
 16 28  1  0  0  0  0
 17  5  1  0  0  0  0
 19 25  1  0  0  0  0
 20 16  2  0  0  0  0
 21 22  1  0  0  0  0
 21  1  2  0  0  0  0
 22  4  2  0  0  0  0
 23 15  1  0  0  0  0
 23  6  1  0  0  0  0
 24 26  1  0  0  0  0
 25 17  1  0  0  0  0
 26 13  1  0  0  0  0
 28 12  1  0  0  0  0
 28 10  1  0  0  0  0
M  END
>  <MODEL>
3

>  <REMARK>
 VINA RESULT:      -5.2      7.816      9.963
  Name = 
  0 active torsions:
  status: ('A' for Active; 'I' for Inactive)
                            x       y       z     vdW  Elec       q    Type
                         _______ _______ _______ _____ _____    ______ ____

>  <TORSDO>
F 0

$$$$
=
 OpenBabel11122411573D

 28 32  0  0  1  0  0  0  0  0999 V2000
  180.8210  177.6590  137.7890 C   0  0  0  0  0  0  0  0  0  0  0  0
  184.0760  173.9010  136.9730 F   0  0  0  0  0  0  0  0  0  0  0  0
  184.5450  179.8280  139.4430 O   0  0  0  0  0  0  0  0  0  0  0  0
  180.9770  179.3280  135.5480 C   0  0  0  0  0  3  0  0  0  0  0  0
  185.5170  178.4030  137.7620 C   0  0  2  0  0  3  0  0  0  0  0  0
  180.7930  176.8530  138.9270 O   0  0  0  0  0  0  0  0  0  0  0  0
  182.7900  173.8460  135.1280 F   0  0  0  0  0  0  0  0  0  0  0  0
  183.8820  174.4570  135.7160 C   0  0  0  0  0  0  0  0  0  0  0  0
  186.2630  175.0250  135.4010 C   0  0  1  0  0  3  0  0  0  0  0  0
  183.6180  175.9760  135.8040 C   0  0  2  0  0  3  0  0  0  0  0  0
  181.7170  179.5130  140.1810 C   0  0  0  0  0  1  0  0  0  0  0  0
  183.8800  176.6060  138.1580 C   0  0  1  0  0  3  0  0  0  0  0  0
  185.9990  176.3860  135.1680 O   0  0  0  0  0  0  0  0  0  0  0  0
  185.1150  174.1770  134.8720 C   0  0  0  0  0  2  0  0  0  0  0  0
  181.7780  178.1480  140.6870 N   0  0  0  0  0  0  0  0  0  0  0  0
  181.8220  177.4410  136.8310 C   0  0  0  0  0  0  0  0  0  0  0  0
  184.5210  178.7460  138.7980 C   0  0  0  0  0  0  0  0  0  0  0  0
  187.4410  174.6630  134.7510 O   0  0  0  0  0  1  0  0  0  0  0  0
  183.0600  177.4770  140.3990 C   0  0  0  0  0  2  0  0  0  0  0  0
  181.9000  178.2930  135.7160 C   0  0  0  0  0  3  0  0  0  0  0  0
  179.8970  178.7000  137.6180 C   0  0  0  0  0  3  0  0  0  0  0  0
  179.9720  179.5280  136.4970 C   0  0  0  0  0  3  0  0  0  0  0  0
  180.6090  177.3860  140.2340 C   0  0  0  0  0  2  0  0  0  0  0  0
  185.1950  176.9480  137.4360 C   0  0  1  0  0  3  0  0  0  0  0  0
  183.5650  177.7250  139.0410 N   0  0  0  0  0  0  0  0  0  0  0  0
  184.8980  176.8060  135.9530 C   0  0  2  0  0  3  0  0  0  0  0  0
  186.8040  178.4820  138.2960 O   0  0  0  0  0  1  0  0  0  0  0  0
  182.8230  176.3260  137.0610 C   0  0  1  0  0  3  0  0  0  0  0  0
  1  6  1  0  0  0  0
  4 20  2  0  0  0  0
  4 22  1  0  0  0  0
  5 27  1  1  0  0  0
  5 17  1  0  0  0  0
  6 23  1  0  0  0  0
  7  8  1  0  0  0  0
  8  2  1  0  0  0  0
  9 18  1  6  0  0  0
 10  8  1  1  0  0  0
 10 26  1  0  0  0  0
 10 28  1  0  0  0  0
 11 15  1  0  0  0  0
 12 25  1  6  0  0  0
 13  9  1  0  0  0  0
 13 26  1  0  0  0  0
 14  9  1  0  0  0  0
 14  8  1  0  0  0  0
 16 28  1  0  0  0  0
 16  1  2  0  0  0  0
 17 25  1  0  0  0  0
 17  3  2  0  0  0  0
 19 15  1  0  0  0  0
 20 16  1  0  0  0  0
 21  1  1  0  0  0  0
 22 21  2  0  0  0  0
 23 15  1  0  0  0  0
 24  5  1  0  0  0  0
 24 12  1  0  0  0  0
 25 19  1  0  0  0  0
 26 24  1  0  0  0  0
 28 12  1  0  0  0  0
M  END
>  <MODEL>
4

>  <REMARK>
 VINA RESULT:      -5.1      5.404      8.087
  Name = 
  0 active torsions:
  status: ('A' for Active; 'I' for Inactive)
                            x       y       z     vdW  Elec       q    Type
                         _______ _______ _______ _____ _____    ______ ____

>  <TORSDO>
F 0

$$$$
=
 OpenBabel11122411573D

 28 32  0  0  1  0  0  0  0  0999 V2000
  182.8150  177.6140  137.1080 C   0  0  0  0  0  0  0  0  0  0  0  0
  187.3430  178.2600  134.9940 F   0  0  0  0  0  0  0  0  0  0  0  0
  183.9660  173.1460  136.9670 O   0  0  0  0  0  0  0  0  0  0  0  0
  183.2490  177.5280  139.8710 C   0  0  0  0  0  3  0  0  0  0  0  0
  186.1190  174.1960  137.2200 C   0  0  2  0  0  3  0  0  0  0  0  0
  182.6170  177.6000  135.7270 O   0  0  0  0  0  0  0  0  0  0  0  0
  187.2350  179.9670  136.4540 F   0  0  0  0  0  0  0  0  0  0  0  0
  187.5350  178.6250  136.3180 C   0  0  0  0  0  0  0  0  0  0  0  0
  189.2670  176.9140  136.7270 C   0  0  1  0  0  3  0  0  0  0  0  0
  186.6280  177.8110  137.2670 C   0  0  2  0  0  3  0  0  0  0  0  0
  181.5830  174.7850  136.4440 C   0  0  0  0  0  1  0  0  0  0  0  0
  185.4580  176.1590  135.8850 C   0  0  1  0  0  3  0  0  0  0  0  0
  188.5780  176.3480  137.8140 O   0  0  0  0  0  0  0  0  0  0  0  0
  188.9990  178.4110  136.6680 C   0  0  0  0  0  2  0  0  0  0  0  0
  181.9900  175.3560  135.1660 N   0  0  0  0  0  0  0  0  0  0  0  0
  184.1270  177.5630  137.6030 C   0  0  0  0  0  0  0  0  0  0  0  0
  184.7200  174.1310  136.7480 C   0  0  0  0  0  0  0  0  0  0  0  0
  190.6350  176.6960  136.8810 O   0  0  0  0  0  1  0  0  0  0  0  0
  183.4050  175.0940  134.8370 C   0  0  0  0  0  2  0  0  0  0  0  0
  184.3340  177.5070  138.9910 C   0  0  0  0  0  3  0  0  0  0  0  0
  181.7290  177.6350  137.9950 C   0  0  0  0  0  3  0  0  0  0  0  0
  181.9470  177.5980  139.3730 C   0  0  0  0  0  3  0  0  0  0  0  0
  181.6330  176.7770  135.1080 C   0  0  0  0  0  2  0  0  0  0  0  0
  186.6580  175.4520  136.5410 C   0  0  1  0  0  3  0  0  0  0  0  0
  184.3160  175.2550  135.9780 N   0  0  0  0  0  0  0  0  0  0  0  0
  187.1810  176.4180  137.5890 C   0  0  2  0  0  3  0  0  0  0  0  0
  186.8260  173.0840  136.7610 O   0  0  0  0  0  1  0  0  0  0  0  0
  185.2770  177.5120  136.6170 C   0  0  1  0  0  3  0  0  0  0  0  0
  1 16  2  0  0  0  0
  1 21  1  0  0  0  0
  2  8  1  0  0  0  0
  5 27  1  6  0  0  0
  6  1  1  0  0  0  0
  8  7  1  0  0  0  0
  8 14  1  0  0  0  0
  9 18  1  1  0  0  0
  9 13  1  0  0  0  0
 10  8  1  6  0  0  0
 10 26  1  0  0  0  0
 12 25  1  1  0  0  0
 12 24  1  0  0  0  0
 12 28  1  0  0  0  0
 14  9  1  0  0  0  0
 15 11  1  0  0  0  0
 16 20  1  0  0  0  0
 17  3  2  0  0  0  0
 17  5  1  0  0  0  0
 19 15  1  0  0  0  0
 19 25  1  0  0  0  0
 20  4  2  0  0  0  0
 21 22  2  0  0  0  0
 22  4  1  0  0  0  0
 23 15  1  0  0  0  0
 23  6  1  0  0  0  0
 24  5  1  0  0  0  0
 24 26  1  0  0  0  0
 25 17  1  0  0  0  0
 26 13  1  0  0  0  0
 28 10  1  0  0  0  0
 28 16  1  0  0  0  0
M  END
>  <MODEL>
5

>  <REMARK>
 VINA RESULT:      -4.9      3.686      5.631
  Name = 
  0 active torsions:
  status: ('A' for Active; 'I' for Inactive)
                            x       y       z     vdW  Elec       q    Type
                         _______ _______ _______ _____ _____    ______ ____

>  <TORSDO>
F 0

$$$$
=
 OpenBabel11122411573D

 28 32  0  0  1  0  0  0  0  0999 V2000
  179.4440  176.9990  138.4370 C   0  0  0  0  0  0  0  0  0  0  0  0
  180.8210  180.1690  142.1040 F   0  0  0  0  0  0  0  0  0  0  0  0
  183.6120  177.9990  136.7230 O   0  0  0  0  0  0  0  0  0  0  0  0
  180.4590  174.4910  139.1530 C   0  0  0  0  0  3  0  0  0  0  0  0
  183.9940  178.2140  139.0910 C   0  0  2  0  0  3  0  0  0  0  0  0
  178.9930  178.2640  138.0610 O   0  0  0  0  0  0  0  0  0  0  0  0
  179.7700  178.5350  143.2370 F   0  0  0  0  0  0  0  0  0  0  0  0
  180.9730  178.9130  142.6710 C   0  0  0  0  0  0  0  0  0  0  0  0
  183.3840  179.2060  143.1140 C   0  0  1  0  0  3  0  0  0  0  0  0
  181.3820  177.8610  141.6160 C   0  0  2  0  0  3  0  0  0  0  0  0
  180.8780  177.6470  135.7010 C   0  0  0  0  0  1  0  0  0  0  0  0
  181.7210  179.0650  139.5090 C   0  0  1  0  0  3  0  0  0  0  0  0
  183.7470  178.0510  142.3990 O   0  0  0  0  0  0  0  0  0  0  0  0
  182.0240  179.0040  143.7660 C   0  0  0  0  0  2  0  0  0  0  0  0
  180.3110  178.9070  136.1650 N   0  0  0  0  0  0  0  0  0  0  0  0
  180.3200  176.8900  139.5280 C   0  0  0  0  0  0  0  0  0  0  0  0
  183.1710  178.2920  137.8660 C   0  0  0  0  0  0  0  0  0  0  0  0
  184.3360  179.4580  144.1000 O   0  0  0  0  0  1  0  0  0  0  0  0
  181.1980  179.6380  137.0900 C   0  0  0  0  0  2  0  0  0  0  0  0
  180.8340  175.6290  139.8710 C   0  0  0  0  0  3  0  0  0  0  0  0
  179.0700  175.8550  137.7180 C   0  0  0  0  0  3  0  0  0  0  0  0
  179.5730  174.6040  138.0790 C   0  0  0  0  0  3  0  0  0  0  0  0
  178.9630  178.6900  136.7030 C   0  0  0  0  0  2  0  0  0  0  0  0
  183.1030  178.8530  140.1510 C   0  0  1  0  0  3  0  0  0  0  0  0
  181.8550  178.7780  138.0840 N   0  0  0  0  0  0  0  0  0  0  0  0
  182.8800  177.8760  141.2920 C   0  0  2  0  0  3  0  0  0  0  0  0
  185.1490  178.9820  138.9360 O   0  0  0  0  0  1  0  0  0  0  0  0
  180.7260  178.1500  140.2660 C   0  0  1  0  0  3  0  0  0  0  0  0
  1 16  1  0  0  0  0
  2  8  1  0  0  0  0
  3 17  2  0  0  0  0
  4 20  1  0  0  0  0
  5 27  1  6  0  0  0
  5 24  1  0  0  0  0
  6  1  1  0  0  0  0
  8  7  1  0  0  0  0
  8 14  1  0  0  0  0
  9 14  1  0  0  0  0
  9 18  1  1  0  0  0
 10  8  1  1  0  0  0
 11 15  1  0  0  0  0
 12 25  1  6  0  0  0
 12 24  1  0  0  0  0
 12 28  1  0  0  0  0
 13  9  1  0  0  0  0
 15 23  1  0  0  0  0
 15 19  1  0  0  0  0
 16 20  2  0  0  0  0
 16 28  1  0  0  0  0
 17 25  1  0  0  0  0
 17  5  1  0  0  0  0
 19 25  1  0  0  0  0
 21 22  1  0  0  0  0
 21  1  2  0  0  0  0
 22  4  2  0  0  0  0
 23  6  1  0  0  0  0
 24 26  1  0  0  0  0
 26 10  1  0  0  0  0
 26 13  1  0  0  0  0
 28 10  1  0  0  0  0
M  END
>  <MODEL>
6

>  <REMARK>
 VINA RESULT:      -4.9      8.183     10.585
  Name = 
  0 active torsions:
  status: ('A' for Active; 'I' for Inactive)
                            x       y       z     vdW  Elec       q    Type
                         _______ _______ _______ _____ _____    ______ ____

>  <TORSDO>
F 0

$$$$
=
 OpenBabel11122411573D

 28 32  0  0  1  0  0  0  0  0999 V2000
  186.0480  174.9740  135.7860 C   0  0  0  0  0  0  0  0  0  0  0  0
  182.1520  178.0530  134.9270 F   0  0  0  0  0  0  0  0  0  0  0  0
  187.1790  178.1400  138.9490 O   0  0  0  0  0  0  0  0  0  0  0  0
  185.2720  173.3030  137.8920 C   0  0  0  0  0  3  0  0  0  0  0  0
  184.7760  178.3070  138.9290 C   0  0  2  0  0  3  0  0  0  0  0  0
  186.4470  175.8500  134.7760 O   0  0  0  0  0  0  0  0  0  0  0  0
  181.2090  176.0160  134.7870 F   0  0  0  0  0  0  0  0  0  0  0  0
  181.6030  177.0110  135.6610 C   0  0  0  0  0  0  0  0  0  0  0  0
  180.8420  178.4700  137.5000 C   0  0  1  0  0  3  0  0  0  0  0  0
  182.6230  176.4240  136.6610 C   0  0  2  0  0  3  0  0  0  0  0  0
  188.5560  176.5160  136.9230 C   0  0  0  0  0  1  0  0  0  0  0  0
  184.6360  177.8150  136.5190 C   0  0  1  0  0  3  0  0  0  0  0  0
  181.5340  177.7410  138.4840 O   0  0  0  0  0  0  0  0  0  0  0  0
  180.3780  177.5350  136.3940 C   0  0  0  0  0  2  0  0  0  0  0  0
  188.1370  177.2510  135.7360 N   0  0  0  0  0  0  0  0  0  0  0  0
  184.8560  175.2370  136.4770 C   0  0  0  0  0  0  0  0  0  0  0  0
  186.0950  178.0570  138.3120 C   0  0  0  0  0  0  0  0  0  0  0  0
  179.7340  179.0890  138.0770 O   0  0  0  0  0  1  0  0  0  0  0  0
  187.0860  178.2490  136.0120 C   0  0  0  0  0  2  0  0  0  0  0  0
  184.4820  174.4000  137.5410 C   0  0  0  0  0  3  0  0  0  0  0  0
  186.8390  173.8720  136.1410 C   0  0  0  0  0  3  0  0  0  0  0  0
  186.4480  173.0360  137.1880 C   0  0  0  0  0  3  0  0  0  0  0  0
  187.7850  176.3190  134.6590 C   0  0  0  0  0  2  0  0  0  0  0  0
  183.8250  178.2930  137.7370 C   0  0  1  0  0  3  0  0  0  0  0  0
  186.0380  177.7680  136.9220 N   0  0  0  0  0  0  0  0  0  0  0  0
  182.7480  177.2430  137.9510 C   0  0  2  0  0  3  0  0  0  0  0  0
  184.7600  179.5730  139.5160 O   0  0  0  0  0  1  0  0  0  0  0  0
  184.0380  176.4530  136.0860 C   0  0  1  0  0  3  0  0  0  0  0  0
  1 21  2  0  0  0  0
  1 16  1  0  0  0  0
  2  8  1  0  0  0  0
  5 27  1  6  0  0  0
  6  1  1  0  0  0  0
  7  8  1  0  0  0  0
  8 14  1  0  0  0  0
  9 18  1  1  0  0  0
  9 13  1  0  0  0  0
 10  8  1  6  0  0  0
 10 26  1  0  0  0  0
 12 25  1  1  0  0  0
 12 24  1  0  0  0  0
 14  9  1  0  0  0  0
 15 19  1  0  0  0  0
 15 11  1  0  0  0  0
 16 20  2  0  0  0  0
 17  5  1  0  0  0  0
 17  3  2  0  0  0  0
 19 25  1  0  0  0  0
 20  4  1  0  0  0  0
 21 22  1  0  0  0  0
 22  4  2  0  0  0  0
 23  6  1  0  0  0  0
 23 15  1  0  0  0  0
 24 26  1  0  0  0  0
 24  5  1  0  0  0  0
 25 17  1  0  0  0  0
 26 13  1  0  0  0  0
 28 16  1  0  0  0  0
 28 12  1  0  0  0  0
 28 10  1  0  0  0  0
M  END
>  <MODEL>
7

>  <REMARK>
 VINA RESULT:      -4.9      4.732      8.391
  Name = 
  0 active torsions:
  status: ('A' for Active; 'I' for Inactive)
                            x       y       z     vdW  Elec       q    Type
                         _______ _______ _______ _____ _____    ______ ____

>  <TORSDO>
F 0

$$$$
=
 OpenBabel11122411573D

 28 32  0  0  1  0  0  0  0  0999 V2000
  185.2200  175.9030  136.0500 C   0  0  0  0  0  0  0  0  0  0  0  0
  181.8750  179.5460  137.0120 F   0  0  0  0  0  0  0  0  0  0  0  0
  187.6000  177.9080  139.4590 O   0  0  0  0  0  0  0  0  0  0  0  0
  184.6380  173.8200  137.8260 C   0  0  0  0  0  3  0  0  0  0  0  0
  185.3290  178.3640  140.1170 C   0  0  2  0  0  3  0  0  0  0  0  0
  185.5390  176.9690  135.2090 O   0  0  0  0  0  0  0  0  0  0  0  0
  180.5610  177.7570  136.6470 F   0  0  0  0  0  0  0  0  0  0  0  0
  181.3190  178.4170  137.5960 C   0  0  0  0  0  0  0  0  0  0  0  0
  181.2760  179.3900  139.8630 C   0  0  1  0  0  3  0  0  0  0  0  0
  182.4100  177.4570  138.1200 C   0  0  2  0  0  3  0  0  0  0  0  0
  188.1610  176.7540  136.8140 C   0  0  0  0  0  1  0  0  0  0  0  0
  184.5630  178.5780  137.7850 C   0  0  1  0  0  3  0  0  0  0  0  0
  182.0220  178.3390  140.4250 O   0  0  0  0  0  0  0  0  0  0  0  0
  180.4100  178.8610  138.7290 C   0  0  0  0  0  2  0  0  0  0  0  0
  187.6320  177.8340  135.9910 N   0  0  0  0  0  0  0  0  0  0  0  0
  184.2830  176.1060  137.0740 C   0  0  0  0  0  0  0  0  0  0  0  0
  186.4060  178.1370  139.1310 C   0  0  0  0  0  0  0  0  0  0  0  0
  180.4600  179.9550  140.8420 O   0  0  0  0  0  1  0  0  0  0  0  0
  186.8740  178.8360  136.7650 C   0  0  0  0  0  2  0  0  0  0  0  0
  184.0080  175.0590  137.9680 C   0  0  0  0  0  3  0  0  0  0  0  0
  185.8510  174.6580  135.9100 C   0  0  0  0  0  3  0  0  0  0  0  0
  185.5560  173.6190  136.7930 C   0  0  0  0  0  3  0  0  0  0  0  0
  186.8810  177.2860  134.8560 C   0  0  0  0  0  2  0  0  0  0  0  0
  184.1490  178.7950  139.2510 C   0  0  1  0  0  3  0  0  0  0  0  0
  185.9860  178.2530  137.7790 N   0  0  0  0  0  0  0  0  0  0  0  0
  182.9710  177.8650  139.4870 C   0  0  2  0  0  3  0  0  0  0  0  0
  185.6810  179.4100  140.9710 O   0  0  0  0  0  1  0  0  0  0  0  0
  183.6410  177.4720  137.2150 C   0  0  1  0  0  3  0  0  0  0  0  0
  1 16  1  0  0  0  0
  2  8  1  0  0  0  0
  4 20  1  0  0  0  0
  5 27  1  1  0  0  0
  6  1  1  0  0  0  0
  7  8  1  0  0  0  0
  8 14  1  0  0  0  0
  9 13  1  0  0  0  0
  9 18  1  1  0  0  0
 10  8  1  6  0  0  0
 10 26  1  0  0  0  0
 12 25  1  1  0  0  0
 12 24  1  0  0  0  0
 14  9  1  0  0  0  0
 15 19  1  0  0  0  0
 15 11  1  0  0  0  0
 16 28  1  0  0  0  0
 16 20  2  0  0  0  0
 17  3  2  0  0  0  0
 17  5  1  0  0  0  0
 19 25  1  0  0  0  0
 21  1  2  0  0  0  0
 21 22  1  0  0  0  0
 22  4  2  0  0  0  0
 23  6  1  0  0  0  0
 23 15  1  0  0  0  0
 24 26  1  0  0  0  0
 24  5  1  0  0  0  0
 25 17  1  0  0  0  0
 26 13  1  0  0  0  0
 28 12  1  0  0  0  0
 28 10  1  0  0  0  0
M  END
>  <MODEL>
8

>  <REMARK>
 VINA RESULT:      -4.7      5.118      8.697
  Name = 
  0 active torsions:
  status: ('A' for Active; 'I' for Inactive)
                            x       y       z     vdW  Elec       q    Type
                         _______ _______ _______ _____ _____    ______ ____

>  <TORSDO>
F 0

$$$$
=
 OpenBabel11122411573D

 28 32  0  0  1  0  0  0  0  0999 V2000
  187.3870  177.1360  137.1390 C   0  0  0  0  0  0  0  0  0  0  0  0
  185.4600  172.6320  138.3170 F   0  0  0  0  0  0  0  0  0  0  0  0
  190.6470  174.6160  135.0590 O   0  0  0  0  0  0  0  0  0  0  0  0
  186.4020  177.7650  134.5960 C   0  0  0  0  0  3  0  0  0  0  0  0
  188.7190  173.1890  134.8470 C   0  0  2  0  0  3  0  0  0  0  0  0
  187.9180  176.7870  138.3800 O   0  0  0  0  0  0  0  0  0  0  0  0
  183.6270  173.8330  137.8130 F   0  0  0  0  0  0  0  0  0  0  0  0
  184.6560  173.0800  137.2790 C   0  0  0  0  0  0  0  0  0  0  0  0
  185.1780  171.1690  135.8080 C   0  0  1  0  0  3  0  0  0  0  0  0
  185.4520  173.9540  136.2840 C   0  0  2  0  0  3  0  0  0  0  0  0
  190.5160  177.0260  136.7370 C   0  0  0  0  0  1  0  0  0  0  0  0
  187.7910  173.9080  137.0130 C   0  0  1  0  0  3  0  0  0  0  0  0
  185.6240  171.9870  134.7550 O   0  0  0  0  0  0  0  0  0  0  0  0
  184.0650  171.8710  136.5720 C   0  0  0  0  0  2  0  0  0  0  0  0
  190.2520  176.3820  138.0180 N   0  0  0  0  0  0  0  0  0  0  0  0
  186.6840  176.1670  136.4080 C   0  0  0  0  0  0  0  0  0  0  0  0
  189.5520  174.2040  135.5250 C   0  0  0  0  0  0  0  0  0  0  0  0
  184.6950  169.9680  135.2900 O   0  0  0  0  0  1  0  0  0  0  0  0
  189.9350  174.9460  137.8930 C   0  0  0  0  0  2  0  0  0  0  0  0
  186.2050  176.4880  135.1270 C   0  0  0  0  0  3  0  0  0  0  0  0
  187.5840  178.4170  136.6020 C   0  0  0  0  0  3  0  0  0  0  0  0
  187.0880  178.7310  135.3360 C   0  0  0  0  0  3  0  0  0  0  0  0
  189.2430  177.1370  138.7680 C   0  0  0  0  0  2  0  0  0  0  0  0
  187.6370  172.8810  135.8770 C   0  0  1  0  0  3  0  0  0  0  0  0
  189.0340  174.6350  136.7750 N   0  0  0  0  0  0  0  0  0  0  0  0
  186.2660  173.1370  135.2750 C   0  0  2  0  0  3  0  0  0  0  0  0
  189.4720  172.0380  134.6110 O   0  0  0  0  0  1  0  0  0  0  0  0
  186.5130  174.7840  137.0050 C   0  0  1  0  0  3  0  0  0  0  0  0
  1  6  1  0  0  0  0
  3 17  2  0  0  0  0
  4 20  2  0  0  0  0
  4 22  1  0  0  0  0
  5 27  1  1  0  0  0
  5 17  1  0  0  0  0
  5 24  1  0  0  0  0
  6 23  1  0  0  0  0
  8  7  1  0  0  0  0
  8  2  1  0  0  0  0
  9 18  1  6  0  0  0
  9 14  1  0  0  0  0
 10 28  1  0  0  0  0
 10  8  1  1  0  0  0
 11 15  1  0  0  0  0
 12 25  1  6  0  0  0
 13 26  1  0  0  0  0
 13  9  1  0  0  0  0
 14  8  1  0  0  0  0
 15 23  1  0  0  0  0
 16 28  1  0  0  0  0
 16  1  2  0  0  0  0
 17 25  1  0  0  0  0
 19 15  1  0  0  0  0
 20 16  1  0  0  0  0
 21  1  1  0  0  0  0
 22 21  2  0  0  0  0
 24 12  1  0  0  0  0
 25 19  1  0  0  0  0
 26 24  1  0  0  0  0
 26 10  1  0  0  0  0
 28 12  1  0  0  0  0
M  END
>  <MODEL>
9

>  <REMARK>
 VINA RESULT:      -4.7      3.497      5.923
  Name = 
  0 active torsions:
  status: ('A' for Active; 'I' for Inactive)
                            x       y       z     vdW  Elec       q    Type
                         _______ _______ _______ _____ _____    ______ ____

>  <TORSDO>
F 0

$$$$
