=
 OpenBabel11122411413D

 37 43  0  0  1  0  0  0  0  0999 V2000
  183.1520  178.3300  136.9000 O   0  0  0  0  0  0  0  0  0  0  0  0
  180.1000  181.9860  137.0390 C   0  0  0  0  0  0  0  0  0  0  0  0
  181.2560  180.0520  140.6140 N   0  0  0  0  0  0  0  0  0  0  0  0
  183.4710  176.9820  136.6800 C   0  0  2  0  0  3  0  0  0  0  0  0
  184.4810  179.2850  140.6160 O   0  0  0  0  0  0  0  0  0  0  0  0
  179.8000  181.5940  139.4830 C   0  0  0  0  0  0  0  0  0  0  0  0
  182.1020  178.9690  140.1220 C   0  0  2  0  0  3  0  0  0  0  0  0
  185.7030  177.4100  137.8140 C   0  0  0  0  0  0  0  0  0  0  0  0
  180.9520  180.9170  139.5390 C   0  0  0  0  0  0  0  0  0  0  0  0
  183.3000  178.6650  141.0580 C   0  0  2  0  0  3  0  0  0  0  0  0
  178.9310  181.6780  140.7040 C   0  0  0  0  0  2  0  0  0  0  0  0
  184.5310  176.4800  137.6670 C   0  0  0  0  0  2  0  0  0  0  0  0
  181.8030  180.6840  138.3550 C   0  0  2  0  0  3  0  0  0  0  0  0
  180.9800  183.2020  136.8050 C   0  0  0  0  0  1  0  0  0  0  0  0
  180.4810  178.6100  142.4600 C   0  0  0  0  0  2  0  0  0  0  0  0
  178.9800  180.3650  141.4960 C   0  0  0  0  0  2  0  0  0  0  0  0
  180.9620  180.7110  137.0720 C   0  0  0  0  0  2  0  0  0  0  0  0
  185.5720  178.6450  138.6490 C   0  0  1  0  0  3  0  0  0  0  0  0
  185.2060  178.2460  140.0260 C   0  0  1  0  0  3  0  0  0  0  0  0
  180.4290  179.9980  141.8290 C   0  0  2  0  0  3  0  0  0  0  0  0
  182.5070  179.3510  138.6800 C   0  0  2  0  0  3  0  0  0  0  0  0
  179.3750  182.1490  138.2670 O   0  0  0  0  0  0  0  0  0  0  0  0
  183.0450  179.0050  142.5420 C   0  0  1  0  0  3  0  0  0  0  0  0
  179.1150  181.8790  135.8950 C   0  0  0  0  0  1  0  0  0  0  0  0
  186.5080  178.6660  139.7000 O   0  0  0  0  0  0  0  0  0  0  0  0
  186.7400  177.1840  137.2130 O   0  0  0  0  0  0  0  0  0  0  0  0
  182.1720  178.3250  137.7870 O   0  0  0  0  0  0  0  0  0  0  0  0
  181.8160  178.3110  143.1510 C   0  0  0  0  0  2  0  0  0  0  0  0
  184.3170  179.2690  144.6780 C   0  0  0  0  0  3  0  0  0  0  0  0
  184.2510  178.7310  143.3880 C   0  0  0  0  0  0  0  0  0  0  0  0
  185.3170  177.9580  142.9030 C   0  0  0  0  0  3  0  0  0  0  0  0
  187.7650  176.7630  143.0940 Cl  0  0  0  0  0  0  0  0  0  0  0  0
  186.4970  178.2640  144.9930 C   0  0  0  0  0  3  0  0  0  0  0  0
  186.4370  177.7260  143.7050 C   0  0  0  0  0  0  0  0  0  0  0  0
  185.4380  179.0350  145.4800 C   0  0  0  0  0  3  0  0  0  0  0  0
  184.4250  175.4900  135.0800 O   0  0  0  0  0  1  0  0  0  0  0  0
  183.9540  176.7930  135.2510 C   0  0  0  0  0  2  0  0  0  0  0  0
  1 27  1  0  0  0  0
  2 17  1  0  0  0  0
  2 22  1  0  0  0  0
  3 20  1  0  0  0  0
  4 37  1  6  0  0  0
  4  1  1  0  0  0  0
  4 12  1  0  0  0  0
  6  9  2  0  0  0  0
  6 11  1  0  0  0  0
  7  3  1  1  0  0  0
  7 10  1  0  0  0  0
  9  3  1  0  0  0  0
 10  5  1  6  0  0  0
 10 23  1  0  0  0  0
 11 16  1  0  0  0  0
 12  8  1  0  0  0  0
 13 17  1  6  0  0  0
 13 21  1  0  0  0  0
 13  9  1  0  0  0  0
 14  2  1  0  0  0  0
 15 28  1  0  0  0  0
 18  8  1  6  0  0  0
 18 25  1  0  0  0  0
 18 19  1  0  0  0  0
 19 25  1  1  0  0  0
 19  5  1  0  0  0  0
 20 16  1  6  0  0  0
 20 15  1  0  0  0  0
 21 27  1  6  0  0  0
 21  7  1  0  0  0  0
 22  6  1  0  0  0  0
 23 28  1  0  0  0  0
 23 30  1  1  0  0  0
 24  2  1  0  0  0  0
 26  8  2  0  0  0  0
 29 35  1  0  0  0  0
 30 29  2  0  0  0  0
 31 30  1  0  0  0  0
 31 34  2  0  0  0  0
 32 34  1  0  0  0  0
 33 35  2  0  0  0  0
 34 33  1  0  0  0  0
 36 37  1  0  0  0  0
M  END
>  <MODEL>
1

>  <REMARK>
 VINA RESULT:      -8.4      0.000      0.000
  Name = 
  2 active torsions:
  status: ('A' for Active; 'I' for Inactive)
    1  A    between atoms: C_4  and  C_37
    2  A    between atoms: C_23  and  C_30
                            x       y       z     vdW  Elec       q    Type
                         _______ _______ _______ _____ _____    ______ ____

>  <TORSDO>
F 2

$$$$
=
 OpenBabel11122411413D

 37 43  0  0  1  0  0  0  0  0999 V2000
  191.0400  176.7980  139.8590 O   0  0  0  0  0  0  0  0  0  0  0  0
  194.1400  175.3570  136.5400 C   0  0  0  0  0  0  0  0  0  0  0  0
  190.0390  174.4060  136.1680 N   0  0  0  0  0  0  0  0  0  0  0  0
  190.4180  176.6930  141.1110 C   0  0  2  0  0  3  0  0  0  0  0  0
  188.0970  176.9390  137.0650 O   0  0  0  0  0  0  0  0  0  0  0  0
  192.3050  174.0800  135.4350 C   0  0  0  0  0  0  0  0  0  0  0  0
  189.4820  174.9460  137.4040 C   0  0  2  0  0  3  0  0  0  0  0  0
  188.6870  178.3660  140.3010 C   0  0  0  0  0  0  0  0  0  0  0  0
  191.3840  174.8270  136.0520 C   0  0  0  0  0  0  0  0  0  0  0  0
  188.0630  175.5430  137.2170 C   0  0  2  0  0  3  0  0  0  0  0  0
  191.8720  172.9150  134.5940 C   0  0  0  0  0  2  0  0  0  0  0  0
  188.9370  177.0830  141.0450 C   0  0  0  0  0  2  0  0  0  0  0  0
  191.7290  175.9120  136.9920 C   0  0  2  0  0  3  0  0  0  0  0  0
  194.4470  176.6220  135.7570 C   0  0  0  0  0  1  0  0  0  0  0  0
  188.3880  172.5730  136.2220 C   0  0  0  0  0  2  0  0  0  0  0  0
  190.6530  172.2210  135.2150 C   0  0  0  0  0  2  0  0  0  0  0  0
  193.0980  175.6550  137.6340 C   0  0  0  0  0  2  0  0  0  0  0  0
  188.7130  178.3750  138.8040 C   0  0  1  0  0  3  0  0  0  0  0  0
  187.6920  177.4240  138.3110 C   0  0  1  0  0  3  0  0  0  0  0  0
  189.5260  173.2320  135.4460 C   0  0  2  0  0  3  0  0  0  0  0  0
  190.5220  175.9470  137.9530 C   0  0  2  0  0  3  0  0  0  0  0  0
  193.6680  174.3410  135.6420 O   0  0  0  0  0  0  0  0  0  0  0  0
  187.2540  174.9020  136.0690 C   0  0  1  0  0  3  0  0  0  0  0  0
  195.4150  174.8780  137.1990 C   0  0  0  0  0  1  0  0  0  0  0  0
  187.4890  178.8150  138.2640 O   0  0  0  0  0  0  0  0  0  0  0  0
  188.5150  179.4050  140.9170 O   0  0  0  0  0  0  0  0  0  0  0  0
  190.8660  175.6280  139.2730 O   0  0  0  0  0  0  0  0  0  0  0  0
  187.0850  173.3790  136.1810 C   0  0  0  0  0  2  0  0  0  0  0  0
  185.6660  176.3430  134.7840 C   0  0  0  0  0  3  0  0  0  0  0  0
  185.9120  175.5490  135.9090 C   0  0  0  0  0  0  0  0  0  0  0  0
  184.9070  175.3820  136.8740 C   0  0  0  0  0  3  0  0  0  0  0  0
  182.4180  175.7950  137.9180 Cl  0  0  0  0  0  0  0  0  0  0  0  0
  183.4260  176.7960  135.5840 C   0  0  0  0  0  3  0  0  0  0  0  0
  183.6670  176.0050  136.7110 C   0  0  0  0  0  0  0  0  0  0  0  0
  184.4240  176.9660  134.6210 C   0  0  0  0  0  3  0  0  0  0  0  0
  191.6810  176.7620  143.1340 O   0  0  0  0  0  1  0  0  0  0  0  0
  191.1440  177.5620  142.1240 C   0  0  0  0  0  2  0  0  0  0  0  0
  1  4  1  0  0  0  0
  2 24  1  0  0  0  0
  2 17  1  0  0  0  0
  4 37  1  1  0  0  0
  6 22  1  0  0  0  0
  6  9  2  0  0  0  0
  7  3  1  6  0  0  0
  7 21  1  0  0  0  0
  8 26  2  0  0  0  0
  8 12  1  0  0  0  0
  9  3  1  0  0  0  0
  9 13  1  0  0  0  0
 10  5  1  6  0  0  0
 10  7  1  0  0  0  0
 11 16  1  0  0  0  0
 11  6  1  0  0  0  0
 12  4  1  0  0  0  0
 13 17  1  1  0  0  0
 13 21  1  0  0  0  0
 14  2  1  0  0  0  0
 18 25  1  6  0  0  0
 18  8  1  0  0  0  0
 19  5  1  6  0  0  0
 19 18  1  0  0  0  0
 20 16  1  1  0  0  0
 20  3  1  0  0  0  0
 20 15  1  0  0  0  0
 21 27  1  1  0  0  0
 22  2  1  0  0  0  0
 23 30  1  1  0  0  0
 23 28  1  0  0  0  0
 23 10  1  0  0  0  0
 25 19  1  0  0  0  0
 27  1  1  0  0  0  0
 28 15  1  0  0  0  0
 29 30  1  0  0  0  0
 30 31  2  0  0  0  0
 33 34  2  0  0  0  0
 34 31  1  0  0  0  0
 34 32  1  0  0  0  0
 35 29  2  0  0  0  0
 35 33  1  0  0  0  0
 37 36  1  0  0  0  0
M  END
>  <MODEL>
2

>  <REMARK>
 VINA RESULT:      -8.0      5.682     10.661
  Name = 
  2 active torsions:
  status: ('A' for Active; 'I' for Inactive)
    1  A    between atoms: C_4  and  C_37
    2  A    between atoms: C_23  and  C_30
                            x       y       z     vdW  Elec       q    Type
                         _______ _______ _______ _____ _____    ______ ____

>  <TORSDO>
F 2

$$$$
=
 OpenBabel11122411413D

 37 43  0  0  1  0  0  0  0  0999 V2000
  186.3500  178.3440  140.3590 O   0  0  0  0  0  0  0  0  0  0  0  0
  188.9100  175.9670  137.1200 C   0  0  0  0  0  0  0  0  0  0  0  0
  190.6650  177.1030  140.7920 N   0  0  0  0  0  0  0  0  0  0  0  0
  185.7660  179.5110  140.8730 C   0  0  2  0  0  3  0  0  0  0  0  0
  188.5750  176.7070  143.3350 O   0  0  0  0  0  0  0  0  0  0  0  0
  190.9250  176.2500  138.5600 C   0  0  0  0  0  0  0  0  0  0  0  0
  189.5920  177.8610  141.4280 C   0  0  2  0  0  3  0  0  0  0  0  0
  185.3530  178.2530  143.0410 C   0  0  0  0  0  0  0  0  0  0  0  0
  190.1570  176.4810  139.6290 C   0  0  0  0  0  0  0  0  0  0  0  0
  189.5380  177.6600  142.9650 C   0  0  2  0  0  3  0  0  0  0  0  0
  192.4170  176.3780  138.6790 C   0  0  0  0  0  2  0  0  0  0  0  0
  185.8040  179.5390  142.4050 C   0  0  0  0  0  2  0  0  0  0  0  0
  188.6810  176.4960  139.5680 C   0  0  2  0  0  3  0  0  0  0  0  0
  188.3880  174.5440  137.2190 C   0  0  0  0  0  1  0  0  0  0  0  0
  192.3360  178.5780  141.8500 C   0  0  0  0  0  2  0  0  0  0  0  0
  192.7890  177.5280  139.6230 C   0  0  0  0  0  2  0  0  0  0  0  0
  188.2030  176.8590  138.1560 C   0  0  0  0  0  2  0  0  0  0  0  0
  186.2810  177.0790  143.0810 C   0  0  1  0  0  3  0  0  0  0  0  0
  187.5070  177.4730  143.8090 C   0  0  1  0  0  3  0  0  0  0  0  0
  192.1030  177.3460  140.9800 C   0  0  2  0  0  3  0  0  0  0  0  0
  188.2890  177.4750  140.6930 C   0  0  2  0  0  3  0  0  0  0  0  0
  190.3320  175.9710  137.3210 O   0  0  0  0  0  0  0  0  0  0  0  0
  190.9000  177.3170  143.6050 C   0  0  1  0  0  3  0  0  0  0  0  0
  188.6070  176.4940  135.7350 C   0  0  0  0  0  1  0  0  0  0  0  0
  186.5280  176.6550  144.4020 O   0  0  0  0  0  0  0  0  0  0  0  0
  184.2180  178.1520  143.4750 O   0  0  0  0  0  0  0  0  0  0  0  0
  187.6340  178.6190  140.2180 O   0  0  0  0  0  0  0  0  0  0  0  0
  192.0100  178.3430  143.3280 C   0  0  0  0  0  2  0  0  0  0  0  0
  191.6800  176.2370  145.7200 C   0  0  0  0  0  3  0  0  0  0  0  0
  190.7760  177.0920  145.0820 C   0  0  0  0  0  0  0  0  0  0  0  0
  189.7620  177.7130  145.8270 C   0  0  0  0  0  3  0  0  0  0  0  0
  188.3910  178.2530  148.1260 Cl  0  0  0  0  0  0  0  0  0  0  0  0
  190.5650  176.6250  147.8350 C   0  0  0  0  0  3  0  0  0  0  0  0
  189.6590  177.4780  147.2000 C   0  0  0  0  0  0  0  0  0  0  0  0
  191.5760  176.0040  147.0950 C   0  0  0  0  0  3  0  0  0  0  0  0
  184.3180  180.1670  139.0930 O   0  0  0  0  0  1  0  0  0  0  0  0
  184.3330  179.6310  140.3820 C   0  0  0  0  0  2  0  0  0  0  0  0
  1  4  1  0  0  0  0
  2 14  1  0  0  0  0
  2 22  1  0  0  0  0
  2 17  1  0  0  0  0
  3 20  1  0  0  0  0
  4 37  1  1  0  0  0
  4 12  1  0  0  0  0
  6 11  1  0  0  0  0
  6  9  2  0  0  0  0
  7  3  1  6  0  0  0
  7 10  1  0  0  0  0
  8 26  2  0  0  0  0
  9  3  1  0  0  0  0
 10  5  1  6  0  0  0
 10 23  1  0  0  0  0
 11 16  1  0  0  0  0
 12  8  1  0  0  0  0
 13 17  1  6  0  0  0
 13  9  1  0  0  0  0
 13 21  1  0  0  0  0
 15 28  1  0  0  0  0
 18  8  1  1  0  0  0
 18 19  1  0  0  0  0
 18 25  1  0  0  0  0
 19  5  1  6  0  0  0
 19 25  1  0  0  0  0
 20 16  1  6  0  0  0
 20 15  1  0  0  0  0
 21 27  1  6  0  0  0
 21  7  1  0  0  0  0
 22  6  1  0  0  0  0
 23 30  1  1  0  0  0
 24  2  1  0  0  0  0
 27  1  1  0  0  0  0
 28 23  1  0  0  0  0
 29 35  1  0  0  0  0
 30 29  2  0  0  0  0
 30 31  1  0  0  0  0
 31 34  2  0  0  0  0
 34 33  1  0  0  0  0
 34 32  1  0  0  0  0
 35 33  2  0  0  0  0
 36 37  1  0  0  0  0
M  END
>  <MODEL>
3

>  <REMARK>
 VINA RESULT:      -6.8      4.453      8.482
  Name = 
  2 active torsions:
  status: ('A' for Active; 'I' for Inactive)
    1  A    between atoms: C_4  and  C_37
    2  A    between atoms: C_23  and  C_30
                            x       y       z     vdW  Elec       q    Type
                         _______ _______ _______ _____ _____    ______ ____

>  <TORSDO>
F 2

$$$$
=
 OpenBabel11122411413D

 37 43  0  0  1  0  0  0  0  0999 V2000
  186.2540  178.2300  138.7170 O   0  0  0  0  0  0  0  0  0  0  0  0
  184.5900  179.1000  143.0950 C   0  0  0  0  0  0  0  0  0  0  0  0
  181.9230  178.1130  139.9700 N   0  0  0  0  0  0  0  0  0  0  0  0
  186.7470  178.6370  137.4680 C   0  0  2  0  0  3  0  0  0  0  0  0
  183.1370  175.7240  138.0180 O   0  0  0  0  0  0  0  0  0  0  0  0
  182.2680  178.9220  142.2070 C   0  0  0  0  0  0  0  0  0  0  0  0
  182.8140  178.0170  138.8190 C   0  0  2  0  0  3  0  0  0  0  0  0
  186.4090  176.2560  136.6500 C   0  0  0  0  0  0  0  0  0  0  0  0
  182.7030  178.2420  141.1420 C   0  0  0  0  0  0  0  0  0  0  0  0
  182.3990  176.9030  137.8230 C   0  0  2  0  0  3  0  0  0  0  0  0
  180.8210  179.3150  142.2940 C   0  0  0  0  0  2  0  0  0  0  0  0
  186.2620  177.7200  136.3390 C   0  0  0  0  0  2  0  0  0  0  0  0
  184.1280  177.9230  140.9210 C   0  0  2  0  0  3  0  0  0  0  0  0
  184.9530  177.8490  143.8760 C   0  0  0  0  0  1  0  0  0  0  0  0
  180.1290  178.9730  138.5110 C   0  0  0  0  0  2  0  0  0  0  0  0
  180.2750  179.6810  140.9080 C   0  0  0  0  0  2  0  0  0  0  0  0
  185.0250  178.9490  141.6260 C   0  0  0  0  0  2  0  0  0  0  0  0
  185.4260  175.5870  137.5600 C   0  0  1  0  0  3  0  0  0  0  0  0
  184.0730  175.7360  136.9810 C   0  0  1  0  0  3  0  0  0  0  0  0
  180.5150  178.5350  139.9220 C   0  0  2  0  0  3  0  0  0  0  0  0
  184.2440  177.8590  139.3840 C   0  0  2  0  0  3  0  0  0  0  0  0
  183.1770  179.3330  143.1930 O   0  0  0  0  0  0  0  0  0  0  0  0
  180.8880  176.5900  137.8200 C   0  0  1  0  0  3  0  0  0  0  0  0
  185.3260  180.2750  143.7020 C   0  0  0  0  0  1  0  0  0  0  0  0
  184.7710  174.5160  136.9210 O   0  0  0  0  0  0  0  0  0  0  0  0
  187.3560  175.6290  136.2050 O   0  0  0  0  0  0  0  0  0  0  0  0
  185.0930  178.8420  138.8600 O   0  0  0  0  0  0  0  0  0  0  0  0
  179.9870  177.8030  137.5340 C   0  0  0  0  0  2  0  0  0  0  0  0
  180.5680  175.7270  135.4950 C   0  0  0  0  0  3  0  0  0  0  0  0
  180.5550  175.4780  136.8720 C   0  0  0  0  0  0  0  0  0  0  0  0
  180.2200  174.1990  137.3430 C   0  0  0  0  0  3  0  0  0  0  0  0
  179.4820  171.5890  137.0340 Cl  0  0  0  0  0  0  0  0  0  0  0  0
  179.9170  173.4350  135.0670 C   0  0  0  0  0  3  0  0  0  0  0  0
  179.9020  173.1810  136.4410 C   0  0  0  0  0  0  0  0  0  0  0  0
  180.2500  174.7070  134.5940 C   0  0  0  0  0  3  0  0  0  0  0  0
  188.7050  179.0040  138.7810 O   0  0  0  0  0  1  0  0  0  0  0  0
  188.2650  178.6730  137.4980 C   0  0  0  0  0  2  0  0  0  0  0  0
  1 27  1  0  0  0  0
  2 22  1  0  0  0  0
  2 24  1  0  0  0  0
  2 14  1  0  0  0  0
  3  9  1  0  0  0  0
  4 37  1  1  0  0  0
  4  1  1  0  0  0  0
  6 11  1  0  0  0  0
  6 22  1  0  0  0  0
  7 21  1  0  0  0  0
  7  3  1  1  0  0  0
  9  6  2  0  0  0  0
 10  5  1  1  0  0  0
 10  7  1  0  0  0  0
 12  8  1  0  0  0  0
 12  4  1  0  0  0  0
 13  9  1  0  0  0  0
 13 17  1  6  0  0  0
 16 11  1  0  0  0  0
 17  2  1  0  0  0  0
 18  8  1  6  0  0  0
 19 25  1  6  0  0  0
 19 18  1  0  0  0  0
 19  5  1  0  0  0  0
 20 15  1  6  0  0  0
 20  3  1  0  0  0  0
 20 16  1  0  0  0  0
 21 27  1  6  0  0  0
 21 13  1  0  0  0  0
 23 30  1  6  0  0  0
 23 10  1  0  0  0  0
 25 18  1  0  0  0  0
 26  8  2  0  0  0  0
 28 23  1  0  0  0  0
 28 15  1  0  0  0  0
 29 30  1  0  0  0  0
 30 31  2  0  0  0  0
 33 34  2  0  0  0  0
 34 32  1  0  0  0  0
 34 31  1  0  0  0  0
 35 33  1  0  0  0  0
 35 29  2  0  0  0  0
 37 36  1  0  0  0  0
M  END
>  <MODEL>
4

>  <REMARK>
 VINA RESULT:      -6.8      3.066      6.489
  Name = 
  2 active torsions:
  status: ('A' for Active; 'I' for Inactive)
    1  A    between atoms: C_4  and  C_37
    2  A    between atoms: C_23  and  C_30
                            x       y       z     vdW  Elec       q    Type
                         _______ _______ _______ _____ _____    ______ ____

>  <TORSDO>
F 2

$$$$
=
 OpenBabel11122411413D

 37 43  0  0  1  0  0  0  0  0999 V2000
  192.0910  176.3780  138.3660 O   0  0  0  0  0  0  0  0  0  0  0  0
  190.9840  177.4170  142.8820 C   0  0  0  0  0  0  0  0  0  0  0  0
  187.9540  177.2460  139.9410 N   0  0  0  0  0  0  0  0  0  0  0  0
  192.5830  176.7120  137.0960 C   0  0  2  0  0  3  0  0  0  0  0  0
  188.4190  174.7290  137.8340 O   0  0  0  0  0  0  0  0  0  0  0  0
  188.6340  177.8440  142.1680 C   0  0  0  0  0  0  0  0  0  0  0  0
  188.7170  176.9930  138.7230 C   0  0  2  0  0  3  0  0  0  0  0  0
  191.6240  174.5230  136.2370 C   0  0  0  0  0  0  0  0  0  0  0  0
  188.8190  177.1290  141.0530 C   0  0  0  0  0  0  0  0  0  0  0  0
  187.9780  176.0590  137.7300 C   0  0  2  0  0  3  0  0  0  0  0  0
  187.3350  178.5680  142.3760 C   0  0  0  0  0  2  0  0  0  0  0  0
  191.8160  175.9920  135.9810 C   0  0  0  0  0  2  0  0  0  0  0  0
  190.1050  176.4890  140.7160 C   0  0  2  0  0  3  0  0  0  0  0  0
  191.0830  176.0810  143.5960 C   0  0  0  0  0  1  0  0  0  0  0  0
  186.3300  178.5800  138.6480 C   0  0  0  0  0  2  0  0  0  0  0  0
  186.8030  179.1190  141.0470 C   0  0  0  0  0  2  0  0  0  0  0  0
  191.2700  177.2340  141.3810 C   0  0  0  0  0  2  0  0  0  0  0  0
  190.5700  174.0680  137.1990 C   0  0  1  0  0  3  0  0  0  0  0  0
  189.2580  174.5640  136.7290 C   0  0  1  0  0  3  0  0  0  0  0  0
  186.6910  177.9960  140.0120 C   0  0  2  0  0  3  0  0  0  0  0  0
  190.1000  176.4700  139.1740 C   0  0  2  0  0  3  0  0  0  0  0  0
  189.6790  177.9780  143.0930 O   0  0  0  0  0  0  0  0  0  0  0  0
  186.4390  176.1190  137.8320 C   0  0  1  0  0  3  0  0  0  0  0  0
  192.0210  178.3520  143.4660 C   0  0  0  0  0  1  0  0  0  0  0  0
  189.6330  173.2170  136.5810 O   0  0  0  0  0  0  0  0  0  0  0  0
  192.3580  173.7090  135.7030 O   0  0  0  0  0  0  0  0  0  0  0  0
  191.1260  177.2440  138.6150 O   0  0  0  0  0  0  0  0  0  0  0  0
  185.8440  177.5240  137.6500 C   0  0  0  0  0  2  0  0  0  0  0  0
  185.9090  175.3800  135.5030 C   0  0  0  0  0  3  0  0  0  0  0  0
  185.7840  175.1640  136.8800 C   0  0  0  0  0  0  0  0  0  0  0  0
  185.0410  174.0700  137.3470 C   0  0  0  0  0  3  0  0  0  0  0  0
  183.4990  171.8390  137.0280 Cl  0  0  0  0  0  0  0  0  0  0  0  0
  184.5570  173.4190  135.0670 C   0  0  0  0  0  3  0  0  0  0  0  0
  184.4290  173.2010  136.4410 C   0  0  0  0  0  0  0  0  0  0  0  0
  185.2970  174.5090  134.5970 C   0  0  0  0  0  3  0  0  0  0  0  0
  194.4430  175.6230  138.1200 O   0  0  0  0  0  1  0  0  0  0  0  0
  194.0640  176.3820  137.0120 C   0  0  0  0  0  2  0  0  0  0  0  0
  1 27  1  0  0  0  0
  2 22  1  0  0  0  0
  2 24  1  0  0  0  0
  2 14  1  0  0  0  0
  3 20  1  0  0  0  0
  3  9  1  0  0  0  0
  4 37  1  1  0  0  0
  4  1  1  0  0  0  0
  6 11  1  0  0  0  0
  6 22  1  0  0  0  0
  7 21  1  0  0  0  0
  7  3  1  1  0  0  0
  9  6  2  0  0  0  0
 10 23  1  0  0  0  0
 10  5  1  1  0  0  0
 10  7  1  0  0  0  0
 12  8  1  0  0  0  0
 12  4  1  0  0  0  0
 13  9  1  0  0  0  0
 13 17  1  6  0  0  0
 16 11  1  0  0  0  0
 17  2  1  0  0  0  0
 18  8  1  6  0  0  0
 19 25  1  6  0  0  0
 19 18  1  0  0  0  0
 19  5  1  0  0  0  0
 20 15  1  6  0  0  0
 20 16  1  0  0  0  0
 21 27  1  6  0  0  0
 21 13  1  0  0  0  0
 23 30  1  6  0  0  0
 25 18  1  0  0  0  0
 26  8  2  0  0  0  0
 28 23  1  0  0  0  0
 28 15  1  0  0  0  0
 29 30  1  0  0  0  0
 30 31  2  0  0  0  0
 33 34  2  0  0  0  0
 34 32  1  0  0  0  0
 34 31  1  0  0  0  0
 35 33  1  0  0  0  0
 35 29  2  0  0  0  0
 37 36  1  0  0  0  0
M  END
>  <MODEL>
5

>  <REMARK>
 VINA RESULT:      -6.5      5.592      9.189
  Name = 
  2 active torsions:
  status: ('A' for Active; 'I' for Inactive)
    1  A    between atoms: C_4  and  C_37
    2  A    between atoms: C_23  and  C_30
                            x       y       z     vdW  Elec       q    Type
                         _______ _______ _______ _____ _____    ______ ____

>  <TORSDO>
F 2

$$$$
=
 OpenBabel11122411413D

 37 43  0  0  1  0  0  0  0  0999 V2000
  180.6080  177.5910  137.3780 O   0  0  0  0  0  0  0  0  0  0  0  0
  180.2380  172.8460  137.1630 C   0  0  0  0  0  0  0  0  0  0  0  0
  183.9370  174.7240  136.3540 N   0  0  0  0  0  0  0  0  0  0  0  0
  180.4310  178.8790  136.8520 C   0  0  2  0  0  3  0  0  0  0  0  0
  184.5170  177.2500  138.4210 O   0  0  0  0  0  0  0  0  0  0  0  0
  182.5800  172.7400  136.3140 C   0  0  0  0  0  0  0  0  0  0  0  0
  183.5920  176.1390  136.4420 C   0  0  2  0  0  3  0  0  0  0  0  0
  181.9600  179.7500  138.6840 C   0  0  0  0  0  0  0  0  0  0  0  0
  182.8360  173.9580  136.8020 C   0  0  0  0  0  0  0  0  0  0  0  0
  184.7270  177.0010  137.0540 C   0  0  2  0  0  3  0  0  0  0  0  0
  183.6230  172.0360  135.4950 C   0  0  0  0  0  2  0  0  0  0  0  0
  181.5880  179.8120  137.2280 C   0  0  0  0  0  2  0  0  0  0  0  0
  181.8250  174.7670  137.5110 C   0  0  2  0  0  3  0  0  0  0  0  0
  180.1860  172.4200  138.6200 C   0  0  0  0  0  1  0  0  0  0  0  0
  185.5890  175.2340  134.5950 C   0  0  0  0  0  2  0  0  0  0  0  0
  184.3920  173.0360  134.6220 C   0  0  0  0  0  2  0  0  0  0  0  0
  180.4100  174.3730  137.0670 C   0  0  0  0  0  2  0  0  0  0  0  0
  182.7740  178.6020  139.1950 C   0  0  1  0  0  3  0  0  0  0  0  0
  184.0550  178.5680  138.4560 C   0  0  1  0  0  3  0  0  0  0  0  0
  184.9790  174.1560  135.4860 C   0  0  2  0  0  3  0  0  0  0  0  0
  182.2540  176.2170  137.2110 C   0  0  2  0  0  3  0  0  0  0  0  0
  181.3150  172.1640  136.5020 O   0  0  0  0  0  0  0  0  0  0  0  0
  186.1440  176.4310  136.8290 C   0  0  1  0  0  3  0  0  0  0  0  0
  178.9320  172.4600  136.5020 C   0  0  0  0  0  1  0  0  0  0  0  0
  183.9790  179.0370  139.7800 O   0  0  0  0  0  0  0  0  0  0  0  0
  181.5550  180.6050  139.4540 O   0  0  0  0  0  0  0  0  0  0  0  0
  181.3000  176.9270  136.4700 O   0  0  0  0  0  0  0  0  0  0  0  0
  186.5090  176.1960  135.3550 C   0  0  0  0  0  2  0  0  0  0  0  0
  187.6170  178.4510  136.8390 C   0  0  0  0  0  3  0  0  0  0  0  0
  187.1920  177.2820  137.4800 C   0  0  0  0  0  0  0  0  0  0  0  0
  187.7610  176.9180  138.7100 C   0  0  0  0  0  3  0  0  0  0  0  0
  189.4530  177.2620  140.8250 Cl  0  0  0  0  0  0  0  0  0  0  0  0
  189.1660  178.8880  138.6490 C   0  0  0  0  0  3  0  0  0  0  0  0
  188.7450  177.7210  139.2920 C   0  0  0  0  0  0  0  0  0  0  0  0
  188.6020  179.2540  137.4230 C   0  0  0  0  0  3  0  0  0  0  0  0
  178.9610  180.7600  136.8560 O   0  0  0  0  0  1  0  0  0  0  0  0
  179.1120  179.4580  137.3370 C   0  0  0  0  0  2  0  0  0  0  0  0
  2 14  1  0  0  0  0
  3  9  1  0  0  0  0
  4 12  1  0  0  0  0
  4 37  1  1  0  0  0
  4  1  1  0  0  0  0
  6 22  1  0  0  0  0
  6  9  2  0  0  0  0
  7  3  1  1  0  0  0
  7 10  1  0  0  0  0
  7 21  1  0  0  0  0
  8 26  2  0  0  0  0
  9 13  1  0  0  0  0
 10  5  1  1  0  0  0
 11  6  1  0  0  0  0
 12  8  1  0  0  0  0
 13 17  1  6  0  0  0
 15 28  1  0  0  0  0
 16 20  1  0  0  0  0
 16 11  1  0  0  0  0
 17  2  1  0  0  0  0
 18  8  1  6  0  0  0
 18 25  1  0  0  0  0
 19  5  1  1  0  0  0
 19 18  1  0  0  0  0
 19 25  1  0  0  0  0
 20 15  1  6  0  0  0
 20  3  1  0  0  0  0
 21 27  1  6  0  0  0
 21 13  1  0  0  0  0
 22  2  1  0  0  0  0
 23 10  1  0  0  0  0
 23 30  1  6  0  0  0
 24  2  1  0  0  0  0
 27  1  1  0  0  0  0
 28 23  1  0  0  0  0
 29 35  2  0  0  0  0
 29 30  1  0  0  0  0
 30 31  2  0  0  0  0
 31 34  1  0  0  0  0
 33 34  2  0  0  0  0
 34 32  1  0  0  0  0
 35 33  1  0  0  0  0
 36 37  1  0  0  0  0
M  END
>  <MODEL>
6

>  <REMARK>
 VINA RESULT:      -5.9      3.420      7.119
  Name = 
  2 active torsions:
  status: ('A' for Active; 'I' for Inactive)
    1  A    between atoms: C_4  and  C_37
    2  A    between atoms: C_23  and  C_30
                            x       y       z     vdW  Elec       q    Type
                         _______ _______ _______ _____ _____    ______ ____

>  <TORSDO>
F 2

$$$$
=
 OpenBabel11122411413D

 37 43  0  0  1  0  0  0  0  0999 V2000
  187.2720  177.8300  143.1730 O   0  0  0  0  0  0  0  0  0  0  0  0
  188.7180  178.2820  138.6560 C   0  0  0  0  0  0  0  0  0  0  0  0
  184.6080  177.8370  139.5330 N   0  0  0  0  0  0  0  0  0  0  0  0
  187.0700  177.0910  144.3480 C   0  0  2  0  0  3  0  0  0  0  0  0
  183.7250  179.5630  142.2230 O   0  0  0  0  0  0  0  0  0  0  0  0
  186.3760  177.8710  137.9050 C   0  0  0  0  0  0  0  0  0  0  0  0
  184.6170  177.6490  140.9800 C   0  0  2  0  0  3  0  0  0  0  0  0
  185.6340  179.0020  145.2060 C   0  0  0  0  0  0  0  0  0  0  0  0
  185.9070  178.2030  139.1120 C   0  0  0  0  0  0  0  0  0  0  0  0
  183.4020  178.3070  141.6830 C   0  0  2  0  0  3  0  0  0  0  0  0
  185.4300  177.3590  136.8580 C   0  0  0  0  0  2  0  0  0  0  0  0
  185.7850  177.5120  145.0710 C   0  0  0  0  0  2  0  0  0  0  0  0
  186.7840  178.5980  140.2320 C   0  0  2  0  0  3  0  0  0  0  0  0
  189.0600  179.7560  138.5300 C   0  0  0  0  0  1  0  0  0  0  0  0
  182.6650  176.3290  139.3470 C   0  0  0  0  0  2  0  0  0  0  0  0
  184.3390  176.4870  137.4930 C   0  0  0  0  0  2  0  0  0  0  0  0
  188.1800  177.9840  140.0670 C   0  0  0  0  0  2  0  0  0  0  0  0
  185.1870  179.8130  144.0300 C   0  0  1  0  0  3  0  0  0  0  0  0
  183.8650  179.3170  143.5910 C   0  0  1  0  0  3  0  0  0  0  0  0
  183.6240  177.2570  138.6070 C   0  0  2  0  0  3  0  0  0  0  0  0
  185.9880  178.1580  141.4780 C   0  0  2  0  0  3  0  0  0  0  0  0
  187.7540  177.9260  137.6520 O   0  0  0  0  0  0  0  0  0  0  0  0
  182.1420  178.4160  140.7980 C   0  0  1  0  0  3  0  0  0  0  0  0
  189.9790  177.4750  138.4350 C   0  0  0  0  0  1  0  0  0  0  0  0
  184.0020  180.5210  144.3050 O   0  0  0  0  0  0  0  0  0  0  0  0
  185.9230  179.5520  146.2550 O   0  0  0  0  0  0  0  0  0  0  0  0
  186.6430  177.1650  142.2200 O   0  0  0  0  0  0  0  0  0  0  0  0
  181.6530  177.0780  140.2200 C   0  0  0  0  0  2  0  0  0  0  0  0
  180.4210  180.2240  140.9390 C   0  0  0  0  0  3  0  0  0  0  0  0
  181.0180  179.0980  141.5170 C   0  0  0  0  0  0  0  0  0  0  0  0
  180.5660  178.6340  142.7620 C   0  0  0  0  0  3  0  0  0  0  0  0
  178.9660  178.7120  144.9730 Cl  0  0  0  0  0  0  0  0  0  0  0  0
  178.9310  180.4170  142.8380 C   0  0  0  0  0  3  0  0  0  0  0  0
  179.5250  179.2930  143.4190 C   0  0  0  0  0  0  0  0  0  0  0  0
  179.3790  180.8820  141.5980 C   0  0  0  0  0  3  0  0  0  0  0  0
  189.1100  178.2510  144.7840 O   0  0  0  0  0  1  0  0  0  0  0  0
  188.2670  177.2500  145.2700 C   0  0  0  0  0  2  0  0  0  0  0  0
  1  4  1  0  0  0  0
  2 17  1  0  0  0  0
  4 12  1  0  0  0  0
  4 37  1  1  0  0  0
  6  9  2  0  0  0  0
  7  3  1  6  0  0  0
  7 21  1  0  0  0  0
  7 10  1  0  0  0  0
  8 26  2  0  0  0  0
  9  3  1  0  0  0  0
  9 13  1  0  0  0  0
 10  5  1  6  0  0  0
 11 16  1  0  0  0  0
 11  6  1  0  0  0  0
 12  8  1  0  0  0  0
 13 17  1  6  0  0  0
 13 21  1  0  0  0  0
 14  2  1  0  0  0  0
 15 28  1  0  0  0  0
 18 25  1  1  0  0  0
 18  8  1  0  0  0  0
 19  5  1  6  0  0  0
 19 18  1  0  0  0  0
 19 25  1  0  0  0  0
 20 16  1  6  0  0  0
 20 15  1  0  0  0  0
 20  3  1  0  0  0  0
 21 27  1  6  0  0  0
 22  6  1  0  0  0  0
 22  2  1  0  0  0  0
 23 30  1  1  0  0  0
 23 10  1  0  0  0  0
 24  2  1  0  0  0  0
 27  1  1  0  0  0  0
 28 23  1  0  0  0  0
 29 30  2  0  0  0  0
 29 35  1  0  0  0  0
 30 31  1  0  0  0  0
 31 34  2  0  0  0  0
 33 34  1  0  0  0  0
 34 32  1  0  0  0  0
 35 33  2  0  0  0  0
 36 37  1  0  0  0  0
M  END
>  <MODEL>
7

>  <REMARK>
 VINA RESULT:      -5.9      3.115      7.091
  Name = 
  2 active torsions:
  status: ('A' for Active; 'I' for Inactive)
    1  A    between atoms: C_4  and  C_37
    2  A    between atoms: C_23  and  C_30
                            x       y       z     vdW  Elec       q    Type
                         _______ _______ _______ _____ _____    ______ ____

>  <TORSDO>
F 2

$$$$
=
 OpenBabel11122411413D

 37 43  0  0  1  0  0  0  0  0999 V2000
  187.7510  178.3400  138.7730 O   0  0  0  0  0  0  0  0  0  0  0  0
  188.4370  177.7120  143.4450 C   0  0  0  0  0  0  0  0  0  0  0  0
  184.5250  178.1900  141.9210 N   0  0  0  0  0  0  0  0  0  0  0  0
  187.7410  179.1240  137.6100 C   0  0  2  0  0  3  0  0  0  0  0  0
  184.1080  176.5710  139.0580 O   0  0  0  0  0  0  0  0  0  0  0  0
  186.0010  178.0930  143.8150 C   0  0  0  0  0  0  0  0  0  0  0  0
  184.7710  178.4350  140.5040 C   0  0  2  0  0  3  0  0  0  0  0  0
  186.4780  177.2480  136.4540 C   0  0  0  0  0  0  0  0  0  0  0  0
  185.7390  177.8090  142.5360 C   0  0  0  0  0  0  0  0  0  0  0  0
  183.6920  177.8050  139.5850 C   0  0  2  0  0  3  0  0  0  0  0  0
  184.8920  178.5650  144.7110 C   0  0  0  0  0  2  0  0  0  0  0  0
  186.5960  178.7310  136.6690 C   0  0  0  0  0  2  0  0  0  0  0  0
  186.7910  177.4570  141.5610 C   0  0  2  0  0  3  0  0  0  0  0  0
  188.7630  176.2340  143.5680 C   0  0  0  0  0  1  0  0  0  0  0  0
  182.5680  179.6910  141.8420 C   0  0  0  0  0  2  0  0  0  0  0  0
  183.9150  179.4600  143.9390 C   0  0  0  0  0  2  0  0  0  0  0  0
  188.1370  178.0640  141.9770 C   0  0  0  0  0  2  0  0  0  0  0  0
  185.8490  176.3910  137.5080 C   0  0  1  0  0  3  0  0  0  0  0  0
  184.4690  176.8700  137.7420 C   0  0  1  0  0  3  0  0  0  0  0  0
  183.3980  178.7340  142.6940 C   0  0  2  0  0  3  0  0  0  0  0  0
  186.2090  177.9460  140.2190 C   0  0  2  0  0  3  0  0  0  0  0  0
  187.3190  178.0280  144.2900 O   0  0  0  0  0  0  0  0  0  0  0  0
  182.3050  177.6620  140.2460 C   0  0  1  0  0  3  0  0  0  0  0  0
  189.6400  178.5090  143.9020 C   0  0  0  0  0  1  0  0  0  0  0  0
  184.7290  175.6940  137.0150 O   0  0  0  0  0  0  0  0  0  0  0  0
  186.9390  176.7390  135.4460 O   0  0  0  0  0  0  0  0  0  0  0  0
  186.9700  178.9660  139.6330 O   0  0  0  0  0  0  0  0  0  0  0  0
  181.7180  178.9760  140.7860 C   0  0  0  0  0  2  0  0  0  0  0  0
  180.8170  177.7310  138.2380 C   0  0  0  0  0  3  0  0  0  0  0  0
  181.3190  177.0080  139.3260 C   0  0  0  0  0  0  0  0  0  0  0  0
  180.8830  175.6930  139.5450 C   0  0  0  0  0  3  0  0  0  0  0  0
  179.4120  173.4680  138.9610 Cl  0  0  0  0  0  0  0  0  0  0  0  0
  179.4570  175.8340  137.5950 C   0  0  0  0  0  3  0  0  0  0  0  0
  179.9540  175.1090  138.6810 C   0  0  0  0  0  0  0  0  0  0  0  0
  179.8880  177.1450  137.3730 C   0  0  0  0  0  3  0  0  0  0  0  0
  189.7990  177.9310  137.4190 O   0  0  0  0  0  1  0  0  0  0  0  0
  189.0750  179.0010  136.8920 C   0  0  0  0  0  2  0  0  0  0  0  0
  1 27  1  0  0  0  0
  2 14  1  0  0  0  0
  2 24  1  0  0  0  0
  2 22  1  0  0  0  0
  3  9  1  0  0  0  0
  3 20  1  0  0  0  0
  4 37  1  6  0  0  0
  4  1  1  0  0  0  0
  6 22  1  0  0  0  0
  6 11  1  0  0  0  0
  7  3  1  1  0  0  0
  8 12  1  0  0  0  0
  9  6  2  0  0  0  0
 10  5  1  1  0  0  0
 10 23  1  0  0  0  0
 10  7  1  0  0  0  0
 12  4  1  0  0  0  0
 13 17  1  1  0  0  0
 13  9  1  0  0  0  0
 16 11  1  0  0  0  0
 17  2  1  0  0  0  0
 18  8  1  6  0  0  0
 18 19  1  0  0  0  0
 19 25  1  6  0  0  0
 19  5  1  0  0  0  0
 20 15  1  6  0  0  0
 20 16  1  0  0  0  0
 21 27  1  1  0  0  0
 21  7  1  0  0  0  0
 21 13  1  0  0  0  0
 23 30  1  6  0  0  0
 23 28  1  0  0  0  0
 25 18  1  0  0  0  0
 26  8  2  0  0  0  0
 28 15  1  0  0  0  0
 29 30  1  0  0  0  0
 30 31  2  0  0  0  0
 33 34  2  0  0  0  0
 34 32  1  0  0  0  0
 34 31  1  0  0  0  0
 35 33  1  0  0  0  0
 35 29  2  0  0  0  0
 37 36  1  0  0  0  0
M  END
>  <MODEL>
8

>  <REMARK>
 VINA RESULT:      -5.7      3.191      6.787
  Name = 
  2 active torsions:
  status: ('A' for Active; 'I' for Inactive)
    1  A    between atoms: C_4  and  C_37
    2  A    between atoms: C_23  and  C_30
                            x       y       z     vdW  Elec       q    Type
                         _______ _______ _______ _____ _____    ______ ____

>  <TORSDO>
F 2

$$$$
