=
 OpenBabel11122410233D

 30 35  0  0  1  0  0  0  0  0999 V2000
  185.3650  178.1610  142.3180 C   0  0  0  0  0  0  0  0  0  0  0  0
  186.3370  178.1700  144.6270 C   0  0  0  0  0  0  0  0  0  0  0  0
  181.1830  179.0610  143.9680 S   0  0  0  0  0  0  0  0  0  0  0  0
  184.2370  178.3460  141.4820 C   0  0  0  0  0  0  0  0  0  0  0  0
  186.6560  177.7170  141.6800 C   0  0  0  0  0  2  0  0  0  0  0  0
  185.9760  179.0340  138.3460 O   0  0  0  0  0  0  0  0  0  0  0  0
  182.3460  176.7960  139.8490 C   0  0  1  0  0  3  0  0  0  0  0  0
  185.7770  178.5980  139.5120 C   0  0  0  0  0  0  0  0  0  0  0  0
  181.5460  178.0650  140.0160 C   0  0  1  0  0  3  0  0  0  0  0  0
  180.6070  178.9980  142.2270 C   0  0  1  0  0  3  0  0  0  0  0  0
  186.8780  178.3870  140.4060 N   0  0  0  0  0  0  0  0  0  0  0  0
  184.3730  178.3240  139.9710 C   0  0  1  0  0  3  0  0  0  0  0  0
  186.1480  178.3340  146.0010 C   0  0  0  0  0  3  0  0  0  0  0  0
  180.1230  177.6240  139.7390 C   0  0  0  0  0  2  0  0  0  0  0  0
  181.5140  175.9040  138.9480 C   0  0  0  0  0  2  0  0  0  0  0  0
  187.6210  177.8780  144.1850 O   0  0  0  0  0  1  0  0  0  0  0  0
  182.8610  178.7580  143.4280 C   0  0  0  0  0  0  0  0  0  0  0  0
  184.8910  178.6390  146.5170 C   0  0  0  0  0  3  0  0  0  0  0  0
  185.2420  178.3110  143.7300 C   0  0  0  0  0  0  0  0  0  0  0  0
  182.9810  178.5950  142.0690 C   0  0  0  0  0  0  0  0  0  0  0  0
  180.0920  180.3660  141.8220 C   0  0  0  0  0  1  0  0  0  0  0  0
  181.7310  178.6160  141.3700 N   0  0  0  0  0  0  0  0  0  0  0  0
  180.1780  176.4820  138.8330 N   0  0  0  0  0  2  0  0  0  0  0  0
  183.7330  177.2460  137.9270 O   0  0  0  0  0  1  0  0  0  0  0  0
  183.8050  178.7840  145.6580 C   0  0  0  0  0  3  0  0  0  0  0  0
  183.9640  178.6280  144.2760 C   0  0  0  0  0  0  0  0  0  0  0  0
  183.7620  177.0740  139.3150 C   0  0  2  0  0  3  0  0  0  0  0  0
  188.2500  178.6280  139.9840 C   0  0  0  0  0  2  0  0  0  0  0  0
  190.3180  177.2750  139.8550 C   0  0  0  0  0  1  0  0  0  0  0  0
  189.1990  177.7370  140.7640 C   0  0  0  0  0  2  0  0  0  0  0  0
  1 19  1  0  0  0  0
  2 13  1  0  0  0  0
  4 20  1  0  0  0  0
  4  1  2  0  0  0  0
  5  1  1  0  0  0  0
  6  8  2  0  0  0  0
  7 15  1  6  0  0  0
  7  9  1  0  0  0  0
  8 11  1  0  0  0  0
  9 14  1  1  0  0  0
  9 22  1  0  0  0  0
 10 21  1  6  0  0  0
 10  3  1  0  0  0  0
 11  5  1  0  0  0  0
 12  8  1  1  0  0  0
 12  4  1  0  0  0  0
 13 18  2  0  0  0  0
 16  2  1  0  0  0  0
 17  3  1  0  0  0  0
 17 26  1  0  0  0  0
 19 26  1  0  0  0  0
 19  2  2  0  0  0  0
 20 17  2  0  0  0  0
 22 20  1  0  0  0  0
 22 10  1  0  0  0  0
 23 15  1  0  0  0  0
 23 14  1  0  0  0  0
 25 18  1  0  0  0  0
 26 25  2  0  0  0  0
 27 24  1  6  0  0  0
 27  7  1  0  0  0  0
 27 12  1  0  0  0  0
 28 11  1  0  0  0  0
 28 30  1  0  0  0  0
 29 30  1  0  0  0  0
M  END
>  <MODEL>
1

>  <REMARK>
 VINA RESULT:      -7.8      0.000      0.000
  Name = 
  2 active torsions:
  status: ('A' for Active; 'I' for Inactive)
    1  A    between atoms: N_11  and  C_28
    2  A    between atoms: C_28  and  C_30
                            x       y       z     vdW  Elec       q    Type
                         _______ _______ _______ _____ _____    ______ ____

>  <TORSDO>
F 2

$$$$
=
 OpenBabel11122410233D

 30 35  0  0  1  0  0  0  0  0999 V2000
  188.5720  177.5500  141.5750 C   0  0  0  0  0  0  0  0  0  0  0  0
  186.8500  177.9480  143.3510 C   0  0  0  0  0  0  0  0  0  0  0  0
  185.5720  178.6420  138.2830 S   0  0  0  0  0  0  0  0  0  0  0  0
  188.9200  177.5790  140.2020 C   0  0  0  0  0  0  0  0  0  0  0  0
  189.5900  177.0280  142.5540 C   0  0  0  0  0  2  0  0  0  0  0  0
  192.5490  177.7760  140.5540 O   0  0  0  0  0  0  0  0  0  0  0  0
  189.4470  175.7570  137.9560 C   0  0  1  0  0  3  0  0  0  0  0  0
  191.3470  177.5310  140.8500 C   0  0  0  0  0  0  0  0  0  0  0  0
  189.1670  177.0240  137.1860 C   0  0  1  0  0  3  0  0  0  0  0  0
  186.9230  178.2890  137.0930 C   0  0  1  0  0  3  0  0  0  0  0  0
  190.9320  177.4850  142.2210 N   0  0  0  0  0  0  0  0  0  0  0  0
  190.3440  177.3150  139.7520 C   0  0  1  0  0  3  0  0  0  0  0  0
  185.5490  178.3290  143.6880 C   0  0  0  0  0  3  0  0  0  0  0  0
  188.8010  176.5220  135.8040 C   0  0  0  0  0  2  0  0  0  0  0  0
  189.8160  174.7180  136.9150 C   0  0  0  0  0  2  0  0  0  0  0  0
  187.7100  177.6070  144.3870 O   0  0  0  0  0  1  0  0  0  0  0  0
  186.6730  178.2810  139.6460 C   0  0  0  0  0  0  0  0  0  0  0  0
  184.6350  178.6950  142.7040 C   0  0  0  0  0  3  0  0  0  0  0  0
  187.2600  177.9250  141.9890 C   0  0  0  0  0  0  0  0  0  0  0  0
  187.9320  177.9020  139.2500 C   0  0  0  0  0  0  0  0  0  0  0  0
  187.2880  179.5650  136.3590 C   0  0  0  0  0  1  0  0  0  0  0  0
  188.0850  177.7900  137.8300 N   0  0  0  0  0  0  0  0  0  0  0  0
  189.4830  175.2490  135.5960 N   0  0  0  0  0  2  0  0  0  0  0  0
  191.8010  175.9100  138.4660 O   0  0  0  0  0  1  0  0  0  0  0  0
  185.0150  178.6820  141.3650 C   0  0  0  0  0  3  0  0  0  0  0  0
  186.3110  178.3070  140.9960 C   0  0  0  0  0  0  0  0  0  0  0  0
  190.5240  175.9650  139.0360 C   0  0  2  0  0  3  0  0  0  0  0  0
  191.8840  177.6750  143.3050 C   0  0  0  0  0  2  0  0  0  0  0  0
  191.5250  176.8860  145.6220 C   0  0  0  0  0  1  0  0  0  0  0  0
  191.1480  177.9420  144.6050 C   0  0  0  0  0  2  0  0  0  0  0  0
  1 19  1  0  0  0  0
  1  5  1  0  0  0  0
  2 13  1  0  0  0  0
  2 16  1  0  0  0  0
  3 17  1  0  0  0  0
  4  1  2  0  0  0  0
  6  8  2  0  0  0  0
  7 15  1  6  0  0  0
  7 27  1  0  0  0  0
  8 11  1  0  0  0  0
  9 14  1  6  0  0  0
  9 22  1  0  0  0  0
  9  7  1  0  0  0  0
 10 21  1  1  0  0  0
 10 22  1  0  0  0  0
 10  3  1  0  0  0  0
 11  5  1  0  0  0  0
 11 28  1  0  0  0  0
 12  4  1  1  0  0  0
 12  8  1  0  0  0  0
 17 26  1  0  0  0  0
 18 13  2  0  0  0  0
 19  2  2  0  0  0  0
 20 17  2  0  0  0  0
 20  4  1  0  0  0  0
 22 20  1  0  0  0  0
 23 14  1  0  0  0  0
 23 15  1  0  0  0  0
 25 18  1  0  0  0  0
 26 25  2  0  0  0  0
 26 19  1  0  0  0  0
 27 24  1  6  0  0  0
 27 12  1  0  0  0  0
 28 30  1  0  0  0  0
 30 29  1  0  0  0  0
M  END
>  <MODEL>
2

>  <REMARK>
 VINA RESULT:      -7.6      3.865      6.187
  Name = 
  2 active torsions:
  status: ('A' for Active; 'I' for Inactive)
    1  A    between atoms: N_11  and  C_28
    2  A    between atoms: C_28  and  C_30
                            x       y       z     vdW  Elec       q    Type
                         _______ _______ _______ _____ _____    ______ ____

>  <TORSDO>
F 2

$$$$
=
 OpenBabel11122410233D

 30 35  0  0  1  0  0  0  0  0999 V2000
  186.5900  178.3670  145.1100 C   0  0  0  0  0  0  0  0  0  0  0  0
  186.8090  178.7740  147.5730 C   0  0  0  0  0  0  0  0  0  0  0  0
  190.7200  176.3780  144.9720 S   0  0  0  0  0  0  0  0  0  0  0  0
  187.1320  177.8120  143.9250 C   0  0  0  0  0  0  0  0  0  0  0  0
  185.2960  179.1310  145.0090 C   0  0  0  0  0  2  0  0  0  0  0  0
  184.0450  177.4850  142.0020 O   0  0  0  0  0  0  0  0  0  0  0  0
  188.3730  178.6450  141.3930 C   0  0  1  0  0  3  0  0  0  0  0  0
  184.8520  177.9100  142.8740 C   0  0  0  0  0  0  0  0  0  0  0  0
  188.8360  177.2100  141.4350 C   0  0  1  0  0  3  0  0  0  0  0  0
  190.4330  176.1710  143.1710 C   0  0  1  0  0  3  0  0  0  0  0  0
  184.3650  178.4840  144.0940 N   0  0  0  0  0  0  0  0  0  0  0  0
  186.3300  177.7870  142.6370 C   0  0  1  0  0  3  0  0  0  0  0  0
  187.5610  178.6410  148.7420 C   0  0  0  0  0  3  0  0  0  0  0  0
  190.0340  177.1990  140.5080 C   0  0  0  0  0  2  0  0  0  0  0  0
  188.8840  179.2020  140.0790 C   0  0  0  0  0  2  0  0  0  0  0  0
  185.5750  179.4030  147.6690 O   0  0  0  0  0  1  0  0  0  0  0  0
  189.1050  177.1280  145.1460 C   0  0  0  0  0  0  0  0  0  0  0  0
  188.8030  178.0120  148.7240 C   0  0  0  0  0  3  0  0  0  0  0  0
  187.3050  178.2680  146.3390 C   0  0  0  0  0  0  0  0  0  0  0  0
  188.4190  177.2400  143.9610 C   0  0  0  0  0  0  0  0  0  0  0  0
  190.3670  174.6910  142.8440 C   0  0  0  0  0  1  0  0  0  0  0  0
  189.1670  176.8150  142.8160 N   0  0  0  0  0  0  0  0  0  0  0  0
  189.8420  178.2530  139.5180 N   0  0  0  0  0  2  0  0  0  0  0  0
  186.1980  178.5110  140.3560 O   0  0  0  0  0  1  0  0  0  0  0  0
  189.3070  177.5060  147.5290 C   0  0  0  0  0  3  0  0  0  0  0  0
  188.5760  177.6230  146.3420 C   0  0  0  0  0  0  0  0  0  0  0  0
  186.8490  178.7640  141.5690 C   0  0  2  0  0  3  0  0  0  0  0  0
  182.9390  178.6310  144.3440 C   0  0  0  0  0  2  0  0  0  0  0  0
  180.8680  178.8750  143.0120 C   0  0  0  0  0  1  0  0  0  0  0  0
  182.2840  179.3780  143.1970 C   0  0  0  0  0  2  0  0  0  0  0  0
  1 19  1  0  0  0  0
  2 16  1  0  0  0  0
  2 13  1  0  0  0  0
  3 17  1  0  0  0  0
  4 20  1  0  0  0  0
  4  1  2  0  0  0  0
  5  1  1  0  0  0  0
  6  8  2  0  0  0  0
  7 15  1  6  0  0  0
  7  9  1  0  0  0  0
  7 27  1  0  0  0  0
  8 11  1  0  0  0  0
  9 14  1  6  0  0  0
  9 22  1  0  0  0  0
 10 21  1  1  0  0  0
 10  3  1  0  0  0  0
 11 28  1  0  0  0  0
 11  5  1  0  0  0  0
 12  8  1  1  0  0  0
 12  4  1  0  0  0  0
 17 26  1  0  0  0  0
 18 13  2  0  0  0  0
 19 26  1  0  0  0  0
 19  2  2  0  0  0  0
 20 17  2  0  0  0  0
 22 10  1  0  0  0  0
 22 20  1  0  0  0  0
 23 15  1  0  0  0  0
 23 14  1  0  0  0  0
 25 18  1  0  0  0  0
 26 25  2  0  0  0  0
 27 24  1  6  0  0  0
 27 12  1  0  0  0  0
 29 30  1  0  0  0  0
 30 28  1  0  0  0  0
M  END
>  <MODEL>
3

>  <REMARK>
 VINA RESULT:      -7.0      3.288      6.618
  Name = 
  2 active torsions:
  status: ('A' for Active; 'I' for Inactive)
    1  A    between atoms: N_11  and  C_28
    2  A    between atoms: C_28  and  C_30
                            x       y       z     vdW  Elec       q    Type
                         _______ _______ _______ _____ _____    ______ ____

>  <TORSDO>
F 2

$$$$
=
 OpenBabel11122410233D

 30 35  0  0  1  0  0  0  0  0999 V2000
  191.4570  175.8760  138.3770 C   0  0  0  0  0  0  0  0  0  0  0  0
  193.7310  174.9200  137.9410 C   0  0  0  0  0  0  0  0  0  0  0  0
  189.5350  172.8670  135.4980 S   0  0  0  0  0  0  0  0  0  0  0  0
  190.0590  175.8160  138.1530 C   0  0  0  0  0  0  0  0  0  0  0  0
  191.9930  177.0020  139.2220 C   0  0  0  0  0  2  0  0  0  0  0  0
  188.9450  177.6120  141.1320 O   0  0  0  0  0  0  0  0  0  0  0  0
  187.9250  177.2620  136.7410 C   0  0  1  0  0  3  0  0  0  0  0  0
  189.7050  177.2320  140.1990 C   0  0  0  0  0  0  0  0  0  0  0  0
  187.2360  175.9330  136.9350 C   0  0  1  0  0  3  0  0  0  0  0  0
  187.9400  173.6830  135.8920 C   0  0  1  0  0  3  0  0  0  0  0  0
  191.1290  177.2700  140.3620 N   0  0  0  0  0  0  0  0  0  0  0  0
  189.1070  176.7140  138.9220 C   0  0  1  0  0  3  0  0  0  0  0  0
  194.5230  173.9720  137.2900 C   0  0  0  0  0  3  0  0  0  0  0  0
  186.1490  175.9430  135.8800 C   0  0  0  0  0  2  0  0  0  0  0  0
  186.9000  178.1600  136.0740 C   0  0  0  0  0  2  0  0  0  0  0  0
  194.3690  175.8200  138.7860 O   0  0  0  0  0  1  0  0  0  0  0  0
  190.3790  173.9630  136.6330 C   0  0  0  0  0  0  0  0  0  0  0  0
  193.9530  173.0310  136.4370 C   0  0  0  0  0  3  0  0  0  0  0  0
  192.3230  174.9390  137.7410 C   0  0  0  0  0  0  0  0  0  0  0  0
  189.5500  174.8780  137.2340 C   0  0  0  0  0  0  0  0  0  0  0  0
  187.0300  172.6910  136.5930 C   0  0  0  0  0  1  0  0  0  0  0  0
  188.1960  174.8270  136.7690 N   0  0  0  0  0  0  0  0  0  0  0  0
  185.7830  177.3320  135.6290 N   0  0  0  0  0  2  0  0  0  0  0  0
  187.4580  178.4490  138.7890 O   0  0  0  0  0  1  0  0  0  0  0  0
  192.5770  173.0290  136.2280 C   0  0  0  0  0  3  0  0  0  0  0  0
  191.7570  173.9650  136.8680 C   0  0  0  0  0  0  0  0  0  0  0  0
  188.4770  177.8230  138.0620 C   0  0  2  0  0  3  0  0  0  0  0  0
  191.7360  177.7820  141.5820 C   0  0  0  0  0  2  0  0  0  0  0  0
  191.3750  177.3690  143.9940 C   0  0  0  0  0  1  0  0  0  0  0  0
  191.7030  176.7210  142.6660 C   0  0  0  0  0  2  0  0  0  0  0  0
  1  5  1  0  0  0  0
  2 16  1  0  0  0  0
  3 10  1  0  0  0  0
  3 17  1  0  0  0  0
  4  1  1  0  0  0  0
  5 11  1  0  0  0  0
  7 15  1  1  0  0  0
  7  9  1  0  0  0  0
  7 27  1  0  0  0  0
  8 11  1  0  0  0  0
  8  6  2  0  0  0  0
  9 14  1  6  0  0  0
 10 21  1  1  0  0  0
 10 22  1  0  0  0  0
 11 28  1  0  0  0  0
 12  4  1  6  0  0  0
 12  8  1  0  0  0  0
 13  2  2  0  0  0  0
 17 26  2  0  0  0  0
 17 20  1  0  0  0  0
 18 13  1  0  0  0  0
 19  2  1  0  0  0  0
 19  1  2  0  0  0  0
 20  4  2  0  0  0  0
 22  9  1  0  0  0  0
 22 20  1  0  0  0  0
 23 14  1  0  0  0  0
 23 15  1  0  0  0  0
 25 18  2  0  0  0  0
 25 26  1  0  0  0  0
 26 19  1  0  0  0  0
 27 24  1  1  0  0  0
 27 12  1  0  0  0  0
 28 30  1  0  0  0  0
 30 29  1  0  0  0  0
M  END
>  <MODEL>
4

>  <REMARK>
 VINA RESULT:      -6.9      6.129      8.679
  Name = 
  2 active torsions:
  status: ('A' for Active; 'I' for Inactive)
    1  A    between atoms: N_11  and  C_28
    2  A    between atoms: C_28  and  C_30
                            x       y       z     vdW  Elec       q    Type
                         _______ _______ _______ _____ _____    ______ ____

>  <TORSDO>
F 2

$$$$
=
 OpenBabel11122410233D

 30 35  0  0  1  0  0  0  0  0999 V2000
  185.6710  178.6170  140.1700 C   0  0  0  0  0  0  0  0  0  0  0  0
  188.1700  178.4340  140.1460 C   0  0  0  0  0  0  0  0  0  0  0  0
  185.4080  176.9120  135.9210 S   0  0  0  0  0  0  0  0  0  0  0  0
  184.4370  178.3880  139.5130 C   0  0  0  0  0  0  0  0  0  0  0  0
  185.6470  179.3230  141.5010 C   0  0  0  0  0  2  0  0  0  0  0  0
  182.2460  178.3870  142.4350 O   0  0  0  0  0  0  0  0  0  0  0  0
  182.2810  179.8570  138.1590 C   0  0  1  0  0  3  0  0  0  0  0  0
  183.2560  178.6280  141.7180 C   0  0  0  0  0  0  0  0  0  0  0  0
  182.0230  178.4770  137.6080 C   0  0  1  0  0  3  0  0  0  0  0  0
  183.5920  177.1280  136.0700 C   0  0  1  0  0  3  0  0  0  0  0  0
  184.5330  178.8710  142.3230 N   0  0  0  0  0  0  0  0  0  0  0  0
  183.1180  178.6330  140.2220 C   0  0  1  0  0  3  0  0  0  0  0  0
  189.3320  178.0600  139.4690 C   0  0  0  0  0  3  0  0  0  0  0  0
  181.2200  178.7430  136.3510 C   0  0  0  0  0  2  0  0  0  0  0  0
  181.1810  180.7350  137.5960 C   0  0  0  0  0  2  0  0  0  0  0  0
  188.3100  178.9640  141.4230 O   0  0  0  0  0  1  0  0  0  0  0  0
  185.6200  177.5230  137.5890 C   0  0  0  0  0  0  0  0  0  0  0  0
  189.2690  177.5120  138.1910 C   0  0  0  0  0  3  0  0  0  0  0  0
  186.8970  178.2600  139.5360 C   0  0  0  0  0  0  0  0  0  0  0  0
  184.4430  177.8840  138.1980 C   0  0  0  0  0  0  0  0  0  0  0  0
  182.9210  175.7680  136.0180 C   0  0  0  0  0  1  0  0  0  0  0  0
  183.2950  177.7790  137.3470 N   0  0  0  0  0  0  0  0  0  0  0  0
  180.4930  179.9930  136.5430 N   0  0  0  0  0  2  0  0  0  0  0  0
  181.0680  179.8750  140.2440 O   0  0  0  0  0  1  0  0  0  0  0  0
  188.0340  177.3300  137.5750 C   0  0  0  0  0  3  0  0  0  0  0  0
  186.8520  177.6930  138.2290 C   0  0  0  0  0  0  0  0  0  0  0  0
  182.3550  179.8600  139.6960 C   0  0  2  0  0  3  0  0  0  0  0  0
  184.6930  178.8880  143.7700 C   0  0  0  0  0  2  0  0  0  0  0  0
  186.0990  178.1550  145.6690 C   0  0  0  0  0  1  0  0  0  0  0  0
  185.9110  178.0760  144.1690 C   0  0  0  0  0  2  0  0  0  0  0  0
  1  5  1  0  0  0  0
  2 16  1  0  0  0  0
  3 10  1  0  0  0  0
  3 17  1  0  0  0  0
  4  1  2  0  0  0  0
  5 11  1  0  0  0  0
  7 15  1  1  0  0  0
  7 27  1  0  0  0  0
  8 11  1  0  0  0  0
  8  6  2  0  0  0  0
  9 14  1  6  0  0  0
  9  7  1  0  0  0  0
 10 21  1  1  0  0  0
 10 22  1  0  0  0  0
 11 28  1  0  0  0  0
 12  4  1  6  0  0  0
 12  8  1  0  0  0  0
 13  2  2  0  0  0  0
 14 23  1  0  0  0  0
 17 20  2  0  0  0  0
 17 26  1  0  0  0  0
 18 13  1  0  0  0  0
 19  2  1  0  0  0  0
 19  1  1  0  0  0  0
 20  4  1  0  0  0  0
 22  9  1  0  0  0  0
 22 20  1  0  0  0  0
 23 15  1  0  0  0  0
 25 18  2  0  0  0  0
 25 26  1  0  0  0  0
 26 19  2  0  0  0  0
 27 12  1  0  0  0  0
 27 24  1  1  0  0  0
 28 30  1  0  0  0  0
 30 29  1  0  0  0  0
M  END
>  <MODEL>
5

>  <REMARK>
 VINA RESULT:      -6.8      3.037      5.416
  Name = 
  2 active torsions:
  status: ('A' for Active; 'I' for Inactive)
    1  A    between atoms: N_11  and  C_28
    2  A    between atoms: C_28  and  C_30
                            x       y       z     vdW  Elec       q    Type
                         _______ _______ _______ _____ _____    ______ ____

>  <TORSDO>
F 2

$$$$
=
 OpenBabel11122410233D

 30 35  0  0  1  0  0  0  0  0999 V2000
  188.2940  177.4440  139.7250 C   0  0  0  0  0  0  0  0  0  0  0  0
  189.5910  176.5900  137.7590 C   0  0  0  0  0  0  0  0  0  0  0  0
  192.0990  177.6260  142.2790 S   0  0  0  0  0  0  0  0  0  0  0  0
  188.2980  177.9220  141.0590 C   0  0  0  0  0  0  0  0  0  0  0  0
  186.9660  177.2830  139.0330 C   0  0  0  0  0  2  0  0  0  0  0  0
  185.1390  179.7530  141.0020 O   0  0  0  0  0  0  0  0  0  0  0  0
  187.5230  177.0870  143.7690 C   0  0  1  0  0  3  0  0  0  0  0  0
  186.0190  178.9080  140.6780 C   0  0  0  0  0  0  0  0  0  0  0  0
  188.4870  178.1940  144.1180 C   0  0  1  0  0  3  0  0  0  0  0  0
  191.0200  178.2180  143.6390 C   0  0  1  0  0  3  0  0  0  0  0  0
  186.0660  178.3840  139.3450 N   0  0  0  0  0  0  0  0  0  0  0  0
  187.0350  178.4710  141.6950 C   0  0  1  0  0  3  0  0  0  0  0  0
  190.8210  176.2230  137.2090 C   0  0  0  0  0  3  0  0  0  0  0  0
  188.8840  177.8790  145.5460 C   0  0  0  0  0  2  0  0  0  0  0  0
  186.9700  176.5940  145.0920 C   0  0  0  0  0  2  0  0  0  0  0  0
  188.4680  176.4950  136.9460 O   0  0  0  0  0  1  0  0  0  0  0  0
  190.6870  177.5610  141.1830 C   0  0  0  0  0  0  0  0  0  0  0  0
  191.9900  176.3020  137.9590 C   0  0  0  0  0  3  0  0  0  0  0  0
  189.5150  177.0510  139.1020 C   0  0  0  0  0  0  0  0  0  0  0  0
  189.5060  177.9220  141.7850 C   0  0  0  0  0  0  0  0  0  0  0  0
  191.4180  179.6350  144.0110 C   0  0  0  0  0  1  0  0  0  0  0  0
  189.6290  178.1960  143.1850 N   0  0  0  0  0  0  0  0  0  0  0  0
  187.7760  177.1630  146.1690 N   0  0  0  0  0  2  0  0  0  0  0  0
  185.4260  178.2380  143.4560 O   0  0  0  0  0  1  0  0  0  0  0  0
  191.9410  176.7520  139.2750 C   0  0  0  0  0  3  0  0  0  0  0  0
  190.7240  177.1290  139.8540 C   0  0  0  0  0  0  0  0  0  0  0  0
  186.4420  177.5560  142.7790 C   0  0  2  0  0  3  0  0  0  0  0  0
  185.0850  178.7770  138.3440 C   0  0  0  0  0  2  0  0  0  0  0  0
  183.1930  177.2870  138.9100 C   0  0  0  0  0  1  0  0  0  0  0  0
  184.2830  177.5680  137.8980 C   0  0  0  0  0  2  0  0  0  0  0  0
  1  4  1  0  0  0  0
  2 19  1  0  0  0  0
  3 10  1  0  0  0  0
  4 12  1  0  0  0  0
  4 20  2  0  0  0  0
  5 11  1  0  0  0  0
  5  1  1  0  0  0  0
  7  9  1  0  0  0  0
  7 15  1  1  0  0  0
  8  6  2  0  0  0  0
  9 14  1  1  0  0  0
 10 21  1  6  0  0  0
 11  8  1  0  0  0  0
 12  8  1  6  0  0  0
 12 27  1  0  0  0  0
 13  2  2  0  0  0  0
 13 18  1  0  0  0  0
 14 23  1  0  0  0  0
 15 23  1  0  0  0  0
 16  2  1  0  0  0  0
 17 20  1  0  0  0  0
 17  3  1  0  0  0  0
 18 25  2  0  0  0  0
 19  1  2  0  0  0  0
 19 26  1  0  0  0  0
 20 22  1  0  0  0  0
 22 10  1  0  0  0  0
 22  9  1  0  0  0  0
 25 26  1  0  0  0  0
 26 17  2  0  0  0  0
 27 24  1  1  0  0  0
 27  7  1  0  0  0  0
 28 11  1  0  0  0  0
 30 28  1  0  0  0  0
 30 29  1  0  0  0  0
M  END
>  <MODEL>
6

>  <REMARK>
 VINA RESULT:      -6.7      3.534      7.579
  Name = 
  2 active torsions:
  status: ('A' for Active; 'I' for Inactive)
    1  A    between atoms: N_11  and  C_28
    2  A    between atoms: C_28  and  C_30
                            x       y       z     vdW  Elec       q    Type
                         _______ _______ _______ _____ _____    ______ ____

>  <TORSDO>
F 2

$$$$
=
 OpenBabel11122410233D

 30 35  0  0  1  0  0  0  0  0999 V2000
  187.7210  177.6270  141.7480 C   0  0  0  0  0  0  0  0  0  0  0  0
  187.3900  177.5490  144.2300 C   0  0  0  0  0  0  0  0  0  0  0  0
  183.4070  179.0530  141.1200 S   0  0  0  0  0  0  0  0  0  0  0  0
  187.1960  177.9370  140.4680 C   0  0  0  0  0  0  0  0  0  0  0  0
  189.0980  177.0210  141.8220 C   0  0  0  0  0  2  0  0  0  0  0  0
  190.3430  178.3660  138.6670 O   0  0  0  0  0  0  0  0  0  0  0  0
  186.2260  176.6080  138.0320 C   0  0  1  0  0  3  0  0  0  0  0  0
  189.5360  177.9730  139.5530 C   0  0  0  0  0  0  0  0  0  0  0  0
  185.5990  177.9670  137.8390 C   0  0  1  0  0  3  0  0  0  0  0  0
  183.7840  179.0370  139.3250 C   0  0  1  0  0  3  0  0  0  0  0  0
  190.0050  177.6420  140.8660 N   0  0  0  0  0  0  0  0  0  0  0  0
  188.0710  177.8790  139.2310 C   0  0  1  0  0  3  0  0  0  0  0  0
  186.5540  177.7530  145.3290 C   0  0  0  0  0  3  0  0  0  0  0  0
  184.4700  177.6990  136.8650 C   0  0  0  0  0  2  0  0  0  0  0  0
  185.8670  175.8120  136.7920 C   0  0  0  0  0  2  0  0  0  0  0  0
  188.6800  177.0960  144.4770 O   0  0  0  0  0  1  0  0  0  0  0  0
  185.0830  178.5400  141.4800 C   0  0  0  0  0  0  0  0  0  0  0  0
  185.2520  178.2150  145.1600 C   0  0  0  0  0  3  0  0  0  0  0  0
  186.9200  177.8100  142.9130 C   0  0  0  0  0  0  0  0  0  0  0  0
  185.8520  178.3460  140.3580 C   0  0  0  0  0  0  0  0  0  0  0  0
  183.7010  180.4520  138.7840 C   0  0  0  0  0  1  0  0  0  0  0  0
  185.1360  178.5090  139.1290 N   0  0  0  0  0  0  0  0  0  0  0  0
  184.8460  176.5470  136.0520 N   0  0  0  0  0  2  0  0  0  0  0  0
  188.4330  176.8600  137.0910 O   0  0  0  0  0  1  0  0  0  0  0  0
  184.7720  178.4800  143.8810 C   0  0  0  0  0  3  0  0  0  0  0  0
  185.5860  178.2870  142.7600 C   0  0  0  0  0  0  0  0  0  0  0  0
  187.7390  176.7030  138.2960 C   0  0  2  0  0  3  0  0  0  0  0  0
  191.4190  177.7080  141.2020 C   0  0  0  0  0  2  0  0  0  0  0  0
  191.6740  178.5750  143.5050 C   0  0  0  0  0  1  0  0  0  0  0  0
  191.6280  177.3240  142.6550 C   0  0  0  0  0  2  0  0  0  0  0  0
  1  5  1  0  0  0  0
  1 19  1  0  0  0  0
  2 16  1  0  0  0  0
  2 13  1  0  0  0  0
  3 17  1  0  0  0  0
  4  1  2  0  0  0  0
  6  8  2  0  0  0  0
  7 15  1  6  0  0  0
  7 27  1  0  0  0  0
  8 11  1  0  0  0  0
  9 14  1  6  0  0  0
  9  7  1  0  0  0  0
  9 22  1  0  0  0  0
 10 21  1  1  0  0  0
 10  3  1  0  0  0  0
 11 28  1  0  0  0  0
 11  5  1  0  0  0  0
 12  8  1  1  0  0  0
 12  4  1  0  0  0  0
 17 26  1  0  0  0  0
 18 13  2  0  0  0  0
 19  2  2  0  0  0  0
 20  4  1  0  0  0  0
 20 17  2  0  0  0  0
 22 10  1  0  0  0  0
 22 20  1  0  0  0  0
 23 15  1  0  0  0  0
 23 14  1  0  0  0  0
 25 18  1  0  0  0  0
 26 19  1  0  0  0  0
 26 25  2  0  0  0  0
 27 24  1  6  0  0  0
 27 12  1  0  0  0  0
 28 30  1  0  0  0  0
 30 29  1  0  0  0  0
M  END
>  <MODEL>
7

>  <REMARK>
 VINA RESULT:      -6.6      2.666      3.607
  Name = 
  2 active torsions:
  status: ('A' for Active; 'I' for Inactive)
    1  A    between atoms: N_11  and  C_28
    2  A    between atoms: C_28  and  C_30
                            x       y       z     vdW  Elec       q    Type
                         _______ _______ _______ _____ _____    ______ ____

>  <TORSDO>
F 2

$$$$
=
 OpenBabel11122410233D

 30 35  0  0  1  0  0  0  0  0999 V2000
  184.8770  178.2170  139.7160 C   0  0  0  0  0  0  0  0  0  0  0  0
  186.2360  178.1600  137.6120 C   0  0  0  0  0  0  0  0  0  0  0  0
  181.2880  176.3400  137.5640 S   0  0  0  0  0  0  0  0  0  0  0  0
  183.6660  177.9010  140.3800 C   0  0  0  0  0  0  0  0  0  0  0  0
  185.9310  178.9710  140.4830 C   0  0  0  0  0  2  0  0  0  0  0  0
  184.9030  177.9020  143.8160 O   0  0  0  0  0  0  0  0  0  0  0  0
  181.2670  179.2070  141.4670 C   0  0  1  0  0  3  0  0  0  0  0  0
  184.8440  178.1660  142.5840 C   0  0  0  0  0  0  0  0  0  0  0  0
  180.7480  177.7950  141.3510 C   0  0  1  0  0  3  0  0  0  0  0  0
  180.4050  176.4700  139.1670 C   0  0  1  0  0  3  0  0  0  0  0  0
  186.0340  178.4950  141.8550 N   0  0  0  0  0  0  0  0  0  0  0  0
  183.5200  178.1070  141.8760 C   0  0  1  0  0  3  0  0  0  0  0  0
  186.3300  177.8190  136.2610 C   0  0  0  0  0  3  0  0  0  0  0  0
  179.2430  177.9730  141.3360 C   0  0  0  0  0  2  0  0  0  0  0  0
  180.1410  180.0060  142.0950 C   0  0  0  0  0  2  0  0  0  0  0  0
  187.3460  178.7450  138.2070 O   0  0  0  0  0  1  0  0  0  0  0  0
  182.7600  177.0240  138.3160 C   0  0  0  0  0  0  0  0  0  0  0  0
  185.2620  177.2190  135.6000 C   0  0  0  0  0  3  0  0  0  0  0  0
  185.0390  177.8990  138.3360 C   0  0  0  0  0  0  0  0  0  0  0  0
  182.6010  177.3480  139.6410 C   0  0  0  0  0  0  0  0  0  0  0  0
  180.0750  175.0760  139.6690 C   0  0  0  0  0  1  0  0  0  0  0  0
  181.2690  177.1540  140.1300 N   0  0  0  0  0  0  0  0  0  0  0  0
  178.9310  179.1910  142.0750 N   0  0  0  0  0  2  0  0  0  0  0  0
  182.3410  179.2440  143.6270 O   0  0  0  0  0  1  0  0  0  0  0  0
  184.0820  176.9530  136.2880 C   0  0  0  0  0  3  0  0  0  0  0  0
  183.9580  177.2810  137.6430 C   0  0  0  0  0  0  0  0  0  0  0  0
  182.5900  179.2730  142.2500 C   0  0  2  0  0  3  0  0  0  0  0  0
  187.3280  178.5760  142.5170 C   0  0  0  0  0  2  0  0  0  0  0  0
  188.0900  176.3920  143.3930 C   0  0  0  0  0  1  0  0  0  0  0  0
  188.1470  177.3370  142.2120 C   0  0  0  0  0  2  0  0  0  0  0  0
  1  4  1  0  0  0  0
  1  5  1  0  0  0  0
  2 16  1  0  0  0  0
  2 19  1  0  0  0  0
  3 17  1  0  0  0  0
  3 10  1  0  0  0  0
  5 11  1  0  0  0  0
  7 15  1  1  0  0  0
  7 27  1  0  0  0  0
  8  6  2  0  0  0  0
  9 14  1  6  0  0  0
  9  7  1  0  0  0  0
 10 21  1  1  0  0  0
 10 22  1  0  0  0  0
 11 28  1  0  0  0  0
 11  8  1  0  0  0  0
 12  4  1  6  0  0  0
 12 27  1  0  0  0  0
 12  8  1  0  0  0  0
 13  2  2  0  0  0  0
 14 23  1  0  0  0  0
 17 20  1  0  0  0  0
 18 13  1  0  0  0  0
 18 25  2  0  0  0  0
 19  1  2  0  0  0  0
 20 22  1  0  0  0  0
 20  4  2  0  0  0  0
 22  9  1  0  0  0  0
 23 15  1  0  0  0  0
 25 26  1  0  0  0  0
 26 17  2  0  0  0  0
 26 19  1  0  0  0  0
 27 24  1  1  0  0  0
 30 28  1  0  0  0  0
 30 29  1  0  0  0  0
M  END
>  <MODEL>
8

>  <REMARK>
 VINA RESULT:      -6.4      2.438      5.209
  Name = 
  2 active torsions:
  status: ('A' for Active; 'I' for Inactive)
    1  A    between atoms: N_11  and  C_28
    2  A    between atoms: C_28  and  C_30
                            x       y       z     vdW  Elec       q    Type
                         _______ _______ _______ _____ _____    ______ ____

>  <TORSDO>
F 2

$$$$
=
 OpenBabel11122410233D

 30 35  0  0  1  0  0  0  0  0999 V2000
  182.5460  178.6510  141.2340 C   0  0  0  0  0  0  0  0  0  0  0  0
  181.2300  178.9900  143.3380 C   0  0  0  0  0  0  0  0  0  0  0  0
  178.9310  179.8230  138.6680 S   0  0  0  0  0  0  0  0  0  0  0  0
  182.6030  178.7220  139.8200 C   0  0  0  0  0  0  0  0  0  0  0  0
  183.7450  178.1060  141.9650 C   0  0  0  0  0  2  0  0  0  0  0  0
  186.2270  178.9250  139.4180 O   0  0  0  0  0  0  0  0  0  0  0  0
  182.6510  176.9670  137.4610 C   0  0  1  0  0  3  0  0  0  0  0  0
  185.1120  178.6670  139.9490 C   0  0  0  0  0  0  0  0  0  0  0  0
  182.2190  178.2540  136.8030 C   0  0  1  0  0  3  0  0  0  0  0  0
  180.0060  179.5100  137.2140 C   0  0  1  0  0  3  0  0  0  0  0  0
  184.9900  178.5800  141.3750 N   0  0  0  0  0  0  0  0  0  0  0  0
  183.9030  178.4770  139.0770 C   0  0  1  0  0  3  0  0  0  0  0  0
  180.0290  179.3550  143.9490 C   0  0  0  0  0  3  0  0  0  0  0  0
  181.5740  177.7900  135.5130 C   0  0  0  0  0  2  0  0  0  0  0  0
  182.7950  175.9600  136.3370 C   0  0  0  0  0  2  0  0  0  0  0  0
  182.2860  178.6230  144.1640 O   0  0  0  0  0  1  0  0  0  0  0  0
  180.2900  179.4280  139.7620 C   0  0  0  0  0  0  0  0  0  0  0  0
  178.9310  179.7440  143.1860 C   0  0  0  0  0  3  0  0  0  0  0  0
  181.3500  179.0080  141.9210 C   0  0  0  0  0  0  0  0  0  0  0  0
  181.4400  179.0660  139.1030 C   0  0  0  0  0  0  0  0  0  0  0  0
  180.2120  180.8090  136.4570 C   0  0  0  0  0  1  0  0  0  0  0  0
  181.2950  178.9960  137.6800 N   0  0  0  0  0  0  0  0  0  0  0  0
  182.1970  176.5280  135.1310 N   0  0  0  0  0  2  0  0  0  0  0  0
  185.0590  177.1170  137.4770 O   0  0  0  0  0  1  0  0  0  0  0  0
  179.0250  179.7720  141.7980 C   0  0  0  0  0  3  0  0  0  0  0  0
  180.2160  179.4130  141.1580 C   0  0  0  0  0  0  0  0  0  0  0  0
  183.9280  177.1500  138.3000 C   0  0  2  0  0  3  0  0  0  0  0  0
  186.1460  178.7430  142.2430 C   0  0  0  0  0  2  0  0  0  0  0  0
  186.1860  178.1760  144.6510 C   0  0  0  0  0  1  0  0  0  0  0  0
  186.2080  177.6080  143.2480 C   0  0  0  0  0  2  0  0  0  0  0  0
  1 19  1  0  0  0  0
  1  5  1  0  0  0  0
  2 13  1  0  0  0  0
  2 16  1  0  0  0  0
  3 17  1  0  0  0  0
  4  1  2  0  0  0  0
  6  8  2  0  0  0  0
  7 15  1  6  0  0  0
  7 27  1  0  0  0  0
  8 11  1  0  0  0  0
  9 14  1  6  0  0  0
  9  7  1  0  0  0  0
  9 22  1  0  0  0  0
 10 21  1  1  0  0  0
 10 22  1  0  0  0  0
 10  3  1  0  0  0  0
 11  5  1  0  0  0  0
 11 28  1  0  0  0  0
 12  4  1  1  0  0  0
 12  8  1  0  0  0  0
 17 26  1  0  0  0  0
 18 13  2  0  0  0  0
 19  2  2  0  0  0  0
 20 17  2  0  0  0  0
 20  4  1  0  0  0  0
 22 20  1  0  0  0  0
 23 14  1  0  0  0  0
 23 15  1  0  0  0  0
 25 18  1  0  0  0  0
 26 25  2  0  0  0  0
 26 19  1  0  0  0  0
 27 24  1  6  0  0  0
 27 12  1  0  0  0  0
 28 30  1  0  0  0  0
 30 29  1  0  0  0  0
M  END
>  <MODEL>
9

>  <REMARK>
 VINA RESULT:      -6.3      2.532      4.191
  Name = 
  2 active torsions:
  status: ('A' for Active; 'I' for Inactive)
    1  A    between atoms: N_11  and  C_28
    2  A    between atoms: C_28  and  C_30
                            x       y       z     vdW  Elec       q    Type
                         _______ _______ _______ _____ _____    ______ ____

>  <TORSDO>
F 2

$$$$
