=
 OpenBabel11122411223D

 37 43  0  0  1  0  0  0  0  0999 V2000
  180.3420  179.3790  138.1300 C   0  0  0  0  0  2  0  0  0  0  0  0
  180.5380  178.8350  143.2320 C   0  0  0  0  0  0  0  0  0  0  0  0
  183.6460  178.5620  140.4130 C   0  0  0  0  0  0  0  0  0  0  0  0
  179.3260  179.4880  136.9900 C   0  0  2  0  0  3  0  0  0  0  0  0
  182.9620  176.1130  137.9710 O   0  0  0  0  0  0  0  0  0  0  0  0
  183.0420  178.9240  142.7300 C   0  0  0  0  0  0  0  0  0  0  0  0
  182.9140  178.2610  139.1330 C   0  0  1  0  0  3  0  0  0  0  0  0
  181.1160  178.0850  135.6790 C   0  0  2  0  0  3  0  0  0  0  0  0
  182.7130  178.6490  141.4110 C   0  0  0  0  0  0  0  0  0  0  0  0
  183.5840  177.3650  138.0760 C   0  0  1  0  0  3  0  0  0  0  0  0
  184.3900  179.1490  143.0400 C   0  0  0  0  0  3  0  0  0  0  0  0
  179.8070  178.8910  135.6530 C   0  0  0  0  0  2  0  0  0  0  0  0
  181.4140  178.3060  140.9910 N   0  0  0  0  0  0  0  0  0  0  0  0
  180.1310  180.2630  142.9080 C   0  0  0  0  0  1  0  0  0  0  0  0
  186.1060  178.5600  139.6940 C   0  0  0  0  0  2  0  0  0  0  0  0
  185.3670  179.0830  142.0240 C   0  0  0  0  0  3  0  0  0  0  0  0
  180.3920  177.9560  141.9730 C   0  0  0  0  0  2  0  0  0  0  0  0
  181.0710  176.8110  136.5470 C   0  0  1  0  0  3  0  0  0  0  0  0
  182.4130  176.0660  136.6780 C   0  0  0  0  0  2  0  0  0  0  0  0
  185.0070  178.7910  140.6930 C   0  0  0  0  0  0  0  0  0  0  0  0
  181.5580  177.7270  139.6620 C   0  0  1  0  0  3  0  0  0  0  0  0
  181.9810  178.8210  143.7930 C   0  0  0  0  0  2  0  0  0  0  0  0
  185.1070  177.2690  138.1770 C   0  0  2  0  0  3  0  0  0  0  0  0
  179.6030  178.3070  144.2980 C   0  0  0  0  0  1  0  0  0  0  0  0
  180.1550  176.8140  137.7800 C   0  0  0  0  0  2  0  0  0  0  0  0
  182.2000  178.9070  135.9950 O   0  0  0  0  0  1  0  0  0  0  0  0
  180.3550  177.9810  138.7590 C   0  0  2  0  0  3  0  0  0  0  0  0
  185.6380  178.5510  138.3750 O   0  0  0  0  0  0  0  0  0  0  0  0
  185.7580  177.3720  135.7400 C   0  0  0  0  0  3  0  0  0  0  0  0
  185.6930  176.6540  136.9440 C   0  0  0  0  0  0  0  0  0  0  0  0
  186.1560  175.3360  136.9890 C   0  0  0  0  0  3  0  0  0  0  0  0
  187.1380  173.4620  135.8910 F   0  0  0  0  0  0  0  0  0  0  0  0
  186.7550  175.4580  134.6460 C   0  0  0  0  0  3  0  0  0  0  0  0
  186.6890  174.7380  135.8430 C   0  0  0  0  0  0  0  0  0  0  0  0
  186.2900  176.7740  134.5940 C   0  0  0  0  0  3  0  0  0  0  0  0
  180.1270  181.7450  136.5480 N   0  0  0  0  0  1  0  0  0  0  0  0
  178.9400  180.9400  136.7710 C   0  0  0  0  0  2  0  0  0  0  0  0
  1 27  1  0  0  0  0
  2 22  1  0  0  0  0
  2 24  1  0  0  0  0
  3 20  2  0  0  0  0
  3  9  1  0  0  0  0
  4 37  1  6  0  0  0
  4  1  1  0  0  0  0
  6 11  1  0  0  0  0
  6 22  1  0  0  0  0
  7 21  1  0  0  0  0
  7  3  1  1  0  0  0
  8 26  1  1  0  0  0
  8 18  1  0  0  0  0
  9  6  2  0  0  0  0
 10  5  1  1  0  0  0
 10 23  1  0  0  0  0
 10  7  1  0  0  0  0
 12  8  1  0  0  0  0
 12  4  1  0  0  0  0
 13  9  1  0  0  0  0
 13 17  1  0  0  0  0
 14  2  1  0  0  0  0
 15 20  1  0  0  0  0
 16 11  2  0  0  0  0
 17  2  1  0  0  0  0
 18 19  1  1  0  0  0
 18 25  1  0  0  0  0
 19  5  1  0  0  0  0
 20 16  1  0  0  0  0
 21 13  1  1  0  0  0
 23 30  1  6  0  0  0
 23 28  1  0  0  0  0
 27 25  1  6  0  0  0
 27 21  1  0  0  0  0
 28 15  1  0  0  0  0
 29 30  1  0  0  0  0
 30 31  2  0  0  0  0
 33 34  2  0  0  0  0
 34 32  1  0  0  0  0
 34 31  1  0  0  0  0
 35 33  1  0  0  0  0
 35 29  2  0  0  0  0
 36 37  1  0  0  0  0
M  END
>  <MODEL>
1

>  <REMARK>
 VINA RESULT:      -6.5      0.000      0.000
  Name = 
  2 active torsions:
  status: ('A' for Active; 'I' for Inactive)
    1  A    between atoms: C_4  and  C_37
    2  A    between atoms: C_23  and  C_30
                            x       y       z     vdW  Elec       q    Type
                         _______ _______ _______ _____ _____    ______ ____

>  <TORSDO>
F 2

$$$$
=
 OpenBabel11122411223D

 37 43  0  0  1  0  0  0  0  0999 V2000
  187.1660  177.4900  139.1170 C   0  0  0  0  0  2  0  0  0  0  0  0
  182.7290  176.5090  136.7260 C   0  0  0  0  0  0  0  0  0  0  0  0
  186.2290  174.1860  136.8800 C   0  0  0  0  0  0  0  0  0  0  0  0
  187.8960  178.6270  139.8340 C   0  0  2  0  0  3  0  0  0  0  0  0
  189.0190  175.9740  135.6780 O   0  0  0  0  0  0  0  0  0  0  0  0
  183.8400  174.2210  136.4880 C   0  0  0  0  0  0  0  0  0  0  0  0
  187.2900  175.1970  137.2190 C   0  0  1  0  0  3  0  0  0  0  0  0
  190.0080  177.5820  138.6760 C   0  0  2  0  0  3  0  0  0  0  0  0
  185.0380  174.8540  136.7830 C   0  0  0  0  0  0  0  0  0  0  0  0
  188.7110  175.0160  136.6540 C   0  0  1  0  0  3  0  0  0  0  0  0
  183.8560  172.8310  136.3090 C   0  0  0  0  0  3  0  0  0  0  0  0
  189.4290  178.5920  139.6810 C   0  0  0  0  0  2  0  0  0  0  0  0
  185.1730  176.2510  136.8840 N   0  0  0  0  0  0  0  0  0  0  0  0
  182.4780  176.5500  138.2240 C   0  0  0  0  0  1  0  0  0  0  0  0
  187.5560  172.0050  136.6470 C   0  0  0  0  0  2  0  0  0  0  0  0
  185.0680  172.1190  136.4230 C   0  0  0  0  0  3  0  0  0  0  0  0
  184.1060  177.1290  136.4140 C   0  0  0  0  0  2  0  0  0  0  0  0
  189.5920  177.8220  137.2110 C   0  0  1  0  0  3  0  0  0  0  0  0
  190.0650  176.7450  136.2160 C   0  0  0  0  0  2  0  0  0  0  0  0
  186.2740  172.7870  136.7140 C   0  0  0  0  0  0  0  0  0  0  0  0
  186.6030  176.5260  136.8130 C   0  0  1  0  0  3  0  0  0  0  0  0
  182.6130  175.0510  136.2200 C   0  0  0  0  0  2  0  0  0  0  0  0
  189.0620  173.5910  136.2240 C   0  0  2  0  0  3  0  0  0  0  0  0
  181.6620  177.3390  136.0450 C   0  0  0  0  0  1  0  0  0  0  0  0
  188.2160  178.4540  136.9480 C   0  0  0  0  0  2  0  0  0  0  0  0
  189.7630  176.2720  139.0920 O   0  0  0  0  0  1  0  0  0  0  0  0
  187.0210  177.7550  137.6140 C   0  0  2  0  0  3  0  0  0  0  0  0
  188.6350  172.6930  137.2120 O   0  0  0  0  0  0  0  0  0  0  0  0
  191.0310  172.9520  134.7800 C   0  0  0  0  0  3  0  0  0  0  0  0
  190.5340  173.4430  135.9970 C   0  0  0  0  0  0  0  0  0  0  0  0
  191.4240  173.7740  137.0240 C   0  0  0  0  0  3  0  0  0  0  0  0
  193.6590  173.9470  137.8340 F   0  0  0  0  0  0  0  0  0  0  0  0
  193.2920  173.1370  135.6220 C   0  0  0  0  0  3  0  0  0  0  0  0
  192.8000  173.6230  136.8370 C   0  0  0  0  0  0  0  0  0  0  0  0
  192.4090  172.8000  134.5940 C   0  0  0  0  0  3  0  0  0  0  0  0
  188.3360  177.6200  142.0070 N   0  0  0  0  0  1  0  0  0  0  0  0
  187.5480  178.6230  141.3120 C   0  0  0  0  0  2  0  0  0  0  0  0
  1  4  1  0  0  0  0
  2 14  1  0  0  0  0
  4 37  1  1  0  0  0
  5 19  1  0  0  0  0
  6  9  2  0  0  0  0
  7  3  1  6  0  0  0
  8 26  1  1  0  0  0
  8 12  1  0  0  0  0
  9  3  1  0  0  0  0
  9 13  1  0  0  0  0
 10  5  1  6  0  0  0
 10  7  1  0  0  0  0
 11 16  2  0  0  0  0
 11  6  1  0  0  0  0
 12  4  1  0  0  0  0
 15 20  1  0  0  0  0
 15 28  1  0  0  0  0
 16 20  1  0  0  0  0
 17  2  1  0  0  0  0
 17 13  1  0  0  0  0
 18 19  1  6  0  0  0
 18  8  1  0  0  0  0
 20  3  2  0  0  0  0
 21 13  1  1  0  0  0
 21  7  1  0  0  0  0
 21 27  1  0  0  0  0
 22  6  1  0  0  0  0
 22  2  1  0  0  0  0
 23 30  1  1  0  0  0
 23 10  1  0  0  0  0
 23 28  1  0  0  0  0
 24  2  1  0  0  0  0
 25 18  1  0  0  0  0
 27 25  1  6  0  0  0
 27  1  1  0  0  0  0
 29 30  1  0  0  0  0
 30 31  2  0  0  0  0
 33 34  2  0  0  0  0
 34 31  1  0  0  0  0
 34 32  1  0  0  0  0
 35 29  2  0  0  0  0
 35 33  1  0  0  0  0
 37 36  1  0  0  0  0
M  END
>  <MODEL>
2

>  <REMARK>
 VINA RESULT:      -6.1      4.052      7.574
  Name = 
  2 active torsions:
  status: ('A' for Active; 'I' for Inactive)
    1  A    between atoms: C_4  and  C_37
    2  A    between atoms: C_23  and  C_30
                            x       y       z     vdW  Elec       q    Type
                         _______ _______ _______ _____ _____    ______ ____

>  <TORSDO>
F 2

$$$$
=
 OpenBabel11122411223D

 37 43  0  0  1  0  0  0  0  0999 V2000
  185.0000  174.2480  136.7880 C   0  0  0  0  0  2  0  0  0  0  0  0
  189.7490  176.0410  136.0120 C   0  0  0  0  0  0  0  0  0  0  0  0
  186.7410  177.5090  138.5580 C   0  0  0  0  0  0  0  0  0  0  0  0
  184.0070  173.2410  136.2050 C   0  0  2  0  0  3  0  0  0  0  0  0
  183.7940  178.2610  136.7750 O   0  0  0  0  0  0  0  0  0  0  0  0
  189.1090  177.4380  138.0540 C   0  0  0  0  0  0  0  0  0  0  0  0
  185.4840  176.9470  137.9530 C   0  0  1  0  0  3  0  0  0  0  0  0
  182.2450  175.0760  136.8540 C   0  0  2  0  0  3  0  0  0  0  0  0
  187.7920  177.1030  137.7790 C   0  0  0  0  0  0  0  0  0  0  0  0
  184.1810  177.7640  138.0280 C   0  0  1  0  0  3  0  0  0  0  0  0
  189.3680  178.2050  139.1980 C   0  0  0  0  0  3  0  0  0  0  0  0
  182.5280  173.6500  136.3540 C   0  0  0  0  0  2  0  0  0  0  0  0
  187.3900  176.4260  136.6120 N   0  0  0  0  0  0  0  0  0  0  0  0
  189.8440  174.6570  136.6320 C   0  0  0  0  0  1  0  0  0  0  0  0
  185.8710  178.8910  140.5340 C   0  0  0  0  0  2  0  0  0  0  0  0
  188.3040  178.6190  140.0250 C   0  0  0  0  0  3  0  0  0  0  0  0
  188.3160  176.2790  135.4930 C   0  0  0  0  0  2  0  0  0  0  0  0
  182.7460  176.1970  135.9200 C   0  0  1  0  0  3  0  0  0  0  0  0
  182.5780  177.6250  136.4710 C   0  0  0  0  0  2  0  0  0  0  0  0
  186.9730  178.2740  139.7190 C   0  0  0  0  0  0  0  0  0  0  0  0
  185.9480  176.6100  136.5130 C   0  0  1  0  0  3  0  0  0  0  0  0
  190.1800  177.1060  137.0510 C   0  0  0  0  0  2  0  0  0  0  0  0
  184.1430  178.8250  139.1290 C   0  0  2  0  0  3  0  0  0  0  0  0
  190.7020  176.1020  134.8390 C   0  0  0  0  0  1  0  0  0  0  0  0
  183.9990  175.9210  135.0750 C   0  0  0  0  0  2  0  0  0  0  0  0
  182.6880  175.2390  138.1680 O   0  0  0  0  0  1  0  0  0  0  0  0
  185.2350  175.4370  135.8490 C   0  0  2  0  0  3  0  0  0  0  0  0
  184.6340  178.2720  140.3190 O   0  0  0  0  0  0  0  0  0  0  0  0
  182.3210  180.5240  138.7200 C   0  0  0  0  0  3  0  0  0  0  0  0
  182.7530  179.3400  139.3360 C   0  0  0  0  0  0  0  0  0  0  0  0
  181.8820  178.6410  140.1780 C   0  0  0  0  0  3  0  0  0  0  0  0
  179.7450  178.4350  141.2130 F   0  0  0  0  0  0  0  0  0  0  0  0
  180.1580  180.2950  139.7810 C   0  0  0  0  0  3  0  0  0  0  0  0
  180.5860  179.1160  140.3990 C   0  0  0  0  0  0  0  0  0  0  0  0
  181.0250  181.0000  138.9420 C   0  0  0  0  0  3  0  0  0  0  0  0
  182.9250  171.3080  137.2180 N   0  0  0  0  0  1  0  0  0  0  0  0
  184.2070  171.8780  136.8440 C   0  0  0  0  0  2  0  0  0  0  0  0
  2 14  1  0  0  0  0
  2 22  1  0  0  0  0
  3 20  1  0  0  0  0
  4 12  1  0  0  0  0
  4  1  1  0  0  0  0
  4 37  1  1  0  0  0
  6 11  2  0  0  0  0
  7 10  1  0  0  0  0
  7  3  1  6  0  0  0
  8 26  1  1  0  0  0
  9  6  1  0  0  0  0
  9  3  2  0  0  0  0
 10  5  1  6  0  0  0
 10 23  1  0  0  0  0
 11 16  1  0  0  0  0
 12  8  1  0  0  0  0
 13  9  1  0  0  0  0
 17  2  1  0  0  0  0
 17 13  1  0  0  0  0
 18 25  1  1  0  0  0
 18 19  1  0  0  0  0
 18  8  1  0  0  0  0
 19  5  1  0  0  0  0
 20 16  2  0  0  0  0
 20 15  1  0  0  0  0
 21 13  1  1  0  0  0
 21  7  1  0  0  0  0
 22  6  1  0  0  0  0
 23 30  1  1  0  0  0
 23 28  1  0  0  0  0
 24  2  1  0  0  0  0
 27 25  1  1  0  0  0
 27 21  1  0  0  0  0
 27  1  1  0  0  0  0
 28 15  1  0  0  0  0
 29 35  2  0  0  0  0
 29 30  1  0  0  0  0
 30 31  2  0  0  0  0
 31 34  1  0  0  0  0
 33 34  2  0  0  0  0
 34 32  1  0  0  0  0
 35 33  1  0  0  0  0
 37 36  1  0  0  0  0
M  END
>  <MODEL>
3

>  <REMARK>
 VINA RESULT:      -5.7      3.316      7.254
  Name = 
  2 active torsions:
  status: ('A' for Active; 'I' for Inactive)
    1  A    between atoms: C_4  and  C_37
    2  A    between atoms: C_23  and  C_30
                            x       y       z     vdW  Elec       q    Type
                         _______ _______ _______ _____ _____    ______ ____

>  <TORSDO>
F 2

$$$$
=
 OpenBabel11122411223D

 37 43  0  0  1  0  0  0  0  0999 V2000
  188.3320  176.1670  138.5290 C   0  0  0  0  0  2  0  0  0  0  0  0
  190.2450  177.8700  142.9800 C   0  0  0  0  0  0  0  0  0  0  0  0
  186.2670  177.8990  141.6170 C   0  0  0  0  0  0  0  0  0  0  0  0
  188.7920  175.6740  137.1560 C   0  0  2  0  0  3  0  0  0  0  0  0
  185.9630  179.6240  138.5580 O   0  0  0  0  0  0  0  0  0  0  0  0
  187.7520  177.9940  143.5280 C   0  0  0  0  0  0  0  0  0  0  0  0
  186.4220  177.8060  140.1240 C   0  0  1  0  0  3  0  0  0  0  0  0
  186.6620  176.9640  136.3250 C   0  0  2  0  0  3  0  0  0  0  0  0
  187.5230  177.9200  142.1620 C   0  0  0  0  0  0  0  0  0  0  0  0
  185.4040  178.5190  139.2150 C   0  0  1  0  0  3  0  0  0  0  0  0
  186.6410  178.0210  144.3820 C   0  0  0  0  0  3  0  0  0  0  0  0
  187.8250  176.0110  136.0040 C   0  0  0  0  0  2  0  0  0  0  0  0
  188.5470  177.9880  141.1990 N   0  0  0  0  0  0  0  0  0  0  0  0
  190.4450  176.3650  142.9050 C   0  0  0  0  0  1  0  0  0  0  0  0
  183.7280  178.0570  141.9320 C   0  0  0  0  0  2  0  0  0  0  0  0
  185.3380  177.9820  143.8440 C   0  0  0  0  0  3  0  0  0  0  0  0
  189.8890  178.4160  141.5820 C   0  0  0  0  0  2  0  0  0  0  0  0
  187.0910  178.3840  136.7460 C   0  0  1  0  0  3  0  0  0  0  0  0
  185.9390  179.3070  137.1890 C   0  0  0  0  0  2  0  0  0  0  0  0
  185.1320  177.9160  142.4520 C   0  0  0  0  0  0  0  0  0  0  0  0
  187.8900  178.2660  139.9280 C   0  0  1  0  0  3  0  0  0  0  0  0
  189.1560  178.1960  144.0310 C   0  0  0  0  0  2  0  0  0  0  0  0
  184.0570  178.8320  139.8700 C   0  0  2  0  0  3  0  0  0  0  0  0
  191.5470  178.5000  143.4250 C   0  0  0  0  0  1  0  0  0  0  0  0
  188.4300  178.5410  137.4840 C   0  0  0  0  0  2  0  0  0  0  0  0
  185.7790  176.3810  137.2360 O   0  0  0  0  0  1  0  0  0  0  0  0
  188.6140  177.6610  138.7290 C   0  0  2  0  0  3  0  0  0  0  0  0
  183.6180  177.7070  140.5810 O   0  0  0  0  0  0  0  0  0  0  0  0
  182.5740  178.2980  137.8980 C   0  0  0  0  0  3  0  0  0  0  0  0
  183.0370  179.2230  138.8460 C   0  0  0  0  0  0  0  0  0  0  0  0
  182.5610  180.5370  138.8200 C   0  0  0  0  0  3  0  0  0  0  0  0
  181.1620  182.1990  137.8390 F   0  0  0  0  0  0  0  0  0  0  0  0
  181.1610  180.0010  136.9190 C   0  0  0  0  0  3  0  0  0  0  0  0
  181.6230  180.9260  137.8600 C   0  0  0  0  0  0  0  0  0  0  0  0
  181.6360  178.6870  136.9370 C   0  0  0  0  0  3  0  0  0  0  0  0
  190.4030  173.8810  137.5050 N   0  0  0  0  0  1  0  0  0  0  0  0
  189.0160  174.1730  137.1870 C   0  0  0  0  0  2  0  0  0  0  0  0
  1 27  1  0  0  0  0
  2 24  1  0  0  0  0
  2 22  1  0  0  0  0
  3  9  2  0  0  0  0
  3 20  1  0  0  0  0
  4 37  1  1  0  0  0
  4  1  1  0  0  0  0
  6 22  1  0  0  0  0
  6 11  2  0  0  0  0
  7  3  1  1  0  0  0
  8 18  1  0  0  0  0
  8 26  1  1  0  0  0
  9  6  1  0  0  0  0
 10  5  1  1  0  0  0
 10 23  1  0  0  0  0
 10  7  1  0  0  0  0
 12  8  1  0  0  0  0
 12  4  1  0  0  0  0
 13 17  1  0  0  0  0
 13  9  1  0  0  0  0
 14  2  1  0  0  0  0
 15 20  1  0  0  0  0
 16 11  1  0  0  0  0
 17  2  1  0  0  0  0
 18 19  1  1  0  0  0
 18 25  1  0  0  0  0
 19  5  1  0  0  0  0
 20 16  2  0  0  0  0
 21  7  1  0  0  0  0
 21 13  1  1  0  0  0
 23 30  1  6  0  0  0
 23 28  1  0  0  0  0
 27 25  1  6  0  0  0
 27 21  1  0  0  0  0
 28 15  1  0  0  0  0
 29 30  1  0  0  0  0
 31 30  2  0  0  0  0
 32 34  1  0  0  0  0
 33 35  1  0  0  0  0
 33 34  2  0  0  0  0
 34 31  1  0  0  0  0
 35 29  2  0  0  0  0
 37 36  1  0  0  0  0
M  END
>  <MODEL>
4

>  <REMARK>
 VINA RESULT:      -5.4      3.830      7.176
  Name = 
  2 active torsions:
  status: ('A' for Active; 'I' for Inactive)
    1  A    between atoms: C_4  and  C_37
    2  A    between atoms: C_23  and  C_30
                            x       y       z     vdW  Elec       q    Type
                         _______ _______ _______ _____ _____    ______ ____

>  <TORSDO>
F 2

$$$$
=
 OpenBabel11122411223D

 37 43  0  0  1  0  0  0  0  0999 V2000
  188.8050  173.7390  136.0370 C   0  0  0  0  0  2  0  0  0  0  0  0
  193.6110  175.5200  135.7150 C   0  0  0  0  0  0  0  0  0  0  0  0
  190.5780  176.5490  138.4390 C   0  0  0  0  0  0  0  0  0  0  0  0
  187.8040  172.8910  135.2510 C   0  0  2  0  0  3  0  0  0  0  0  0
  187.6920  177.7100  136.7810 O   0  0  0  0  0  0  0  0  0  0  0  0
  192.9540  176.5120  137.9770 C   0  0  0  0  0  0  0  0  0  0  0  0
  189.3230  176.1480  137.7130 C   0  0  1  0  0  3  0  0  0  0  0  0
  186.0690  174.6130  136.2100 C   0  0  2  0  0  3  0  0  0  0  0  0
  191.6370  176.2720  137.6170 C   0  0  0  0  0  0  0  0  0  0  0  0
  188.0380  176.9700  137.9200 C   0  0  1  0  0  3  0  0  0  0  0  0
  193.2040  177.0360  139.2530 C   0  0  0  0  0  3  0  0  0  0  0  0
  186.3320  173.3040  135.4480 C   0  0  0  0  0  2  0  0  0  0  0  0
  191.2480  175.8450  136.3330 N   0  0  0  0  0  0  0  0  0  0  0  0
  193.6600  174.0400  136.0560 C   0  0  0  0  0  1  0  0  0  0  0  0
  189.6920  177.5440  140.6290 C   0  0  0  0  0  2  0  0  0  0  0  0
  192.1300  177.3110  140.1240 C   0  0  0  0  0  3  0  0  0  0  0  0
  192.1970  175.8930  135.2250 C   0  0  0  0  0  2  0  0  0  0  0  0
  186.6180  175.8790  135.5210 C   0  0  1  0  0  3  0  0  0  0  0  0
  186.4690  177.1780  136.3360 C   0  0  0  0  0  2  0  0  0  0  0  0
  190.7990  177.0670  139.7300 C   0  0  0  0  0  0  0  0  0  0  0  0
  189.8140  176.0840  136.2440 C   0  0  1  0  0  3  0  0  0  0  0  0
  194.0420  176.3520  136.9480 C   0  0  0  0  0  2  0  0  0  0  0  0
  187.9980  177.7990  139.2050 C   0  0  2  0  0  3  0  0  0  0  0  0
  194.5930  175.7810  134.5940 C   0  0  0  0  0  1  0  0  0  0  0  0
  187.8840  175.7390  134.6620 C   0  0  0  0  0  2  0  0  0  0  0  0
  186.4840  174.5070  137.5390 O   0  0  0  0  0  1  0  0  0  0  0  0
  189.0890  175.0810  135.3510 C   0  0  2  0  0  3  0  0  0  0  0  0
  188.4470  177.0130  140.2750 O   0  0  0  0  0  0  0  0  0  0  0  0
  185.6910  178.4850  138.4410 C   0  0  0  0  0  3  0  0  0  0  0  0
  186.6140  178.3000  139.4810 C   0  0  0  0  0  0  0  0  0  0  0  0
  186.2480  178.6140  140.7940 C   0  0  0  0  0  3  0  0  0  0  0  0
  184.6170  179.4030  142.3420 F   0  0  0  0  0  0  0  0  0  0  0  0
  184.0500  179.2820  140.0300 C   0  0  0  0  0  3  0  0  0  0  0  0
  184.9680  179.1020  141.0690 C   0  0  0  0  0  0  0  0  0  0  0  0
  184.4110  178.9750  138.7160 C   0  0  0  0  0  3  0  0  0  0  0  0
  186.7760  170.6840  135.2170 N   0  0  0  0  0  1  0  0  0  0  0  0
  187.9580  171.4260  135.6170 C   0  0  0  0  0  2  0  0  0  0  0  0
  2 14  1  0  0  0  0
  2 22  1  0  0  0  0
  3 20  1  0  0  0  0
  4 12  1  0  0  0  0
  4 37  1  1  0  0  0
  4  1  1  0  0  0  0
  6 11  2  0  0  0  0
  7 10  1  0  0  0  0
  7  3  1  1  0  0  0
  8 26  1  1  0  0  0
  9  6  1  0  0  0  0
  9  3  2  0  0  0  0
 10  5  1  6  0  0  0
 10 23  1  0  0  0  0
 11 16  1  0  0  0  0
 12  8  1  0  0  0  0
 13  9  1  0  0  0  0
 17  2  1  0  0  0  0
 17 13  1  0  0  0  0
 18 25  1  1  0  0  0
 18  8  1  0  0  0  0
 18 19  1  0  0  0  0
 19  5  1  0  0  0  0
 20 16  2  0  0  0  0
 20 15  1  0  0  0  0
 21 13  1  1  0  0  0
 21  7  1  0  0  0  0
 22  6  1  0  0  0  0
 23 30  1  1  0  0  0
 23 28  1  0  0  0  0
 24  2  1  0  0  0  0
 27 25  1  1  0  0  0
 27  1  1  0  0  0  0
 27 21  1  0  0  0  0
 28 15  1  0  0  0  0
 29 35  2  0  0  0  0
 29 30  1  0  0  0  0
 30 31  2  0  0  0  0
 31 34  1  0  0  0  0
 33 34  2  0  0  0  0
 34 32  1  0  0  0  0
 35 33  1  0  0  0  0
 36 37  1  0  0  0  0
M  END
>  <MODEL>
5

>  <REMARK>
 VINA RESULT:      -5.3      4.981      9.324
  Name = 
  2 active torsions:
  status: ('A' for Active; 'I' for Inactive)
    1  A    between atoms: C_4  and  C_37
    2  A    between atoms: C_23  and  C_30
                            x       y       z     vdW  Elec       q    Type
                         _______ _______ _______ _____ _____    ______ ____

>  <TORSDO>
F 2

$$$$
=
 OpenBabel11122411223D

 37 43  0  0  1  0  0  0  0  0999 V2000
  187.8550  177.3600  140.4520 C   0  0  0  0  0  2  0  0  0  0  0  0
  183.4320  177.6660  137.8620 C   0  0  0  0  0  0  0  0  0  0  0  0
  186.7210  175.1310  137.2040 C   0  0  0  0  0  0  0  0  0  0  0  0
  188.6540  178.1090  141.5210 C   0  0  2  0  0  3  0  0  0  0  0  0
  189.6870  176.9680  136.7040 O   0  0  0  0  0  0  0  0  0  0  0  0
  184.3570  175.5120  136.8450 C   0  0  0  0  0  0  0  0  0  0  0  0
  187.8500  175.8640  137.8750 C   0  0  1  0  0  3  0  0  0  0  0  0
  190.7080  177.3460  140.0750 C   0  0  2  0  0  3  0  0  0  0  0  0
  185.5930  175.8940  137.3440 C   0  0  0  0  0  0  0  0  0  0  0  0
  189.2690  175.7640  137.2850 C   0  0  1  0  0  3  0  0  0  0  0  0
  184.2630  174.2740  136.1940 C   0  0  0  0  0  3  0  0  0  0  0  0
  190.1830  177.9930  141.3670 C   0  0  0  0  0  2  0  0  0  0  0  0
  185.8400  177.1520  137.9240 N   0  0  0  0  0  0  0  0  0  0  0  0
  183.1370  177.2080  139.2810 C   0  0  0  0  0  1  0  0  0  0  0  0
  187.8680  173.0560  136.2300 C   0  0  0  0  0  2  0  0  0  0  0  0
  185.4070  173.4620  136.0560 C   0  0  0  0  0  3  0  0  0  0  0  0
  184.8650  178.2300  137.7860 C   0  0  0  0  0  2  0  0  0  0  0  0
  190.3610  178.1140  138.7830 C   0  0  1  0  0  3  0  0  0  0  0  0
  190.7750  177.4090  137.4770 C   0  0  0  0  0  2  0  0  0  0  0  0
  186.6540  173.8780  136.5630 C   0  0  0  0  0  0  0  0  0  0  0  0
  187.2890  177.3070  137.9550 C   0  0  1  0  0  3  0  0  0  0  0  0
  183.2120  176.4890  136.8810 C   0  0  0  0  0  2  0  0  0  0  0  0
  189.5140  174.5500  136.3880 C   0  0  2  0  0  3  0  0  0  0  0  0
  182.4600  178.7720  137.5100 C   0  0  0  0  0  1  0  0  0  0  0  0
  189.0520  178.9170  138.7540 C   0  0  0  0  0  2  0  0  0  0  0  0
  190.3420  176.0000  140.0090 O   0  0  0  0  0  1  0  0  0  0  0  0
  187.7820  178.1400  139.1340 C   0  0  2  0  0  3  0  0  0  0  0  0
  188.9820  173.4080  137.0010 O   0  0  0  0  0  0  0  0  0  0  0  0
  191.4920  174.4400  134.8230 C   0  0  0  0  0  3  0  0  0  0  0  0
  190.9750  174.3590  136.1250 C   0  0  0  0  0  0  0  0  0  0  0  0
  191.8320  174.0690  137.1920 C   0  0  0  0  0  3  0  0  0  0  0  0
  194.0220  173.5900  138.0000 F   0  0  0  0  0  0  0  0  0  0  0  0
  193.7080  173.9530  135.6650 C   0  0  0  0  0  3  0  0  0  0  0  0
  193.1960  173.8680  136.9640 C   0  0  0  0  0  0  0  0  0  0  0  0
  192.8560  174.2370  134.5940 C   0  0  0  0  0  3  0  0  0  0  0  0
  186.8200  177.7170  143.0740 N   0  0  0  0  0  1  0  0  0  0  0  0
  188.2590  177.6250  142.9040 C   0  0  0  0  0  2  0  0  0  0  0  0
  1  4  1  0  0  0  0
  2 14  1  0  0  0  0
  3  9  1  0  0  0  0
  4 37  1  1  0  0  0
  5 19  1  0  0  0  0
  6 22  1  0  0  0  0
  6  9  2  0  0  0  0
  7  3  1  6  0  0  0
  7 21  1  0  0  0  0
  8 26  1  6  0  0  0
  8 12  1  0  0  0  0
  9 13  1  0  0  0  0
 10  5  1  6  0  0  0
 10  7  1  0  0  0  0
 11  6  1  0  0  0  0
 12  4  1  0  0  0  0
 15 20  1  0  0  0  0
 15 28  1  0  0  0  0
 16 11  2  0  0  0  0
 16 20  1  0  0  0  0
 17  2  1  0  0  0  0
 17 13  1  0  0  0  0
 18 19  1  6  0  0  0
 18  8  1  0  0  0  0
 20  3  2  0  0  0  0
 21 13  1  1  0  0  0
 21 27  1  0  0  0  0
 22  2  1  0  0  0  0
 23 30  1  1  0  0  0
 23 28  1  0  0  0  0
 23 10  1  0  0  0  0
 24  2  1  0  0  0  0
 25 18  1  0  0  0  0
 27 25  1  6  0  0  0
 27  1  1  0  0  0  0
 29 30  1  0  0  0  0
 30 31  2  0  0  0  0
 33 34  2  0  0  0  0
 34 31  1  0  0  0  0
 34 32  1  0  0  0  0
 35 29  2  0  0  0  0
 35 33  1  0  0  0  0
 37 36  1  0  0  0  0
M  END
>  <MODEL>
6

>  <REMARK>
 VINA RESULT:      -5.2      3.994      7.671
  Name = 
  2 active torsions:
  status: ('A' for Active; 'I' for Inactive)
    1  A    between atoms: C_4  and  C_37
    2  A    between atoms: C_23  and  C_30
                            x       y       z     vdW  Elec       q    Type
                         _______ _______ _______ _____ _____    ______ ____

>  <TORSDO>
F 2

$$$$
=
 OpenBabel11122411223D

 37 43  0  0  1  0  0  0  0  0999 V2000
  183.8890  175.5410  137.3960 C   0  0  0  0  0  2  0  0  0  0  0  0
  188.5060  177.7790  137.1860 C   0  0  0  0  0  0  0  0  0  0  0  0
  185.5610  178.0480  140.1750 C   0  0  0  0  0  0  0  0  0  0  0  0
  182.9160  174.7530  136.5170 C   0  0  2  0  0  3  0  0  0  0  0  0
  182.4990  179.2100  138.8690 O   0  0  0  0  0  0  0  0  0  0  0  0
  187.9020  178.3060  139.6120 C   0  0  0  0  0  0  0  0  0  0  0  0
  184.3030  177.6650  139.4440 C   0  0  1  0  0  3  0  0  0  0  0  0
  181.1050  176.1220  137.8350 C   0  0  2  0  0  3  0  0  0  0  0  0
  186.5900  178.0130  139.2720 C   0  0  0  0  0  0  0  0  0  0  0  0
  182.9690  178.3200  139.8460 C   0  0  1  0  0  3  0  0  0  0  0  0
  188.1810  178.6260  140.9480 C   0  0  0  0  0  3  0  0  0  0  0  0
  181.4290  174.9900  136.8460 C   0  0  0  0  0  2  0  0  0  0  0  0
  186.1640  177.7780  137.9510 N   0  0  0  0  0  0  0  0  0  0  0  0
  188.6950  176.2730  137.2610 C   0  0  0  0  0  1  0  0  0  0  0  0
  184.7240  178.5710  142.5410 C   0  0  0  0  0  2  0  0  0  0  0  0
  187.1400  178.6490  141.8990 C   0  0  0  0  0  3  0  0  0  0  0  0
  187.0400  178.1000  136.8290 C   0  0  0  0  0  2  0  0  0  0  0  0
  181.5070  177.5310  137.3560 C   0  0  1  0  0  3  0  0  0  0  0  0
  181.3000  178.6530  138.3910 C   0  0  0  0  0  2  0  0  0  0  0  0
  185.8130  178.3570  141.5260 C   0  0  0  0  0  0  0  0  0  0  0  0
  184.7120  177.8980  137.9660 C   0  0  1  0  0  3  0  0  0  0  0  0
  188.9380  178.4230  138.5260 C   0  0  0  0  0  2  0  0  0  0  0  0
  182.9350  178.9100  141.2570 C   0  0  2  0  0  3  0  0  0  0  0  0
  189.3970  178.3150  136.0870 C   0  0  0  0  0  1  0  0  0  0  0  0
  182.7290  177.6550  136.4330 C   0  0  0  0  0  2  0  0  0  0  0  0
  181.6030  175.8280  139.1060 O   0  0  0  0  0  1  0  0  0  0  0  0
  184.0220  177.0000  136.9440 C   0  0  2  0  0  3  0  0  0  0  0  0
  183.5080  177.9970  142.1520 O   0  0  0  0  0  0  0  0  0  0  0  0
  180.7450  180.1240  140.9350 C   0  0  0  0  0  3  0  0  0  0  0  0
  181.5340  179.2300  141.6750 C   0  0  0  0  0  0  0  0  0  0  0  0
  181.0160  178.6490  142.8370 C   0  0  0  0  0  3  0  0  0  0  0  0
  179.2180  178.3840  144.3790 F   0  0  0  0  0  0  0  0  0  0  0  0
  178.9320  179.8380  142.5130 C   0  0  0  0  0  3  0  0  0  0  0  0
  179.7170  178.9500  143.2550 C   0  0  0  0  0  0  0  0  0  0  0  0
  179.4460  180.4260  141.3540 C   0  0  0  0  0  3  0  0  0  0  0  0
  184.2610  173.0280  137.5860 N   0  0  0  0  0  1  0  0  0  0  0  0
  183.2100  173.2670  136.6130 C   0  0  0  0  0  2  0  0  0  0  0  0
  2 14  1  0  0  0  0
  2 22  1  0  0  0  0
  3 20  1  0  0  0  0
  4 37  1  1  0  0  0
  4 12  1  0  0  0  0
  4  1  1  0  0  0  0
  6 11  2  0  0  0  0
  7 10  1  0  0  0  0
  7  3  1  1  0  0  0
  8 26  1  1  0  0  0
  9  6  1  0  0  0  0
  9  3  2  0  0  0  0
 10  5  1  6  0  0  0
 10 23  1  0  0  0  0
 11 16  1  0  0  0  0
 12  8  1  0  0  0  0
 13  9  1  0  0  0  0
 17  2  1  0  0  0  0
 17 13  1  0  0  0  0
 18 25  1  1  0  0  0
 18  8  1  0  0  0  0
 18 19  1  0  0  0  0
 19  5  1  0  0  0  0
 20 16  2  0  0  0  0
 20 15  1  0  0  0  0
 21 13  1  1  0  0  0
 21  7  1  0  0  0  0
 22  6  1  0  0  0  0
 23 30  1  1  0  0  0
 23 28  1  0  0  0  0
 24  2  1  0  0  0  0
 27 25  1  1  0  0  0
 27  1  1  0  0  0  0
 27 21  1  0  0  0  0
 28 15  1  0  0  0  0
 29 35  2  0  0  0  0
 29 30  1  0  0  0  0
 30 31  2  0  0  0  0
 31 34  1  0  0  0  0
 33 34  2  0  0  0  0
 34 32  1  0  0  0  0
 35 33  1  0  0  0  0
 37 36  1  0  0  0  0
M  END
>  <MODEL>
7

>  <REMARK>
 VINA RESULT:      -5.2      3.154      6.877
  Name = 
  2 active torsions:
  status: ('A' for Active; 'I' for Inactive)
    1  A    between atoms: C_4  and  C_37
    2  A    between atoms: C_23  and  C_30
                            x       y       z     vdW  Elec       q    Type
                         _______ _______ _______ _____ _____    ______ ____

>  <TORSDO>
F 2

$$$$
=
 OpenBabel11122411223D

 37 43  0  0  1  0  0  0  0  0999 V2000
  188.1780  177.8160  137.2060 C   0  0  0  0  0  2  0  0  0  0  0  0
  187.5020  177.9780  142.2940 C   0  0  0  0  0  0  0  0  0  0  0  0
  191.0210  177.2620  140.1070 C   0  0  0  0  0  0  0  0  0  0  0  0
  187.3710  177.7860  135.9070 C   0  0  2  0  0  3  0  0  0  0  0  0
  190.6510  174.5130  137.9320 O   0  0  0  0  0  0  0  0  0  0  0  0
  190.0560  177.9510  142.2180 C   0  0  0  0  0  0  0  0  0  0  0  0
  190.5000  176.8010  138.7730 C   0  0  1  0  0  3  0  0  0  0  0  0
  189.2950  176.1820  135.1180 C   0  0  2  0  0  3  0  0  0  0  0  0
  189.9390  177.5030  140.9110 C   0  0  0  0  0  0  0  0  0  0  0  0
  191.2980  175.7550  137.9730 C   0  0  1  0  0  3  0  0  0  0  0  0
  191.3430  178.1920  142.7200 C   0  0  0  0  0  3  0  0  0  0  0  0
  188.0420  177.0010  134.7630 C   0  0  0  0  0  2  0  0  0  0  0  0
  188.7160  177.1280  140.3260 N   0  0  0  0  0  0  0  0  0  0  0  0
  187.2140  179.3540  141.7190 C   0  0  0  0  0  1  0  0  0  0  0  0
  193.5640  177.1150  139.8230 C   0  0  0  0  0  2  0  0  0  0  0  0
  192.4700  177.9690  141.9030 C   0  0  0  0  0  3  0  0  0  0  0  0
  187.5310  176.9360  141.1570 C   0  0  0  0  0  2  0  0  0  0  0  0
  189.0530  175.0420  136.1270 C   0  0  1  0  0  3  0  0  0  0  0  0
  190.3230  174.2970  136.5820 C   0  0  0  0  0  2  0  0  0  0  0  0
  192.3250  177.5030  140.5820 C   0  0  0  0  0  0  0  0  0  0  0  0
  189.0540  176.3690  139.1290 C   0  0  1  0  0  3  0  0  0  0  0  0
  188.8300  178.0150  143.0890 C   0  0  0  0  0  2  0  0  0  0  0  0
  192.7780  175.6460  138.3440 C   0  0  2  0  0  3  0  0  0  0  0  0
  186.3820  177.6190  143.2470 C   0  0  0  0  0  1  0  0  0  0  0  0
  187.9460  175.2310  137.1750 C   0  0  0  0  0  2  0  0  0  0  0  0
  190.3440  177.0210  135.5010 O   0  0  0  0  0  1  0  0  0  0  0  0
  188.0290  176.5180  138.0090 C   0  0  2  0  0  3  0  0  0  0  0  0
  193.3220  176.9330  138.4570 O   0  0  0  0  0  0  0  0  0  0  0  0
  193.6990  175.3380  136.0140 C   0  0  0  0  0  3  0  0  0  0  0  0
  193.5350  174.8570  137.3210 C   0  0  0  0  0  0  0  0  0  0  0  0
  194.0610  173.6090  137.6700 C   0  0  0  0  0  3  0  0  0  0  0  0
  195.2630  171.6410  137.0660 F   0  0  0  0  0  0  0  0  0  0  0  0
  194.9180  173.3330  135.4230 C   0  0  0  0  0  3  0  0  0  0  0  0
  194.7540  172.8490  136.7240 C   0  0  0  0  0  0  0  0  0  0  0  0
  194.3910  174.5770  135.0670 C   0  0  0  0  0  3  0  0  0  0  0  0
  187.1830  180.1280  136.5470 N   0  0  0  0  0  1  0  0  0  0  0  0
  187.0870  179.2000  135.4340 C   0  0  0  0  0  2  0  0  0  0  0  0
  1 27  1  0  0  0  0
  2 22  1  0  0  0  0
  2 24  1  0  0  0  0
  3 20  2  0  0  0  0
  3  9  1  0  0  0  0
  4 37  1  6  0  0  0
  4  1  1  0  0  0  0
  6 11  1  0  0  0  0
  6 22  1  0  0  0  0
  7 21  1  0  0  0  0
  7  3  1  1  0  0  0
  8 26  1  1  0  0  0
  8 18  1  0  0  0  0
  9  6  2  0  0  0  0
 10  5  1  1  0  0  0
 10 23  1  0  0  0  0
 10  7  1  0  0  0  0
 12  8  1  0  0  0  0
 12  4  1  0  0  0  0
 13  9  1  0  0  0  0
 13 17  1  0  0  0  0
 14  2  1  0  0  0  0
 15 20  1  0  0  0  0
 16 11  2  0  0  0  0
 17  2  1  0  0  0  0
 18 19  1  1  0  0  0
 18 25  1  0  0  0  0
 19  5  1  0  0  0  0
 20 16  1  0  0  0  0
 21 13  1  1  0  0  0
 23 30  1  6  0  0  0
 23 28  1  0  0  0  0
 27 25  1  6  0  0  0
 27 21  1  0  0  0  0
 28 15  1  0  0  0  0
 29 30  1  0  0  0  0
 30 31  2  0  0  0  0
 33 34  2  0  0  0  0
 34 32  1  0  0  0  0
 34 31  1  0  0  0  0
 35 33  1  0  0  0  0
 35 29  2  0  0  0  0
 37 36  1  0  0  0  0
M  END
>  <MODEL>
8

>  <REMARK>
 VINA RESULT:      -3.7      5.625      7.805
  Name = 
  2 active torsions:
  status: ('A' for Active; 'I' for Inactive)
    1  A    between atoms: C_4  and  C_37
    2  A    between atoms: C_23  and  C_30
                            x       y       z     vdW  Elec       q    Type
                         _______ _______ _______ _____ _____    ______ ____

>  <TORSDO>
F 2

$$$$
