=
 OpenBabel11122410563D

 31 35  0  0  1  0  0  0  0  0999 V2000
  189.0380  176.9740  141.5470 C   0  0  0  0  0  0  0  0  0  0  0  0
  185.9490  178.2960  143.3750 C   0  0  0  0  0  0  0  0  0  0  0  0
  186.2050  178.1990  144.7730 C   0  0  0  0  0  0  0  0  0  0  0  0
  187.6870  177.7450  146.6560 C   0  0  0  0  0  0  0  0  0  0  0  0
  186.9700  178.0100  142.3140 C   0  0  0  0  0  0  0  0  0  0  0  0
  188.8170  177.4630  140.2590 C   0  0  0  0  0  3  0  0  0  0  0  0
  187.4610  177.8280  145.2800 C   0  0  0  0  0  3  0  0  0  0  0  0
  184.3240  178.8190  141.4880 C   0  0  2  0  0  3  0  0  0  0  0  0
  190.1720  176.2210  141.8180 O   0  0  0  0  0  1  0  0  0  0  0  0
  183.9190  178.9070  145.2470 C   0  0  0  0  0  3  0  0  0  0  0  0
  189.0250  177.3440  147.1650 C   0  0  0  0  0  1  0  0  0  0  0  0
  185.5320  179.2980  140.6840 C   0  0  0  0  0  2  0  0  0  0  0  0
  184.6650  178.7240  142.9510 C   0  0  0  0  0  0  0  0  0  0  0  0
  188.1200  177.2440  142.5640 C   0  0  0  0  0  3  0  0  0  0  0  0
  186.6590  178.0380  147.5530 C   0  0  0  0  0  3  0  0  0  0  0  0
  186.7470  178.4780  140.9990 C   0  0  0  0  0  0  0  0  0  0  0  0
  187.6730  178.2150  139.9860 C   0  0  0  0  0  3  0  0  0  0  0  0
  183.6670  179.0160  143.8830 C   0  0  0  0  0  3  0  0  0  0  0  0
  185.1730  178.5050  145.6990 C   0  0  0  0  0  0  0  0  0  0  0  0
  185.4040  178.4190  147.0740 C   0  0  0  0  0  3  0  0  0  0  0  0
  182.2580  178.3900  139.5480 O   0  0  0  0  0  0  0  0  0  0  0  0
  182.8100  177.3750  140.0550 C   0  0  0  0  0  0  0  0  0  0  0  0
  183.8820  177.5230  140.9860 N   0  0  0  0  0  2  0  0  0  0  0  0
  181.0500  175.3460  137.0060 C   0  0  1  0  0  3  0  0  0  0  0  0
  183.1680  175.4400  138.5070 C   0  0  0  0  0  2  0  0  0  0  0  0
  180.1070  176.0800  140.4620 O   0  0  0  0  0  0  0  0  0  0  0  0
  180.2620  175.6290  135.7450 C   0  0  0  0  0  1  0  0  0  0  0  0
  182.6610  176.1800  136.9220 S   0  0  0  0  0  0  0  0  0  0  0  0
  180.8680  175.9420  139.4690 C   0  0  0  0  0  0  0  0  0  0  0  0
  182.3580  175.9980  139.6780 C   0  0  2  0  0  3  0  0  0  0  0  0
  180.2950  175.8030  138.1650 N   0  0  0  0  0  2  0  0  0  0  0  0
  1  9  1  0  0  0  0
  1 14  1  0  0  0  0
  2  3  1  0  0  0  0
  3  7  2  0  0  0  0
  3 19  1  0  0  0  0
  4 11  1  0  0  0  0
  4 15  2  0  0  0  0
  5 14  2  0  0  0  0
  5  2  1  0  0  0  0
  6  1  2  0  0  0  0
  7  4  1  0  0  0  0
  8 23  1  6  0  0  0
  8 13  1  0  0  0  0
 10 19  1  0  0  0  0
 12 16  1  0  0  0  0
 12  8  1  0  0  0  0
 13  2  2  0  0  0  0
 13 18  1  0  0  0  0
 16  5  1  0  0  0  0
 17  6  1  0  0  0  0
 17 16  2  0  0  0  0
 18 10  2  0  0  0  0
 19 20  2  0  0  0  0
 20 15  1  0  0  0  0
 21 22  2  0  0  0  0
 22 23  1  0  0  0  0
 24 27  1  6  0  0  0
 24 31  1  0  0  0  0
 25 30  1  0  0  0  0
 28 24  1  0  0  0  0
 28 25  1  0  0  0  0
 29 30  1  0  0  0  0
 29 26  2  0  0  0  0
 30 22  1  6  0  0  0
 31 29  1  0  0  0  0
M  END
>  <MODEL>
1

>  <REMARK>
 VINA RESULT:     -10.6      0.000      0.000
  Name = 
  2 active torsions:
  status: ('A' for Active; 'I' for Inactive)
    1  A    between atoms: C_5  and  C_30
    2  A    between atoms: C_10  and  N_16
                            x       y       z     vdW  Elec       q    Type
                         _______ _______ _______ _____ _____    ______ ____

>  <TORSDO>
F 2

$$$$
=
 OpenBabel11122410563D

 31 35  0  0  1  0  0  0  0  0999 V2000
  190.3970  176.7660  141.8080 C   0  0  0  0  0  0  0  0  0  0  0  0
  187.1670  178.1280  140.2750 C   0  0  0  0  0  0  0  0  0  0  0  0
  186.2240  178.2790  141.3310 C   0  0  0  0  0  0  0  0  0  0  0  0
  185.6270  178.2520  143.6960 C   0  0  0  0  0  0  0  0  0  0  0  0
  188.6050  177.7520  140.4830 C   0  0  0  0  0  0  0  0  0  0  0  0
  191.3080  177.0210  140.7820 C   0  0  0  0  0  3  0  0  0  0  0  0
  186.5710  178.0920  142.6790 C   0  0  0  0  0  3  0  0  0  0  0  0
  187.6850  178.2130  137.7850 C   0  0  2  0  0  3  0  0  0  0  0  0
  190.8240  176.1550  142.9790 O   0  0  0  0  0  1  0  0  0  0  0  0
  184.5000  178.8790  139.7120 C   0  0  0  0  0  3  0  0  0  0  0  0
  186.0220  178.0420  145.1140 C   0  0  0  0  0  1  0  0  0  0  0  0
  189.0980  178.6450  138.1710 C   0  0  0  0  0  2  0  0  0  0  0  0
  186.7420  178.3820  138.9460 C   0  0  0  0  0  0  0  0  0  0  0  0
  189.0560  177.1270  141.6560 C   0  0  0  0  0  3  0  0  0  0  0  0
  184.3150  178.6070  143.3830 C   0  0  0  0  0  3  0  0  0  0  0  0
  189.5340  177.9820  139.4430 C   0  0  0  0  0  0  0  0  0  0  0  0
  190.8780  177.6300  139.6010 C   0  0  0  0  0  3  0  0  0  0  0  0
  185.4200  178.7450  138.6780 C   0  0  0  0  0  3  0  0  0  0  0  0
  184.8870  178.6520  141.0300 C   0  0  0  0  0  0  0  0  0  0  0  0
  183.9460  178.8080  142.0510 C   0  0  0  0  0  3  0  0  0  0  0  0
  188.5050  177.2830  135.2010 O   0  0  0  0  0  0  0  0  0  0  0  0
  188.0720  176.4300  136.0230 C   0  0  0  0  0  0  0  0  0  0  0  0
  187.6990  176.8220  137.3440 N   0  0  0  0  0  2  0  0  0  0  0  0
  185.7390  173.1620  136.6440 C   0  0  1  0  0  3  0  0  0  0  0  0
  186.6930  174.7310  134.8070 C   0  0  0  0  0  2  0  0  0  0  0  0
  189.2230  173.9850  137.3830 O   0  0  0  0  0  0  0  0  0  0  0  0
  184.6710  172.6810  137.6030 C   0  0  0  0  0  1  0  0  0  0  0  0
  185.1990  174.7020  135.8500 S   0  0  0  0  0  0  0  0  0  0  0  0
  188.1010  174.0770  136.8200 C   0  0  0  0  0  0  0  0  0  0  0  0
  187.9550  174.9900  135.6320 C   0  0  2  0  0  3  0  0  0  0  0  0
  186.9870  173.3660  137.3670 N   0  0  0  0  0  2  0  0  0  0  0  0
  1  9  1  0  0  0  0
  2  5  1  0  0  0  0
  2  3  1  0  0  0  0
  3  7  1  0  0  0  0
  4 11  1  0  0  0  0
  5 14  2  0  0  0  0
  6  1  2  0  0  0  0
  7  4  2  0  0  0  0
  8 23  1  1  0  0  0
  8 12  1  0  0  0  0
  8 13  1  0  0  0  0
 10 19  1  0  0  0  0
 12 16  1  0  0  0  0
 13  2  2  0  0  0  0
 14  1  1  0  0  0  0
 15  4  1  0  0  0  0
 16 17  2  0  0  0  0
 16  5  1  0  0  0  0
 17  6  1  0  0  0  0
 18 13  1  0  0  0  0
 18 10  2  0  0  0  0
 19  3  2  0  0  0  0
 19 20  1  0  0  0  0
 20 15  2  0  0  0  0
 21 22  2  0  0  0  0
 22 23  1  0  0  0  0
 24 31  1  0  0  0  0
 24 27  1  1  0  0  0
 25 30  1  0  0  0  0
 25 28  1  0  0  0  0
 28 24  1  0  0  0  0
 29 31  1  0  0  0  0
 29 26  2  0  0  0  0
 30 22  1  1  0  0  0
 30 29  1  0  0  0  0
M  END
>  <MODEL>
2

>  <REMARK>
 VINA RESULT:      -8.3      3.560      5.026
  Name = 
  2 active torsions:
  status: ('A' for Active; 'I' for Inactive)
    1  A    between atoms: C_5  and  C_30
    2  A    between atoms: C_10  and  N_16
                            x       y       z     vdW  Elec       q    Type
                         _______ _______ _______ _____ _____    ______ ____

>  <TORSDO>
F 2

$$$$
=
 OpenBabel11122410563D

 31 35  0  0  1  0  0  0  0  0999 V2000
  187.2550  175.3150  136.8500 C   0  0  0  0  0  0  0  0  0  0  0  0
  190.5520  176.4550  138.4200 C   0  0  0  0  0  0  0  0  0  0  0  0
  191.5960  175.6980  137.8180 C   0  0  0  0  0  0  0  0  0  0  0  0
  192.4110  174.1050  136.1590 C   0  0  0  0  0  0  0  0  0  0  0  0
  189.1180  176.4070  137.9770 C   0  0  0  0  0  0  0  0  0  0  0  0
  186.4040  176.3540  137.2290 C   0  0  0  0  0  3  0  0  0  0  0  0
  191.3670  174.8330  136.7340 C   0  0  0  0  0  3  0  0  0  0  0  0
  189.8170  178.1460  140.1740 C   0  0  2  0  0  3  0  0  0  0  0  0
  186.7640  174.2550  136.1000 O   0  0  0  0  0  1  0  0  0  0  0  0
  193.2100  176.6910  139.3550 C   0  0  0  0  0  3  0  0  0  0  0  0
  192.1370  173.1940  135.0170 C   0  0  0  0  0  1  0  0  0  0  0  0
  188.7480  178.5980  139.1800 C   0  0  0  0  0  2  0  0  0  0  0  0
  190.8810  177.3390  139.4790 C   0  0  0  0  0  0  0  0  0  0  0  0
  188.6000  175.3410  137.2250 C   0  0  0  0  0  3  0  0  0  0  0  0
  193.7090  174.2320  136.6550 C   0  0  0  0  0  3  0  0  0  0  0  0
  188.2400  177.4400  138.3750 C   0  0  0  0  0  0  0  0  0  0  0  0
  186.8960  177.4160  137.9890 C   0  0  0  0  0  3  0  0  0  0  0  0
  192.1960  177.4430  139.9380 C   0  0  0  0  0  3  0  0  0  0  0  0
  192.9250  175.8250  138.3030 C   0  0  0  0  0  0  0  0  0  0  0  0
  193.9650  175.0920  137.7240 C   0  0  0  0  0  3  0  0  0  0  0  0
  190.1670  178.5650  142.9880 O   0  0  0  0  0  0  0  0  0  0  0  0
  189.4560  177.5890  142.6220 C   0  0  0  0  0  0  0  0  0  0  0  0
  189.2000  177.3600  141.2360 N   0  0  0  0  0  2  0  0  0  0  0  0
  186.8470  177.5660  145.7360 C   0  0  1  0  0  3  0  0  0  0  0  0
  187.3540  176.4920  143.4250 C   0  0  0  0  0  2  0  0  0  0  0  0
  190.4320  176.9310  145.4080 O   0  0  0  0  0  0  0  0  0  0  0  0
  186.1540  178.5450  146.6590 C   0  0  0  0  0  1  0  0  0  0  0  0
  186.4210  177.9430  144.0120 S   0  0  0  0  0  0  0  0  0  0  0  0
  189.2360  177.0600  145.0390 C   0  0  0  0  0  0  0  0  0  0  0  0
  188.8590  176.6630  143.6350 C   0  0  2  0  0  3  0  0  0  0  0  0
  188.2870  177.6400  145.9390 N   0  0  0  0  0  2  0  0  0  0  0  0
  1 14  2  0  0  0  0
  1  6  1  0  0  0  0
  2 13  1  0  0  0  0
  3 19  1  0  0  0  0
  3  2  2  0  0  0  0
  4 15  1  0  0  0  0
  4  7  2  0  0  0  0
  5 16  2  0  0  0  0
  5  2  1  0  0  0  0
  6 17  2  0  0  0  0
  7  3  1  0  0  0  0
  8 23  1  1  0  0  0
  9  1  1  0  0  0  0
 10 18  1  0  0  0  0
 11  4  1  0  0  0  0
 12  8  1  0  0  0  0
 13 18  2  0  0  0  0
 13  8  1  0  0  0  0
 14  5  1  0  0  0  0
 15 20  2  0  0  0  0
 16 12  1  0  0  0  0
 17 16  1  0  0  0  0
 19 10  2  0  0  0  0
 20 19  1  0  0  0  0
 22 21  2  0  0  0  0
 23 22  1  0  0  0  0
 24 31  1  0  0  0  0
 24 27  1  1  0  0  0
 25 30  1  0  0  0  0
 25 28  1  0  0  0  0
 28 24  1  0  0  0  0
 29 26  2  0  0  0  0
 29 31  1  0  0  0  0
 30 22  1  6  0  0  0
 30 29  1  0  0  0  0
M  END
>  <MODEL>
3

>  <REMARK>
 VINA RESULT:      -8.0      4.314      8.925
  Name = 
  2 active torsions:
  status: ('A' for Active; 'I' for Inactive)
    1  A    between atoms: C_5  and  C_30
    2  A    between atoms: C_10  and  N_16
                            x       y       z     vdW  Elec       q    Type
                         _______ _______ _______ _____ _____    ______ ____

>  <TORSDO>
F 2

$$$$
=
 OpenBabel11122410563D

 31 35  0  0  1  0  0  0  0  0999 V2000
  191.0290  176.3800  142.9450 C   0  0  0  0  0  0  0  0  0  0  0  0
  187.7360  177.9350  141.7740 C   0  0  0  0  0  0  0  0  0  0  0  0
  186.8710  178.0040  142.9030 C   0  0  0  0  0  0  0  0  0  0  0  0
  186.4370  177.7680  145.2910 C   0  0  0  0  0  0  0  0  0  0  0  0
  189.1750  177.5160  141.8440 C   0  0  0  0  0  0  0  0  0  0  0  0
  191.8740  176.7130  141.8850 C   0  0  0  0  0  3  0  0  0  0  0  0
  187.3050  177.6870  144.2000 C   0  0  0  0  0  3  0  0  0  0  0  0
  188.0840  178.2410  139.2710 C   0  0  2  0  0  3  0  0  0  0  0  0
  191.5200  175.6550  144.0220 O   0  0  0  0  0  1  0  0  0  0  0  0
  185.0550  178.7820  141.4700 C   0  0  0  0  0  3  0  0  0  0  0  0
  186.9220  177.4200  146.6530 C   0  0  0  0  0  1  0  0  0  0  0  0
  189.5310  178.6110  139.5950 C   0  0  0  0  0  2  0  0  0  0  0  0
  187.2270  178.3190  140.5070 C   0  0  0  0  0  0  0  0  0  0  0  0
  189.6900  176.7770  142.9210 C   0  0  0  0  0  3  0  0  0  0  0  0
  185.1150  178.1740  145.1050 C   0  0  0  0  0  3  0  0  0  0  0  0
  190.0360  177.8250  140.7670 C   0  0  0  0  0  0  0  0  0  0  0  0
  191.3790  177.4350  140.7980 C   0  0  0  0  0  3  0  0  0  0  0  0
  185.9000  178.7290  140.3670 C   0  0  0  0  0  3  0  0  0  0  0  0
  185.5260  178.4270  142.7320 C   0  0  0  0  0  0  0  0  0  0  0  0
  184.6620  178.5040  143.8270 C   0  0  0  0  0  3  0  0  0  0  0  0
  188.8250  177.5210  136.5980 O   0  0  0  0  0  0  0  0  0  0  0  0
  188.3710  176.6140  137.3480 C   0  0  0  0  0  0  0  0  0  0  0  0
  188.0340  176.8980  138.7060 N   0  0  0  0  0  2  0  0  0  0  0  0
  190.3940  173.6670  135.4170 C   0  0  1  0  0  3  0  0  0  0  0  0
  189.0670  174.2200  137.5800 C   0  0  0  0  0  2  0  0  0  0  0  0
  187.4700  175.7060  134.6070 O   0  0  0  0  0  0  0  0  0  0  0  0
  191.6590  173.4870  134.6050 C   0  0  0  0  0  1  0  0  0  0  0  0
  190.8090  174.3250  137.0580 S   0  0  0  0  0  0  0  0  0  0  0  0
  188.3440  175.1630  135.3320 C   0  0  0  0  0  0  0  0  0  0  0  0
  188.1880  175.2220  136.8290 C   0  0  2  0  0  3  0  0  0  0  0  0
  189.4890  174.5670  134.7150 N   0  0  0  0  0  2  0  0  0  0  0  0
  1  9  1  0  0  0  0
  2  5  1  0  0  0  0
  2  3  1  0  0  0  0
  3  7  1  0  0  0  0
  4 11  1  0  0  0  0
  5 14  2  0  0  0  0
  6  1  2  0  0  0  0
  7  4  2  0  0  0  0
  8 23  1  1  0  0  0
  8 12  1  0  0  0  0
  8 13  1  0  0  0  0
 10 19  1  0  0  0  0
 12 16  1  0  0  0  0
 13  2  2  0  0  0  0
 14  1  1  0  0  0  0
 15  4  1  0  0  0  0
 16 17  2  0  0  0  0
 16  5  1  0  0  0  0
 17  6  1  0  0  0  0
 18 13  1  0  0  0  0
 18 10  2  0  0  0  0
 19  3  2  0  0  0  0
 19 20  1  0  0  0  0
 20 15  2  0  0  0  0
 21 22  2  0  0  0  0
 22 23  1  0  0  0  0
 24 27  1  6  0  0  0
 24 28  1  0  0  0  0
 26 29  2  0  0  0  0
 28 25  1  0  0  0  0
 29 30  1  0  0  0  0
 30 22  1  1  0  0  0
 30 25  1  0  0  0  0
 31 29  1  0  0  0  0
 31 24  1  0  0  0  0
M  END
>  <MODEL>
4

>  <REMARK>
 VINA RESULT:      -7.9      4.067      5.516
  Name = 
  2 active torsions:
  status: ('A' for Active; 'I' for Inactive)
    1  A    between atoms: C_5  and  C_30
    2  A    between atoms: C_10  and  N_16
                            x       y       z     vdW  Elec       q    Type
                         _______ _______ _______ _____ _____    ______ ____

>  <TORSDO>
F 2

$$$$
=
 OpenBabel11122410563D

 31 35  0  0  1  0  0  0  0  0999 V2000
  188.4300  177.4780  139.1330 C   0  0  0  0  0  0  0  0  0  0  0  0
  185.8120  178.2640  141.8090 C   0  0  0  0  0  0  0  0  0  0  0  0
  186.4430  178.1260  143.0780 C   0  0  0  0  0  0  0  0  0  0  0  0
  188.4200  177.7770  144.4650 C   0  0  0  0  0  0  0  0  0  0  0  0
  186.5370  178.1780  140.4980 C   0  0  0  0  0  0  0  0  0  0  0  0
  187.8160  178.0020  137.9950 C   0  0  0  0  0  3  0  0  0  0  0  0
  187.8240  177.9030  143.2080 C   0  0  0  0  0  3  0  0  0  0  0  0
  183.6900  178.6620  140.4610 C   0  0  2  0  0  3  0  0  0  0  0  0
  189.6750  176.8730  139.0320 O   0  0  0  0  0  1  0  0  0  0  0  0
  184.3020  178.4890  144.1890 C   0  0  0  0  0  3  0  0  0  0  0  0
  189.8820  177.5350  144.5720 C   0  0  0  0  0  1  0  0  0  0  0  0
  184.5730  179.3450  139.4180 C   0  0  0  0  0  2  0  0  0  0  0  0
  184.4210  178.5350  141.7720 C   0  0  0  0  0  0  0  0  0  0  0  0
  187.7930  177.5640  140.3730 C   0  0  0  0  0  3  0  0  0  0  0  0
  187.6430  177.8770  145.6200 C   0  0  0  0  0  3  0  0  0  0  0  0
  185.9160  178.6820  139.3330 C   0  0  0  0  0  0  0  0  0  0  0  0
  186.5600  178.6040  138.0950 C   0  0  0  0  0  3  0  0  0  0  0  0
  183.6820  178.6360  142.9530 C   0  0  0  0  0  3  0  0  0  0  0  0
  185.6690  178.2380  144.2630 C   0  0  0  0  0  0  0  0  0  0  0  0
  186.2700  178.1090  145.5180 C   0  0  0  0  0  3  0  0  0  0  0  0
  180.9920  177.7410  140.1790 O   0  0  0  0  0  0  0  0  0  0  0  0
  181.9210  176.9320  139.9090 C   0  0  0  0  0  0  0  0  0  0  0  0
  183.2850  177.3470  139.9780 N   0  0  0  0  0  2  0  0  0  0  0  0
  179.9710  174.8360  137.0260 C   0  0  1  0  0  3  0  0  0  0  0  0
  182.2780  175.1630  138.1730 C   0  0  0  0  0  2  0  0  0  0  0  0
  179.5330  175.2230  140.6350 O   0  0  0  0  0  0  0  0  0  0  0  0
  178.9490  175.0680  135.9330 C   0  0  0  0  0  1  0  0  0  0  0  0
  181.4120  175.9060  136.7530 S   0  0  0  0  0  0  0  0  0  0  0  0
  180.1270  175.2580  139.5260 C   0  0  0  0  0  0  0  0  0  0  0  0
  181.6080  175.5270  139.5000 C   0  0  2  0  0  3  0  0  0  0  0  0
  179.3660  175.1080  138.3230 N   0  0  0  0  0  2  0  0  0  0  0  0
  1 14  1  0  0  0  0
  2  3  1  0  0  0  0
  3  7  2  0  0  0  0
  3 19  1  0  0  0  0
  4 11  1  0  0  0  0
  4 15  2  0  0  0  0
  5  2  1  0  0  0  0
  6 17  1  0  0  0  0
  6  1  2  0  0  0  0
  7  4  1  0  0  0  0
  8 23  1  6  0  0  0
  8 13  1  0  0  0  0
  9  1  1  0  0  0  0
 10 19  1  0  0  0  0
 12  8  1  0  0  0  0
 13  2  2  0  0  0  0
 13 18  1  0  0  0  0
 14  5  2  0  0  0  0
 16 12  1  0  0  0  0
 16  5  1  0  0  0  0
 17 16  2  0  0  0  0
 18 10  2  0  0  0  0
 19 20  2  0  0  0  0
 20 15  1  0  0  0  0
 22 23  1  0  0  0  0
 22 21  2  0  0  0  0
 24 27  1  6  0  0  0
 24 31  1  0  0  0  0
 25 30  1  0  0  0  0
 28 24  1  0  0  0  0
 28 25  1  0  0  0  0
 29 26  2  0  0  0  0
 30 29  1  0  0  0  0
 30 22  1  6  0  0  0
 31 29  1  0  0  0  0
M  END
>  <MODEL>
5

>  <REMARK>
 VINA RESULT:      -7.9      1.337      1.747
  Name = 
  2 active torsions:
  status: ('A' for Active; 'I' for Inactive)
    1  A    between atoms: C_5  and  C_30
    2  A    between atoms: C_10  and  N_16
                            x       y       z     vdW  Elec       q    Type
                         _______ _______ _______ _____ _____    ______ ____

>  <TORSDO>
F 2

$$$$
