=
 OpenBabel11122410383D

 32 37  0  0  1  0  0  0  0  0999 V2000
  185.7250  179.1910  145.5840 C   0  0  0  0  0  2  0  0  0  0  0  0
  185.6430  178.2100  140.1080 C   0  0  1  0  0  3  0  0  0  0  0  0
  190.4190  177.7270  138.7200 C   0  0  0  0  0  2  0  0  0  0  0  0
  189.7400  177.2950  137.4180 C   0  0  0  0  0  2  0  0  0  0  0  0
  183.8280  178.5070  138.2430 C   0  0  1  0  0  3  0  0  0  0  0  0
  183.7020  177.0640  137.8770 C   0  0  0  0  0  0  0  0  0  0  0  0
  185.0370  178.1650  142.5460 C   0  0  1  0  0  3  0  0  0  0  0  0
  187.3400  177.6890  141.6820 C   0  0  0  0  0  2  0  0  0  0  0  0
  184.3240  175.0190  137.2070 C   0  0  0  0  0  0  0  0  0  0  0  0
  186.9550  177.4780  144.1260 C   0  0  0  0  0  2  0  0  0  0  0  0
  189.4390  178.2530  139.7810 C   0  0  0  0  0  2  0  0  0  0  0  0
  187.0600  178.4610  140.4660 N   0  0  1  0  0  0  0  0  0  0  0  0
  187.9730  177.9630  139.4240 C   0  0  1  0  0  3  0  0  0  0  0  0
  186.2510  178.2970  137.6370 C   0  0  1  0  0  3  0  0  0  0  0  0
  183.4160  174.9100  138.1190 N   0  0  0  0  0  0  0  0  0  0  0  0
  184.8690  179.8390  144.4830 C   0  0  0  0  0  2  0  0  0  0  0  0
  186.5450  178.2370  142.8610 C   0  0  2  0  0  3  0  0  0  0  0  0
  183.0550  176.1820  138.5650 N   0  0  0  0  0  0  0  0  0  0  0  0
  184.1350  178.8180  143.6070 C   0  0  0  0  0  2  0  0  0  0  0  0
  186.0520  177.7130  145.3450 C   0  0  1  0  0  3  0  0  0  0  0  0
  188.6980  178.3210  136.9730 C   0  0  0  0  0  2  0  0  0  0  0  0
  187.6670  178.6280  138.0740 C   0  0  2  0  0  3  0  0  0  0  0  0
  186.0810  176.7800  137.3710 C   0  0  0  0  0  2  0  0  0  0  0  0
  184.7570  178.8190  141.1990 C   0  0  0  0  0  2  0  0  0  0  0  0
  182.8000  178.9330  139.1800 N   0  0  0  0  0  1  0  0  0  0  0  0
  184.9210  173.8450  136.5160 C   0  0  0  0  0  1  0  0  0  0  0  0
  185.2700  178.8040  138.7200 C   0  0  2  0  0  3  0  0  0  0  0  0
  184.6570  176.4450  136.9210 C   0  0  2  0  0  3  0  0  0  0  0  0
  186.6880  177.1280  146.5940 C   0  0  0  0  0  2  0  0  0  0  0  0
  187.8990  177.9030  146.9870 C   0  0  0  0  0  0  0  0  0  0  0  0
  187.9060  178.6280  148.1720 O   0  0  0  0  0  1  0  0  0  0  0  0
  188.9260  177.8780  146.2600 O   0  0  0  0  0  0  0  0  0  0  0  0
  2 12  1  0  0  0  0
  2 24  1  1  0  0  0
  3 11  1  0  0  0  0
  4  3  1  0  0  0  0
  5 27  1  0  0  0  0
  5 25  1  1  0  0  0
  6  5  1  0  0  0  0
  6 18  2  0  0  0  0
  7 24  1  6  0  0  0
  7 17  1  0  0  0  0
  7 19  1  0  0  0  0
  9 15  2  0  0  0  0
 10 20  1  0  0  0  0
 12  8  1  1  0  0  0
 13 11  1  1  0  0  0
 13 12  1  0  0  0  0
 14 23  1  1  0  0  0
 14 22  1  0  0  0  0
 14 27  1  0  0  0  0
 15 18  1  0  0  0  0
 16  1  1  0  0  0  0
 17  8  1  6  0  0  0
 17 10  1  0  0  0  0
 19 16  1  0  0  0  0
 20  1  1  0  0  0  0
 20 29  1  1  0  0  0
 21  4  1  0  0  0  0
 22 21  1  6  0  0  0
 22 13  1  0  0  0  0
 26  9  1  0  0  0  0
 27  2  1  0  0  0  0
 28  9  1  0  0  0  0
 28 23  1  0  0  0  0
 28  6  1  0  0  0  0
 29 30  1  0  0  0  0
 30 31  1  0  0  0  0
 32 30  2  0  0  0  0
M  END
>  <MODEL>
1

>  <REMARK>
 VINA RESULT:      -8.4      0.000      0.000
  Name = 
  2 active torsions:
  status: ('A' for Active; 'I' for Inactive)
    1  A    between atoms: C_20  and  C_29
    2  A    between atoms: C_29  and  C_30
                            x       y       z     vdW  Elec       q    Type
                         _______ _______ _______ _____ _____    ______ ____

>  <TORSDO>
F 2

$$$$
=
 OpenBabel11122410383D

 32 37  0  0  1  0  0  0  0  0999 V2000
  185.8920  179.3780  145.0900 C   0  0  0  0  0  2  0  0  0  0  0  0
  182.2010  178.3370  141.0600 C   0  0  1  0  0  3  0  0  0  0  0  0
  184.8690  177.6130  136.8970 C   0  0  0  0  0  2  0  0  0  0  0  0
  183.4880  177.1980  136.3790 C   0  0  0  0  0  2  0  0  0  0  0  0
  179.6150  178.6970  140.8360 C   0  0  1  0  0  3  0  0  0  0  0  0
  179.2400  177.2570  140.7010 C   0  0  0  0  0  0  0  0  0  0  0  0
  183.3470  178.3490  143.2960 C   0  0  1  0  0  3  0  0  0  0  0  0
  184.4990  177.7550  141.1510 C   0  0  0  0  0  2  0  0  0  0  0  0
  179.2110  175.1770  139.8700 C   0  0  0  0  0  0  0  0  0  0  0  0
  185.8110  177.5910  143.2530 C   0  0  0  0  0  2  0  0  0  0  0  0
  184.8440  178.1970  138.3180 C   0  0  0  0  0  2  0  0  0  0  0  0
  183.5090  178.5250  140.3880 N   0  0  1  0  0  0  0  0  0  0  0  0
  183.4970  177.9720  139.0240 C   0  0  1  0  0  3  0  0  0  0  0  0
  181.0350  178.3660  138.7960 C   0  0  1  0  0  3  0  0  0  0  0  0
  179.1240  175.1220  141.1570 N   0  0  0  0  0  0  0  0  0  0  0  0
  184.5420  180.0520  144.7970 C   0  0  0  0  0  2  0  0  0  0  0  0
  184.6910  178.3540  142.5390 C   0  0  2  0  0  3  0  0  0  0  0  0
  179.1810  176.4150  141.6800 N   0  0  0  0  0  0  0  0  0  0  0  0
  183.3850  179.0570  144.6600 C   0  0  0  0  0  2  0  0  0  0  0  0
  185.9400  177.8840  144.7540 C   0  0  1  0  0  3  0  0  0  0  0  0
  182.4400  178.2660  136.6880 C   0  0  0  0  0  2  0  0  0  0  0  0
  182.3970  178.6340  138.1820 C   0  0  2  0  0  3  0  0  0  0  0  0
  180.6900  176.8550  138.7680 C   0  0  0  0  0  2  0  0  0  0  0  0
  182.2680  179.0000  142.4390 C   0  0  0  0  0  2  0  0  0  0  0  0
  179.4700  179.1820  142.1990 N   0  0  0  0  0  1  0  0  0  0  0  0
  179.1730  173.9680  139.0040 C   0  0  0  0  0  1  0  0  0  0  0  0
  181.0230  178.9310  140.2360 C   0  0  2  0  0  3  0  0  0  0  0  0
  179.3130  176.5820  139.3780 C   0  0  2  0  0  3  0  0  0  0  0  0
  187.2240  177.2840  145.3000 C   0  0  0  0  0  2  0  0  0  0  0  0
  188.2440  177.1400  144.2230 C   0  0  0  0  0  0  0  0  0  0  0  0
  188.3110  175.9670  143.4810 O   0  0  0  0  0  0  0  0  0  0  0  0
  189.0260  178.0920  143.9640 O   0  0  0  0  0  1  0  0  0  0  0  0
  2 24  1  1  0  0  0
  3 11  1  0  0  0  0
  4 21  1  0  0  0  0
  4  3  1  0  0  0  0
  5 25  1  1  0  0  0
  6  5  1  0  0  0  0
  6 18  2  0  0  0  0
  7 24  1  6  0  0  0
  7 19  1  0  0  0  0
  9 15  2  0  0  0  0
 10 20  1  0  0  0  0
 12  2  1  0  0  0  0
 12  8  1  1  0  0  0
 13 11  1  6  0  0  0
 13 12  1  0  0  0  0
 14 23  1  1  0  0  0
 14 27  1  0  0  0  0
 15 18  1  0  0  0  0
 16  1  1  0  0  0  0
 17  8  1  6  0  0  0
 17 10  1  0  0  0  0
 17  7  1  0  0  0  0
 19 16  1  0  0  0  0
 20  1  1  0  0  0  0
 20 29  1  6  0  0  0
 22 21  1  6  0  0  0
 22 14  1  0  0  0  0
 22 13  1  0  0  0  0
 23 28  1  0  0  0  0
 26  9  1  0  0  0  0
 27  5  1  0  0  0  0
 27  2  1  0  0  0  0
 28  9  1  0  0  0  0
 28  6  1  0  0  0  0
 30 29  1  0  0  0  0
 31 30  2  0  0  0  0
 32 30  1  0  0  0  0
M  END
>  <MODEL>
2

>  <REMARK>
 VINA RESULT:      -7.7      2.975      4.313
  Name = 
  2 active torsions:
  status: ('A' for Active; 'I' for Inactive)
    1  A    between atoms: C_20  and  C_29
    2  A    between atoms: C_29  and  C_30
                            x       y       z     vdW  Elec       q    Type
                         _______ _______ _______ _____ _____    ______ ____

>  <TORSDO>
F 2

$$$$
=
 OpenBabel11122410383D

 32 37  0  0  1  0  0  0  0  0999 V2000
  185.4440  179.6380  144.7080 C   0  0  0  0  0  2  0  0  0  0  0  0
  185.7650  177.9460  139.4180 C   0  0  1  0  0  3  0  0  0  0  0  0
  190.6390  177.6210  138.3660 C   0  0  0  0  0  2  0  0  0  0  0  0
  190.0710  176.9750  137.0980 C   0  0  0  0  0  2  0  0  0  0  0  0
  184.0540  177.8680  137.4350 C   0  0  1  0  0  3  0  0  0  0  0  0
  184.0420  176.3850  137.2610 C   0  0  0  0  0  0  0  0  0  0  0  0
  185.0110  178.1770  141.8040 C   0  0  1  0  0  3  0  0  0  0  0  0
  187.3890  177.7550  141.1360 C   0  0  0  0  0  2  0  0  0  0  0  0
  184.8300  174.3180  136.9070 C   0  0  0  0  0  0  0  0  0  0  0  0
  186.8660  177.8390  143.5620 C   0  0  0  0  0  2  0  0  0  0  0  0
  189.5640  178.2110  139.2920 C   0  0  0  0  0  2  0  0  0  0  0  0
  187.1390  178.3400  139.8140 N   0  0  1  0  0  0  0  0  0  0  0  0
  188.1440  177.7740  138.8990 C   0  0  1  0  0  3  0  0  0  0  0  0
  186.5190  177.7510  136.9940 C   0  0  1  0  0  3  0  0  0  0  0  0
  183.8750  174.2660  137.7750 N   0  0  0  0  0  0  0  0  0  0  0  0
  184.6200  180.0740  143.4860 C   0  0  0  0  0  2  0  0  0  0  0  0
  186.4900  178.3950  142.1860 C   0  0  2  0  0  3  0  0  0  0  0  0
  183.4080  175.5570  138.0260 N   0  0  0  0  0  0  0  0  0  0  0  0
  184.0070  178.8990  142.7170 C   0  0  0  0  0  2  0  0  0  0  0  0
  185.8760  178.1680  144.6880 C   0  0  1  0  0  3  0  0  0  0  0  0
  188.9960  177.8580  136.4650 C   0  0  0  0  0  2  0  0  0  0  0  0
  187.8820  178.2340  137.4570 C   0  0  2  0  0  3  0  0  0  0  0  0
  186.4600  176.2040  136.9260 C   0  0  0  0  0  2  0  0  0  0  0  0
  184.7760  178.6290  140.3680 C   0  0  0  0  0  2  0  0  0  0  0  0
  182.9450  178.3400  138.2500 N   0  0  0  0  0  1  0  0  0  0  0  0
  185.5410  173.1080  136.4130 C   0  0  0  0  0  1  0  0  0  0  0  0
  185.4430  178.3250  137.9440 C   0  0  2  0  0  3  0  0  0  0  0  0
  185.0910  175.7140  136.4490 C   0  0  2  0  0  3  0  0  0  0  0  0
  186.4680  177.7970  146.0370 C   0  0  0  0  0  2  0  0  0  0  0  0
  185.7550  178.4980  147.1420 C   0  0  0  0  0  0  0  0  0  0  0  0
  186.3230  179.6180  147.7350 O   0  0  0  0  0  1  0  0  0  0  0  0
  184.6240  178.0930  147.5180 O   0  0  0  0  0  0  0  0  0  0  0  0
  2 12  1  0  0  0  0
  2 24  1  1  0  0  0
  3 11  1  0  0  0  0
  4  3  1  0  0  0  0
  5 27  1  0  0  0  0
  5 25  1  1  0  0  0
  6  5  1  0  0  0  0
  6 18  2  0  0  0  0
  7 24  1  6  0  0  0
  7 17  1  0  0  0  0
  7 19  1  0  0  0  0
  9 15  2  0  0  0  0
 10 20  1  0  0  0  0
 12  8  1  1  0  0  0
 13 11  1  1  0  0  0
 13 12  1  0  0  0  0
 14 23  1  1  0  0  0
 14 22  1  0  0  0  0
 14 27  1  0  0  0  0
 15 18  1  0  0  0  0
 16  1  1  0  0  0  0
 17  8  1  6  0  0  0
 17 10  1  0  0  0  0
 19 16  1  0  0  0  0
 20  1  1  0  0  0  0
 20 29  1  1  0  0  0
 21  4  1  0  0  0  0
 22 21  1  6  0  0  0
 22 13  1  0  0  0  0
 26  9  1  0  0  0  0
 27  2  1  0  0  0  0
 28  9  1  0  0  0  0
 28 23  1  0  0  0  0
 28  6  1  0  0  0  0
 29 30  1  0  0  0  0
 30 32  2  0  0  0  0
 30 31  1  0  0  0  0
M  END
>  <MODEL>
3

>  <REMARK>
 VINA RESULT:      -7.4      1.071      1.236
  Name = 
  2 active torsions:
  status: ('A' for Active; 'I' for Inactive)
    1  A    between atoms: C_20  and  C_29
    2  A    between atoms: C_29  and  C_30
                            x       y       z     vdW  Elec       q    Type
                         _______ _______ _______ _____ _____    ______ ____

>  <TORSDO>
F 2

$$$$
=
 OpenBabel11122410383D

 32 37  0  0  1  0  0  0  0  0999 V2000
  190.3550  178.3280  143.5540 C   0  0  0  0  0  2  0  0  0  0  0  0
  188.6260  177.2350  138.3810 C   0  0  1  0  0  3  0  0  0  0  0  0
  192.6340  175.5600  135.9100 C   0  0  0  0  0  2  0  0  0  0  0  0
  191.5590  175.2690  134.8600 C   0  0  0  0  0  2  0  0  0  0  0  0
  186.5040  177.9100  137.0000 C   0  0  1  0  0  3  0  0  0  0  0  0
  185.9620  176.5310  136.8100 C   0  0  0  0  0  0  0  0  0  0  0  0
  188.6830  177.4110  140.8860 C   0  0  1  0  0  3  0  0  0  0  0  0
  190.5090  176.3620  139.5290 C   0  0  0  0  0  2  0  0  0  0  0  0
  185.9040  174.3770  136.1980 C   0  0  0  0  0  0  0  0  0  0  0  0
  190.7370  176.3240  142.0020 C   0  0  0  0  0  2  0  0  0  0  0  0
  192.1110  176.3410  137.1270 C   0  0  0  0  0  2  0  0  0  0  0  0
  190.1060  177.1430  138.3540 N   0  0  1  0  0  0  0  0  0  0  0  0
  190.5770  176.4060  137.1700 C   0  0  1  0  0  3  0  0  0  0  0  0
  188.5710  177.0970  135.8390 C   0  0  1  0  0  3  0  0  0  0  0  0
  185.2650  174.5200  137.3110 N   0  0  0  0  0  0  0  0  0  0  0  0
  189.4120  179.1320  142.6430 C   0  0  0  0  0  2  0  0  0  0  0  0
  190.1960  177.1220  140.8120 C   0  0  2  0  0  3  0  0  0  0  0  0
  185.3330  175.8550  137.7140 N   0  0  0  0  0  0  0  0  0  0  0  0
  188.2630  178.2960  142.0720 C   0  0  0  0  0  2  0  0  0  0  0  0
  190.2620  176.8090  143.3780 C   0  0  1  0  0  3  0  0  0  0  0  0
  190.6990  176.5040  134.5940 C   0  0  0  0  0  2  0  0  0  0  0  0
  190.0890  177.0850  135.8810 C   0  0  2  0  0  3  0  0  0  0  0  0
  187.9960  175.6600  135.7620 C   0  0  0  0  0  2  0  0  0  0  0  0
  188.2180  178.0740  139.5960 C   0  0  0  0  0  2  0  0  0  0  0  0
  185.8810  178.6020  138.1180 N   0  0  0  0  0  1  0  0  0  0  0  0
  186.0160  173.0730  135.4910 C   0  0  0  0  0  1  0  0  0  0  0  0
  188.0490  177.8600  137.0780 C   0  0  2  0  0  3  0  0  0  0  0  0
  186.4670  175.6690  135.7090 C   0  0  2  0  0  3  0  0  0  0  0  0
  191.0510  176.1230  144.4800 C   0  0  0  0  0  2  0  0  0  0  0  0
  190.7870  176.7640  145.8000 C   0  0  0  0  0  0  0  0  0  0  0  0
  189.4840  176.8860  146.2650 O   0  0  0  0  0  0  0  0  0  0  0  0
  191.7470  177.1690  146.5070 O   0  0  0  0  0  1  0  0  0  0  0  0
  2 24  1  1  0  0  0
  3 11  1  0  0  0  0
  4  3  1  0  0  0  0
  5 27  1  0  0  0  0
  5 25  1  1  0  0  0
  6  5  1  0  0  0  0
  6 18  2  0  0  0  0
  7 24  1  6  0  0  0
  7 19  1  0  0  0  0
  9 15  2  0  0  0  0
 10 20  1  0  0  0  0
 12  2  1  0  0  0  0
 12  8  1  1  0  0  0
 13 11  1  6  0  0  0
 13 12  1  0  0  0  0
 14 23  1  1  0  0  0
 14 22  1  0  0  0  0
 14 27  1  0  0  0  0
 15 18  1  0  0  0  0
 16  1  1  0  0  0  0
 17  8  1  6  0  0  0
 17  7  1  0  0  0  0
 17 10  1  0  0  0  0
 19 16  1  0  0  0  0
 20  1  1  0  0  0  0
 20 29  1  1  0  0  0
 21  4  1  0  0  0  0
 22 21  1  6  0  0  0
 22 13  1  0  0  0  0
 26  9  1  0  0  0  0
 27  2  1  0  0  0  0
 28 23  1  0  0  0  0
 28  9  1  0  0  0  0
 28  6  1  0  0  0  0
 29 30  1  0  0  0  0
 30 31  2  0  0  0  0
 30 32  1  0  0  0  0
M  END
>  <MODEL>
4

>  <REMARK>
 VINA RESULT:      -7.2      2.630      3.660
  Name = 
  2 active torsions:
  status: ('A' for Active; 'I' for Inactive)
    1  A    between atoms: C_20  and  C_29
    2  A    between atoms: C_29  and  C_30
                            x       y       z     vdW  Elec       q    Type
                         _______ _______ _______ _____ _____    ______ ____

>  <TORSDO>
F 2

$$$$
=
 OpenBabel11122410383D

 32 37  0  0  1  0  0  0  0  0999 V2000
  181.0650  180.0620  139.8500 C   0  0  0  0  0  2  0  0  0  0  0  0
  185.7610  177.8370  137.8650 C   0  0  1  0  0  3  0  0  0  0  0  0
  189.0950  178.1080  141.5780 C   0  0  0  0  0  2  0  0  0  0  0  0
  189.8920  177.2450  140.5950 C   0  0  0  0  0  2  0  0  0  0  0  0
  186.6240  177.2820  135.4540 C   0  0  1  0  0  3  0  0  0  0  0  0
  186.7280  175.8030  135.6320 C   0  0  0  0  0  0  0  0  0  0  0  0
  183.3250  178.2290  138.3380 C   0  0  1  0  0  3  0  0  0  0  0  0
  185.0780  178.0850  140.1230 C   0  0  0  0  0  2  0  0  0  0  0  0
  187.3710  173.8460  136.5140 C   0  0  0  0  0  0  0  0  0  0  0  0
  182.7170  178.3710  140.8400 C   0  0  0  0  0  2  0  0  0  0  0  0
  187.7730  178.6370  141.0010 C   0  0  0  0  0  2  0  0  0  0  0  0
  186.1150  178.4700  139.1590 N   0  0  1  0  0  0  0  0  0  0  0  0
  187.3930  177.9560  139.6770 C   0  0  1  0  0  3  0  0  0  0  0  0
  188.2320  177.4760  137.3670 C   0  0  1  0  0  3  0  0  0  0  0  0
  186.1410  173.7560  136.1290 N   0  0  0  0  0  0  0  0  0  0  0  0
  181.7250  180.2300  138.4720 C   0  0  0  0  0  2  0  0  0  0  0  0
  183.7370  178.7040  139.7470 C   0  0  2  0  0  3  0  0  0  0  0  0
  185.7270  174.9860  135.6150 N   0  0  0  0  0  0  0  0  0  0  0  0
  182.0530  178.8970  137.7910 C   0  0  0  0  0  2  0  0  0  0  0  0
  181.2580  178.6790  140.4800 C   0  0  1  0  0  3  0  0  0  0  0  0
  189.9290  177.8820  139.2070 C   0  0  0  0  0  2  0  0  0  0  0  0
  188.5240  178.2030  138.6680 C   0  0  2  0  0  3  0  0  0  0  0  0
  188.2200  175.9400  137.5690 C   0  0  0  0  0  2  0  0  0  0  0  0
  184.4640  178.4730  137.3560 C   0  0  0  0  0  2  0  0  0  0  0  0
  185.3780  177.6780  134.8160 N   0  0  0  0  0  1  0  0  0  0  0  0
  188.1200  172.7050  137.1040 C   0  0  0  0  0  1  0  0  0  0  0  0
  186.8880  177.9920  136.8040 C   0  0  2  0  0  3  0  0  0  0  0  0
  187.9360  175.2030  136.2570 C   0  0  2  0  0  3  0  0  0  0  0  0
  180.3740  178.5560  141.7100 C   0  0  0  0  0  2  0  0  0  0  0  0
  180.7750  179.5430  142.7530 C   0  0  0  0  0  0  0  0  0  0  0  0
  180.1180  180.7630  142.8460 O   0  0  0  0  0  0  0  0  0  0  0  0
  181.6910  179.2590  143.5690 O   0  0  0  0  0  1  0  0  0  0  0  0
  1 20  1  0  0  0  0
  2 24  1  6  0  0  0
  2 12  1  0  0  0  0
  4  3  1  0  0  0  0
  5 25  1  1  0  0  0
  5  6  1  0  0  0  0
  5 27  1  0  0  0  0
  6 28  1  0  0  0  0
  7 24  1  6  0  0  0
  7 17  1  0  0  0  0
  9 26  1  0  0  0  0
 11  3  1  0  0  0  0
 12 13  1  0  0  0  0
 12  8  1  1  0  0  0
 13 11  1  1  0  0  0
 14 23  1  1  0  0  0
 14 22  1  0  0  0  0
 15  9  2  0  0  0  0
 16  1  1  0  0  0  0
 17  8  1  1  0  0  0
 17 10  1  0  0  0  0
 18  6  2  0  0  0  0
 18 15  1  0  0  0  0
 19  7  1  0  0  0  0
 19 16  1  0  0  0  0
 20 10  1  0  0  0  0
 20 29  1  1  0  0  0
 21  4  1  0  0  0  0
 22 21  1  1  0  0  0
 22 13  1  0  0  0  0
 27 14  1  0  0  0  0
 27  2  1  0  0  0  0
 28  9  1  0  0  0  0
 28 23  1  0  0  0  0
 29 30  1  0  0  0  0
 30 31  2  0  0  0  0
 30 32  1  0  0  0  0
M  END
>  <MODEL>
5

>  <REMARK>
 VINA RESULT:      -6.5      3.354      4.853
  Name = 
  2 active torsions:
  status: ('A' for Active; 'I' for Inactive)
    1  A    between atoms: C_20  and  C_29
    2  A    between atoms: C_29  and  C_30
                            x       y       z     vdW  Elec       q    Type
                         _______ _______ _______ _____ _____    ______ ____

>  <TORSDO>
F 2

$$$$
=
 OpenBabel11122410383D

 32 37  0  0  1  0  0  0  0  0999 V2000
  189.0950  178.5670  142.6110 C   0  0  0  0  0  2  0  0  0  0  0  0
  189.4950  176.5000  137.4610 C   0  0  1  0  0  3  0  0  0  0  0  0
  194.3430  175.5260  136.7370 C   0  0  0  0  0  2  0  0  0  0  0  0
  193.7700  174.8700  135.4770 C   0  0  0  0  0  2  0  0  0  0  0  0
  187.9000  176.4950  135.3830 C   0  0  1  0  0  3  0  0  0  0  0  0
  187.7140  175.0160  135.2970 C   0  0  0  0  0  0  0  0  0  0  0  0
  188.6460  176.9790  139.7770 C   0  0  1  0  0  3  0  0  0  0  0  0
  190.9870  176.2320  139.2860 C   0  0  0  0  0  2  0  0  0  0  0  0
  188.2610  172.8510  135.1160 C   0  0  0  0  0  0  0  0  0  0  0  0
  190.3460  176.5390  141.6650 C   0  0  0  0  0  2  0  0  0  0  0  0
  193.2990  176.3000  137.5570 C   0  0  0  0  0  2  0  0  0  0  0  0
  190.8840  176.7530  137.9180 N   0  0  1  0  0  0  0  0  0  0  0  0
  191.8600  176.0120  137.1030 C   0  0  1  0  0  3  0  0  0  0  0  0
  190.3520  176.0560  135.1040 C   0  0  1  0  0  3  0  0  0  0  0  0
  187.2610  172.9710  135.9240 N   0  0  0  0  0  0  0  0  0  0  0  0
  188.4000  179.0170  141.3150 C   0  0  0  0  0  2  0  0  0  0  0  0
  190.1170  177.0430  140.2370 C   0  0  2  0  0  3  0  0  0  0  0  0
  186.9430  174.3230  136.0680 N   0  0  0  0  0  0  0  0  0  0  0  0
  187.6900  177.8740  140.5810 C   0  0  0  0  0  2  0  0  0  0  0  0
  189.3440  177.0580  142.7050 C   0  0  1  0  0  3  0  0  0  0  0  0
  192.8490  175.8310  134.7260 C   0  0  0  0  0  2  0  0  0  0  0  0
  191.7370  176.4020  135.6230 C   0  0  2  0  0  3  0  0  0  0  0  0
  190.1070  174.5260  135.1250 C   0  0  0  0  0  2  0  0  0  0  0  0
  188.5480  177.3580  138.3050 C   0  0  0  0  0  2  0  0  0  0  0  0
  186.8150  177.1500  136.0970 N   0  0  0  0  0  1  0  0  0  0  0  0
  188.8430  171.5350  134.7410 C   0  0  0  0  0  1  0  0  0  0  0  0
  189.3040  176.8160  135.9500 C   0  0  2  0  0  3  0  0  0  0  0  0
  188.7160  174.1720  134.5940 C   0  0  2  0  0  3  0  0  0  0  0  0
  189.8110  176.7100  144.1080 C   0  0  0  0  0  2  0  0  0  0  0  0
  188.7660  177.0500  145.1150 C   0  0  0  0  0  0  0  0  0  0  0  0
  189.1370  177.5200  146.3690 O   0  0  0  0  0  1  0  0  0  0  0  0
  187.5480  176.9410  144.8210 O   0  0  0  0  0  0  0  0  0  0  0  0
  1 20  1  0  0  0  0
  2 12  1  0  0  0  0
  2 24  1  1  0  0  0
  3 11  1  0  0  0  0
  4  3  1  0  0  0  0
  5 27  1  0  0  0  0
  5 25  1  1  0  0  0
  6  5  1  0  0  0  0
  6 18  2  0  0  0  0
  7 24  1  6  0  0  0
  7 17  1  0  0  0  0
  7 19  1  0  0  0  0
  9 15  2  0  0  0  0
 10 20  1  0  0  0  0
 12  8  1  1  0  0  0
 13 11  1  1  0  0  0
 13 12  1  0  0  0  0
 14 23  1  1  0  0  0
 14 22  1  0  0  0  0
 14 27  1  0  0  0  0
 15 18  1  0  0  0  0
 16  1  1  0  0  0  0
 17  8  1  6  0  0  0
 17 10  1  0  0  0  0
 19 16  1  0  0  0  0
 20 29  1  1  0  0  0
 21  4  1  0  0  0  0
 22 21  1  6  0  0  0
 22 13  1  0  0  0  0
 26  9  1  0  0  0  0
 27  2  1  0  0  0  0
 28  9  1  0  0  0  0
 28 23  1  0  0  0  0
 28  6  1  0  0  0  0
 29 30  1  0  0  0  0
 30 31  1  0  0  0  0
 32 30  2  0  0  0  0
M  END
>  <MODEL>
6

>  <REMARK>
 VINA RESULT:      -6.3      3.213      4.736
  Name = 
  2 active torsions:
  status: ('A' for Active; 'I' for Inactive)
    1  A    between atoms: C_20  and  C_29
    2  A    between atoms: C_29  and  C_30
                            x       y       z     vdW  Elec       q    Type
                         _______ _______ _______ _____ _____    ______ ____

>  <TORSDO>
F 2

$$$$
=
 OpenBabel11122410383D

 32 37  0  0  1  0  0  0  0  0999 V2000
  186.8170  176.2580  136.1800 C   0  0  0  0  0  2  0  0  0  0  0  0
  182.4040  177.8380  139.1770 C   0  0  1  0  0  3  0  0  0  0  0  0
  184.1950  179.2990  143.6070 C   0  0  0  0  0  2  0  0  0  0  0  0
  182.7420  179.7550  143.7680 C   0  0  0  0  0  2  0  0  0  0  0  0
  179.8230  177.4500  138.9430 C   0  0  1  0  0  3  0  0  0  0  0  0
  179.4370  178.8810  138.7630 C   0  0  0  0  0  0  0  0  0  0  0  0
  183.9720  177.4950  137.2430 C   0  0  1  0  0  3  0  0  0  0  0  0
  184.6780  178.4600  139.4460 C   0  0  0  0  0  2  0  0  0  0  0  0
  179.2550  181.0670  139.2190 C   0  0  0  0  0  0  0  0  0  0  0  0
  186.3820  178.3160  137.6460 C   0  0  0  0  0  2  0  0  0  0  0  0
  184.4500  178.4920  142.3240 C   0  0  0  0  0  2  0  0  0  0  0  0
  183.5520  177.7970  140.1150 N   0  0  1  0  0  0  0  0  0  0  0  0
  183.2720  178.5630  141.3400 C   0  0  1  0  0  3  0  0  0  0  0  0
  180.8110  178.1450  141.1390 C   0  0  1  0  0  3  0  0  0  0  0  0
  179.4260  180.9110  137.9490 N   0  0  0  0  0  0  0  0  0  0  0  0
  185.4310  175.6040  136.3070 C   0  0  0  0  0  2  0  0  0  0  0  0
  185.1390  177.6500  138.2410 C   0  0  2  0  0  3  0  0  0  0  0  0
  179.5790  179.5510  137.6680 N   0  0  0  0  0  0  0  0  0  0  0  0
  184.2760  176.5770  136.0480 C   0  0  0  0  0  2  0  0  0  0  0  0
  186.8050  177.7880  136.2680 C   0  0  1  0  0  3  0  0  0  0  0  0
  181.7690  178.6230  143.4370 C   0  0  0  0  0  2  0  0  0  0  0  0
  182.0230  178.0160  142.0460 C   0  0  2  0  0  3  0  0  0  0  0  0
  180.4760  179.6300  140.8510 C   0  0  0  0  0  2  0  0  0  0  0  0
  182.7410  176.9630  137.9660 C   0  0  0  0  0  2  0  0  0  0  0  0
  179.9490  176.7460  137.6760 N   0  0  0  0  0  1  0  0  0  0  0  0
  179.0530  182.3980  139.8500 C   0  0  0  0  0  1  0  0  0  0  0  0
  181.0820  177.3540  139.8390 C   0  0  2  0  0  3  0  0  0  0  0  0
  179.2490  179.7630  139.9450 C   0  0  2  0  0  3  0  0  0  0  0  0
  188.1760  178.3260  135.8950 C   0  0  0  0  0  2  0  0  0  0  0  0
  188.9930  178.5910  137.1130 C   0  0  0  0  0  0  0  0  0  0  0  0
  189.7120  177.5600  137.7050 O   0  0  0  0  0  1  0  0  0  0  0  0
  189.0550  179.7540  137.5900 O   0  0  0  0  0  0  0  0  0  0  0  0
  1 20  1  0  0  0  0
  1 16  1  0  0  0  0
  2 24  1  6  0  0  0
  2 27  1  0  0  0  0
  2 12  1  0  0  0  0
  3  4  1  0  0  0  0
  5 25  1  6  0  0  0
  5 27  1  0  0  0  0
  6  5  1  0  0  0  0
  6 28  1  0  0  0  0
  7 19  1  6  0  0  0
  7 24  1  0  0  0  0
  7 17  1  0  0  0  0
  9 26  1  0  0  0  0
  9 28  1  0  0  0  0
 11  3  1  0  0  0  0
 12  8  1  6  0  0  0
 12 13  1  0  0  0  0
 13 22  1  0  0  0  0
 13 11  1  1  0  0  0
 14 23  1  6  0  0  0
 14 22  1  0  0  0  0
 15  9  2  0  0  0  0
 17 10  1  6  0  0  0
 17  8  1  0  0  0  0
 18 15  1  0  0  0  0
 18  6  2  0  0  0  0
 19 16  1  0  0  0  0
 20 29  1  1  0  0  0
 20 10  1  0  0  0  0
 21  4  1  0  0  0  0
 22 21  1  1  0  0  0
 27 14  1  0  0  0  0
 28 23  1  0  0  0  0
 29 30  1  0  0  0  0
 30 32  2  0  0  0  0
 30 31  1  0  0  0  0
M  END
>  <MODEL>
7

>  <REMARK>
 VINA RESULT:      -6.2      3.570      7.344
  Name = 
  2 active torsions:
  status: ('A' for Active; 'I' for Inactive)
    1  A    between atoms: C_20  and  C_29
    2  A    between atoms: C_29  and  C_30
                            x       y       z     vdW  Elec       q    Type
                         _______ _______ _______ _____ _____    ______ ____

>  <TORSDO>
F 2

$$$$
=
 OpenBabel11122410383D

 32 37  0  0  1  0  0  0  0  0999 V2000
  187.3800  175.7970  136.1730 C   0  0  0  0  0  2  0  0  0  0  0  0
  182.5120  178.0020  137.7220 C   0  0  1  0  0  3  0  0  0  0  0  0
  182.7960  178.6360  142.6710 C   0  0  0  0  0  2  0  0  0  0  0  0
  181.4820  179.3750  142.4040 C   0  0  0  0  0  2  0  0  0  0  0  0
  180.1650  178.1970  136.5740 C   0  0  1  0  0  3  0  0  0  0  0  0
  180.1160  179.6880  136.5080 C   0  0  0  0  0  0  0  0  0  0  0  0
  184.5920  177.5100  136.4010 C   0  0  1  0  0  3  0  0  0  0  0  0
  184.6040  178.0970  138.8370 C   0  0  0  0  0  2  0  0  0  0  0  0
  180.1490  181.8110  137.2220 C   0  0  0  0  0  0  0  0  0  0  0  0
  186.7950  177.7580  137.7180 C   0  0  0  0  0  2  0  0  0  0  0  0
  183.3590  177.9140  141.4360 C   0  0  0  0  0  2  0  0  0  0  0  0
  183.2190  177.6320  138.9720 N   0  0  1  0  0  0  0  0  0  0  0  0
  182.6470  178.3250  140.1380 C   0  0  1  0  0  3  0  0  0  0  0  0
  180.3920  178.4610  139.0560 C   0  0  1  0  0  3  0  0  0  0  0  0
  180.7400  181.7380  136.0760 N   0  0  0  0  0  0  0  0  0  0  0  0
  185.9530  175.4450  135.7200 C   0  0  0  0  0  2  0  0  0  0  0  0
  185.3270  177.3200  137.7440 C   0  0  2  0  0  3  0  0  0  0  0  0
  180.7540  180.4100  135.6470 N   0  0  0  0  0  0  0  0  0  0  0  0
  185.1500  176.6620  135.2470 C   0  0  0  0  0  2  0  0  0  0  0  0
  187.5930  177.2800  136.4980 C   0  0  1  0  0  3  0  0  0  0  0  0
  180.5200  178.5120  141.5880 C   0  0  0  0  0  2  0  0  0  0  0  0
  181.1540  177.9950  140.2850 C   0  0  2  0  0  3  0  0  0  0  0  0
  180.4380  180.0040  138.9150 C   0  0  0  0  0  2  0  0  0  0  0  0
  183.1130  177.1890  136.5710 C   0  0  0  0  0  2  0  0  0  0  0  0
  180.6210  177.6010  135.3280 N   0  0  0  0  0  1  0  0  0  0  0  0
  179.9580  183.0920  137.9540 C   0  0  0  0  0  1  0  0  0  0  0  0
  180.9800  177.7530  137.8140 C   0  0  2  0  0  3  0  0  0  0  0  0
  179.6630  180.4780  137.6830 C   0  0  2  0  0  3  0  0  0  0  0  0
  189.0750  177.5450  136.7000 C   0  0  0  0  0  2  0  0  0  0  0  0
  189.2940  178.5340  137.7930 C   0  0  0  0  0  0  0  0  0  0  0  0
  189.7930  178.1140  139.0200 O   0  0  0  0  0  1  0  0  0  0  0  0
  189.0550  179.7530  137.5960 O   0  0  0  0  0  0  0  0  0  0  0  0
  1 20  1  0  0  0  0
  2 24  1  6  0  0  0
  2 27  1  0  0  0  0
  2 12  1  0  0  0  0
  4  3  1  0  0  0  0
  5 25  1  6  0  0  0
  5 27  1  0  0  0  0
  6  5  1  0  0  0  0
  6 28  1  0  0  0  0
  7 19  1  6  0  0  0
  7 24  1  0  0  0  0
  7 17  1  0  0  0  0
  9 28  1  0  0  0  0
  9 26  1  0  0  0  0
 11  3  1  0  0  0  0
 12  8  1  6  0  0  0
 12 13  1  0  0  0  0
 13 22  1  0  0  0  0
 13 11  1  1  0  0  0
 14 23  1  6  0  0  0
 14 22  1  0  0  0  0
 15  9  2  0  0  0  0
 16  1  1  0  0  0  0
 17 10  1  6  0  0  0
 17  8  1  0  0  0  0
 18 15  1  0  0  0  0
 18  6  2  0  0  0  0
 19 16  1  0  0  0  0
 20 29  1  1  0  0  0
 20 10  1  0  0  0  0
 21  4  1  0  0  0  0
 22 21  1  1  0  0  0
 27 14  1  0  0  0  0
 28 23  1  0  0  0  0
 29 30  1  0  0  0  0
 30 31  1  0  0  0  0
 32 30  2  0  0  0  0
M  END
>  <MODEL>
8

>  <REMARK>
 VINA RESULT:      -6.0      3.607      7.377
  Name = 
  2 active torsions:
  status: ('A' for Active; 'I' for Inactive)
    1  A    between atoms: C_20  and  C_29
    2  A    between atoms: C_29  and  C_30
                            x       y       z     vdW  Elec       q    Type
                         _______ _______ _______ _____ _____    ______ ____

>  <TORSDO>
F 2

$$$$
=
 OpenBabel11122410383D

 32 37  0  0  1  0  0  0  0  0999 V2000
  189.0000  177.6700  136.4470 C   0  0  0  0  0  2  0  0  0  0  0  0
  183.7760  175.7700  136.6640 C   0  0  1  0  0  3  0  0  0  0  0  0
  184.0780  170.8230  136.0230 C   0  0  0  0  0  2  0  0  0  0  0  0
  182.5960  170.9320  136.3950 C   0  0  0  0  0  2  0  0  0  0  0  0
  181.4250  176.9100  136.4690 C   0  0  1  0  0  3  0  0  0  0  0  0
  180.9460  176.5800  137.8450 C   0  0  0  0  0  0  0  0  0  0  0  0
  185.8510  177.0980  137.1590 C   0  0  1  0  0  3  0  0  0  0  0  0
  185.7980  174.5950  137.0600 C   0  0  0  0  0  2  0  0  0  0  0  0
  180.3990  175.3290  139.6200 C   0  0  0  0  0  0  0  0  0  0  0  0
  187.9440  175.6830  137.6750 C   0  0  0  0  0  2  0  0  0  0  0  0
  184.7710  172.1840  135.8470 C   0  0  0  0  0  2  0  0  0  0  0  0
  184.6120  174.6380  136.1960 N   0  0  1  0  0  0  0  0  0  0  0  0
  183.9160  173.3520  136.3620 C   0  0  1  0  0  3  0  0  0  0  0  0
  181.6730  174.4400  136.1230 C   0  0  1  0  0  3  0  0  0  0  0  0
  180.9350  176.4310  140.0260 N   0  0  0  0  0  0  0  0  0  0  0  0
  187.7170  178.2520  135.8310 C   0  0  0  0  0  2  0  0  0  0  0  0
  186.6660  175.8270  136.8420 C   0  0  2  0  0  3  0  0  0  0  0  0
  181.3120  177.1950  138.9210 N   0  0  0  0  0  0  0  0  0  0  0  0
  186.5780  178.4150  136.8440 C   0  0  0  0  0  2  0  0  0  0  0  0
  188.7920  176.9570  137.7870 C   0  0  1  0  0  3  0  0  0  0  0  0
  181.8890  171.9820  135.5380 C   0  0  0  0  0  2  0  0  0  0  0  0
  182.5890  173.3520  135.5890 C   0  0  2  0  0  3  0  0  0  0  0  0
  181.2670  174.1660  137.5930 C   0  0  0  0  0  2  0  0  0  0  0  0
  184.5340  177.0730  136.3930 C   0  0  0  0  0  2  0  0  0  0  0  0
  181.9790  178.2520  136.3810 N   0  0  0  0  0  1  0  0  0  0  0  0
  179.8790  174.2910  140.5510 C   0  0  0  0  0  1  0  0  0  0  0  0
  182.3850  175.8040  135.9690 C   0  0  2  0  0  3  0  0  0  0  0  0
  180.3360  175.2550  138.1320 C   0  0  2  0  0  3  0  0  0  0  0  0
  190.1430  176.6390  138.4050 C   0  0  0  0  0  2  0  0  0  0  0  0
  190.2790  177.2800  139.7430 C   0  0  0  0  0  0  0  0  0  0  0  0
  189.1450  177.6020  140.4790 O   0  0  0  0  0  1  0  0  0  0  0  0
  191.4220  177.5030  140.2220 O   0  0  0  0  0  0  0  0  0  0  0  0
  1 20  1  0  0  0  0
  2 24  1  6  0  0  0
  3  4  1  0  0  0  0
  5 25  1  1  0  0  0
  5  6  1  0  0  0  0
  6 28  1  0  0  0  0
  6 18  2  0  0  0  0
  7 24  1  6  0  0  0
  9 15  2  0  0  0  0
  9 26  1  0  0  0  0
 10 20  1  0  0  0  0
 11  3  1  0  0  0  0
 12 13  1  0  0  0  0
 12  2  1  0  0  0  0
 12  8  1  1  0  0  0
 13 11  1  6  0  0  0
 14 23  1  1  0  0  0
 16  1  1  0  0  0  0
 16 19  1  0  0  0  0
 17  8  1  1  0  0  0
 17  7  1  0  0  0  0
 17 10  1  0  0  0  0
 18 15  1  0  0  0  0
 19  7  1  0  0  0  0
 20 29  1  6  0  0  0
 21  4  1  0  0  0  0
 22 21  1  1  0  0  0
 22 14  1  0  0  0  0
 22 13  1  0  0  0  0
 23 28  1  0  0  0  0
 27 14  1  0  0  0  0
 27  5  1  0  0  0  0
 27  2  1  0  0  0  0
 28  9  1  0  0  0  0
 29 30  1  0  0  0  0
 30 32  2  0  0  0  0
 30 31  1  0  0  0  0
M  END
>  <MODEL>
9

>  <REMARK>
 VINA RESULT:      -6.0      4.446      6.754
  Name = 
  2 active torsions:
  status: ('A' for Active; 'I' for Inactive)
    1  A    between atoms: C_20  and  C_29
    2  A    between atoms: C_29  and  C_30
                            x       y       z     vdW  Elec       q    Type
                         _______ _______ _______ _____ _____    ______ ____

>  <TORSDO>
F 2

$$$$
