=
 OpenBabel11122412043D

 34 41  0  0  1  0  0  0  0  0999 V2000
  187.4330  178.1160  140.1610 C   0  0  0  0  0  0  0  0  0  0  0  0
  185.5470  178.9540  138.7990 N   0  0  0  0  0  2  0  0  0  0  0  0
  190.7140  177.5360  145.3750 C   0  0  2  0  0  3  0  0  0  0  0  0
  189.0270  176.9130  141.5070 C   0  0  0  0  0  0  0  0  0  0  0  0
  188.6910  176.6340  144.0050 C   0  0  1  0  0  3  0  0  0  0  0  0
  189.7860  178.9640  144.0580 C   0  0  0  0  0  2  0  0  0  0  0  0
  191.2010  178.7440  144.5720 C   0  0  0  0  0  2  0  0  0  0  0  0
  191.6970  176.2030  143.7030 C   0  0  0  0  0  2  0  0  0  0  0  0
  185.4230  179.2430  141.1860 C   0  0  2  0  0  3  0  0  0  0  0  0
  182.5720  178.2560  142.4290 C   0  0  0  0  0  2  0  0  0  0  0  0
  187.2080  176.8750  143.7070 C   0  0  0  0  0  2  0  0  0  0  0  0
  190.6350  175.5300  142.8520 C   0  0  0  0  0  2  0  0  0  0  0  0
  185.5540  178.2260  142.3400 C   0  0  1  0  0  3  0  0  0  0  0  0
  184.2310  179.5090  139.1120 C   0  0  0  0  0  2  0  0  0  0  0  0
  189.4520  176.3770  142.7750 N   0  0  0  0  0  0  0  0  0  0  0  0
  191.2710  176.2650  145.0440 O   0  0  0  0  0  0  0  0  0  0  0  0
  183.0270  178.2800  140.9580 C   0  0  1  0  0  3  0  0  0  0  0  0
  187.8350  177.6480  141.4180 C   0  0  0  0  0  0  0  0  0  0  0  0
  189.2910  177.7680  144.8650 C   0  0  2  0  0  3  0  0  0  0  0  0
  187.0370  177.9780  142.6590 C   0  0  2  0  0  3  0  0  0  0  0  0
  189.3350  177.1260  139.1680 C   0  0  0  0  0  3  0  0  0  0  0  0
  183.3770  179.1680  143.3580 C   0  0  0  0  0  2  0  0  0  0  0  0
  189.7480  176.6680  140.3780 N   0  0  0  0  0  0  0  0  0  0  0  0
  184.8060  178.6750  143.6030 C   0  0  0  0  0  2  0  0  0  0  0  0
  184.0150  179.4220  140.6200 C   0  0  1  0  0  3  0  0  0  0  0  0
  188.1840  177.8390  139.0630 N   0  0  0  0  0  0  0  0  0  0  0  0
  186.1990  178.8320  140.0340 N   0  0  0  0  0  0  0  0  0  0  0  0
  183.5470  177.0300  140.6000 O   0  0  0  0  0  0  0  0  0  0  0  0
  182.5190  176.3880  139.9080 C   0  0  0  0  0  2  0  0  0  0  0  0
  183.4280  175.8580  136.4410 N   0  0  0  0  0  0  0  0  0  0  0  0
  183.6650  174.8580  138.3240 O   0  0  0  0  0  0  0  0  0  0  0  0
  183.0140  175.9650  138.5710 C   0  0  0  0  0  0  0  0  0  0  0  0
  183.9170  174.7880  137.0530 N   0  0  0  0  0  0  0  0  0  0  0  0
  182.8410  176.6320  137.3780 C   0  0  0  0  0  3  0  0  0  0  0  0
  1 18  1  0  0  0  0
  2 14  1  0  0  0  0
  2 27  1  0  0  0  0
  3  7  1  6  0  0  0
  4 15  1  0  0  0  0
  5 11  1  6  0  0  0
  5 19  1  0  0  0  0
  6  7  1  0  0  0  0
  8 16  1  0  0  0  0
  9 27  1  6  0  0  0
  9 13  1  0  0  0  0
 10 22  1  0  0  0  0
 12  8  1  0  0  0  0
 13 20  1  0  0  0  0
 13 24  1  1  0  0  0
 15 12  1  0  0  0  0
 15  5  1  0  0  0  0
 16  3  1  0  0  0  0
 17 28  1  1  0  0  0
 17 10  1  0  0  0  0
 18  4  2  0  0  0  0
 18 20  1  0  0  0  0
 19  6  1  6  0  0  0
 19  3  1  0  0  0  0
 20 11  1  1  0  0  0
 21 23  2  0  0  0  0
 22 24  1  0  0  0  0
 23  4  1  0  0  0  0
 25 14  1  6  0  0  0
 25 17  1  0  0  0  0
 25  9  1  0  0  0  0
 26 21  1  0  0  0  0
 26  1  2  0  0  0  0
 27  1  1  0  0  0  0
 29 28  1  0  0  0  0
 30 33  2  0  0  0  0
 30 34  1  0  0  0  0
 31 32  1  0  0  0  0
 32 29  1  0  0  0  0
 33 31  1  0  0  0  0
 34 32  2  0  0  0  0
M  END
>  <MODEL>
1

>  <REMARK>
 VINA RESULT:      -8.4      0.000      0.000
  Name = 
  3 active torsions:
  status: ('A' for Active; 'I' for Inactive)
    1  A    between atoms: C_17  and  O_28
    2  A    between atoms: O_28  and  C_29
    3  A    between atoms: C_29  and  C_32
                            x       y       z     vdW  Elec       q    Type
                         _______ _______ _______ _____ _____    ______ ____

>  <TORSDO>
F 3

$$$$
=
 OpenBabel11122412043D

 34 41  0  0  1  0  0  0  0  0999 V2000
  187.4000  178.1500  140.1760 C   0  0  0  0  0  0  0  0  0  0  0  0
  185.5130  179.0000  138.8240 N   0  0  0  0  0  2  0  0  0  0  0  0
  190.6770  177.5070  145.3860 C   0  0  2  0  0  3  0  0  0  0  0  0
  188.9970  176.9330  141.5070 C   0  0  0  0  0  0  0  0  0  0  0  0
  188.6590  176.6180  144.0010 C   0  0  1  0  0  3  0  0  0  0  0  0
  189.7460  178.9500  144.0870 C   0  0  0  0  0  2  0  0  0  0  0  0
  191.1610  178.7280  144.6000 C   0  0  0  0  0  2  0  0  0  0  0  0
  191.6670  176.2010  143.6960 C   0  0  0  0  0  2  0  0  0  0  0  0
  185.3860  179.2550  141.2140 C   0  0  2  0  0  3  0  0  0  0  0  0
  182.5370  178.2410  142.4390 C   0  0  0  0  0  2  0  0  0  0  0  0
  187.1760  176.8580  143.7040 C   0  0  0  0  0  2  0  0  0  0  0  0
  190.6080  175.5370  142.8350 C   0  0  0  0  0  2  0  0  0  0  0  0
  185.5190  178.2220  142.3540 C   0  0  1  0  0  3  0  0  0  0  0  0
  184.1960  179.5470  139.1430 C   0  0  0  0  0  2  0  0  0  0  0  0
  189.4220  176.3810  142.7670 N   0  0  0  0  0  0  0  0  0  0  0  0
  191.2390  176.2430  145.0380 O   0  0  0  0  0  0  0  0  0  0  0  0
  182.9930  178.2880  140.9690 C   0  0  1  0  0  3  0  0  0  0  0  0
  187.8030  177.6660  141.4260 C   0  0  0  0  0  0  0  0  0  0  0  0
  189.2540  177.7420  144.8760 C   0  0  2  0  0  3  0  0  0  0  0  0
  187.0020  177.9750  142.6710 C   0  0  2  0  0  3  0  0  0  0  0  0
  189.3080  177.1800  139.1710 C   0  0  0  0  0  3  0  0  0  0  0  0
  183.3380  179.1420  143.3820 C   0  0  0  0  0  2  0  0  0  0  0  0
  189.7200  176.7060  140.3760 N   0  0  0  0  0  0  0  0  0  0  0  0
  184.7680  178.6510  143.6220 C   0  0  0  0  0  2  0  0  0  0  0  0
  183.9780  179.4370  140.6490 C   0  0  1  0  0  3  0  0  0  0  0  0
  188.1540  177.8910  139.0750 N   0  0  0  0  0  0  0  0  0  0  0  0
  186.1650  178.8630  140.0570 N   0  0  0  0  0  0  0  0  0  0  0  0
  183.5180  177.0450  140.5950 O   0  0  0  0  0  0  0  0  0  0  0  0
  182.9550  176.7670  139.3480 C   0  0  0  0  0  2  0  0  0  0  0  0
  179.3690  176.2730  139.5000 N   0  0  0  0  0  0  0  0  0  0  0  0
  181.1470  175.2910  140.1920 O   0  0  0  0  0  0  0  0  0  0  0  0
  181.5400  176.3460  139.5280 C   0  0  0  0  0  0  0  0  0  0  0  0
  179.8500  175.2390  140.1780 N   0  0  0  0  0  0  0  0  0  0  0  0
  180.4180  177.0040  139.0720 C   0  0  0  0  0  3  0  0  0  0  0  0
  1 18  1  0  0  0  0
  2 14  1  0  0  0  0
  2 27  1  0  0  0  0
  3  7  1  6  0  0  0
  4 15  1  0  0  0  0
  5 11  1  6  0  0  0
  5 19  1  0  0  0  0
  6  7  1  0  0  0  0
  8 16  1  0  0  0  0
  9 27  1  6  0  0  0
  9 13  1  0  0  0  0
 10 22  1  0  0  0  0
 12  8  1  0  0  0  0
 13 20  1  0  0  0  0
 13 24  1  1  0  0  0
 15 12  1  0  0  0  0
 15  5  1  0  0  0  0
 16  3  1  0  0  0  0
 17 28  1  1  0  0  0
 17 10  1  0  0  0  0
 18  4  2  0  0  0  0
 18 20  1  0  0  0  0
 19  6  1  6  0  0  0
 19  3  1  0  0  0  0
 20 11  1  1  0  0  0
 21 23  2  0  0  0  0
 22 24  1  0  0  0  0
 23  4  1  0  0  0  0
 25 14  1  6  0  0  0
 25 17  1  0  0  0  0
 25  9  1  0  0  0  0
 26 21  1  0  0  0  0
 26  1  2  0  0  0  0
 27  1  1  0  0  0  0
 29 32  1  0  0  0  0
 29 28  1  0  0  0  0
 30 33  2  0  0  0  0
 32 31  1  0  0  0  0
 33 31  1  0  0  0  0
 34 30  1  0  0  0  0
 34 32  2  0  0  0  0
M  END
>  <MODEL>
2

>  <REMARK>
 VINA RESULT:      -7.7      1.422      1.489
  Name = 
  3 active torsions:
  status: ('A' for Active; 'I' for Inactive)
    1  A    between atoms: C_17  and  O_28
    2  A    between atoms: O_28  and  C_29
    3  A    between atoms: C_29  and  C_32
                            x       y       z     vdW  Elec       q    Type
                         _______ _______ _______ _____ _____    ______ ____

>  <TORSDO>
F 3

$$$$
=
 OpenBabel11122412043D

 34 41  0  0  1  0  0  0  0  0999 V2000
  185.6890  178.1800  137.8640 C   0  0  0  0  0  0  0  0  0  0  0  0
  187.9400  179.1450  137.5270 N   0  0  0  0  0  2  0  0  0  0  0  0
  180.9110  174.5360  136.3840 C   0  0  2  0  0  3  0  0  0  0  0  0
  183.7040  176.9710  138.4980 C   0  0  0  0  0  0  0  0  0  0  0  0
  183.2250  174.6580  137.5740 C   0  0  1  0  0  3  0  0  0  0  0  0
  182.2640  176.0240  135.6140 C   0  0  0  0  0  2  0  0  0  0  0  0
  180.7510  175.9130  135.7350 C   0  0  0  0  0  2  0  0  0  0  0  0
  180.4520  175.6020  138.4320 C   0  0  0  0  0  2  0  0  0  0  0  0
  187.3170  177.2530  136.1760 C   0  0  2  0  0  3  0  0  0  0  0  0
  189.5880  174.9110  136.1640 C   0  0  0  0  0  2  0  0  0  0  0  0
  184.7340  174.5790  137.3290 C   0  0  0  0  0  2  0  0  0  0  0  0
  181.7000  175.6840  139.2920 C   0  0  0  0  0  2  0  0  0  0  0  0
  186.7880  175.8560  136.5680 C   0  0  1  0  0  3  0  0  0  0  0  0
  189.1110  178.7520  136.7460 C   0  0  0  0  0  2  0  0  0  0  0  0
  182.8800  175.7910  138.4450 N   0  0  0  0  0  0  0  0  0  0  0  0
  180.4360  174.3860  137.7210 O   0  0  0  0  0  0  0  0  0  0  0  0
  189.6220  176.2840  136.8600 C   0  0  1  0  0  3  0  0  0  0  0  0
  184.8920  177.0340  137.7530 C   0  0  0  0  0  0  0  0  0  0  0  0
  182.4310  174.6480  136.2500 C   0  0  2  0  0  3  0  0  0  0  0  0
  185.2710  175.9150  136.8090 C   0  0  2  0  0  3  0  0  0  0  0  0
  184.1580  179.1130  139.4040 C   0  0  0  0  0  3  0  0  0  0  0  0
  188.5690  174.7990  135.0280 C   0  0  0  0  0  2  0  0  0  0  0  0
  183.3660  178.0130  139.3070 N   0  0  0  0  0  0  0  0  0  0  0  0
  187.1170  174.7900  135.5130 C   0  0  0  0  0  2  0  0  0  0  0  0
  188.8370  177.3900  136.1160 C   0  0  1  0  0  3  0  0  0  0  0  0
  185.3110  179.1900  138.6910 N   0  0  0  0  0  0  0  0  0  0  0  0
  186.9270  178.2530  137.1490 N   0  0  0  0  0  0  0  0  0  0  0  0
  189.1910  176.1550  138.1860 O   0  0  0  0  0  0  0  0  0  0  0  0
  190.3300  176.3620  138.9660 C   0  0  0  0  0  2  0  0  0  0  0  0
  189.9160  177.7800  142.2740 N   0  0  0  0  0  0  0  0  0  0  0  0
  188.8160  177.6680  140.4360 O   0  0  0  0  0  0  0  0  0  0  0  0
  189.9440  177.0410  140.2320 C   0  0  0  0  0  0  0  0  0  0  0  0
  188.7920  178.1140  141.6550 N   0  0  0  0  0  0  0  0  0  0  0  0
  190.6760  177.0910  141.3980 C   0  0  0  0  0  3  0  0  0  0  0  0
  1 26  1  0  0  0  0
  3  7  1  1  0  0  0
  3 16  1  0  0  0  0
  4 23  2  0  0  0  0
  5 11  1  6  0  0  0
  5 15  1  0  0  0  0
  6  7  1  0  0  0  0
  8 12  1  0  0  0  0
  9 13  1  0  0  0  0
  9 27  1  1  0  0  0
 10 17  1  0  0  0  0
 13 24  1  6  0  0  0
 13 20  1  0  0  0  0
 14  2  1  0  0  0  0
 15  4  1  0  0  0  0
 15 12  1  0  0  0  0
 16  8  1  0  0  0  0
 17 28  1  1  0  0  0
 18  1  2  0  0  0  0
 18  4  1  0  0  0  0
 19  6  1  1  0  0  0
 19  3  1  0  0  0  0
 19  5  1  0  0  0  0
 20 11  1  1  0  0  0
 20 18  1  0  0  0  0
 22 24  1  0  0  0  0
 22 10  1  0  0  0  0
 23 21  1  0  0  0  0
 25  9  1  0  0  0  0
 25 14  1  1  0  0  0
 25 17  1  0  0  0  0
 26 21  2  0  0  0  0
 27  2  1  0  0  0  0
 27  1  1  0  0  0  0
 28 29  1  0  0  0  0
 29 32  1  0  0  0  0
 31 33  1  0  0  0  0
 32 31  1  0  0  0  0
 32 34  2  0  0  0  0
 33 30  2  0  0  0  0
 34 30  1  0  0  0  0
M  END
>  <MODEL>
3

>  <REMARK>
 VINA RESULT:      -6.7      2.920      8.387
  Name = 
  3 active torsions:
  status: ('A' for Active; 'I' for Inactive)
    1  A    between atoms: C_17  and  O_28
    2  A    between atoms: O_28  and  C_29
    3  A    between atoms: C_29  and  C_32
                            x       y       z     vdW  Elec       q    Type
                         _______ _______ _______ _____ _____    ______ ____

>  <TORSDO>
F 3

$$$$
=
 OpenBabel11122412043D

 34 41  0  0  1  0  0  0  0  0999 V2000
  185.8400  178.0100  137.6750 C   0  0  0  0  0  0  0  0  0  0  0  0
  188.0310  179.1520  137.5900 N   0  0  0  0  0  2  0  0  0  0  0  0
  181.6640  173.8240  135.8480 C   0  0  2  0  0  3  0  0  0  0  0  0
  183.8840  176.6750  138.1160 C   0  0  0  0  0  0  0  0  0  0  0  0
  183.7430  174.2600  137.3550 C   0  0  1  0  0  3  0  0  0  0  0  0
  182.9970  175.3650  135.1520 C   0  0  0  0  0  2  0  0  0  0  0  0
  181.4980  175.1230  135.0550 C   0  0  0  0  0  2  0  0  0  0  0  0
  180.8030  175.0050  137.6930 C   0  0  0  0  0  2  0  0  0  0  0  0
  187.7830  177.1060  136.3460 C   0  0  2  0  0  3  0  0  0  0  0  0
  190.2090  174.9940  136.8970 C   0  0  0  0  0  2  0  0  0  0  0  0
  185.2740  174.3030  137.3470 C   0  0  0  0  0  2  0  0  0  0  0  0
  181.8890  175.2730  138.7190 C   0  0  0  0  0  2  0  0  0  0  0  0
  187.3130  175.7020  136.7850 C   0  0  1  0  0  3  0  0  0  0  0  0
  189.3380  178.8080  137.0340 C   0  0  0  0  0  2  0  0  0  0  0  0
  183.1760  175.4220  138.0520 N   0  0  0  0  0  0  0  0  0  0  0  0
  180.9970  173.7400  137.1060 O   0  0  0  0  0  0  0  0  0  0  0  0
  190.0210  176.4160  137.4570 C   0  0  1  0  0  3  0  0  0  0  0  0
  185.1660  176.7880  137.5550 C   0  0  0  0  0  0  0  0  0  0  0  0
  183.1720  174.0670  135.9330 C   0  0  2  0  0  3  0  0  0  0  0  0
  185.7770  175.6370  136.7890 C   0  0  2  0  0  3  0  0  0  0  0  0
  184.0150  178.9160  138.8730 C   0  0  0  0  0  3  0  0  0  0  0  0
  189.3940  174.6950  135.6360 C   0  0  0  0  0  2  0  0  0  0  0  0
  183.3400  177.7420  138.7630 N   0  0  0  0  0  0  0  0  0  0  0  0
  187.8890  174.5890  135.8970 C   0  0  0  0  0  2  0  0  0  0  0  0
  189.2780  177.3800  136.5020 C   0  0  1  0  0  3  0  0  0  0  0  0
  185.2560  179.0430  138.3370 N   0  0  0  0  0  0  0  0  0  0  0  0
  187.1660  178.1410  137.1500 N   0  0  0  0  0  0  0  0  0  0  0  0
  189.3990  176.3560  138.7100 O   0  0  0  0  0  0  0  0  0  0  0  0
  190.3870  176.7090  139.6300 C   0  0  0  0  0  2  0  0  0  0  0  0
  188.6480  177.1620  142.7760 N   0  0  0  0  0  0  0  0  0  0  0  0
  190.2020  175.9180  141.9760 O   0  0  0  0  0  0  0  0  0  0  0  0
  189.8100  176.6960  141.0010 C   0  0  0  0  0  0  0  0  0  0  0  0
  189.5110  176.1900  143.0410 N   0  0  0  0  0  0  0  0  0  0  0  0
  188.8110  177.5130  141.4840 C   0  0  0  0  0  3  0  0  0  0  0  0
  1 26  1  0  0  0  0
  3  7  1  6  0  0  0
  3 19  1  0  0  0  0
  3 16  1  0  0  0  0
  4 23  2  0  0  0  0
  5 11  1  6  0  0  0
  5 15  1  0  0  0  0
  7  6  1  0  0  0  0
  8 12  1  0  0  0  0
  9 25  1  0  0  0  0
  9 13  1  0  0  0  0
  9 27  1  1  0  0  0
 10 17  1  0  0  0  0
 13 24  1  6  0  0  0
 13 20  1  0  0  0  0
 14  2  1  0  0  0  0
 15  4  1  0  0  0  0
 15 12  1  0  0  0  0
 16  8  1  0  0  0  0
 17 28  1  1  0  0  0
 18  1  2  0  0  0  0
 18  4  1  0  0  0  0
 19  6  1  6  0  0  0
 19  5  1  0  0  0  0
 20 11  1  1  0  0  0
 20 18  1  0  0  0  0
 22 24  1  0  0  0  0
 22 10  1  0  0  0  0
 23 21  1  0  0  0  0
 25 14  1  1  0  0  0
 25 17  1  0  0  0  0
 26 21  2  0  0  0  0
 27  2  1  0  0  0  0
 27  1  1  0  0  0  0
 28 29  1  0  0  0  0
 29 32  1  0  0  0  0
 30 33  2  0  0  0  0
 31 33  1  0  0  0  0
 32 34  2  0  0  0  0
 32 31  1  0  0  0  0
 34 30  1  0  0  0  0
M  END
>  <MODEL>
4

>  <REMARK>
 VINA RESULT:      -6.5      2.781      8.406
  Name = 
  3 active torsions:
  status: ('A' for Active; 'I' for Inactive)
    1  A    between atoms: C_17  and  O_28
    2  A    between atoms: O_28  and  C_29
    3  A    between atoms: C_29  and  C_32
                            x       y       z     vdW  Elec       q    Type
                         _______ _______ _______ _____ _____    ______ ____

>  <TORSDO>
F 3

$$$$
=
 OpenBabel11122412043D

 34 41  0  0  1  0  0  0  0  0999 V2000
  186.2560  178.6300  139.5840 C   0  0  0  0  0  0  0  0  0  0  0  0
  188.5690  178.3670  138.7550 N   0  0  0  0  0  2  0  0  0  0  0  0
  180.1750  179.5730  138.9280 C   0  0  2  0  0  3  0  0  0  0  0  0
  184.0050  178.4280  140.4180 C   0  0  0  0  0  0  0  0  0  0  0  0
  182.0860  177.8040  138.8810 C   0  0  1  0  0  3  0  0  0  0  0  0
  182.1170  180.3320  138.3930 C   0  0  0  0  0  2  0  0  0  0  0  0
  180.9040  180.9070  139.1090 C   0  0  0  0  0  2  0  0  0  0  0  0
  180.6430  179.1690  141.1990 C   0  0  0  0  0  2  0  0  0  0  0  0
  186.7880  178.3390  137.1370 C   0  0  2  0  0  3  0  0  0  0  0  0
  186.9970  175.8190  135.0750 C   0  0  0  0  0  2  0  0  0  0  0  0
  183.1660  177.1920  137.9860 C   0  0  0  0  0  2  0  0  0  0  0  0
  181.6980  178.0880  141.3500 C   0  0  0  0  0  2  0  0  0  0  0  0
  185.5060  177.4820  137.0530 C   0  0  1  0  0  3  0  0  0  0  0  0
  189.1560  178.0570  137.4520 C   0  0  0  0  0  2  0  0  0  0  0  0
  182.6120  178.1230  140.2160 N   0  0  0  0  0  0  0  0  0  0  0  0
  179.8000  178.8700  140.1110 O   0  0  0  0  0  0  0  0  0  0  0  0
  187.9540  176.2160  136.2140 C   0  0  1  0  0  3  0  0  0  0  0  0
  184.9020  178.3680  139.3400 C   0  0  0  0  0  0  0  0  0  0  0  0
  181.3930  179.0050  138.1990 C   0  0  2  0  0  3  0  0  0  0  0  0
  184.4070  178.0880  137.9400 C   0  0  2  0  0  3  0  0  0  0  0  0
  185.7910  178.9690  141.8770 C   0  0  0  0  0  3  0  0  0  0  0  0
  186.0790  176.9460  134.5940 C   0  0  0  0  0  2  0  0  0  0  0  0
  184.4720  178.7260  141.6620 N   0  0  0  0  0  0  0  0  0  0  0  0
  185.0010  177.3270  135.6110 C   0  0  0  0  0  2  0  0  0  0  0  0
  188.0280  177.7390  136.4760 C   0  0  1  0  0  3  0  0  0  0  0  0
  186.6730  178.9150  140.8450 N   0  0  0  0  0  0  0  0  0  0  0  0
  187.1990  178.5340  138.5120 N   0  0  0  0  0  0  0  0  0  0  0  0
  187.6260  175.5110  137.3780 O   0  0  0  0  0  0  0  0  0  0  0  0
  188.0970  174.2140  137.1690 C   0  0  0  0  0  2  0  0  0  0  0  0
  191.6810  173.8020  136.8360 N   0  0  0  0  0  0  0  0  0  0  0  0
  190.3070  174.8600  138.0970 O   0  0  0  0  0  0  0  0  0  0  0  0
  189.5840  174.2150  137.2200 C   0  0  0  0  0  0  0  0  0  0  0  0
  191.5620  174.6190  137.8740 N   0  0  0  0  0  0  0  0  0  0  0  0
  190.4390  173.5190  136.3930 C   0  0  0  0  0  3  0  0  0  0  0  0
  1 26  1  0  0  0  0
  3  7  1  1  0  0  0
  3 16  1  0  0  0  0
  4 23  2  0  0  0  0
  5 11  1  6  0  0  0
  5 15  1  0  0  0  0
  6  7  1  0  0  0  0
  8 12  1  0  0  0  0
  9 27  1  1  0  0  0
 10 17  1  0  0  0  0
 13 24  1  6  0  0  0
 13  9  1  0  0  0  0
 13 20  1  0  0  0  0
 14  2  1  0  0  0  0
 15  4  1  0  0  0  0
 15 12  1  0  0  0  0
 16  8  1  0  0  0  0
 17 25  1  0  0  0  0
 17 28  1  1  0  0  0
 18  1  2  0  0  0  0
 18  4  1  0  0  0  0
 19  6  1  1  0  0  0
 19  5  1  0  0  0  0
 19  3  1  0  0  0  0
 20 11  1  1  0  0  0
 20 18  1  0  0  0  0
 22 10  1  0  0  0  0
 22 24  1  0  0  0  0
 23 21  1  0  0  0  0
 25  9  1  0  0  0  0
 25 14  1  1  0  0  0
 26 21  2  0  0  0  0
 27  2  1  0  0  0  0
 27  1  1  0  0  0  0
 29 32  1  0  0  0  0
 29 28  1  0  0  0  0
 30 33  2  0  0  0  0
 32 31  1  0  0  0  0
 33 31  1  0  0  0  0
 34 30  1  0  0  0  0
 34 32  2  0  0  0  0
M  END
>  <MODEL>
5

>  <REMARK>
 VINA RESULT:      -6.4      3.597      7.625
  Name = 
  3 active torsions:
  status: ('A' for Active; 'I' for Inactive)
    1  A    between atoms: C_17  and  O_28
    2  A    between atoms: O_28  and  C_29
    3  A    between atoms: C_29  and  C_32
                            x       y       z     vdW  Elec       q    Type
                         _______ _______ _______ _____ _____    ______ ____

>  <TORSDO>
F 3

$$$$
=
 OpenBabel11122412043D

 34 41  0  0  1  0  0  0  0  0999 V2000
  185.9000  178.5260  139.5850 C   0  0  0  0  0  0  0  0  0  0  0  0
  188.1760  178.0210  138.7630 N   0  0  0  0  0  2  0  0  0  0  0  0
  179.9530  180.1000  138.9110 C   0  0  2  0  0  3  0  0  0  0  0  0
  183.6380  178.5620  140.4130 C   0  0  0  0  0  0  0  0  0  0  0  0
  181.6690  178.1410  138.8710 C   0  0  1  0  0  3  0  0  0  0  0  0
  181.9660  180.6510  138.3810 C   0  0  0  0  0  2  0  0  0  0  0  0
  180.8170  181.3500  139.0930 C   0  0  0  0  0  2  0  0  0  0  0  0
  180.3700  179.6510  141.1830 C   0  0  0  0  0  2  0  0  0  0  0  0
  186.4060  178.1790  137.1400 C   0  0  2  0  0  3  0  0  0  0  0  0
  186.3560  175.6490  135.0800 C   0  0  0  0  0  2  0  0  0  0  0  0
  182.6810  177.4170  137.9790 C   0  0  0  0  0  2  0  0  0  0  0  0
  181.3050  178.4650  141.3380 C   0  0  0  0  0  2  0  0  0  0  0  0
  185.0410  177.4600  137.0520 C   0  0  1  0  0  3  0  0  0  0  0  0
  188.7310  177.6500  137.4620 C   0  0  0  0  0  2  0  0  0  0  0  0
  182.2210  178.4040  140.2070 N   0  0  0  0  0  0  0  0  0  0  0  0
  179.5030  179.4410  140.0930 O   0  0  0  0  0  0  0  0  0  0  0  0
  187.3460  175.9450  136.2220 C   0  0  1  0  0  3  0  0  0  0  0  0
  184.5270  178.4070  139.3380 C   0  0  0  0  0  0  0  0  0  0  0  0
  181.1070  179.4060  138.1850 C   0  0  2  0  0  3  0  0  0  0  0  0
  184.0090  178.1790  137.9360 C   0  0  2  0  0  3  0  0  0  0  0  0
  185.4670  178.9150  141.8760 C   0  0  0  0  0  3  0  0  0  0  0  0
  185.5630  176.8650  134.5950 C   0  0  0  0  0  2  0  0  0  0  0  0
  184.1300  178.8100  141.6580 N   0  0  0  0  0  0  0  0  0  0  0  0
  184.5270  177.3570  135.6090 C   0  0  0  0  0  2  0  0  0  0  0  0
  187.5780  177.4510  136.4830 C   0  0  1  0  0  3  0  0  0  0  0  0
  186.3410  178.7670  140.8470 N   0  0  0  0  0  0  0  0  0  0  0  0
  186.8310  178.3300  138.5160 N   0  0  0  0  0  0  0  0  0  0  0  0
  186.9430  175.2780  137.3850 O   0  0  0  0  0  0  0  0  0  0  0  0
  187.3040  173.9440  137.1910 C   0  0  0  0  0  2  0  0  0  0  0  0
  184.5310  171.7530  136.3940 N   0  0  0  0  0  0  0  0  0  0  0  0
  185.1070  173.0910  137.9690 O   0  0  0  0  0  0  0  0  0  0  0  0
  186.0770  173.1100  137.0930 C   0  0  0  0  0  0  0  0  0  0  0  0
  184.1800  172.2810  137.5590 N   0  0  0  0  0  0  0  0  0  0  0  0
  185.7360  172.2610  136.0620 C   0  0  0  0  0  3  0  0  0  0  0  0
  1 26  1  0  0  0  0
  3  7  1  1  0  0  0
  3 16  1  0  0  0  0
  4 23  2  0  0  0  0
  5 11  1  6  0  0  0
  5 15  1  0  0  0  0
  6  7  1  0  0  0  0
  8 12  1  0  0  0  0
  9 27  1  1  0  0  0
 10 17  1  0  0  0  0
 13 24  1  6  0  0  0
 13  9  1  0  0  0  0
 13 20  1  0  0  0  0
 14  2  1  0  0  0  0
 15  4  1  0  0  0  0
 15 12  1  0  0  0  0
 16  8  1  0  0  0  0
 17 25  1  0  0  0  0
 17 28  1  1  0  0  0
 18  1  2  0  0  0  0
 18  4  1  0  0  0  0
 19  6  1  1  0  0  0
 19  5  1  0  0  0  0
 19  3  1  0  0  0  0
 20 11  1  1  0  0  0
 20 18  1  0  0  0  0
 22 10  1  0  0  0  0
 22 24  1  0  0  0  0
 23 21  1  0  0  0  0
 25  9  1  0  0  0  0
 25 14  1  1  0  0  0
 26 21  2  0  0  0  0
 27  2  1  0  0  0  0
 27  1  1  0  0  0  0
 29 28  1  0  0  0  0
 30 33  2  0  0  0  0
 32 29  1  0  0  0  0
 32 31  1  0  0  0  0
 33 31  1  0  0  0  0
 34 30  1  0  0  0  0
 34 32  2  0  0  0  0
M  END
>  <MODEL>
6

>  <REMARK>
 VINA RESULT:      -6.1      3.691      7.312
  Name = 
  3 active torsions:
  status: ('A' for Active; 'I' for Inactive)
    1  A    between atoms: C_17  and  O_28
    2  A    between atoms: O_28  and  C_29
    3  A    between atoms: C_29  and  C_32
                            x       y       z     vdW  Elec       q    Type
                         _______ _______ _______ _____ _____    ______ ____

>  <TORSDO>
F 3

$$$$
=
 OpenBabel11122412043D

 34 41  0  0  1  0  0  0  0  0999 V2000
  185.7120  178.2240  137.8570 C   0  0  0  0  0  0  0  0  0  0  0  0
  187.9120  179.2490  137.3870 N   0  0  0  0  0  2  0  0  0  0  0  0
  180.8770  174.5790  136.5820 C   0  0  2  0  0  3  0  0  0  0  0  0
  183.8070  176.9430  138.5870 C   0  0  0  0  0  0  0  0  0  0  0  0
  183.2820  174.6770  137.5750 C   0  0  1  0  0  3  0  0  0  0  0  0
  182.1370  176.1340  135.7870 C   0  0  0  0  0  2  0  0  0  0  0  0
  180.6420  175.9870  136.0300 C   0  0  0  0  0  2  0  0  0  0  0  0
  180.5810  175.5180  138.7190 C   0  0  0  0  0  2  0  0  0  0  0  0
  187.2020  177.4250  135.9860 C   0  0  2  0  0  3  0  0  0  0  0  0
  189.4970  175.1310  135.6440 C   0  0  0  0  0  2  0  0  0  0  0  0
  184.7660  174.6410  137.1970 C   0  0  0  0  0  2  0  0  0  0  0  0
  181.8970  175.5740  139.4730 C   0  0  0  0  0  2  0  0  0  0  0  0
  186.7280  175.9990  136.3390 C   0  0  1  0  0  3  0  0  0  0  0  0
  189.0170  178.9230  136.4870 C   0  0  0  0  0  2  0  0  0  0  0  0
  182.9980  175.7520  138.5360 N   0  0  0  0  0  0  0  0  0  0  0  0
  180.5210  174.3450  137.9420 O   0  0  0  0  0  0  0  0  0  0  0  0
  189.5700  176.4630  136.4130 C   0  0  1  0  0  3  0  0  0  0  0  0
  184.9260  177.0710  137.7490 C   0  0  0  0  0  0  0  0  0  0  0  0
  182.3770  174.7270  136.3240 C   0  0  2  0  0  3  0  0  0  0  0  0
  185.2370  176.0150  136.7130 C   0  0  2  0  0  3  0  0  0  0  0  0
  184.3070  179.0380  139.5750 C   0  0  0  0  0  3  0  0  0  0  0  0
  188.3850  175.0640  134.5940 C   0  0  0  0  0  2  0  0  0  0  0  0
  183.5260  177.9300  139.4820 N   0  0  0  0  0  0  0  0  0  0  0  0
  186.9800  175.0010  135.2000 C   0  0  0  0  0  2  0  0  0  0  0  0
  188.7090  177.5940  135.8040 C   0  0  1  0  0  3  0  0  0  0  0  0
  185.3930  179.1770  138.7710 N   0  0  0  0  0  0  0  0  0  0  0  0
  186.8830  178.3610  137.0450 N   0  0  0  0  0  0  0  0  0  0  0  0
  189.2580  176.2500  137.7620 O   0  0  0  0  0  0  0  0  0  0  0  0
  190.2660  175.4160  138.2470 C   0  0  0  0  0  2  0  0  0  0  0  0
  193.2750  177.1840  139.2190 N   0  0  0  0  0  0  0  0  0  0  0  0
  191.2540  176.9750  139.9070 O   0  0  0  0  0  0  0  0  0  0  0  0
  191.3560  176.2450  138.8270 C   0  0  0  0  0  0  0  0  0  0  0  0
  192.3970  177.5400  140.1470 N   0  0  0  0  0  0  0  0  0  0  0  0
  192.6470  176.3550  138.3600 C   0  0  0  0  0  3  0  0  0  0  0  0
  1 26  1  0  0  0  0
  3  7  1  1  0  0  0
  3 16  1  0  0  0  0
  4 23  2  0  0  0  0
  5 11  1  6  0  0  0
  5 15  1  0  0  0  0
  6  7  1  0  0  0  0
  8 12  1  0  0  0  0
  9 13  1  0  0  0  0
  9 27  1  1  0  0  0
 10 17  1  0  0  0  0
 13 24  1  6  0  0  0
 13 20  1  0  0  0  0
 14  2  1  0  0  0  0
 15  4  1  0  0  0  0
 15 12  1  0  0  0  0
 16  8  1  0  0  0  0
 17 28  1  1  0  0  0
 18  1  2  0  0  0  0
 18  4  1  0  0  0  0
 19  6  1  1  0  0  0
 19  3  1  0  0  0  0
 19  5  1  0  0  0  0
 20 11  1  1  0  0  0
 20 18  1  0  0  0  0
 22 24  1  0  0  0  0
 22 10  1  0  0  0  0
 23 21  1  0  0  0  0
 25  9  1  0  0  0  0
 25 17  1  0  0  0  0
 25 14  1  1  0  0  0
 26 21  2  0  0  0  0
 27  2  1  0  0  0  0
 27  1  1  0  0  0  0
 28 29  1  0  0  0  0
 29 32  1  0  0  0  0
 30 33  2  0  0  0  0
 31 33  1  0  0  0  0
 32 31  1  0  0  0  0
 34 32  2  0  0  0  0
 34 30  1  0  0  0  0
M  END
>  <MODEL>
7

>  <REMARK>
 VINA RESULT:      -6.0      3.839      8.583
  Name = 
  3 active torsions:
  status: ('A' for Active; 'I' for Inactive)
    1  A    between atoms: C_17  and  O_28
    2  A    between atoms: O_28  and  C_29
    3  A    between atoms: C_29  and  C_32
                            x       y       z     vdW  Elec       q    Type
                         _______ _______ _______ _____ _____    ______ ____

>  <TORSDO>
F 3

$$$$
=
 OpenBabel11122412043D

 34 41  0  0  1  0  0  0  0  0999 V2000
  183.1820  178.6060  139.2900 C   0  0  0  0  0  0  0  0  0  0  0  0
  181.1410  179.6770  140.1850 N   0  0  0  0  0  2  0  0  0  0  0  0
  186.2610  174.4840  135.8520 C   0  0  2  0  0  3  0  0  0  0  0  0
  185.1820  177.9230  138.1340 C   0  0  0  0  0  0  0  0  0  0  0  0
  185.0660  176.7980  135.8630 C   0  0  1  0  0  3  0  0  0  0  0  0
  184.6930  174.7020  137.3110 C   0  0  0  0  0  2  0  0  0  0  0  0
  185.9970  173.9190  137.2500 C   0  0  0  0  0  2  0  0  0  0  0  0
  187.8090  175.9280  136.8800 C   0  0  0  0  0  2  0  0  0  0  0  0
  180.8890  178.1380  138.3510 C   0  0  2  0  0  3  0  0  0  0  0  0
  179.0630  179.3490  135.9330 C   0  0  0  0  0  2  0  0  0  0  0  0
  183.6960  177.4700  135.7390 C   0  0  0  0  0  2  0  0  0  0  0  0
  187.2920  177.3550  136.8960 C   0  0  0  0  0  2  0  0  0  0  0  0
  181.5650  178.0930  136.9640 C   0  0  1  0  0  3  0  0  0  0  0  0
  179.7390  179.7030  139.7720 C   0  0  0  0  0  2  0  0  0  0  0  0
  185.8370  177.3540  136.9850 N   0  0  0  0  0  0  0  0  0  0  0  0
  187.4260  175.2900  135.6840 O   0  0  0  0  0  0  0  0  0  0  0  0
  179.4220  179.9910  137.2860 C   0  0  1  0  0  3  0  0  0  0  0  0
  183.7810  178.0080  138.1750 C   0  0  0  0  0  0  0  0  0  0  0  0
  184.9440  175.2590  135.9140 C   0  0  2  0  0  3  0  0  0  0  0  0
  182.9400  177.4130  137.0690 C   0  0  2  0  0  3  0  0  0  0  0  0
  185.3110  179.0110  140.2350 C   0  0  0  0  0  3  0  0  0  0  0  0
  179.2350  177.8280  135.8860 C   0  0  0  0  0  2  0  0  0  0  0  0
  185.9130  178.4290  139.1650 N   0  0  0  0  0  0  0  0  0  0  0  0
  180.6990  177.3820  135.9150 C   0  0  0  0  0  2  0  0  0  0  0  0
  179.6140  178.9760  138.4370 C   0  0  1  0  0  3  0  0  0  0  0  0
  183.9570  179.1020  140.2900 N   0  0  0  0  0  0  0  0  0  0  0  0
  181.7580  178.7450  139.3390 N   0  0  0  0  0  0  0  0  0  0  0  0
  180.5440  180.8160  137.1370 O   0  0  0  0  0  0  0  0  0  0  0  0
  180.2590  181.6320  136.0420 C   0  0  0  0  0  2  0  0  0  0  0  0
  181.3130  185.0980  136.1030 N   0  0  0  0  0  0  0  0  0  0  0  0
  181.4520  183.3650  137.3600 O   0  0  0  0  0  0  0  0  0  0  0  0
  180.7770  183.0020  136.3010 C   0  0  0  0  0  0  0  0  0  0  0  0
  181.7750  184.6170  137.2500 N   0  0  0  0  0  0  0  0  0  0  0  0
  180.6730  184.0950  135.4680 C   0  0  0  0  0  3  0  0  0  0  0  0
  1 27  1  0  0  0  0
  1 26  1  0  0  0  0
  3 19  1  0  0  0  0
  3  7  1  1  0  0  0
  4 18  1  0  0  0  0
  4 23  2  0  0  0  0
  5 11  1  1  0  0  0
  5 19  1  0  0  0  0
  5 15  1  0  0  0  0
  7  6  1  0  0  0  0
  8 12  1  0  0  0  0
  9 25  1  0  0  0  0
  9 27  1  1  0  0  0
 10 17  1  0  0  0  0
 12 15  1  0  0  0  0
 13 24  1  6  0  0  0
 13 20  1  0  0  0  0
 13  9  1  0  0  0  0
 14  2  1  0  0  0  0
 15  4  1  0  0  0  0
 16  3  1  0  0  0  0
 16  8  1  0  0  0  0
 17 28  1  6  0  0  0
 17 25  1  0  0  0  0
 18  1  2  0  0  0  0
 19  6  1  1  0  0  0
 20 11  1  6  0  0  0
 20 18  1  0  0  0  0
 21 26  2  0  0  0  0
 22 24  1  0  0  0  0
 22 10  1  0  0  0  0
 23 21  1  0  0  0  0
 25 14  1  1  0  0  0
 27  2  1  0  0  0  0
 29 32  1  0  0  0  0
 29 28  1  0  0  0  0
 30 33  2  0  0  0  0
 32 31  1  0  0  0  0
 33 31  1  0  0  0  0
 34 30  1  0  0  0  0
 34 32  2  0  0  0  0
M  END
>  <MODEL>
8

>  <REMARK>
 VINA RESULT:      -6.0      4.500      7.466
  Name = 
  3 active torsions:
  status: ('A' for Active; 'I' for Inactive)
    1  A    between atoms: C_17  and  O_28
    2  A    between atoms: O_28  and  C_29
    3  A    between atoms: C_29  and  C_32
                            x       y       z     vdW  Elec       q    Type
                         _______ _______ _______ _____ _____    ______ ____

>  <TORSDO>
F 3

$$$$
=
 OpenBabel11122412043D

 34 41  0  0  1  0  0  0  0  0999 V2000
  184.7020  178.2020  139.1360 C   0  0  0  0  0  0  0  0  0  0  0  0
  186.3890  177.4830  137.4790 N   0  0  0  0  0  2  0  0  0  0  0  0
  178.9760  179.6320  140.9970 C   0  0  2  0  0  3  0  0  0  0  0  0
  183.0790  178.4680  140.8960 C   0  0  0  0  0  0  0  0  0  0  0  0
  180.6800  177.7030  140.5960 C   0  0  1  0  0  3  0  0  0  0  0  0
  180.4530  180.0110  139.4770 C   0  0  0  0  0  2  0  0  0  0  0  0
  179.6900  180.8780  140.4680 C   0  0  0  0  0  2  0  0  0  0  0  0
  180.4310  179.7530  142.8440 C   0  0  0  0  0  2  0  0  0  0  0  0
  184.0670  177.2560  136.8870 C   0  0  2  0  0  3  0  0  0  0  0  0
  183.3490  174.2960  135.7160 C   0  0  0  0  0  2  0  0  0  0  0  0
  181.2430  176.7700  139.5210 C   0  0  0  0  0  2  0  0  0  0  0  0
  181.4520  178.6310  142.8030 C   0  0  0  0  0  2  0  0  0  0  0  0
  182.8990  176.5540  137.6130 C   0  0  1  0  0  3  0  0  0  0  0  0
  186.3240  176.7950  136.1900 C   0  0  0  0  0  2  0  0  0  0  0  0
  181.7500  178.2820  141.4200 N   0  0  0  0  0  0  0  0  0  0  0  0
  179.1890  179.2900  142.3650 O   0  0  0  0  0  0  0  0  0  0  0  0
  184.7140  174.8530  136.1610 C   0  0  1  0  0  3  0  0  0  0  0  0
  183.3890  178.0420  139.5950 C   0  0  0  0  0  0  0  0  0  0  0  0
  179.7370  178.7660  139.9910 C   0  0  2  0  0  3  0  0  0  0  0  0
  182.3150  177.4810  138.6910 C   0  0  2  0  0  3  0  0  0  0  0  0
  185.3260  179.1500  141.2100 C   0  0  0  0  0  3  0  0  0  0  0  0
  182.2990  175.3640  135.4020 C   0  0  0  0  0  2  0  0  0  0  0  0
  184.0570  179.0100  141.6730 N   0  0  0  0  0  0  0  0  0  0  0  0
  181.7960  176.1040  136.6440 C   0  0  0  0  0  2  0  0  0  0  0  0
  184.8790  176.3750  135.9390 C   0  0  1  0  0  3  0  0  0  0  0  0
  185.6430  178.7430  139.9530 N   0  0  0  0  0  0  0  0  0  0  0  0
  185.0560  177.7370  137.8290 N   0  0  0  0  0  0  0  0  0  0  0  0
  184.9600  174.5000  137.4930 O   0  0  0  0  0  0  0  0  0  0  0  0
  185.2220  173.1290  137.4690 C   0  0  0  0  0  2  0  0  0  0  0  0
  188.3050  172.0570  135.8990 N   0  0  0  0  0  0  0  0  0  0  0  0
  187.6430  173.6130  137.2180 O   0  0  0  0  0  0  0  0  0  0  0  0
  186.5880  172.8970  136.9310 C   0  0  0  0  0  0  0  0  0  0  0  0
  188.6740  173.1180  136.6040 N   0  0  0  0  0  0  0  0  0  0  0  0
  186.9810  171.8820  136.0850 C   0  0  0  0  0  3  0  0  0  0  0  0
  1 18  2  0  0  0  0
  1 26  1  0  0  0  0
  2 27  1  0  0  0  0
  3  7  1  1  0  0  0
  3 16  1  0  0  0  0
  4 15  1  0  0  0  0
  4 23  2  0  0  0  0
  5 11  1  6  0  0  0
  5 15  1  0  0  0  0
  6  7  1  0  0  0  0
  9 13  1  0  0  0  0
  9 27  1  1  0  0  0
 10 17  1  0  0  0  0
 12  8  1  0  0  0  0
 13 24  1  6  0  0  0
 13 20  1  0  0  0  0
 14  2  1  0  0  0  0
 15 12  1  0  0  0  0
 16  8  1  0  0  0  0
 17 28  1  1  0  0  0
 18  4  1  0  0  0  0
 19  6  1  6  0  0  0
 19  5  1  0  0  0  0
 19  3  1  0  0  0  0
 20 11  1  1  0  0  0
 20 18  1  0  0  0  0
 21 23  1  0  0  0  0
 22 10  1  0  0  0  0
 22 24  1  0  0  0  0
 25 17  1  0  0  0  0
 25 14  1  1  0  0  0
 25  9  1  0  0  0  0
 26 21  2  0  0  0  0
 27  1  1  0  0  0  0
 29 28  1  0  0  0  0
 30 34  1  0  0  0  0
 30 33  2  0  0  0  0
 32 31  1  0  0  0  0
 32 29  1  0  0  0  0
 33 31  1  0  0  0  0
 34 32  2  0  0  0  0
M  END
>  <MODEL>
9

>  <REMARK>
 VINA RESULT:      -5.7      4.023      7.407
  Name = 
  3 active torsions:
  status: ('A' for Active; 'I' for Inactive)
    1  A    between atoms: C_17  and  O_28
    2  A    between atoms: O_28  and  C_29
    3  A    between atoms: C_29  and  C_32
                            x       y       z     vdW  Elec       q    Type
                         _______ _______ _______ _____ _____    ______ ____

>  <TORSDO>
F 3

$$$$
