=
 OpenBabel11122411493D

 28 32  0  0  1  0  0  0  0  0999 V2000
  180.7030  178.4430  142.0900 C   0  0  0  0  0  0  0  0  0  0  0  0
  180.6710  181.4150  139.5250 O   0  0  0  0  0  0  0  0  0  0  0  0
  181.0970  173.9340  138.0600 O   0  0  0  0  0  0  0  0  0  0  0  0
  183.3320  178.9380  142.9270 C   0  0  0  0  0  3  0  0  0  0  0  0
  182.2010  175.9060  137.2500 C   0  0  1  0  0  3  0  0  0  0  0  0
  179.2940  178.1410  141.6820 C   0  0  0  0  0  2  0  0  0  0  0  0
  182.8570  181.9990  138.5610 O   0  0  0  0  0  0  0  0  0  0  0  0
  181.6990  181.0450  138.4940 S   0  0  0  0  0  0  0  0  0  0  0  0
  180.8600  179.9180  136.1400 C   0  0  0  0  0  0  0  0  0  0  0  0
  182.2900  179.3920  138.7640 C   0  0  2  0  0  3  0  0  0  0  0  0
  178.9330  174.5620  141.3920 O   0  0  0  0  0  0  0  0  0  0  0  0
  181.6910  177.1730  139.1520 C   0  0  0  0  0  0  0  0  0  0  0  0
  181.4780  178.8120  136.4330 N   0  0  0  0  0  0  0  0  0  0  0  0
  180.9990  181.1000  136.9250 N   0  0  0  0  0  2  0  0  0  0  0  0
  179.1430  175.7490  141.0300 C   0  0  0  0  0  0  0  0  0  0  0  0
  181.7180  178.6430  141.1330 C   0  0  0  0  0  0  0  0  0  0  0  0
  181.4200  175.0980  138.2440 C   0  0  0  0  0  0  0  0  0  0  0  0
  179.9350  179.9370  134.9780 C   0  0  0  0  0  1  0  0  0  0  0  0
  179.5630  176.0100  139.6190 C   0  0  0  0  0  2  0  0  0  0  0  0
  183.0340  178.8730  141.5650 C   0  0  0  0  0  3  0  0  0  0  0  0
  181.0110  178.5100  143.4540 C   0  0  0  0  0  3  0  0  0  0  0  0
  182.3210  178.7590  143.8720 C   0  0  0  0  0  3  0  0  0  0  0  0
  178.9820  176.7810  141.9610 O   0  0  0  0  0  0  0  0  0  0  0  0
  182.2980  177.1950  137.9880 C   0  0  0  0  0  0  0  0  0  0  0  0
  181.0720  175.8610  139.4880 C   0  0  2  0  0  3  0  0  0  0  0  0
  182.4960  178.5780  137.4680 C   0  0  2  0  0  3  0  0  0  0  0  0
  183.5880  175.3150  137.0690 C   0  0  0  0  0  1  0  0  0  0  0  0
  181.3980  178.5330  139.6670 C   0  0  1  0  0  3  0  0  0  0  0  0
  1 21  1  0  0  0  0
  3 17  2  0  0  0  0
  4 22  1  0  0  0  0
  5 27  1  1  0  0  0
  5 24  1  0  0  0  0
  5 17  1  0  0  0  0
  6 23  1  0  0  0  0
  6  1  1  0  0  0  0
  8  7  2  0  0  0  0
  8  2  2  0  0  0  0
  9 13  2  0  0  0  0
  9 14  1  0  0  0  0
 10  8  1  6  0  0  0
 10 28  1  0  0  0  0
 12 25  1  0  0  0  0
 14  8  1  0  0  0  0
 15 11  2  0  0  0  0
 15 23  1  0  0  0  0
 16 20  1  0  0  0  0
 16  1  2  0  0  0  0
 17 25  1  0  0  0  0
 18  9  1  0  0  0  0
 19 15  1  0  0  0  0
 20  4  2  0  0  0  0
 21 22  2  0  0  0  0
 24 12  2  0  0  0  0
 25 19  1  6  0  0  0
 26 13  1  6  0  0  0
 26 24  1  0  0  0  0
 26 10  1  0  0  0  0
 28 12  1  6  0  0  0
 28 16  1  0  0  0  0
M  END
>  <MODEL>
1

>  <REMARK>
 VINA RESULT:      -6.2      0.000      0.000
  Name = 
  0 active torsions:
  status: ('A' for Active; 'I' for Inactive)
                            x       y       z     vdW  Elec       q    Type
                         _______ _______ _______ _____ _____    ______ ____

>  <TORSDO>
F 0

$$$$
=
 OpenBabel11122411493D

 28 32  0  0  1  0  0  0  0  0999 V2000
  181.3320  179.2090  140.1060 C   0  0  0  0  0  0  0  0  0  0  0  0
  180.4880  176.0420  137.9450 O   0  0  0  0  0  0  0  0  0  0  0  0
  187.3650  178.6270  140.0260 O   0  0  0  0  0  0  0  0  0  0  0  0
  180.7220  181.0150  138.0510 C   0  0  0  0  0  3  0  0  0  0  0  0
  186.3940  177.7700  138.0050 C   0  0  1  0  0  3  0  0  0  0  0  0
  181.6650  178.2860  141.2390 C   0  0  0  0  0  2  0  0  0  0  0  0
  180.8320  176.2960  135.5230 O   0  0  0  0  0  0  0  0  0  0  0  0
  181.5070  176.0470  136.8410 S   0  0  0  0  0  0  0  0  0  0  0  0
  183.7150  174.4390  137.0770 C   0  0  0  0  0  0  0  0  0  0  0  0
  182.7260  177.3080  137.1190 C   0  0  2  0  0  3  0  0  0  0  0  0
  184.6490  179.5030  142.8620 O   0  0  0  0  0  0  0  0  0  0  0  0
  184.1980  178.2570  138.6570 C   0  0  0  0  0  0  0  0  0  0  0  0
  184.4880  175.4850  137.1210 N   0  0  0  0  0  0  0  0  0  0  0  0
  182.3220  174.5340  136.7910 N   0  0  0  0  0  2  0  0  0  0  0  0
  183.9420  178.8270  142.0710 C   0  0  0  0  0  0  0  0  0  0  0  0
  181.8520  179.0000  138.8140 C   0  0  0  0  0  0  0  0  0  0  0  0
  186.3630  178.4080  139.3630 C   0  0  0  0  0  0  0  0  0  0  0  0
  184.2930  173.1070  137.3860 C   0  0  0  0  0  1  0  0  0  0  0  0
  184.6190  177.9450  141.0710 C   0  0  0  0  0  2  0  0  0  0  0  0
  181.5530  179.9210  137.7960 C   0  0  0  0  0  3  0  0  0  0  0  0
  180.5010  180.3070  140.3540 C   0  0  0  0  0  3  0  0  0  0  0  0
  180.1940  181.2060  139.3290 C   0  0  0  0  0  3  0  0  0  0  0  0
  182.5490  178.9260  142.1520 O   0  0  0  0  0  0  0  0  0  0  0  0
  184.9380  177.7590  137.6930 C   0  0  0  0  0  0  0  0  0  0  0  0
  184.9770  178.7470  139.8280 C   0  0  2  0  0  3  0  0  0  0  0  0
  184.1680  176.8760  136.7720 C   0  0  2  0  0  3  0  0  0  0  0  0
  187.1210  178.6700  137.0210 C   0  0  0  0  0  1  0  0  0  0  0  0
  182.7770  177.8430  138.5540 C   0  0  1  0  0  3  0  0  0  0  0  0
  1 21  1  0  0  0  0
  1  6  1  0  0  0  0
  4 22  1  0  0  0  0
  5 27  1  6  0  0  0
  5 17  1  0  0  0  0
  6 23  1  0  0  0  0
  7  8  2  0  0  0  0
  8  2  2  0  0  0  0
  9 13  2  0  0  0  0
  9 18  1  0  0  0  0
 10  8  1  1  0  0  0
 10 28  1  0  0  0  0
 12 25  1  0  0  0  0
 14  8  1  0  0  0  0
 14  9  1  0  0  0  0
 15 23  1  0  0  0  0
 15 11  2  0  0  0  0
 16  1  2  0  0  0  0
 17 25  1  0  0  0  0
 17  3  2  0  0  0  0
 19 15  1  0  0  0  0
 20  4  2  0  0  0  0
 20 16  1  0  0  0  0
 22 21  2  0  0  0  0
 24  5  1  0  0  0  0
 24 12  2  0  0  0  0
 25 19  1  1  0  0  0
 26 10  1  0  0  0  0
 26 13  1  1  0  0  0
 26 24  1  0  0  0  0
 28 12  1  6  0  0  0
 28 16  1  0  0  0  0
M  END
>  <MODEL>
2

>  <REMARK>
 VINA RESULT:      -6.0      3.101      5.136
  Name = 
  0 active torsions:
  status: ('A' for Active; 'I' for Inactive)
                            x       y       z     vdW  Elec       q    Type
                         _______ _______ _______ _____ _____    ______ ____

>  <TORSDO>
F 0

$$$$
=
 OpenBabel11122411493D

 28 32  0  0  1  0  0  0  0  0999 V2000
  185.9380  175.3040  136.6110 C   0  0  0  0  0  0  0  0  0  0  0  0
  182.6420  175.9920  134.5940 O   0  0  0  0  0  0  0  0  0  0  0  0
  185.3120  179.7540  140.6780 O   0  0  0  0  0  0  0  0  0  0  0  0
  184.9290  173.0020  137.8530 C   0  0  0  0  0  3  0  0  0  0  0  0
  183.1700  178.9260  139.9770 C   0  0  1  0  0  3  0  0  0  0  0  0
  186.5270  176.5230  135.9710 C   0  0  0  0  0  2  0  0  0  0  0  0
  180.5700  175.2030  135.6590 O   0  0  0  0  0  0  0  0  0  0  0  0
  181.6050  176.2910  135.6400 S   0  0  0  0  0  0  0  0  0  0  0  0
  180.9950  178.9080  136.1830 C   0  0  0  0  0  0  0  0  0  0  0  0
  182.3530  176.4110  137.2460 C   0  0  2  0  0  3  0  0  0  0  0  0
  188.3720  178.3510  138.4750 O   0  0  0  0  0  0  0  0  0  0  0  0
  184.0780  177.3510  138.5010 C   0  0  0  0  0  0  0  0  0  0  0  0
  181.4610  178.7790  137.3910 N   0  0  0  0  0  0  0  0  0  0  0  0
  180.8500  177.7970  135.3010 N   0  0  0  0  0  2  0  0  0  0  0  0
  187.3990  178.0220  137.7480 C   0  0  0  0  0  0  0  0  0  0  0  0
  184.6630  175.3320  137.2100 C   0  0  0  0  0  0  0  0  0  0  0  0
  184.6700  178.9780  139.9870 C   0  0  0  0  0  0  0  0  0  0  0  0
  180.6530  180.2650  135.6860 C   0  0  0  0  0  1  0  0  0  0  0  0
  186.0800  178.6930  137.9610 C   0  0  0  0  0  2  0  0  0  0  0  0
  184.1750  174.1770  137.8430 C   0  0  0  0  0  3  0  0  0  0  0  0
  186.6870  174.1210  136.6260 C   0  0  0  0  0  3  0  0  0  0  0  0
  186.1830  172.9730  137.2410 C   0  0  0  0  0  3  0  0  0  0  0  0
  187.5840  177.0390  136.7710 O   0  0  0  0  0  0  0  0  0  0  0  0
  182.9580  177.8320  138.9900 C   0  0  0  0  0  0  0  0  0  0  0  0
  185.3050  177.9820  139.0610 C   0  0  2  0  0  3  0  0  0  0  0  0
  181.7810  177.5460  138.1230 C   0  0  2  0  0  3  0  0  0  0  0  0
  182.6530  178.4950  141.3380 C   0  0  0  0  0  1  0  0  0  0  0  0
  183.8730  176.6120  137.2310 C   0  0  1  0  0  3  0  0  0  0  0  0
  1 21  2  0  0  0  0
  1 16  1  0  0  0  0
  2  8  2  0  0  0  0
  5 17  1  0  0  0  0
  5 27  1  1  0  0  0
  6  1  1  0  0  0  0
  6 23  1  0  0  0  0
  8  7  2  0  0  0  0
  9 13  2  0  0  0  0
 10  8  1  6  0  0  0
 10 26  1  0  0  0  0
 12 24  2  0  0  0  0
 12 25  1  0  0  0  0
 14  8  1  0  0  0  0
 14  9  1  0  0  0  0
 15 19  1  0  0  0  0
 15 11  2  0  0  0  0
 16 20  2  0  0  0  0
 17  3  2  0  0  0  0
 18  9  1  0  0  0  0
 20  4  1  0  0  0  0
 21 22  1  0  0  0  0
 22  4  2  0  0  0  0
 23 15  1  0  0  0  0
 24  5  1  0  0  0  0
 25 19  1  6  0  0  0
 25 17  1  0  0  0  0
 26 13  1  6  0  0  0
 26 24  1  0  0  0  0
 28 16  1  1  0  0  0
 28 10  1  0  0  0  0
 28 12  1  0  0  0  0
M  END
>  <MODEL>
3

>  <REMARK>
 VINA RESULT:      -5.6      3.191      6.516
  Name = 
  0 active torsions:
  status: ('A' for Active; 'I' for Inactive)
                            x       y       z     vdW  Elec       q    Type
                         _______ _______ _______ _____ _____    ______ ____

>  <TORSDO>
F 0

$$$$
=
 OpenBabel11122411493D

 28 32  0  0  1  0  0  0  0  0999 V2000
  184.1430  177.2590  138.1320 C   0  0  0  0  0  0  0  0  0  0  0  0
  181.1850  179.2510  136.4900 O   0  0  0  0  0  0  0  0  0  0  0  0
  183.2170  179.0500  143.8470 O   0  0  0  0  0  0  0  0  0  0  0  0
  182.8570  174.7780  137.9020 C   0  0  0  0  0  3  0  0  0  0  0  0
  181.1470  178.9450  142.6360 C   0  0  1  0  0  3  0  0  0  0  0  0
  184.8750  178.5580  138.2720 C   0  0  0  0  0  2  0  0  0  0  0  0
  178.9510  178.2720  136.8060 O   0  0  0  0  0  0  0  0  0  0  0  0
  180.0360  179.0900  137.4450 S   0  0  0  0  0  0  0  0  0  0  0  0
  179.4980  181.1140  139.2140 C   0  0  0  0  0  0  0  0  0  0  0  0
  180.5690  178.2880  138.9370 C   0  0  2  0  0  3  0  0  0  0  0  0
  186.4650  178.6280  141.5110 O   0  0  0  0  0  0  0  0  0  0  0  0
  182.1580  178.2520  140.6410 C   0  0  0  0  0  0  0  0  0  0  0  0
  179.7910  180.3350  140.2150 N   0  0  0  0  0  0  0  0  0  0  0  0
  179.4130  180.6340  137.8750 N   0  0  0  0  0  2  0  0  0  0  0  0
  185.5810  178.8290  140.6380 C   0  0  0  0  0  0  0  0  0  0  0  0
  182.8030  177.1230  138.5450 C   0  0  0  0  0  0  0  0  0  0  0  0
  182.6330  178.8130  142.8010 C   0  0  0  0  0  0  0  0  0  0  0  0
  179.2970  182.5630  139.4690 C   0  0  0  0  0  1  0  0  0  0  0  0
  184.2820  179.4430  141.0530 C   0  0  0  0  0  2  0  0  0  0  0  0
  182.1750  175.8710  138.4400 C   0  0  0  0  0  3  0  0  0  0  0  0
  184.8200  176.1580  137.5940 C   0  0  0  0  0  3  0  0  0  0  0  0
  184.1790  174.9230  137.4760 C   0  0  0  0  0  3  0  0  0  0  0  0
  185.8420  178.4690  139.3120 O   0  0  0  0  0  0  0  0  0  0  0  0
  181.0110  178.5400  141.2100 C   0  0  0  0  0  0  0  0  0  0  0  0
  183.3320  178.3640  141.5510 C   0  0  2  0  0  3  0  0  0  0  0  0
  179.9460  178.8740  140.2230 C   0  0  2  0  0  3  0  0  0  0  0  0
  180.4310  177.9430  143.5240 C   0  0  0  0  0  1  0  0  0  0  0  0
  182.0850  178.2940  139.1600 C   0  0  1  0  0  3  0  0  0  0  0  0
  1  6  1  0  0  0  0
  1 16  1  0  0  0  0
  2  8  2  0  0  0  0
  4 20  1  0  0  0  0
  5 17  1  0  0  0  0
  5 27  1  1  0  0  0
  6 23  1  0  0  0  0
  7  8  2  0  0  0  0
  8 14  1  0  0  0  0
  9 18  1  0  0  0  0
  9 13  2  0  0  0  0
 10  8  1  6  0  0  0
 10 28  1  0  0  0  0
 10 26  1  0  0  0  0
 12 24  2  0  0  0  0
 12 25  1  0  0  0  0
 14  9  1  0  0  0  0
 15 19  1  0  0  0  0
 15 11  2  0  0  0  0
 17  3  2  0  0  0  0
 20 16  2  0  0  0  0
 21  1  2  0  0  0  0
 22 21  1  0  0  0  0
 22  4  2  0  0  0  0
 23 15  1  0  0  0  0
 24  5  1  0  0  0  0
 25 19  1  6  0  0  0
 25 17  1  0  0  0  0
 26 13  1  6  0  0  0
 26 24  1  0  0  0  0
 28 16  1  6  0  0  0
 28 12  1  0  0  0  0
M  END
>  <MODEL>
4

>  <REMARK>
 VINA RESULT:      -5.4      2.699      5.487
  Name = 
  0 active torsions:
  status: ('A' for Active; 'I' for Inactive)
                            x       y       z     vdW  Elec       q    Type
                         _______ _______ _______ _____ _____    ______ ____

>  <TORSDO>
F 0

$$$$
=
 OpenBabel11122411493D

 28 32  0  0  1  0  0  0  0  0999 V2000
  180.7790  180.6210  138.7410 C   0  0  0  0  0  0  0  0  0  0  0  0
  184.6150  180.2330  139.4790 O   0  0  0  0  0  0  0  0  0  0  0  0
  180.3290  176.2240  134.5940 O   0  0  0  0  0  0  0  0  0  0  0  0
  179.9950  179.4530  141.1660 C   0  0  0  0  0  3  0  0  0  0  0  0
  182.0260  175.7060  136.2130 C   0  0  1  0  0  3  0  0  0  0  0  0
  181.1450  181.2570  137.4360 C   0  0  0  0  0  2  0  0  0  0  0  0
  185.2250  178.3330  140.9170 O   0  0  0  0  0  0  0  0  0  0  0  0
  184.8510  178.7490  139.5240 S   0  0  0  0  0  0  0  0  0  0  0  0
  185.8610  177.5070  137.2990 C   0  0  0  0  0  0  0  0  0  0  0  0
  183.3920  177.8680  139.0250 C   0  0  2  0  0  3  0  0  0  0  0  0
  178.9310  179.9850  134.8860 O   0  0  0  0  0  0  0  0  0  0  0  0
  181.7070  177.6840  137.4250 C   0  0  0  0  0  0  0  0  0  0  0  0
  184.7600  176.8270  137.1620 N   0  0  0  0  0  0  0  0  0  0  0  0
  186.1140  178.3250  138.4380 N   0  0  0  0  0  2  0  0  0  0  0  0
  179.9610  180.0690  135.6050 C   0  0  0  0  0  0  0  0  0  0  0  0
  181.3630  179.4070  139.1550 C   0  0  0  0  0  0  0  0  0  0  0  0
  180.9440  176.5470  135.6000 C   0  0  0  0  0  0  0  0  0  0  0  0
  186.8660  177.4710  136.2070 C   0  0  0  0  0  1  0  0  0  0  0  0
  181.0240  179.0260  135.4670 C   0  0  0  0  0  2  0  0  0  0  0  0
  180.9500  178.8230  140.3640 C   0  0  0  0  0  3  0  0  0  0  0  0
  179.8230  181.2450  139.5510 C   0  0  0  0  0  3  0  0  0  0  0  0
  179.4350  180.6650  140.7620 C   0  0  0  0  0  3  0  0  0  0  0  0
  180.0740  181.1300  136.5090 O   0  0  0  0  0  0  0  0  0  0  0  0
  182.3960  176.5670  137.3690 C   0  0  0  0  0  0  0  0  0  0  0  0
  180.6940  177.8260  136.3430 C   0  0  2  0  0  3  0  0  0  0  0  0
  183.6730  176.6400  138.1330 C   0  0  2  0  0  3  0  0  0  0  0  0
  181.4480  174.3950  136.7150 C   0  0  0  0  0  1  0  0  0  0  0  0
  182.3610  178.7140  138.2680 C   0  0  1  0  0  3  0  0  0  0  0  0
  1 16  2  0  0  0  0
  1 21  1  0  0  0  0
  2  8  2  0  0  0  0
  3 17  2  0  0  0  0
  5 27  1  1  0  0  0
  5 24  1  0  0  0  0
  6  1  1  0  0  0  0
  8  7  2  0  0  0  0
  9 14  1  0  0  0  0
 10  8  1  6  0  0  0
 11 15  2  0  0  0  0
 13  9  2  0  0  0  0
 14  8  1  0  0  0  0
 15 23  1  0  0  0  0
 16 20  1  0  0  0  0
 17  5  1  0  0  0  0
 17 25  1  0  0  0  0
 18  9  1  0  0  0  0
 19 15  1  0  0  0  0
 20  4  2  0  0  0  0
 21 22  2  0  0  0  0
 22  4  1  0  0  0  0
 23  6  1  0  0  0  0
 24 12  2  0  0  0  0
 24 26  1  0  0  0  0
 25 19  1  6  0  0  0
 25 12  1  0  0  0  0
 26 13  1  6  0  0  0
 26 10  1  0  0  0  0
 28 12  1  6  0  0  0
 28 10  1  0  0  0  0
 28 16  1  0  0  0  0
M  END
>  <MODEL>
5

>  <REMARK>
 VINA RESULT:      -5.4      3.165      4.542
  Name = 
  0 active torsions:
  status: ('A' for Active; 'I' for Inactive)
                            x       y       z     vdW  Elec       q    Type
                         _______ _______ _______ _____ _____    ______ ____

>  <TORSDO>
F 0

$$$$
=
 OpenBabel11122411493D

 28 32  0  0  1  0  0  0  0  0999 V2000
  185.2830  176.5620  137.3890 C   0  0  0  0  0  0  0  0  0  0  0  0
  182.7420  177.9100  134.7170 O   0  0  0  0  0  0  0  0  0  0  0  0
  182.6430  178.9870  142.2760 O   0  0  0  0  0  0  0  0  0  0  0  0
  184.3340  173.9280  137.2480 C   0  0  0  0  0  3  0  0  0  0  0  0
  181.0110  178.4490  140.5980 C   0  0  1  0  0  3  0  0  0  0  0  0
  185.8310  177.9520  137.4970 C   0  0  0  0  0  2  0  0  0  0  0  0
  180.6020  176.7020  134.5940 O   0  0  0  0  0  0  0  0  0  0  0  0
  181.3890  177.7340  135.3490 S   0  0  0  0  0  0  0  0  0  0  0  0
  180.2040  179.8950  136.5490 C   0  0  0  0  0  0  0  0  0  0  0  0
  181.5510  177.2210  137.0410 C   0  0  2  0  0  3  0  0  0  0  0  0
  186.4380  178.6720  140.9800 O   0  0  0  0  0  0  0  0  0  0  0  0
  182.5970  177.6250  139.0850 C   0  0  0  0  0  0  0  0  0  0  0  0
  180.2720  179.3060  137.7080 N   0  0  0  0  0  0  0  0  0  0  0  0
  180.5400  179.2280  135.3350 N   0  0  0  0  0  2  0  0  0  0  0  0
  185.8200  178.6350  139.8840 C   0  0  0  0  0  0  0  0  0  0  0  0
  183.8980  176.3120  137.4520 C   0  0  0  0  0  0  0  0  0  0  0  0
  182.3980  178.5350  141.1670 C   0  0  0  0  0  0  0  0  0  0  0  0
  179.8150  181.3270  136.4950 C   0  0  0  0  0  1  0  0  0  0  0  0
  184.4090  179.1270  139.8350 C   0  0  0  0  0  2  0  0  0  0  0  0
  183.4360  174.9870  137.3970 C   0  0  0  0  0  3  0  0  0  0  0  0
  186.1770  175.4950  137.2400 C   0  0  0  0  0  3  0  0  0  0  0  0
  185.7040  174.1820  137.1670 C   0  0  0  0  0  3  0  0  0  0  0  0
  186.4720  178.1320  138.7530 O   0  0  0  0  0  0  0  0  0  0  0  0
  181.3150  177.8380  139.2750 C   0  0  0  0  0  0  0  0  0  0  0  0
  183.4540  178.0130  140.2390 C   0  0  2  0  0  3  0  0  0  0  0  0
  180.5450  177.8920  138.0010 C   0  0  2  0  0  3  0  0  0  0  0  0
  180.1650  177.4940  141.4210 C   0  0  0  0  0  1  0  0  0  0  0  0
  182.9380  177.4530  137.6510 C   0  0  1  0  0  3  0  0  0  0  0  0
  1 16  1  0  0  0  0
  1  6  1  0  0  0  0
  2  8  2  0  0  0  0
  4 20  1  0  0  0  0
  5 17  1  0  0  0  0
  5 27  1  1  0  0  0
  6 23  1  0  0  0  0
  7  8  2  0  0  0  0
  9 13  2  0  0  0  0
 10  8  1  6  0  0  0
 10 28  1  0  0  0  0
 10 26  1  0  0  0  0
 12 24  2  0  0  0  0
 12 25  1  0  0  0  0
 14  8  1  0  0  0  0
 14  9  1  0  0  0  0
 15 11  2  0  0  0  0
 17  3  2  0  0  0  0
 18  9  1  0  0  0  0
 19 15  1  0  0  0  0
 20 16  2  0  0  0  0
 21  1  2  0  0  0  0
 22 21  1  0  0  0  0
 22  4  2  0  0  0  0
 23 15  1  0  0  0  0
 24  5  1  0  0  0  0
 25 19  1  6  0  0  0
 25 17  1  0  0  0  0
 26 13  1  6  0  0  0
 26 24  1  0  0  0  0
 28 16  1  1  0  0  0
 28 12  1  0  0  0  0
M  END
>  <MODEL>
6

>  <REMARK>
 VINA RESULT:      -5.1      2.773      5.616
  Name = 
  0 active torsions:
  status: ('A' for Active; 'I' for Inactive)
                            x       y       z     vdW  Elec       q    Type
                         _______ _______ _______ _____ _____    ______ ____

>  <TORSDO>
F 0

$$$$
=
 OpenBabel11122411493D

 28 32  0  0  1  0  0  0  0  0999 V2000
  188.2960  173.9800  136.5710 C   0  0  0  0  0  0  0  0  0  0  0  0
  188.6920  176.8420  139.2300 O   0  0  0  0  0  0  0  0  0  0  0  0
  182.4480  174.9140  135.2810 O   0  0  0  0  0  0  0  0  0  0  0  0
  189.7330  175.3530  134.5940 C   0  0  0  0  0  3  0  0  0  0  0  0
  183.5330  176.9710  135.8780 C   0  0  1  0  0  3  0  0  0  0  0  0
  187.5270  173.2030  137.5950 C   0  0  0  0  0  2  0  0  0  0  0  0
  188.8960  179.1140  138.3110 O   0  0  0  0  0  0  0  0  0  0  0  0
  187.9400  178.0080  138.6550 S   0  0  0  0  0  0  0  0  0  0  0  0
  185.3890  178.4950  139.5340 C   0  0  0  0  0  0  0  0  0  0  0  0
  187.0570  177.5250  137.1920 C   0  0  2  0  0  3  0  0  0  0  0  0
  184.7040  171.6540  135.9660 O   0  0  0  0  0  0  0  0  0  0  0  0
  185.6140  175.9600  136.2430 C   0  0  0  0  0  0  0  0  0  0  0  0
  184.9180  178.2430  138.3470 N   0  0  0  0  0  0  0  0  0  0  0  0
  186.7870  178.5800  139.7960 N   0  0  0  0  0  2  0  0  0  0  0  0
  185.3510  172.5190  136.6130 C   0  0  0  0  0  0  0  0  0  0  0  0
  187.9970  175.3300  136.2980 C   0  0  0  0  0  0  0  0  0  0  0  0
  183.4680  175.4930  135.6250 C   0  0  0  0  0  0  0  0  0  0  0  0
  184.4400  178.6460  140.6660 C   0  0  0  0  0  1  0  0  0  0  0  0
  184.6740  173.7990  136.9840 C   0  0  0  0  0  2  0  0  0  0  0  0
  188.7130  176.0020  135.2930 C   0  0  0  0  0  3  0  0  0  0  0  0
  189.3190  173.3370  135.8650 C   0  0  0  0  0  3  0  0  0  0  0  0
  190.0380  174.0220  134.8820 C   0  0  0  0  0  3  0  0  0  0  0  0
  186.6800  172.2540  136.9580 O   0  0  0  0  0  0  0  0  0  0  0  0
  184.9690  177.1040  136.2500 C   0  0  0  0  0  0  0  0  0  0  0  0
  184.7790  174.7950  135.8380 C   0  0  2  0  0  3  0  0  0  0  0  0
  185.6470  178.1430  137.0750 C   0  0  2  0  0  3  0  0  0  0  0  0
  183.2650  177.7350  134.5940 C   0  0  0  0  0  1  0  0  0  0  0  0
  186.8720  176.0120  137.0270 C   0  0  1  0  0  3  0  0  0  0  0  0
  1  6  1  0  0  0  0
  3 17  2  0  0  0  0
  4 22  2  0  0  0  0
  4 20  1  0  0  0  0
  5 27  1  6  0  0  0
  5 24  1  0  0  0  0
  7  8  2  0  0  0  0
  8  2  2  0  0  0  0
  8 14  1  0  0  0  0
  9 14  1  0  0  0  0
  9 18  1  0  0  0  0
 10  8  1  1  0  0  0
 11 15  2  0  0  0  0
 12 24  2  0  0  0  0
 13  9  2  0  0  0  0
 15 23  1  0  0  0  0
 15 19  1  0  0  0  0
 16  1  1  0  0  0  0
 16 28  1  0  0  0  0
 17 25  1  0  0  0  0
 17  5  1  0  0  0  0
 20 16  2  0  0  0  0
 21  1  2  0  0  0  0
 22 21  1  0  0  0  0
 23  6  1  0  0  0  0
 25 12  1  0  0  0  0
 25 19  1  1  0  0  0
 26 24  1  6  0  0  0
 26 10  1  0  0  0  0
 26 13  1  0  0  0  0
 28 12  1  6  0  0  0
 28 10  1  0  0  0  0
M  END
>  <MODEL>
7

>  <REMARK>
 VINA RESULT:      -5.1      4.622      7.577
  Name = 
  0 active torsions:
  status: ('A' for Active; 'I' for Inactive)
                            x       y       z     vdW  Elec       q    Type
                         _______ _______ _______ _____ _____    ______ ____

>  <TORSDO>
F 0

$$$$
=
 OpenBabel11122411493D

 28 32  0  0  1  0  0  0  0  0999 V2000
  182.4850  177.4210  137.9300 C   0  0  0  0  0  0  0  0  0  0  0  0
  182.9440  173.6360  136.9950 O   0  0  0  0  0  0  0  0  0  0  0  0
  188.3310  179.0020  137.6920 O   0  0  0  0  0  0  0  0  0  0  0  0
  181.4150  178.1100  135.4320 C   0  0  0  0  0  3  0  0  0  0  0  0
  187.8550  177.2420  136.1300 C   0  0  1  0  0  3  0  0  0  0  0  0
  183.0450  177.1040  139.2820 C   0  0  0  0  0  2  0  0  0  0  0  0
  183.3330  173.1790  134.6090 O   0  0  0  0  0  0  0  0  0  0  0  0
  183.9660  173.6330  135.8930 S   0  0  0  0  0  0  0  0  0  0  0  0
  186.5770  173.0770  136.5180 C   0  0  0  0  0  0  0  0  0  0  0  0
  184.6460  175.2570  135.6650 C   0  0  2  0  0  3  0  0  0  0  0  0
  185.3030  179.7540  140.2320 O   0  0  0  0  0  0  0  0  0  0  0  0
  185.5900  177.1140  136.7120 C   0  0  0  0  0  0  0  0  0  0  0  0
  186.9300  174.2800  136.1680 N   0  0  0  0  0  0  0  0  0  0  0  0
  185.2610  172.5770  136.3000 N   0  0  0  0  0  2  0  0  0  0  0  0
  184.9300  178.6510  139.7530 C   0  0  0  0  0  0  0  0  0  0  0  0
  183.1270  176.9940  136.7510 C   0  0  0  0  0  0  0  0  0  0  0  0
  187.5140  178.2390  137.1990 C   0  0  0  0  0  0  0  0  0  0  0  0
  187.5630  172.2150  137.2170 C   0  0  0  0  0  1  0  0  0  0  0  0
  185.9350  177.7860  139.0630 C   0  0  0  0  0  2  0  0  0  0  0  0
  182.5910  177.3590  135.5050 C   0  0  0  0  0  3  0  0  0  0  0  0
  181.3070  178.1730  137.8470 C   0  0  0  0  0  3  0  0  0  0  0  0
  180.7720  178.5140  136.6030 C   0  0  0  0  0  3  0  0  0  0  0  0
  183.5880  178.2760  139.8780 O   0  0  0  0  0  0  0  0  0  0  0  0
  186.5180  176.6190  135.9260 C   0  0  0  0  0  0  0  0  0  0  0  0
  186.0700  178.2030  137.6060 C   0  0  2  0  0  3  0  0  0  0  0  0
  186.1670  175.2710  135.3970 C   0  0  2  0  0  3  0  0  0  0  0  0
  188.2830  177.9610  134.8620 C   0  0  0  0  0  1  0  0  0  0  0  0
  184.4140  176.2190  136.8360 C   0  0  1  0  0  3  0  0  0  0  0  0
  1  6  1  0  0  0  0
  4 20  2  0  0  0  0
  4 22  1  0  0  0  0
  5 27  1  6  0  0  0
  5 17  1  0  0  0  0
  6 23  1  0  0  0  0
  7  8  2  0  0  0  0
  8 14  1  0  0  0  0
  8  2  2  0  0  0  0
  9 18  1  0  0  0  0
 10  8  1  1  0  0  0
 10 28  1  0  0  0  0
 12 25  1  0  0  0  0
 13  9  2  0  0  0  0
 14  9  1  0  0  0  0
 15 23  1  0  0  0  0
 15 11  2  0  0  0  0
 16 28  1  0  0  0  0
 16  1  2  0  0  0  0
 17 25  1  0  0  0  0
 17  3  2  0  0  0  0
 19 15  1  0  0  0  0
 20 16  1  0  0  0  0
 21  1  1  0  0  0  0
 22 21  2  0  0  0  0
 24  5  1  0  0  0  0
 24 12  2  0  0  0  0
 25 19  1  1  0  0  0
 26 10  1  0  0  0  0
 26 24  1  1  0  0  0
 26 13  1  0  0  0  0
 28 12  1  6  0  0  0
M  END
>  <MODEL>
8

>  <REMARK>
 VINA RESULT:      -5.0      4.113      6.995
  Name = 
  0 active torsions:
  status: ('A' for Active; 'I' for Inactive)
                            x       y       z     vdW  Elec       q    Type
                         _______ _______ _______ _____ _____    ______ ____

>  <TORSDO>
F 0

$$$$
=
 OpenBabel11122411493D

 28 32  0  0  1  0  0  0  0  0999 V2000
  186.2340  175.6780  136.6850 C   0  0  0  0  0  0  0  0  0  0  0  0
  188.2640  176.8690  139.8270 O   0  0  0  0  0  0  0  0  0  0  0  0
  180.7810  177.6020  138.5000 O   0  0  0  0  0  0  0  0  0  0  0  0
  187.2350  177.7060  135.0280 C   0  0  0  0  0  3  0  0  0  0  0  0
  182.5190  179.0210  139.3550 C   0  0  1  0  0  3  0  0  0  0  0  0
  185.6750  174.5730  137.5270 C   0  0  0  0  0  2  0  0  0  0  0  0
  188.7550  179.2770  139.9150 O   0  0  0  0  0  0  0  0  0  0  0  0
  187.7090  178.2270  140.1530 S   0  0  0  0  0  0  0  0  0  0  0  0
  185.8380  178.4430  142.1450 C   0  0  0  0  0  0  0  0  0  0  0  0
  186.2890  178.5800  139.1470 C   0  0  2  0  0  3  0  0  0  0  0  0
  182.1600  174.2370  136.7800 O   0  0  0  0  0  0  0  0  0  0  0  0
  184.2430  177.7890  138.3590 C   0  0  0  0  0  0  0  0  0  0  0  0
  184.9450  178.8320  141.2820 N   0  0  0  0  0  0  0  0  0  0  0  0
  187.2100  178.2750  141.7970 N   0  0  0  0  0  2  0  0  0  0  0  0
  183.1960  174.6280  137.3790 C   0  0  0  0  0  0  0  0  0  0  0  0
  186.2390  177.0130  137.1360 C   0  0  0  0  0  0  0  0  0  0  0  0
  181.9730  177.8570  138.5800 C   0  0  0  0  0  0  0  0  0  0  0  0
  185.4040  178.1110  143.5260 C   0  0  0  0  0  1  0  0  0  0  0  0
  183.0590  175.6250  138.4850 C   0  0  0  0  0  2  0  0  0  0  0  0
  186.7280  178.0220  136.2900 C   0  0  0  0  0  3  0  0  0  0  0  0
  186.7440  175.3700  135.4190 C   0  0  0  0  0  3  0  0  0  0  0  0
  187.2460  176.3790  134.5940 C   0  0  0  0  0  3  0  0  0  0  0  0
  184.4390  174.1200  136.9870 O   0  0  0  0  0  0  0  0  0  0  0  0
  183.9740  178.8380  139.1010 C   0  0  0  0  0  0  0  0  0  0  0  0
  183.0380  177.0360  137.9150 C   0  0  2  0  0  3  0  0  0  0  0  0
  185.1460  179.2940  139.9010 C   0  0  2  0  0  3  0  0  0  0  0  0
  182.0510  180.3270  138.7380 C   0  0  0  0  0  1  0  0  0  0  0  0
  185.6560  177.3530  138.4800 C   0  0  1  0  0  3  0  0  0  0  0  0
  1 16  1  0  0  0  0
  1  6  1  0  0  0  0
  2  8  2  0  0  0  0
  3 17  2  0  0  0  0
  4 20  1  0  0  0  0
  5 27  1  6  0  0  0
  7  8  2  0  0  0  0
  8 14  1  0  0  0  0
  9 18  1  0  0  0  0
 10 26  1  0  0  0  0
 10  8  1  1  0  0  0
 11 15  2  0  0  0  0
 12 28  1  0  0  0  0
 12 24  2  0  0  0  0
 13  9  2  0  0  0  0
 14  9  1  0  0  0  0
 15 19  1  0  0  0  0
 17  5  1  0  0  0  0
 20 16  2  0  0  0  0
 21  1  2  0  0  0  0
 22  4  2  0  0  0  0
 22 21  1  0  0  0  0
 23 15  1  0  0  0  0
 23  6  1  0  0  0  0
 24  5  1  0  0  0  0
 25 12  1  0  0  0  0
 25 19  1  1  0  0  0
 25 17  1  0  0  0  0
 26 24  1  6  0  0  0
 26 13  1  0  0  0  0
 28 16  1  6  0  0  0
 28 10  1  0  0  0  0
M  END
>  <MODEL>
9

>  <REMARK>
 VINA RESULT:      -4.8      3.925      6.665
  Name = 
  0 active torsions:
  status: ('A' for Active; 'I' for Inactive)
                            x       y       z     vdW  Elec       q    Type
                         _______ _______ _______ _____ _____    ______ ____

>  <TORSDO>
F 0

$$$$
