=
 OpenBabel11122412203D

 34 40  0  0  0  0  0  0  0  0999 V2000
  185.3530  178.5170  140.9360 C   0  0  0  0  0  0  0  0  0  0  0  0
  187.6010  178.0130  142.0820 C   0  0  0  0  0  3  0  0  0  0  0  0
  180.0860  176.9900  140.0200 O   0  0  0  0  0  0  0  0  0  0  0  0
  183.1310  179.0510  139.9120 C   0  0  0  0  0  0  0  0  0  0  0  0
  181.2570  179.2960  141.4010 N   0  0  0  0  0  0  0  0  0  0  0  0
  179.2590  178.0160  142.0320 C   0  0  0  0  0  2  0  0  0  0  0  0
  178.9420  177.1580  140.8110 C   0  0  0  0  0  2  0  0  0  0  0  0
  179.6520  178.9910  138.7110 C   0  0  0  0  0  2  0  0  0  0  0  0
  185.6050  178.3350  143.3430 C   0  0  0  0  0  0  0  0  0  0  0  0
  185.5170  178.1740  146.4450 C   0  0  0  0  0  3  0  0  0  0  0  0
  182.1050  179.0750  142.5390 C   0  0  0  0  0  3  0  0  0  0  0  0
  180.9960  179.6990  138.8570 C   0  0  0  0  0  2  0  0  0  0  0  0
  184.2390  178.6000  143.5580 C   0  0  0  0  0  0  0  0  0  0  0  0
  187.9060  177.8730  143.4990 N   0  0  0  0  0  0  0  0  0  0  0  0
  181.8180  179.3080  140.0660 C   0  0  0  0  0  0  0  0  0  0  0  0
  179.7500  177.4620  138.7410 C   0  0  0  0  0  2  0  0  0  0  0  0
  186.7080  177.9890  145.5980 C   0  0  0  0  0  0  0  0  0  0  0  0
  183.9820  178.8000  141.1080 C   0  0  0  0  0  0  0  0  0  0  0  0
  179.8210  179.3860  141.6490 C   0  0  0  0  0  2  0  0  0  0  0  0
  183.4200  178.8320  142.4100 C   0  0  0  0  0  0  0  0  0  0  0  0
  184.9730  178.1530  138.4910 C   0  0  0  0  0  2  0  0  0  0  0  0
  184.2630  178.4440  146.1050 C   0  0  0  0  0  3  0  0  0  0  0  0
  183.7780  179.0960  138.5500 C   0  0  0  0  0  2  0  0  0  0  0  0
  183.6780  178.6400  144.7750 C   0  0  0  0  0  3  0  0  0  0  0  0
  186.7120  178.0650  144.2590 C   0  0  0  0  0  0  0  0  0  0  0  0
  185.9830  178.5300  139.5700 C   0  0  0  0  0  2  0  0  0  0  0  0
  186.1370  178.3000  142.0670 C   0  0  0  0  0  0  0  0  0  0  0  0
  187.9890  177.6980  146.2750 C   0  0  0  0  0  3  0  0  0  0  0  0
  188.9920  177.0430  145.6920 C   0  0  0  0  0  3  0  0  0  0  0  0
  192.3620  175.9600  146.9240 C   0  0  0  0  0  2  0  0  0  0  0  0
  190.4150  177.1650  147.7570 C   0  0  0  0  0  2  0  0  0  0  0  0
  190.2170  176.7800  146.3790 N   0  0  0  0  0  0  0  0  0  0  0  0
  191.8600  176.8290  148.0710 C   0  0  0  0  0  2  0  0  0  0  0  0
  191.3650  176.1200  145.7930 C   0  0  0  0  0  2  0  0  0  0  0  0
  1 18  2  0  0  0  0
  1 27  1  0  0  0  0
  2 14  1  0  0  0  0
  3  7  1  0  0  0  0
  4 15  2  0  0  0  0
  4 18  1  0  0  0  0
  5 19  1  0  0  0  0
  5 11  1  0  0  0  0
  7  6  1  0  0  0  0
  8 16  1  0  0  0  0
  8 12  1  0  0  0  0
  9 13  2  0  0  0  0
  9 25  1  0  0  0  0
 12 15  1  0  0  0  0
 13 24  1  0  0  0  0
 14 25  2  0  0  0  0
 15  5  1  0  0  0  0
 16  3  1  0  0  0  0
 17 28  1  0  0  0  0
 17 10  2  0  0  0  0
 18 20  1  0  0  0  0
 19  6  1  0  0  0  0
 20 11  2  0  0  0  0
 20 13  1  0  0  0  0
 21 23  1  0  0  0  0
 21 26  1  0  0  0  0
 22 10  1  0  0  0  0
 23  4  1  0  0  0  0
 24 22  2  0  0  0  0
 25 17  1  0  0  0  0
 26  1  1  0  0  0  0
 27  2  2  0  0  0  0
 27  9  1  0  0  0  0
 29 28  2  0  0  0  0
 29 32  1  0  0  0  0
 30 33  1  0  0  0  0
 31 33  1  0  0  0  0
 32 31  1  0  0  0  0
 34 32  1  0  0  0  0
 34 30  1  0  0  0  0
M  END
>  <MODEL>
1

>  <REMARK>
 VINA RESULT:     -10.1      0.000      0.000
  Name = 
  2 active torsions:
  status: ('A' for Active; 'I' for Inactive)
    1  A    between atoms: C_17  and  C_28
    2  A    between atoms: C_29  and  N_32
                            x       y       z     vdW  Elec       q    Type
                         _______ _______ _______ _____ _____    ______ ____

>  <TORSDO>
F 2

$$$$
=
 OpenBabel11122412203D

 34 40  0  0  0  0  0  0  0  0999 V2000
  182.3890  178.6740  143.3990 C   0  0  0  0  0  0  0  0  0  0  0  0
  184.0750  178.2640  145.3000 C   0  0  0  0  0  3  0  0  0  0  0  0
  180.6830  181.9480  139.2420 O   0  0  0  0  0  0  0  0  0  0  0  0
  180.8200  179.0320  141.4810 C   0  0  0  0  0  0  0  0  0  0  0  0
  181.7840  179.2310  139.2850 N   0  0  0  0  0  0  0  0  0  0  0  0
  182.2140  181.0050  137.6430 C   0  0  0  0  0  2  0  0  0  0  0  0
  181.1560  182.0660  137.9270 C   0  0  0  0  0  2  0  0  0  0  0  0
  178.9310  180.3820  138.6250 C   0  0  0  0  0  2  0  0  0  0  0  0
  184.7790  178.4590  143.0320 C   0  0  0  0  0  0  0  0  0  0  0  0
  187.7530  178.2480  142.1580 C   0  0  0  0  0  3  0  0  0  0  0  0
  183.0990  179.0160  139.8200 C   0  0  0  0  0  3  0  0  0  0  0  0
  179.2170  179.2590  139.6180 C   0  0  0  0  0  2  0  0  0  0  0  0
  184.6330  178.6330  141.6420 C   0  0  0  0  0  0  0  0  0  0  0  0
  185.5220  178.1170  145.2370 N   0  0  0  0  0  0  0  0  0  0  0  0
  180.6300  179.2040  140.1590 C   0  0  0  0  0  0  0  0  0  0  0  0
  179.2930  181.7770  139.1440 C   0  0  0  0  0  2  0  0  0  0  0  0
  187.2420  178.1370  143.5350 C   0  0  0  0  0  0  0  0  0  0  0  0
  182.1990  178.8380  142.0110 C   0  0  0  0  0  0  0  0  0  0  0  0
  181.6910  179.5860  137.8720 C   0  0  0  0  0  2  0  0  0  0  0  0
  183.3130  178.8290  141.1330 C   0  0  0  0  0  0  0  0  0  0  0  0
  180.0480  179.4480  143.8160 C   0  0  0  0  0  2  0  0  0  0  0  0
  187.1010  178.4500  141.0190 C   0  0  0  0  0  3  0  0  0  0  0  0
  179.6520  178.9500  142.4310 C   0  0  0  0  0  2  0  0  0  0  0  0
  185.6650  178.6250  140.7860 C   0  0  0  0  0  3  0  0  0  0  0  0
  185.9490  178.2330  143.8790 C   0  0  0  0  0  0  0  0  0  0  0  0
  181.2200  178.6280  144.3440 C   0  0  0  0  0  2  0  0  0  0  0  0
  183.6840  178.4780  143.8760 C   0  0  0  0  0  0  0  0  0  0  0  0
  188.2260  177.9040  144.6120 C   0  0  0  0  0  3  0  0  0  0  0  0
  189.2340  177.0380  144.5070 C   0  0  0  0  0  3  0  0  0  0  0  0
  192.0750  176.1970  146.8010 C   0  0  0  0  0  2  0  0  0  0  0  0
  189.8230  177.1150  146.9460 C   0  0  0  0  0  2  0  0  0  0  0  0
  190.1670  176.8400  145.5710 N   0  0  0  0  0  0  0  0  0  0  0  0
  191.1000  176.9010  147.7360 C   0  0  0  0  0  2  0  0  0  0  0  0
  191.5210  176.3570  145.3990 C   0  0  0  0  0  2  0  0  0  0  0  0
  1 27  1  0  0  0  0
  1 26  1  0  0  0  0
  4 18  1  0  0  0  0
  4 23  1  0  0  0  0
  5 11  1  0  0  0  0
  5 15  1  0  0  0  0
  6 19  1  0  0  0  0
  6  7  1  0  0  0  0
  7  3  1  0  0  0  0
  8 16  1  0  0  0  0
  8 12  1  0  0  0  0
  9 27  1  0  0  0  0
  9 25  1  0  0  0  0
 10 17  2  0  0  0  0
 11 20  2  0  0  0  0
 12 15  1  0  0  0  0
 13  9  2  0  0  0  0
 14  2  1  0  0  0  0
 15  4  2  0  0  0  0
 16  3  1  0  0  0  0
 17 25  1  0  0  0  0
 17 28  1  0  0  0  0
 18  1  2  0  0  0  0
 19  5  1  0  0  0  0
 20 13  1  0  0  0  0
 20 18  1  0  0  0  0
 21 26  1  0  0  0  0
 22 10  1  0  0  0  0
 23 21  1  0  0  0  0
 24 22  2  0  0  0  0
 24 13  1  0  0  0  0
 25 14  2  0  0  0  0
 27  2  2  0  0  0  0
 29 28  2  0  0  0  0
 29 32  1  0  0  0  0
 30 33  1  0  0  0  0
 31 33  1  0  0  0  0
 32 31  1  0  0  0  0
 34 32  1  0  0  0  0
 34 30  1  0  0  0  0
M  END
>  <MODEL>
2

>  <REMARK>
 VINA RESULT:      -9.5      1.614      3.650
  Name = 
  2 active torsions:
  status: ('A' for Active; 'I' for Inactive)
    1  A    between atoms: C_17  and  C_28
    2  A    between atoms: C_29  and  N_32
                            x       y       z     vdW  Elec       q    Type
                         _______ _______ _______ _____ _____    ______ ____

>  <TORSDO>
F 2

$$$$
=
 OpenBabel11122412203D

 34 40  0  0  0  0  0  0  0  0999 V2000
  184.9530  178.2800  139.4230 C   0  0  0  0  0  0  0  0  0  0  0  0
  186.8540  178.3800  141.1550 C   0  0  0  0  0  3  0  0  0  0  0  0
  180.4140  175.6680  137.5550 O   0  0  0  0  0  0  0  0  0  0  0  0
  183.0390  178.2330  137.8090 C   0  0  0  0  0  0  0  0  0  0  0  0
  180.8160  178.3260  138.7250 N   0  0  0  0  0  0  0  0  0  0  0  0
  178.9310  176.7940  139.0780 C   0  0  0  0  0  2  0  0  0  0  0  0
  179.0860  175.7260  137.9990 C   0  0  0  0  0  2  0  0  0  0  0  0
  180.0650  177.3430  135.8310 C   0  0  0  0  0  2  0  0  0  0  0  0
  184.5650  178.4930  141.8100 C   0  0  0  0  0  0  0  0  0  0  0  0
  183.6630  178.7600  144.7710 C   0  0  0  0  0  3  0  0  0  0  0  0
  181.3460  178.4340  140.0550 C   0  0  0  0  0  3  0  0  0  0  0  0
  181.2000  178.3070  136.1650 C   0  0  0  0  0  2  0  0  0  0  0  0
  183.1690  178.5210  141.6330 C   0  0  0  0  0  0  0  0  0  0  0  0
  186.7790  178.5030  142.6040 N   0  0  0  0  0  0  0  0  0  0  0  0
  181.7110  178.2550  137.5890 C   0  0  0  0  0  0  0  0  0  0  0  0
  180.3730  175.8810  136.1690 C   0  0  0  0  0  2  0  0  0  0  0  0
  185.0530  178.6860  144.2890 C   0  0  0  0  0  0  0  0  0  0  0  0
  183.5600  178.3190  139.2010 C   0  0  0  0  0  0  0  0  0  0  0  0
  179.3700  178.1770  138.5950 C   0  0  0  0  0  2  0  0  0  0  0  0
  182.6680  178.4290  140.2980 C   0  0  0  0  0  0  0  0  0  0  0  0
  185.3090  177.5070  137.0720 C   0  0  0  0  0  2  0  0  0  0  0  0
  182.5220  178.7360  144.0920 C   0  0  0  0  0  3  0  0  0  0  0  0
  184.0190  178.2050  136.6610 C   0  0  0  0  0  2  0  0  0  0  0  0
  182.2990  178.6270  142.6480 C   0  0  0  0  0  3  0  0  0  0  0  0
  185.4090  178.5710  143.0010 C   0  0  0  0  0  0  0  0  0  0  0  0
  185.9210  178.2180  138.2740 C   0  0  0  0  0  2  0  0  0  0  0  0
  185.4230  178.3780  140.7310 C   0  0  0  0  0  0  0  0  0  0  0  0
  186.1290  178.7430  145.2990 C   0  0  0  0  0  3  0  0  0  0  0  0
  186.6950  177.6570  145.8270 C   0  0  0  0  0  3  0  0  0  0  0  0
  188.9360  178.2530  148.7710 C   0  0  0  0  0  2  0  0  0  0  0  0
  189.0970  177.3780  146.5020 C   0  0  0  0  0  2  0  0  0  0  0  0
  187.7340  177.7510  146.8030 N   0  0  0  0  0  0  0  0  0  0  0  0
  189.8510  177.5010  147.8120 C   0  0  0  0  0  2  0  0  0  0  0  0
  187.5480  178.2150  148.1620 C   0  0  0  0  0  2  0  0  0  0  0  0
  1 27  1  0  0  0  0
  2 14  1  0  0  0  0
  3  7  1  0  0  0  0
  4 18  1  0  0  0  0
  5 11  1  0  0  0  0
  7  6  1  0  0  0  0
  8 12  1  0  0  0  0
  8 16  1  0  0  0  0
  9 25  1  0  0  0  0
 11 20  2  0  0  0  0
 12 15  1  0  0  0  0
 13  9  2  0  0  0  0
 13 24  1  0  0  0  0
 14 25  2  0  0  0  0
 15  4  2  0  0  0  0
 15  5  1  0  0  0  0
 16  3  1  0  0  0  0
 17 10  2  0  0  0  0
 17 28  1  0  0  0  0
 18  1  2  0  0  0  0
 18 20  1  0  0  0  0
 19  5  1  0  0  0  0
 19  6  1  0  0  0  0
 20 13  1  0  0  0  0
 21 26  1  0  0  0  0
 22 10  1  0  0  0  0
 23 21  1  0  0  0  0
 23  4  1  0  0  0  0
 24 22  2  0  0  0  0
 25 17  1  0  0  0  0
 26  1  1  0  0  0  0
 27  2  2  0  0  0  0
 27  9  1  0  0  0  0
 28 29  2  0  0  0  0
 29 32  1  0  0  0  0
 31 32  1  0  0  0  0
 31 33  1  0  0  0  0
 32 34  1  0  0  0  0
 33 30  1  0  0  0  0
 34 30  1  0  0  0  0
M  END
>  <MODEL>
3

>  <REMARK>
 VINA RESULT:      -9.3      1.664      2.613
  Name = 
  2 active torsions:
  status: ('A' for Active; 'I' for Inactive)
    1  A    between atoms: C_17  and  C_28
    2  A    between atoms: C_29  and  N_32
                            x       y       z     vdW  Elec       q    Type
                         _______ _______ _______ _____ _____    ______ ____

>  <TORSDO>
F 2

$$$$
=
 OpenBabel11122412203D

 34 40  0  0  0  0  0  0  0  0999 V2000
  189.0080  177.6410  141.9290 C   0  0  0  0  0  0  0  0  0  0  0  0
  187.0460  178.0830  143.5350 C   0  0  0  0  0  3  0  0  0  0  0  0
  191.1270  174.5530  137.8200 O   0  0  0  0  0  0  0  0  0  0  0  0
  190.8640  177.2650  140.2910 C   0  0  0  0  0  0  0  0  0  0  0  0
  190.3130  177.3670  137.9510 N   0  0  0  0  0  0  0  0  0  0  0  0
  190.0230  175.8000  136.0830 C   0  0  0  0  0  2  0  0  0  0  0  0
  190.8990  174.6020  136.4370 C   0  0  0  0  0  2  0  0  0  0  0  0
  193.1110  175.9500  137.6890 C   0  0  0  0  0  2  0  0  0  0  0  0
  186.7620  178.1630  141.1700 C   0  0  0  0  0  0  0  0  0  0  0  0
  184.0400  178.7940  139.8120 C   0  0  0  0  0  3  0  0  0  0  0  0
  188.9490  177.6880  138.2650 C   0  0  0  0  0  3  0  0  0  0  0  0
  192.7570  177.0110  138.7270 C   0  0  0  0  0  2  0  0  0  0  0  0
  187.1470  178.0920  139.8180 C   0  0  0  0  0  0  0  0  0  0  0  0
  185.6580  178.4030  143.2330 N   0  0  0  0  0  0  0  0  0  0  0  0
  191.2800  177.1850  139.0130 C   0  0  0  0  0  0  0  0  0  0  0  0
  192.5210  174.5690  137.9870 C   0  0  0  0  0  2  0  0  0  0  0  0
  184.2940  178.7270  141.2620 C   0  0  0  0  0  0  0  0  0  0  0  0
  189.4380  177.5740  140.5870 C   0  0  0  0  0  0  0  0  0  0  0  0
  190.6330  177.1240  136.5480 C   0  0  0  0  0  2  0  0  0  0  0  0
  188.5130  177.7870  139.5330 C   0  0  0  0  0  0  0  0  0  0  0  0
  191.1410  176.5670  142.6690 C   0  0  0  0  0  2  0  0  0  0  0  0
  184.8690  178.6140  138.7920 C   0  0  0  0  0  3  0  0  0  0  0  0
  191.8370  177.1300  141.4370 C   0  0  0  0  0  2  0  0  0  0  0  0
  186.3000  178.2920  138.7980 C   0  0  0  0  0  3  0  0  0  0  0  0
  185.4830  178.4520  141.8170 C   0  0  0  0  0  0  0  0  0  0  0  0
  189.9790  177.4710  143.0650 C   0  0  0  0  0  2  0  0  0  0  0  0
  187.6730  177.9450  142.1880 C   0  0  0  0  0  0  0  0  0  0  0  0
  183.1540  178.9820  142.1670 C   0  0  0  0  0  3  0  0  0  0  0  0
  181.8820  178.8180  141.8050 C   0  0  0  0  0  3  0  0  0  0  0  0
  179.2800  178.8980  144.5010 C   0  0  0  0  0  2  0  0  0  0  0  0
  179.8100  180.0860  142.4390 C   0  0  0  0  0  2  0  0  0  0  0  0
  180.8050  179.0740  142.7080 N   0  0  0  0  0  0  0  0  0  0  0  0
  178.9310  180.1300  143.6750 C   0  0  0  0  0  2  0  0  0  0  0  0
  180.5940  178.3730  143.9580 C   0  0  0  0  0  2  0  0  0  0  0  0
  1 27  1  0  0  0  0
  1 26  1  0  0  0  0
  3 16  1  0  0  0  0
  4 18  1  0  0  0  0
  4 23  1  0  0  0  0
  5 11  1  0  0  0  0
  5 15  1  0  0  0  0
  6  7  1  0  0  0  0
  6 19  1  0  0  0  0
  7  3  1  0  0  0  0
  8 16  1  0  0  0  0
  8 12  1  0  0  0  0
  9 25  1  0  0  0  0
  9 27  1  0  0  0  0
 10 17  2  0  0  0  0
 11 20  2  0  0  0  0
 12 15  1  0  0  0  0
 13  9  2  0  0  0  0
 14  2  1  0  0  0  0
 15  4  2  0  0  0  0
 17 25  1  0  0  0  0
 17 28  1  0  0  0  0
 18  1  2  0  0  0  0
 19  5  1  0  0  0  0
 20 13  1  0  0  0  0
 20 18  1  0  0  0  0
 21 26  1  0  0  0  0
 22 24  2  0  0  0  0
 22 10  1  0  0  0  0
 23 21  1  0  0  0  0
 24 13  1  0  0  0  0
 25 14  2  0  0  0  0
 27  2  2  0  0  0  0
 29 28  2  0  0  0  0
 29 32  1  0  0  0  0
 31 32  1  0  0  0  0
 31 33  1  0  0  0  0
 32 34  1  0  0  0  0
 33 30  1  0  0  0  0
 34 30  1  0  0  0  0
M  END
>  <MODEL>
4

>  <REMARK>
 VINA RESULT:      -9.0      4.080      9.032
  Name = 
  2 active torsions:
  status: ('A' for Active; 'I' for Inactive)
    1  A    between atoms: C_17  and  C_28
    2  A    between atoms: C_29  and  N_32
                            x       y       z     vdW  Elec       q    Type
                         _______ _______ _______ _____ _____    ______ ____

>  <TORSDO>
F 2

$$$$
=
 OpenBabel11122412203D

 34 40  0  0  0  0  0  0  0  0999 V2000
  184.9990  178.6980  142.1440 C   0  0  0  0  0  0  0  0  0  0  0  0
  187.5320  178.5840  141.7020 C   0  0  0  0  0  3  0  0  0  0  0  0
  180.1130  181.0690  140.9570 O   0  0  0  0  0  0  0  0  0  0  0  0
  182.5200  178.7460  142.4870 C   0  0  0  0  0  0  0  0  0  0  0  0
  181.1280  178.3470  140.5650 N   0  0  0  0  0  0  0  0  0  0  0  0
  179.6910  179.6500  139.0600 C   0  0  0  0  0  2  0  0  0  0  0  0
  179.2270  180.8400  139.8950 C   0  0  0  0  0  2  0  0  0  0  0  0
  178.9320  179.5690  142.4590 C   0  0  0  0  0  2  0  0  0  0  0  0
  185.9470  178.1890  139.9680 C   0  0  0  0  0  0  0  0  0  0  0  0
  186.7650  177.5140  137.0470 C   0  0  0  0  0  3  0  0  0  0  0  0
  182.2870  178.1420  139.7420 C   0  0  0  0  0  3  0  0  0  0  0  0
  180.0890  178.6830  142.9120 C   0  0  0  0  0  2  0  0  0  0  0  0
  184.6720  178.0510  139.3880 C   0  0  0  0  0  0  0  0  0  0  0  0
  188.2430  178.2960  140.4650 N   0  0  0  0  0  0  0  0  0  0  0  0
  181.2790  178.6260  141.9780 C   0  0  0  0  0  0  0  0  0  0  0  0
  179.3440  181.0070  142.1290 C   0  0  0  0  0  2  0  0  0  0  0  0
  187.6840  177.7690  138.1710 C   0  0  0  0  0  0  0  0  0  0  0  0
  183.7040  178.5550  141.6050 C   0  0  0  0  0  0  0  0  0  0  0  0
  179.8320  178.3750  139.8940 C   0  0  0  0  0  2  0  0  0  0  0  0
  183.5350  178.2430  140.2310 C   0  0  0  0  0  0  0  0  0  0  0  0
  184.0330  179.7550  144.1940 C   0  0  0  0  0  2  0  0  0  0  0  0
  185.4380  177.5070  137.0150 C   0  0  0  0  0  3  0  0  0  0  0  0
  182.7360  178.9900  143.9600 C   0  0  0  0  0  2  0  0  0  0  0  0
  184.4780  177.7540  138.0940 C   0  0  0  0  0  3  0  0  0  0  0  0
  187.2970  178.0580  139.4220 C   0  0  0  0  0  0  0  0  0  0  0  0
  185.2050  178.9750  143.6080 C   0  0  0  0  0  2  0  0  0  0  0  0
  186.0960  178.5000  141.3070 C   0  0  0  0  0  0  0  0  0  0  0  0
  189.1340  177.7010  137.8960 C   0  0  0  0  0  3  0  0  0  0  0  0
  189.8250  176.5620  137.8890 C   0  0  0  0  0  3  0  0  0  0  0  0
  193.3070  176.2610  136.5370 C   0  0  0  0  0  2  0  0  0  0  0  0
  192.2080  176.7250  138.6630 C   0  0  0  0  0  2  0  0  0  0  0  0
  191.2270  176.5360  137.6190 N   0  0  0  0  0  0  0  0  0  0  0  0
  193.5510  176.7530  137.9590 C   0  0  0  0  0  2  0  0  0  0  0  0
  191.8100  176.3260  136.3090 C   0  0  0  0  0  2  0  0  0  0  0  0
  1 26  1  0  0  0  0
  3 16  1  0  0  0  0
  4 23  1  0  0  0  0
  5 15  1  0  0  0  0
  6 19  1  0  0  0  0
  6  7  1  0  0  0  0
  7  3  1  0  0  0  0
  8 12  1  0  0  0  0
  9 27  2  0  0  0  0
 10 17  1  0  0  0  0
 11 20  2  0  0  0  0
 11  5  1  0  0  0  0
 13  9  1  0  0  0  0
 13 20  1  0  0  0  0
 14  2  2  0  0  0  0
 15  4  2  0  0  0  0
 15 12  1  0  0  0  0
 16  8  1  0  0  0  0
 17 25  2  0  0  0  0
 18  1  2  0  0  0  0
 18  4  1  0  0  0  0
 19  5  1  0  0  0  0
 20 18  1  0  0  0  0
 22 10  2  0  0  0  0
 22 24  1  0  0  0  0
 23 21  1  0  0  0  0
 24 13  2  0  0  0  0
 25  9  1  0  0  0  0
 25 14  1  0  0  0  0
 26 21  1  0  0  0  0
 27  2  1  0  0  0  0
 27  1  1  0  0  0  0
 28 17  1  0  0  0  0
 29 28  2  0  0  0  0
 30 33  1  0  0  0  0
 32 29  1  0  0  0  0
 32 31  1  0  0  0  0
 33 31  1  0  0  0  0
 34 30  1  0  0  0  0
 34 32  1  0  0  0  0
M  END
>  <MODEL>
5

>  <REMARK>
 VINA RESULT:      -8.8      3.252      5.842
  Name = 
  2 active torsions:
  status: ('A' for Active; 'I' for Inactive)
    1  A    between atoms: C_17  and  C_28
    2  A    between atoms: C_29  and  N_32
                            x       y       z     vdW  Elec       q    Type
                         _______ _______ _______ _____ _____    ______ ____

>  <TORSDO>
F 2

$$$$
=
 OpenBabel11122412203D

 34 40  0  0  0  0  0  0  0  0999 V2000
  187.7580  178.1010  141.3320 C   0  0  0  0  0  0  0  0  0  0  0  0
  189.7130  177.6180  142.9350 C   0  0  0  0  0  3  0  0  0  0  0  0
  182.7780  176.5820  139.3840 O   0  0  0  0  0  0  0  0  0  0  0  0
  185.8050  178.6190  139.8540 C   0  0  0  0  0  0  0  0  0  0  0  0
  183.6650  178.9210  140.9120 N   0  0  0  0  0  0  0  0  0  0  0  0
  181.5630  177.6750  141.1500 C   0  0  0  0  0  2  0  0  0  0  0  0
  181.4960  176.7820  139.9160 C   0  0  0  0  0  2  0  0  0  0  0  0
  182.6510  178.5440  137.9570 C   0  0  0  0  0  2  0  0  0  0  0  0
  187.5020  177.9910  143.7430 C   0  0  0  0  0  0  0  0  0  0  0  0
  186.7700  177.9270  146.7620 C   0  0  0  0  0  3  0  0  0  0  0  0
  184.2550  178.7300  142.2070 C   0  0  0  0  0  3  0  0  0  0  0  0
  183.9440  179.2480  138.3600 C   0  0  0  0  0  2  0  0  0  0  0  0
  186.1250  178.2720  143.6620 C   0  0  0  0  0  0  0  0  0  0  0  0
  189.7140  177.5190  144.3880 N   0  0  0  0  0  0  0  0  0  0  0  0
  184.4920  178.8880  139.7240 C   0  0  0  0  0  0  0  0  0  0  0  0
  182.7210  177.0170  138.0510 C   0  0  0  0  0  2  0  0  0  0  0  0
  188.1080  177.7080  146.1880 C   0  0  0  0  0  0  0  0  0  0  0  0
  186.3850  178.3980  141.2080 C   0  0  0  0  0  0  0  0  0  0  0  0
  182.2110  179.0290  140.8540 C   0  0  0  0  0  2  0  0  0  0  0  0
  185.5660  178.4740  142.3630 C   0  0  0  0  0  0  0  0  0  0  0  0
  187.8910  177.6650  138.8740 C   0  0  0  0  0  2  0  0  0  0  0  0
  185.6170  178.1940  146.1610 C   0  0  0  0  0  3  0  0  0  0  0  0
  186.7220  178.6170  138.6550 C   0  0  0  0  0  2  0  0  0  0  0  0
  185.3240  178.3540  144.7340 C   0  0  0  0  0  3  0  0  0  0  0  0
  188.3910  177.7430  144.8770 C   0  0  0  0  0  0  0  0  0  0  0  0
  188.6590  178.0680  140.1280 C   0  0  0  0  0  2  0  0  0  0  0  0
  188.2870  177.9130  142.6070 C   0  0  0  0  0  0  0  0  0  0  0  0
  189.2160  177.4290  147.1250 C   0  0  0  0  0  3  0  0  0  0  0  0
  190.4230  177.0250  146.7310 C   0  0  0  0  0  3  0  0  0  0  0  0
  193.0220  176.9950  149.4310 C   0  0  0  0  0  2  0  0  0  0  0  0
  192.3390  175.6180  147.5390 C   0  0  0  0  0  2  0  0  0  0  0  0
  191.4710  176.7650  147.6670 N   0  0  0  0  0  0  0  0  0  0  0  0
  193.2170  175.6330  148.7760 C   0  0  0  0  0  2  0  0  0  0  0  0
  191.7730  177.5940  148.8160 C   0  0  0  0  0  2  0  0  0  0  0  0
  1 27  1  0  0  0  0
  2 14  1  0  0  0  0
  3  7  1  0  0  0  0
  4 18  1  0  0  0  0
  5 11  1  0  0  0  0
  7  6  1  0  0  0  0
  8 16  1  0  0  0  0
  8 12  1  0  0  0  0
  9 25  1  0  0  0  0
 11 20  2  0  0  0  0
 12 15  1  0  0  0  0
 13  9  2  0  0  0  0
 13 24  1  0  0  0  0
 14 25  2  0  0  0  0
 15  4  2  0  0  0  0
 15  5  1  0  0  0  0
 16  3  1  0  0  0  0
 17 10  2  0  0  0  0
 17 28  1  0  0  0  0
 18  1  2  0  0  0  0
 18 20  1  0  0  0  0
 19  5  1  0  0  0  0
 19  6  1  0  0  0  0
 20 13  1  0  0  0  0
 21 26  1  0  0  0  0
 22 10  1  0  0  0  0
 23 21  1  0  0  0  0
 23  4  1  0  0  0  0
 24 22  2  0  0  0  0
 25 17  1  0  0  0  0
 26  1  1  0  0  0  0
 27  2  2  0  0  0  0
 27  9  1  0  0  0  0
 29 28  2  0  0  0  0
 29 32  1  0  0  0  0
 31 32  1  0  0  0  0
 31 33  1  0  0  0  0
 32 34  1  0  0  0  0
 33 30  1  0  0  0  0
 34 30  1  0  0  0  0
M  END
>  <MODEL>
6

>  <REMARK>
 VINA RESULT:      -8.7      1.615      2.404
  Name = 
  2 active torsions:
  status: ('A' for Active; 'I' for Inactive)
    1  A    between atoms: C_17  and  C_28
    2  A    between atoms: C_29  and  N_32
                            x       y       z     vdW  Elec       q    Type
                         _______ _______ _______ _____ _____    ______ ____

>  <TORSDO>
F 2

$$$$
=
 OpenBabel11122412203D

 34 40  0  0  0  0  0  0  0  0999 V2000
  188.9530  177.8560  141.1160 C   0  0  0  0  0  0  0  0  0  0  0  0
  187.0290  178.5340  142.6850 C   0  0  0  0  0  3  0  0  0  0  0  0
  190.9880  174.1810  137.4740 O   0  0  0  0  0  0  0  0  0  0  0  0
  190.7710  177.2390  139.5080 C   0  0  0  0  0  0  0  0  0  0  0  0
  190.1600  176.9800  137.1950 N   0  0  0  0  0  0  0  0  0  0  0  0
  189.8340  175.1450  135.5960 C   0  0  0  0  0  2  0  0  0  0  0  0
  190.7260  174.0180  136.1070 C   0  0  0  0  0  2  0  0  0  0  0  0
  192.9600  175.5460  137.0810 C   0  0  0  0  0  2  0  0  0  0  0  0
  186.6860  178.2520  140.3440 C   0  0  0  0  0  0  0  0  0  0  0  0
  183.9270  178.6610  138.9750 C   0  0  0  0  0  3  0  0  0  0  0  0
  188.8030  177.3420  137.4910 C   0  0  0  0  0  3  0  0  0  0  0  0
  192.6250  176.7520  137.9540 C   0  0  0  0  0  2  0  0  0  0  0  0
  187.0380  177.9760  139.0090 C   0  0  0  0  0  0  0  0  0  0  0  0
  185.6320  178.8010  142.3730 N   0  0  0  0  0  0  0  0  0  0  0  0
  191.1550  176.9650  138.2470 C   0  0  0  0  0  0  0  0  0  0  0  0
  192.3850  174.2250  137.6020 C   0  0  0  0  0  2  0  0  0  0  0  0
  184.2170  178.8180  140.4110 C   0  0  0  0  0  0  0  0  0  0  0  0
  189.3500  177.5860  139.7900 C   0  0  0  0  0  0  0  0  0  0  0  0
  190.4470  176.5260  135.8370 C   0  0  0  0  0  2  0  0  0  0  0  0
  188.3980  177.6330  138.7390 C   0  0  0  0  0  0  0  0  0  0  0  0
  191.1110  176.9120  141.9570 C   0  0  0  0  0  2  0  0  0  0  0  0
  184.7320  178.3290  137.9730 C   0  0  0  0  0  3  0  0  0  0  0  0
  191.7720  177.2820  140.6360 C   0  0  0  0  0  2  0  0  0  0  0  0
  186.1640  178.0150  137.9930 C   0  0  0  0  0  3  0  0  0  0  0  0
  185.4220  178.6330  140.9710 C   0  0  0  0  0  0  0  0  0  0  0  0
  189.9530  177.8630  142.2400 C   0  0  0  0  0  2  0  0  0  0  0  0
  187.6240  178.1940  141.3590 C   0  0  0  0  0  0  0  0  0  0  0  0
  183.0990  179.2050  141.2950 C   0  0  0  0  0  3  0  0  0  0  0  0
  181.9090  178.6040  141.2760 C   0  0  0  0  0  3  0  0  0  0  0  0
  178.9830  180.1320  143.0500 C   0  0  0  0  0  2  0  0  0  0  0  0
  180.7540  178.5200  143.5030 C   0  0  0  0  0  2  0  0  0  0  0  0
  180.8510  179.0060  142.1470 N   0  0  0  0  0  0  0  0  0  0  0  0
  179.4480  179.0730  144.0420 C   0  0  0  0  0  2  0  0  0  0  0  0
  179.7850  179.9170  141.7820 C   0  0  0  0  0  2  0  0  0  0  0  0
  1 27  1  0  0  0  0
  1 26  1  0  0  0  0
  3 16  1  0  0  0  0
  4 18  1  0  0  0  0
  4 23  1  0  0  0  0
  5 11  1  0  0  0  0
  5 15  1  0  0  0  0
  6 19  1  0  0  0  0
  6  7  1  0  0  0  0
  7  3  1  0  0  0  0
  8 16  1  0  0  0  0
  8 12  1  0  0  0  0
  9 25  1  0  0  0  0
  9 27  1  0  0  0  0
 10 17  2  0  0  0  0
 11 20  2  0  0  0  0
 12 15  1  0  0  0  0
 13  9  2  0  0  0  0
 14  2  1  0  0  0  0
 15  4  2  0  0  0  0
 17 25  1  0  0  0  0
 17 28  1  0  0  0  0
 18  1  2  0  0  0  0
 19  5  1  0  0  0  0
 20 13  1  0  0  0  0
 20 18  1  0  0  0  0
 21 26  1  0  0  0  0
 22 24  2  0  0  0  0
 22 10  1  0  0  0  0
 23 21  1  0  0  0  0
 24 13  1  0  0  0  0
 25 14  2  0  0  0  0
 27  2  2  0  0  0  0
 29 28  2  0  0  0  0
 29 32  1  0  0  0  0
 30 33  1  0  0  0  0
 31 33  1  0  0  0  0
 32 31  1  0  0  0  0
 34 32  1  0  0  0  0
 34 30  1  0  0  0  0
M  END
>  <MODEL>
7

>  <REMARK>
 VINA RESULT:      -8.7      4.273      9.180
  Name = 
  2 active torsions:
  status: ('A' for Active; 'I' for Inactive)
    1  A    between atoms: C_17  and  C_28
    2  A    between atoms: C_29  and  N_32
                            x       y       z     vdW  Elec       q    Type
                         _______ _______ _______ _____ _____    ______ ____

>  <TORSDO>
F 2

$$$$
=
 OpenBabel11122412203D

 34 40  0  0  0  0  0  0  0  0999 V2000
  188.9890  177.6750  142.3670 C   0  0  0  0  0  0  0  0  0  0  0  0
  187.9150  178.4630  140.1650 C   0  0  0  0  0  3  0  0  0  0  0  0
  190.1300  178.7510  147.7010 O   0  0  0  0  0  0  0  0  0  0  0  0
  189.9380  176.8750  144.5420 C   0  0  0  0  0  0  0  0  0  0  0  0
  188.4370  176.7310  146.4180 N   0  0  0  0  0  0  0  0  0  0  0  0
  187.9980  177.9680  148.4930 C   0  0  0  0  0  2  0  0  0  0  0  0
  189.3270  178.6280  148.8440 C   0  0  0  0  0  2  0  0  0  0  0  0
  191.1500  176.5670  148.0040 C   0  0  0  0  0  2  0  0  0  0  0  0
  186.6300  178.2040  142.1550 C   0  0  0  0  0  0  0  0  0  0  0  0
  183.5810  178.7870  142.2890 C   0  0  0  0  0  3  0  0  0  0  0  0
  187.3370  177.1560  145.5970 C   0  0  0  0  0  3  0  0  0  0  0  0
  190.9000  175.9640  146.6240 C   0  0  0  0  0  2  0  0  0  0  0  0
  186.3860  177.8920  143.5060 C   0  0  0  0  0  0  0  0  0  0  0  0
  186.5310  178.8150  139.8860 N   0  0  0  0  0  0  0  0  0  0  0  0
  189.7540  176.5670  145.8400 C   0  0  0  0  0  0  0  0  0  0  0  0
  191.3320  178.0880  147.9940 C   0  0  0  0  0  2  0  0  0  0  0  0
  184.4410  178.9220  141.1000 C   0  0  0  0  0  0  0  0  0  0  0  0
  188.7850  177.3400  143.7220 C   0  0  0  0  0  0  0  0  0  0  0  0
  188.1840  176.5930  147.8490 C   0  0  0  0  0  2  0  0  0  0  0  0
  187.4930  177.4560  144.2960 C   0  0  0  0  0  0  0  0  0  0  0  0
  191.4620  177.6740  142.7370 C   0  0  0  0  0  2  0  0  0  0  0  0
  183.8850  178.4010  143.5220 C   0  0  0  0  0  3  0  0  0  0  0  0
  191.2780  176.6800  143.8770 C   0  0  0  0  0  2  0  0  0  0  0  0
  185.1770  177.9880  144.0780 C   0  0  0  0  0  3  0  0  0  0  0  0
  185.7560  178.6620  141.0760 C   0  0  0  0  0  0  0  0  0  0  0  0
  190.3380  177.5090  141.7210 C   0  0  0  0  0  2  0  0  0  0  0  0
  187.8960  178.0920  141.6110 C   0  0  0  0  0  0  0  0  0  0  0  0
  183.8050  179.3780  139.8470 C   0  0  0  0  0  3  0  0  0  0  0  0
  182.4870  179.3780  139.6530 C   0  0  0  0  0  3  0  0  0  0  0  0
  181.1450  179.9110  136.1940 C   0  0  0  0  0  2  0  0  0  0  0  0
  181.5340  181.2070  138.2210 C   0  0  0  0  0  2  0  0  0  0  0  0
  181.9080  179.8270  138.4260 N   0  0  0  0  0  0  0  0  0  0  0  0
  180.8540  181.2470  136.8660 C   0  0  0  0  0  2  0  0  0  0  0  0
  181.6380  178.9790  137.2840 C   0  0  0  0  0  2  0  0  0  0  0  0
  1 18  2  0  0  0  0
  2 27  1  0  0  0  0
  3 16  1  0  0  0  0
  3  7  1  0  0  0  0
  4 15  2  0  0  0  0
  5 19  1  0  0  0  0
  6  7  1  0  0  0  0
  9 13  1  0  0  0  0
 10 22  2  0  0  0  0
 11  5  1  0  0  0  0
 12  8  1  0  0  0  0
 13 24  2  0  0  0  0
 13 20  1  0  0  0  0
 14  2  2  0  0  0  0
 14 25  1  0  0  0  0
 15  5  1  0  0  0  0
 15 12  1  0  0  0  0
 16  8  1  0  0  0  0
 17 10  1  0  0  0  0
 18 20  1  0  0  0  0
 18  4  1  0  0  0  0
 19  6  1  0  0  0  0
 20 11  2  0  0  0  0
 21 23  1  0  0  0  0
 22 24  1  0  0  0  0
 23  4  1  0  0  0  0
 25 17  2  0  0  0  0
 25  9  1  0  0  0  0
 26  1  1  0  0  0  0
 26 21  1  0  0  0  0
 27  9  2  0  0  0  0
 27  1  1  0  0  0  0
 28 17  1  0  0  0  0
 29 28  2  0  0  0  0
 30 33  1  0  0  0  0
 30 34  1  0  0  0  0
 31 32  1  0  0  0  0
 32 29  1  0  0  0  0
 33 31  1  0  0  0  0
 34 32  1  0  0  0  0
M  END
>  <MODEL>
8

>  <REMARK>
 VINA RESULT:      -8.4      2.897      9.402
  Name = 
  2 active torsions:
  status: ('A' for Active; 'I' for Inactive)
    1  A    between atoms: C_17  and  C_28
    2  A    between atoms: C_29  and  N_32
                            x       y       z     vdW  Elec       q    Type
                         _______ _______ _______ _____ _____    ______ ____

>  <TORSDO>
F 2

$$$$
=
 OpenBabel11122412203D

 34 40  0  0  0  0  0  0  0  0999 V2000
  185.9640  178.2500  144.4630 C   0  0  0  0  0  0  0  0  0  0  0  0
  183.6110  178.4590  143.4400 C   0  0  0  0  0  3  0  0  0  0  0  0
  190.7060  175.3710  144.8200 O   0  0  0  0  0  0  0  0  0  0  0  0
  188.2920  178.0920  145.3700 C   0  0  0  0  0  0  0  0  0  0  0  0
  190.0980  178.0440  143.7810 N   0  0  0  0  0  0  0  0  0  0  0  0
  191.6750  176.3970  142.8710 C   0  0  0  0  0  2  0  0  0  0  0  0
  191.8190  175.3460  143.9670 C   0  0  0  0  0  2  0  0  0  0  0  0
  191.6920  177.0290  146.2970 C   0  0  0  0  0  2  0  0  0  0  0  0
  185.5650  178.4280  142.0760 C   0  0  0  0  0  0  0  0  0  0  0  0
  185.4690  178.6280  138.9770 C   0  0  0  0  0  3  0  0  0  0  0  0
  189.1710  178.1790  142.6920 C   0  0  0  0  0  3  0  0  0  0  0  0
  190.5670  178.0600  146.3260 C   0  0  0  0  0  2  0  0  0  0  0  0
  186.9420  178.3720  141.7900 C   0  0  0  0  0  0  0  0  0  0  0  0
  183.2170  178.5710  142.0430 N   0  0  0  0  0  0  0  0  0  0  0  0
  189.6190  178.0330  145.1470 C   0  0  0  0  0  0  0  0  0  0  0  0
  191.2080  175.5870  146.1120 C   0  0  0  0  0  2  0  0  0  0  0  0
  184.3090  178.6410  139.8850 C   0  0  0  0  0  0  0  0  0  0  0  0
  187.3520  178.2040  144.2200 C   0  0  0  0  0  0  0  0  0  0  0  0
  191.4970  177.8070  143.4380 C   0  0  0  0  0  2  0  0  0  0  0  0
  187.8440  178.2540  142.8910 C   0  0  0  0  0  0  0  0  0  0  0  0
  186.3480  177.5100  146.8210 C   0  0  0  0  0  2  0  0  0  0  0  0
  186.7650  178.5360  139.2490 C   0  0  0  0  0  3  0  0  0  0  0  0
  187.7390  178.1290  146.7740 C   0  0  0  0  0  2  0  0  0  0  0  0
  187.4390  178.4200  140.5450 C   0  0  0  0  0  3  0  0  0  0  0  0
  184.3850  178.5530  141.2210 C   0  0  0  0  0  0  0  0  0  0  0  0
  185.4200  178.2530  145.8660 C   0  0  0  0  0  2  0  0  0  0  0  0
  185.1000  178.3710  143.3770 C   0  0  0  0  0  0  0  0  0  0  0  0
  182.9670  178.7590  139.2780 C   0  0  0  0  0  3  0  0  0  0  0  0
  182.5230  179.8730  138.6960 C   0  0  0  0  0  3  0  0  0  0  0  0
  179.0470  179.3930  137.3800 C   0  0  0  0  0  2  0  0  0  0  0  0
  180.7990  181.0880  137.3340 C   0  0  0  0  0  2  0  0  0  0  0  0
  181.2180  179.9500  138.1190 N   0  0  0  0  0  0  0  0  0  0  0  0
  179.3360  180.8440  137.0160 C   0  0  0  0  0  2  0  0  0  0  0  0
  180.1980  178.9300  138.2500 C   0  0  0  0  0  2  0  0  0  0  0  0
  1 26  1  0  0  0  0
  3 16  1  0  0  0  0
  4 23  1  0  0  0  0
  5 15  1  0  0  0  0
  6 19  1  0  0  0  0
  6  7  1  0  0  0  0
  7  3  1  0  0  0  0
  8 12  1  0  0  0  0
  9 27  2  0  0  0  0
 10 22  2  0  0  0  0
 10 17  1  0  0  0  0
 11 20  2  0  0  0  0
 11  5  1  0  0  0  0
 13  9  1  0  0  0  0
 13 20  1  0  0  0  0
 14  2  2  0  0  0  0
 15  4  2  0  0  0  0
 15 12  1  0  0  0  0
 16  8  1  0  0  0  0
 17 25  2  0  0  0  0
 18  1  2  0  0  0  0
 18  4  1  0  0  0  0
 19  5  1  0  0  0  0
 20 18  1  0  0  0  0
 22 24  1  0  0  0  0
 23 21  1  0  0  0  0
 24 13  2  0  0  0  0
 25 14  1  0  0  0  0
 25  9  1  0  0  0  0
 26 21  1  0  0  0  0
 27  2  1  0  0  0  0
 27  1  1  0  0  0  0
 28 17  1  0  0  0  0
 29 28  2  0  0  0  0
 30 34  1  0  0  0  0
 31 32  1  0  0  0  0
 32 34  1  0  0  0  0
 32 29  1  0  0  0  0
 33 31  1  0  0  0  0
 33 30  1  0  0  0  0
M  END
>  <MODEL>
9

>  <REMARK>
 VINA RESULT:      -8.3      2.600      9.795
  Name = 
  2 active torsions:
  status: ('A' for Active; 'I' for Inactive)
    1  A    between atoms: C_17  and  C_28
    2  A    between atoms: C_29  and  N_32
                            x       y       z     vdW  Elec       q    Type
                         _______ _______ _______ _____ _____    ______ ____

>  <TORSDO>
F 2

$$$$
