=
 OpenBabel11122412053D

 34 40  0  0  1  0  0  0  0  0999 V2000
  182.2870  178.9650  143.6270 C   0  0  0  0  0  0  0  0  0  0  0  0
  183.7850  178.6100  145.5920 C   0  0  0  0  0  2  0  0  0  0  0  0
  181.0810  176.3160  137.7930 C   0  0  1  0  0  3  0  0  0  0  0  0
  181.0390  178.3010  141.6670 C   0  0  0  0  0  0  0  0  0  0  0  0
  182.2510  178.0410  139.4160 C   0  0  2  0  0  3  0  0  0  0  0  0
  182.7350  178.0280  136.9490 C   0  0  0  0  0  1  0  0  0  0  0  0
  180.9530  175.1350  138.7370 C   0  0  0  0  0  1  0  0  0  0  0  0
  179.7180  178.4980  138.0270 C   0  0  0  0  0  2  0  0  0  0  0  0
  184.8520  179.3200  143.5240 C   0  0  2  0  0  3  0  0  0  0  0  0
  187.6740  178.0680  143.2100 C   0  0  0  0  0  2  0  0  0  0  0  0
  183.4550  177.7060  140.2810 C   0  0  0  0  0  2  0  0  0  0  0  0
  179.7910  178.6860  139.5410 C   0  0  0  0  0  2  0  0  0  0  0  0
  184.7850  178.4010  142.2860 C   0  0  1  0  0  3  0  0  0  0  0  0
  185.2430  178.8380  145.9030 C   0  0  0  0  0  2  0  0  0  0  0  0
  180.9330  177.9080  140.2100 C   0  0  2  0  0  3  0  0  0  0  0  0
  179.7270  177.0270  137.6200 C   0  0  0  0  0  2  0  0  0  0  0  0
  186.6830  177.7240  144.2210 N   0  0  0  0  0  0  0  0  0  0  0  0
  182.2770  178.6210  142.2650 C   0  0  0  0  0  0  0  0  0  0  0  0
  182.3100  177.1850  138.1360 C   0  0  2  0  0  3  0  0  0  0  0  0
  183.5390  178.6900  141.4440 C   0  0  2  0  0  3  0  0  0  0  0  0
  179.9500  178.6020  143.7480 C   0  0  0  0  0  3  0  0  0  0  0  0
  187.1570  177.7040  141.8320 C   0  0  0  0  0  2  0  0  0  0  0  0
  179.9150  178.2760  142.4320 N   0  0  0  0  0  0  0  0  0  0  0  0
  186.0250  178.6310  141.4230 C   0  0  0  0  0  2  0  0  0  0  0  0
  185.9540  178.9590  144.5550 C   0  0  1  0  0  3  0  0  0  0  0  0
  181.1230  178.9510  144.3310 N   0  0  0  0  0  0  0  0  0  0  0  0
  183.5470  179.3970  144.3260 C   0  0  1  0  0  3  0  0  0  0  0  0
  187.3910  177.3280  145.3100 O   0  0  0  0  0  0  0  0  0  0  0  0
  188.6920  177.1270  144.8390 C   0  0  0  0  0  2  0  0  0  0  0  0
  190.5610  176.2030  147.3910 O   0  0  0  0  0  0  0  0  0  0  0  0
  191.0360  177.3540  145.4160 N   0  0  0  0  0  2  0  0  0  0  0  0
  189.6940  177.7070  145.8210 C   0  0  2  0  0  3  0  0  0  0  0  0
  191.5980  176.6910  146.5820 C   0  0  0  0  0  2  0  0  0  0  0  0
  189.4950  177.0780  147.1720 C   0  0  0  0  0  2  0  0  0  0  0  0
  1 27  1  0  0  0  0
  1 26  1  0  0  0  0
  2 14  1  0  0  0  0
  3 19  1  0  0  0  0
  3  7  1  1  0  0  0
  4 18  1  0  0  0  0
  4 23  2  0  0  0  0
  5 15  1  0  0  0  0
  5 11  1  1  0  0  0
  6 19  1  0  0  0  0
  8 12  1  0  0  0  0
  9 27  1  0  0  0  0
  9 25  1  0  0  0  0
 10 17  1  0  0  0  0
 11 20  1  0  0  0  0
 12 15  1  0  0  0  0
 13  9  1  0  0  0  0
 15  4  1  0  0  0  0
 16  3  1  0  0  0  0
 16  8  1  0  0  0  0
 17 25  1  0  0  0  0
 17 28  1  0  0  0  0
 18  1  2  0  0  0  0
 19  5  1  0  0  0  0
 20 18  1  0  0  0  0
 20 13  1  0  0  0  0
 21 26  2  0  0  0  0
 22 10  1  0  0  0  0
 23 21  1  0  0  0  0
 24 22  1  0  0  0  0
 24 13  1  0  0  0  0
 25 14  1  0  0  0  0
 27  2  1  0  0  0  0
 29 28  1  0  0  0  0
 29 32  1  0  0  0  0
 31 32  1  0  0  0  0
 31 33  1  0  0  0  0
 32 34  1  0  0  0  0
 33 30  1  0  0  0  0
 34 30  1  0  0  0  0
M  END
>  <MODEL>
1

>  <REMARK>
 VINA RESULT:      -9.0      0.000      0.000
  Name = 
  3 active torsions:
  status: ('A' for Active; 'I' for Inactive)
    1  A    between atoms: N_17  and  O_28
    2  A    between atoms: O_28  and  C_29
    3  A    between atoms: C_29  and  C_32
                            x       y       z     vdW  Elec       q    Type
                         _______ _______ _______ _____ _____    ______ ____

>  <TORSDO>
F 3

$$$$
=
 OpenBabel11122412053D

 34 40  0  0  1  0  0  0  0  0999 V2000
  187.6480  178.1630  139.9260 C   0  0  0  0  0  0  0  0  0  0  0  0
  186.8580  178.1270  142.2940 C   0  0  0  0  0  2  0  0  0  0  0  0
  191.2380  174.5430  135.8610 C   0  0  1  0  0  3  0  0  0  0  0  0
  188.4110  177.1910  137.8500 C   0  0  0  0  0  0  0  0  0  0  0  0
  190.8730  176.5010  137.5990 C   0  0  2  0  0  3  0  0  0  0  0  0
  193.1370  176.0330  136.6070 C   0  0  0  0  0  1  0  0  0  0  0  0
  190.2120  173.5540  136.3840 C   0  0  0  0  0  1  0  0  0  0  0  0
  190.6280  176.7670  134.6960 C   0  0  0  0  0  2  0  0  0  0  0  0
  189.2470  178.4270  141.9490 C   0  0  2  0  0  3  0  0  0  0  0  0
  190.9020  177.0660  144.1930 C   0  0  0  0  0  2  0  0  0  0  0  0
  190.8070  176.2940  139.1030 C   0  0  0  0  0  2  0  0  0  0  0  0
  189.4790  177.2210  135.5950 C   0  0  0  0  0  2  0  0  0  0  0  0
  190.0590  177.3020  141.2700 C   0  0  1  0  0  3  0  0  0  0  0  0
  187.4730  178.3690  143.6500 C   0  0  0  0  0  2  0  0  0  0  0  0
  189.4620  176.5470  136.9730 C   0  0  2  0  0  3  0  0  0  0  0  0
  190.7220  175.2480  134.5940 C   0  0  0  0  0  2  0  0  0  0  0  0
  189.4680  176.9340  143.9760 N   0  0  0  0  0  0  0  0  0  0  0  0
  188.6850  177.5810  139.1790 C   0  0  0  0  0  0  0  0  0  0  0  0
  191.8000  175.4280  136.9950 C   0  0  2  0  0  3  0  0  0  0  0  0
  190.0760  177.4680  139.7470 C   0  0  2  0  0  3  0  0  0  0  0  0
  186.1620  177.8880  138.1030 C   0  0  0  0  0  3  0  0  0  0  0  0
  191.6610  176.4740  143.0210 C   0  0  0  0  0  2  0  0  0  0  0  0
  187.1510  177.3330  137.3590 N   0  0  0  0  0  0  0  0  0  0  0  0
  191.4970  177.3420  141.7850 C   0  0  0  0  0  2  0  0  0  0  0  0
  188.9840  178.2280  143.4650 C   0  0  1  0  0  3  0  0  0  0  0  0
  186.4160  178.3060  139.3670 N   0  0  0  0  0  0  0  0  0  0  0  0
  187.8710  178.6800  141.3210 C   0  0  1  0  0  3  0  0  0  0  0  0
  188.9280  176.7220  145.2030 O   0  0  0  0  0  0  0  0  0  0  0  0
  189.9460  177.0470  146.1050 C   0  0  0  0  0  2  0  0  0  0  0  0
  188.4800  178.7980  148.4810 O   0  0  0  0  0  0  0  0  0  0  0  0
  188.0120  176.7190  147.5290 N   0  0  0  0  0  2  0  0  0  0  0  0
  189.4470  176.8900  147.5300 C   0  0  2  0  0  3  0  0  0  0  0  0
  187.5260  177.7740  148.4040 C   0  0  0  0  0  2  0  0  0  0  0  0
  189.7080  178.1580  148.2960 C   0  0  0  0  0  2  0  0  0  0  0  0
  1 27  1  0  0  0  0
  2 14  1  0  0  0  0
  3  7  1  1  0  0  0
  3 19  1  0  0  0  0
  4 18  1  0  0  0  0
  5 11  1  1  0  0  0
  6 19  1  0  0  0  0
  8 12  1  0  0  0  0
  9 25  1  0  0  0  0
 11 20  1  0  0  0  0
 12 15  1  0  0  0  0
 13 24  1  0  0  0  0
 13  9  1  0  0  0  0
 15  5  1  0  0  0  0
 15  4  1  0  0  0  0
 16  8  1  0  0  0  0
 16  3  1  0  0  0  0
 17 10  1  0  0  0  0
 17 28  1  0  0  0  0
 18 20  1  0  0  0  0
 18  1  2  0  0  0  0
 19  5  1  0  0  0  0
 20 13  1  0  0  0  0
 21 26  2  0  0  0  0
 22 10  1  0  0  0  0
 23  4  2  0  0  0  0
 23 21  1  0  0  0  0
 24 22  1  0  0  0  0
 25 14  1  0  0  0  0
 25 17  1  0  0  0  0
 26  1  1  0  0  0  0
 27  9  1  0  0  0  0
 27  2  1  0  0  0  0
 28 29  1  0  0  0  0
 29 32  1  0  0  0  0
 31 32  1  0  0  0  0
 31 33  1  0  0  0  0
 32 34  1  0  0  0  0
 33 30  1  0  0  0  0
 34 30  1  0  0  0  0
M  END
>  <MODEL>
2

>  <REMARK>
 VINA RESULT:      -8.6      4.607      7.037
  Name = 
  3 active torsions:
  status: ('A' for Active; 'I' for Inactive)
    1  A    between atoms: N_17  and  O_28
    2  A    between atoms: O_28  and  C_29
    3  A    between atoms: C_29  and  C_32
                            x       y       z     vdW  Elec       q    Type
                         _______ _______ _______ _____ _____    ______ ____

>  <TORSDO>
F 3

$$$$
=
 OpenBabel11122412053D

 34 40  0  0  1  0  0  0  0  0999 V2000
  186.6180  178.2120  138.9810 C   0  0  0  0  0  0  0  0  0  0  0  0
  184.2040  177.9990  138.3790 C   0  0  0  0  0  2  0  0  0  0  0  0
  190.7270  176.2980  143.6680 C   0  0  1  0  0  3  0  0  0  0  0  0
  188.6900  177.5370  140.0250 C   0  0  0  0  0  0  0  0  0  0  0  0
  189.0670  178.0060  142.5230 C   0  0  2  0  0  3  0  0  0  0  0  0
  190.1800  178.5300  144.7160 C   0  0  0  0  0  1  0  0  0  0  0  0
  190.0910  174.9960  143.2190 C   0  0  0  0  0  1  0  0  0  0  0  0
  191.9570  177.9220  142.0780 C   0  0  0  0  0  2  0  0  0  0  0  0
  184.7190  179.3110  140.3620 C   0  0  2  0  0  3  0  0  0  0  0  0
  182.5240  179.0030  142.5340 C   0  0  0  0  0  2  0  0  0  0  0  0
  187.5530  177.9020  142.6110 C   0  0  0  0  0  2  0  0  0  0  0  0
  191.0090  177.8770  140.8810 C   0  0  0  0  0  2  0  0  0  0  0  0
  185.3940  178.6230  141.5680 C   0  0  1  0  0  3  0  0  0  0  0  0
  182.9050  178.5880  138.8680 C   0  0  0  0  0  2  0  0  0  0  0  0
  189.6010  177.3690  141.2210 C   0  0  2  0  0  3  0  0  0  0  0  0
  191.9920  176.6030  142.8440 C   0  0  0  0  0  2  0  0  0  0  0  0
  182.6410  178.2270  141.3060 N   0  0  0  0  0  0  0  0  0  0  0  0
  187.4020  178.1030  140.1410 C   0  0  0  0  0  0  0  0  0  0  0  0
  189.6770  177.4210  143.8120 C   0  0  2  0  0  3  0  0  0  0  0  0
  186.9210  178.6680  141.4530 C   0  0  2  0  0  3  0  0  0  0  0  0
  188.3250  177.1690  137.7140 C   0  0  0  0  0  3  0  0  0  0  0  0
  183.7140  178.7300  143.4340 C   0  0  0  0  0  2  0  0  0  0  0  0
  189.1030  177.0630  138.8190 N   0  0  0  0  0  0  0  0  0  0  0  0
  184.9770  179.3400  142.8510 C   0  0  0  0  0  2  0  0  0  0  0  0
  183.1810  179.1260  140.2720 C   0  0  1  0  0  3  0  0  0  0  0  0
  187.1010  177.7470  137.7980 N   0  0  0  0  0  0  0  0  0  0  0  0
  185.2670  178.8740  138.9970 C   0  0  1  0  0  3  0  0  0  0  0  0
  181.3720  177.8860  140.9650 O   0  0  0  0  0  0  0  0  0  0  0  0
  180.5570  178.6350  141.8190 C   0  0  0  0  0  2  0  0  0  0  0  0
  180.0590  181.0600  139.6450 O   0  0  0  0  0  0  0  0  0  0  0  0
  179.4580  178.8050  139.6640 N   0  0  0  0  0  2  0  0  0  0  0  0
  179.4320  179.2800  141.0290 C   0  0  2  0  0  3  0  0  0  0  0  0
  179.5380  180.0170  138.8650 C   0  0  0  0  0  2  0  0  0  0  0  0
  179.6610  180.7640  140.9510 C   0  0  0  0  0  2  0  0  0  0  0  0
  1 27  1  0  0  0  0
  1 18  1  0  0  0  0
  2 14  1  0  0  0  0
  2 27  1  0  0  0  0
  3  7  1  6  0  0  0
  3 19  1  0  0  0  0
  4 18  2  0  0  0  0
  4 15  1  0  0  0  0
  5 11  1  1  0  0  0
  5 19  1  0  0  0  0
  8 16  1  0  0  0  0
  9 13  1  0  0  0  0
 10 22  1  0  0  0  0
 12 15  1  0  0  0  0
 12  8  1  0  0  0  0
 13 24  1  0  0  0  0
 14 25  1  0  0  0  0
 15  5  1  0  0  0  0
 16  3  1  0  0  0  0
 17 10  1  0  0  0  0
 18 20  1  0  0  0  0
 19  6  1  0  0  0  0
 20 13  1  0  0  0  0
 20 11  1  0  0  0  0
 21 26  1  0  0  0  0
 21 23  2  0  0  0  0
 23  4  1  0  0  0  0
 24 22  1  0  0  0  0
 25  9  1  0  0  0  0
 25 17  1  0  0  0  0
 26  1  2  0  0  0  0
 27  9  1  0  0  0  0
 28 17  1  0  0  0  0
 28 29  1  0  0  0  0
 30 34  1  0  0  0  0
 31 32  1  0  0  0  0
 32 29  1  0  0  0  0
 33 30  1  0  0  0  0
 33 31  1  0  0  0  0
 34 32  1  0  0  0  0
M  END
>  <MODEL>
3

>  <REMARK>
 VINA RESULT:      -8.1      3.394      8.968
  Name = 
  3 active torsions:
  status: ('A' for Active; 'I' for Inactive)
    1  A    between atoms: N_17  and  O_28
    2  A    between atoms: O_28  and  C_29
    3  A    between atoms: C_29  and  C_32
                            x       y       z     vdW  Elec       q    Type
                         _______ _______ _______ _____ _____    ______ ____

>  <TORSDO>
F 3

$$$$
=
 OpenBabel11122412053D

 34 40  0  0  1  0  0  0  0  0999 V2000
  184.9880  178.3670  144.5220 C   0  0  0  0  0  0  0  0  0  0  0  0
  183.0480  179.5020  143.4350 C   0  0  0  0  0  2  0  0  0  0  0  0
  191.4980  178.2790  144.1590 C   0  0  1  0  0  3  0  0  0  0  0  0
  187.2840  178.1510  145.2450 C   0  0  0  0  0  0  0  0  0  0  0  0
  189.0780  177.3950  143.5690 C   0  0  2  0  0  3  0  0  0  0  0  0
  191.1360  176.3380  142.5830 C   0  0  0  0  0  1  0  0  0  0  0  0
  191.1860  179.7530  144.3370 C   0  0  0  0  0  1  0  0  0  0  0  0
  190.7180  176.4360  145.7930 C   0  0  0  0  0  2  0  0  0  0  0  0
  184.3170  177.9520  142.0540 C   0  0  2  0  0  3  0  0  0  0  0  0
  184.4330  178.8920  139.0980 C   0  0  0  0  0  2  0  0  0  0  0  0
  188.1680  178.0450  142.5400 C   0  0  0  0  0  2  0  0  0  0  0  0
  189.2930  176.9150  146.0600 C   0  0  0  0  0  2  0  0  0  0  0  0
  185.8010  178.2520  141.7500 C   0  0  1  0  0  3  0  0  0  0  0  0
  182.3320  179.4010  142.1120 C   0  0  0  0  0  2  0  0  0  0  0  0
  188.7520  177.8820  144.9980 C   0  0  2  0  0  3  0  0  0  0  0  0
  191.6800  177.5890  145.5220 C   0  0  0  0  0  2  0  0  0  0  0  0
  183.9240  179.6560  140.2300 N   0  0  0  0  0  0  0  0  0  0  0  0
  186.3290  178.0940  144.2070 C   0  0  0  0  0  0  0  0  0  0  0  0
  190.5430  177.6170  143.1420 C   0  0  2  0  0  3  0  0  0  0  0  0
  186.7200  177.6540  142.8190 C   0  0  2  0  0  3  0  0  0  0  0  0
  185.5920  178.7940  146.7720 C   0  0  0  0  0  3  0  0  0  0  0  0
  185.9180  178.6390  139.2700 C   0  0  0  0  0  2  0  0  0  0  0  0
  186.8910  178.5240  146.4920 N   0  0  0  0  0  0  0  0  0  0  0  0
  186.1660  177.6480  140.3950 C   0  0  0  0  0  2  0  0  0  0  0  0
  183.2950  178.6980  141.1550 C   0  0  1  0  0  3  0  0  0  0  0  0
  184.6540  178.7050  145.7970 N   0  0  0  0  0  0  0  0  0  0  0  0
  183.8930  178.2530  143.4970 C   0  0  1  0  0  3  0  0  0  0  0  0
  182.9610  180.4660  139.7220 O   0  0  0  0  0  0  0  0  0  0  0  0
  182.4000  179.7410  138.6670 C   0  0  0  0  0  2  0  0  0  0  0  0
  179.4630  179.8560  140.1590 O   0  0  0  0  0  0  0  0  0  0  0  0
  180.7550  181.4730  139.0780 N   0  0  0  0  0  2  0  0  0  0  0  0
  180.9790  180.2110  138.4110 C   0  0  2  0  0  3  0  0  0  0  0  0
  179.5910  181.2310  139.9170 C   0  0  0  0  0  2  0  0  0  0  0  0
  180.0100  179.2420  139.0290 C   0  0  0  0  0  2  0  0  0  0  0  0
  1 26  1  0  0  0  0
  2 27  1  0  0  0  0
  3  7  1  1  0  0  0
  3 16  1  0  0  0  0
  4 23  2  0  0  0  0
  5 11  1  6  0  0  0
  5 15  1  0  0  0  0
  6 19  1  0  0  0  0
  8 12  1  0  0  0  0
  9 27  1  0  0  0  0
 10 22  1  0  0  0  0
 10 17  1  0  0  0  0
 11 20  1  0  0  0  0
 13  9  1  0  0  0  0
 13 20  1  0  0  0  0
 14  2  1  0  0  0  0
 15  4  1  0  0  0  0
 15 12  1  0  0  0  0
 16  8  1  0  0  0  0
 17 25  1  0  0  0  0
 18  1  2  0  0  0  0
 18  4  1  0  0  0  0
 19  5  1  0  0  0  0
 19  3  1  0  0  0  0
 20 18  1  0  0  0  0
 22 24  1  0  0  0  0
 23 21  1  0  0  0  0
 24 13  1  0  0  0  0
 25  9  1  0  0  0  0
 25 14  1  0  0  0  0
 26 21  2  0  0  0  0
 27  1  1  0  0  0  0
 28 17  1  0  0  0  0
 29 28  1  0  0  0  0
 31 33  1  0  0  0  0
 32 29  1  0  0  0  0
 32 34  1  0  0  0  0
 32 31  1  0  0  0  0
 33 30  1  0  0  0  0
 34 30  1  0  0  0  0
M  END
>  <MODEL>
4

>  <REMARK>
 VINA RESULT:      -7.9      3.192      8.664
  Name = 
  3 active torsions:
  status: ('A' for Active; 'I' for Inactive)
    1  A    between atoms: N_17  and  O_28
    2  A    between atoms: O_28  and  C_29
    3  A    between atoms: C_29  and  C_32
                            x       y       z     vdW  Elec       q    Type
                         _______ _______ _______ _____ _____    ______ ____

>  <TORSDO>
F 3

$$$$
=
 OpenBabel11122412053D

 34 40  0  0  1  0  0  0  0  0999 V2000
  188.4510  178.0600  138.1890 C   0  0  0  0  0  0  0  0  0  0  0  0
  186.8060  178.3620  140.0430 C   0  0  0  0  0  2  0  0  0  0  0  0
  192.6310  173.5720  135.9760 C   0  0  1  0  0  3  0  0  0  0  0  0
  189.7770  176.7980  136.6120 C   0  0  0  0  0  0  0  0  0  0  0  0
  191.9740  175.7110  137.3820 C   0  0  2  0  0  3  0  0  0  0  0  0
  194.3210  174.8080  137.3890 C   0  0  0  0  0  1  0  0  0  0  0  0
  191.3240  172.8070  136.0640 C   0  0  0  0  0  1  0  0  0  0  0  0
  192.9340  175.7500  134.6190 C   0  0  0  0  0  2  0  0  0  0  0  0
  189.1530  178.2520  140.6770 C   0  0  2  0  0  3  0  0  0  0  0  0
  189.5270  176.8570  143.4240 C   0  0  0  0  0  2  0  0  0  0  0  0
  191.2900  175.6550  138.7370 C   0  0  0  0  0  2  0  0  0  0  0  0
  191.6270  176.4570  134.9730 C   0  0  0  0  0  2  0  0  0  0  0  0
  189.9490  176.9580  140.4030 C   0  0  1  0  0  3  0  0  0  0  0  0
  186.8760  178.6250  141.5260 C   0  0  0  0  0  2  0  0  0  0  0  0
  190.9530  175.9210  136.2420 C   0  0  2  0  0  3  0  0  0  0  0  0
  192.7870  174.2310  134.5940 C   0  0  0  0  0  2  0  0  0  0  0  0
  188.2930  176.9320  142.6530 N   0  0  0  0  0  0  0  0  0  0  0  0
  189.5750  177.2580  137.9310 C   0  0  0  0  0  0  0  0  0  0  0  0
  192.8550  174.4570  137.2210 C   0  0  2  0  0  3  0  0  0  0  0  0
  190.5890  176.9820  139.0110 C   0  0  2  0  0  3  0  0  0  0  0  0
  187.7720  177.8570  135.9300 C   0  0  0  0  0  3  0  0  0  0  0  0
  190.5640  176.0510  142.6650 C   0  0  0  0  0  2  0  0  0  0  0  0
  188.8560  177.0900  135.6550 N   0  0  0  0  0  0  0  0  0  0  0  0
  191.0540  176.8190  141.4490 C   0  0  0  0  0  2  0  0  0  0  0  0
  188.2870  178.2350  141.9650 C   0  0  1  0  0  3  0  0  0  0  0  0
  187.5820  178.3420  137.1810 N   0  0  0  0  0  0  0  0  0  0  0  0
  188.2000  178.6600  139.5460 C   0  0  1  0  0  3  0  0  0  0  0  0
  187.2880  176.9190  143.5660 O   0  0  0  0  0  0  0  0  0  0  0  0
  187.8860  177.3220  144.7640 C   0  0  0  0  0  2  0  0  0  0  0  0
  186.8930  178.9240  147.4670 O   0  0  0  0  0  0  0  0  0  0  0  0
  185.7380  178.0000  145.6620 N   0  0  0  0  0  2  0  0  0  0  0  0
  186.9000  177.1770  145.9100 C   0  0  2  0  0  3  0  0  0  0  0  0
  185.6410  178.8450  146.8410 C   0  0  0  0  0  2  0  0  0  0  0  0
  187.5170  177.7100  147.1730 C   0  0  0  0  0  2  0  0  0  0  0  0
  1 27  1  0  0  0  0
  2 14  1  0  0  0  0
  3  7  1  1  0  0  0
  3 19  1  0  0  0  0
  4 18  2  0  0  0  0
  5 11  1  1  0  0  0
  8 12  1  0  0  0  0
  9 25  1  0  0  0  0
 11 20  1  0  0  0  0
 12 15  1  0  0  0  0
 13  9  1  0  0  0  0
 13 24  1  0  0  0  0
 14 25  1  0  0  0  0
 15  4  1  0  0  0  0
 15  5  1  0  0  0  0
 16  8  1  0  0  0  0
 16  3  1  0  0  0  0
 17 10  1  0  0  0  0
 17 28  1  0  0  0  0
 18  1  1  0  0  0  0
 18 20  1  0  0  0  0
 19  5  1  0  0  0  0
 19  6  1  0  0  0  0
 20 13  1  0  0  0  0
 21 26  1  0  0  0  0
 22 10  1  0  0  0  0
 23 21  2  0  0  0  0
 23  4  1  0  0  0  0
 24 22  1  0  0  0  0
 25 17  1  0  0  0  0
 26  1  2  0  0  0  0
 27  2  1  0  0  0  0
 27  9  1  0  0  0  0
 28 29  1  0  0  0  0
 29 32  1  0  0  0  0
 31 32  1  0  0  0  0
 31 33  1  0  0  0  0
 32 34  1  0  0  0  0
 33 30  1  0  0  0  0
 34 30  1  0  0  0  0
M  END
>  <MODEL>
5

>  <REMARK>
 VINA RESULT:      -7.9      5.460      8.325
  Name = 
  3 active torsions:
  status: ('A' for Active; 'I' for Inactive)
    1  A    between atoms: N_17  and  O_28
    2  A    between atoms: O_28  and  C_29
    3  A    between atoms: C_29  and  C_32
                            x       y       z     vdW  Elec       q    Type
                         _______ _______ _______ _____ _____    ______ ____

>  <TORSDO>
F 3

$$$$
=
 OpenBabel11122412053D

 34 40  0  0  1  0  0  0  0  0999 V2000
  186.4280  178.4280  141.8390 C   0  0  0  0  0  0  0  0  0  0  0  0
  188.7410  177.4880  141.8960 C   0  0  0  0  0  2  0  0  0  0  0  0
  180.7280  177.3450  138.8640 C   0  0  1  0  0  3  0  0  0  0  0  0
  184.0360  178.3580  141.5080 C   0  0  0  0  0  0  0  0  0  0  0  0
  183.0760  178.5290  139.1310 C   0  0  2  0  0  3  0  0  0  0  0  0
  181.5550  179.0540  137.1980 C   0  0  0  0  0  1  0  0  0  0  0  0
  181.0640  175.9910  139.4610 C   0  0  0  0  0  1  0  0  0  0  0  0
  180.5600  179.5240  140.2440 C   0  0  0  0  0  2  0  0  0  0  0  0
  188.0550  178.5670  139.8260 C   0  0  2  0  0  3  0  0  0  0  0  0
  189.3060  177.1790  137.3490 C   0  0  0  0  0  2  0  0  0  0  0  0
  184.3940  177.8930  138.7210 C   0  0  0  0  0  2  0  0  0  0  0  0
  181.7700  179.3420  141.1590 C   0  0  0  0  0  2  0  0  0  0  0  0
  186.8790  177.9750  139.0190 C   0  0  1  0  0  3  0  0  0  0  0  0
  189.9440  177.5050  140.9870 C   0  0  0  0  0  2  0  0  0  0  0  0
  182.7990  178.3300  140.6370 C   0  0  2  0  0  3  0  0  0  0  0  0
  179.9160  178.1950  139.8580 C   0  0  0  0  0  2  0  0  0  0  0  0
  189.3450  176.6960  138.7230 N   0  0  0  0  0  0  0  0  0  0  0  0
  185.3350  178.4160  140.9580 C   0  0  0  0  0  0  0  0  0  0  0  0
  181.9640  177.9960  138.2060 C   0  0  2  0  0  3  0  0  0  0  0  0
  185.5400  178.5640  139.4730 C   0  0  2  0  0  3  0  0  0  0  0  0
  184.9580  178.2550  143.6870 C   0  0  0  0  0  3  0  0  0  0  0  0
  187.8750  177.1970  136.8470 C   0  0  0  0  0  2  0  0  0  0  0  0
  183.8860  178.2530  142.8560 N   0  0  0  0  0  0  0  0  0  0  0  0
  187.0790  178.2920  137.5380 C   0  0  0  0  0  2  0  0  0  0  0  0
  189.4260  177.8770  139.5980 C   0  0  1  0  0  3  0  0  0  0  0  0
  186.2110  178.3520  143.1800 N   0  0  0  0  0  0  0  0  0  0  0  0
  187.8420  178.5690  141.3460 C   0  0  1  0  0  3  0  0  0  0  0  0
  190.5020  175.9940  138.8320 O   0  0  0  0  0  0  0  0  0  0  0  0
  191.3620  176.5700  137.8930 C   0  0  0  0  0  2  0  0  0  0  0  0
  193.5010  174.5690  136.3820 O   0  0  0  0  0  0  0  0  0  0  0  0
  193.6850  176.7410  137.2180 N   0  0  0  0  0  2  0  0  0  0  0  0
  192.7660  176.0170  138.0680 C   0  0  2  0  0  3  0  0  0  0  0  0
  194.3210  175.7060  136.4180 C   0  0  0  0  0  2  0  0  0  0  0  0
  192.8060  174.5910  137.5940 C   0  0  0  0  0  2  0  0  0  0  0  0
  1 26  1  0  0  0  0
  3  7  1  1  0  0  0
  3 16  1  0  0  0  0
  4 23  2  0  0  0  0
  5 11  1  6  0  0  0
  5 15  1  0  0  0  0
  6 19  1  0  0  0  0
  8 12  1  0  0  0  0
  9 27  1  0  0  0  0
 10 17  1  0  0  0  0
 11 20  1  0  0  0  0
 13 20  1  0  0  0  0
 13  9  1  0  0  0  0
 14  2  1  0  0  0  0
 15 12  1  0  0  0  0
 15  4  1  0  0  0  0
 16  8  1  0  0  0  0
 17 28  1  0  0  0  0
 17 25  1  0  0  0  0
 18  4  1  0  0  0  0
 18  1  2  0  0  0  0
 19  3  1  0  0  0  0
 19  5  1  0  0  0  0
 20 18  1  0  0  0  0
 22 10  1  0  0  0  0
 22 24  1  0  0  0  0
 23 21  1  0  0  0  0
 24 13  1  0  0  0  0
 25  9  1  0  0  0  0
 25 14  1  0  0  0  0
 26 21  2  0  0  0  0
 27  1  1  0  0  0  0
 27  2  1  0  0  0  0
 29 32  1  0  0  0  0
 29 28  1  0  0  0  0
 30 33  1  0  0  0  0
 30 34  1  0  0  0  0
 31 32  1  0  0  0  0
 33 31  1  0  0  0  0
 34 32  1  0  0  0  0
M  END
>  <MODEL>
6

>  <REMARK>
 VINA RESULT:      -7.9      4.388      5.617
  Name = 
  3 active torsions:
  status: ('A' for Active; 'I' for Inactive)
    1  A    between atoms: N_17  and  O_28
    2  A    between atoms: O_28  and  C_29
    3  A    between atoms: C_29  and  C_32
                            x       y       z     vdW  Elec       q    Type
                         _______ _______ _______ _____ _____    ______ ____

>  <TORSDO>
F 3

$$$$
=
 OpenBabel11122412053D

 34 40  0  0  1  0  0  0  0  0999 V2000
  184.2210  178.8010  143.3360 C   0  0  0  0  0  0  0  0  0  0  0  0
  186.2740  177.8850  144.4210 C   0  0  0  0  0  2  0  0  0  0  0  0
  180.4290  177.6350  138.1610 C   0  0  1  0  0  3  0  0  0  0  0  0
  182.2210  178.7040  141.9820 C   0  0  0  0  0  0  0  0  0  0  0  0
  182.4110  178.8440  139.4240 C   0  0  2  0  0  3  0  0  0  0  0  0
  181.8990  179.3370  137.0110 C   0  0  0  0  0  1  0  0  0  0  0  0
  180.4730  176.2900  138.8620 C   0  0  0  0  0  1  0  0  0  0  0  0
  179.6580  179.8240  139.2970 C   0  0  0  0  0  2  0  0  0  0  0  0
  186.5690  178.9390  142.2480 C   0  0  2  0  0  3  0  0  0  0  0  0
  188.7930  177.5410  140.5970 C   0  0  0  0  0  2  0  0  0  0  0  0
  183.7780  178.2180  139.6470 C   0  0  0  0  0  2  0  0  0  0  0  0
  180.3380  179.6620  140.6550 C   0  0  0  0  0  2  0  0  0  0  0  0
  185.8740  178.3280  141.0120 C   0  0  1  0  0  3  0  0  0  0  0  0
  187.7550  177.9060  144.1380 C   0  0  0  0  0  2  0  0  0  0  0  0
  181.4970  178.6570  140.6550 C   0  0  2  0  0  3  0  0  0  0  0  0
  179.2570  178.4850  138.6830 C   0  0  0  0  0  2  0  0  0  0  0  0
  188.2230  177.0700  141.8520 N   0  0  0  0  0  0  0  0  0  0  0  0
  183.6290  178.7710  142.0630 C   0  0  0  0  0  0  0  0  0  0  0  0
  181.8250  178.2920  138.1090 C   0  0  2  0  0  3  0  0  0  0  0  0
  184.4690  178.9070  140.8190 C   0  0  2  0  0  3  0  0  0  0  0  0
  182.0850  178.6300  144.3460 C   0  0  0  0  0  3  0  0  0  0  0  0
  187.7310  177.5400  139.5130 C   0  0  0  0  0  2  0  0  0  0  0  0
  181.4920  178.6100  143.1260 N   0  0  0  0  0  0  0  0  0  0  0  0
  186.7070  178.6330  139.7680 C   0  0  0  0  0  2  0  0  0  0  0  0
  187.9030  178.2610  142.6580 C   0  0  1  0  0  3  0  0  0  0  0  0
  183.4330  178.7350  144.4430 N   0  0  0  0  0  0  0  0  0  0  0  0
  185.7060  178.9520  143.5170 C   0  0  1  0  0  3  0  0  0  0  0  0
  189.2160  176.3810  142.4700 O   0  0  0  0  0  0  0  0  0  0  0  0
  190.3940  176.8220  141.8600 C   0  0  0  0  0  2  0  0  0  0  0  0
  191.1860  178.2060  144.7450 O   0  0  0  0  0  0  0  0  0  0  0  0
  191.1930  175.9950  143.9950 N   0  0  0  0  0  2  0  0  0  0  0  0
  191.5260  176.8430  142.8720 C   0  0  2  0  0  3  0  0  0  0  0  0
  191.3140  176.8700  145.1510 C   0  0  0  0  0  2  0  0  0  0  0  0
  191.6710  178.2300  143.4350 C   0  0  0  0  0  2  0  0  0  0  0  0
  1 27  1  0  0  0  0
  1 26  1  0  0  0  0
  3 16  1  0  0  0  0
  3  7  1  1  0  0  0
  4 18  1  0  0  0  0
  4 23  2  0  0  0  0
  5 11  1  1  0  0  0
  5 15  1  0  0  0  0
  6 19  1  0  0  0  0
  8 12  1  0  0  0  0
  9 25  1  0  0  0  0
  9 27  1  0  0  0  0
 10 17  1  0  0  0  0
 11 20  1  0  0  0  0
 12 15  1  0  0  0  0
 13  9  1  0  0  0  0
 14  2  1  0  0  0  0
 15  4  1  0  0  0  0
 16  8  1  0  0  0  0
 17 28  1  0  0  0  0
 17 25  1  0  0  0  0
 18  1  2  0  0  0  0
 19  3  1  0  0  0  0
 19  5  1  0  0  0  0
 20 13  1  0  0  0  0
 20 18  1  0  0  0  0
 21 26  2  0  0  0  0
 22 24  1  0  0  0  0
 22 10  1  0  0  0  0
 23 21  1  0  0  0  0
 24 13  1  0  0  0  0
 25 14  1  0  0  0  0
 27  2  1  0  0  0  0
 29 28  1  0  0  0  0
 29 32  1  0  0  0  0
 30 33  1  0  0  0  0
 31 33  1  0  0  0  0
 32 34  1  0  0  0  0
 32 31  1  0  0  0  0
 34 30  1  0  0  0  0
M  END
>  <MODEL>
7

>  <REMARK>
 VINA RESULT:      -7.9      1.820      2.308
  Name = 
  3 active torsions:
  status: ('A' for Active; 'I' for Inactive)
    1  A    between atoms: N_17  and  O_28
    2  A    between atoms: O_28  and  C_29
    3  A    between atoms: C_29  and  C_32
                            x       y       z     vdW  Elec       q    Type
                         _______ _______ _______ _____ _____    ______ ____

>  <TORSDO>
F 3

$$$$
=
 OpenBabel11122412053D

 34 40  0  0  1  0  0  0  0  0999 V2000
  186.2670  178.3010  139.5660 C   0  0  0  0  0  0  0  0  0  0  0  0
  185.2220  178.2160  141.8320 C   0  0  0  0  0  2  0  0  0  0  0  0
  190.4180  174.8510  135.9080 C   0  0  1  0  0  3  0  0  0  0  0  0
  187.2910  177.3750  137.5830 C   0  0  0  0  0  0  0  0  0  0  0  0
  189.7900  176.7790  137.6030 C   0  0  2  0  0  3  0  0  0  0  0  0
  192.1650  176.4040  136.8650 C   0  0  0  0  0  1  0  0  0  0  0  0
  189.3800  173.8200  136.3100 C   0  0  0  0  0  1  0  0  0  0  0  0
  189.8560  177.0600  134.6920 C   0  0  0  0  0  2  0  0  0  0  0  0
  187.6220  178.6070  141.7540 C   0  0  2  0  0  3  0  0  0  0  0  0
  189.0700  177.2900  144.1620 C   0  0  0  0  0  2  0  0  0  0  0  0
  189.5660  176.5580  139.0890 C   0  0  0  0  0  2  0  0  0  0  0  0
  188.5990  177.4640  135.4600 C   0  0  0  0  0  2  0  0  0  0  0  0
  188.5460  177.5200  141.1650 C   0  0  1  0  0  3  0  0  0  0  0  0
  185.6750  178.4690  143.2480 C   0  0  0  0  0  2  0  0  0  0  0  0
  188.4560  176.7780  136.8250 C   0  0  2  0  0  3  0  0  0  0  0  0
  190.0200  175.5460  134.5940 C   0  0  0  0  0  2  0  0  0  0  0  0
  187.6750  177.1070  143.7870 N   0  0  0  0  0  0  0  0  0  0  0  0
  187.4010  177.7640  138.9360 C   0  0  0  0  0  0  0  0  0  0  0  0
  190.8180  175.7460  137.1010 C   0  0  2  0  0  3  0  0  0  0  0  0
  188.7250  177.6990  139.6540 C   0  0  2  0  0  3  0  0  0  0  0  0
  185.0030  177.9860  137.5890 C   0  0  0  0  0  3  0  0  0  0  0  0
  189.9750  176.7370  143.0780 C   0  0  0  0  0  2  0  0  0  0  0  0
  186.0880  177.4740  136.9570 N   0  0  0  0  0  0  0  0  0  0  0  0
  189.9160  177.6090  141.8350 C   0  0  0  0  0  2  0  0  0  0  0  0
  187.2010  178.3860  143.2310 C   0  0  1  0  0  3  0  0  0  0  0  0
  185.1000  178.4020  138.8750 N   0  0  0  0  0  0  0  0  0  0  0  0
  186.3150  178.8140  140.9790 C   0  0  1  0  0  3  0  0  0  0  0  0
  187.0110  176.8650  144.9460 O   0  0  0  0  0  0  0  0  0  0  0  0
  187.3740  177.9160  145.7940 C   0  0  0  0  0  2  0  0  0  0  0  0
  189.7140  177.5650  148.0890 O   0  0  0  0  0  0  0  0  0  0  0  0
  187.5810  178.5130  148.1350 N   0  0  0  0  0  2  0  0  0  0  0  0
  187.5500  177.4010  147.2120 C   0  0  2  0  0  3  0  0  0  0  0  0
  188.8340  178.3450  148.8530 C   0  0  0  0  0  2  0  0  0  0  0  0
  188.8870  176.7250  147.3390 C   0  0  0  0  0  2  0  0  0  0  0  0
  1 27  1  0  0  0  0
  2 14  1  0  0  0  0
  3  7  1  1  0  0  0
  3 19  1  0  0  0  0
  4 18  2  0  0  0  0
  5 11  1  1  0  0  0
  6 19  1  0  0  0  0
  8 12  1  0  0  0  0
  9 25  1  0  0  0  0
 11 20  1  0  0  0  0
 12 15  1  0  0  0  0
 13  9  1  0  0  0  0
 13 24  1  0  0  0  0
 15  4  1  0  0  0  0
 15  5  1  0  0  0  0
 16  8  1  0  0  0  0
 16  3  1  0  0  0  0
 17 10  1  0  0  0  0
 17 28  1  0  0  0  0
 18  1  1  0  0  0  0
 18 20  1  0  0  0  0
 19  5  1  0  0  0  0
 20 13  1  0  0  0  0
 21 26  1  0  0  0  0
 22 10  1  0  0  0  0
 23  4  1  0  0  0  0
 23 21  2  0  0  0  0
 24 22  1  0  0  0  0
 25 14  1  0  0  0  0
 25 17  1  0  0  0  0
 26  1  2  0  0  0  0
 27  9  1  0  0  0  0
 27  2  1  0  0  0  0
 28 29  1  0  0  0  0
 29 32  1  0  0  0  0
 30 33  1  0  0  0  0
 31 33  1  0  0  0  0
 32 34  1  0  0  0  0
 32 31  1  0  0  0  0
 34 30  1  0  0  0  0
M  END
>  <MODEL>
8

>  <REMARK>
 VINA RESULT:      -7.8      4.209      6.259
  Name = 
  3 active torsions:
  status: ('A' for Active; 'I' for Inactive)
    1  A    between atoms: N_17  and  O_28
    2  A    between atoms: O_28  and  C_29
    3  A    between atoms: C_29  and  C_32
                            x       y       z     vdW  Elec       q    Type
                         _______ _______ _______ _____ _____    ______ ____

>  <TORSDO>
F 3

$$$$
=
 OpenBabel11122412053D

 34 40  0  0  1  0  0  0  0  0999 V2000
  186.9670  178.0940  138.6760 C   0  0  0  0  0  0  0  0  0  0  0  0
  184.6320  177.8250  137.8360 C   0  0  0  0  0  2  0  0  0  0  0  0
  190.6170  176.3170  143.7790 C   0  0  1  0  0  3  0  0  0  0  0  0
  188.9360  177.4720  139.9320 C   0  0  0  0  0  0  0  0  0  0  0  0
  189.0490  177.9780  142.4490 C   0  0  2  0  0  3  0  0  0  0  0  0
  189.9240  178.5490  144.7360 C   0  0  0  0  0  1  0  0  0  0  0  0
  190.0540  174.9970  143.2850 C   0  0  0  0  0  1  0  0  0  0  0  0
  191.9700  177.9470  142.3000 C   0  0  0  0  0  2  0  0  0  0  0  0
  184.9180  179.1700  139.8430 C   0  0  2  0  0  3  0  0  0  0  0  0
  182.5200  178.8420  141.7860 C   0  0  0  0  0  2  0  0  0  0  0  0
  187.5360  177.8440  142.3860 C   0  0  0  0  0  2  0  0  0  0  0  0
  191.1490  177.8700  141.0140 C   0  0  0  0  0  2  0  0  0  0  0  0
  185.4800  178.5100  141.1200 C   0  0  1  0  0  3  0  0  0  0  0  0
  183.2790  178.3940  138.1830 C   0  0  0  0  0  2  0  0  0  0  0  0
  189.7240  177.3370  141.2160 C   0  0  2  0  0  3  0  0  0  0  0  0
  191.9520  176.6370  143.0830 C   0  0  0  0  0  2  0  0  0  0  0  0
  182.7760  178.0550  140.5860 N   0  0  0  0  0  0  0  0  0  0  0  0
  187.6320  178.0140  139.9100 C   0  0  0  0  0  0  0  0  0  0  0  0
  189.5360  177.4200  143.8010 C   0  0  2  0  0  3  0  0  0  0  0  0
  187.0100  178.5840  141.1590 C   0  0  2  0  0  3  0  0  0  0  0  0
  188.8130  177.0710  137.6020 C   0  0  0  0  0  3  0  0  0  0  0  0
  183.6180  178.6040  142.8050 C   0  0  0  0  0  2  0  0  0  0  0  0
  189.4780  176.9930  138.7810 N   0  0  0  0  0  0  0  0  0  0  0  0
  184.9220  179.2330  142.3450 C   0  0  0  0  0  2  0  0  0  0  0  0
  183.4010  178.9530  139.6000 C   0  0  1  0  0  3  0  0  0  0  0  0
  187.5770  177.6250  137.5540 N   0  0  0  0  0  0  0  0  0  0  0  0
  185.6100  178.7290  138.5460 C   0  0  1  0  0  3  0  0  0  0  0  0
  181.5540  177.6850  140.1240 O   0  0  0  0  0  0  0  0  0  0  0  0
  180.6840  177.8960  141.1970 C   0  0  0  0  0  2  0  0  0  0  0  0
  179.3210  175.6400  139.2190 O   0  0  0  0  0  0  0  0  0  0  0  0
  179.2520  175.9680  141.5290 N   0  0  0  0  0  2  0  0  0  0  0  0
  179.3340  177.2670  140.9020 C   0  0  2  0  0  3  0  0  0  0  0  0
  178.9320  175.0630  140.4360 C   0  0  0  0  0  2  0  0  0  0  0  0
  179.2090  177.0170  139.4240 C   0  0  0  0  0  2  0  0  0  0  0  0
  1 18  1  0  0  0  0
  2 14  1  0  0  0  0
  2 27  1  0  0  0  0
  3  7  1  6  0  0  0
  3 19  1  0  0  0  0
  4 15  1  0  0  0  0
  5 11  1  6  0  0  0
  5 19  1  0  0  0  0
  8 16  1  0  0  0  0
  9 13  1  0  0  0  0
 10 22  1  0  0  0  0
 12 15  1  0  0  0  0
 12  8  1  0  0  0  0
 13 20  1  0  0  0  0
 13 24  1  0  0  0  0
 14 25  1  0  0  0  0
 15  5  1  0  0  0  0
 16  3  1  0  0  0  0
 17 10  1  0  0  0  0
 18  4  2  0  0  0  0
 18 20  1  0  0  0  0
 19  6  1  0  0  0  0
 20 11  1  0  0  0  0
 21 23  2  0  0  0  0
 23  4  1  0  0  0  0
 24 22  1  0  0  0  0
 25  9  1  0  0  0  0
 25 17  1  0  0  0  0
 26 21  1  0  0  0  0
 26  1  2  0  0  0  0
 27  1  1  0  0  0  0
 27  9  1  0  0  0  0
 28 17  1  0  0  0  0
 28 29  1  0  0  0  0
 30 34  1  0  0  0  0
 30 33  1  0  0  0  0
 32 29  1  0  0  0  0
 32 31  1  0  0  0  0
 33 31  1  0  0  0  0
 34 32  1  0  0  0  0
M  END
>  <MODEL>
9

>  <REMARK>
 VINA RESULT:      -7.7      3.523      9.088
  Name = 
  3 active torsions:
  status: ('A' for Active; 'I' for Inactive)
    1  A    between atoms: N_17  and  O_28
    2  A    between atoms: O_28  and  C_29
    3  A    between atoms: C_29  and  C_32
                            x       y       z     vdW  Elec       q    Type
                         _______ _______ _______ _____ _____    ______ ____

>  <TORSDO>
F 3

$$$$
