=
 OpenBabel11122410423D

 32 38  0  0  1  0  0  0  0  0999 V2000
  188.3770  178.2080  137.0970 C   0  0  1  0  0  3  0  0  0  0  0  0
  188.0890  177.2800  142.2380 C   0  0  1  0  0  3  0  0  0  0  0  0
  183.4930  178.8930  143.0470 C   0  0  0  0  0  3  0  0  0  0  0  0
  183.6890  178.7900  144.4250 C   0  0  0  0  0  3  0  0  0  0  0  0
  189.6210  176.9740  144.3090 C   0  0  0  0  0  0  0  0  0  0  0  0
  189.7690  177.1370  145.6820 C   0  0  0  0  0  0  0  0  0  0  0  0
  188.8800  177.3280  139.8670 C   0  0  1  0  0  3  0  0  0  0  0  0
  186.6130  177.9250  140.4340 O   0  0  0  0  0  0  0  0  0  0  0  0
  189.1900  177.6490  147.7130 N   0  0  0  0  0  0  0  0  0  0  0  0
  187.2350  178.2980  138.1220 C   0  0  2  0  0  3  0  0  0  0  0  0
  184.5630  178.6930  142.1730 C   0  0  0  0  0  3  0  0  0  0  0  0
  187.0100  178.2700  141.7420 C   0  0  1  0  0  3  0  0  0  0  0  0
  185.8330  178.3640  142.6690 C   0  0  0  0  0  0  0  0  0  0  0  0
  187.3710  177.9380  144.5950 C   0  0  0  0  0  0  0  0  0  0  0  0
  190.4040  177.1090  147.7250 N   0  0  0  0  0  0  0  0  0  0  0  0
  189.7660  178.0320  137.6810 C   0  0  0  0  0  3  0  0  0  0  0  0
  187.6910  178.2630  139.5960 C   0  0  2  0  0  3  0  0  0  0  0  0
  190.7890  176.7810  146.4900 N   0  0  0  0  0  0  0  0  0  0  0  0
  190.0090  177.6590  138.9460 C   0  0  0  0  0  3  0  0  0  0  0  0
  187.4910  176.9990  137.3700 C   0  0  1  0  0  3  0  0  0  0  0  0
  184.9560  178.4870  144.9290 C   0  0  0  0  0  3  0  0  0  0  0  0
  186.0370  178.2780  144.0570 C   0  0  0  0  0  0  0  0  0  0  0  0
  187.5920  178.0480  145.9430 N   0  0  0  0  0  0  0  0  0  0  0  0
  189.3050  177.4710  141.3230 C   0  0  0  0  0  2  0  0  0  0  0  0
  190.6920  176.2670  143.5450 C   0  0  0  0  0  1  0  0  0  0  0  0
  188.4570  178.0840  148.8880 C   0  0  0  0  0  1  0  0  0  0  0  0
  188.4030  177.4450  143.7230 C   0  0  0  0  0  0  0  0  0  0  0  0
  188.7890  177.6690  146.4400 C   0  0  0  0  0  0  0  0  0  0  0  0
  186.5180  176.8630  136.3000 N   0  0  0  0  0  2  0  0  0  0  0  0
  185.5860  175.7820  136.2580 C   0  0  0  0  0  0  0  0  0  0  0  0
  184.6770  175.6990  135.2130 O   0  0  0  0  0  0  0  0  0  0  0  0
  185.5830  174.9020  137.1590 O   0  0  0  0  0  1  0  0  0  0  0  0
  1 20  1  0  0  0  0
  1 16  1  1  0  0  0
  1 10  1  0  0  0  0
  2 24  1  6  0  0  0
  2 27  1  0  0  0  0
  3  4  1  0  0  0  0
  4 21  2  0  0  0  0
  5  6  1  0  0  0  0
  6 28  2  0  0  0  0
  6 18  1  0  0  0  0
  7 19  1  6  0  0  0
  7 24  1  0  0  0  0
  8 12  1  0  0  0  0
  9 15  1  0  0  0  0
  9 26  1  0  0  0  0
 10 17  1  0  0  0  0
 11 13  1  0  0  0  0
 11  3  2  0  0  0  0
 12  2  1  0  0  0  0
 12 13  1  0  0  0  0
 13 22  2  0  0  0  0
 14 23  2  0  0  0  0
 16 19  2  0  0  0  0
 17  7  1  0  0  0  0
 17  8  1  0  0  0  0
 18 15  2  0  0  0  0
 20 10  1  0  0  0  0
 22 14  1  0  0  0  0
 22 21  1  0  0  0  0
 23 28  1  0  0  0  0
 25  5  1  0  0  0  0
 27  5  2  0  0  0  0
 27 14  1  0  0  0  0
 28  9  1  0  0  0  0
 29 20  1  0  0  0  0
 30 29  1  0  0  0  0
 30 32  1  0  0  0  0
 31 30  2  0  0  0  0
M  END
>  <MODEL>
1

>  <REMARK>
 VINA RESULT:     -11.2      0.000      0.000
  Name = 
  1 active torsions:
  status: ('A' for Active; 'I' for Inactive)
    1  A    between atoms: C_20  and  N_29
                            x       y       z     vdW  Elec       q    Type
                         _______ _______ _______ _____ _____    ______ ____

>  <TORSDO>
F 1

$$$$
=
 OpenBabel11122410423D

 32 38  0  0  1  0  0  0  0  0999 V2000
  180.2910  178.7440  141.6190 C   0  0  1  0  0  3  0  0  0  0  0  0
  185.0600  178.8010  143.7710 C   0  0  1  0  0  3  0  0  0  0  0  0
  187.7530  178.2590  139.6670 C   0  0  0  0  0  3  0  0  0  0  0  0
  188.9020  178.0680  140.4360 C   0  0  0  0  0  3  0  0  0  0  0  0
  186.2440  178.3530  146.0340 C   0  0  0  0  0  0  0  0  0  0  0  0
  187.3970  177.9210  146.6800 C   0  0  0  0  0  0  0  0  0  0  0  0
  182.5850  178.9740  143.4580 C   0  0  1  0  0  3  0  0  0  0  0  0
  184.0730  178.8670  141.5630 O   0  0  0  0  0  0  0  0  0  0  0  0
  189.4460  177.2220  146.8670 N   0  0  0  0  0  0  0  0  0  0  0  0
  181.7120  178.7610  141.0320 C   0  0  2  0  0  3  0  0  0  0  0  0
  186.5040  178.3380  140.2880 C   0  0  0  0  0  3  0  0  0  0  0  0
  185.0490  178.2120  142.3410 C   0  0  1  0  0  3  0  0  0  0  0  0
  186.3980  178.2510  141.6830 C   0  0  0  0  0  0  0  0  0  0  0  0
  187.4550  177.9400  143.9290 C   0  0  0  0  0  0  0  0  0  0  0  0
  188.9420  177.4340  148.0780 N   0  0  0  0  0  0  0  0  0  0  0  0
  180.2020  178.4660  143.1090 C   0  0  0  0  0  3  0  0  0  0  0  0
  182.8280  178.4250  142.0440 C   0  0  2  0  0  3  0  0  0  0  0  0
  187.6820  177.8670  147.9970 N   0  0  0  0  0  0  0  0  0  0  0  0
  181.2430  178.5410  143.9510 C   0  0  0  0  0  3  0  0  0  0  0  0
  180.9880  180.0670  141.3310 C   0  0  1  0  0  3  0  0  0  0  0  0
  188.8030  177.9560  141.8240 C   0  0  0  0  0  3  0  0  0  0  0  0
  187.5520  178.0400  142.4570 C   0  0  0  0  0  0  0  0  0  0  0  0
  188.5560  177.5460  144.6420 N   0  0  0  0  0  0  0  0  0  0  0  0
  183.6910  178.4790  144.3820 C   0  0  0  0  0  2  0  0  0  0  0  0
  185.1170  178.8950  146.8530 C   0  0  0  0  0  1  0  0  0  0  0  0
  190.8020  176.7830  146.5910 C   0  0  0  0  0  1  0  0  0  0  0  0
  186.2400  178.3070  144.6040 C   0  0  0  0  0  0  0  0  0  0  0  0
  188.4850  177.5240  145.9910 C   0  0  0  0  0  0  0  0  0  0  0  0
  180.4710  180.6240  140.0930 N   0  0  0  0  0  2  0  0  0  0  0  0
  179.4350  181.6060  140.0790 C   0  0  0  0  0  0  0  0  0  0  0  0
  178.9770  182.1060  138.8680 O   0  0  0  0  0  0  0  0  0  0  0  0
  178.9310  182.0220  141.1560 O   0  0  0  0  0  1  0  0  0  0  0  0
  1 16  1  1  0  0  0
  2 24  1  1  0  0  0
  2 27  1  0  0  0  0
  3 11  2  0  0  0  0
  3  4  1  0  0  0  0
  4 21  2  0  0  0  0
  5  6  1  0  0  0  0
  5 25  1  0  0  0  0
  6 18  1  0  0  0  0
  7 19  1  1  0  0  0
  7 24  1  0  0  0  0
  8 17  1  0  0  0  0
  8 12  1  0  0  0  0
  9 15  1  0  0  0  0
 10 20  1  0  0  0  0
 10  1  1  0  0  0  0
 10 17  1  0  0  0  0
 11 13  1  0  0  0  0
 12  2  1  0  0  0  0
 13 12  1  0  0  0  0
 13 22  2  0  0  0  0
 14 27  1  0  0  0  0
 14 23  2  0  0  0  0
 16 19  2  0  0  0  0
 17  7  1  0  0  0  0
 18 15  2  0  0  0  0
 20  1  1  0  0  0  0
 21 22  1  0  0  0  0
 22 14  1  0  0  0  0
 23 28  1  0  0  0  0
 26  9  1  0  0  0  0
 27  5  2  0  0  0  0
 28  6  2  0  0  0  0
 28  9  1  0  0  0  0
 29 20  1  0  0  0  0
 30 29  1  0  0  0  0
 30 32  1  0  0  0  0
 31 30  2  0  0  0  0
M  END
>  <MODEL>
2

>  <REMARK>
 VINA RESULT:     -10.6      3.240      5.975
  Name = 
  1 active torsions:
  status: ('A' for Active; 'I' for Inactive)
    1  A    between atoms: C_20  and  N_29
                            x       y       z     vdW  Elec       q    Type
                         _______ _______ _______ _____ _____    ______ ____

>  <TORSDO>
F 1

$$$$
=
 OpenBabel11122410423D

 32 38  0  0  1  0  0  0  0  0999 V2000
  181.7280  178.7180  140.2670 C   0  0  1  0  0  3  0  0  0  0  0  0
  185.9730  178.6640  143.3240 C   0  0  1  0  0  3  0  0  0  0  0  0
  189.3790  177.7020  139.8800 C   0  0  0  0  0  3  0  0  0  0  0  0
  190.3400  177.5030  140.8720 C   0  0  0  0  0  3  0  0  0  0  0  0
  186.6570  178.3070  145.8000 C   0  0  0  0  0  0  0  0  0  0  0  0
  187.6290  177.8590  146.6870 C   0  0  0  0  0  0  0  0  0  0  0  0
  183.6250  178.9480  142.5120 C   0  0  1  0  0  3  0  0  0  0  0  0
  185.4470  178.6340  140.9620 O   0  0  0  0  0  0  0  0  0  0  0  0
  189.5510  177.0640  147.3190 N   0  0  0  0  0  0  0  0  0  0  0  0
  183.2340  178.6190  139.9760 C   0  0  2  0  0  3  0  0  0  0  0  0
  188.0400  177.8900  140.2320 C   0  0  0  0  0  3  0  0  0  0  0  0
  186.2050  177.9810  141.9560 C   0  0  1  0  0  3  0  0  0  0  0  0
  187.6570  177.9030  141.5800 C   0  0  0  0  0  0  0  0  0  0  0  0
  188.2280  177.6890  144.0060 C   0  0  0  0  0  0  0  0  0  0  0  0
  188.8330  177.3840  148.3910 N   0  0  0  0  0  0  0  0  0  0  0  0
  181.3300  178.5460  141.7210 C   0  0  0  0  0  3  0  0  0  0  0  0
  184.1050  178.2920  141.2080 C   0  0  2  0  0  3  0  0  0  0  0  0
  187.6460  177.8780  148.0350 N   0  0  0  0  0  0  0  0  0  0  0  0
  182.1870  178.6220  142.7490 C   0  0  0  0  0  3  0  0  0  0  0  0
  182.5530  179.9800  140.0510 C   0  0  1  0  0  3  0  0  0  0  0  0
  189.9620  177.4900  142.2170 C   0  0  0  0  0  3  0  0  0  0  0  0
  188.6200  177.6830  142.5800 C   0  0  0  0  0  0  0  0  0  0  0  0
  189.1400  177.2850  144.9470 N   0  0  0  0  0  0  0  0  0  0  0  0
  184.4930  178.4580  143.6650 C   0  0  0  0  0  2  0  0  0  0  0  0
  185.4290  178.9630  146.3440 C   0  0  0  0  0  1  0  0  0  0  0  0
  190.9030  176.5360  147.3450 C   0  0  0  0  0  1  0  0  0  0  0  0
  186.9310  178.1650  144.4020 C   0  0  0  0  0  0  0  0  0  0  0  0
  188.8030  177.3580  146.2520 C   0  0  0  0  0  0  0  0  0  0  0  0
  182.3290  180.4780  138.7050 N   0  0  0  0  0  2  0  0  0  0  0  0
  181.2210  181.3210  138.3860 C   0  0  0  0  0  0  0  0  0  0  0  0
  181.0520  181.7700  137.0840 O   0  0  0  0  0  0  0  0  0  0  0  0
  180.3950  181.6590  139.2750 O   0  0  0  0  0  1  0  0  0  0  0  0
  1 16  1  1  0  0  0
  2 24  1  1  0  0  0
  2 27  1  0  0  0  0
  3 11  2  0  0  0  0
  3  4  1  0  0  0  0
  4 21  2  0  0  0  0
  5 25  1  0  0  0  0
  5  6  1  0  0  0  0
  6 18  1  0  0  0  0
  7 19  1  1  0  0  0
  7 24  1  0  0  0  0
  8 17  1  0  0  0  0
  8 12  1  0  0  0  0
  9 26  1  0  0  0  0
  9 15  1  0  0  0  0
 10 20  1  0  0  0  0
 10  1  1  0  0  0  0
 10 17  1  0  0  0  0
 11 13  1  0  0  0  0
 12  2  1  0  0  0  0
 13 12  1  0  0  0  0
 13 22  2  0  0  0  0
 14 27  1  0  0  0  0
 14 23  2  0  0  0  0
 16 19  2  0  0  0  0
 17  7  1  0  0  0  0
 18 15  2  0  0  0  0
 20  1  1  0  0  0  0
 21 22  1  0  0  0  0
 22 14  1  0  0  0  0
 23 28  1  0  0  0  0
 27  5  2  0  0  0  0
 28  6  2  0  0  0  0
 28  9  1  0  0  0  0
 29 20  1  0  0  0  0
 30 29  1  0  0  0  0
 30 32  1  0  0  0  0
 31 30  2  0  0  0  0
M  END
>  <MODEL>
3

>  <REMARK>
 VINA RESULT:     -10.2      2.751      5.182
  Name = 
  1 active torsions:
  status: ('A' for Active; 'I' for Inactive)
    1  A    between atoms: C_20  and  N_29
                            x       y       z     vdW  Elec       q    Type
                         _______ _______ _______ _____ _____    ______ ____

>  <TORSDO>
F 1

$$$$
=
 OpenBabel11122410423D

 32 38  0  0  1  0  0  0  0  0999 V2000
  189.3640  178.0870  147.9630 C   0  0  1  0  0  3  0  0  0  0  0  0
  186.3660  177.8700  143.6820 C   0  0  1  0  0  3  0  0  0  0  0  0
  189.9270  177.6910  140.2660 C   0  0  0  0  0  3  0  0  0  0  0  0
  188.9800  177.8710  139.2560 C   0  0  0  0  0  3  0  0  0  0  0  0
  183.9770  178.4770  142.8740 C   0  0  0  0  0  0  0  0  0  0  0  0
  183.1730  178.8800  141.8130 C   0  0  0  0  0  0  0  0  0  0  0  0
  187.1160  177.8760  146.0670 C   0  0  1  0  0  3  0  0  0  0  0  0
  188.7010  177.6310  144.2660 O   0  0  0  0  0  0  0  0  0  0  0  0
  182.6780  179.4160  139.7670 N   0  0  0  0  0  0  0  0  0  0  0  0
  189.6710  177.8780  146.4720 C   0  0  2  0  0  3  0  0  0  0  0  0
  189.5460  177.7940  141.6060 C   0  0  0  0  0  3  0  0  0  0  0  0
  187.8230  178.2860  143.3770 C   0  0  1  0  0  3  0  0  0  0  0  0
  188.2110  178.0530  141.9460 C   0  0  0  0  0  0  0  0  0  0  0  0
  185.8490  178.5330  141.2740 C   0  0  0  0  0  0  0  0  0  0  0  0
  181.5670  179.3930  140.4960 N   0  0  0  0  0  0  0  0  0  0  0  0
  187.9530  178.5440  148.2830 C   0  0  0  0  0  3  0  0  0  0  0  0
  188.5080  178.2330  145.5220 C   0  0  2  0  0  3  0  0  0  0  0  0
  181.8380  179.0630  141.7600 N   0  0  0  0  0  0  0  0  0  0  0  0
  186.9280  178.4790  147.4210 C   0  0  0  0  0  3  0  0  0  0  0  0
  189.3840  176.6830  147.3720 C   0  0  1  0  0  3  0  0  0  0  0  0
  187.6530  178.1540  139.5860 C   0  0  0  0  0  3  0  0  0  0  0  0
  187.2600  178.2530  140.9300 C   0  0  0  0  0  0  0  0  0  0  0  0
  184.9860  178.9110  140.2800 N   0  0  0  0  0  0  0  0  0  0  0  0
  186.0550  178.3790  145.0950 C   0  0  0  0  0  2  0  0  0  0  0  0
  183.3330  178.1340  144.1780 C   0  0  0  0  0  1  0  0  0  0  0  0
  182.7380  179.7000  138.3440 C   0  0  0  0  0  1  0  0  0  0  0  0
  185.3800  178.3540  142.6210 C   0  0  0  0  0  0  0  0  0  0  0  0
  183.6840  179.0970  140.5850 C   0  0  0  0  0  0  0  0  0  0  0  0
  190.6350  176.0320  147.7180 N   0  0  0  0  0  2  0  0  0  0  0  0
  191.7100  175.9150  146.7870 C   0  0  0  0  0  0  0  0  0  0  0  0
  192.8850  175.2820  147.1680 O   0  0  0  0  0  1  0  0  0  0  0  0
  191.6010  176.3780  145.6200 O   0  0  0  0  0  0  0  0  0  0  0  0
  1 16  1  6  0  0  0
  2 24  1  1  0  0  0
  3 11  1  0  0  0  0
  4 21  1  0  0  0  0
  4  3  2  0  0  0  0
  5 25  1  0  0  0  0
  6  5  2  0  0  0  0
  7 24  1  6  0  0  0
  7 19  1  0  0  0  0
  8 17  1  0  0  0  0
  9 15  1  0  0  0  0
  9 28  1  0  0  0  0
 10 20  1  0  0  0  0
 10  1  1  0  0  0  0
 11 13  2  0  0  0  0
 12  2  1  0  0  0  0
 12  8  1  0  0  0  0
 13 12  1  0  0  0  0
 14 27  2  0  0  0  0
 15 18  2  0  0  0  0
 17  7  1  0  0  0  0
 17 10  1  0  0  0  0
 18  6  1  0  0  0  0
 19 16  2  0  0  0  0
 20 29  1  0  0  0  0
 20  1  1  0  0  0  0
 21 22  2  0  0  0  0
 22 14  1  0  0  0  0
 22 13  1  0  0  0  0
 23 28  2  0  0  0  0
 23 14  1  0  0  0  0
 26  9  1  0  0  0  0
 27  5  1  0  0  0  0
 27  2  1  0  0  0  0
 28  6  1  0  0  0  0
 30 31  1  0  0  0  0
 30 29  1  0  0  0  0
 32 30  2  0  0  0  0
M  END
>  <MODEL>
4

>  <REMARK>
 VINA RESULT:      -9.8      3.426      8.313
  Name = 
  1 active torsions:
  status: ('A' for Active; 'I' for Inactive)
    1  A    between atoms: C_20  and  N_29
                            x       y       z     vdW  Elec       q    Type
                         _______ _______ _______ _____ _____    ______ ____

>  <TORSDO>
F 1

$$$$
=
 OpenBabel11122410423D

 32 38  0  0  1  0  0  0  0  0999 V2000
  186.1900  178.6280  137.7810 C   0  0  1  0  0  3  0  0  0  0  0  0
  187.6610  177.3690  142.6410 C   0  0  1  0  0  3  0  0  0  0  0  0
  183.6100  178.8200  145.0630 C   0  0  0  0  0  3  0  0  0  0  0  0
  184.2610  178.6330  146.2830 C   0  0  0  0  0  3  0  0  0  0  0  0
  189.8040  176.9680  144.0470 C   0  0  0  0  0  0  0  0  0  0  0  0
  190.4080  177.0460  145.2960 C   0  0  0  0  0  0  0  0  0  0  0  0
  187.6020  177.5860  140.1510 C   0  0  1  0  0  3  0  0  0  0  0  0
  185.6600  178.0920  141.4890 O   0  0  0  0  0  0  0  0  0  0  0  0
  190.5510  177.4140  147.4330 N   0  0  0  0  0  0  0  0  0  0  0  0
  185.4620  178.6270  139.1350 C   0  0  2  0  0  3  0  0  0  0  0  0
  184.3210  178.7000  143.8670 C   0  0  0  0  0  3  0  0  0  0  0  0
  186.4770  178.3620  142.6070 C   0  0  1  0  0  3  0  0  0  0  0  0
  185.6840  178.3700  143.8810 C   0  0  0  0  0  0  0  0  0  0  0  0
  187.7840  177.8580  145.1400 C   0  0  0  0  0  0  0  0  0  0  0  0
  191.6980  176.9030  146.9970 N   0  0  0  0  0  0  0  0  0  0  0  0
  187.6950  178.4480  137.8470 C   0  0  0  0  0  3  0  0  0  0  0  0
  186.3910  178.5080  140.3620 C   0  0  2  0  0  3  0  0  0  0  0  0
  191.6420  176.6630  145.6860 N   0  0  0  0  0  0  0  0  0  0  0  0
  188.3520  178.0010  138.9270 C   0  0  0  0  0  3  0  0  0  0  0  0
  185.4490  177.3840  138.2540 C   0  0  1  0  0  3  0  0  0  0  0  0
  185.6240  178.3290  146.3070 C   0  0  0  0  0  3  0  0  0  0  0  0
  186.3460  178.2010  145.1100 C   0  0  0  0  0  0  0  0  0  0  0  0
  188.4480  177.8870  146.3390 N   0  0  0  0  0  0  0  0  0  0  0  0
  188.4950  177.6460  141.3840 C   0  0  0  0  0  2  0  0  0  0  0  0
  190.5530  176.3350  142.9190 C   0  0  0  0  0  1  0  0  0  0  0  0
  190.2590  177.7560  148.8140 C   0  0  0  0  0  1  0  0  0  0  0  0
  188.4590  177.4460  143.9400 C   0  0  0  0  0  0  0  0  0  0  0  0
  189.7430  177.5060  146.3750 C   0  0  0  0  0  0  0  0  0  0  0  0
  184.1710  177.2940  137.5690 N   0  0  0  0  0  2  0  0  0  0  0  0
  182.9740  176.9160  138.2490 C   0  0  0  0  0  0  0  0  0  0  0  0
  181.7780  176.8460  137.5480 O   0  0  0  0  0  0  0  0  0  0  0  0
  182.9930  176.6440  139.4790 O   0  0  0  0  0  1  0  0  0  0  0  0
  1 16  1  1  0  0  0
  1 20  1  0  0  0  0
  1 10  1  0  0  0  0
  2 24  1  6  0  0  0
  2 27  1  0  0  0  0
  3  4  1  0  0  0  0
  4 21  2  0  0  0  0
  5  6  1  0  0  0  0
  6 18  1  0  0  0  0
  6 28  2  0  0  0  0
  7 19  1  6  0  0  0
  7 17  1  0  0  0  0
  7 24  1  0  0  0  0
  8 12  1  0  0  0  0
  9 26  1  0  0  0  0
 10 17  1  0  0  0  0
 11 13  1  0  0  0  0
 11  3  2  0  0  0  0
 12  2  1  0  0  0  0
 12 13  1  0  0  0  0
 13 22  2  0  0  0  0
 14 23  2  0  0  0  0
 15  9  1  0  0  0  0
 16 19  2  0  0  0  0
 17  8  1  0  0  0  0
 18 15  2  0  0  0  0
 20 10  1  0  0  0  0
 22 14  1  0  0  0  0
 22 21  1  0  0  0  0
 23 28  1  0  0  0  0
 25  5  1  0  0  0  0
 27  5  2  0  0  0  0
 27 14  1  0  0  0  0
 28  9  1  0  0  0  0
 29 30  1  0  0  0  0
 29 20  1  0  0  0  0
 30 32  1  0  0  0  0
 31 30  2  0  0  0  0
M  END
>  <MODEL>
5

>  <REMARK>
 VINA RESULT:      -9.6      1.616      1.841
  Name = 
  1 active torsions:
  status: ('A' for Active; 'I' for Inactive)
    1  A    between atoms: C_20  and  N_29
                            x       y       z     vdW  Elec       q    Type
                         _______ _______ _______ _____ _____    ______ ____

>  <TORSDO>
F 1

$$$$
=
 OpenBabel11122410423D

 32 38  0  0  1  0  0  0  0  0999 V2000
  191.7510  175.4780  146.3980 C   0  0  1  0  0  3  0  0  0  0  0  0
  188.3510  177.9520  143.2860 C   0  0  1  0  0  3  0  0  0  0  0  0
  184.6700  178.5720  146.5190 C   0  0  0  0  0  3  0  0  0  0  0  0
  183.8290  179.0030  145.4930 C   0  0  0  0  0  3  0  0  0  0  0  0
  187.7840  178.2520  140.7730 C   0  0  0  0  0  0  0  0  0  0  0  0
  186.7960  178.4680  139.8190 C   0  0  0  0  0  0  0  0  0  0  0  0
  190.4340  176.8870  144.1680 C   0  0  1  0  0  3  0  0  0  0  0  0
  188.5930  177.4170  145.6330 O   0  0  0  0  0  0  0  0  0  0  0  0
  184.7990  178.8610  139.0580 N   0  0  0  0  0  0  0  0  0  0  0  0
  190.3920  176.1520  146.6480 C   0  0  2  0  0  3  0  0  0  0  0  0
  185.9380  178.0670  146.2180 C   0  0  0  0  0  3  0  0  0  0  0  0
  187.6900  177.3580  144.5510 C   0  0  1  0  0  3  0  0  0  0  0  0
  186.3810  178.0130  144.8890 C   0  0  0  0  0  0  0  0  0  0  0  0
  185.9800  178.3700  142.4450 C   0  0  0  0  0  0  0  0  0  0  0  0
  185.6630  178.8640  138.0480 N   0  0  0  0  0  0  0  0  0  0  0  0
  192.1200  175.2700  144.9410 C   0  0  0  0  0  3  0  0  0  0  0  0
  189.5810  176.4520  145.3690 C   0  0  2  0  0  3  0  0  0  0  0  0
  186.9010  178.6280  138.4840 N   0  0  0  0  0  0  0  0  0  0  0  0
  191.5110  175.8830  143.9160 C   0  0  0  0  0  3  0  0  0  0  0  0
  191.6810  176.9570  146.7580 C   0  0  1  0  0  3  0  0  0  0  0  0
  184.2540  178.9280  144.1650 C   0  0  0  0  0  3  0  0  0  0  0  0
  185.5280  178.4280  143.8520 C   0  0  0  0  0  0  0  0  0  0  0  0
  185.0700  178.5970  141.4460 N   0  0  0  0  0  0  0  0  0  0  0  0
  189.5350  177.0390  142.9470 C   0  0  0  0  0  2  0  0  0  0  0  0
  189.2140  178.2220  140.3380 C   0  0  0  0  0  1  0  0  0  0  0  0
  183.3750  179.1210  138.9410 C   0  0  0  0  0  1  0  0  0  0  0  0
  187.3640  178.1370  142.1360 C   0  0  0  0  0  0  0  0  0  0  0  0
  185.5010  178.6140  140.1660 C   0  0  0  0  0  0  0  0  0  0  0  0
  192.0200  177.1280  148.1600 N   0  0  0  0  0  2  0  0  0  0  0  0
  193.1060  176.4280  148.7660 C   0  0  0  0  0  0  0  0  0  0  0  0
  193.3890  176.6270  150.1100 O   0  0  0  0  0  1  0  0  0  0  0  0
  193.8100  175.6280  148.0930 O   0  0  0  0  0  0  0  0  0  0  0  0
  1 16  1  6  0  0  0
  1 10  1  0  0  0  0
  1 20  1  0  0  0  0
  2 24  1  6  0  0  0
  2 12  1  0  0  0  0
  4  3  2  0  0  0  0
  5 27  1  0  0  0  0
  6 28  1  0  0  0  0
  6  5  2  0  0  0  0
  7 24  1  6  0  0  0
  7 17  1  0  0  0  0
  9 28  1  0  0  0  0
 10 20  1  0  0  0  0
 11  3  1  0  0  0  0
 12 13  1  0  0  0  0
 12  8  1  0  0  0  0
 13 11  2  0  0  0  0
 14 22  1  0  0  0  0
 15 18  2  0  0  0  0
 15  9  1  0  0  0  0
 17  8  1  0  0  0  0
 17 10  1  0  0  0  0
 18  6  1  0  0  0  0
 19  7  1  0  0  0  0
 19 16  2  0  0  0  0
 20 29  1  0  0  0  0
 21  4  1  0  0  0  0
 22 21  2  0  0  0  0
 22 13  1  0  0  0  0
 23 14  1  0  0  0  0
 25  5  1  0  0  0  0
 26  9  1  0  0  0  0
 27 14  2  0  0  0  0
 27  2  1  0  0  0  0
 28 23  2  0  0  0  0
 29 30  1  0  0  0  0
 30 31  1  0  0  0  0
 32 30  2  0  0  0  0
M  END
>  <MODEL>
6

>  <REMARK>
 VINA RESULT:      -9.5      3.634      7.911
  Name = 
  1 active torsions:
  status: ('A' for Active; 'I' for Inactive)
    1  A    between atoms: C_20  and  N_29
                            x       y       z     vdW  Elec       q    Type
                         _______ _______ _______ _____ _____    ______ ____

>  <TORSDO>
F 1

$$$$
=
 OpenBabel11122410423D

 32 38  0  0  1  0  0  0  0  0999 V2000
  191.3430  175.6260  137.3830 C   0  0  1  0  0  3  0  0  0  0  0  0
  188.7620  177.7190  141.4230 C   0  0  1  0  0  3  0  0  0  0  0  0
  191.8030  176.3460  145.0640 C   0  0  0  0  0  3  0  0  0  0  0  0
  190.8710  176.7660  146.0130 C   0  0  0  0  0  3  0  0  0  0  0  0
  186.3800  178.4940  142.0970 C   0  0  0  0  0  0  0  0  0  0  0  0
  185.4530  178.6530  143.1210 C   0  0  0  0  0  0  0  0  0  0  0  0
  189.4710  177.1220  139.1010 C   0  0  1  0  0  3  0  0  0  0  0  0
  190.9020  176.6770  140.9910 O   0  0  0  0  0  0  0  0  0  0  0  0
  184.6920  178.6270  145.1560 N   0  0  0  0  0  0  0  0  0  0  0  0
  191.6700  175.7770  138.8770 C   0  0  2  0  0  3  0  0  0  0  0  0
  191.4640  176.3370  143.7080 C   0  0  0  0  0  3  0  0  0  0  0  0
  189.7870  176.6440  141.8530 C   0  0  1  0  0  3  0  0  0  0  0  0
  190.1970  176.7690  143.2920 C   0  0  0  0  0  0  0  0  0  0  0  0
  187.9080  177.6270  143.8240 C   0  0  0  0  0  0  0  0  0  0  0  0
  183.7750  179.1520  144.3500 N   0  0  0  0  0  0  0  0  0  0  0  0
  189.9080  175.9290  136.9930 C   0  0  0  0  0  3  0  0  0  0  0  0
  190.4630  176.1520  139.7630 C   0  0  2  0  0  3  0  0  0  0  0  0
  184.2140  179.1850  143.0910 N   0  0  0  0  0  0  0  0  0  0  0  0
  189.0390  176.5850  137.7760 C   0  0  0  0  0  3  0  0  0  0  0  0
  192.0670  176.8670  137.8890 C   0  0  1  0  0  3  0  0  0  0  0  0
  189.5980  177.1750  145.6080 C   0  0  0  0  0  3  0  0  0  0  0  0
  189.2500  177.1740  144.2490 C   0  0  0  0  0  0  0  0  0  0  0  0
  186.9440  177.8320  144.7760 N   0  0  0  0  0  0  0  0  0  0  0  0
  188.2760  177.3200  140.0250 C   0  0  0  0  0  2  0  0  0  0  0  0
  186.0450  179.0030  140.7320 C   0  0  0  0  0  1  0  0  0  0  0  0
  184.5550  178.4770  146.5940 C   0  0  0  0  0  1  0  0  0  0  0  0
  187.6380  177.9020  142.4390 C   0  0  0  0  0  0  0  0  0  0  0  0
  185.7420  178.3130  144.3930 C   0  0  0  0  0  0  0  0  0  0  0  0
  193.4850  176.7530  137.5930 N   0  0  0  0  0  2  0  0  0  0  0  0
  193.9620  176.4750  136.2770 C   0  0  0  0  0  0  0  0  0  0  0  0
  195.3270  176.3760  136.0470 O   0  0  0  0  0  1  0  0  0  0  0  0
  193.1560  176.3170  135.3220 O   0  0  0  0  0  0  0  0  0  0  0  0
  1 16  1  1  0  0  0
  1 20  1  0  0  0  0
  1 10  1  0  0  0  0
  2 24  1  6  0  0  0
  2 12  1  0  0  0  0
  2 27  1  0  0  0  0
  3  4  1  0  0  0  0
  5 27  2  0  0  0  0
  5  6  1  0  0  0  0
  6 28  2  0  0  0  0
  7 19  1  6  0  0  0
  7 17  1  0  0  0  0
  7 24  1  0  0  0  0
  8 12  1  0  0  0  0
  9 26  1  0  0  0  0
 10 17  1  0  0  0  0
 11  3  2  0  0  0  0
 12 13  1  0  0  0  0
 13 11  1  0  0  0  0
 13 22  2  0  0  0  0
 14 22  1  0  0  0  0
 14 23  2  0  0  0  0
 15  9  1  0  0  0  0
 16 19  2  0  0  0  0
 17  8  1  0  0  0  0
 18  6  1  0  0  0  0
 18 15  2  0  0  0  0
 20 10  1  0  0  0  0
 21  4  2  0  0  0  0
 22 21  1  0  0  0  0
 25  5  1  0  0  0  0
 27 14  1  0  0  0  0
 28 23  1  0  0  0  0
 28  9  1  0  0  0  0
 29 20  1  0  0  0  0
 30 29  1  0  0  0  0
 31 30  1  0  0  0  0
 32 30  2  0  0  0  0
M  END
>  <MODEL>
7

>  <REMARK>
 VINA RESULT:      -9.4      3.312      5.415
  Name = 
  1 active torsions:
  status: ('A' for Active; 'I' for Inactive)
    1  A    between atoms: C_20  and  N_29
                            x       y       z     vdW  Elec       q    Type
                         _______ _______ _______ _____ _____    ______ ____

>  <TORSDO>
F 1

$$$$
=
 OpenBabel11122410423D

 32 38  0  0  1  0  0  0  0  0999 V2000
  190.6720  177.1670  137.6990 C   0  0  1  0  0  3  0  0  0  0  0  0
  189.3910  176.8630  142.7630 C   0  0  1  0  0  3  0  0  0  0  0  0
  184.6930  178.3510  142.4500 C   0  0  0  0  0  3  0  0  0  0  0  0
  184.6150  178.4260  143.8410 C   0  0  0  0  0  3  0  0  0  0  0  0
  190.4880  176.8830  145.1130 C   0  0  0  0  0  0  0  0  0  0  0  0
  190.3580  177.2190  146.4560 C   0  0  0  0  0  0  0  0  0  0  0  0
  190.6350  176.6570  140.6030 C   0  0  1  0  0  3  0  0  0  0  0  0
  188.2890  177.2140  140.6380 O   0  0  0  0  0  0  0  0  0  0  0  0
  189.3780  177.9480  148.2530 N   0  0  0  0  0  0  0  0  0  0  0  0
  189.3480  177.3300  138.4620 C   0  0  2  0  0  3  0  0  0  0  0  0
  185.9200  178.0940  141.8330 C   0  0  0  0  0  3  0  0  0  0  0  0
  188.4110  177.7340  141.9430 C   0  0  1  0  0  3  0  0  0  0  0  0
  187.0720  177.8870  142.6040 C   0  0  0  0  0  0  0  0  0  0  0  0
  188.2070  177.7700  144.8310 C   0  0  0  0  0  0  0  0  0  0  0  0
  190.5760  177.4710  148.5690 N   0  0  0  0  0  0  0  0  0  0  0  0
  191.9220  177.1280  138.5590 C   0  0  0  0  0  3  0  0  0  0  0  0
  189.5040  177.4960  139.9890 C   0  0  2  0  0  3  0  0  0  0  0  0
  191.2040  177.0120  147.4850 N   0  0  0  0  0  0  0  0  0  0  0  0
  191.9170  176.9240  139.8840 C   0  0  0  0  0  3  0  0  0  0  0  0
  189.7760  175.9610  137.9490 C   0  0  1  0  0  3  0  0  0  0  0  0
  185.7630  178.2450  144.6160 C   0  0  0  0  0  3  0  0  0  0  0  0
  186.9990  177.9810  144.0050 C   0  0  0  0  0  0  0  0  0  0  0  0
  188.1540  178.0540  146.1700 N   0  0  0  0  0  0  0  0  0  0  0  0
  190.7600  176.9960  142.0840 C   0  0  0  0  0  2  0  0  0  0  0  0
  191.7040  176.1370  144.6690 C   0  0  0  0  0  1  0  0  0  0  0  0
  188.4170  178.4900  149.1970 C   0  0  0  0  0  1  0  0  0  0  0  0
  189.4010  177.2220  144.2460 C   0  0  0  0  0  0  0  0  0  0  0  0
  189.2360  177.7940  146.9340 C   0  0  0  0  0  0  0  0  0  0  0  0
  189.0370  175.6510  136.7370 N   0  0  0  0  0  2  0  0  0  0  0  0
  189.5600  174.7810  135.7340 C   0  0  0  0  0  0  0  0  0  0  0  0
  188.8130  174.5170  134.5940 O   0  0  0  0  0  0  0  0  0  0  0  0
  190.6950  174.2510  135.8720 O   0  0  0  0  0  1  0  0  0  0  0  0
  1 20  1  0  0  0  0
  1 10  1  0  0  0  0
  1 16  1  1  0  0  0
  2 24  1  6  0  0  0
  2 27  1  0  0  0  0
  3  4  1  0  0  0  0
  4 21  2  0  0  0  0
  5  6  1  0  0  0  0
  6 28  2  0  0  0  0
  6 18  1  0  0  0  0
  7 19  1  6  0  0  0
  7 24  1  0  0  0  0
  8 12  1  0  0  0  0
  9 15  1  0  0  0  0
  9 26  1  0  0  0  0
 10 17  1  0  0  0  0
 11  3  2  0  0  0  0
 11 13  1  0  0  0  0
 12 13  1  0  0  0  0
 12  2  1  0  0  0  0
 13 22  2  0  0  0  0
 14 23  2  0  0  0  0
 16 19  2  0  0  0  0
 17  7  1  0  0  0  0
 17  8  1  0  0  0  0
 18 15  2  0  0  0  0
 20 10  1  0  0  0  0
 22 21  1  0  0  0  0
 22 14  1  0  0  0  0
 23 28  1  0  0  0  0
 25  5  1  0  0  0  0
 27 14  1  0  0  0  0
 27  5  2  0  0  0  0
 28  9  1  0  0  0  0
 29 20  1  0  0  0  0
 30 32  1  0  0  0  0
 30 29  1  0  0  0  0
 31 30  2  0  0  0  0
M  END
>  <MODEL>
8

>  <REMARK>
 VINA RESULT:      -9.3      1.810      2.098
  Name = 
  1 active torsions:
  status: ('A' for Active; 'I' for Inactive)
    1  A    between atoms: C_20  and  N_29
                            x       y       z     vdW  Elec       q    Type
                         _______ _______ _______ _____ _____    ______ ____

>  <TORSDO>
F 1

$$$$
=
 OpenBabel11122410423D

 32 38  0  0  1  0  0  0  0  0999 V2000
  192.9120  174.7630  136.1820 C   0  0  1  0  0  3  0  0  0  0  0  0
  189.5230  177.6180  138.9630 C   0  0  1  0  0  3  0  0  0  0  0  0
  191.8490  177.5340  143.3180 C   0  0  0  0  0  3  0  0  0  0  0  0
  190.7350  178.1070  143.9340 C   0  0  0  0  0  3  0  0  0  0  0  0
  187.0290  178.3310  138.9640 C   0  0  0  0  0  0  0  0  0  0  0  0
  185.9160  178.6750  139.7230 C   0  0  0  0  0  0  0  0  0  0  0  0
  190.6900  176.4910  137.0600 C   0  0  1  0  0  3  0  0  0  0  0  0
  191.7420  176.6920  139.2210 O   0  0  0  0  0  0  0  0  0  0  0  0
  184.7760  179.1220  141.5180 N   0  0  0  0  0  0  0  0  0  0  0  0
  192.9370  175.3340  137.6090 C   0  0  2  0  0  3  0  0  0  0  0  0
  191.7790  177.1350  141.9810 C   0  0  0  0  0  3  0  0  0  0  0  0
  190.4830  176.7900  139.8480 C   0  0  1  0  0  3  0  0  0  0  0  0
  190.6010  177.3290  141.2440 C   0  0  0  0  0  0  0  0  0  0  0  0
  188.2230  178.0920  141.1050 C   0  0  0  0  0  0  0  0  0  0  0  0
  184.0140  179.3320  140.4500 N   0  0  0  0  0  0  0  0  0  0  0  0
  191.5700  174.8250  135.4770 C   0  0  0  0  0  3  0  0  0  0  0  0
  191.5690  175.8230  138.1290 C   0  0  2  0  0  3  0  0  0  0  0  0
  184.6870  179.0680  139.3290 N   0  0  0  0  0  0  0  0  0  0  0  0
  190.5420  175.5860  135.8810 C   0  0  0  0  0  3  0  0  0  0  0  0
  193.4780  176.1530  136.4440 C   0  0  1  0  0  3  0  0  0  0  0  0
  189.5510  178.2800  143.2140 C   0  0  0  0  0  3  0  0  0  0  0  0
  189.4730  177.8880  141.8680 C   0  0  0  0  0  0  0  0  0  0  0  0
  187.0860  178.4570  141.7780 N   0  0  0  0  0  0  0  0  0  0  0  0
  189.3310  176.8210  137.6670 C   0  0  0  0  0  2  0  0  0  0  0  0
  186.9460  178.4290  137.4750 C   0  0  0  0  0  1  0  0  0  0  0  0
  184.3690  179.3480  142.8940 C   0  0  0  0  0  1  0  0  0  0  0  0
  188.2170  177.9650  139.6730 C   0  0  0  0  0  0  0  0  0  0  0  0
  185.9650  178.7110  141.0700 C   0  0  0  0  0  0  0  0  0  0  0  0
  194.9300  176.0900  136.4460 N   0  0  0  0  0  2  0  0  0  0  0  0
  195.7220  176.8850  135.5650 C   0  0  0  0  0  0  0  0  0  0  0  0
  197.1060  176.7870  135.6070 O   0  0  0  0  0  1  0  0  0  0  0  0
  195.1780  177.6740  134.7480 O   0  0  0  0  0  0  0  0  0  0  0  0
  1 16  1  6  0  0  0
  1 20  1  0  0  0  0
  1 10  1  0  0  0  0
  2 24  1  6  0  0  0
  2 27  1  0  0  0  0
  2 12  1  0  0  0  0
  3  4  1  0  0  0  0
  5 27  2  0  0  0  0
  5  6  1  0  0  0  0
  6 28  2  0  0  0  0
  7 19  1  6  0  0  0
  7 24  1  0  0  0  0
  7 17  1  0  0  0  0
  8 12  1  0  0  0  0
  9 26  1  0  0  0  0
 10 17  1  0  0  0  0
 11  3  2  0  0  0  0
 12 13  1  0  0  0  0
 13 22  2  0  0  0  0
 13 11  1  0  0  0  0
 14 23  2  0  0  0  0
 14 22  1  0  0  0  0
 15  9  1  0  0  0  0
 16 19  2  0  0  0  0
 17  8  1  0  0  0  0
 18  6  1  0  0  0  0
 18 15  2  0  0  0  0
 20 29  1  0  0  0  0
 20 10  1  0  0  0  0
 21  4  2  0  0  0  0
 22 21  1  0  0  0  0
 25  5  1  0  0  0  0
 27 14  1  0  0  0  0
 28  9  1  0  0  0  0
 28 23  1  0  0  0  0
 30 31  1  0  0  0  0
 30 29  1  0  0  0  0
 32 30  2  0  0  0  0
M  END
>  <MODEL>
9

>  <REMARK>
 VINA RESULT:      -9.3      4.326      6.781
  Name = 
  1 active torsions:
  status: ('A' for Active; 'I' for Inactive)
    1  A    between atoms: C_20  and  N_29
                            x       y       z     vdW  Elec       q    Type
                         _______ _______ _______ _____ _____    ______ ____

>  <TORSDO>
F 1

$$$$
