=
 OpenBabel11122410313D

 30 35  0  0  1  0  0  0  0  0999 V2000
  189.7070  177.5120  143.4500 C   0  0  2  0  0  3  0  0  0  0  0  0
  191.3810  176.2670  144.9210 C   0  0  0  0  0  0  0  0  0  0  0  0
  187.4140  178.2800  146.9600 O   0  0  0  0  0  0  0  0  0  0  0  0
  188.3490  178.3000  143.4410 C   0  0  1  0  0  3  0  0  0  0  0  0
  189.6660  176.4340  142.5420 O   0  0  0  0  0  0  0  0  0  0  0  0
  188.7580  179.1000  140.3130 C   0  0  0  0  0  1  0  0  0  0  0  0
  185.0180  178.0590  142.6880 C   0  0  1  0  0  3  0  0  0  0  0  0
  188.3950  177.7560  140.9260 C   0  0  1  0  0  3  0  0  0  0  0  0
  185.0500  177.9370  144.2250 C   0  0  2  0  0  3  0  0  0  0  0  0
  186.1740  178.5850  146.4230 C   0  0  0  0  0  0  0  0  0  0  0  0
  189.6980  177.0040  141.2530 C   0  0  2  0  0  3  0  0  0  0  0  0
  187.5420  177.9100  142.1980 C   0  0  2  0  0  3  0  0  0  0  0  0
  191.8260  175.8190  146.1690 C   0  0  0  0  0  3  0  0  0  0  0  0
  183.7150  178.4970  144.6330 C   0  0  0  0  0  2  0  0  0  0  0  0
  183.8620  178.7570  142.2980 O   0  0  0  0  0  0  0  0  0  0  0  0
  192.1210  175.9460  143.7880 O   0  0  0  0  0  1  0  0  0  0  0  0
  188.3550  178.3070  145.9070 C   0  0  2  0  0  3  0  0  0  0  0  0
  191.1220  176.1450  147.3290 C   0  0  0  0  0  3  0  0  0  0  0  0
  190.2030  177.0330  144.8200 C   0  0  0  0  0  0  0  0  0  0  0  0
  187.5400  177.9680  144.6870 C   0  0  1  0  0  3  0  0  0  0  0  0
  185.1610  178.8070  147.1390 O   0  0  0  0  0  0  0  0  0  0  0  0
  186.2070  178.6830  144.9260 C   0  0  1  0  0  3  0  0  0  0  0  0
  182.9450  178.5670  143.3400 C   0  0  0  0  0  2  0  0  0  0  0  0
  186.2200  179.7790  141.5770 O   0  0  0  0  0  0  0  0  0  0  0  0
  189.9690  176.9270  147.2510 C   0  0  0  0  0  3  0  0  0  0  0  0
  189.5000  177.3600  146.0070 C   0  0  0  0  0  0  0  0  0  0  0  0
  186.2500  178.6610  142.0660 C   0  0  0  0  0  0  0  0  0  0  0  0
  189.9170  176.0070  140.3020 O   0  0  0  0  0  0  0  0  0  0  0  0
  191.8040  177.2780  140.2020 O   0  0  0  0  0  1  0  0  0  0  0  0
  190.8940  176.5320  139.4550 C   0  0  0  0  0  2  0  0  0  0  0  0
  1  5  1  6  0  0  0
  1 19  1  0  0  0  0
  2 13  1  0  0  0  0
  4  1  1  0  0  0  0
  4 20  1  0  0  0  0
  6  8  1  0  0  0  0
  7  9  1  0  0  0  0
  8 11  1  0  0  0  0
  8 12  1  0  0  0  0
  9 14  1  0  0  0  0
  9 22  1  0  0  0  0
 10  3  1  0  0  0  0
 10 21  2  0  0  0  0
 11  5  1  0  0  0  0
 12  4  1  0  0  0  0
 13 18  2  0  0  0  0
 15  7  1  0  0  0  0
 15 23  1  0  0  0  0
 16  2  1  0  0  0  0
 17 26  1  0  0  0  0
 17  3  1  0  0  0  0
 19  2  2  0  0  0  0
 19 26  1  0  0  0  0
 20 22  1  0  0  0  0
 20 17  1  0  0  0  0
 22 10  1  0  0  0  0
 23 14  1  0  0  0  0
 24 27  2  0  0  0  0
 25 18  1  0  0  0  0
 26 25  2  0  0  0  0
 27 12  1  0  0  0  0
 27  7  1  0  0  0  0
 28 11  1  0  0  0  0
 30 29  1  0  0  0  0
 30 28  1  0  0  0  0
M  END
>  <MODEL>
1

>  <REMARK>
 VINA RESULT:      -9.6      0.000      0.000
  Name = 
  2 active torsions:
  status: ('A' for Active; 'I' for Inactive)
    1  A    between atoms: C_11  and  O_28
    2  A    between atoms: O_28  and  C_30
                            x       y       z     vdW  Elec       q    Type
                         _______ _______ _______ _____ _____    ______ ____

>  <TORSDO>
F 2

$$$$
=
 OpenBabel11122410313D

 30 35  0  0  1  0  0  0  0  0999 V2000
  188.1950  178.1760  143.9370 C   0  0  2  0  0  3  0  0  0  0  0  0
  185.8980  178.1960  145.0480 C   0  0  0  0  0  0  0  0  0  0  0  0
  186.2320  178.7640  140.1990 O   0  0  0  0  0  0  0  0  0  0  0  0
  188.9560  178.2740  142.5660 C   0  0  1  0  0  3  0  0  0  0  0  0
  188.5420  176.9910  144.6180 O   0  0  0  0  0  0  0  0  0  0  0  0
  191.8300  178.3340  144.0900 C   0  0  0  0  0  1  0  0  0  0  0  0
  190.5500  176.4420  140.1530 C   0  0  1  0  0  3  0  0  0  0  0  0
  190.8680  177.1730  143.8910 C   0  0  1  0  0  3  0  0  0  0  0  0
  189.1750  176.7470  139.5240 C   0  0  2  0  0  3  0  0  0  0  0  0
  187.2080  178.3570  139.3030 C   0  0  0  0  0  0  0  0  0  0  0  0
  189.8690  177.1660  145.0610 C   0  0  2  0  0  3  0  0  0  0  0  0
  190.1130  177.2690  142.5530 C   0  0  2  0  0  3  0  0  0  0  0  0
  184.5060  178.3210  144.9920 C   0  0  0  0  0  3  0  0  0  0  0  0
  189.4780  176.7640  138.0510 C   0  0  0  0  0  2  0  0  0  0  0  0
  191.5360  176.4500  139.1510 O   0  0  0  0  0  0  0  0  0  0  0  0
  186.5010  177.9430  146.2750 O   0  0  0  0  0  1  0  0  0  0  0  0
  186.8470  178.9190  141.4610 C   0  0  2  0  0  3  0  0  0  0  0  0
  183.8690  178.6010  143.7810 C   0  0  0  0  0  3  0  0  0  0  0  0
  186.6700  178.3280  143.8780 C   0  0  0  0  0  0  0  0  0  0  0  0
  188.0090  177.9610  141.4160 C   0  0  1  0  0  3  0  0  0  0  0  0
  187.0070  178.2990  138.0610 O   0  0  0  0  0  0  0  0  0  0  0  0
  188.5180  178.0700  139.9760 C   0  0  1  0  0  3  0  0  0  0  0  0
  190.8560  176.1610  137.9600 C   0  0  0  0  0  2  0  0  0  0  0  0
  191.8290  178.1610  141.1800 O   0  0  0  0  0  0  0  0  0  0  0  0
  184.6210  178.7630  142.6170 C   0  0  0  0  0  3  0  0  0  0  0  0
  186.0110  178.6160  142.6560 C   0  0  0  0  0  0  0  0  0  0  0  0
  190.9420  177.3310  141.3040 C   0  0  0  0  0  0  0  0  0  0  0  0
  190.2020  176.1510  145.9580 O   0  0  0  0  0  0  0  0  0  0  0  0
  191.8350  176.8660  147.3750 O   0  0  0  0  0  1  0  0  0  0  0  0
  190.4590  176.8100  147.1610 C   0  0  0  0  0  2  0  0  0  0  0  0
  1 19  1  6  0  0  0
  1  5  1  0  0  0  0
  2 16  1  0  0  0  0
  3 17  1  0  0  0  0
  4  1  1  0  0  0  0
  5 11  1  0  0  0  0
  7 27  1  0  0  0  0
  8  6  1  0  0  0  0
  8 11  1  0  0  0  0
  9 22  1  0  0  0  0
  9  7  1  0  0  0  0
 10 22  1  0  0  0  0
 10  3  1  0  0  0  0
 11 28  1  0  0  0  0
 12  4  1  0  0  0  0
 12  8  1  0  0  0  0
 13  2  1  0  0  0  0
 14  9  1  0  0  0  0
 15  7  1  0  0  0  0
 17 26  1  0  0  0  0
 18 13  2  0  0  0  0
 19  2  2  0  0  0  0
 20 17  1  0  0  0  0
 20  4  1  0  0  0  0
 21 10  2  0  0  0  0
 22 20  1  0  0  0  0
 23 14  1  0  0  0  0
 23 15  1  0  0  0  0
 24 27  2  0  0  0  0
 25 26  2  0  0  0  0
 25 18  1  0  0  0  0
 26 19  1  0  0  0  0
 27 12  1  0  0  0  0
 28 30  1  0  0  0  0
 30 29  1  0  0  0  0
M  END
>  <MODEL>
2

>  <REMARK>
 VINA RESULT:      -9.3      1.659      6.204
  Name = 
  2 active torsions:
  status: ('A' for Active; 'I' for Inactive)
    1  A    between atoms: C_11  and  O_28
    2  A    between atoms: O_28  and  C_30
                            x       y       z     vdW  Elec       q    Type
                         _______ _______ _______ _____ _____    ______ ____

>  <TORSDO>
F 2

$$$$
=
 OpenBabel11122410313D

 30 35  0  0  1  0  0  0  0  0999 V2000
  187.0110  177.8780  142.4200 C   0  0  2  0  0  3  0  0  0  0  0  0
  184.7990  179.1410  142.2630 C   0  0  0  0  0  0  0  0  0  0  0  0
  186.2840  177.4140  146.5940 O   0  0  0  0  0  0  0  0  0  0  0  0
  188.0010  177.1450  143.3950 C   0  0  1  0  0  3  0  0  0  0  0  0
  187.6740  178.9000  141.7090 O   0  0  0  0  0  0  0  0  0  0  0  0
  189.8250  176.1430  140.8930 C   0  0  0  0  0  1  0  0  0  0  0  0
  190.9530  177.4730  145.0980 C   0  0  1  0  0  3  0  0  0  0  0  0
  189.6890  177.5350  141.4920 C   0  0  1  0  0  3  0  0  0  0  0  0
  189.8820  177.6860  146.1870 C   0  0  2  0  0  3  0  0  0  0  0  0
  187.5540  177.1270  147.0690 C   0  0  0  0  0  0  0  0  0  0  0  0
  188.5220  178.2520  140.7890 C   0  0  2  0  0  3  0  0  0  0  0  0
  189.4440  177.4910  143.0100 C   0  0  2  0  0  3  0  0  0  0  0  0
  183.6280  179.6450  142.8380 C   0  0  0  0  0  3  0  0  0  0  0  0
  190.5740  177.2060  147.4330 C   0  0  0  0  0  2  0  0  0  0  0  0
  192.0560  176.8000  145.6500 O   0  0  0  0  0  0  0  0  0  0  0  0
  185.0340  179.3640  140.9110 O   0  0  0  0  0  1  0  0  0  0  0  0
  186.3140  177.2860  145.1880 C   0  0  2  0  0  3  0  0  0  0  0  0
  183.3470  179.4180  144.1860 C   0  0  0  0  0  3  0  0  0  0  0  0
  185.7190  178.4180  143.0470 C   0  0  0  0  0  0  0  0  0  0  0  0
  187.7470  177.5840  144.8300 C   0  0  1  0  0  3  0  0  0  0  0  0
  187.8030  176.9900  148.2970 O   0  0  0  0  0  0  0  0  0  0  0  0
  188.5490  176.9380  145.9630 C   0  0  1  0  0  3  0  0  0  0  0  0
  192.0180  177.0880  147.0210 C   0  0  0  0  0  2  0  0  0  0  0  0
  190.8110  175.6420  143.5910 O   0  0  0  0  0  0  0  0  0  0  0  0
  184.2340  178.6800  144.9700 C   0  0  0  0  0  3  0  0  0  0  0  0
  185.4200  178.1920  144.4140 C   0  0  0  0  0  0  0  0  0  0  0  0
  190.4690  176.7860  143.8480 C   0  0  0  0  0  0  0  0  0  0  0  0
  189.0230  179.1810  139.8760 O   0  0  0  0  0  0  0  0  0  0  0  0
  189.0550  179.5560  137.6300 O   0  0  0  0  0  1  0  0  0  0  0  0
  188.7680  178.6210  138.6240 C   0  0  0  0  0  2  0  0  0  0  0  0
  1  5  1  1  0  0  0
  1 19  1  0  0  0  0
  1  4  1  0  0  0  0
  2 13  2  0  0  0  0
  2 19  1  0  0  0  0
  3 10  1  0  0  0  0
  4 20  1  0  0  0  0
  6  8  1  0  0  0  0
  7 15  1  0  0  0  0
  7  9  1  0  0  0  0
  8 12  1  0  0  0  0
  9 14  1  0  0  0  0
 10 21  2  0  0  0  0
 11  8  1  0  0  0  0
 11  5  1  0  0  0  0
 12  4  1  0  0  0  0
 12 27  1  0  0  0  0
 13 18  1  0  0  0  0
 15 23  1  0  0  0  0
 16  2  1  0  0  0  0
 17  3  1  0  0  0  0
 18 25  2  0  0  0  0
 19 26  2  0  0  0  0
 20 17  1  0  0  0  0
 20 22  1  0  0  0  0
 22  9  1  0  0  0  0
 22 10  1  0  0  0  0
 23 14  1  0  0  0  0
 24 27  2  0  0  0  0
 26 25  1  0  0  0  0
 26 17  1  0  0  0  0
 27  7  1  0  0  0  0
 28 11  1  0  0  0  0
 29 30  1  0  0  0  0
 30 28  1  0  0  0  0
M  END
>  <MODEL>
3

>  <REMARK>
 VINA RESULT:      -9.2      1.537      5.402
  Name = 
  2 active torsions:
  status: ('A' for Active; 'I' for Inactive)
    1  A    between atoms: C_11  and  O_28
    2  A    between atoms: O_28  and  C_30
                            x       y       z     vdW  Elec       q    Type
                         _______ _______ _______ _____ _____    ______ ____

>  <TORSDO>
F 2

$$$$
=
 OpenBabel11122410313D

 30 35  0  0  1  0  0  0  0  0999 V2000
  188.6490  177.2620  142.3860 C   0  0  2  0  0  3  0  0  0  0  0  0
  187.3700  178.2190  140.3950 C   0  0  0  0  0  0  0  0  0  0  0  0
  185.2320  178.0880  144.7950 O   0  0  0  0  0  0  0  0  0  0  0  0
  188.5840  176.9630  143.9260 C   0  0  1  0  0  3  0  0  0  0  0  0
  189.7720  178.0580  142.0780 O   0  0  0  0  0  0  0  0  0  0  0  0
  191.4230  175.3770  143.8060 C   0  0  0  0  0  1  0  0  0  0  0  0
  189.6090  178.0640  147.0020 C   0  0  1  0  0  3  0  0  0  0  0  0
  191.1460  176.8700  143.7130 C   0  0  1  0  0  3  0  0  0  0  0  0
  188.1380  178.5200  146.9280 C   0  0  2  0  0  3  0  0  0  0  0  0
  185.7770  178.0750  146.0690 C   0  0  0  0  0  0  0  0  0  0  0  0
  190.8990  177.2260  142.2360 C   0  0  2  0  0  3  0  0  0  0  0  0
  189.9370  177.2900  144.5670 C   0  0  2  0  0  3  0  0  0  0  0  0
  186.2210  178.7780  139.8260 C   0  0  0  0  0  3  0  0  0  0  0  0
  187.7160  178.5200  148.3710 C   0  0  0  0  0  2  0  0  0  0  0  0
  189.9200  177.6960  148.3220 O   0  0  0  0  0  0  0  0  0  0  0  0
  188.4890  178.0200  139.5940 O   0  0  0  0  0  1  0  0  0  0  0  0
  186.1820  177.5230  143.9160 C   0  0  2  0  0  3  0  0  0  0  0  0
  185.0710  178.9680  140.5940 C   0  0  0  0  0  3  0  0  0  0  0  0
  187.3850  177.8620  141.7580 C   0  0  0  0  0  0  0  0  0  0  0  0
  187.5030  177.8120  144.5810 C   0  0  1  0  0  3  0  0  0  0  0  0
  185.1050  178.3560  147.0970 O   0  0  0  0  0  0  0  0  0  0  0  0
  187.2100  177.6300  146.0730 C   0  0  1  0  0  3  0  0  0  0  0  0
  189.0140  178.4000  149.1260 C   0  0  0  0  0  2  0  0  0  0  0  0
  190.2280  175.8440  146.4240 O   0  0  0  0  0  0  0  0  0  0  0  0
  185.0600  178.5940  141.9390 C   0  0  0  0  0  3  0  0  0  0  0  0
  186.2090  178.0570  142.5260 C   0  0  0  0  0  0  0  0  0  0  0  0
  189.9940  176.9770  146.0330 C   0  0  0  0  0  0  0  0  0  0  0  0
  192.0260  177.8560  141.7080 O   0  0  0  0  0  0  0  0  0  0  0  0
  193.4210  177.3940  139.9680 O   0  0  0  0  0  1  0  0  0  0  0  0
  192.0910  177.4190  140.3840 C   0  0  0  0  0  2  0  0  0  0  0  0
  1 19  1  1  0  0  0
  1  4  1  0  0  0  0
  2 19  1  0  0  0  0
  3 10  1  0  0  0  0
  4 12  1  0  0  0  0
  4 20  1  0  0  0  0
  5 11  1  0  0  0  0
  5  1  1  0  0  0  0
  7 15  1  0  0  0  0
  8  6  1  0  0  0  0
  8 12  1  0  0  0  0
  9  7  1  0  0  0  0
  9 14  1  0  0  0  0
 10 22  1  0  0  0  0
 10 21  2  0  0  0  0
 11  8  1  0  0  0  0
 12 27  1  0  0  0  0
 13  2  2  0  0  0  0
 13 18  1  0  0  0  0
 14 23  1  0  0  0  0
 15 23  1  0  0  0  0
 16  2  1  0  0  0  0
 17 20  1  0  0  0  0
 17  3  1  0  0  0  0
 18 25  2  0  0  0  0
 19 26  2  0  0  0  0
 20 22  1  0  0  0  0
 22  9  1  0  0  0  0
 25 26  1  0  0  0  0
 26 17  1  0  0  0  0
 27 24  2  0  0  0  0
 27  7  1  0  0  0  0
 28 11  1  0  0  0  0
 29 30  1  0  0  0  0
 30 28  1  0  0  0  0
M  END
>  <MODEL>
4

>  <REMARK>
 VINA RESULT:      -9.0      1.748      5.068
  Name = 
  2 active torsions:
  status: ('A' for Active; 'I' for Inactive)
    1  A    between atoms: C_11  and  O_28
    2  A    between atoms: O_28  and  C_30
                            x       y       z     vdW  Elec       q    Type
                         _______ _______ _______ _____ _____    ______ ____

>  <TORSDO>
F 2

$$$$
=
 OpenBabel11122410313D

 30 35  0  0  1  0  0  0  0  0999 V2000
  188.2470  177.7780  142.7680 C   0  0  2  0  0  3  0  0  0  0  0  0
  186.9320  177.6730  144.9540 C   0  0  0  0  0  0  0  0  0  0  0  0
  184.7550  179.3660  140.9120 O   0  0  0  0  0  0  0  0  0  0  0  0
  188.1720  178.1540  141.2450 C   0  0  1  0  0  3  0  0  0  0  0  0
  188.6760  176.4450  142.9330 O   0  0  0  0  0  0  0  0  0  0  0  0
  191.3710  177.6690  140.9000 C   0  0  0  0  0  1  0  0  0  0  0  0
  187.8830  176.8600  138.0890 C   0  0  1  0  0  3  0  0  0  0  0  0
  190.2540  176.6510  141.0790 C   0  0  1  0  0  3  0  0  0  0  0  0
  186.4670  177.3910  138.3910 C   0  0  2  0  0  3  0  0  0  0  0  0
  185.0160  179.1270  139.5720 C   0  0  0  0  0  0  0  0  0  0  0  0
  190.0420  176.4250  142.5870 C   0  0  2  0  0  3  0  0  0  0  0  0
  188.9400  177.1130  140.4250 C   0  0  2  0  0  3  0  0  0  0  0  0
  185.7720  177.8940  145.7020 C   0  0  0  0  0  3  0  0  0  0  0  0
  185.9440  177.7430  137.0260 C   0  0  0  0  0  2  0  0  0  0  0  0
  188.1730  177.0470  136.7270 O   0  0  0  0  0  0  0  0  0  0  0  0
  188.0330  177.0950  145.5760 O   0  0  0  0  0  1  0  0  0  0  0  0
  185.9590  179.1760  141.6240 C   0  0  2  0  0  3  0  0  0  0  0  0
  184.6570  178.4950  145.1160 C   0  0  0  0  0  3  0  0  0  0  0  0
  186.9790  178.0340  143.5930 C   0  0  0  0  0  0  0  0  0  0  0  0
  186.7220  178.1860  140.7820 C   0  0  1  0  0  3  0  0  0  0  0  0
  184.1820  179.3820  138.6630 O   0  0  0  0  0  0  0  0  0  0  0  0
  186.4040  178.6050  139.3450 C   0  0  1  0  0  3  0  0  0  0  0  0
  186.9270  177.0960  136.0860 C   0  0  0  0  0  2  0  0  0  0  0  0
  189.8020  178.1990  138.5010 O   0  0  0  0  0  0  0  0  0  0  0  0
  184.6950  178.8850  143.7770 C   0  0  0  0  0  3  0  0  0  0  0  0
  185.8410  178.6470  143.0110 C   0  0  0  0  0  0  0  0  0  0  0  0
  188.9790  177.4210  138.9570 C   0  0  0  0  0  0  0  0  0  0  0  0
  190.6060  175.2060  142.9630 O   0  0  0  0  0  0  0  0  0  0  0  0
  191.3350  176.6680  144.5490 O   0  0  0  0  0  1  0  0  0  0  0  0
  191.6760  175.5490  143.7900 C   0  0  0  0  0  2  0  0  0  0  0  0
  1  5  1  6  0  0  0
  1 19  1  0  0  0  0
  2 16  1  0  0  0  0
  2 13  1  0  0  0  0
  3 17  1  0  0  0  0
  4  1  1  0  0  0  0
  6  8  1  0  0  0  0
  7  9  1  0  0  0  0
  7 27  1  0  0  0  0
  8 11  1  0  0  0  0
  9 22  1  0  0  0  0
 10  3  1  0  0  0  0
 11  5  1  0  0  0  0
 11 28  1  0  0  0  0
 12  8  1  0  0  0  0
 12  4  1  0  0  0  0
 14  9  1  0  0  0  0
 15  7  1  0  0  0  0
 17 26  1  0  0  0  0
 18 13  2  0  0  0  0
 19  2  2  0  0  0  0
 20  4  1  0  0  0  0
 20 17  1  0  0  0  0
 21 10  2  0  0  0  0
 22 10  1  0  0  0  0
 22 20  1  0  0  0  0
 23 15  1  0  0  0  0
 23 14  1  0  0  0  0
 24 27  2  0  0  0  0
 25 18  1  0  0  0  0
 26 19  1  0  0  0  0
 26 25  2  0  0  0  0
 27 12  1  0  0  0  0
 28 30  1  0  0  0  0
 30 29  1  0  0  0  0
M  END
>  <MODEL>
5

>  <REMARK>
 VINA RESULT:      -8.9      2.255      5.264
  Name = 
  2 active torsions:
  status: ('A' for Active; 'I' for Inactive)
    1  A    between atoms: C_11  and  O_28
    2  A    between atoms: O_28  and  C_30
                            x       y       z     vdW  Elec       q    Type
                         _______ _______ _______ _____ _____    ______ ____

>  <TORSDO>
F 2

$$$$
=
 OpenBabel11122410313D

 30 35  0  0  1  0  0  0  0  0999 V2000
  188.3200  177.9850  143.8510 C   0  0  2  0  0  3  0  0  0  0  0  0
  189.3830  177.0450  145.9730 C   0  0  0  0  0  0  0  0  0  0  0  0
  184.8840  178.9590  146.1770 O   0  0  0  0  0  0  0  0  0  0  0  0
  187.0340  178.6590  143.2540 C   0  0  1  0  0  3  0  0  0  0  0  0
  188.6470  176.8130  143.1390 O   0  0  0  0  0  0  0  0  0  0  0  0
  188.5280  179.1350  140.4030 C   0  0  0  0  0  1  0  0  0  0  0  0
  184.2140  178.0780  141.4010 C   0  0  1  0  0  3  0  0  0  0  0  0
  188.0100  177.8430  141.0170 C   0  0  1  0  0  3  0  0  0  0  0  0
  183.6890  178.1310  142.8500 C   0  0  2  0  0  3  0  0  0  0  0  0
  183.9150  179.1050  145.1980 C   0  0  0  0  0  0  0  0  0  0  0  0
  189.1280  177.2370  141.8830 C   0  0  2  0  0  3  0  0  0  0  0  0
  186.7480  178.0720  141.8680 C   0  0  2  0  0  3  0  0  0  0  0  0
  189.3570  176.7750  147.3450 C   0  0  0  0  0  3  0  0  0  0  0  0
  182.2800  178.6280  142.6760 C   0  0  0  0  0  2  0  0  0  0  0  0
  183.2590  178.6370  140.5350 O   0  0  0  0  0  0  0  0  0  0  0  0
  190.4930  176.6580  145.2330 O   0  0  0  0  0  1  0  0  0  0  0  0
  186.1420  178.9420  145.5360 C   0  0  2  0  0  3  0  0  0  0  0  0
  188.2690  177.1730  148.1240 C   0  0  0  0  0  3  0  0  0  0  0  0
  188.2980  177.7010  145.3590 C   0  0  0  0  0  0  0  0  0  0  0  0
  185.8380  178.4070  144.1610 C   0  0  1  0  0  3  0  0  0  0  0  0
  182.7040  179.3260  145.4690 O   0  0  0  0  0  0  0  0  0  0  0  0
  184.4870  179.0380  143.8120 C   0  0  1  0  0  3  0  0  0  0  0  0
  182.0310  178.4940  141.1960 C   0  0  0  0  0  2  0  0  0  0  0  0
  185.6840  179.7530  140.5750 O   0  0  0  0  0  0  0  0  0  0  0  0
  187.1990  177.8490  147.5370 C   0  0  0  0  0  3  0  0  0  0  0  0
  187.2020  178.1030  146.1620 C   0  0  0  0  0  0  0  0  0  0  0  0
  185.5690  178.7010  141.1860 C   0  0  0  0  0  0  0  0  0  0  0  0
  189.7090  176.1590  141.2140 O   0  0  0  0  0  0  0  0  0  0  0  0
  191.5050  177.5020  141.6070 O   0  0  0  0  0  1  0  0  0  0  0  0
  190.8880  176.6730  140.6720 C   0  0  0  0  0  2  0  0  0  0  0  0
  1  5  1  6  0  0  0
  1 19  1  0  0  0  0
  2 13  1  0  0  0  0
  4  1  1  0  0  0  0
  4 20  1  0  0  0  0
  6  8  1  0  0  0  0
  7  9  1  0  0  0  0
  8 12  1  0  0  0  0
  8 11  1  0  0  0  0
  9 22  1  0  0  0  0
 10 21  2  0  0  0  0
 10  3  1  0  0  0  0
 11  5  1  0  0  0  0
 12  4  1  0  0  0  0
 13 18  2  0  0  0  0
 14  9  1  0  0  0  0
 15 23  1  0  0  0  0
 15  7  1  0  0  0  0
 16  2  1  0  0  0  0
 17 26  1  0  0  0  0
 17  3  1  0  0  0  0
 19  2  2  0  0  0  0
 19 26  1  0  0  0  0
 20 17  1  0  0  0  0
 22 20  1  0  0  0  0
 22 10  1  0  0  0  0
 23 14  1  0  0  0  0
 24 27  2  0  0  0  0
 25 18  1  0  0  0  0
 26 25  2  0  0  0  0
 27  7  1  0  0  0  0
 27 12  1  0  0  0  0
 28 11  1  0  0  0  0
 30 28  1  0  0  0  0
 30 29  1  0  0  0  0
M  END
>  <MODEL>
6

>  <REMARK>
 VINA RESULT:      -8.8      1.369      2.000
  Name = 
  2 active torsions:
  status: ('A' for Active; 'I' for Inactive)
    1  A    between atoms: C_11  and  O_28
    2  A    between atoms: O_28  and  C_30
                            x       y       z     vdW  Elec       q    Type
                         _______ _______ _______ _____ _____    ______ ____

>  <TORSDO>
F 2

$$$$
=
 OpenBabel11122410313D

 30 35  0  0  1  0  0  0  0  0999 V2000
  187.9860  178.2040  142.9840 C   0  0  2  0  0  3  0  0  0  0  0  0
  185.5800  178.2770  143.8310 C   0  0  0  0  0  0  0  0  0  0  0  0
  186.4500  178.5500  139.0230 O   0  0  0  0  0  0  0  0  0  0  0  0
  188.8940  178.2230  141.7020 C   0  0  1  0  0  3  0  0  0  0  0  0
  188.2550  177.0650  143.7700 O   0  0  0  0  0  0  0  0  0  0  0  0
  191.5820  178.3950  143.5280 C   0  0  0  0  0  1  0  0  0  0  0  0
  190.7460  176.2580  139.5970 C   0  0  1  0  0  3  0  0  0  0  0  0
  190.6470  177.2180  143.2950 C   0  0  1  0  0  3  0  0  0  0  0  0
  189.4490  176.5150  138.8030 C   0  0  2  0  0  3  0  0  0  0  0  0
  187.5190  178.0960  138.2670 C   0  0  0  0  0  0  0  0  0  0  0  0
  189.5240  177.2750  144.3460 C   0  0  2  0  0  3  0  0  0  0  0  0
  190.0450  177.2270  141.8790 C   0  0  2  0  0  3  0  0  0  0  0  0
  184.2030  178.3890  143.6130 C   0  0  0  0  0  3  0  0  0  0  0  0
  189.9130  176.4440  137.3740 C   0  0  0  0  0  2  0  0  0  0  0  0
  191.8360  176.2110  138.7120 O   0  0  0  0  0  0  0  0  0  0  0  0
  186.0430  178.1020  145.1300 O   0  0  0  0  0  1  0  0  0  0  0  0
  186.9210  178.7860  140.3330 C   0  0  2  0  0  3  0  0  0  0  0  0
  183.7040  178.5910  142.3250 C   0  0  0  0  0  3  0  0  0  0  0  0
  186.4770  178.3420  142.7470 C   0  0  0  0  0  0  0  0  0  0  0  0
  188.0800  177.8340  140.4760 C   0  0  1  0  0  3  0  0  0  0  0  0
  187.4560  177.9610  137.0160 O   0  0  0  0  0  0  0  0  0  0  0  0
  188.7460  177.8590  139.0970 C   0  0  1  0  0  3  0  0  0  0  0  0
  191.2920  175.8460  137.4730 C   0  0  0  0  0  2  0  0  0  0  0  0
  191.9040  178.0440  140.6520 O   0  0  0  0  0  0  0  0  0  0  0  0
  184.5800  178.6860  141.2430 C   0  0  0  0  0  3  0  0  0  0  0  0
  185.9570  178.5510  141.4440 C   0  0  0  0  0  0  0  0  0  0  0  0
  191.0070  177.2180  140.7280 C   0  0  0  0  0  0  0  0  0  0  0  0
  189.7560  176.3190  145.3350 O   0  0  0  0  0  0  0  0  0  0  0  0
  188.7330  177.3570  147.0850 O   0  0  0  0  0  1  0  0  0  0  0  0
  189.9630  177.0570  146.5010 C   0  0  0  0  0  2  0  0  0  0  0  0
  1 19  1  6  0  0  0
  1  5  1  0  0  0  0
  2 16  1  0  0  0  0
  3 17  1  0  0  0  0
  4 12  1  0  0  0  0
  4  1  1  0  0  0  0
  5 11  1  0  0  0  0
  7 27  1  0  0  0  0
  8  6  1  0  0  0  0
  8 11  1  0  0  0  0
  9 22  1  0  0  0  0
  9  7  1  0  0  0  0
 10  3  1  0  0  0  0
 10 22  1  0  0  0  0
 11 28  1  0  0  0  0
 12  8  1  0  0  0  0
 13  2  1  0  0  0  0
 14 23  1  0  0  0  0
 14  9  1  0  0  0  0
 15  7  1  0  0  0  0
 17 20  1  0  0  0  0
 17 26  1  0  0  0  0
 18 13  2  0  0  0  0
 19  2  2  0  0  0  0
 20  4  1  0  0  0  0
 21 10  2  0  0  0  0
 22 20  1  0  0  0  0
 23 15  1  0  0  0  0
 24 27  2  0  0  0  0
 25 26  2  0  0  0  0
 25 18  1  0  0  0  0
 26 19  1  0  0  0  0
 27 12  1  0  0  0  0
 28 30  1  0  0  0  0
 30 29  1  0  0  0  0
M  END
>  <MODEL>
7

>  <REMARK>
 VINA RESULT:      -8.6      1.792      6.671
  Name = 
  2 active torsions:
  status: ('A' for Active; 'I' for Inactive)
    1  A    between atoms: C_11  and  O_28
    2  A    between atoms: O_28  and  C_30
                            x       y       z     vdW  Elec       q    Type
                         _______ _______ _______ _____ _____    ______ ____

>  <TORSDO>
F 2

$$$$
=
 OpenBabel11122410313D

 30 35  0  0  1  0  0  0  0  0999 V2000
  187.3640  178.4590  141.8580 C   0  0  2  0  0  3  0  0  0  0  0  0
  188.3830  177.7290  139.6350 C   0  0  0  0  0  0  0  0  0  0  0  0
  191.1510  177.7220  143.6710 O   0  0  0  0  0  0  0  0  0  0  0  0
  187.6430  178.6600  143.3910 C   0  0  1  0  0  3  0  0  0  0  0  0
  186.2580  177.6080  141.6590 O   0  0  0  0  0  0  0  0  0  0  0  0
  184.7290  180.0450  143.8080 C   0  0  0  0  0  1  0  0  0  0  0  0
  187.1640  177.2900  146.4910 C   0  0  1  0  0  3  0  0  0  0  0  0
  185.0770  178.5840  143.5620 C   0  0  1  0  0  3  0  0  0  0  0  0
  188.6310  176.9450  146.1680 C   0  0  2  0  0  3  0  0  0  0  0  0
  190.8050  177.6120  145.0080 C   0  0  0  0  0  0  0  0  0  0  0  0
  185.1190  178.3450  142.0430 C   0  0  2  0  0  3  0  0  0  0  0  0
  186.4250  178.1960  144.1960 C   0  0  2  0  0  3  0  0  0  0  0  0
  189.4640  177.2910  138.8630 C   0  0  0  0  0  3  0  0  0  0  0  0
  189.2660  176.8800  147.5300 C   0  0  0  0  0  2  0  0  0  0  0  0
  187.0340  177.5470  147.8670 O   0  0  0  0  0  0  0  0  0  0  0  0
  187.1460  177.8990  139.0240 O   0  0  0  0  0  1  0  0  0  0  0  0
  190.0460  178.2740  142.9860 C   0  0  2  0  0  3  0  0  0  0  0  0
  190.7260  177.1330  139.4380 C   0  0  0  0  0  3  0  0  0  0  0  0
  188.5530  177.9930  141.0080 C   0  0  0  0  0  0  0  0  0  0  0  0
  188.8610  177.8490  143.8140 C   0  0  1  0  0  3  0  0  0  0  0  0
  191.6400  177.3130  145.9020 O   0  0  0  0  0  0  0  0  0  0  0  0
  189.3640  177.9530  145.2560 C   0  0  1  0  0  3  0  0  0  0  0  0
  188.0930  176.8580  148.4740 C   0  0  0  0  0  2  0  0  0  0  0  0
  186.3320  179.4930  146.1800 O   0  0  0  0  0  0  0  0  0  0  0  0
  190.9190  177.4170  140.7900 C   0  0  0  0  0  3  0  0  0  0  0  0
  189.8410  177.8320  141.5790 C   0  0  0  0  0  0  0  0  0  0  0  0
  186.5720  178.4080  145.6740 C   0  0  0  0  0  0  0  0  0  0  0  0
  183.9650  177.6730  141.6400 O   0  0  0  0  0  0  0  0  0  0  0  0
  184.1160  179.4630  140.2410 O   0  0  0  0  0  1  0  0  0  0  0  0
  183.7220  178.1300  140.3440 C   0  0  0  0  0  2  0  0  0  0  0  0
  1 19  1  6  0  0  0
  1  4  1  0  0  0  0
  2 19  1  0  0  0  0
  3 10  1  0  0  0  0
  4 20  1  0  0  0  0
  4 12  1  0  0  0  0
  5  1  1  0  0  0  0
  5 11  1  0  0  0  0
  7 15  1  0  0  0  0
  8  6  1  0  0  0  0
  8 12  1  0  0  0  0
  9  7  1  0  0  0  0
  9 14  1  0  0  0  0
 10 22  1  0  0  0  0
 10 21  2  0  0  0  0
 11  8  1  0  0  0  0
 12 27  1  0  0  0  0
 13 18  1  0  0  0  0
 13  2  2  0  0  0  0
 14 23  1  0  0  0  0
 15 23  1  0  0  0  0
 16  2  1  0  0  0  0
 17  3  1  0  0  0  0
 17 20  1  0  0  0  0
 18 25  2  0  0  0  0
 19 26  2  0  0  0  0
 20 22  1  0  0  0  0
 22  9  1  0  0  0  0
 25 26  1  0  0  0  0
 26 17  1  0  0  0  0
 27 24  2  0  0  0  0
 27  7  1  0  0  0  0
 28 11  1  0  0  0  0
 29 30  1  0  0  0  0
 30 28  1  0  0  0  0
M  END
>  <MODEL>
8

>  <REMARK>
 VINA RESULT:      -8.5      1.626      5.435
  Name = 
  2 active torsions:
  status: ('A' for Active; 'I' for Inactive)
    1  A    between atoms: C_11  and  O_28
    2  A    between atoms: O_28  and  C_30
                            x       y       z     vdW  Elec       q    Type
                         _______ _______ _______ _____ _____    ______ ____

>  <TORSDO>
F 2

$$$$
=
 OpenBabel11122410313D

 30 35  0  0  1  0  0  0  0  0999 V2000
  185.3040  178.8070  141.1510 C   0  0  2  0  0  3  0  0  0  0  0  0
  185.5250  178.2890  138.6620 C   0  0  0  0  0  0  0  0  0  0  0  0
  189.4960  178.1270  141.5170 O   0  0  0  0  0  0  0  0  0  0  0  0
  186.0820  178.9110  142.5120 C   0  0  1  0  0  3  0  0  0  0  0  0
  184.2140  177.9200  141.2640 O   0  0  0  0  0  0  0  0  0  0  0  0
  183.4520  180.1190  143.9990 C   0  0  0  0  0  1  0  0  0  0  0  0
  186.7100  177.3000  145.4660 C   0  0  1  0  0  3  0  0  0  0  0  0
  183.7280  178.6990  143.5290 C   0  0  1  0  0  3  0  0  0  0  0  0
  187.9890  177.0510  144.6410 C   0  0  2  0  0  3  0  0  0  0  0  0
  189.6260  177.9040  142.8790 C   0  0  0  0  0  0  0  0  0  0  0  0
  183.2580  178.5720  142.0690 C   0  0  2  0  0  3  0  0  0  0  0  0
  185.2190  178.3320  143.6370 C   0  0  2  0  0  3  0  0  0  0  0  0
  186.2900  177.9610  137.5380 C   0  0  0  0  0  3  0  0  0  0  0  0
  189.0490  176.9190  145.6990 C   0  0  0  0  0  2  0  0  0  0  0  0
  187.0490  177.4510  146.8220 O   0  0  0  0  0  0  0  0  0  0  0  0
  184.1510  178.4430  138.5190 O   0  0  0  0  0  1  0  0  0  0  0  0
  188.2130  178.6720  141.2920 C   0  0  2  0  0  3  0  0  0  0  0  0
  187.6750  177.8240  137.6400 C   0  0  0  0  0  3  0  0  0  0  0  0
  186.1440  178.4620  139.9150 C   0  0  0  0  0  0  0  0  0  0  0  0
  187.3880  178.1320  142.4320 C   0  0  1  0  0  3  0  0  0  0  0  0
  190.7210  177.5830  143.4120 O   0  0  0  0  0  0  0  0  0  0  0  0
  188.3480  178.1570  143.6240 C   0  0  1  0  0  3  0  0  0  0  0  0
  188.2650  176.7720  146.9780 C   0  0  0  0  0  2  0  0  0  0  0  0
  185.7750  179.4770  145.6390 O   0  0  0  0  0  0  0  0  0  0  0  0
  188.3080  178.0190  138.8670 C   0  0  0  0  0  3  0  0  0  0  0  0
  187.5530  178.3230  140.0040 C   0  0  0  0  0  0  0  0  0  0  0  0
  185.8530  178.4440  144.9920 C   0  0  0  0  0  0  0  0  0  0  0  0
  182.0510  177.8750  142.0220 O   0  0  0  0  0  0  0  0  0  0  0  0
  180.6450  179.6530  141.8050 O   0  0  0  0  0  1  0  0  0  0  0  0
  181.2570  178.5980  141.1310 C   0  0  0  0  0  2  0  0  0  0  0  0
  1 19  1  6  0  0  0
  1  5  1  0  0  0  0
  1  4  1  0  0  0  0
  2 19  1  0  0  0  0
  3 10  1  0  0  0  0
  4 12  1  0  0  0  0
  5 11  1  0  0  0  0
  7 15  1  0  0  0  0
  8 12  1  0  0  0  0
  8  6  1  0  0  0  0
  9  7  1  0  0  0  0
  9 14  1  0  0  0  0
 10 21  2  0  0  0  0
 10 22  1  0  0  0  0
 11  8  1  0  0  0  0
 12 27  1  0  0  0  0
 13 18  1  0  0  0  0
 13  2  2  0  0  0  0
 14 23  1  0  0  0  0
 15 23  1  0  0  0  0
 16  2  1  0  0  0  0
 17  3  1  0  0  0  0
 17 20  1  0  0  0  0
 18 25  2  0  0  0  0
 19 26  2  0  0  0  0
 20  4  1  0  0  0  0
 20 22  1  0  0  0  0
 22  9  1  0  0  0  0
 25 26  1  0  0  0  0
 26 17  1  0  0  0  0
 27  7  1  0  0  0  0
 27 24  2  0  0  0  0
 28 11  1  0  0  0  0
 30 29  1  0  0  0  0
 30 28  1  0  0  0  0
M  END
>  <MODEL>
9

>  <REMARK>
 VINA RESULT:      -8.3      1.949      6.675
  Name = 
  2 active torsions:
  status: ('A' for Active; 'I' for Inactive)
    1  A    between atoms: C_11  and  O_28
    2  A    between atoms: O_28  and  C_30
                            x       y       z     vdW  Elec       q    Type
                         _______ _______ _______ _____ _____    ______ ____

>  <TORSDO>
F 2

$$$$
