=
 OpenBabel11122410393D

 32 37  0  0  1  0  0  0  0  0999 V2000
  180.2730  177.0650  138.4470 C   0  0  0  0  0  2  0  0  0  0  0  0
  184.9160  178.9510  141.1520 C   0  0  1  0  0  3  0  0  0  0  0  0
  186.1830  177.8770  136.6370 C   0  0  0  0  0  2  0  0  0  0  0  0
  187.5980  177.4710  137.0430 C   0  0  0  0  0  2  0  0  0  0  0  0
  186.4490  178.3850  143.0980 C   0  0  0  0  0  0  0  0  0  0  0  0
  187.6860  177.9060  143.5250 C   0  0  0  0  0  0  0  0  0  0  0  0
  182.5750  178.2500  140.6380 C   0  0  1  0  0  3  0  0  0  0  0  0
  183.7760  179.9620  139.2920 C   0  0  0  0  0  2  0  0  0  0  0  0
  189.8800  177.1050  143.3250 C   0  0  1  0  0  3  0  0  0  0  0  0
  181.4630  179.2830  138.6140 C   0  0  0  0  0  2  0  0  0  0  0  0
  185.6910  178.9920  137.5560 C   0  0  0  0  0  2  0  0  0  0  0  0
  185.0940  179.5110  139.7920 N   0  0  2  0  0  0  0  0  0  0  0  0
  185.6610  178.5130  138.9470 N   0  0  2  0  0  0  0  0  0  0  0  0
  187.2530  178.0980  140.8100 C   0  0  0  0  0  0  0  0  0  0  0  0
  189.4970  177.2430  144.8160 C   0  0  0  0  0  3  0  0  0  0  0  0
  181.5170  176.0280  139.2840 S   0  0  0  0  0  0  0  0  0  0  0  0
  182.7690  178.8150  139.2310 C   0  0  2  0  0  3  0  0  0  0  0  0
  188.1200  177.7440  144.8600 N   0  0  0  0  0  0  0  0  0  0  0  0
  181.5370  177.1280  140.7390 C   0  0  0  0  0  2  0  0  0  0  0  0
  180.9250  178.2110  137.6750 C   0  0  2  0  0  3  0  0  0  0  0  0
  187.6550  177.1420  138.5320 C   0  0  0  0  0  2  0  0  0  0  0  0
  187.0740  178.3120  139.3300 C   0  0  1  0  0  3  0  0  0  0  0  0
  188.4530  177.6600  141.2940 N   0  0  0  0  0  0  0  0  0  0  0  0
  183.9170  177.7840  141.1760 C   0  0  0  0  0  2  0  0  0  0  0  0
  185.4060  178.7780  144.0920 C   0  0  0  0  0  1  0  0  0  0  0  0
  190.1550  175.6470  143.0080 C   0  0  0  0  0  1  0  0  0  0  0  0
  186.2300  178.4900  141.7060 C   0  0  0  0  0  0  0  0  0  0  0  0
  188.6470  177.5520  142.6330 C   0  0  0  0  0  0  0  0  0  0  0  0
  179.9480  178.8120  136.7800 N   0  0  0  0  0  2  0  0  0  0  0  0
  180.2800  179.2550  135.4620 C   0  0  0  0  0  0  0  0  0  0  0  0
  181.4590  179.1600  135.0300 O   0  0  0  0  0  0  0  0  0  0  0  0
  179.2240  179.8380  134.5950 C   0  0  0  0  0  1  0  0  0  0  0  0
  1 16  1  0  0  0  0
  2 24  1  6  0  0  0
  2 27  1  0  0  0  0
  3  4  1  0  0  0  0
  3 11  1  0  0  0  0
  4 21  1  0  0  0  0
  5  6  1  0  0  0  0
  5 25  1  0  0  0  0
  6 18  1  0  0  0  0
  7 19  1  6  0  0  0
  7 24  1  0  0  0  0
  9 26  1  6  0  0  0
  9 15  1  0  0  0  0
 12  8  1  6  0  0  0
 12  2  1  0  0  0  0
 13 11  1  6  0  0  0
 13 22  1  0  0  0  0
 13 12  1  0  0  0  0
 14 23  2  0  0  0  0
 14 27  1  0  0  0  0
 15 18  2  0  0  0  0
 16 19  1  0  0  0  0
 17 10  1  1  0  0  0
 17  8  1  0  0  0  0
 17  7  1  0  0  0  0
 20 29  1  6  0  0  0
 20  1  1  0  0  0  0
 20 10  1  0  0  0  0
 22 21  1  6  0  0  0
 22 14  1  0  0  0  0
 23 28  1  0  0  0  0
 27  5  2  0  0  0  0
 28  9  1  0  0  0  0
 28  6  2  0  0  0  0
 30 29  1  0  0  0  0
 31 30  2  0  0  0  0
 32 30  1  0  0  0  0
M  END
>  <MODEL>
1

>  <REMARK>
 VINA RESULT:      -7.0      0.000      0.000
  Name = 
  1 active torsions:
  status: ('A' for Active; 'I' for Inactive)
    1  A    between atoms: C_20  and  N_29
                            x       y       z     vdW  Elec       q    Type
                         _______ _______ _______ _____ _____    ______ ____

>  <TORSDO>
F 1

$$$$
=
 OpenBabel11122410393D

 32 37  0  0  1  0  0  0  0  0999 V2000
  187.6480  174.3590  135.8890 C   0  0  0  0  0  2  0  0  0  0  0  0
  184.6230  178.4570  138.4370 C   0  0  1  0  0  3  0  0  0  0  0  0
  188.5550  177.6690  141.0940 C   0  0  0  0  0  2  0  0  0  0  0  0
  187.8430  178.0150  142.4000 C   0  0  0  0  0  2  0  0  0  0  0  0
  182.3730  178.8690  139.5430 C   0  0  0  0  0  0  0  0  0  0  0  0
  181.6550  179.0700  140.7210 C   0  0  0  0  0  0  0  0  0  0  0  0
  185.3770  176.6930  136.8380 C   0  0  1  0  0  3  0  0  0  0  0  0
  186.8120  178.6280  137.4570 C   0  0  0  0  0  2  0  0  0  0  0  0
  181.3190  179.3770  143.0200 C   0  0  1  0  0  3  0  0  0  0  0  0
  187.7240  176.8810  135.9120 C   0  0  0  0  0  2  0  0  0  0  0  0
  187.9720  178.5060  139.9590 C   0  0  0  0  0  2  0  0  0  0  0  0
  186.0170  178.8990  138.6750 N   0  0  2  0  0  0  0  0  0  0  0  0
  186.5390  178.2070  139.8060 N   0  0  2  0  0  0  0  0  0  0  0  0
  184.3880  178.7710  140.9170 C   0  0  0  0  0  0  0  0  0  0  0  0
  179.9710  179.4650  142.2680 C   0  0  0  0  0  3  0  0  0  0  0  0
  186.4240  174.1140  137.2180 S   0  0  0  0  0  0  0  0  0  0  0  0
  186.8140  177.1430  137.1000 C   0  0  2  0  0  3  0  0  0  0  0  0
  180.2610  179.2620  140.8460 N   0  0  0  0  0  0  0  0  0  0  0  0
  185.2330  175.2310  136.4040 C   0  0  0  0  0  2  0  0  0  0  0  0
  188.5100  175.5960  136.1410 C   0  0  2  0  0  3  0  0  0  0  0  0
  186.3310  177.8990  142.2330 C   0  0  0  0  0  2  0  0  0  0  0  0
  185.8900  178.7310  141.0260 C   0  0  1  0  0  3  0  0  0  0  0  0
  183.6310  178.9970  142.0320 N   0  0  0  0  0  0  0  0  0  0  0  0
  184.5380  176.9660  138.0750 C   0  0  0  0  0  2  0  0  0  0  0  0
  181.6670  178.8220  138.2270 C   0  0  0  0  0  1  0  0  0  0  0  0
  181.2900  178.1960  143.9710 C   0  0  0  0  0  1  0  0  0  0  0  0
  183.7740  178.7220  139.6440 C   0  0  0  0  0  0  0  0  0  0  0  0
  182.2850  179.1240  141.9240 C   0  0  0  0  0  0  0  0  0  0  0  0
  189.6580  175.5770  135.2480 N   0  0  0  0  0  2  0  0  0  0  0  0
  190.9680  175.9650  135.6700 C   0  0  0  0  0  0  0  0  0  0  0  0
  191.1730  176.3650  136.8460 O   0  0  0  0  0  0  0  0  0  0  0  0
  192.0990  175.8980  134.7080 C   0  0  0  0  0  1  0  0  0  0  0  0
  1 20  1  0  0  0  0
  1 16  1  0  0  0  0
  2 24  1  1  0  0  0
  2 12  1  0  0  0  0
  2 27  1  0  0  0  0
  3  4  1  0  0  0  0
  5 27  2  0  0  0  0
  5  6  1  0  0  0  0
  6 18  1  0  0  0  0
  6 28  2  0  0  0  0
  7 19  1  1  0  0  0
  7 17  1  0  0  0  0
  7 24  1  0  0  0  0
  9 26  1  1  0  0  0
 10 20  1  0  0  0  0
 11  3  1  0  0  0  0
 12  8  1  6  0  0  0
 12 13  1  0  0  0  0
 13 11  1  1  0  0  0
 13 22  1  0  0  0  0
 14 22  1  0  0  0  0
 14 23  2  0  0  0  0
 15  9  1  0  0  0  0
 17 10  1  6  0  0  0
 17  8  1  0  0  0  0
 18 15  2  0  0  0  0
 19 16  1  0  0  0  0
 20 29  1  6  0  0  0
 21  4  1  0  0  0  0
 22 21  1  1  0  0  0
 25  5  1  0  0  0  0
 27 14  1  0  0  0  0
 28 23  1  0  0  0  0
 28  9  1  0  0  0  0
 29 30  1  0  0  0  0
 30 31  2  0  0  0  0
 32 30  1  0  0  0  0
M  END
>  <MODEL>
2

>  <REMARK>
 VINA RESULT:      -6.6      3.189      6.856
  Name = 
  1 active torsions:
  status: ('A' for Active; 'I' for Inactive)
    1  A    between atoms: C_20  and  N_29
                            x       y       z     vdW  Elec       q    Type
                         _______ _______ _______ _____ _____    ______ ____

>  <TORSDO>
F 1

$$$$
=
 OpenBabel11122410393D

 32 37  0  0  1  0  0  0  0  0999 V2000
  187.2060  177.3860  143.4890 C   0  0  0  0  0  2  0  0  0  0  0  0
  190.9320  177.3480  139.1830 C   0  0  1  0  0  3  0  0  0  0  0  0
  186.8350  175.3920  137.5940 C   0  0  0  0  0  2  0  0  0  0  0  0
  187.5590  174.4590  136.6260 C   0  0  0  0  0  2  0  0  0  0  0  0
  193.1800  176.3730  138.5100 C   0  0  0  0  0  0  0  0  0  0  0  0
  193.8830  175.4530  137.7340 C   0  0  0  0  0  0  0  0  0  0  0  0
  189.8820  177.6750  141.4240 C   0  0  1  0  0  3  0  0  0  0  0  0
  188.8620  178.5620  139.3350 C   0  0  0  0  0  2  0  0  0  0  0  0
  194.1990  173.7700  136.1320 C   0  0  1  0  0  3  0  0  0  0  0  0
  187.6580  178.8810  141.5080 C   0  0  0  0  0  2  0  0  0  0  0  0
  187.6190  176.6960  137.7260 C   0  0  0  0  0  2  0  0  0  0  0  0
  189.6550  177.6400  138.4920 N   0  0  2  0  0  0  0  0  0  0  0  0
  188.9610  176.4160  138.2580 N   0  0  2  0  0  0  0  0  0  0  0  0
  191.1440  175.5430  137.4500 C   0  0  0  0  0  0  0  0  0  0  0  0
  195.5590  174.2070  136.7210 C   0  0  0  0  0  3  0  0  0  0  0  0
  188.3050  176.0030  143.0400 S   0  0  0  0  0  0  0  0  0  0  0  0
  188.5620  177.9600  140.7060 C   0  0  2  0  0  3  0  0  0  0  0  0
  195.2820  175.2530  137.7100 N   0  0  0  0  0  0  0  0  0  0  0  0
  189.7300  177.1250  142.8460 C   0  0  0  0  0  2  0  0  0  0  0  0
  186.6140  178.0570  142.2510 C   0  0  2  0  0  3  0  0  0  0  0  0
  189.0180  174.2870  137.0380 C   0  0  0  0  0  2  0  0  0  0  0  0
  189.6640  175.6650  137.1970 C   0  0  1  0  0  3  0  0  0  0  0  0
  191.8930  174.6810  136.6990 N   0  0  0  0  0  0  0  0  0  0  0  0
  190.7160  176.7330  140.5740 C   0  0  0  0  0  2  0  0  0  0  0  0
  193.9040  177.2730  139.4560 C   0  0  0  0  0  1  0  0  0  0  0  0
  193.9470  172.3130  136.4690 C   0  0  0  0  0  1  0  0  0  0  0  0
  191.7760  176.4230  138.3590 C   0  0  0  0  0  0  0  0  0  0  0  0
  193.2390  174.6340  136.8620 C   0  0  0  0  0  0  0  0  0  0  0  0
  185.5180  178.9280  142.6460 N   0  0  0  0  0  2  0  0  0  0  0  0
  184.1510  178.6260  142.3590 C   0  0  0  0  0  0  0  0  0  0  0  0
  183.8430  177.5860  141.7190 O   0  0  0  0  0  0  0  0  0  0  0  0
  183.0820  179.5510  142.8150 C   0  0  0  0  0  1  0  0  0  0  0  0
  2 24  1  1  0  0  0
  3 11  1  0  0  0  0
  4 21  1  0  0  0  0
  4  3  1  0  0  0  0
  5 25  1  0  0  0  0
  6  5  2  0  0  0  0
  7 24  1  6  0  0  0
  7 19  1  0  0  0  0
  9 26  1  1  0  0  0
  9 15  1  0  0  0  0
  9 28  1  0  0  0  0
 10 20  1  0  0  0  0
 12  2  1  0  0  0  0
 12  8  1  1  0  0  0
 13 11  1  6  0  0  0
 13 12  1  0  0  0  0
 14 27  2  0  0  0  0
 15 18  2  0  0  0  0
 16  1  1  0  0  0  0
 17  8  1  6  0  0  0
 17  7  1  0  0  0  0
 17 10  1  0  0  0  0
 18  6  1  0  0  0  0
 19 16  1  0  0  0  0
 20 29  1  1  0  0  0
 20  1  1  0  0  0  0
 22 21  1  1  0  0  0
 22 14  1  0  0  0  0
 22 13  1  0  0  0  0
 23 28  2  0  0  0  0
 23 14  1  0  0  0  0
 27  5  1  0  0  0  0
 27  2  1  0  0  0  0
 28  6  1  0  0  0  0
 30 29  1  0  0  0  0
 30 32  1  0  0  0  0
 31 30  2  0  0  0  0
M  END
>  <MODEL>
3

>  <REMARK>
 VINA RESULT:      -6.6      4.650      7.234
  Name = 
  1 active torsions:
  status: ('A' for Active; 'I' for Inactive)
    1  A    between atoms: C_20  and  N_29
                            x       y       z     vdW  Elec       q    Type
                         _______ _______ _______ _____ _____    ______ ____

>  <TORSDO>
F 1

$$$$
=
 OpenBabel11122410393D

 32 37  0  0  1  0  0  0  0  0999 V2000
  191.1020  173.6090  135.9070 C   0  0  0  0  0  2  0  0  0  0  0  0
  186.6800  177.1950  136.0410 C   0  0  1  0  0  3  0  0  0  0  0  0
  189.4970  178.1990  139.8080 C   0  0  0  0  0  2  0  0  0  0  0  0
  188.3210  178.6400  140.6760 C   0  0  0  0  0  2  0  0  0  0  0  0
  184.1500  177.2210  136.2710 C   0  0  0  0  0  0  0  0  0  0  0  0
  183.0400  177.4950  137.0680 C   0  0  0  0  0  0  0  0  0  0  0  0
  188.2570  175.3760  135.3740 C   0  0  1  0  0  3  0  0  0  0  0  0
  189.0040  177.7240  135.7190 C   0  0  0  0  0  2  0  0  0  0  0  0
  181.8650  178.2440  138.9530 C   0  0  1  0  0  3  0  0  0  0  0  0
  190.7040  175.9790  135.1410 C   0  0  0  0  0  2  0  0  0  0  0  0
  189.2090  178.5400  138.3490 C   0  0  0  0  0  2  0  0  0  0  0  0
  187.7950  178.0510  136.5080 N   0  0  2  0  0  0  0  0  0  0  0  0
  188.0020  177.8270  137.9010 N   0  0  2  0  0  0  0  0  0  0  0  0
  185.5340  178.0230  138.1150 C   0  0  0  0  0  0  0  0  0  0  0  0
  180.8770  177.7680  137.8630 C   0  0  0  0  0  3  0  0  0  0  0  0
  189.5550  173.3630  136.8400 S   0  0  0  0  0  0  0  0  0  0  0  0
  189.4020  176.2580  135.8730 C   0  0  2  0  0  3  0  0  0  0  0  0
  181.6810  177.3160  136.7250 N   0  0  0  0  0  0  0  0  0  0  0  0
  188.5450  173.8730  135.4090 C   0  0  0  0  0  2  0  0  0  0  0  0
  191.5790  175.0580  135.9820 C   0  0  2  0  0  3  0  0  0  0  0  0
  187.0130  178.0710  140.1340 C   0  0  0  0  0  2  0  0  0  0  0  0
  186.8810  178.4290  138.6520 C   0  0  1  0  0  3  0  0  0  0  0  0
  184.4050  178.2930  138.8360 N   0  0  0  0  0  0  0  0  0  0  0  0
  187.0020  175.6980  136.1670 C   0  0  0  0  0  2  0  0  0  0  0  0
  183.9740  176.6620  134.8970 C   0  0  0  0  0  1  0  0  0  0  0  0
  181.7190  177.3690  140.1830 C   0  0  0  0  0  1  0  0  0  0  0  0
  185.4280  177.4980  136.8060 C   0  0  0  0  0  0  0  0  0  0  0  0
  183.1840  178.0110  138.3170 C   0  0  0  0  0  0  0  0  0  0  0  0
  192.9510  175.1440  135.5060 N   0  0  0  0  0  2  0  0  0  0  0  0
  193.9460  175.9320  136.1620 C   0  0  0  0  0  0  0  0  0  0  0  0
  193.6590  176.6120  137.1820 O   0  0  0  0  0  0  0  0  0  0  0  0
  195.3340  175.9530  135.6320 C   0  0  0  0  0  1  0  0  0  0  0  0
  1 20  1  0  0  0  0
  1 16  1  0  0  0  0
  2 24  1  1  0  0  0
  2 12  1  0  0  0  0
  2 27  1  0  0  0  0
  3  4  1  0  0  0  0
  5 27  2  0  0  0  0
  5  6  1  0  0  0  0
  6 28  2  0  0  0  0
  7 19  1  1  0  0  0
  7 17  1  0  0  0  0
  7 24  1  0  0  0  0
  8 17  1  0  0  0  0
  9 26  1  1  0  0  0
 10 20  1  0  0  0  0
 11  3  1  0  0  0  0
 12  8  1  6  0  0  0
 12 13  1  0  0  0  0
 13 11  1  1  0  0  0
 13 22  1  0  0  0  0
 14 22  1  0  0  0  0
 14 23  2  0  0  0  0
 15  9  1  0  0  0  0
 17 10  1  6  0  0  0
 18  6  1  0  0  0  0
 18 15  2  0  0  0  0
 19 16  1  0  0  0  0
 20 29  1  6  0  0  0
 21  4  1  0  0  0  0
 22 21  1  1  0  0  0
 25  5  1  0  0  0  0
 27 14  1  0  0  0  0
 28 23  1  0  0  0  0
 28  9  1  0  0  0  0
 29 30  1  0  0  0  0
 30 31  2  0  0  0  0
 32 30  1  0  0  0  0
M  END
>  <MODEL>
4

>  <REMARK>
 VINA RESULT:      -6.0      4.235      8.650
  Name = 
  1 active torsions:
  status: ('A' for Active; 'I' for Inactive)
    1  A    between atoms: C_20  and  N_29
                            x       y       z     vdW  Elec       q    Type
                         _______ _______ _______ _____ _____    ______ ____

>  <TORSDO>
F 1

$$$$
=
 OpenBabel11122410393D

 32 37  0  0  1  0  0  0  0  0999 V2000
  188.5220  177.7250  142.4890 C   0  0  0  0  0  2  0  0  0  0  0  0
  190.9680  176.6130  137.4680 C   0  0  1  0  0  3  0  0  0  0  0  0
  186.7570  174.2910  137.5940 C   0  0  0  0  0  2  0  0  0  0  0  0
  187.2680  173.1470  136.7220 C   0  0  0  0  0  2  0  0  0  0  0  0
  193.0250  175.5120  136.4610 C   0  0  0  0  0  0  0  0  0  0  0  0
  193.5660  174.4290  135.7700 C   0  0  0  0  0  0  0  0  0  0  0  0
  190.5260  177.4940  139.7620 C   0  0  1  0  0  3  0  0  0  0  0  0
  188.9260  177.8120  137.8840 C   0  0  0  0  0  2  0  0  0  0  0  0
  193.5730  172.3960  134.6030 C   0  0  1  0  0  3  0  0  0  0  0  0
  188.3190  178.6670  140.1580 C   0  0  0  0  0  2  0  0  0  0  0  0
  187.4460  175.5900  137.1830 C   0  0  0  0  0  2  0  0  0  0  0  0
  189.5350  176.7110  137.1060 N   0  0  2  0  0  0  0  0  0  0  0  0
  188.8990  175.4640  137.3780 N   0  0  2  0  0  0  0  0  0  0  0  0
  190.8500  174.4270  136.2380 C   0  0  0  0  0  0  0  0  0  0  0  0
  195.0030  172.9770  134.6710 C   0  0  0  0  0  3  0  0  0  0  0  0
  189.5650  176.2790  142.1060 S   0  0  0  0  0  0  0  0  0  0  0  0
  189.0460  177.5780  139.3880 C   0  0  2  0  0  3  0  0  0  0  0  0
  194.9190  174.2380  135.4110 N   0  0  0  0  0  0  0  0  0  0  0  0
  190.7990  177.3240  141.2600 C   0  0  0  0  0  2  0  0  0  0  0  0
  187.5740  178.0540  141.3370 C   0  0  2  0  0  3  0  0  0  0  0  0
  188.7920  173.0940  136.7450 C   0  0  0  0  0  2  0  0  0  0  0  0
  189.3510  174.4720  136.3800 C   0  0  1  0  0  3  0  0  0  0  0  0
  191.4370  173.4070  135.5430 N   0  0  0  0  0  0  0  0  0  0  0  0
  191.1750  176.3710  138.9720 C   0  0  0  0  0  2  0  0  0  0  0  0
  193.9040  176.6280  136.9230 C   0  0  0  0  0  1  0  0  0  0  0  0
  193.5310  171.0710  135.3400 C   0  0  0  0  0  1  0  0  0  0  0  0
  191.6320  175.5140  136.6940 C   0  0  0  0  0  0  0  0  0  0  0  0
  192.7780  173.4110  135.3360 C   0  0  0  0  0  0  0  0  0  0  0  0
  186.5590  178.9900  141.7950 N   0  0  0  0  0  2  0  0  0  0  0  0
  185.5970  178.6540  142.7960 C   0  0  0  0  0  0  0  0  0  0  0  0
  185.5790  177.5050  143.3110 O   0  0  0  0  0  0  0  0  0  0  0  0
  184.6040  179.6700  143.2310 C   0  0  0  0  0  1  0  0  0  0  0  0
  2 24  1  1  0  0  0
  4 21  1  0  0  0  0
  4  3  1  0  0  0  0
  5 27  1  0  0  0  0
  5 25  1  0  0  0  0
  6  5  2  0  0  0  0
  7 24  1  6  0  0  0
  7 19  1  0  0  0  0
  9 15  1  0  0  0  0
  9 28  1  0  0  0  0
  9 26  1  1  0  0  0
 10 20  1  0  0  0  0
 11  3  1  0  0  0  0
 12 13  1  0  0  0  0
 12  2  1  0  0  0  0
 12  8  1  1  0  0  0
 13 11  1  6  0  0  0
 14 22  1  0  0  0  0
 14 27  2  0  0  0  0
 15 18  2  0  0  0  0
 16  1  1  0  0  0  0
 17  8  1  6  0  0  0
 17  7  1  0  0  0  0
 17 10  1  0  0  0  0
 18  6  1  0  0  0  0
 19 16  1  0  0  0  0
 20 29  1  1  0  0  0
 20  1  1  0  0  0  0
 22 21  1  1  0  0  0
 22 13  1  0  0  0  0
 23 14  1  0  0  0  0
 27  2  1  0  0  0  0
 28 23  2  0  0  0  0
 28  6  1  0  0  0  0
 29 30  1  0  0  0  0
 30 32  1  0  0  0  0
 30 31  2  0  0  0  0
M  END
>  <MODEL>
5

>  <REMARK>
 VINA RESULT:      -5.9      5.322      8.279
  Name = 
  1 active torsions:
  status: ('A' for Active; 'I' for Inactive)
    1  A    between atoms: C_20  and  N_29
                            x       y       z     vdW  Elec       q    Type
                         _______ _______ _______ _____ _____    ______ ____

>  <TORSDO>
F 1

$$$$
=
 OpenBabel11122410393D

 32 37  0  0  1  0  0  0  0  0999 V2000
  190.2450  173.7170  135.6190 C   0  0  0  0  0  2  0  0  0  0  0  0
  187.2560  177.9770  137.9310 C   0  0  1  0  0  3  0  0  0  0  0  0
  191.0090  177.0900  140.8060 C   0  0  0  0  0  2  0  0  0  0  0  0
  190.2440  177.4890  142.0660 C   0  0  0  0  0  2  0  0  0  0  0  0
  184.9690  178.4980  138.9080 C   0  0  0  0  0  0  0  0  0  0  0  0
  184.2000  178.7500  140.0430 C   0  0  0  0  0  0  0  0  0  0  0  0
  188.0220  176.1540  136.4060 C   0  0  1  0  0  3  0  0  0  0  0  0
  189.4990  178.0440  137.0660 C   0  0  0  0  0  2  0  0  0  0  0  0
  183.7560  179.1150  142.3160 C   0  0  1  0  0  3  0  0  0  0  0  0
  190.4200  176.2330  135.6020 C   0  0  0  0  0  2  0  0  0  0  0  0
  190.5200  177.9270  139.6270 C   0  0  0  0  0  2  0  0  0  0  0  0
  188.6520  178.3700  138.2350 N   0  0  2  0  0  0  0  0  0  0  0  0
  189.0870  177.6810  139.4040 N   0  0  2  0  0  0  0  0  0  0  0  0
  186.9050  178.3490  140.3890 C   0  0  0  0  0  0  0  0  0  0  0  0
  182.4540  179.2400  141.4910 C   0  0  0  0  0  3  0  0  0  0  0  0
  188.9450  173.5450  136.8860 S   0  0  0  0  0  0  0  0  0  0  0  0
  189.4600  176.5540  136.7350 C   0  0  2  0  0  3  0  0  0  0  0  0
  182.8100  178.9980  140.0900 N   0  0  0  0  0  0  0  0  0  0  0  0
  187.8430  174.6910  135.9900 C   0  0  0  0  0  2  0  0  0  0  0  0
  191.1410  174.9230  135.8950 C   0  0  2  0  0  3  0  0  0  0  0  0
  188.7390  177.4280  141.8220 C   0  0  0  0  0  2  0  0  0  0  0  0
  188.3960  178.2530  140.5790 C   0  0  1  0  0  3  0  0  0  0  0  0
  186.1000  178.6260  141.4580 N   0  0  0  0  0  0  0  0  0  0  0  0
  187.1310  176.4840  137.5910 C   0  0  0  0  0  2  0  0  0  0  0  0
  184.3320  178.4520  137.5580 C   0  0  0  0  0  1  0  0  0  0  0  0
  183.6300  177.9550  143.2850 C   0  0  0  0  0  1  0  0  0  0  0  0
  186.3570  178.2990  139.0860 C   0  0  0  0  0  0  0  0  0  0  0  0
  184.7670  178.8030  141.2770 C   0  0  0  0  0  0  0  0  0  0  0  0
  192.3330  174.8430  135.0650 N   0  0  0  0  0  2  0  0  0  0  0  0
  193.6000  175.3520  135.4850 C   0  0  0  0  0  0  0  0  0  0  0  0
  193.7270  175.9200  136.6020 O   0  0  0  0  0  0  0  0  0  0  0  0
  194.7800  175.2130  134.5940 C   0  0  0  0  0  1  0  0  0  0  0  0
  1 20  1  0  0  0  0
  1 16  1  0  0  0  0
  2 24  1  1  0  0  0
  2 12  1  0  0  0  0
  2 27  1  0  0  0  0
  3  4  1  0  0  0  0
  5 27  2  0  0  0  0
  5  6  1  0  0  0  0
  6 18  1  0  0  0  0
  6 28  2  0  0  0  0
  7 19  1  1  0  0  0
  7 17  1  0  0  0  0
  7 24  1  0  0  0  0
  9 26  1  1  0  0  0
 10 20  1  0  0  0  0
 11  3  1  0  0  0  0
 12  8  1  6  0  0  0
 12 13  1  0  0  0  0
 13 11  1  1  0  0  0
 13 22  1  0  0  0  0
 14 22  1  0  0  0  0
 14 23  2  0  0  0  0
 15  9  1  0  0  0  0
 17 10  1  6  0  0  0
 17  8  1  0  0  0  0
 18 15  2  0  0  0  0
 19 16  1  0  0  0  0
 20 29  1  6  0  0  0
 21  4  1  0  0  0  0
 22 21  1  1  0  0  0
 25  5  1  0  0  0  0
 27 14  1  0  0  0  0
 28 23  1  0  0  0  0
 28  9  1  0  0  0  0
 29 30  1  0  0  0  0
 30 31  2  0  0  0  0
 32 30  1  0  0  0  0
M  END
>  <MODEL>
6

>  <REMARK>
 VINA RESULT:      -5.7      4.096      7.764
  Name = 
  1 active torsions:
  status: ('A' for Active; 'I' for Inactive)
    1  A    between atoms: C_20  and  N_29
                            x       y       z     vdW  Elec       q    Type
                         _______ _______ _______ _____ _____    ______ ____

>  <TORSDO>
F 1

$$$$
=
 OpenBabel11122410393D

 32 37  0  0  1  0  0  0  0  0999 V2000
  188.8910  173.0900  136.0100 C   0  0  0  0  0  2  0  0  0  0  0  0
  185.3960  177.5030  136.8780 C   0  0  1  0  0  3  0  0  0  0  0  0
  189.0080  177.8490  140.0370 C   0  0  0  0  0  2  0  0  0  0  0  0
  188.1270  178.5070  141.0960 C   0  0  0  0  0  2  0  0  0  0  0  0
  183.0120  178.0420  137.5710 C   0  0  0  0  0  0  0  0  0  0  0  0
  182.1480  178.5240  138.5530 C   0  0  0  0  0  0  0  0  0  0  0  0
  186.4180  175.4110  135.9720 C   0  0  1  0  0  3  0  0  0  0  0  0
  187.6780  177.5510  136.1210 C   0  0  0  0  0  2  0  0  0  0  0  0
  181.5210  179.4680  140.6050 C   0  0  1  0  0  3  0  0  0  0  0  0
  188.8500  175.5040  135.2780 C   0  0  0  0  0  2  0  0  0  0  0  0
  188.5290  178.2650  138.6480 C   0  0  0  0  0  2  0  0  0  0  0  0
  186.7290  178.1050  137.1120 N   0  0  2  0  0  0  0  0  0  0  0  0
  187.1410  177.8210  138.4470 N   0  0  2  0  0  0  0  0  0  0  0  0
  184.8480  178.5150  139.1090 C   0  0  0  0  0  0  0  0  0  0  0  0
  180.2730  179.2210  139.7280 C   0  0  0  0  0  3  0  0  0  0  0  0
  187.5270  173.1520  137.2190 S   0  0  0  0  0  0  0  0  0  0  0  0
  187.7910  176.0320  136.2310 C   0  0  2  0  0  3  0  0  0  0  0  0
  180.7420  178.6330  138.4710 N   0  0  0  0  0  0  0  0  0  0  0  0
  186.3950  173.8800  135.9880 C   0  0  0  0  0  2  0  0  0  0  0  0
  189.6590  174.4100  135.9630 C   0  0  2  0  0  3  0  0  0  0  0  0
  186.6530  178.2260  140.8190 C   0  0  0  0  0  2  0  0  0  0  0  0
  186.3250  178.6280  139.3790 C   0  0  1  0  0  3  0  0  0  0  0  0
  183.9510  178.9980  140.0200 N   0  0  0  0  0  0  0  0  0  0  0  0
  185.4240  175.9690  136.9760 C   0  0  0  0  0  2  0  0  0  0  0  0
  182.4750  177.5530  136.2660 C   0  0  0  0  0  1  0  0  0  0  0  0
  181.4310  178.6210  141.8610 C   0  0  0  0  0  1  0  0  0  0  0  0
  184.3960  178.0440  137.8540 C   0  0  0  0  0  0  0  0  0  0  0  0
  182.6240  178.9800  139.7420 C   0  0  0  0  0  0  0  0  0  0  0  0
  190.9070  174.2210  135.2410 N   0  0  0  0  0  2  0  0  0  0  0  0
  192.1650  174.0740  135.9010 C   0  0  0  0  0  0  0  0  0  0  0  0
  192.2430  174.1270  137.1570 O   0  0  0  0  0  0  0  0  0  0  0  0
  193.3970  173.8610  135.0980 C   0  0  0  0  0  1  0  0  0  0  0  0
  1 16  1  0  0  0  0
  2 24  1  1  0  0  0
  2 12  1  0  0  0  0
  2 27  1  0  0  0  0
  3  4  1  0  0  0  0
  5 27  2  0  0  0  0
  5  6  1  0  0  0  0
  6 28  2  0  0  0  0
  7 19  1  1  0  0  0
  7 17  1  0  0  0  0
  7 24  1  0  0  0  0
  8 17  1  0  0  0  0
  9 26  1  1  0  0  0
 10 20  1  0  0  0  0
 11  3  1  0  0  0  0
 12  8  1  6  0  0  0
 12 13  1  0  0  0  0
 13 11  1  6  0  0  0
 13 22  1  0  0  0  0
 14 22  1  0  0  0  0
 14 23  2  0  0  0  0
 15  9  1  0  0  0  0
 17 10  1  6  0  0  0
 18  6  1  0  0  0  0
 18 15  2  0  0  0  0
 19 16  1  0  0  0  0
 20 29  1  6  0  0  0
 20  1  1  0  0  0  0
 21  4  1  0  0  0  0
 22 21  1  1  0  0  0
 25  5  1  0  0  0  0
 27 14  1  0  0  0  0
 28 23  1  0  0  0  0
 28  9  1  0  0  0  0
 29 30  1  0  0  0  0
 30 31  2  0  0  0  0
 32 30  1  0  0  0  0
M  END
>  <MODEL>
7

>  <REMARK>
 VINA RESULT:      -5.6      3.765      7.803
  Name = 
  1 active torsions:
  status: ('A' for Active; 'I' for Inactive)
    1  A    between atoms: C_20  and  N_29
                            x       y       z     vdW  Elec       q    Type
                         _______ _______ _______ _____ _____    ______ ____

>  <TORSDO>
F 1

$$$$
=
 OpenBabel11122410393D

 32 37  0  0  1  0  0  0  0  0999 V2000
  187.6490  178.3540  141.0050 C   0  0  0  0  0  2  0  0  0  0  0  0
  190.7160  176.1840  136.7250 C   0  0  1  0  0  3  0  0  0  0  0  0
  186.7150  173.5470  137.1460 C   0  0  0  0  0  2  0  0  0  0  0  0
  187.4090  172.2700  136.6780 C   0  0  0  0  0  2  0  0  0  0  0  0
  192.9530  175.0780  136.2460 C   0  0  0  0  0  0  0  0  0  0  0  0
  193.6510  173.9120  135.9360 C   0  0  0  0  0  0  0  0  0  0  0  0
  189.9550  177.6050  138.6320 C   0  0  1  0  0  3  0  0  0  0  0  0
  188.5520  177.2250  136.6130 C   0  0  0  0  0  2  0  0  0  0  0  0
  193.9490  171.6500  135.3950 C   0  0  1  0  0  3  0  0  0  0  0  0
  187.6310  178.5980  138.4940 C   0  0  0  0  0  2  0  0  0  0  0  0
  187.3400  174.7510  136.4460 C   0  0  0  0  0  2  0  0  0  0  0  0
  189.3290  176.0250  136.2310 N   0  0  2  0  0  0  0  0  0  0  0  0
  188.7680  174.8390  136.7890 N   0  0  2  0  0  0  0  0  0  0  0  0
  190.9090  173.7460  136.1550 C   0  0  0  0  0  0  0  0  0  0  0  0
  195.3130  172.3780  135.4150 C   0  0  0  0  0  3  0  0  0  0  0  0
  188.8400  176.9790  141.1340 S   0  0  0  0  0  0  0  0  0  0  0  0
  188.5230  177.4240  138.1270 C   0  0  2  0  0  3  0  0  0  0  0  0
  195.0470  173.7760  135.7610 N   0  0  0  0  0  0  0  0  0  0  0  0
  190.0720  177.8790  140.1340 C   0  0  0  0  0  2  0  0  0  0  0  0
  186.8120  178.2530  139.7310 C   0  0  2  0  0  3  0  0  0  0  0  0
  188.9210  172.3890  136.8430 C   0  0  0  0  0  2  0  0  0  0  0  0
  189.4050  173.6670  136.1530 C   0  0  1  0  0  3  0  0  0  0  0  0
  191.6490  172.6440  135.8290 N   0  0  0  0  0  0  0  0  0  0  0  0
  190.7740  176.3850  138.2470 C   0  0  0  0  0  2  0  0  0  0  0  0
  193.6830  176.3650  136.4460 C   0  0  0  0  0  1  0  0  0  0  0  0
  193.9310  170.5800  136.4690 C   0  0  0  0  0  1  0  0  0  0  0  0
  191.5470  174.9930  136.3510 C   0  0  0  0  0  0  0  0  0  0  0  0
  192.9990  172.7350  135.7420 C   0  0  0  0  0  0  0  0  0  0  0  0
  185.6810  179.1640  139.8200 N   0  0  0  0  0  2  0  0  0  0  0  0
  184.4620  178.9510  139.1050 C   0  0  0  0  0  0  0  0  0  0  0  0
  184.3290  177.9590  138.3400 O   0  0  0  0  0  0  0  0  0  0  0  0
  183.3400  179.9120  139.2630 C   0  0  0  0  0  1  0  0  0  0  0  0
  1 16  1  0  0  0  0
  2 24  1  1  0  0  0
  4 21  1  0  0  0  0
  4  3  1  0  0  0  0
  5 27  1  0  0  0  0
  5 25  1  0  0  0  0
  6  5  2  0  0  0  0
  7 24  1  1  0  0  0
  7 19  1  0  0  0  0
  9 15  1  0  0  0  0
  9 28  1  0  0  0  0
  9 26  1  1  0  0  0
 10 20  1  0  0  0  0
 11  3  1  0  0  0  0
 12  8  1  1  0  0  0
 12  2  1  0  0  0  0
 12 13  1  0  0  0  0
 13 11  1  6  0  0  0
 14 27  2  0  0  0  0
 15 18  2  0  0  0  0
 17  8  1  6  0  0  0
 17 10  1  0  0  0  0
 17  7  1  0  0  0  0
 18  6  1  0  0  0  0
 19 16  1  0  0  0  0
 20 29  1  1  0  0  0
 20  1  1  0  0  0  0
 22 14  1  0  0  0  0
 22 13  1  0  0  0  0
 22 21  1  1  0  0  0
 23 14  1  0  0  0  0
 27  2  1  0  0  0  0
 28 23  2  0  0  0  0
 28  6  1  0  0  0  0
 30 32  1  0  0  0  0
 30 29  1  0  0  0  0
 31 30  2  0  0  0  0
M  END
>  <MODEL>
8

>  <REMARK>
 VINA RESULT:      -5.5      5.300      7.832
  Name = 
  1 active torsions:
  status: ('A' for Active; 'I' for Inactive)
    1  A    between atoms: C_20  and  N_29
                            x       y       z     vdW  Elec       q    Type
                         _______ _______ _______ _____ _____    ______ ____

>  <TORSDO>
F 1

$$$$
=
 OpenBabel11122410393D

 32 37  0  0  1  0  0  0  0  0999 V2000
  192.5400  173.7500  136.7980 C   0  0  0  0  0  2  0  0  0  0  0  0
  189.0410  177.9690  138.3440 C   0  0  1  0  0  3  0  0  0  0  0  0
  190.9950  176.1440  142.3430 C   0  0  0  0  0  2  0  0  0  0  0  0
  189.7560  176.4440  143.1840 C   0  0  0  0  0  2  0  0  0  0  0  0
  186.5900  178.6380  138.2880 C   0  0  0  0  0  0  0  0  0  0  0  0
  185.3980  178.8140  138.9890 C   0  0  0  0  0  0  0  0  0  0  0  0
  190.3300  176.3160  136.9860 C   0  0  1  0  0  3  0  0  0  0  0  0
  191.4300  177.8630  138.5960 C   0  0  0  0  0  2  0  0  0  0  0  0
  183.9750  178.8800  140.8500 C   0  0  1  0  0  3  0  0  0  0  0  0
  192.8300  176.1910  137.3640 C   0  0  0  0  0  2  0  0  0  0  0  0
  191.1470  177.2120  141.2630 C   0  0  0  0  0  2  0  0  0  0  0  0
  190.1570  178.1160  139.3070 N   0  0  2  0  0  0  0  0  0  0  0  0
  189.9680  177.2010  140.3830 N   0  0  2  0  0  0  0  0  0  0  0  0
  187.6140  178.0000  140.4100 C   0  0  0  0  0  0  0  0  0  0  0  0
  183.2080  179.3070  139.5780 C   0  0  0  0  0  3  0  0  0  0  0  0
  190.7950  173.5630  137.2930 S   0  0  0  0  0  0  0  0  0  0  0  0
  191.4730  176.4600  137.9920 C   0  0  2  0  0  3  0  0  0  0  0  0
  184.1570  179.2390  138.4630 N   0  0  0  0  0  0  0  0  0  0  0  0
  190.2900  174.9730  136.2520 C   0  0  0  0  0  2  0  0  0  0  0  0
  193.2670  174.7660  137.6770 C   0  0  2  0  0  3  0  0  0  0  0  0
  188.5330  176.6270  142.2910 C   0  0  0  0  0  2  0  0  0  0  0  0
  188.8430  177.6730  141.2180 C   0  0  1  0  0  3  0  0  0  0  0  0
  186.4220  178.2150  141.0430 N   0  0  0  0  0  0  0  0  0  0  0  0
  189.0110  176.5770  137.6930 C   0  0  0  0  0  2  0  0  0  0  0  0
  186.6460  178.8890  136.8170 C   0  0  0  0  0  1  0  0  0  0  0  0
  183.3590  177.6120  141.4090 C   0  0  0  0  0  1  0  0  0  0  0  0
  187.7270  178.2270  139.0190 C   0  0  0  0  0  0  0  0  0  0  0  0
  185.3340  178.5980  140.3290 C   0  0  0  0  0  0  0  0  0  0  0  0
  194.7020  174.6530  137.4640 N   0  0  0  0  0  2  0  0  0  0  0  0
  195.5220  173.7470  138.2050 C   0  0  0  0  0  0  0  0  0  0  0  0
  195.0250  173.0160  139.1010 O   0  0  0  0  0  0  0  0  0  0  0  0
  196.9770  173.6700  137.9170 C   0  0  0  0  0  1  0  0  0  0  0  0
  1 16  1  0  0  0  0
  1 20  1  0  0  0  0
  2 24  1  1  0  0  0
  2 27  1  0  0  0  0
  2 12  1  0  0  0  0
  3  4  1  0  0  0  0
  5  6  2  0  0  0  0
  5 27  1  0  0  0  0
  6 28  1  0  0  0  0
  7 19  1  1  0  0  0
  7 24  1  0  0  0  0
  7 17  1  0  0  0  0
  9 26  1  6  0  0  0
 10 20  1  0  0  0  0
 11  3  1  0  0  0  0
 12  8  1  6  0  0  0
 12 13  1  0  0  0  0
 13 22  1  0  0  0  0
 13 11  1  1  0  0  0
 14 23  1  0  0  0  0
 14 22  1  0  0  0  0
 15  9  1  0  0  0  0
 17 10  1  6  0  0  0
 17  8  1  0  0  0  0
 18  6  1  0  0  0  0
 18 15  2  0  0  0  0
 19 16  1  0  0  0  0
 20 29  1  6  0  0  0
 21  4  1  0  0  0  0
 22 21  1  1  0  0  0
 25  5  1  0  0  0  0
 27 14  2  0  0  0  0
 28  9  1  0  0  0  0
 28 23  2  0  0  0  0
 29 30  1  0  0  0  0
 30 31  2  0  0  0  0
 32 30  1  0  0  0  0
M  END
>  <MODEL>
9

>  <REMARK>
 VINA RESULT:      -5.1      4.776      9.096
  Name = 
  1 active torsions:
  status: ('A' for Active; 'I' for Inactive)
    1  A    between atoms: C_20  and  N_29
                            x       y       z     vdW  Elec       q    Type
                         _______ _______ _______ _____ _____    ______ ____

>  <TORSDO>
F 1

$$$$
