=
 OpenBabel11122412003D

 28 32  0  0  1  0  0  0  0  0999 V2000
  189.4610  178.0010  138.1150 C   0  0  0  0  0  0  0  0  0  0  0  0
  192.9180  176.2170  134.8890 O   0  0  0  0  0  0  0  0  0  0  0  0
  187.2140  173.4040  137.2480 C   0  0  0  0  0  1  0  0  0  0  0  0
  189.9350  176.7680  140.5870 C   0  0  0  0  0  3  0  0  0  0  0  0
  189.3260  173.1730  136.0570 N   0  0  0  0  0  0  0  0  0  0  0  0
  189.1210  178.6360  136.7990 C   0  0  0  0  0  2  0  0  0  0  0  0
  193.9770  177.0170  136.9520 O   0  0  0  0  0  0  0  0  0  0  0  0
  193.3350  175.8340  136.2820 S   0  0  0  0  0  0  0  0  0  0  0  0
  193.9510  173.3950  136.9240 C   0  0  2  0  0  3  0  0  0  0  0  0
  191.9520  175.3220  137.2140 N   0  0  2  0  0  0  0  0  0  0  0  0
  185.5140  177.2860  136.4180 C   0  0  0  0  0  1  0  0  0  0  0  0
  189.8800  175.5230  135.9470 C   0  0  1  0  0  3  0  0  0  0  0  0
  192.5880  173.0030  136.3680 C   0  0  0  0  0  2  0  0  0  0  0  0
  194.4810  174.5370  136.1900 N   0  0  0  0  0  2  0  0  0  0  0  0
  187.0080  177.2030  136.6470 C   0  0  1  0  0  3  0  0  0  0  0  0
  190.2370  176.8230  138.1720 C   0  0  0  0  0  0  0  0  0  0  0  0
  188.0910  173.9450  136.1370 C   0  0  2  0  0  3  0  0  0  0  0  0
  194.9040  172.2270  136.7840 C   0  0  0  0  0  1  0  0  0  0  0  0
  187.5940  176.2800  135.6860 N   0  0  0  0  0  2  0  0  0  0  0  0
  190.4540  176.2100  139.4170 C   0  0  0  0  0  3  0  0  0  0  0  0
  188.9530  178.5600  139.2950 C   0  0  0  0  0  3  0  0  0  0  0  0
  189.1920  177.9470  140.5270 C   0  0  0  0  0  3  0  0  0  0  0  0
  187.6180  178.5970  136.5060 C   0  0  0  0  0  2  0  0  0  0  0  0
  190.4030  174.1200  135.7810 C   0  0  1  0  0  3  0  0  0  0  0  0
  188.4570  175.3800  136.4340 C   0  0  2  0  0  3  0  0  0  0  0  0
  191.4930  173.9790  136.8230 C   0  0  2  0  0  3  0  0  0  0  0  0
  189.2130  172.3120  134.8920 C   0  0  0  0  0  1  0  0  0  0  0  0
  190.8440  176.2300  136.9140 C   0  0  1  0  0  3  0  0  0  0  0  0
  1 16  2  0  0  0  0
  1 21  1  0  0  0  0
  2  8  2  0  0  0  0
  5 17  1  0  0  0  0
  6  1  1  0  0  0  0
  8  7  2  0  0  0  0
  9 18  1  6  0  0  0
 10  8  1  6  0  0  0
 11 15  1  0  0  0  0
 12 25  1  0  0  0  0
 12 28  1  0  0  0  0
 13 26  1  0  0  0  0
 13  9  1  0  0  0  0
 14  8  1  0  0  0  0
 14  9  1  0  0  0  0
 16 20  1  0  0  0  0
 17 25  1  0  0  0  0
 17  3  1  0  0  0  0
 19 25  1  0  0  0  0
 19 15  1  0  0  0  0
 20  4  2  0  0  0  0
 21 22  2  0  0  0  0
 22  4  1  0  0  0  0
 23 15  1  0  0  0  0
 23  6  1  0  0  0  0
 24 12  1  0  0  0  0
 24  5  1  0  0  0  0
 24 26  1  0  0  0  0
 26 10  1  0  0  0  0
 27  5  1  0  0  0  0
 28 10  1  0  0  0  0
 28 16  1  0  0  0  0
M  END
>  <MODEL>
1

>  <REMARK>
 VINA RESULT:      -6.5      0.000      0.000
  Name = 
  0 active torsions:
  status: ('A' for Active; 'I' for Inactive)
                            x       y       z     vdW  Elec       q    Type
                         _______ _______ _______ _____ _____    ______ ____

>  <TORSDO>
F 0

$$$$
=
 OpenBabel11122412003D

 28 32  0  0  1  0  0  0  0  0999 V2000
  183.1090  177.5020  136.5500 C   0  0  0  0  0  0  0  0  0  0  0  0
  187.9220  177.9650  135.0790 O   0  0  0  0  0  0  0  0  0  0  0  0
  184.5660  172.6320  137.5940 C   0  0  0  0  0  1  0  0  0  0  0  0
  183.0970  177.5940  139.3520 C   0  0  0  0  0  3  0  0  0  0  0  0
  186.6780  173.6760  136.9760 N   0  0  0  0  0  0  0  0  0  0  0  0
  183.0670  177.3770  135.0560 C   0  0  0  0  0  2  0  0  0  0  0  0
  187.3180  179.7340  136.6670 O   0  0  0  0  0  0  0  0  0  0  0  0
  187.8390  178.3300  136.5360 S   0  0  0  0  0  0  0  0  0  0  0  0
  189.4020  177.2770  138.3210 C   0  0  2  0  0  3  0  0  0  0  0  0
  186.7740  177.2370  137.3800 N   0  0  2  0  0  0  0  0  0  0  0  0
  181.4950  173.8490  134.8130 C   0  0  0  0  0  1  0  0  0  0  0  0
  185.7540  175.6170  135.8710 C   0  0  1  0  0  3  0  0  0  0  0  0
  188.9160  175.9250  137.8140 C   0  0  0  0  0  2  0  0  0  0  0  0
  189.4250  178.2410  137.2290 N   0  0  0  0  0  2  0  0  0  0  0  0
  182.4860  174.8960  135.2730 C   0  0  1  0  0  3  0  0  0  0  0  0
  184.3050  177.2690  137.2630 C   0  0  0  0  0  0  0  0  0  0  0  0
  185.3380  173.3470  136.5030 C   0  0  2  0  0  3  0  0  0  0  0  0
  190.7990  177.1270  138.8830 C   0  0  0  0  0  1  0  0  0  0  0  0
  183.8360  174.4590  134.9510 N   0  0  0  0  0  2  0  0  0  0  0  0
  184.2790  177.3050  138.6680 C   0  0  0  0  0  3  0  0  0  0  0  0
  181.9290  177.8010  137.2450 C   0  0  0  0  0  3  0  0  0  0  0  0
  181.9240  177.8500  138.6410 C   0  0  0  0  0  3  0  0  0  0  0  0
  182.1670  176.2280  134.5940 C   0  0  0  0  0  2  0  0  0  0  0  0
  187.0000  175.0020  136.4570 C   0  0  1  0  0  3  0  0  0  0  0  0
  184.6380  174.6380  136.1510 C   0  0  2  0  0  3  0  0  0  0  0  0
  187.3960  175.9190  137.5940 C   0  0  2  0  0  3  0  0  0  0  0  0
  187.5930  172.7420  136.3430 C   0  0  0  0  0  1  0  0  0  0  0  0
  185.6060  176.9980  136.5310 C   0  0  1  0  0  3  0  0  0  0  0  0
  1 21  2  0  0  0  0
  1 16  1  0  0  0  0
  2  8  2  0  0  0  0
  6  1  1  0  0  0  0
  8  7  2  0  0  0  0
  8 14  1  0  0  0  0
  9 18  1  6  0  0  0
 10  8  1  6  0  0  0
 10 26  1  0  0  0  0
 11 15  1  0  0  0  0
 12 25  1  0  0  0  0
 12 24  1  0  0  0  0
 12 28  1  0  0  0  0
 13  9  1  0  0  0  0
 14  9  1  0  0  0  0
 16 20  2  0  0  0  0
 17  5  1  0  0  0  0
 17  3  1  0  0  0  0
 19 15  1  0  0  0  0
 19 25  1  0  0  0  0
 20  4  1  0  0  0  0
 21 22  1  0  0  0  0
 22  4  2  0  0  0  0
 23  6  1  0  0  0  0
 23 15  1  0  0  0  0
 24  5  1  0  0  0  0
 24 26  1  0  0  0  0
 25 17  1  0  0  0  0
 26 13  1  0  0  0  0
 27  5  1  0  0  0  0
 28 16  1  0  0  0  0
 28 10  1  0  0  0  0
M  END
>  <MODEL>
2

>  <REMARK>
 VINA RESULT:      -5.2      3.478      5.518
  Name = 
  0 active torsions:
  status: ('A' for Active; 'I' for Inactive)
                            x       y       z     vdW  Elec       q    Type
                         _______ _______ _______ _____ _____    ______ ____

>  <TORSDO>
F 0

$$$$
=
 OpenBabel11122412003D

 28 32  0  0  1  0  0  0  0  0999 V2000
  185.3720  174.5820  136.7290 C   0  0  0  0  0  0  0  0  0  0  0  0
  183.1520  177.2580  140.3960 O   0  0  0  0  0  0  0  0  0  0  0  0
  180.6180  174.6910  134.6500 C   0  0  0  0  0  1  0  0  0  0  0  0
  185.8280  176.3400  134.5940 C   0  0  0  0  0  3  0  0  0  0  0  0
  180.3660  176.1550  136.5800 N   0  0  0  0  0  0  0  0  0  0  0  0
  185.0880  173.5850  137.8130 C   0  0  0  0  0  2  0  0  0  0  0  0
  185.1770  178.3850  139.5940 O   0  0  0  0  0  0  0  0  0  0  0  0
  183.6990  178.2200  139.3780 S   0  0  0  0  0  0  0  0  0  0  0  0
  182.2500  180.1030  138.3300 C   0  0  2  0  0  3  0  0  0  0  0  0
  183.4130  177.6290  137.7620 N   0  0  2  0  0  0  0  0  0  0  0  0
  182.8320  171.1670  135.8010 C   0  0  0  0  0  1  0  0  0  0  0  0
  182.3410  175.4400  137.7740 C   0  0  1  0  0  3  0  0  0  0  0  0
  181.2730  179.0030  137.9360 C   0  0  0  0  0  2  0  0  0  0  0  0
  182.9170  179.7550  139.5780 N   0  0  0  0  0  2  0  0  0  0  0  0
  183.2890  172.5000  136.3530 C   0  0  1  0  0  3  0  0  0  0  0  0
  184.6660  175.8020  136.6640 C   0  0  0  0  0  0  0  0  0  0  0  0
  180.6960  174.7980  136.1600 C   0  0  2  0  0  3  0  0  0  0  0  0
  181.4950  181.4010  138.5140 C   0  0  0  0  0  1  0  0  0  0  0  0
  182.1950  173.1230  137.0820 N   0  0  0  0  0  2  0  0  0  0  0  0
  184.8960  176.6670  135.5800 C   0  0  0  0  0  3  0  0  0  0  0  0
  186.3130  174.2670  135.7390 C   0  0  0  0  0  3  0  0  0  0  0  0
  186.5420  175.1440  134.6770 C   0  0  0  0  0  3  0  0  0  0  0  0
  184.4970  172.2830  137.2640 C   0  0  0  0  0  2  0  0  0  0  0  0
  181.2680  176.4930  137.6770 C   0  0  1  0  0  3  0  0  0  0  0  0
  182.1040  174.4980  136.6170 C   0  0  2  0  0  3  0  0  0  0  0  0
  182.0030  177.7790  137.3640 C   0  0  2  0  0  3  0  0  0  0  0  0
  179.0240  176.1140  137.1350 C   0  0  0  0  0  1  0  0  0  0  0  0
  183.6830  176.1910  137.7530 C   0  0  1  0  0  3  0  0  0  0  0  0
  1  6  1  0  0  0  0
  3 17  1  0  0  0  0
  4 22  2  0  0  0  0
  4 20  1  0  0  0  0
  5 27  1  0  0  0  0
  5 24  1  0  0  0  0
  8 14  1  0  0  0  0
  8  7  2  0  0  0  0
  8  2  2  0  0  0  0
  9 18  1  1  0  0  0
  9 14  1  0  0  0  0
 10  8  1  1  0  0  0
 11 15  1  0  0  0  0
 13  9  1  0  0  0  0
 15 19  1  0  0  0  0
 15 23  1  0  0  0  0
 16  1  1  0  0  0  0
 16 28  1  0  0  0  0
 17  5  1  0  0  0  0
 17 25  1  0  0  0  0
 20 16  2  0  0  0  0
 21  1  2  0  0  0  0
 22 21  1  0  0  0  0
 23  6  1  0  0  0  0
 24 12  1  0  0  0  0
 25 19  1  0  0  0  0
 25 12  1  0  0  0  0
 26 24  1  0  0  0  0
 26 10  1  0  0  0  0
 26 13  1  0  0  0  0
 28 10  1  0  0  0  0
 28 12  1  0  0  0  0
M  END
>  <MODEL>
3

>  <REMARK>
 VINA RESULT:      -4.6      6.279      9.115
  Name = 
  0 active torsions:
  status: ('A' for Active; 'I' for Inactive)
                            x       y       z     vdW  Elec       q    Type
                         _______ _______ _______ _____ _____    ______ ____

>  <TORSDO>
F 0

$$$$
=
 OpenBabel11122412003D

 28 32  0  0  1  0  0  0  0  0999 V2000
  182.2850  178.2190  137.5330 C   0  0  0  0  0  0  0  0  0  0  0  0
  186.6590  178.0170  135.0100 O   0  0  0  0  0  0  0  0  0  0  0  0
  182.3880  173.0760  136.8460 C   0  0  0  0  0  1  0  0  0  0  0  0
  182.8170  177.4000  140.1610 C   0  0  0  0  0  3  0  0  0  0  0  0
  184.5630  173.7510  135.9840 N   0  0  0  0  0  0  0  0  0  0  0  0
  181.9330  178.5970  136.1250 C   0  0  0  0  0  2  0  0  0  0  0  0
  186.9140  179.2670  137.1050 O   0  0  0  0  0  0  0  0  0  0  0  0
  186.9590  177.9010  136.4790 S   0  0  0  0  0  0  0  0  0  0  0  0
  188.4370  175.9980  137.4470 C   0  0  2  0  0  3  0  0  0  0  0  0
  185.7900  176.8680  137.2610 N   0  0  2  0  0  0  0  0  0  0  0  0
  179.3630  175.7970  135.3970 C   0  0  0  0  0  1  0  0  0  0  0  0
  184.0740  176.1020  135.7090 C   0  0  1  0  0  3  0  0  0  0  0  0
  187.4850  175.0330  136.7530 C   0  0  0  0  0  2  0  0  0  0  0  0
  188.5450  177.2320  136.6780 N   0  0  0  0  0  2  0  0  0  0  0  0
  180.6890  176.3820  135.8340 C   0  0  1  0  0  3  0  0  0  0  0  0
  183.4660  177.5010  137.8160 C   0  0  0  0  0  0  0  0  0  0  0  0
  183.1230  173.9090  135.8140 C   0  0  2  0  0  3  0  0  0  0  0  0
  189.8040  175.3590  137.5580 C   0  0  0  0  0  1  0  0  0  0  0  0
  181.7630  175.7760  135.0620 N   0  0  0  0  0  2  0  0  0  0  0  0
  183.7110  177.0850  139.1360 C   0  0  0  0  0  3  0  0  0  0  0  0
  181.3970  178.5400  138.5690 C   0  0  0  0  0  3  0  0  0  0  0  0
  181.6640  178.1340  139.8780 C   0  0  0  0  0  3  0  0  0  0  0  0
  180.6620  177.8970  135.6360 C   0  0  0  0  0  2  0  0  0  0  0  0
  185.1650  175.0630  135.7610 C   0  0  1  0  0  3  0  0  0  0  0  0
  182.7880  175.3690  136.0100 C   0  0  2  0  0  3  0  0  0  0  0  0
  186.0190  175.4460  136.9510 C   0  0  2  0  0  3  0  0  0  0  0  0
  185.0250  172.8890  134.9090 C   0  0  0  0  0  1  0  0  0  0  0  0
  184.4690  177.1900  136.7210 C   0  0  1  0  0  3  0  0  0  0  0  0
  1 16  2  0  0  0  0
  1 21  1  0  0  0  0
  2  8  2  0  0  0  0
  6  1  1  0  0  0  0
  8 14  1  0  0  0  0
  8  7  2  0  0  0  0
  9 18  1  6  0  0  0
 10  8  1  6  0  0  0
 11 15  1  0  0  0  0
 12 24  1  0  0  0  0
 12 25  1  0  0  0  0
 12 28  1  0  0  0  0
 13 26  1  0  0  0  0
 13  9  1  0  0  0  0
 14  9  1  0  0  0  0
 16 20  1  0  0  0  0
 17  5  1  0  0  0  0
 17 25  1  0  0  0  0
 17  3  1  0  0  0  0
 19 15  1  0  0  0  0
 19 25  1  0  0  0  0
 20  4  2  0  0  0  0
 21 22  2  0  0  0  0
 22  4  1  0  0  0  0
 23 15  1  0  0  0  0
 23  6  1  0  0  0  0
 24  5  1  0  0  0  0
 24 26  1  0  0  0  0
 26 10  1  0  0  0  0
 27  5  1  0  0  0  0
 28 10  1  0  0  0  0
 28 16  1  0  0  0  0
M  END
>  <MODEL>
4

>  <REMARK>
 VINA RESULT:      -4.6      4.163      6.315
  Name = 
  0 active torsions:
  status: ('A' for Active; 'I' for Inactive)
                            x       y       z     vdW  Elec       q    Type
                         _______ _______ _______ _____ _____    ______ ____

>  <TORSDO>
F 0

$$$$
=
 OpenBabel11122412003D

 28 32  0  0  1  0  0  0  0  0999 V2000
  186.2790  174.8840  135.6160 C   0  0  0  0  0  0  0  0  0  0  0  0
  181.5740  176.7160  135.8190 O   0  0  0  0  0  0  0  0  0  0  0  0
  186.9400  177.8780  139.8030 C   0  0  0  0  0  1  0  0  0  0  0  0
  186.4730  172.9030  137.5890 C   0  0  0  0  0  3  0  0  0  0  0  0
  184.5470  178.0820  139.4010 N   0  0  0  0  0  0  0  0  0  0  0  0
  186.2510  175.9820  134.5940 C   0  0  0  0  0  2  0  0  0  0  0  0
  181.5550  174.2660  135.7010 O   0  0  0  0  0  0  0  0  0  0  0  0
  181.6200  175.4480  136.6270 S   0  0  0  0  0  0  0  0  0  0  0  0
  180.7400  175.3260  139.0670 C   0  0  2  0  0  3  0  0  0  0  0  0
  183.0910  175.3720  137.5610 N   0  0  2  0  0  0  0  0  0  0  0  0
  189.0590  178.2090  136.0540 C   0  0  0  0  0  1  0  0  0  0  0  0
  184.5440  177.2790  137.1220 C   0  0  1  0  0  3  0  0  0  0  0  0
  181.6780  176.4900  139.3640 C   0  0  0  0  0  2  0  0  0  0  0  0
  180.2550  175.4130  137.6950 N   0  0  0  0  0  2  0  0  0  0  0  0
  187.7750  177.4080  136.0720 C   0  0  1  0  0  3  0  0  0  0  0  0
  185.3320  174.8430  136.6600 C   0  0  0  0  0  0  0  0  0  0  0  0
  185.8670  178.3140  138.8250 C   0  0  2  0  0  3  0  0  0  0  0  0
  179.5630  175.3780  140.0160 C   0  0  0  0  0  1  0  0  0  0  0  0
  186.6850  178.2500  136.5390 N   0  0  0  0  0  2  0  0  0  0  0  0
  185.4500  173.8520  137.6490 C   0  0  0  0  0  3  0  0  0  0  0  0
  187.2970  173.9220  135.5580 C   0  0  0  0  0  3  0  0  0  0  0  0
  187.3910  172.9340  136.5390 C   0  0  0  0  0  3  0  0  0  0  0  0
  187.4920  176.8770  134.6670 C   0  0  0  0  0  2  0  0  0  0  0  0
  183.6900  177.5990  138.3220 C   0  0  1  0  0  3  0  0  0  0  0  0
  185.9730  177.4970  137.5590 C   0  0  2  0  0  3  0  0  0  0  0  0
  183.0550  176.2830  138.7180 C   0  0  2  0  0  3  0  0  0  0  0  0
  184.0260  179.3780  139.8040 C   0  0  0  0  0  1  0  0  0  0  0  0
  184.1890  175.8390  136.7130 C   0  0  1  0  0  3  0  0  0  0  0  0
  1 16  1  0  0  0  0
  2  8  2  0  0  0  0
  4 20  1  0  0  0  0
  5 27  1  0  0  0  0
  6 23  1  0  0  0  0
  6  1  1  0  0  0  0
  7  8  2  0  0  0  0
  8 14  1  0  0  0  0
  9 13  1  0  0  0  0
  9 18  1  1  0  0  0
 10  8  1  6  0  0  0
 10 26  1  0  0  0  0
 11 15  1  0  0  0  0
 12 25  1  0  0  0  0
 12 24  1  0  0  0  0
 14  9  1  0  0  0  0
 15 19  1  0  0  0  0
 16 28  1  0  0  0  0
 16 20  2  0  0  0  0
 17  5  1  0  0  0  0
 17  3  1  0  0  0  0
 19 25  1  0  0  0  0
 21  1  2  0  0  0  0
 21 22  1  0  0  0  0
 22  4  2  0  0  0  0
 23 15  1  0  0  0  0
 24 26  1  0  0  0  0
 24  5  1  0  0  0  0
 25 17  1  0  0  0  0
 26 13  1  0  0  0  0
 28 12  1  0  0  0  0
 28 10  1  0  0  0  0
M  END
>  <MODEL>
5

>  <REMARK>
 VINA RESULT:      -4.4      5.376      8.448
  Name = 
  0 active torsions:
  status: ('A' for Active; 'I' for Inactive)
                            x       y       z     vdW  Elec       q    Type
                         _______ _______ _______ _____ _____    ______ ____

>  <TORSDO>
F 0

$$$$
=
 OpenBabel11122412003D

 28 32  0  0  1  0  0  0  0  0999 V2000
  180.2790  179.2350  139.6880 C   0  0  0  0  0  0  0  0  0  0  0  0
  183.8060  175.9110  138.2540 O   0  0  0  0  0  0  0  0  0  0  0  0
  183.6670  180.2160  143.4950 C   0  0  0  0  0  1  0  0  0  0  0  0
  181.1700  181.7700  138.8890 C   0  0  0  0  0  3  0  0  0  0  0  0
  184.9170  178.6760  142.0820 N   0  0  0  0  0  0  0  0  0  0  0  0
  179.7890  177.9120  140.1990 C   0  0  0  0  0  2  0  0  0  0  0  0
  183.1660  177.3690  136.3880 O   0  0  0  0  0  0  0  0  0  0  0  0
  184.0860  177.2190  137.5670 S   0  0  0  0  0  0  0  0  0  0  0  0
  186.4250  178.3460  137.6310 C   0  0  2  0  0  3  0  0  0  0  0  0
  183.8390  178.5520  138.6650 N   0  0  2  0  0  0  0  0  0  0  0  0
  179.6250  178.7690  143.9690 C   0  0  0  0  0  1  0  0  0  0  0  0
  183.0390  177.7970  140.8410 C   0  0  1  0  0  3  0  0  0  0  0  0
  186.3240  178.2530  139.1480 C   0  0  0  0  0  2  0  0  0  0  0  0
  185.7290  177.2230  137.0140 N   0  0  0  0  0  2  0  0  0  0  0  0
  180.2600  178.6570  142.6000 C   0  0  1  0  0  3  0  0  0  0  0  0
  181.6410  179.4320  139.3770 C   0  0  0  0  0  0  0  0  0  0  0  0
  183.7140  178.8250  142.8930 C   0  0  2  0  0  3  0  0  0  0  0  0
  187.8820  178.3150  137.2230 C   0  0  0  0  0  1  0  0  0  0  0  0
  181.4850  177.8780  142.6970 N   0  0  0  0  0  2  0  0  0  0  0  0
  182.0740  180.7110  138.9910 C   0  0  0  0  0  3  0  0  0  0  0  0
  179.3760  180.3000  139.5730 C   0  0  0  0  0  3  0  0  0  0  0  0
  179.8190  181.5620  139.1720 C   0  0  0  0  0  3  0  0  0  0  0  0
  179.2710  178.0000  141.6370 C   0  0  0  0  0  2  0  0  0  0  0  0
  184.5410  177.9070  140.8990 C   0  0  1  0  0  3  0  0  0  0  0  0
  182.5180  178.6230  141.9930 C   0  0  2  0  0  3  0  0  0  0  0  0
  184.9320  178.6640  139.6470 C   0  0  2  0  0  3  0  0  0  0  0  0
  185.8420  177.8530  142.8430 C   0  0  0  0  0  1  0  0  0  0  0  0
  182.6280  178.2800  139.4400 C   0  0  1  0  0  3  0  0  0  0  0  0
  1  6  1  0  0  0  0
  4 20  2  0  0  0  0
  4 22  1  0  0  0  0
  5 27  1  0  0  0  0
  5 17  1  0  0  0  0
  6 23  1  0  0  0  0
  7  8  2  0  0  0  0
  8  2  2  0  0  0  0
  9 18  1  1  0  0  0
  9 13  1  0  0  0  0
 10  8  1  6  0  0  0
 10 28  1  0  0  0  0
 10 26  1  0  0  0  0
 12 24  1  0  0  0  0
 12 25  1  0  0  0  0
 13 26  1  0  0  0  0
 14  8  1  0  0  0  0
 14  9  1  0  0  0  0
 15 19  1  0  0  0  0
 15 11  1  0  0  0  0
 16 28  1  0  0  0  0
 16  1  2  0  0  0  0
 17  3  1  0  0  0  0
 20 16  1  0  0  0  0
 21  1  1  0  0  0  0
 22 21  2  0  0  0  0
 23 15  1  0  0  0  0
 24  5  1  0  0  0  0
 25 19  1  0  0  0  0
 25 17  1  0  0  0  0
 26 24  1  0  0  0  0
 28 12  1  0  0  0  0
M  END
>  <MODEL>
6

>  <REMARK>
 VINA RESULT:      -4.3      6.611      9.426
  Name = 
  0 active torsions:
  status: ('A' for Active; 'I' for Inactive)
                            x       y       z     vdW  Elec       q    Type
                         _______ _______ _______ _____ _____    ______ ____

>  <TORSDO>
F 0

$$$$
=
 OpenBabel11122412003D

 28 32  0  0  1  0  0  0  0  0999 V2000
  185.4940  176.4050  136.0960 C   0  0  0  0  0  0  0  0  0  0  0  0
  182.0130  179.6610  137.7750 O   0  0  0  0  0  0  0  0  0  0  0  0
  187.6940  177.3780  140.6950 C   0  0  0  0  0  1  0  0  0  0  0  0
  185.0130  173.9590  137.3790 C   0  0  0  0  0  3  0  0  0  0  0  0
  185.5780  178.5690  140.8780 N   0  0  0  0  0  0  0  0  0  0  0  0
  185.8380  177.7070  135.4360 C   0  0  0  0  0  2  0  0  0  0  0  0
  180.9670  177.5780  137.0110 O   0  0  0  0  0  0  0  0  0  0  0  0
  181.5950  178.2760  138.1840 S   0  0  0  0  0  0  0  0  0  0  0  0
  180.9570  177.6860  140.6310 C   0  0  2  0  0  3  0  0  0  0  0  0
  182.9760  177.3580  138.7300 N   0  0  2  0  0  0  0  0  0  0  0  0
  189.4310  178.1260  136.8120 C   0  0  0  0  0  1  0  0  0  0  0  0
  185.0470  178.6260  138.5210 C   0  0  1  0  0  3  0  0  0  0  0  0
  182.3150  178.2540  141.0240 C   0  0  0  0  0  2  0  0  0  0  0  0
  180.4360  178.3940  139.4680 N   0  0  0  0  0  2  0  0  0  0  0  0
  187.9360  177.8960  136.8860 C   0  0  1  0  0  3  0  0  0  0  0  0
  184.7070  176.3720  137.2680 C   0  0  0  0  0  0  0  0  0  0  0  0
  186.8200  178.4750  140.1200 C   0  0  2  0  0  3  0  0  0  0  0  0
  179.9930  177.8500  141.7860 C   0  0  0  0  0  1  0  0  0  0  0  0
  187.3390  178.8750  137.7810 N   0  0  0  0  0  2  0  0  0  0  0  0
  184.4870  175.1400  137.9060 C   0  0  0  0  0  3  0  0  0  0  0  0
  186.0100  175.2140  135.5680 C   0  0  0  0  0  3  0  0  0  0  0  0
  185.7680  173.9950  136.2060 C   0  0  0  0  0  3  0  0  0  0  0  0
  187.3390  178.0040  135.4820 C   0  0  0  0  0  2  0  0  0  0  0  0
  184.5090  178.8210  139.9160 C   0  0  1  0  0  3  0  0  0  0  0  0
  186.4690  178.1450  138.6890 C   0  0  2  0  0  3  0  0  0  0  0  0
  183.4210  177.7800  140.0690 C   0  0  2  0  0  3  0  0  0  0  0  0
  185.6800  179.7530  141.7150 C   0  0  0  0  0  1  0  0  0  0  0  0
  184.0910  177.6410  137.8270 C   0  0  1  0  0  3  0  0  0  0  0  0
  1 16  1  0  0  0  0
  2  8  2  0  0  0  0
  4 20  1  0  0  0  0
  5 27  1  0  0  0  0
  6 23  1  0  0  0  0
  6  1  1  0  0  0  0
  7  8  2  0  0  0  0
  8 14  1  0  0  0  0
  9 13  1  0  0  0  0
  9 18  1  1  0  0  0
 10  8  1  6  0  0  0
 10 26  1  0  0  0  0
 11 15  1  0  0  0  0
 12 25  1  0  0  0  0
 12 24  1  0  0  0  0
 14  9  1  0  0  0  0
 15 19  1  0  0  0  0
 16 28  1  0  0  0  0
 16 20  2  0  0  0  0
 17  3  1  0  0  0  0
 17  5  1  0  0  0  0
 19 25  1  0  0  0  0
 21  1  2  0  0  0  0
 21 22  1  0  0  0  0
 22  4  2  0  0  0  0
 23 15  1  0  0  0  0
 24 26  1  0  0  0  0
 24  5  1  0  0  0  0
 25 17  1  0  0  0  0
 26 13  1  0  0  0  0
 28 12  1  0  0  0  0
 28 10  1  0  0  0  0
M  END
>  <MODEL>
7

>  <REMARK>
 VINA RESULT:      -4.3      5.530      8.814
  Name = 
  0 active torsions:
  status: ('A' for Active; 'I' for Inactive)
                            x       y       z     vdW  Elec       q    Type
                         _______ _______ _______ _____ _____    ______ ____

>  <TORSDO>
F 0

$$$$
=
 OpenBabel11122412003D

 28 32  0  0  1  0  0  0  0  0999 V2000
  186.7540  175.7960  136.6620 C   0  0  0  0  0  0  0  0  0  0  0  0
  183.8360  177.3230  140.4940 O   0  0  0  0  0  0  0  0  0  0  0  0
  182.2290  174.1780  134.7020 C   0  0  0  0  0  1  0  0  0  0  0  0
  186.4370  177.6640  134.5960 C   0  0  0  0  0  3  0  0  0  0  0  0
  181.5220  175.3780  136.7000 N   0  0  0  0  0  0  0  0  0  0  0  0
  186.9060  174.7310  137.7070 C   0  0  0  0  0  2  0  0  0  0  0  0
  185.2600  179.1530  139.6950 O   0  0  0  0  0  0  0  0  0  0  0  0
  183.9440  178.4530  139.5070 S   0  0  0  0  0  0  0  0  0  0  0  0
  181.8560  179.6860  138.5770 C   0  0  2  0  0  3  0  0  0  0  0  0
  183.8380  177.8490  137.8740 N   0  0  2  0  0  0  0  0  0  0  0  0
  185.6440  171.7080  135.6450 C   0  0  0  0  0  1  0  0  0  0  0  0
  183.6650  175.4180  137.8150 C   0  0  1  0  0  3  0  0  0  0  0  0
  181.3480  178.3120  138.1580 C   0  0  0  0  0  2  0  0  0  0  0  0
  182.6530  179.5740  139.7930 N   0  0  0  0  0  2  0  0  0  0  0  0
  185.5900  173.0980  136.2440 C   0  0  1  0  0  3  0  0  0  0  0  0
  185.6410  176.6630  136.6680 C   0  0  0  0  0  0  0  0  0  0  0  0
  182.3190  174.2580  136.2130 C   0  0  2  0  0  3  0  0  0  0  0  0
  180.6780  180.5980  138.8360 C   0  0  0  0  0  1  0  0  0  0  0  0
  184.3700  173.2400  137.0250 N   0  0  0  0  0  2  0  0  0  0  0  0
  185.4890  177.5850  135.6180 C   0  0  0  0  0  3  0  0  0  0  0  0
  187.7060  175.8890  135.6370 C   0  0  0  0  0  3  0  0  0  0  0  0
  187.5490  176.8220  134.6100 C   0  0  0  0  0  3  0  0  0  0  0  0
  186.8250  173.3200  137.1160 C   0  0  0  0  0  2  0  0  0  0  0  0
  182.2730  175.9940  137.7900 C   0  0  1  0  0  3  0  0  0  0  0  0
  183.7530  174.4940  136.6230 C   0  0  2  0  0  3  0  0  0  0  0  0
  182.4600  177.4710  137.5160 C   0  0  2  0  0  3  0  0  0  0  0  0
  180.3150  174.8170  137.2840 C   0  0  0  0  0  1  0  0  0  0  0  0
  184.6270  176.6190  137.7960 C   0  0  1  0  0  3  0  0  0  0  0  0
  1 16  1  0  0  0  0
  1  6  1  0  0  0  0
  3 17  1  0  0  0  0
  4 22  2  0  0  0  0
  4 20  1  0  0  0  0
  5 27  1  0  0  0  0
  5 24  1  0  0  0  0
  8  7  2  0  0  0  0
  8 14  1  0  0  0  0
  8  2  2  0  0  0  0
  9 18  1  1  0  0  0
  9 14  1  0  0  0  0
 10  8  1  1  0  0  0
 11 15  1  0  0  0  0
 13  9  1  0  0  0  0
 15 19  1  0  0  0  0
 15 23  1  0  0  0  0
 16 28  1  0  0  0  0
 17 25  1  0  0  0  0
 17  5  1  0  0  0  0
 20 16  2  0  0  0  0
 21  1  2  0  0  0  0
 22 21  1  0  0  0  0
 23  6  1  0  0  0  0
 24 12  1  0  0  0  0
 25 19  1  0  0  0  0
 25 12  1  0  0  0  0
 26 24  1  0  0  0  0
 26 10  1  0  0  0  0
 26 13  1  0  0  0  0
 28 12  1  0  0  0  0
 28 10  1  0  0  0  0
M  END
>  <MODEL>
8

>  <REMARK>
 VINA RESULT:      -3.9      5.459      8.427
  Name = 
  0 active torsions:
  status: ('A' for Active; 'I' for Inactive)
                            x       y       z     vdW  Elec       q    Type
                         _______ _______ _______ _____ _____    ______ ____

>  <TORSDO>
F 0

$$$$
=
 OpenBabel11122412003D

 28 32  0  0  1  0  0  0  0  0999 V2000
  185.7100  176.7370  135.7240 C   0  0  0  0  0  0  0  0  0  0  0  0
  184.1510  180.4950  138.7210 O   0  0  0  0  0  0  0  0  0  0  0  0
  189.3980  176.2400  139.3420 C   0  0  0  0  0  1  0  0  0  0  0  0
  184.8830  174.3400  136.9190 C   0  0  0  0  0  3  0  0  0  0  0  0
  187.9410  177.9260  140.3250 N   0  0  0  0  0  0  0  0  0  0  0  0
  186.2370  177.9840  135.0790 C   0  0  0  0  0  2  0  0  0  0  0  0
  182.3100  178.9550  138.2190 O   0  0  0  0  0  0  0  0  0  0  0  0
  183.4560  179.2330  139.1510 S   0  0  0  0  0  0  0  0  0  0  0  0
  183.4390  178.4310  141.6200 C   0  0  2  0  0  3  0  0  0  0  0  0
  184.5640  177.8860  139.1230 N   0  0  2  0  0  0  0  0  0  0  0  0
  190.0110  177.1330  135.1620 C   0  0  0  0  0  1  0  0  0  0  0  0
  186.7650  178.5380  138.3050 C   0  0  1  0  0  3  0  0  0  0  0  0
  184.9590  178.5180  141.5610 C   0  0  0  0  0  2  0  0  0  0  0  0
  182.8470  179.4470  140.7600 N   0  0  0  0  0  2  0  0  0  0  0  0
  188.6200  177.3220  135.7280 C   0  0  1  0  0  3  0  0  0  0  0  0
  185.3520  176.7230  137.0890 C   0  0  0  0  0  0  0  0  0  0  0  0
  188.7930  177.6210  139.1820 C   0  0  2  0  0  3  0  0  0  0  0  0
  182.9810  178.6550  143.0450 C   0  0  0  0  0  1  0  0  0  0  0  0
  188.6740  178.2590  136.8410 N   0  0  0  0  0  2  0  0  0  0  0  0
  184.9520  175.5100  137.6770 C   0  0  0  0  0  3  0  0  0  0  0  0
  185.6280  175.5590  134.9690 C   0  0  0  0  0  3  0  0  0  0  0  0
  185.2130  174.3660  135.5640 C   0  0  0  0  0  3  0  0  0  0  0  0
  187.6920  177.8350  134.6270 C   0  0  0  0  0  2  0  0  0  0  0  0
  186.7710  178.6310  139.8090 C   0  0  1  0  0  3  0  0  0  0  0  0
  187.9360  177.6560  137.9390 C   0  0  2  0  0  3  0  0  0  0  0  0
  185.5070  177.9270  140.2540 C   0  0  2  0  0  3  0  0  0  0  0  0
  188.6690  178.8700  141.1570 C   0  0  0  0  0  1  0  0  0  0  0  0
  185.3800  177.9970  137.9140 C   0  0  1  0  0  3  0  0  0  0  0  0
  1 16  1  0  0  0  0
  2  8  2  0  0  0  0
  4 20  1  0  0  0  0
  5 27  1  0  0  0  0
  6  1  1  0  0  0  0
  7  8  2  0  0  0  0
  8 14  1  0  0  0  0
  9 18  1  1  0  0  0
 10  8  1  1  0  0  0
 10 26  1  0  0  0  0
 11 15  1  0  0  0  0
 12 24  1  0  0  0  0
 13  9  1  0  0  0  0
 14  9  1  0  0  0  0
 15 19  1  0  0  0  0
 16 20  2  0  0  0  0
 16 28  1  0  0  0  0
 17  3  1  0  0  0  0
 17  5  1  0  0  0  0
 19 25  1  0  0  0  0
 21 22  1  0  0  0  0
 21  1  2  0  0  0  0
 22  4  2  0  0  0  0
 23  6  1  0  0  0  0
 23 15  1  0  0  0  0
 24 26  1  0  0  0  0
 24  5  1  0  0  0  0
 25 12  1  0  0  0  0
 25 17  1  0  0  0  0
 26 13  1  0  0  0  0
 28 12  1  0  0  0  0
 28 10  1  0  0  0  0
M  END
>  <MODEL>
9

>  <REMARK>
 VINA RESULT:      -3.9      4.782      7.836
  Name = 
  0 active torsions:
  status: ('A' for Active; 'I' for Inactive)
                            x       y       z     vdW  Elec       q    Type
                         _______ _______ _______ _____ _____    ______ ____

>  <TORSDO>
F 0

$$$$
