=
 OpenBabel11122410333D

 30 36  0  0  1  0  0  0  0  0999 V2000
  187.0080  178.2440  142.8460 C   0  0  0  0  0  0  0  0  0  0  0  0
  184.5810  178.7670  142.5510 C   0  0  0  0  0  0  0  0  0  0  0  0
  186.5060  177.9270  146.9980 N   0  0  0  0  0  2  0  0  0  0  0  0
  188.0800  177.8500  143.6990 C   0  0  0  0  0  0  0  0  0  0  0  0
  187.3180  178.6100  141.4200 C   0  0  0  0  0  2  0  0  0  0  0  0
  190.7140  177.6360  141.2080 O   0  0  0  0  0  0  0  0  0  0  0  0
  190.7760  176.9060  145.1520 C   0  0  1  0  0  3  0  0  0  0  0  0
  189.5480  177.6280  141.6940 C   0  0  0  0  0  0  0  0  0  0  0  0
  189.7290  176.5600  146.1670 C   0  0  1  0  0  3  0  0  0  0  0  0
  187.8520  177.6670  147.4840 C   0  0  2  0  0  3  0  0  0  0  0  0
  188.3480  177.6870  140.7970 C   0  0  2  0  0  3  0  0  0  0  0  0
  189.3590  177.4660  143.1120 N   0  0  0  0  0  0  0  0  0  0  0  0
  183.3160  178.9430  143.1190 C   0  0  0  0  0  3  0  0  0  0  0  0
  190.5140  176.3540  147.4490 C   0  0  0  0  0  2  0  0  0  0  0  0
  192.0210  176.1330  145.5480 C   0  0  0  0  0  2  0  0  0  0  0  0
  184.6880  178.9040  141.2060 F   0  0  0  0  0  0  0  0  0  0  0  0
  186.5570  177.9850  145.5860 C   0  0  0  0  0  0  0  0  0  0  0  0
  183.1260  178.7970  144.4910 C   0  0  0  0  0  3  0  0  0  0  0  0
  185.6930  178.4320  143.3670 C   0  0  0  0  0  0  0  0  0  0  0  0
  187.8210  177.7940  145.0910 C   0  0  0  0  0  0  0  0  0  0  0  0
  188.2460  178.7330  148.4870 C   0  0  0  0  0  1  0  0  0  0  0  0
  188.7750  177.7380  146.2520 C   0  0  2  0  0  3  0  0  0  0  0  0
  191.8730  175.8260  147.0270 C   0  0  0  0  0  2  0  0  0  0  0  0
  190.6570  175.5230  143.2120 O   0  0  0  0  0  0  0  0  0  0  0  0
  184.2030  178.4700  145.3110 C   0  0  0  0  0  3  0  0  0  0  0  0
  185.4760  178.2810  144.7620 C   0  0  0  0  0  0  0  0  0  0  0  0
  190.2810  176.5860  143.7830 C   0  0  0  0  0  0  0  0  0  0  0  0
  188.6880  178.1790  139.3950 C   0  0  0  0  0  3  0  0  0  0  0  0
  188.8350  176.9910  138.4640 C   0  0  0  0  0  2  0  0  0  0  0  0
  187.5660  177.8140  138.4420 C   0  0  0  0  0  2  0  0  0  0  0  0
  1 19  2  0  0  0  0
  1  4  1  0  0  0  0
  2 13  2  0  0  0  0
  2 19  1  0  0  0  0
  3 10  1  0  0  0  0
  4 20  2  0  0  0  0
  5  1  1  0  0  0  0
  6  8  2  0  0  0  0
  7 15  1  1  0  0  0
  7  9  1  0  0  0  0
  8 12  1  0  0  0  0
  9 22  1  0  0  0  0
  9 14  1  1  0  0  0
 10 21  1  1  0  0  0
 11 28  1  6  0  0  0
 11  5  1  0  0  0  0
 11  8  1  0  0  0  0
 12  4  1  0  0  0  0
 12 27  1  0  0  0  0
 13 18  1  0  0  0  0
 15 23  1  0  0  0  0
 16  2  1  0  0  0  0
 17  3  1  0  0  0  0
 18 25  2  0  0  0  0
 19 26  1  0  0  0  0
 20 17  1  0  0  0  0
 22 20  1  6  0  0  0
 22 10  1  0  0  0  0
 23 14  1  0  0  0  0
 24 27  2  0  0  0  0
 26 25  1  0  0  0  0
 26 17  2  0  0  0  0
 27  7  1  0  0  0  0
 29 28  1  0  0  0  0
 30 29  1  0  0  0  0
 30 28  1  0  0  0  0
M  END
>  <MODEL>
1

>  <REMARK>
 VINA RESULT:     -12.4      0.000      0.000
  Name = 
  1 active torsions:
  status: ('A' for Active; 'I' for Inactive)
    1  A    between atoms: C_11  and  C_28
                            x       y       z     vdW  Elec       q    Type
                         _______ _______ _______ _____ _____    ______ ____

>  <TORSDO>
F 1

$$$$
=
 OpenBabel11122410333D

 30 36  0  0  1  0  0  0  0  0999 V2000
  187.0950  177.8500  144.1520 C   0  0  0  0  0  0  0  0  0  0  0  0
  184.7340  178.5950  144.4960 C   0  0  0  0  0  0  0  0  0  0  0  0
  186.7120  178.3180  140.0010 N   0  0  0  0  0  2  0  0  0  0  0  0
  188.2020  177.6540  143.2740 C   0  0  0  0  0  0  0  0  0  0  0  0
  187.2210  177.3980  145.5810 C   0  0  0  0  0  2  0  0  0  0  0  0
  190.6600  176.5760  145.7200 O   0  0  0  0  0  0  0  0  0  0  0  0
  190.9760  177.1280  141.7590 C   0  0  1  0  0  3  0  0  0  0  0  0
  189.6380  177.1510  145.2510 C   0  0  0  0  0  0  0  0  0  0  0  0
  190.2100  177.9320  140.7510 C   0  0  1  0  0  3  0  0  0  0  0  0
  188.0000  177.8750  139.4890 C   0  0  2  0  0  3  0  0  0  0  0  0
  188.5860  177.7020  146.1670 C   0  0  2  0  0  3  0  0  0  0  0  0
  189.5180  177.3660  143.8330 N   0  0  0  0  0  0  0  0  0  0  0  0
  183.5330  179.0570  143.9520 C   0  0  0  0  0  3  0  0  0  0  0  0
  190.9630  177.7070  139.4530 C   0  0  0  0  0  2  0  0  0  0  0  0
  192.4300  177.1820  141.3260 C   0  0  0  0  0  2  0  0  0  0  0  0
  184.7920  178.4410  145.8420 F   0  0  0  0  0  0  0  0  0  0  0  0
  186.7630  178.2620  141.4140 C   0  0  0  0  0  0  0  0  0  0  0  0
  183.4050  179.2590  142.5790 C   0  0  0  0  0  3  0  0  0  0  0  0
  185.8460  178.3270  143.6560 C   0  0  0  0  0  0  0  0  0  0  0  0
  187.9700  177.8120  141.8850 C   0  0  0  0  0  0  0  0  0  0  0  0
  187.7930  176.7400  138.5060 C   0  0  0  0  0  1  0  0  0  0  0  0
  188.7980  177.3750  140.7090 C   0  0  2  0  0  3  0  0  0  0  0  0
  192.4160  177.5030  139.8420 C   0  0  0  0  0  2  0  0  0  0  0  0
  191.6010  178.4160  143.6670 O   0  0  0  0  0  0  0  0  0  0  0  0
  184.4830  179.0030  141.7350 C   0  0  0  0  0  3  0  0  0  0  0  0
  185.6970  178.5470  142.2600 C   0  0  0  0  0  0  0  0  0  0  0  0
  190.7370  177.6690  143.1280 C   0  0  0  0  0  0  0  0  0  0  0  0
  188.6750  177.1260  147.5750 C   0  0  0  0  0  3  0  0  0  0  0  0
  189.4340  178.0870  148.4680 C   0  0  0  0  0  2  0  0  0  0  0  0
  187.9240  178.0230  148.5410 C   0  0  0  0  0  2  0  0  0  0  0  0
  1  5  1  0  0  0  0
  2 16  1  0  0  0  0
  3 17  1  0  0  0  0
  4 12  1  0  0  0  0
  4  1  2  0  0  0  0
  5 11  1  0  0  0  0
  7 15  1  6  0  0  0
  7 27  1  0  0  0  0
  8  6  2  0  0  0  0
  8 11  1  0  0  0  0
  9 14  1  6  0  0  0
  9  7  1  0  0  0  0
 10 21  1  6  0  0  0
 10  3  1  0  0  0  0
 10 22  1  0  0  0  0
 11 28  1  1  0  0  0
 12  8  1  0  0  0  0
 13  2  1  0  0  0  0
 14 23  1  0  0  0  0
 17 20  2  0  0  0  0
 17 26  1  0  0  0  0
 18 13  2  0  0  0  0
 19  1  1  0  0  0  0
 19  2  2  0  0  0  0
 20  4  1  0  0  0  0
 22  9  1  0  0  0  0
 22 20  1  1  0  0  0
 23 15  1  0  0  0  0
 25 26  2  0  0  0  0
 25 18  1  0  0  0  0
 26 19  1  0  0  0  0
 27 24  2  0  0  0  0
 27 12  1  0  0  0  0
 28 29  1  0  0  0  0
 28 30  1  0  0  0  0
 29 30  1  0  0  0  0
M  END
>  <MODEL>
2

>  <REMARK>
 VINA RESULT:     -10.8      1.826      5.404
  Name = 
  1 active torsions:
  status: ('A' for Active; 'I' for Inactive)
    1  A    between atoms: C_11  and  C_28
                            x       y       z     vdW  Elec       q    Type
                         _______ _______ _______ _____ _____    ______ ____

>  <TORSDO>
F 1

$$$$
=
 OpenBabel11122410333D

 30 36  0  0  1  0  0  0  0  0999 V2000
  185.7780  178.6100  142.1100 C   0  0  0  0  0  0  0  0  0  0  0  0
  184.3800  178.6300  144.1820 C   0  0  0  0  0  0  0  0  0  0  0  0
  189.2120  177.7260  144.3510 N   0  0  0  0  0  2  0  0  0  0  0  0
  187.0350  178.3610  141.4830 C   0  0  0  0  0  0  0  0  0  0  0  0
  184.6630  179.1920  141.2840 C   0  0  0  0  0  2  0  0  0  0  0  0
  186.0670  178.9980  138.0410 O   0  0  0  0  0  0  0  0  0  0  0  0
  189.5810  177.8580  139.6050 C   0  0  1  0  0  3  0  0  0  0  0  0
  185.9500  178.6850  139.2590 C   0  0  0  0  0  0  0  0  0  0  0  0
  189.9880  177.1840  140.8800 C   0  0  1  0  0  3  0  0  0  0  0  0
  190.2720  177.7070  143.3550 C   0  0  2  0  0  3  0  0  0  0  0  0
  184.5960  178.5870  139.8950 C   0  0  2  0  0  3  0  0  0  0  0  0
  187.1150  178.3280  140.0270 N   0  0  0  0  0  0  0  0  0  0  0  0
  184.2890  178.4660  145.5670 C   0  0  0  0  0  3  0  0  0  0  0  0
  191.4890  177.0070  140.7400 C   0  0  0  0  0  2  0  0  0  0  0  0
  190.5150  177.3300  138.5300 C   0  0  0  0  0  2  0  0  0  0  0  0
  183.2420  178.9380  143.5130 F   0  0  0  0  0  0  0  0  0  0  0  0
  187.9880  177.9520  143.6790 C   0  0  0  0  0  0  0  0  0  0  0  0
  185.4130  178.1290  146.3190 C   0  0  0  0  0  3  0  0  0  0  0  0
  185.6220  178.4520  143.5190 C   0  0  0  0  0  0  0  0  0  0  0  0
  188.1430  178.0940  142.3240 C   0  0  0  0  0  0  0  0  0  0  0  0
  191.3420  178.7130  143.7310 C   0  0  0  0  0  1  0  0  0  0  0  0
  189.6150  178.1130  142.0210 C   0  0  2  0  0  3  0  0  0  0  0  0
  191.7530  176.8340  139.2560 C   0  0  0  0  0  2  0  0  0  0  0  0
  187.8130  176.7100  138.4900 O   0  0  0  0  0  0  0  0  0  0  0  0
  186.6420  177.9500  145.6890 C   0  0  0  0  0  3  0  0  0  0  0  0
  186.7530  178.1010  144.3030 C   0  0  0  0  0  0  0  0  0  0  0  0
  188.1400  177.5960  139.3290 C   0  0  0  0  0  0  0  0  0  0  0  0
  183.5160  179.2950  139.0850 C   0  0  0  0  0  3  0  0  0  0  0  0
  182.8940  178.3170  138.1070 C   0  0  0  0  0  2  0  0  0  0  0  0
  182.1650  178.6730  139.3840 C   0  0  0  0  0  2  0  0  0  0  0  0
  1 19  1  0  0  0  0
  2 13  1  0  0  0  0
  4  1  2  0  0  0  0
  4 20  1  0  0  0  0
  5  1  1  0  0  0  0
  6  8  2  0  0  0  0
  7 15  1  6  0  0  0
  7  9  1  0  0  0  0
  8 11  1  0  0  0  0
  8 12  1  0  0  0  0
  9 14  1  6  0  0  0
  9 22  1  0  0  0  0
 10 21  1  1  0  0  0
 10  3  1  0  0  0  0
 11 28  1  6  0  0  0
 11  5  1  0  0  0  0
 12  4  1  0  0  0  0
 13 18  2  0  0  0  0
 15 23  1  0  0  0  0
 16  2  1  0  0  0  0
 17 26  1  0  0  0  0
 17  3  1  0  0  0  0
 19  2  2  0  0  0  0
 19 26  1  0  0  0  0
 20 17  2  0  0  0  0
 22 20  1  1  0  0  0
 22 10  1  0  0  0  0
 23 14  1  0  0  0  0
 24 27  2  0  0  0  0
 25 18  1  0  0  0  0
 26 25  2  0  0  0  0
 27  7  1  0  0  0  0
 27 12  1  0  0  0  0
 28 30  1  0  0  0  0
 29 28  1  0  0  0  0
 29 30  1  0  0  0  0
M  END
>  <MODEL>
3

>  <REMARK>
 VINA RESULT:     -10.2      2.408      4.518
  Name = 
  1 active torsions:
  status: ('A' for Active; 'I' for Inactive)
    1  A    between atoms: C_11  and  C_28
                            x       y       z     vdW  Elec       q    Type
                         _______ _______ _______ _____ _____    ______ ____

>  <TORSDO>
F 1

$$$$
=
 OpenBabel11122410333D

 30 36  0  0  1  0  0  0  0  0999 V2000
  187.8950  177.5370  143.5530 C   0  0  0  0  0  0  0  0  0  0  0  0
  185.9490  178.5080  144.7860 C   0  0  0  0  0  0  0  0  0  0  0  0
  186.2020  178.6360  139.8760 N   0  0  0  0  0  2  0  0  0  0  0  0
  188.5870  177.3340  142.3220 C   0  0  0  0  0  0  0  0  0  0  0  0
  188.4240  176.8740  144.7950 C   0  0  0  0  0  2  0  0  0  0  0  0
  191.5190  175.6260  143.6160 O   0  0  0  0  0  0  0  0  0  0  0  0
  190.5510  176.6950  139.8730 C   0  0  1  0  0  3  0  0  0  0  0  0
  190.5080  176.3830  143.5990 C   0  0  0  0  0  0  0  0  0  0  0  0
  189.6310  177.7220  139.2840 C   0  0  1  0  0  3  0  0  0  0  0  0
  187.1460  178.1170  138.8980 C   0  0  2  0  0  3  0  0  0  0  0  0
  189.9380  176.9220  144.8770 C   0  0  2  0  0  3  0  0  0  0  0  0
  189.9490  176.8110  142.3440 N   0  0  0  0  0  0  0  0  0  0  0  0
  184.7280  179.1860  144.7530 C   0  0  0  0  0  3  0  0  0  0  0  0
  189.8480  177.5950  137.7870 C   0  0  0  0  0  2  0  0  0  0  0  0
  191.7590  176.6330  138.9540 C   0  0  0  0  0  2  0  0  0  0  0  0
  186.4370  178.1570  146.0020 F   0  0  0  0  0  0  0  0  0  0  0  0
  186.7220  178.3730  141.1650 C   0  0  0  0  0  0  0  0  0  0  0  0
  184.1750  179.5960  143.5420 C   0  0  0  0  0  3  0  0  0  0  0  0
  186.6480  178.2290  143.5830 C   0  0  0  0  0  0  0  0  0  0  0  0
  187.9240  177.7160  141.1300 C   0  0  0  0  0  0  0  0  0  0  0  0
  186.4320  177.1680  137.9570 C   0  0  0  0  0  1  0  0  0  0  0  0
  188.2180  177.3540  139.7010 C   0  0  2  0  0  3  0  0  0  0  0  0
  191.2910  177.1610  137.6100 C   0  0  0  0  0  2  0  0  0  0  0  0
  191.9930  177.6120  141.5380 O   0  0  0  0  0  0  0  0  0  0  0  0
  184.8430  179.3330  142.3490 C   0  0  0  0  0  3  0  0  0  0  0  0
  186.0700  178.6630  142.3600 C   0  0  0  0  0  0  0  0  0  0  0  0
  190.8860  177.0610  141.2790 C   0  0  0  0  0  0  0  0  0  0  0  0
  190.4050  176.1440  146.1010 C   0  0  0  0  0  3  0  0  0  0  0  0
  191.6630  176.7830  146.6570 C   0  0  0  0  0  2  0  0  0  0  0  0
  190.3300  177.0320  147.3280 C   0  0  0  0  0  2  0  0  0  0  0  0
  1 19  1  0  0  0  0
  1  5  1  0  0  0  0
  2 16  1  0  0  0  0
  3 17  1  0  0  0  0
  4 12  1  0  0  0  0
  4  1  2  0  0  0  0
  5 11  1  0  0  0  0
  7 15  1  6  0  0  0
  7 27  1  0  0  0  0
  8  6  2  0  0  0  0
  8 11  1  0  0  0  0
  9 14  1  6  0  0  0
  9 22  1  0  0  0  0
  9  7  1  0  0  0  0
 10 21  1  6  0  0  0
 10 22  1  0  0  0  0
 10  3  1  0  0  0  0
 11 28  1  1  0  0  0
 12  8  1  0  0  0  0
 13  2  1  0  0  0  0
 17 26  1  0  0  0  0
 18 13  2  0  0  0  0
 19  2  2  0  0  0  0
 20 17  2  0  0  0  0
 20  4  1  0  0  0  0
 22 20  1  1  0  0  0
 23 14  1  0  0  0  0
 23 15  1  0  0  0  0
 25 26  2  0  0  0  0
 25 18  1  0  0  0  0
 26 19  1  0  0  0  0
 27 24  2  0  0  0  0
 27 12  1  0  0  0  0
 28 29  1  0  0  0  0
 28 30  1  0  0  0  0
 29 30  1  0  0  0  0
M  END
>  <MODEL>
4

>  <REMARK>
 VINA RESULT:      -9.8      1.863      5.697
  Name = 
  1 active torsions:
  status: ('A' for Active; 'I' for Inactive)
    1  A    between atoms: C_11  and  C_28
                            x       y       z     vdW  Elec       q    Type
                         _______ _______ _______ _____ _____    ______ ____

>  <TORSDO>
F 1

$$$$
=
 OpenBabel11122410333D

 30 36  0  0  1  0  0  0  0  0999 V2000
  185.0200  178.5330  142.4300 C   0  0  0  0  0  0  0  0  0  0  0  0
  184.7460  178.9200  139.9760 C   0  0  0  0  0  0  0  0  0  0  0  0
  189.0240  177.4120  141.8780 N   0  0  0  0  0  2  0  0  0  0  0  0
  185.8710  178.2350  143.5360 C   0  0  0  0  0  0  0  0  0  0  0  0
  183.5400  178.6510  142.6710 C   0  0  0  0  0  2  0  0  0  0  0  0
  183.4320  178.5560  146.2080 O   0  0  0  0  0  0  0  0  0  0  0  0
  187.3500  177.7040  146.3280 C   0  0  1  0  0  3  0  0  0  0  0  0
  183.9780  178.7340  145.0830 C   0  0  0  0  0  0  0  0  0  0  0  0
  188.5010  177.9460  145.3980 C   0  0  1  0  0  3  0  0  0  0  0  0
  189.4640  177.0520  143.2170 C   0  0  2  0  0  3  0  0  0  0  0  0
  183.2200  179.3810  143.9620 C   0  0  2  0  0  3  0  0  0  0  0  0
  185.3660  178.4040  144.8940 N   0  0  0  0  0  0  0  0  0  0  0  0
  185.3070  178.9360  138.6960 C   0  0  0  0  0  3  0  0  0  0  0  0
  189.7030  177.4100  146.1540 C   0  0  0  0  0  2  0  0  0  0  0  0
  187.9030  177.8570  147.7340 C   0  0  0  0  0  2  0  0  0  0  0  0
  183.4410  179.2690  140.0910 F   0  0  0  0  0  0  0  0  0  0  0  0
  187.6900  177.8740  141.9680 C   0  0  0  0  0  0  0  0  0  0  0  0
  186.6480  178.6090  138.5030 C   0  0  0  0  0  3  0  0  0  0  0  0
  185.5370  178.5720  141.1010 C   0  0  0  0  0  0  0  0  0  0  0  0
  187.2020  177.8430  143.2490 C   0  0  0  0  0  0  0  0  0  0  0  0
  189.9700  175.6230  143.2190 C   0  0  0  0  0  1  0  0  0  0  0  0
  188.2220  177.1700  144.1230 C   0  0  2  0  0  3  0  0  0  0  0  0
  189.3980  177.6190  147.6260 C   0  0  0  0  0  2  0  0  0  0  0  0
  186.0700  179.6770  146.7250 O   0  0  0  0  0  0  0  0  0  0  0  0
  187.4430  178.2640  139.5930 C   0  0  0  0  0  3  0  0  0  0  0  0
  186.9030  178.2490  140.8840 C   0  0  0  0  0  0  0  0  0  0  0  0
  186.2380  178.6460  146.0140 C   0  0  0  0  0  0  0  0  0  0  0  0
  181.7130  179.3700  144.1910 C   0  0  0  0  0  3  0  0  0  0  0  0
  180.9980  179.3780  142.8540 C   0  0  0  0  0  2  0  0  0  0  0  0
  181.1220  178.0890  143.6360 C   0  0  0  0  0  2  0  0  0  0  0  0
  1  5  1  0  0  0  0
  1  4  1  0  0  0  0
  2 16  1  0  0  0  0
  2 19  1  0  0  0  0
  3 17  1  0  0  0  0
  3 10  1  0  0  0  0
  4 12  1  0  0  0  0
  5 11  1  0  0  0  0
  7 15  1  1  0  0  0
  8  6  2  0  0  0  0
  9 14  1  1  0  0  0
  9  7  1  0  0  0  0
 10 21  1  6  0  0  0
 10 22  1  0  0  0  0
 11 28  1  1  0  0  0
 11  8  1  0  0  0  0
 12  8  1  0  0  0  0
 12 27  1  0  0  0  0
 13  2  2  0  0  0  0
 14 23  1  0  0  0  0
 17 20  1  0  0  0  0
 18 13  1  0  0  0  0
 18 25  2  0  0  0  0
 19  1  2  0  0  0  0
 20  4  2  0  0  0  0
 22 20  1  6  0  0  0
 22  9  1  0  0  0  0
 23 15  1  0  0  0  0
 25 26  1  0  0  0  0
 26 19  1  0  0  0  0
 26 17  2  0  0  0  0
 27  7  1  0  0  0  0
 27 24  2  0  0  0  0
 29 30  1  0  0  0  0
 29 28  1  0  0  0  0
 30 28  1  0  0  0  0
M  END
>  <MODEL>
5

>  <REMARK>
 VINA RESULT:      -9.7      2.424      5.264
  Name = 
  1 active torsions:
  status: ('A' for Active; 'I' for Inactive)
    1  A    between atoms: C_11  and  C_28
                            x       y       z     vdW  Elec       q    Type
                         _______ _______ _______ _____ _____    ______ ____

>  <TORSDO>
F 1

$$$$
=
 OpenBabel11122410333D

 30 36  0  0  1  0  0  0  0  0999 V2000
  187.9950  177.6450  142.4050 C   0  0  0  0  0  0  0  0  0  0  0  0
  189.2170  177.6470  140.2240 C   0  0  0  0  0  0  0  0  0  0  0  0
  191.6000  177.2230  144.5060 N   0  0  0  0  0  2  0  0  0  0  0  0
  188.0340  177.6590  143.8300 C   0  0  0  0  0  0  0  0  0  0  0  0
  186.6610  177.5180  141.7210 C   0  0  0  0  0  2  0  0  0  0  0  0
  184.4660  177.8720  144.4750 O   0  0  0  0  0  0  0  0  0  0  0  0
  187.5820  177.7850  147.0000 C   0  0  1  0  0  3  0  0  0  0  0  0
  185.5620  177.9990  143.8600 C   0  0  0  0  0  0  0  0  0  0  0  0
  189.0400  178.1100  146.8730 C   0  0  1  0  0  3  0  0  0  0  0  0
  191.1760  177.1300  145.8940 C   0  0  2  0  0  3  0  0  0  0  0  0
  185.5820  178.3400  142.4000 C   0  0  2  0  0  3  0  0  0  0  0  0
  186.8070  177.9100  144.5780 N   0  0  0  0  0  0  0  0  0  0  0  0
  190.4300  177.5980  139.5310 C   0  0  0  0  0  3  0  0  0  0  0  0
  189.5850  177.9110  148.2750 C   0  0  0  0  0  2  0  0  0  0  0  0
  187.1710  178.2220  148.3950 C   0  0  0  0  0  2  0  0  0  0  0  0
  188.0820  177.7610  139.4920 F   0  0  0  0  0  0  0  0  0  0  0  0
  190.4490  177.4370  143.7120 C   0  0  0  0  0  0  0  0  0  0  0  0
  191.6380  177.5030  140.2180 C   0  0  0  0  0  3  0  0  0  0  0  0
  189.2000  177.6030  141.6430 C   0  0  0  0  0  0  0  0  0  0  0  0
  189.2960  177.4860  144.4510 C   0  0  0  0  0  0  0  0  0  0  0  0
  191.6810  175.8330  146.4950 C   0  0  0  0  0  1  0  0  0  0  0  0
  189.6350  177.1350  145.8730 C   0  0  2  0  0  3  0  0  0  0  0  0
  188.4470  178.2530  149.2180 C   0  0  0  0  0  2  0  0  0  0  0  0
  186.1830  179.5210  146.1540 O   0  0  0  0  0  0  0  0  0  0  0  0
  191.6450  177.4580  141.6100 C   0  0  0  0  0  3  0  0  0  0  0  0
  190.4430  177.5140  142.3230 C   0  0  0  0  0  0  0  0  0  0  0  0
  186.8150  178.4550  145.9110 C   0  0  0  0  0  0  0  0  0  0  0  0
  184.2430  178.0810  141.7200 C   0  0  0  0  0  3  0  0  0  0  0  0
  183.3750  179.3190  141.8230 C   0  0  0  0  0  2  0  0  0  0  0  0
  184.0900  179.0050  140.5270 C   0  0  0  0  0  2  0  0  0  0  0  0
  1  4  1  0  0  0  0
  2 19  1  0  0  0  0
  3 10  1  0  0  0  0
  4 20  2  0  0  0  0
  4 12  1  0  0  0  0
  5 11  1  0  0  0  0
  5  1  1  0  0  0  0
  7 15  1  1  0  0  0
  8  6  2  0  0  0  0
  8 12  1  0  0  0  0
  9  7  1  0  0  0  0
  9 14  1  1  0  0  0
 10 21  1  6  0  0  0
 11 28  1  6  0  0  0
 11  8  1  0  0  0  0
 12 27  1  0  0  0  0
 13 18  1  0  0  0  0
 13  2  2  0  0  0  0
 14 23  1  0  0  0  0
 15 23  1  0  0  0  0
 16  2  1  0  0  0  0
 17 20  1  0  0  0  0
 17  3  1  0  0  0  0
 18 25  2  0  0  0  0
 19 26  1  0  0  0  0
 19  1  2  0  0  0  0
 22 20  1  6  0  0  0
 22 10  1  0  0  0  0
 22  9  1  0  0  0  0
 25 26  1  0  0  0  0
 26 17  2  0  0  0  0
 27 24  2  0  0  0  0
 27  7  1  0  0  0  0
 28 29  1  0  0  0  0
 30 28  1  0  0  0  0
 30 29  1  0  0  0  0
M  END
>  <MODEL>
6

>  <REMARK>
 VINA RESULT:      -9.6      2.328      4.967
  Name = 
  1 active torsions:
  status: ('A' for Active; 'I' for Inactive)
    1  A    between atoms: C_11  and  C_28
                            x       y       z     vdW  Elec       q    Type
                         _______ _______ _______ _____ _____    ______ ____

>  <TORSDO>
F 1

$$$$
=
 OpenBabel11122410333D

 30 36  0  0  1  0  0  0  0  0999 V2000
  189.2510  177.1780  143.8590 C   0  0  0  0  0  0  0  0  0  0  0  0
  191.2400  176.7850  145.3210 C   0  0  0  0  0  0  0  0  0  0  0  0
  186.8690  178.0230  147.2060 N   0  0  0  0  0  2  0  0  0  0  0  0
  187.8950  177.6000  143.7220 C   0  0  0  0  0  0  0  0  0  0  0  0
  189.9580  176.6240  142.6520 C   0  0  0  0  0  2  0  0  0  0  0  0
  187.5990  177.3380  140.1120 O   0  0  0  0  0  0  0  0  0  0  0  0
  184.9480  178.5300  142.8770 C   0  0  1  0  0  3  0  0  0  0  0  0
  188.1440  177.4820  141.2420 C   0  0  0  0  0  0  0  0  0  0  0  0
  185.0630  179.0640  144.2740 C   0  0  1  0  0  3  0  0  0  0  0  0
  185.5500  178.2500  146.6360 C   0  0  2  0  0  3  0  0  0  0  0  0
  189.6340  177.3950  141.3870 C   0  0  2  0  0  3  0  0  0  0  0  0
  187.3460  177.8250  142.3900 N   0  0  0  0  0  0  0  0  0  0  0  0
  191.7990  176.7620  146.6010 C   0  0  0  0  0  3  0  0  0  0  0  0
  183.6300  179.3710  144.6690 C   0  0  0  0  0  2  0  0  0  0  0  0
  183.7800  179.2620  142.2390 C   0  0  0  0  0  2  0  0  0  0  0  0
  192.0520  176.4810  144.2790 F   0  0  0  0  0  0  0  0  0  0  0  0
  187.7700  177.7930  146.1400 C   0  0  0  0  0  0  0  0  0  0  0  0
  191.0310  177.0840  147.7190 C   0  0  0  0  0  3  0  0  0  0  0  0
  189.8780  177.1410  145.1390 C   0  0  0  0  0  0  0  0  0  0  0  0
  187.1630  177.8390  144.9120 C   0  0  0  0  0  0  0  0  0  0  0  0
  184.5560  177.2890  147.2550 C   0  0  0  0  0  1  0  0  0  0  0  0
  185.6810  177.9710  145.1260 C   0  0  2  0  0  3  0  0  0  0  0  0
  182.9150  179.7530  143.3860 C   0  0  0  0  0  2  0  0  0  0  0  0
  186.3710  179.6760  141.3440 O   0  0  0  0  0  0  0  0  0  0  0  0
  189.6930  177.4360  147.5640 C   0  0  0  0  0  3  0  0  0  0  0  0
  189.1150  177.4720  146.2900 C   0  0  0  0  0  0  0  0  0  0  0  0
  186.2390  178.7160  142.1550 C   0  0  0  0  0  0  0  0  0  0  0  0
  190.2990  176.7180  140.1940 C   0  0  0  0  0  3  0  0  0  0  0  0
  190.4830  177.7260  139.0770 C   0  0  0  0  0  2  0  0  0  0  0  0
  191.6590  177.3420  139.9480 C   0  0  0  0  0  2  0  0  0  0  0  0
  1 19  1  0  0  0  0
  2 13  1  0  0  0  0
  4  1  2  0  0  0  0
  4 20  1  0  0  0  0
  5  1  1  0  0  0  0
  6  8  2  0  0  0  0
  7 15  1  6  0  0  0
  7  9  1  0  0  0  0
  8 11  1  0  0  0  0
  8 12  1  0  0  0  0
  9 14  1  1  0  0  0
  9 22  1  0  0  0  0
 10  3  1  0  0  0  0
 10 21  1  1  0  0  0
 11 28  1  6  0  0  0
 11  5  1  0  0  0  0
 12  4  1  0  0  0  0
 13 18  2  0  0  0  0
 15 23  1  0  0  0  0
 16  2  1  0  0  0  0
 17 26  1  0  0  0  0
 17  3  1  0  0  0  0
 19  2  2  0  0  0  0
 19 26  1  0  0  0  0
 20 17  2  0  0  0  0
 22 20  1  6  0  0  0
 22 10  1  0  0  0  0
 23 14  1  0  0  0  0
 24 27  2  0  0  0  0
 25 18  1  0  0  0  0
 26 25  2  0  0  0  0
 27 12  1  0  0  0  0
 27  7  1  0  0  0  0
 29 30  1  0  0  0  0
 29 28  1  0  0  0  0
 30 28  1  0  0  0  0
M  END
>  <MODEL>
7

>  <REMARK>
 VINA RESULT:      -9.6      2.206      5.378
  Name = 
  1 active torsions:
  status: ('A' for Active; 'I' for Inactive)
    1  A    between atoms: C_11  and  C_28
                            x       y       z     vdW  Elec       q    Type
                         _______ _______ _______ _____ _____    ______ ____

>  <TORSDO>
F 1

$$$$
=
 OpenBabel11122410333D

 30 36  0  0  1  0  0  0  0  0999 V2000
  186.2170  178.0460  142.8820 C   0  0  0  0  0  0  0  0  0  0  0  0
  183.8890  178.8080  142.3860 C   0  0  0  0  0  0  0  0  0  0  0  0
  187.2120  178.2040  138.8100 N   0  0  0  0  0  2  0  0  0  0  0  0
  187.5440  177.7880  142.4270 C   0  0  0  0  0  0  0  0  0  0  0  0
  185.8620  177.7010  144.3020 C   0  0  0  0  0  2  0  0  0  0  0  0
  189.0520  176.8990  145.6100 O   0  0  0  0  0  0  0  0  0  0  0  0
  190.6470  177.1580  141.9380 C   0  0  1  0  0  3  0  0  0  0  0  0
  188.2500  177.4360  144.7950 C   0  0  0  0  0  0  0  0  0  0  0  0
  190.2670  177.8830  140.6820 C   0  0  1  0  0  3  0  0  0  0  0  0
  188.5860  177.7280  138.7770 C   0  0  2  0  0  3  0  0  0  0  0  0
  186.9700  178.0510  145.2770 C   0  0  2  0  0  3  0  0  0  0  0  0
  188.6010  177.5450  143.4030 N   0  0  0  0  0  0  0  0  0  0  0  0
  182.9390  179.2260  141.4490 C   0  0  0  0  0  3  0  0  0  0  0  0
  191.3960  177.5640  139.7190 C   0  0  0  0  0  2  0  0  0  0  0  0
  192.1640  177.1830  141.9990 C   0  0  0  0  0  2  0  0  0  0  0  0
  183.5040  178.7540  143.6840 F   0  0  0  0  0  0  0  0  0  0  0  0
  186.8010  178.2530  140.1630 C   0  0  0  0  0  0  0  0  0  0  0  0
  183.2680  179.3260  140.0990 C   0  0  0  0  0  3  0  0  0  0  0  0
  185.2070  178.4820  141.9740 C   0  0  0  0  0  0  0  0  0  0  0  0
  187.7780  177.8420  141.0310 C   0  0  0  0  0  0  0  0  0  0  0  0
  188.6850  176.5230  137.8630 C   0  0  0  0  0  1  0  0  0  0  0  0
  188.9340  177.3210  140.2220 C   0  0  2  0  0  3  0  0  0  0  0  0
  192.6390  177.3930  140.5720 C   0  0  0  0  0  2  0  0  0  0  0  0
  190.6480  178.5840  143.8500 O   0  0  0  0  0  0  0  0  0  0  0  0
  184.5560  179.0100  139.6720 C   0  0  0  0  0  3  0  0  0  0  0  0
  185.5240  178.5980  140.5940 C   0  0  0  0  0  0  0  0  0  0  0  0
  189.9890  177.7980  143.1130 C   0  0  0  0  0  0  0  0  0  0  0  0
  186.5840  177.5810  146.6750 C   0  0  0  0  0  3  0  0  0  0  0  0
  187.1790  178.5190  147.7060 C   0  0  0  0  0  2  0  0  0  0  0  0
  185.7150  178.6280  147.3430 C   0  0  0  0  0  2  0  0  0  0  0  0
  1  5  1  0  0  0  0
  2 16  1  0  0  0  0
  3 17  1  0  0  0  0
  4  1  1  0  0  0  0
  4 12  1  0  0  0  0
  5 11  1  0  0  0  0
  7 15  1  1  0  0  0
  7 27  1  0  0  0  0
  8 11  1  0  0  0  0
  8  6  2  0  0  0  0
  9 14  1  6  0  0  0
  9  7  1  0  0  0  0
 10 21  1  6  0  0  0
 10  3  1  0  0  0  0
 10 22  1  0  0  0  0
 11 28  1  1  0  0  0
 12  8  1  0  0  0  0
 13  2  2  0  0  0  0
 14 23  1  0  0  0  0
 17 26  2  0  0  0  0
 17 20  1  0  0  0  0
 18 13  1  0  0  0  0
 19  2  1  0  0  0  0
 19  1  2  0  0  0  0
 20  4  2  0  0  0  0
 22  9  1  0  0  0  0
 22 20  1  1  0  0  0
 23 15  1  0  0  0  0
 25 18  2  0  0  0  0
 25 26  1  0  0  0  0
 26 19  1  0  0  0  0
 27 12  1  0  0  0  0
 27 24  2  0  0  0  0
 28 30  1  0  0  0  0
 28 29  1  0  0  0  0
 30 29  1  0  0  0  0
M  END
>  <MODEL>
8

>  <REMARK>
 VINA RESULT:      -9.5      2.067      5.489
  Name = 
  1 active torsions:
  status: ('A' for Active; 'I' for Inactive)
    1  A    between atoms: C_11  and  C_28
                            x       y       z     vdW  Elec       q    Type
                         _______ _______ _______ _____ _____    ______ ____

>  <TORSDO>
F 1

$$$$
=
 OpenBabel11122410333D

 30 36  0  0  1  0  0  0  0  0999 V2000
  185.8810  178.1890  142.6030 C   0  0  0  0  0  0  0  0  0  0  0  0
  187.0240  178.0230  144.8210 C   0  0  0  0  0  0  0  0  0  0  0  0
  182.2120  178.9810  144.4740 N   0  0  0  0  0  2  0  0  0  0  0  0
  184.7100  178.4930  141.8490 C   0  0  0  0  0  0  0  0  0  0  0  0
  187.0820  177.6430  141.8800 C   0  0  0  0  0  2  0  0  0  0  0  0
  186.0740  178.0530  138.5120 O   0  0  0  0  0  0  0  0  0  0  0  0
  182.4070  179.1440  139.7190 C   0  0  1  0  0  3  0  0  0  0  0  0
  186.0480  178.2890  139.7530 C   0  0  0  0  0  0  0  0  0  0  0  0
  181.8560  179.7450  140.9770 C   0  0  1  0  0  3  0  0  0  0  0  0
  181.2780  179.0760  143.3640 C   0  0  2  0  0  3  0  0  0  0  0  0
  187.3180  178.3300  140.5490 C   0  0  2  0  0  3  0  0  0  0  0  0
  184.8030  178.6150  140.3990 N   0  0  0  0  0  0  0  0  0  0  0  0
  186.9510  178.1010  146.2140 C   0  0  0  0  0  3  0  0  0  0  0  0
  180.3840  179.9510  140.6720 C   0  0  0  0  0  2  0  0  0  0  0  0
  181.6110  179.7500  138.5760 C   0  0  0  0  0  2  0  0  0  0  0  0
  188.2310  177.7410  144.2720 F   0  0  0  0  0  0  0  0  0  0  0  0
  183.5060  178.7800  143.9390 C   0  0  0  0  0  0  0  0  0  0  0  0
  185.7490  178.4070  146.8480 C   0  0  0  0  0  3  0  0  0  0  0  0
  185.8710  178.2580  144.0280 C   0  0  0  0  0  0  0  0  0  0  0  0
  183.5110  178.7240  142.5690 C   0  0  0  0  0  0  0  0  0  0  0  0
  180.1640  178.0650  143.5480 C   0  0  0  0  0  1  0  0  0  0  0  0
  182.0850  178.7430  142.0940 C   0  0  2  0  0  3  0  0  0  0  0  0
  180.2990  180.2180  139.1800 C   0  0  0  0  0  2  0  0  0  0  0  0
  184.3030  180.3340  138.8930 O   0  0  0  0  0  0  0  0  0  0  0  0
  184.6040  178.6410  146.0900 C   0  0  0  0  0  3  0  0  0  0  0  0
  184.6570  178.5760  144.6930 C   0  0  0  0  0  0  0  0  0  0  0  0
  183.8730  179.4030  139.6310 C   0  0  0  0  0  0  0  0  0  0  0  0
  188.4810  177.6580  139.8290 C   0  0  0  0  0  3  0  0  0  0  0  0
  189.2160  178.6820  138.9870 C   0  0  0  0  0  2  0  0  0  0  0  0
  189.7910  178.2470  140.3170 C   0  0  0  0  0  2  0  0  0  0  0  0
  1 19  1  0  0  0  0
  2 13  1  0  0  0  0
  4 20  1  0  0  0  0
  4  1  2  0  0  0  0
  5  1  1  0  0  0  0
  6  8  2  0  0  0  0
  7 15  1  6  0  0  0
  7  9  1  0  0  0  0
  8 12  1  0  0  0  0
  8 11  1  0  0  0  0
  9 14  1  6  0  0  0
  9 22  1  0  0  0  0
 10 21  1  1  0  0  0
 10  3  1  0  0  0  0
 11 28  1  6  0  0  0
 11  5  1  0  0  0  0
 12  4  1  0  0  0  0
 13 18  2  0  0  0  0
 15 23  1  0  0  0  0
 16  2  1  0  0  0  0
 17  3  1  0  0  0  0
 17 26  1  0  0  0  0
 19 26  1  0  0  0  0
 19  2  2  0  0  0  0
 20 17  2  0  0  0  0
 22 20  1  1  0  0  0
 22 10  1  0  0  0  0
 23 14  1  0  0  0  0
 24 27  2  0  0  0  0
 25 18  1  0  0  0  0
 26 25  2  0  0  0  0
 27  7  1  0  0  0  0
 27 12  1  0  0  0  0
 28 30  1  0  0  0  0
 29 28  1  0  0  0  0
 29 30  1  0  0  0  0
M  END
>  <MODEL>
9

>  <REMARK>
 VINA RESULT:      -9.5      3.184      6.728
  Name = 
  1 active torsions:
  status: ('A' for Active; 'I' for Inactive)
    1  A    between atoms: C_11  and  C_28
                            x       y       z     vdW  Elec       q    Type
                         _______ _______ _______ _____ _____    ______ ____

>  <TORSDO>
F 1

$$$$
