=
 OpenBabel11122411043D

 31 35  0  0  1  0  0  0  0  0999 V2000
  192.7190  174.5470  135.7320 C   0  0  0  0  0  0  0  0  0  0  0  0
  189.8260  176.8440  136.6520 C   0  0  2  0  0  3  0  0  0  0  0  0
  188.5400  176.0390  136.5240 C   0  0  0  0  0  0  0  0  0  0  0  0
  190.6820  176.4080  141.9040 O   0  0  0  0  0  0  0  0  0  0  0  0
  189.9410  177.4040  141.6900 C   0  0  0  0  0  0  0  0  0  0  0  0
  187.3100  174.2270  135.4600 C   0  0  0  0  0  0  0  0  0  0  0  0
  191.0460  175.9690  136.7600 C   0  0  0  0  0  0  0  0  0  0  0  0
  193.2280  174.2300  136.9940 C   0  0  0  0  0  3  0  0  0  0  0  0
  188.4950  174.9390  135.6530 C   0  0  0  0  0  3  0  0  0  0  0  0
  190.1680  177.2550  139.1460 C   0  0  0  0  0  0  0  0  0  0  0  0
  193.2930  173.9970  134.5940 O   0  0  0  0  0  1  0  0  0  0  0  0
  187.3130  177.6120  138.1100 C   0  0  0  0  0  2  0  0  0  0  0  0
  187.2880  173.1320  134.6060 O   0  0  0  0  0  1  0  0  0  0  0  0
  191.0190  176.2710  139.2000 N   0  0  0  0  0  0  0  0  0  0  0  0
  189.7920  177.8690  137.8090 C   0  0  2  0  0  3  0  0  0  0  0  0
  189.6750  177.8530  140.3540 N   0  0  0  0  0  2  0  0  0  0  0  0
  191.6270  175.4120  135.6140 C   0  0  0  0  0  3  0  0  0  0  0  0
  186.1470  174.6170  136.1220 C   0  0  0  0  0  3  0  0  0  0  0  0
  191.5710  175.6620  138.0280 C   0  0  0  0  0  0  0  0  0  0  0  0
  192.6560  174.7880  138.1410 C   0  0  0  0  0  3  0  0  0  0  0  0
  188.4470  178.5950  137.8440 C   0  0  0  0  0  2  0  0  0  0  0  0
  187.3450  176.4520  137.1610 C   0  0  0  0  0  0  0  0  0  0  0  0
  186.1650  175.7260  136.9710 C   0  0  0  0  0  3  0  0  0  0  0  0
  190.1890  177.3580  145.6120 C   0  0  1  0  0  3  0  0  0  0  0  0
  190.3600  178.8800  143.6560 C   0  0  0  0  0  2  0  0  0  0  0  0
  187.4370  176.6870  143.3050 O   0  0  0  0  0  0  0  0  0  0  0  0
  190.8670  176.4650  146.4200 F   0  0  0  0  0  0  0  0  0  0  0  0
  191.1430  177.9600  144.5890 C   0  0  0  0  0  2  0  0  0  0  0  0
  188.5370  177.1420  143.7120 C   0  0  0  0  0  0  0  0  0  0  0  0
  189.3100  178.1050  142.8520 C   0  0  2  0  0  3  0  0  0  0  0  0
  189.0780  176.6790  144.9540 N   0  0  0  0  0  2  0  0  0  0  0  0
  1  8  1  0  0  0  0
  2  3  1  1  0  0  0
  2  7  1  0  0  0  0
  2 15  1  0  0  0  0
  3 22  1  0  0  0  0
  5  4  2  0  0  0  0
  6  9  1  0  0  0  0
  6 18  2  0  0  0  0
  7 19  2  0  0  0  0
  8 20  2  0  0  0  0
  9  3  2  0  0  0  0
 10 14  2  0  0  0  0
 10 16  1  0  0  0  0
 11  1  1  0  0  0  0
 13  6  1  0  0  0  0
 15 21  1  1  0  0  0
 15 10  1  0  0  0  0
 16  5  1  0  0  0  0
 17  1  2  0  0  0  0
 17  7  1  0  0  0  0
 18 23  1  0  0  0  0
 19 20  1  0  0  0  0
 19 14  1  0  0  0  0
 21 12  1  0  0  0  0
 22 12  1  0  0  0  0
 23 22  2  0  0  0  0
 24 27  1  6  0  0  0
 25 28  1  0  0  0  0
 26 29  2  0  0  0  0
 28 24  1  0  0  0  0
 29 31  1  0  0  0  0
 30  5  1  6  0  0  0
 30 25  1  0  0  0  0
 30 29  1  0  0  0  0
 31 24  1  0  0  0  0
M  END
>  <MODEL>
1

>  <REMARK>
 VINA RESULT:      -8.0      0.000      0.000
  Name = 
  1 active torsions:
  status: ('A' for Active; 'I' for Inactive)
    1  A    between atoms: C_5  and  C_30
                            x       y       z     vdW  Elec       q    Type
                         _______ _______ _______ _____ _____    ______ ____

>  <TORSDO>
F 1

$$$$
=
 OpenBabel11122411043D

 31 35  0  0  1  0  0  0  0  0999 V2000
  181.2940  178.7740  143.3810 C   0  0  0  0  0  0  0  0  0  0  0  0
  181.2780  178.3360  139.5990 C   0  0  2  0  0  3  0  0  0  0  0  0
  180.8870  179.6720  138.9830 C   0  0  0  0  0  0  0  0  0  0  0  0
  186.5930  178.6390  139.1850 O   0  0  0  0  0  0  0  0  0  0  0  0
  186.1260  178.1460  138.1240 C   0  0  0  0  0  0  0  0  0  0  0  0
  179.6800  181.7800  139.1620 C   0  0  0  0  0  0  0  0  0  0  0  0
  181.7560  178.4750  141.0210 C   0  0  0  0  0  0  0  0  0  0  0  0
  182.6640  178.8750  143.6390 C   0  0  0  0  0  3  0  0  0  0  0  0
  180.1150  180.5790  139.7270 C   0  0  0  0  0  3  0  0  0  0  0  0
  183.7410  177.9820  139.0350 C   0  0  0  0  0  0  0  0  0  0  0  0
  180.3820  178.8760  144.4230 O   0  0  0  0  0  1  0  0  0  0  0  0
  181.9900  179.0550  136.7690 C   0  0  0  0  0  2  0  0  0  0  0  0
  178.9310  182.6710  139.9180 O   0  0  0  0  0  1  0  0  0  0  0  0
  184.0800  178.3980  140.2210 N   0  0  0  0  0  0  0  0  0  0  0  0
  182.3110  177.5540  138.7560 C   0  0  2  0  0  3  0  0  0  0  0  0
  184.7370  177.8030  138.0180 N   0  0  0  0  0  2  0  0  0  0  0  0
  180.8390  178.5780  142.0730 C   0  0  0  0  0  3  0  0  0  0  0  0
  179.9940  182.0810  137.8380 C   0  0  0  0  0  3  0  0  0  0  0  0
  183.1350  178.5590  141.2840 C   0  0  0  0  0  0  0  0  0  0  0  0
  183.5840  178.7660  142.5920 C   0  0  0  0  0  3  0  0  0  0  0  0
  181.9500  177.6160  137.2710 C   0  0  0  0  0  2  0  0  0  0  0  0
  181.1670  179.9690  137.6270 C   0  0  0  0  0  0  0  0  0  0  0  0
  180.7370  181.1790  137.0740 C   0  0  0  0  0  3  0  0  0  0  0  0
  189.3040  176.0150  137.2270 C   0  0  1  0  0  3  0  0  0  0  0  0
  186.9870  176.4920  136.4680 C   0  0  0  0  0  2  0  0  0  0  0  0
  188.7010  179.6160  137.3500 O   0  0  0  0  0  0  0  0  0  0  0  0
  190.0890  175.2480  138.0660 F   0  0  0  0  0  0  0  0  0  0  0  0
  187.8480  175.5810  137.3400 C   0  0  0  0  0  2  0  0  0  0  0  0
  188.4380  178.3890  137.2720 C   0  0  0  0  0  0  0  0  0  0  0  0
  187.0350  177.9450  136.9520 C   0  0  2  0  0  3  0  0  0  0  0  0
  189.4560  177.4260  137.5650 N   0  0  0  0  0  2  0  0  0  0  0  0
  1  8  1  0  0  0  0
  1 11  1  0  0  0  0
  2  3  1  6  0  0  0
  2  7  1  0  0  0  0
  3  9  1  0  0  0  0
  5  4  2  0  0  0  0
  6  9  2  0  0  0  0
  6 13  1  0  0  0  0
  7 19  2  0  0  0  0
  7 17  1  0  0  0  0
 10 14  2  0  0  0  0
 12 21  1  0  0  0  0
 12 22  1  0  0  0  0
 14 19  1  0  0  0  0
 15 21  1  6  0  0  0
 15 10  1  0  0  0  0
 15  2  1  0  0  0  0
 16  5  1  0  0  0  0
 16 10  1  0  0  0  0
 17  1  2  0  0  0  0
 18  6  1  0  0  0  0
 19 20  1  0  0  0  0
 20  8  2  0  0  0  0
 22  3  2  0  0  0  0
 23 22  1  0  0  0  0
 23 18  2  0  0  0  0
 24 28  1  0  0  0  0
 24 31  1  0  0  0  0
 24 27  1  1  0  0  0
 25 30  1  0  0  0  0
 25 28  1  0  0  0  0
 29 26  2  0  0  0  0
 29 31  1  0  0  0  0
 30 29  1  0  0  0  0
 30  5  1  1  0  0  0
M  END
>  <MODEL>
2

>  <REMARK>
 VINA RESULT:      -7.8      5.982      9.410
  Name = 
  1 active torsions:
  status: ('A' for Active; 'I' for Inactive)
    1  A    between atoms: C_5  and  C_30
                            x       y       z     vdW  Elec       q    Type
                         _______ _______ _______ _____ _____    ______ ____

>  <TORSDO>
F 1

$$$$
=
 OpenBabel11122411043D

 31 35  0  0  1  0  0  0  0  0999 V2000
  192.4900  177.1940  140.1710 C   0  0  0  0  0  0  0  0  0  0  0  0
  189.5640  177.6220  137.7720 C   0  0  2  0  0  3  0  0  0  0  0  0
  189.1800  176.2390  137.2650 C   0  0  0  0  0  0  0  0  0  0  0  0
  185.9790  178.2100  141.6850 O   0  0  0  0  0  0  0  0  0  0  0  0
  185.4780  178.6180  140.6040 C   0  0  0  0  0  0  0  0  0  0  0  0
  189.8380  173.9600  136.7160 C   0  0  0  0  0  0  0  0  0  0  0  0
  190.3800  177.5650  139.0380 C   0  0  0  0  0  0  0  0  0  0  0  0
  191.8500  177.3240  141.4080 C   0  0  0  0  0  3  0  0  0  0  0  0
  190.1420  175.2160  137.2430 C   0  0  0  0  0  3  0  0  0  0  0  0
  187.6610  178.3820  139.2910 C   0  0  0  0  0  0  0  0  0  0  0  0
  193.8540  176.9420  140.1190 O   0  0  0  0  0  1  0  0  0  0  0  0
  186.8290  177.0310  136.6770 C   0  0  0  0  0  2  0  0  0  0  0  0
  190.7970  172.9560  136.7170 O   0  0  0  0  0  1  0  0  0  0  0  0
  188.3460  178.0290  140.3400 N   0  0  0  0  0  0  0  0  0  0  0  0
  188.3530  178.5650  137.9520 C   0  0  2  0  0  3  0  0  0  0  0  0
  186.2730  178.7240  139.4150 N   0  0  0  0  0  2  0  0  0  0  0  0
  191.7550  177.3110  138.9870 C   0  0  0  0  0  3  0  0  0  0  0  0
  188.5730  173.7140  136.1840 C   0  0  0  0  0  3  0  0  0  0  0  0
  189.7420  177.7130  140.2820 C   0  0  0  0  0  0  0  0  0  0  0  0
  190.4780  177.5840  141.4630 C   0  0  0  0  0  3  0  0  0  0  0  0
  187.3960  178.4430  136.7650 C   0  0  0  0  0  2  0  0  0  0  0  0
  187.9110  175.9920  136.6860 C   0  0  0  0  0  0  0  0  0  0  0  0
  187.6130  174.7280  136.1710 C   0  0  0  0  0  3  0  0  0  0  0  0
  182.2690  177.5260  138.6150 C   0  0  1  0  0  3  0  0  0  0  0  0
  183.1600  177.7540  140.9220 C   0  0  0  0  0  2  0  0  0  0  0  0
  184.0020  180.7260  138.9380 O   0  0  0  0  0  0  0  0  0  0  0  0
  182.1830  176.7060  137.5060 F   0  0  0  0  0  0  0  0  0  0  0  0
  183.0040  176.8050  139.7370 C   0  0  0  0  0  2  0  0  0  0  0  0
  183.6450  179.5550  139.2280 C   0  0  0  0  0  0  0  0  0  0  0  0
  184.0230  178.9680  140.5620 C   0  0  2  0  0  3  0  0  0  0  0  0
  182.9490  178.7660  138.2580 N   0  0  0  0  0  2  0  0  0  0  0  0
  1  8  1  0  0  0  0
  2  3  1  1  0  0  0
  2 15  1  0  0  0  0
  2  7  1  0  0  0  0
  5  4  2  0  0  0  0
  6 13  1  0  0  0  0
  6  9  2  0  0  0  0
  7 19  2  0  0  0  0
  8 20  2  0  0  0  0
  9  3  1  0  0  0  0
 10 16  1  0  0  0  0
 10 14  2  0  0  0  0
 11  1  1  0  0  0  0
 12 22  1  0  0  0  0
 12 21  1  0  0  0  0
 15 21  1  6  0  0  0
 15 10  1  0  0  0  0
 16  5  1  0  0  0  0
 17  7  1  0  0  0  0
 17  1  2  0  0  0  0
 18  6  1  0  0  0  0
 19 14  1  0  0  0  0
 19 20  1  0  0  0  0
 22  3  2  0  0  0  0
 23 18  2  0  0  0  0
 23 22  1  0  0  0  0
 24 27  1  6  0  0  0
 24 28  1  0  0  0  0
 26 29  2  0  0  0  0
 28 25  1  0  0  0  0
 29 30  1  0  0  0  0
 30  5  1  6  0  0  0
 30 25  1  0  0  0  0
 31 24  1  0  0  0  0
 31 29  1  0  0  0  0
M  END
>  <MODEL>
3

>  <REMARK>
 VINA RESULT:      -7.8      3.779      5.462
  Name = 
  1 active torsions:
  status: ('A' for Active; 'I' for Inactive)
    1  A    between atoms: C_5  and  C_30
                            x       y       z     vdW  Elec       q    Type
                         _______ _______ _______ _____ _____    ______ ____

>  <TORSDO>
F 1

$$$$
=
 OpenBabel11122411043D

 31 35  0  0  1  0  0  0  0  0999 V2000
  192.4220  176.6580  138.4850 C   0  0  0  0  0  0  0  0  0  0  0  0
  189.0750  177.1430  136.7350 C   0  0  2  0  0  3  0  0  0  0  0  0
  188.5090  175.7620  136.4360 C   0  0  0  0  0  0  0  0  0  0  0  0
  186.4680  178.2630  141.2580 O   0  0  0  0  0  0  0  0  0  0  0  0
  185.7690  178.6340  140.2780 C   0  0  0  0  0  0  0  0  0  0  0  0
  188.8960  173.4070  135.9490 C   0  0  0  0  0  0  0  0  0  0  0  0
  190.1420  177.1100  137.7990 C   0  0  0  0  0  0  0  0  0  0  0  0
  192.0760  176.9190  139.8140 C   0  0  0  0  0  3  0  0  0  0  0  0
  189.3810  174.6710  136.2950 C   0  0  0  0  0  3  0  0  0  0  0  0
  187.5970  178.1450  138.5560 C   0  0  0  0  0  0  0  0  0  0  0  0
  193.7250  176.3010  138.1650 O   0  0  0  0  0  1  0  0  0  0  0  0
  186.1380  176.6870  136.2980 C   0  0  0  0  0  2  0  0  0  0  0  0
  189.7710  172.3370  135.8290 O   0  0  0  0  0  1  0  0  0  0  0  0
  188.4720  177.8130  139.4610 N   0  0  0  0  0  0  0  0  0  0  0  0
  187.9900  178.1850  137.0900 C   0  0  2  0  0  3  0  0  0  0  0  0
  186.2910  178.5980  138.9430 N   0  0  0  0  0  2  0  0  0  0  0  0
  191.4560  176.7500  137.4780 C   0  0  0  0  0  3  0  0  0  0  0  0
  187.5330  173.2230  135.7200 C   0  0  0  0  0  3  0  0  0  0  0  0
  189.8000  177.3890  139.1330 C   0  0  0  0  0  0  0  0  0  0  0  0
  190.7660  177.2850  140.1380 C   0  0  0  0  0  3  0  0  0  0  0  0
  186.7930  178.0550  136.1480 C   0  0  0  0  0  2  0  0  0  0  0  0
  187.1320  175.5730  136.1630 C   0  0  0  0  0  0  0  0  0  0  0  0
  186.6550  174.3030  135.8280 C   0  0  0  0  0  3  0  0  0  0  0  0
  182.1530  177.7130  139.0440 C   0  0  1  0  0  3  0  0  0  0  0  0
  183.5170  177.9550  141.1060 C   0  0  0  0  0  2  0  0  0  0  0  0
  184.1200  180.7860  138.8480 O   0  0  0  0  0  0  0  0  0  0  0  0
  181.7850  176.8640  138.0190 F   0  0  0  0  0  0  0  0  0  0  0  0
  183.0560  176.9800  140.0260 C   0  0  0  0  0  2  0  0  0  0  0  0
  183.7550  179.6550  139.2630 C   0  0  0  0  0  0  0  0  0  0  0  0
  184.3630  179.0880  140.5180 C   0  0  2  0  0  3  0  0  0  0  0  0
  182.8240  178.8870  138.4950 N   0  0  0  0  0  2  0  0  0  0  0  0
  1  8  1  0  0  0  0
  2  3  1  1  0  0  0
  2 15  1  0  0  0  0
  2  7  1  0  0  0  0
  5  4  2  0  0  0  0
  6  9  2  0  0  0  0
  7 19  2  0  0  0  0
  8 20  2  0  0  0  0
  9  3  1  0  0  0  0
 10 16  1  0  0  0  0
 10 14  2  0  0  0  0
 11  1  1  0  0  0  0
 13  6  1  0  0  0  0
 15 21  1  6  0  0  0
 15 10  1  0  0  0  0
 16  5  1  0  0  0  0
 17  7  1  0  0  0  0
 17  1  2  0  0  0  0
 18 23  2  0  0  0  0
 18  6  1  0  0  0  0
 19 14  1  0  0  0  0
 19 20  1  0  0  0  0
 21 12  1  0  0  0  0
 22 12  1  0  0  0  0
 22  3  2  0  0  0  0
 23 22  1  0  0  0  0
 24 27  1  6  0  0  0
 24 28  1  0  0  0  0
 26 29  2  0  0  0  0
 28 25  1  0  0  0  0
 29 30  1  0  0  0  0
 30  5  1  6  0  0  0
 30 25  1  0  0  0  0
 31 24  1  0  0  0  0
 31 29  1  0  0  0  0
M  END
>  <MODEL>
4

>  <REMARK>
 VINA RESULT:      -7.7      3.760      5.092
  Name = 
  1 active torsions:
  status: ('A' for Active; 'I' for Inactive)
    1  A    between atoms: C_5  and  C_30
                            x       y       z     vdW  Elec       q    Type
                         _______ _______ _______ _____ _____    ______ ____

>  <TORSDO>
F 1

$$$$
=
 OpenBabel11122411043D

 31 35  0  0  1  0  0  0  0  0999 V2000
  183.6010  179.0000  143.4300 C   0  0  0  0  0  0  0  0  0  0  0  0
  182.6050  177.8820  139.9290 C   0  0  2  0  0  3  0  0  0  0  0  0
  181.7730  178.9970  139.3100 C   0  0  0  0  0  0  0  0  0  0  0  0
  187.3830  179.0030  137.8240 O   0  0  0  0  0  0  0  0  0  0  0  0
  186.7510  178.2520  137.0340 C   0  0  0  0  0  0  0  0  0  0  0  0
  180.2390  180.8650  139.6020 C   0  0  0  0  0  0  0  0  0  0  0  0
  183.4260  178.3580  141.0990 C   0  0  0  0  0  0  0  0  0  0  0  0
  184.9320  179.3780  143.2270 C   0  0  0  0  0  3  0  0  0  0  0  0
  181.0670  179.8790  140.1430 C   0  0  0  0  0  3  0  0  0  0  0  0
  184.8200  177.8540  138.6650 C   0  0  0  0  0  0  0  0  0  0  0  0
  183.0250  179.1340  144.6850 O   0  0  0  0  0  1  0  0  0  0  0  0
  182.3060  178.1810  136.9540 C   0  0  0  0  0  2  0  0  0  0  0  0
  179.5610  181.7390  140.4410 O   0  0  0  0  0  1  0  0  0  0  0  0
  185.3850  178.5320  139.6230 N   0  0  0  0  0  0  0  0  0  0  0  0
  183.4990  177.1460  138.9060 C   0  0  2  0  0  3  0  0  0  0  0  0
  185.4990  177.6650  137.4150 N   0  0  0  0  0  2  0  0  0  0  0  0
  182.8480  178.4940  142.3660 C   0  0  0  0  0  3  0  0  0  0  0  0
  180.0890  180.9680  138.2190 C   0  0  0  0  0  3  0  0  0  0  0  0
  184.7700  178.7210  140.9020 C   0  0  0  0  0  0  0  0  0  0  0  0
  185.5160  179.2370  141.9650 C   0  0  0  0  0  3  0  0  0  0  0  0
  182.7250  176.8730  137.6150 C   0  0  0  0  0  2  0  0  0  0  0  0
  181.5840  179.0840  137.9090 C   0  0  0  0  0  0  0  0  0  0  0  0
  180.7610  180.0800  137.3770 C   0  0  0  0  0  3  0  0  0  0  0  0
  187.2230  175.2080  134.5940 C   0  0  1  0  0  3  0  0  0  0  0  0
  186.2230  177.4780  134.7230 C   0  0  0  0  0  2  0  0  0  0  0  0
  189.5940  177.4920  136.1760 O   0  0  0  0  0  0  0  0  0  0  0  0
  187.0270  173.8640  134.8480 F   0  0  0  0  0  0  0  0  0  0  0  0
  185.9610  175.9890  134.9340 C   0  0  0  0  0  2  0  0  0  0  0  0
  188.4950  177.0710  135.7330 C   0  0  0  0  0  0  0  0  0  0  0  0
  187.3100  177.9970  135.6700 C   0  0  2  0  0  3  0  0  0  0  0  0
  188.3610  175.6940  135.3660 N   0  0  0  0  0  2  0  0  0  0  0  0
  1 11  1  0  0  0  0
  2  3  1  6  0  0  0
  2  7  1  0  0  0  0
  3  9  1  0  0  0  0
  5 16  1  0  0  0  0
  5  4  2  0  0  0  0
  6  9  2  0  0  0  0
  6 13  1  0  0  0  0
  7 17  1  0  0  0  0
  8  1  1  0  0  0  0
 10 15  1  0  0  0  0
 10 14  2  0  0  0  0
 12 21  1  0  0  0  0
 12 22  1  0  0  0  0
 14 19  1  0  0  0  0
 15 21  1  6  0  0  0
 15  2  1  0  0  0  0
 16 10  1  0  0  0  0
 17  1  2  0  0  0  0
 18  6  1  0  0  0  0
 19  7  2  0  0  0  0
 19 20  1  0  0  0  0
 20  8  2  0  0  0  0
 22  3  2  0  0  0  0
 23 22  1  0  0  0  0
 23 18  2  0  0  0  0
 24 27  1  1  0  0  0
 24 28  1  0  0  0  0
 24 31  1  0  0  0  0
 25 28  1  0  0  0  0
 25 30  1  0  0  0  0
 29 26  2  0  0  0  0
 30 29  1  0  0  0  0
 30  5  1  1  0  0  0
 31 29  1  0  0  0  0
M  END
>  <MODEL>
5

>  <REMARK>
 VINA RESULT:      -7.2      5.497      9.184
  Name = 
  1 active torsions:
  status: ('A' for Active; 'I' for Inactive)
    1  A    between atoms: C_5  and  C_30
                            x       y       z     vdW  Elec       q    Type
                         _______ _______ _______ _____ _____    ______ ____

>  <TORSDO>
F 1

$$$$
=
 OpenBabel11122411043D

 31 35  0  0  1  0  0  0  0  0999 V2000
  190.3620  177.0910  137.8410 C   0  0  0  0  0  0  0  0  0  0  0  0
  186.7870  176.6950  136.5950 C   0  0  2  0  0  3  0  0  0  0  0  0
  186.3420  175.2740  136.9160 C   0  0  0  0  0  0  0  0  0  0  0  0
  184.6720  179.2940  140.7530 O   0  0  0  0  0  0  0  0  0  0  0  0
  183.8160  179.2280  139.8300 C   0  0  0  0  0  0  0  0  0  0  0  0
  186.9220  172.9350  137.2650 C   0  0  0  0  0  0  0  0  0  0  0  0
  187.9770  177.1250  137.4120 C   0  0  0  0  0  0  0  0  0  0  0  0
  190.1620  177.8140  139.0210 C   0  0  0  0  0  3  0  0  0  0  0  0
  187.3050  174.2600  137.0440 C   0  0  0  0  0  3  0  0  0  0  0  0
  185.4510  178.2270  138.1360 C   0  0  0  0  0  0  0  0  0  0  0  0
  191.6450  176.7110  137.4690 O   0  0  0  0  0  1  0  0  0  0  0  0
  183.8860  175.9480  136.8300 C   0  0  0  0  0  2  0  0  0  0  0  0
  187.8880  171.9480  137.4060 O   0  0  0  0  0  1  0  0  0  0  0  0
  186.4660  178.3100  138.9470 N   0  0  0  0  0  0  0  0  0  0  0  0
  185.6470  177.7320  136.7140 C   0  0  2  0  0  3  0  0  0  0  0  0
  184.1640  178.7210  138.5350 N   0  0  0  0  0  2  0  0  0  0  0  0
  189.2710  176.7430  137.0390 C   0  0  0  0  0  3  0  0  0  0  0  0
  185.5700  172.6030  137.3410 C   0  0  0  0  0  3  0  0  0  0  0  0
  187.7800  177.8670  138.5890 C   0  0  0  0  0  0  0  0  0  0  0  0
  188.8730  178.2030  139.3940 C   0  0  0  0  0  3  0  0  0  0  0  0
  184.3610  177.1920  136.0890 C   0  0  0  0  0  2  0  0  0  0  0  0
  184.9720  174.9210  136.9540 C   0  0  0  0  0  0  0  0  0  0  0  0
  184.5990  173.5940  137.1870 C   0  0  0  0  0  3  0  0  0  0  0  0
  180.1760  178.1850  138.7790 C   0  0  1  0  0  3  0  0  0  0  0  0
  181.6140  178.5350  140.7740 C   0  0  0  0  0  2  0  0  0  0  0  0
  182.0640  181.2880  138.3880 O   0  0  0  0  0  0  0  0  0  0  0  0
  179.7870  177.2890  137.8020 F   0  0  0  0  0  0  0  0  0  0  0  0
  181.1340  177.5090  139.7510 C   0  0  0  0  0  2  0  0  0  0  0  0
  181.7410  180.1670  138.8590 C   0  0  0  0  0  0  0  0  0  0  0  0
  182.4110  179.6620  140.1090 C   0  0  2  0  0  3  0  0  0  0  0  0
  180.7970  179.3500  138.1590 N   0  0  0  0  0  2  0  0  0  0  0  0
  1  8  1  0  0  0  0
  2 15  1  0  0  0  0
  2  3  1  1  0  0  0
  2  7  1  0  0  0  0
  3 22  2  0  0  0  0
  3  9  1  0  0  0  0
  5  4  2  0  0  0  0
  6 18  1  0  0  0  0
  6 13  1  0  0  0  0
  7 19  2  0  0  0  0
  8 20  2  0  0  0  0
  9  6  2  0  0  0  0
 10 16  1  0  0  0  0
 10 14  2  0  0  0  0
 11  1  1  0  0  0  0
 12 22  1  0  0  0  0
 15 21  1  1  0  0  0
 15 10  1  0  0  0  0
 16  5  1  0  0  0  0
 17  7  1  0  0  0  0
 17  1  2  0  0  0  0
 19 14  1  0  0  0  0
 19 20  1  0  0  0  0
 21 12  1  0  0  0  0
 22 23  1  0  0  0  0
 23 18  2  0  0  0  0
 24 27  1  6  0  0  0
 24 28  1  0  0  0  0
 26 29  2  0  0  0  0
 28 25  1  0  0  0  0
 29 30  1  0  0  0  0
 30  5  1  6  0  0  0
 30 25  1  0  0  0  0
 31 24  1  0  0  0  0
 31 29  1  0  0  0  0
M  END
>  <MODEL>
6

>  <REMARK>
 VINA RESULT:      -7.1      4.784      6.475
  Name = 
  1 active torsions:
  status: ('A' for Active; 'I' for Inactive)
    1  A    between atoms: C_5  and  C_30
                            x       y       z     vdW  Elec       q    Type
                         _______ _______ _______ _____ _____    ______ ____

>  <TORSDO>
F 1

$$$$
=
 OpenBabel11122411043D

 31 35  0  0  1  0  0  0  0  0999 V2000
  179.7050  179.2660  142.8730 C   0  0  0  0  0  0  0  0  0  0  0  0
  183.2230  179.3510  141.4210 C   0  0  2  0  0  3  0  0  0  0  0  0
  184.1740  178.8290  142.4880 C   0  0  0  0  0  0  0  0  0  0  0  0
  182.5260  174.9090  138.5400 O   0  0  0  0  0  0  0  0  0  0  0  0
  183.5360  175.5250  138.1080 C   0  0  0  0  0  0  0  0  0  0  0  0
  184.7060  178.5340  144.8460 C   0  0  0  0  0  0  0  0  0  0  0  0
  181.7920  178.9580  141.6810 C   0  0  0  0  0  0  0  0  0  0  0  0
  179.1820  178.1250  142.2570 C   0  0  0  0  0  3  0  0  0  0  0  0
  183.8220  178.9370  143.8430 C   0  0  0  0  0  3  0  0  0  0  0  0
  183.1510  177.5720  139.5940 C   0  0  0  0  0  0  0  0  0  0  0  0
  178.9310  179.9840  143.7740 O   0  0  0  0  0  1  0  0  0  0  0  0
  185.9170  178.2100  140.7340 C   0  0  0  0  0  2  0  0  0  0  0  0
  184.3340  178.6340  146.1800 O   0  0  0  0  0  1  0  0  0  0  0  0
  182.0330  177.1100  140.0760 N   0  0  0  0  0  0  0  0  0  0  0  0
  183.6390  178.9550  139.9850 C   0  0  2  0  0  3  0  0  0  0  0  0
  183.8680  176.8340  138.5940 N   0  0  0  0  0  2  0  0  0  0  0  0
  181.0100  179.6800  142.5890 C   0  0  0  0  0  3  0  0  0  0  0  0
  185.9630  178.0360  144.5090 C   0  0  0  0  0  3  0  0  0  0  0  0
  181.2590  177.8210  141.0480 C   0  0  0  0  0  0  0  0  0  0  0  0
  179.9580  177.4040  141.3440 C   0  0  0  0  0  3  0  0  0  0  0  0
  185.1470  179.1310  139.7960 C   0  0  0  0  0  2  0  0  0  0  0  0
  185.4680  178.3590  142.1570 C   0  0  0  0  0  0  0  0  0  0  0  0
  186.3420  177.9480  143.1680 C   0  0  0  0  0  3  0  0  0  0  0  0
  183.2160  172.7610  135.3320 C   0  0  1  0  0  3  0  0  0  0  0  0
  183.9000  175.1250  135.6730 C   0  0  0  0  0  2  0  0  0  0  0  0
  185.2720  173.0100  138.3420 O   0  0  0  0  0  0  0  0  0  0  0  0
  182.1570  171.9090  135.0870 F   0  0  0  0  0  0  0  0  0  0  0  0
  182.7340  174.2050  135.3200 C   0  0  0  0  0  2  0  0  0  0  0  0
  184.5580  173.3910  137.3790 C   0  0  0  0  0  0  0  0  0  0  0  0
  184.4140  174.8620  137.0930 C   0  0  2  0  0  3  0  0  0  0  0  0
  183.8290  172.4270  136.6140 N   0  0  0  0  0  2  0  0  0  0  0  0
  1 11  1  0  0  0  0
  2  7  1  1  0  0  0
  2  3  1  0  0  0  0
  3  9  1  0  0  0  0
  5  4  2  0  0  0  0
  5 16  1  0  0  0  0
  6 13  1  0  0  0  0
  7 17  2  0  0  0  0
  8  1  2  0  0  0  0
  9  6  2  0  0  0  0
 10 15  1  0  0  0  0
 10 14  2  0  0  0  0
 12 22  1  0  0  0  0
 14 19  1  0  0  0  0
 15 21  1  1  0  0  0
 15  2  1  0  0  0  0
 16 10  1  0  0  0  0
 17  1  1  0  0  0  0
 18  6  1  0  0  0  0
 19 20  2  0  0  0  0
 19  7  1  0  0  0  0
 20  8  1  0  0  0  0
 21 12  1  0  0  0  0
 22  3  2  0  0  0  0
 22 23  1  0  0  0  0
 23 18  2  0  0  0  0
 24 27  1  1  0  0  0
 24 31  1  0  0  0  0
 25 30  1  0  0  0  0
 28 24  1  0  0  0  0
 28 25  1  0  0  0  0
 29 26  2  0  0  0  0
 30 29  1  0  0  0  0
 30  5  1  1  0  0  0
 31 29  1  0  0  0  0
M  END
>  <MODEL>
7

>  <REMARK>
 VINA RESULT:      -7.0      6.153     10.552
  Name = 
  1 active torsions:
  status: ('A' for Active; 'I' for Inactive)
    1  A    between atoms: C_5  and  C_30
                            x       y       z     vdW  Elec       q    Type
                         _______ _______ _______ _____ _____    ______ ____

>  <TORSDO>
F 1

$$$$
=
 OpenBabel11122411043D

 31 35  0  0  1  0  0  0  0  0999 V2000
  179.7910  178.1380  142.1900 C   0  0  0  0  0  0  0  0  0  0  0  0
  183.1330  179.0710  140.6220 C   0  0  2  0  0  3  0  0  0  0  0  0
  184.2260  178.6930  141.6120 C   0  0  0  0  0  0  0  0  0  0  0  0
  183.2370  174.7890  137.4340 O   0  0  0  0  0  0  0  0  0  0  0  0
  184.0710  175.6340  137.0140 C   0  0  0  0  0  0  0  0  0  0  0  0
  184.9290  178.3580  143.9190 C   0  0  0  0  0  0  0  0  0  0  0  0
  181.8320  178.3650  140.9030 C   0  0  0  0  0  0  0  0  0  0  0  0
  179.4890  176.9570  141.5060 C   0  0  0  0  0  3  0  0  0  0  0  0
  183.9290  178.6310  142.9820 C   0  0  0  0  0  3  0  0  0  0  0  0
  183.3420  177.4460  138.6680 C   0  0  0  0  0  0  0  0  0  0  0  0
  178.9310  178.6120  143.1720 O   0  0  0  0  0  1  0  0  0  0  0  0
  185.9670  178.5800  139.7530 C   0  0  0  0  0  2  0  0  0  0  0  0
  184.6140  178.2850  145.2690 O   0  0  0  0  0  1  0  0  0  0  0  0
  182.3730  176.7250  139.1520 N   0  0  0  0  0  0  0  0  0  0  0  0
  183.5480  178.8720  139.1470 C   0  0  2  0  0  3  0  0  0  0  0  0
  184.1450  176.9470  137.5880 N   0  0  0  0  0  2  0  0  0  0  0  0
  180.9630  178.8400  141.8920 C   0  0  0  0  0  3  0  0  0  0  0  0
  186.2440  178.1640  143.4990 C   0  0  0  0  0  3  0  0  0  0  0  0
  181.5170  177.1860  140.2040 C   0  0  0  0  0  0  0  0  0  0  0  0
  180.3500  176.4820  140.5130 C   0  0  0  0  0  3  0  0  0  0  0  0
  184.9730  179.3780  138.9170 C   0  0  0  0  0  2  0  0  0  0  0  0
  185.5710  178.5330  141.1980 C   0  0  0  0  0  0  0  0  0  0  0  0
  186.5630  178.2500  142.1420 C   0  0  0  0  0  3  0  0  0  0  0  0
  187.9340  175.7680  136.3050 C   0  0  1  0  0  3  0  0  0  0  0  0
  186.0160  174.1940  136.4130 C   0  0  0  0  0  2  0  0  0  0  0  0
  185.0590  177.2370  134.5950 O   0  0  0  0  0  0  0  0  0  0  0  0
  188.9190  176.4100  137.0300 F   0  0  0  0  0  0  0  0  0  0  0  0
  187.1490  174.8310  137.2130 C   0  0  0  0  0  2  0  0  0  0  0  0
  185.7010  176.4520  135.3390 C   0  0  0  0  0  0  0  0  0  0  0  0
  185.0150  175.2440  135.9200 C   0  0  2  0  0  3  0  0  0  0  0  0
  187.0550  176.7560  135.6890 N   0  0  0  0  0  2  0  0  0  0  0  0
  1 11  1  0  0  0  0
  2  7  1  1  0  0  0
  2  3  1  0  0  0  0
  3  9  1  0  0  0  0
  5  4  2  0  0  0  0
  5 16  1  0  0  0  0
  6 13  1  0  0  0  0
  7 17  2  0  0  0  0
  8  1  2  0  0  0  0
  9  6  2  0  0  0  0
 10 15  1  0  0  0  0
 10 14  2  0  0  0  0
 12 22  1  0  0  0  0
 14 19  1  0  0  0  0
 15 21  1  1  0  0  0
 15  2  1  0  0  0  0
 16 10  1  0  0  0  0
 17  1  1  0  0  0  0
 18  6  1  0  0  0  0
 19 20  2  0  0  0  0
 19  7  1  0  0  0  0
 20  8  1  0  0  0  0
 21 12  1  0  0  0  0
 22  3  2  0  0  0  0
 22 23  1  0  0  0  0
 23 18  2  0  0  0  0
 24 27  1  1  0  0  0
 24 28  1  0  0  0  0
 25 28  1  0  0  0  0
 26 29  2  0  0  0  0
 29 31  1  0  0  0  0
 29 30  1  0  0  0  0
 30 25  1  0  0  0  0
 30  5  1  1  0  0  0
 31 24  1  0  0  0  0
M  END
>  <MODEL>
8

>  <REMARK>
 VINA RESULT:      -6.9      5.214      9.664
  Name = 
  1 active torsions:
  status: ('A' for Active; 'I' for Inactive)
    1  A    between atoms: C_5  and  C_30
                            x       y       z     vdW  Elec       q    Type
                         _______ _______ _______ _____ _____    ______ ____

>  <TORSDO>
F 1

$$$$
=
 OpenBabel11122411043D

 31 35  0  0  1  0  0  0  0  0999 V2000
  191.4490  176.8430  138.8130 C   0  0  0  0  0  0  0  0  0  0  0  0
  188.1380  177.0690  136.9470 C   0  0  2  0  0  3  0  0  0  0  0  0
  187.5960  175.6540  136.7980 C   0  0  0  0  0  0  0  0  0  0  0  0
  185.4120  178.6640  141.2530 O   0  0  0  0  0  0  0  0  0  0  0  0
  184.7310  178.9070  140.2210 C   0  0  0  0  0  0  0  0  0  0  0  0
  188.0260  173.2660  136.5960 C   0  0  0  0  0  0  0  0  0  0  0  0
  189.1790  177.1770  138.0300 C   0  0  0  0  0  0  0  0  0  0  0  0
  191.0680  177.2500  140.0950 C   0  0  0  0  0  3  0  0  0  0  0  0
  188.4860  174.5680  136.8030 C   0  0  0  0  0  3  0  0  0  0  0  0
  186.6040  178.2520  138.6070 C   0  0  0  0  0  0  0  0  0  0  0  0
  192.7630  176.4720  138.5640 O   0  0  0  0  0  1  0  0  0  0  0  0
  185.2170  176.5200  136.5020 C   0  0  0  0  0  2  0  0  0  0  0  0
  188.9180  172.2020  136.6190 O   0  0  0  0  0  1  0  0  0  0  0  0
  187.4620  178.0410  139.5630 N   0  0  0  0  0  0  0  0  0  0  0  0
  187.0310  178.1280  137.1550 C   0  0  2  0  0  3  0  0  0  0  0  0
  185.2840  178.7260  138.9110 N   0  0  0  0  0  2  0  0  0  0  0  0
  190.5050  176.8030  137.7820 C   0  0  0  0  0  3  0  0  0  0  0  0
  186.6710  173.0340  136.3600 C   0  0  0  0  0  3  0  0  0  0  0  0
  188.8030  177.6030  139.3160 C   0  0  0  0  0  0  0  0  0  0  0  0
  189.7470  177.6310  140.3460 C   0  0  0  0  0  3  0  0  0  0  0  0
  185.8580  177.8710  136.2090 C   0  0  0  0  0  2  0  0  0  0  0  0
  186.2290  175.4130  136.5190 C   0  0  0  0  0  0  0  0  0  0  0  0
  185.7760  174.1050  136.3240 C   0  0  0  0  0  3  0  0  0  0  0  0
  181.1990  178.0210  138.7420 C   0  0  1  0  0  3  0  0  0  0  0  0
  182.4270  178.2260  140.8910 C   0  0  0  0  0  2  0  0  0  0  0  0
  183.1850  181.0880  138.7200 O   0  0  0  0  0  0  0  0  0  0  0  0
  180.8950  177.1900  137.6820 F   0  0  0  0  0  0  0  0  0  0  0  0
  182.0340  177.2690  139.7690 C   0  0  0  0  0  2  0  0  0  0  0  0
  182.7910  179.9530  139.0930 C   0  0  0  0  0  0  0  0  0  0  0  0
  183.3140  179.3640  140.3760 C   0  0  2  0  0  3  0  0  0  0  0  0
  181.9080  179.2000  138.2550 N   0  0  0  0  0  2  0  0  0  0  0  0
  1  8  1  0  0  0  0
  2  3  1  1  0  0  0
  2 15  1  0  0  0  0
  2  7  1  0  0  0  0
  3  9  1  0  0  0  0
  5  4  2  0  0  0  0
  6 13  1  0  0  0  0
  6  9  2  0  0  0  0
  7 19  2  0  0  0  0
  8 20  2  0  0  0  0
 10 16  1  0  0  0  0
 10 14  2  0  0  0  0
 11  1  1  0  0  0  0
 12 22  1  0  0  0  0
 15 21  1  6  0  0  0
 15 10  1  0  0  0  0
 16  5  1  0  0  0  0
 17  7  1  0  0  0  0
 17  1  2  0  0  0  0
 18  6  1  0  0  0  0
 19 14  1  0  0  0  0
 19 20  1  0  0  0  0
 21 12  1  0  0  0  0
 22  3  2  0  0  0  0
 23 18  2  0  0  0  0
 23 22  1  0  0  0  0
 24 27  1  6  0  0  0
 24 28  1  0  0  0  0
 26 29  2  0  0  0  0
 28 25  1  0  0  0  0
 29 30  1  0  0  0  0
 30  5  1  6  0  0  0
 30 25  1  0  0  0  0
 31 24  1  0  0  0  0
 31 29  1  0  0  0  0
M  END
>  <MODEL>
9

>  <REMARK>
 VINA RESULT:      -6.9      4.209      5.759
  Name = 
  1 active torsions:
  status: ('A' for Active; 'I' for Inactive)
    1  A    between atoms: C_5  and  C_30
                            x       y       z     vdW  Elec       q    Type
                         _______ _______ _______ _____ _____    ______ ____

>  <TORSDO>
F 1

$$$$
