=
 OpenBabel11122412213D

 34 42  0  0  1  0  0  0  0  0999 V2000
  184.4250  179.5450  139.2600 C   0  0  1  0  0  3  0  0  0  0  0  0
  183.9530  178.2730  141.4480 C   0  0  0  0  0  2  0  0  0  0  0  0
  185.9650  175.1480  134.8730 C   0  0  1  0  0  3  0  0  0  0  0  0
  184.1980  177.1860  138.2490 C   0  0  1  0  0  3  0  0  0  0  0  0
  186.2340  176.6580  136.7380 C   0  0  2  0  0  3  0  0  0  0  0  0
  188.3330  175.5480  135.7760 C   0  0  0  0  0  2  0  0  0  0  0  0
  187.3890  175.5810  134.6060 C   0  0  2  0  0  3  0  0  0  0  0  0
  184.2720  173.9370  136.1710 C   0  0  0  0  0  2  0  0  0  0  0  0
  186.1830  179.0630  141.0890 C   0  0  2  0  0  3  0  0  0  0  0  0
  188.4750  178.1300  142.8030 C   0  0  0  0  0  2  0  0  0  0  0  0
  187.0020  176.9840  137.9430 N   0  0  0  0  0  2  0  0  0  0  0  0
  184.5090  174.7990  137.4400 C   0  0  0  0  0  2  0  0  0  0  0  0
  186.8630  178.0600  140.1220 C   0  0  1  0  0  3  0  0  0  0  0  0
  184.6830  177.7640  142.4300 C   0  0  0  0  0  2  0  0  0  0  0  0
  184.7560  176.3000  137.1320 C   0  0  1  0  0  3  0  0  0  0  0  0
  185.5080  173.7640  135.2590 C   0  0  0  0  0  2  0  0  0  0  0  0
  187.1240  177.4410  142.9020 C   0  0  2  0  0  3  0  0  0  0  0  0
  185.0270  178.4720  138.3530 C   0  0  2  0  0  3  0  0  0  0  0  0
  186.8550  175.4510  136.0500 C   0  0  1  0  0  0  0  0  0  0  0  0
  186.5190  178.1960  138.6290 C   0  0  2  0  0  3  0  0  0  0  0  0
  182.1520  178.4800  138.9400 C   0  0  0  0  0  2  0  0  0  0  0  0
  189.0580  178.0720  141.4180 C   0  0  0  0  0  3  0  0  0  0  0  0
  182.7430  177.5190  137.9170 C   0  0  0  0  0  2  0  0  0  0  0  0
  188.3670  178.0830  140.2660 C   0  0  0  0  0  3  0  0  0  0  0  0
  186.0230  178.4220  142.4840 C   0  0  1  0  0  3  0  0  0  0  0  0
  182.9420  179.7860  138.9580 C   0  0  0  0  0  2  0  0  0  0  0  0
  184.7190  179.3450  140.7480 C   0  0  1  0  0  3  0  0  0  0  0  0
  186.9150  177.0330  144.2220 O   0  0  0  0  0  0  0  0  0  0  0  0
  187.8400  177.7620  144.9730 C   0  0  0  0  0  2  0  0  0  0  0  0
  189.7030  177.8330  147.7930 O   0  0  0  0  0  0  0  0  0  0  0  0
  187.5110  177.8520  147.4200 C   0  0  0  0  0  3  0  0  0  0  0  0
  188.1010  177.0630  146.2960 C   0  0  2  0  0  3  0  0  0  0  0  0
  188.4650  178.2600  148.2340 C   0  0  0  0  0  3  0  0  0  0  0  0
  189.5960  177.0830  146.5960 C   0  0  0  0  0  2  0  0  0  0  0  0
  1 26  1  1  0  0  0
  1 27  1  0  0  0  0
  2 14  1  0  0  0  0
  3 16  1  1  0  0  0
  3 19  1  0  0  0  0
  4 23  1  6  0  0  0
  4 18  1  0  0  0  0
  5 15  1  0  0  0  0
  5 11  1  1  0  0  0
  6 19  1  0  0  0  0
  7  3  1  0  0  0  0
  7  6  1  1  0  0  0
  7 19  1  0  0  0  0
  8 12  1  0  0  0  0
  9 25  1  0  0  0  0
 10 17  1  0  0  0  0
 11 20  1  0  0  0  0
 13 24  1  0  0  0  0
 13  9  1  0  0  0  0
 14 25  1  0  0  0  0
 15 12  1  0  0  0  0
 15  4  1  0  0  0  0
 16  8  1  0  0  0  0
 17 28  1  0  0  0  0
 18 20  1  0  0  0  0
 18  1  1  0  0  0  0
 19  5  1  0  0  0  0
 20 13  1  0  0  0  0
 21 26  1  0  0  0  0
 22 10  1  0  0  0  0
 23 21  1  0  0  0  0
 24 22  2  0  0  0  0
 25 17  1  0  0  0  0
 27  9  1  0  0  0  0
 27  2  1  0  0  0  0
 28 29  1  0  0  0  0
 29 32  1  0  0  0  0
 30 33  1  0  0  0  0
 31 33  2  0  0  0  0
 32 34  1  0  0  0  0
 32 31  1  0  0  0  0
 34 30  1  0  0  0  0
M  END
>  <MODEL>
1

>  <REMARK>
 VINA RESULT:      -8.0      0.000      0.000
  Name = 
  3 active torsions:
  status: ('A' for Active; 'I' for Inactive)
    1  A    between atoms: C_17  and  O_28
    2  A    between atoms: O_28  and  C_29
    3  A    between atoms: C_29  and  C_32
                            x       y       z     vdW  Elec       q    Type
                         _______ _______ _______ _____ _____    ______ ____

>  <TORSDO>
F 3

$$$$
=
 OpenBabel11122412213D

 34 42  0  0  1  0  0  0  0  0999 V2000
  189.1510  178.7760  137.7120 C   0  0  1  0  0  3  0  0  0  0  0  0
  187.4420  178.0060  139.4760 C   0  0  0  0  0  2  0  0  0  0  0  0
  191.8480  173.4820  135.3320 C   0  0  1  0  0  3  0  0  0  0  0  0
  189.0380  176.2950  137.0270 C   0  0  1  0  0  3  0  0  0  0  0  0
  191.4240  175.2990  136.8660 C   0  0  2  0  0  3  0  0  0  0  0  0
  193.4880  173.8360  137.2740 C   0  0  0  0  0  2  0  0  0  0  0  0
  193.2680  173.7240  135.7900 C   0  0  2  0  0  3  0  0  0  0  0  0
  189.5500  172.7070  135.7040 C   0  0  0  0  0  2  0  0  0  0  0  0
  189.6570  178.5060  140.2290 C   0  0  2  0  0  3  0  0  0  0  0  0
  190.5950  177.7250  142.9810 C   0  0  0  0  0  2  0  0  0  0  0  0
  191.5400  175.7840  138.2430 N   0  0  0  0  0  2  0  0  0  0  0  0
  189.2780  173.7770  136.7950 C   0  0  0  0  0  2  0  0  0  0  0  0
  190.5360  177.2750  139.8850 C   0  0  1  0  0  3  0  0  0  0  0  0
  187.4870  177.6360  140.7470 C   0  0  0  0  0  2  0  0  0  0  0  0
  189.9080  175.1600  136.4780 C   0  0  1  0  0  3  0  0  0  0  0  0
  191.0220  172.2490  135.5920 C   0  0  0  0  0  2  0  0  0  0  0  0
  189.2730  177.1940  142.4500 C   0  0  2  0  0  3  0  0  0  0  0  0
  189.9210  177.4960  137.3860 C   0  0  2  0  0  3  0  0  0  0  0  0
  192.0770  173.9290  136.7520 C   0  0  1  0  0  0  0  0  0  0  0  0
  191.0050  177.1460  138.4260 C   0  0  2  0  0  3  0  0  0  0  0  0
  187.1860  177.8780  136.3950 C   0  0  0  0  0  2  0  0  0  0  0  0
  191.7650  177.3440  142.1170 C   0  0  0  0  0  3  0  0  0  0  0  0
  188.0240  176.6850  135.9520 C   0  0  0  0  0  2  0  0  0  0  0  0
  191.7480  177.1900  140.7820 C   0  0  0  0  0  3  0  0  0  0  0  0
  188.7180  178.1680  141.4060 C   0  0  1  0  0  3  0  0  0  0  0  0
  188.0820  179.0860  136.6590 C   0  0  0  0  0  2  0  0  0  0  0  0
  188.6310  178.8460  139.1480 C   0  0  1  0  0  3  0  0  0  0  0  0
  188.3710  177.0730  143.5100 O   0  0  0  0  0  0  0  0  0  0  0  0
  188.9860  177.7270  144.5800 C   0  0  0  0  0  2  0  0  0  0  0  0
  188.9140  178.0830  147.9410 O   0  0  0  0  0  0  0  0  0  0  0  0
  187.3540  177.6030  146.4320 C   0  0  0  0  0  3  0  0  0  0  0  0
  188.6250  177.0380  145.8850 C   0  0  2  0  0  3  0  0  0  0  0  0
  187.5810  178.1800  147.5960 C   0  0  0  0  0  3  0  0  0  0  0  0
  189.6570  177.3950  146.9500 C   0  0  0  0  0  2  0  0  0  0  0  0
  1 26  1  6  0  0  0
  1 27  1  0  0  0  0
  2 14  1  0  0  0  0
  3 16  1  1  0  0  0
  3  7  1  0  0  0  0
  3 19  1  0  0  0  0
  4 23  1  6  0  0  0
  4 18  1  0  0  0  0
  5 11  1  1  0  0  0
  7 19  1  0  0  0  0
  7  6  1  1  0  0  0
  8 12  1  0  0  0  0
  9 25  1  0  0  0  0
 11 20  1  0  0  0  0
 13  9  1  0  0  0  0
 13 24  1  0  0  0  0
 14 25  1  0  0  0  0
 15 12  1  0  0  0  0
 15  5  1  0  0  0  0
 15  4  1  0  0  0  0
 16  8  1  0  0  0  0
 17 10  1  0  0  0  0
 17 28  1  0  0  0  0
 18  1  1  0  0  0  0
 18 20  1  0  0  0  0
 19  5  1  0  0  0  0
 19  6  1  0  0  0  0
 20 13  1  0  0  0  0
 21 26  1  0  0  0  0
 22 10  1  0  0  0  0
 23 21  1  0  0  0  0
 24 22  2  0  0  0  0
 25 17  1  0  0  0  0
 27  2  1  0  0  0  0
 27  9  1  0  0  0  0
 28 29  1  0  0  0  0
 29 32  1  0  0  0  0
 31 33  2  0  0  0  0
 32 31  1  0  0  0  0
 32 34  1  0  0  0  0
 33 30  1  0  0  0  0
 34 30  1  0  0  0  0
M  END
>  <MODEL>
2

>  <REMARK>
 VINA RESULT:      -7.5      2.823      4.265
  Name = 
  3 active torsions:
  status: ('A' for Active; 'I' for Inactive)
    1  A    between atoms: C_17  and  O_28
    2  A    between atoms: O_28  and  C_29
    3  A    between atoms: C_29  and  C_32
                            x       y       z     vdW  Elec       q    Type
                         _______ _______ _______ _____ _____    ______ ____

>  <TORSDO>
F 3

$$$$
=
 OpenBabel11122412213D

 34 42  0  0  1  0  0  0  0  0999 V2000
  188.6430  178.3780  136.3540 C   0  0  1  0  0  3  0  0  0  0  0  0
  187.0000  178.0520  138.3090 C   0  0  0  0  0  2  0  0  0  0  0  0
  190.5890  172.5400  134.5960 C   0  0  1  0  0  3  0  0  0  0  0  0
  188.2220  175.8560  136.0370 C   0  0  1  0  0  3  0  0  0  0  0  0
  190.4720  174.5830  135.8780 C   0  0  2  0  0  3  0  0  0  0  0  0
  192.3980  172.9650  136.3650 C   0  0  0  0  0  2  0  0  0  0  0  0
  192.0580  172.6790  134.9280 C   0  0  2  0  0  3  0  0  0  0  0  0
  188.2580  172.0880  135.2100 C   0  0  0  0  0  2  0  0  0  0  0  0
  189.3060  178.3950  138.8490 C   0  0  2  0  0  3  0  0  0  0  0  0
  190.3610  177.8920  141.6220 C   0  0  0  0  0  2  0  0  0  0  0  0
  190.7410  175.2340  137.1620 N   0  0  0  0  0  2  0  0  0  0  0  0
  188.1810  173.3190  136.1520 C   0  0  0  0  0  2  0  0  0  0  0  0
  190.0230  177.0380  138.6310 C   0  0  1  0  0  3  0  0  0  0  0  0
  187.1020  177.8550  139.6140 C   0  0  0  0  0  2  0  0  0  0  0  0
  188.9250  174.5660  135.6050 C   0  0  1  0  0  3  0  0  0  0  0  0
  189.6610  171.4550  135.0770 C   0  0  0  0  0  2  0  0  0  0  0  0
  188.9550  177.4470  141.2530 C   0  0  2  0  0  3  0  0  0  0  0  0
  189.2490  176.9870  136.1680 C   0  0  2  0  0  3  0  0  0  0  0  0
  190.9690  173.1460  135.9210 C   0  0  1  0  0  0  0  0  0  0  0  0
  190.3650  176.6600  137.1800 C   0  0  2  0  0  3  0  0  0  0  0  0
  186.5020  177.5390  135.2980 C   0  0  0  0  0  2  0  0  0  0  0  0
  191.4170  177.2670  140.7530 C   0  0  0  0  0  3  0  0  0  0  0  0
  187.1750  176.2100  134.9800 C   0  0  0  0  0  2  0  0  0  0  0  0
  191.2840  176.9380  139.4580 C   0  0  0  0  0  3  0  0  0  0  0  0
  188.4270  178.3280  140.1160 C   0  0  1  0  0  3  0  0  0  0  0  0
  187.5350  178.6620  135.3330 C   0  0  0  0  0  2  0  0  0  0  0  0
  188.2420  178.7000  137.7940 C   0  0  1  0  0  3  0  0  0  0  0  0
  188.1270  177.5740  142.3710 O   0  0  0  0  0  0  0  0  0  0  0  0
  188.9980  177.5780  143.4630 C   0  0  0  0  0  2  0  0  0  0  0  0
  187.7570  178.0920  146.5650 O   0  0  0  0  0  0  0  0  0  0  0  0
  186.8860  177.2460  144.7020 C   0  0  0  0  0  3  0  0  0  0  0  0
  188.3400  176.9040  144.6550 C   0  0  2  0  0  3  0  0  0  0  0  0
  186.6160  177.9170  145.8060 C   0  0  0  0  0  3  0  0  0  0  0  0
  188.8870  177.5050  145.9450 C   0  0  0  0  0  2  0  0  0  0  0  0
  1 26  1  6  0  0  0
  1 27  1  0  0  0  0
  2 14  1  0  0  0  0
  3  7  1  0  0  0  0
  3 16  1  1  0  0  0
  3 19  1  0  0  0  0
  4 23  1  6  0  0  0
  4 18  1  0  0  0  0
  5 19  1  0  0  0  0
  5 11  1  1  0  0  0
  7 19  1  0  0  0  0
  7  6  1  1  0  0  0
  8 12  1  0  0  0  0
  9 25  1  0  0  0  0
 11 20  1  0  0  0  0
 13  9  1  0  0  0  0
 13 24  1  0  0  0  0
 14 25  1  0  0  0  0
 15  5  1  0  0  0  0
 15  4  1  0  0  0  0
 15 12  1  0  0  0  0
 16  8  1  0  0  0  0
 17 10  1  0  0  0  0
 17 28  1  0  0  0  0
 18  1  1  0  0  0  0
 18 20  1  0  0  0  0
 19  6  1  0  0  0  0
 20 13  1  0  0  0  0
 21 26  1  0  0  0  0
 22 10  1  0  0  0  0
 23 21  1  0  0  0  0
 24 22  2  0  0  0  0
 25 17  1  0  0  0  0
 27  2  1  0  0  0  0
 27  9  1  0  0  0  0
 28 29  1  0  0  0  0
 29 32  1  0  0  0  0
 31 33  2  0  0  0  0
 32 31  1  0  0  0  0
 32 34  1  0  0  0  0
 33 30  1  0  0  0  0
 34 30  1  0  0  0  0
M  END
>  <MODEL>
3

>  <REMARK>
 VINA RESULT:      -7.3      2.601      4.127
  Name = 
  3 active torsions:
  status: ('A' for Active; 'I' for Inactive)
    1  A    between atoms: C_17  and  O_28
    2  A    between atoms: O_28  and  C_29
    3  A    between atoms: C_29  and  C_32
                            x       y       z     vdW  Elec       q    Type
                         _______ _______ _______ _____ _____    ______ ____

>  <TORSDO>
F 3

$$$$
=
 OpenBabel11122412213D

 34 42  0  0  1  0  0  0  0  0999 V2000
  187.8690  177.3200  135.0590 C   0  0  1  0  0  3  0  0  0  0  0  0
  187.7570  178.2010  137.4750 C   0  0  0  0  0  2  0  0  0  0  0  0
  185.4950  171.3780  135.1580 C   0  0  1  0  0  3  0  0  0  0  0  0
  186.2530  175.5480  136.0010 C   0  0  1  0  0  3  0  0  0  0  0  0
  187.0940  173.1680  135.4200 C   0  0  2  0  0  3  0  0  0  0  0  0
  187.9370  170.7590  135.6410 C   0  0  0  0  0  2  0  0  0  0  0  0
  186.7400  170.6280  134.7410 C   0  0  2  0  0  3  0  0  0  0  0  0
  184.0800  172.4730  136.8370 C   0  0  0  0  0  2  0  0  0  0  0  0
  189.7790  177.1240  136.7850 C   0  0  2  0  0  3  0  0  0  0  0  0
  191.8780  176.2990  138.7780 C   0  0  0  0  0  2  0  0  0  0  0  0
  188.3210  173.6200  136.0810 N   0  0  0  0  0  2  0  0  0  0  0  0
  185.1390  173.5680  137.1340 C   0  0  0  0  0  2  0  0  0  0  0  0
  189.5170  175.5970  136.8490 C   0  0  1  0  0  3  0  0  0  0  0  0
  188.4980  178.0830  138.5660 C   0  0  0  0  0  2  0  0  0  0  0  0
  185.8870  174.0670  135.8700 C   0  0  1  0  0  3  0  0  0  0  0  0
  184.6580  171.1130  136.3830 C   0  0  0  0  0  2  0  0  0  0  0  0
  190.5150  176.7660  139.2610 C   0  0  2  0  0  3  0  0  0  0  0  0
  187.5360  175.8360  135.2100 C   0  0  2  0  0  3  0  0  0  0  0  0
  186.7990  171.7300  135.8220 C   0  0  1  0  0  0  0  0  0  0  0  0
  188.7280  174.9800  135.6820 C   0  0  2  0  0  3  0  0  0  0  0  0
  185.4320  177.8660  135.4610 C   0  0  0  0  0  2  0  0  0  0  0  0
  191.7970  175.0990  137.8750 C   0  0  0  0  0  3  0  0  0  0  0  0
  185.0940  176.3800  135.4520 C   0  0  0  0  0  2  0  0  0  0  0  0
  190.8020  174.8200  137.0170 C   0  0  0  0  0  3  0  0  0  0  0  0
  189.8970  177.6970  138.2130 C   0  0  1  0  0  3  0  0  0  0  0  0
  186.6590  178.1360  134.5940 C   0  0  0  0  0  2  0  0  0  0  0  0
  188.5870  177.9280  136.2650 C   0  0  1  0  0  3  0  0  0  0  0  0
  190.6680  177.4510  140.4690 O   0  0  0  0  0  0  0  0  0  0  0  0
  190.1660  176.5820  141.4400 C   0  0  0  0  0  2  0  0  0  0  0  0
  188.7430  176.6700  144.5050 O   0  0  0  0  0  0  0  0  0  0  0  0
  189.8420  178.1790  143.2980 C   0  0  0  0  0  3  0  0  0  0  0  0
  189.1470  177.3030  142.3060 C   0  0  2  0  0  3  0  0  0  0  0  0
  189.5750  177.7720  144.5240 C   0  0  0  0  0  3  0  0  0  0  0  0
  188.4150  176.2900  143.1810 C   0  0  0  0  0  2  0  0  0  0  0  0
  1 26  1  1  0  0  0
  1 18  1  0  0  0  0
  1 27  1  0  0  0  0
  2 14  1  0  0  0  0
  3 19  1  0  0  0  0
  3 16  1  1  0  0  0
  4 23  1  6  0  0  0
  5 19  1  0  0  0  0
  5 15  1  0  0  0  0
  5 11  1  1  0  0  0
  6 19  1  0  0  0  0
  7  3  1  0  0  0  0
  7  6  1  1  0  0  0
  7 19  1  0  0  0  0
  8 12  1  0  0  0  0
  9 13  1  0  0  0  0
  9 25  1  0  0  0  0
 10 17  1  0  0  0  0
 13 24  1  0  0  0  0
 15  4  1  0  0  0  0
 15 12  1  0  0  0  0
 16  8  1  0  0  0  0
 17 28  1  0  0  0  0
 18 20  1  0  0  0  0
 18  4  1  0  0  0  0
 20 11  1  0  0  0  0
 20 13  1  0  0  0  0
 22 10  1  0  0  0  0
 23 21  1  0  0  0  0
 24 22  2  0  0  0  0
 25 14  1  0  0  0  0
 25 17  1  0  0  0  0
 26 21  1  0  0  0  0
 27  9  1  0  0  0  0
 27  2  1  0  0  0  0
 28 29  1  0  0  0  0
 29 32  1  0  0  0  0
 30 33  1  0  0  0  0
 31 33  2  0  0  0  0
 32 34  1  0  0  0  0
 32 31  1  0  0  0  0
 34 30  1  0  0  0  0
M  END
>  <MODEL>
4

>  <REMARK>
 VINA RESULT:      -7.2      2.885      4.620
  Name = 
  3 active torsions:
  status: ('A' for Active; 'I' for Inactive)
    1  A    between atoms: C_17  and  O_28
    2  A    between atoms: O_28  and  C_29
    3  A    between atoms: C_29  and  C_32
                            x       y       z     vdW  Elec       q    Type
                         _______ _______ _______ _____ _____    ______ ____

>  <TORSDO>
F 3

$$$$
=
 OpenBabel11122412213D

 34 42  0  0  1  0  0  0  0  0999 V2000
  183.9200  179.2820  139.1610 C   0  0  1  0  0  3  0  0  0  0  0  0
  183.8860  178.2950  141.5380 C   0  0  0  0  0  2  0  0  0  0  0  0
  184.9160  174.3920  135.1550 C   0  0  1  0  0  3  0  0  0  0  0  0
  183.6430  176.8060  138.5060 C   0  0  1  0  0  3  0  0  0  0  0  0
  185.4200  176.1400  136.7430 C   0  0  2  0  0  3  0  0  0  0  0  0
  187.3800  174.9720  135.5770 C   0  0  0  0  0  2  0  0  0  0  0  0
  186.2520  174.8250  134.5930 C   0  0  2  0  0  3  0  0  0  0  0  0
  183.5280  173.3160  136.8670 C   0  0  0  0  0  2  0  0  0  0  0  0
  185.9820  179.0930  140.7030 C   0  0  2  0  0  3  0  0  0  0  0  0
  188.5730  178.4560  142.0960 C   0  0  0  0  0  2  0  0  0  0  0  0
  186.3620  176.6420  137.7460 N   0  0  0  0  0  2  0  0  0  0  0  0
  183.9320  174.3430  137.9580 C   0  0  0  0  0  2  0  0  0  0  0  0
  186.5390  177.9910  139.7650 C   0  0  1  0  0  3  0  0  0  0  0  0
  184.7950  177.9400  142.4340 C   0  0  0  0  0  2  0  0  0  0  0  0
  184.0490  175.7970  137.4280 C   0  0  1  0  0  3  0  0  0  0  0  0
  184.6000  173.0590  135.7830 C   0  0  0  0  0  2  0  0  0  0  0  0
  187.2940  177.7500  142.5130 C   0  0  2  0  0  3  0  0  0  0  0  0
  184.4130  178.1170  138.3040 C   0  0  2  0  0  3  0  0  0  0  0  0
  185.9750  174.8710  136.1130 C   0  0  1  0  0  0  0  0  0  0  0  0
  185.9420  177.9200  138.3490 C   0  0  2  0  0  3  0  0  0  0  0  0
  181.6820  178.1230  139.3740 C   0  0  0  0  0  2  0  0  0  0  0  0
  188.9170  178.2330  140.6490 C   0  0  0  0  0  3  0  0  0  0  0  0
  182.1390  177.0520  138.3920 C   0  0  0  0  0  2  0  0  0  0  0  0
  188.0420  178.0740  139.6430 C   0  0  0  0  0  3  0  0  0  0  0  0
  186.0910  178.6360  142.1740 C   0  0  1  0  0  3  0  0  0  0  0  0
  182.3980  179.4410  139.0930 C   0  0  0  0  0  2  0  0  0  0  0  0
  184.4700  179.2870  140.5880 C   0  0  1  0  0  3  0  0  0  0  0  0
  187.3300  177.5120  143.8900 O   0  0  0  0  0  0  0  0  0  0  0  0
  188.5810  176.9340  144.1200 C   0  0  0  0  0  2  0  0  0  0  0  0
  190.0580  176.6700  147.1490 O   0  0  0  0  0  0  0  0  0  0  0  0
  190.7750  177.3790  145.1680 C   0  0  0  0  0  3  0  0  0  0  0  0
  189.3160  177.7030  145.2040 C   0  0  2  0  0  3  0  0  0  0  0  0
  191.1360  176.7960  146.2950 C   0  0  0  0  0  3  0  0  0  0  0  0
  188.8760  177.1970  146.5740 C   0  0  0  0  0  2  0  0  0  0  0  0
  1 26  1  1  0  0  0
  1 27  1  0  0  0  0
  2 14  1  0  0  0  0
  3 16  1  1  0  0  0
  3 19  1  0  0  0  0
  4 23  1  6  0  0  0
  5 15  1  0  0  0  0
  5 11  1  1  0  0  0
  6 19  1  0  0  0  0
  7  3  1  0  0  0  0
  7  6  1  1  0  0  0
  7 19  1  0  0  0  0
  8 12  1  0  0  0  0
  9 25  1  0  0  0  0
 10 17  1  0  0  0  0
 11 20  1  0  0  0  0
 13  9  1  0  0  0  0
 15 12  1  0  0  0  0
 15  4  1  0  0  0  0
 16  8  1  0  0  0  0
 17 28  1  0  0  0  0
 18 20  1  0  0  0  0
 18  4  1  0  0  0  0
 18  1  1  0  0  0  0
 19  5  1  0  0  0  0
 20 13  1  0  0  0  0
 22 10  1  0  0  0  0
 23 21  1  0  0  0  0
 24 13  1  0  0  0  0
 24 22  2  0  0  0  0
 25 14  1  0  0  0  0
 25 17  1  0  0  0  0
 26 21  1  0  0  0  0
 27  9  1  0  0  0  0
 27  2  1  0  0  0  0
 28 29  1  0  0  0  0
 29 32  1  0  0  0  0
 31 32  1  0  0  0  0
 31 33  2  0  0  0  0
 32 34  1  0  0  0  0
 33 30  1  0  0  0  0
 34 30  1  0  0  0  0
M  END
>  <MODEL>
5

>  <REMARK>
 VINA RESULT:      -7.1      0.900      1.278
  Name = 
  3 active torsions:
  status: ('A' for Active; 'I' for Inactive)
    1  A    between atoms: C_17  and  O_28
    2  A    between atoms: O_28  and  C_29
    3  A    between atoms: C_29  and  C_32
                            x       y       z     vdW  Elec       q    Type
                         _______ _______ _______ _____ _____    ______ ____

>  <TORSDO>
F 3

$$$$
=
 OpenBabel11122412213D

 34 42  0  0  1  0  0  0  0  0999 V2000
  185.1410  179.7520  142.4500 C   0  0  1  0  0  3  0  0  0  0  0  0
  186.2320  177.7640  143.6680 C   0  0  0  0  0  2  0  0  0  0  0  0
  181.6530  177.2970  137.6800 C   0  0  1  0  0  3  0  0  0  0  0  0
  183.6690  177.8860  141.4570 C   0  0  1  0  0  3  0  0  0  0  0  0
  183.6020  178.0760  138.8740 C   0  0  2  0  0  3  0  0  0  0  0  0
  183.8540  177.5350  136.3820 C   0  0  0  0  0  2  0  0  0  0  0  0
  182.4020  177.9030  136.5140 C   0  0  2  0  0  3  0  0  0  0  0  0
  181.3490  175.5830  139.4090 C   0  0  0  0  0  2  0  0  0  0  0  0
  187.4760  178.7980  141.9050 C   0  0  2  0  0  3  0  0  0  0  0  0
  189.9360  177.5030  140.7500 C   0  0  0  0  0  2  0  0  0  0  0  0
  185.0600  178.0180  138.9980 N   0  0  0  0  0  2  0  0  0  0  0  0
  182.6670  175.9630  140.1340 C   0  0  0  0  0  2  0  0  0  0  0  0
  186.9030  178.2510  140.5720 C   0  0  1  0  0  3  0  0  0  0  0  0
  187.2990  177.0020  143.4790 C   0  0  0  0  0  2  0  0  0  0  0  0
  182.9360  177.4910  140.1710 C   0  0  1  0  0  3  0  0  0  0  0  0
  181.3470  175.8350  137.8840 C   0  0  0  0  0  2  0  0  0  0  0  0
  189.0420  176.7220  141.6990 C   0  0  2  0  0  3  0  0  0  0  0  0
  184.5500  179.1140  141.1940 C   0  0  2  0  0  3  0  0  0  0  0  0
  183.1580  177.2360  137.6850 C   0  0  1  0  0  0  0  0  0  0  0  0
  185.5860  178.8730  140.0780 C   0  0  2  0  0  3  0  0  0  0  0  0
  183.2850  178.6970  143.8080 C   0  0  0  0  0  2  0  0  0  0  0  0
  189.2090  177.9770  139.5210 C   0  0  0  0  0  3  0  0  0  0  0  0
  182.6250  178.2020  142.5280 C   0  0  0  0  0  2  0  0  0  0  0  0
  187.9170  178.3370  139.4550 C   0  0  0  0  0  3  0  0  0  0  0  0
  188.2970  177.6990  142.6140 C   0  0  1  0  0  3  0  0  0  0  0  0
  184.0810  179.9710  143.5360 C   0  0  0  0  0  2  0  0  0  0  0  0
  186.4090  179.0690  142.9650 C   0  0  1  0  0  3  0  0  0  0  0  0
  189.8310  175.8640  142.4680 O   0  0  0  0  0  0  0  0  0  0  0  0
  191.1250  176.3780  142.3640 C   0  0  0  0  0  2  0  0  0  0  0  0
  190.7930  178.3430  145.0940 O   0  0  0  0  0  0  0  0  0  0  0  0
  190.7580  176.1410  144.7960 C   0  0  0  0  0  3  0  0  0  0  0  0
  191.6810  176.6710  143.7470 C   0  0  2  0  0  3  0  0  0  0  0  0
  190.2870  177.1330  145.5260 C   0  0  0  0  0  3  0  0  0  0  0  0
  191.6670  178.1760  143.9920 C   0  0  0  0  0  2  0  0  0  0  0  0
  1 27  1  0  0  0  0
  1 26  1  1  0  0  0
  3 19  1  0  0  0  0
  3 16  1  6  0  0  0
  4 23  1  1  0  0  0
  5 11  1  1  0  0  0
  5 15  1  0  0  0  0
  6 19  1  0  0  0  0
  7  6  1  6  0  0  0
  7  3  1  0  0  0  0
  7 19  1  0  0  0  0
  8 12  1  0  0  0  0
  9 25  1  0  0  0  0
  9 27  1  0  0  0  0
 10 17  1  0  0  0  0
 11 20  1  0  0  0  0
 12 15  1  0  0  0  0
 13  9  1  0  0  0  0
 14  2  1  0  0  0  0
 15  4  1  0  0  0  0
 16  8  1  0  0  0  0
 17 28  1  0  0  0  0
 17 25  1  0  0  0  0
 18  4  1  0  0  0  0
 18  1  1  0  0  0  0
 19  5  1  0  0  0  0
 20 13  1  0  0  0  0
 20 18  1  0  0  0  0
 22 10  1  0  0  0  0
 23 21  1  0  0  0  0
 24 22  2  0  0  0  0
 24 13  1  0  0  0  0
 25 14  1  0  0  0  0
 26 21  1  0  0  0  0
 27  2  1  0  0  0  0
 29 28  1  0  0  0  0
 29 32  1  0  0  0  0
 30 33  1  0  0  0  0
 31 33  2  0  0  0  0
 32 34  1  0  0  0  0
 32 31  1  0  0  0  0
 34 30  1  0  0  0  0
M  END
>  <MODEL>
6

>  <REMARK>
 VINA RESULT:      -7.1      2.421      3.697
  Name = 
  3 active torsions:
  status: ('A' for Active; 'I' for Inactive)
    1  A    between atoms: C_17  and  O_28
    2  A    between atoms: O_28  and  C_29
    3  A    between atoms: C_29  and  C_32
                            x       y       z     vdW  Elec       q    Type
                         _______ _______ _______ _____ _____    ______ ____

>  <TORSDO>
F 3

$$$$
=
 OpenBabel11122412213D

 34 42  0  0  1  0  0  0  0  0999 V2000
  182.8240  177.8040  139.8150 C   0  0  1  0  0  3  0  0  0  0  0  0
  182.3160  180.2840  139.3460 C   0  0  0  0  0  2  0  0  0  0  0  0
  188.0220  176.3120  136.3940 C   0  0  1  0  0  3  0  0  0  0  0  0
  185.0890  178.4290  138.7590 C   0  0  1  0  0  3  0  0  0  0  0  0
  185.6980  176.7490  136.8840 C   0  0  2  0  0  3  0  0  0  0  0  0
  186.2790  175.7550  134.5950 C   0  0  0  0  0  2  0  0  0  0  0  0
  187.4030  175.2820  135.4750 C   0  0  2  0  0  3  0  0  0  0  0  0
  188.5320  178.6260  137.0300 C   0  0  0  0  0  2  0  0  0  0  0  0
  181.2350  178.6540  137.9670 C   0  0  2  0  0  3  0  0  0  0  0  0
  179.8130  179.4360  135.4320 C   0  0  0  0  0  2  0  0  0  0  0  0
  184.3890  177.1280  136.3470 N   0  0  0  0  0  2  0  0  0  0  0  0
  187.0350  178.9880  137.2270 C   0  0  0  0  0  2  0  0  0  0  0  0
  182.2770  178.1990  136.9120 C   0  0  1  0  0  3  0  0  0  0  0  0
  181.7010  180.9640  138.3910 C   0  0  0  0  0  2  0  0  0  0  0  0
  186.2030  177.8530  137.8800 C   0  0  1  0  0  3  0  0  0  0  0  0
  188.8040  177.5300  135.9740 C   0  0  0  0  0  2  0  0  0  0  0  0
  180.6810  180.4500  136.1590 C   0  0  2  0  0  3  0  0  0  0  0  0
  183.8980  177.4630  138.7830 C   0  0  2  0  0  3  0  0  0  0  0  0
  186.7010  176.6320  135.7460 C   0  0  1  0  0  0  0  0  0  0  0  0
  183.3330  177.1820  137.3750 C   0  0  2  0  0  3  0  0  0  0  0  0
  184.5560  179.1030  141.1250 C   0  0  0  0  0  2  0  0  0  0  0  0
  180.5760  178.2100  135.0130 C   0  0  0  0  0  3  0  0  0  0  0  0
  185.6420  178.6230  140.1710 C   0  0  0  0  0  2  0  0  0  0  0  0
  181.6080  177.6560  135.6700 C   0  0  0  0  0  3  0  0  0  0  0  0
  180.7520  180.0840  137.6450 C   0  0  1  0  0  3  0  0  0  0  0  0
  183.4250  178.0810  141.1980 C   0  0  0  0  0  2  0  0  0  0  0  0
  181.8300  178.8730  139.3580 C   0  0  1  0  0  3  0  0  0  0  0  0
  180.1190  181.7210  136.0130 O   0  0  0  0  0  0  0  0  0  0  0  0
  180.9250  182.3620  135.0680 C   0  0  0  0  0  2  0  0  0  0  0  0
  179.0430  184.8440  136.3810 O   0  0  0  0  0  0  0  0  0  0  0  0
  181.1820  184.2810  136.6040 C   0  0  0  0  0  3  0  0  0  0  0  0
  180.8030  183.8690  135.2190 C   0  0  2  0  0  3  0  0  0  0  0  0
  180.1460  184.8260  137.2120 C   0  0  0  0  0  3  0  0  0  0  0  0
  179.3350  184.2730  135.1180 C   0  0  0  0  0  2  0  0  0  0  0  0
  1 26  1  1  0  0  0
  2 27  1  0  0  0  0
  3 16  1  6  0  0  0
  4 18  1  0  0  0  0
  4 23  1  1  0  0  0
  5 11  1  6  0  0  0
  5 15  1  0  0  0  0
  6 19  1  0  0  0  0
  7  6  1  6  0  0  0
  7 19  1  0  0  0  0
  7  3  1  0  0  0  0
  8 12  1  0  0  0  0
  9 27  1  0  0  0  0
 10 17  1  0  0  0  0
 11 20  1  0  0  0  0
 12 15  1  0  0  0  0
 13 20  1  0  0  0  0
 13  9  1  0  0  0  0
 14  2  1  0  0  0  0
 15  4  1  0  0  0  0
 16  8  1  0  0  0  0
 17 25  1  0  0  0  0
 18  1  1  0  0  0  0
 19  3  1  0  0  0  0
 19  5  1  0  0  0  0
 20 18  1  0  0  0  0
 21 26  1  0  0  0  0
 22 10  1  0  0  0  0
 22 24  2  0  0  0  0
 23 21  1  0  0  0  0
 24 13  1  0  0  0  0
 25  9  1  0  0  0  0
 25 14  1  0  0  0  0
 27  1  1  0  0  0  0
 28 17  1  0  0  0  0
 29 32  1  0  0  0  0
 29 28  1  0  0  0  0
 30 33  1  0  0  0  0
 31 33  2  0  0  0  0
 32 31  1  0  0  0  0
 34 32  1  0  0  0  0
 34 30  1  0  0  0  0
M  END
>  <MODEL>
7

>  <REMARK>
 VINA RESULT:      -6.7      4.622      8.227
  Name = 
  3 active torsions:
  status: ('A' for Active; 'I' for Inactive)
    1  A    between atoms: C_17  and  O_28
    2  A    between atoms: O_28  and  C_29
    3  A    between atoms: C_29  and  C_32
                            x       y       z     vdW  Elec       q    Type
                         _______ _______ _______ _____ _____    ______ ____

>  <TORSDO>
F 3

$$$$
=
 OpenBabel11122412213D

 34 42  0  0  1  0  0  0  0  0999 V2000
  182.1520  179.0060  137.9280 C   0  0  1  0  0  3  0  0  0  0  0  0
  181.4230  178.2340  140.2730 C   0  0  0  0  0  2  0  0  0  0  0  0
  185.1640  174.0540  135.2160 C   0  0  1  0  0  3  0  0  0  0  0  0
  182.4710  176.4740  137.5750 C   0  0  1  0  0  3  0  0  0  0  0  0
  184.8290  175.9920  136.6160 C   0  0  2  0  0  3  0  0  0  0  0  0
  187.2160  175.1010  136.3470 C   0  0  0  0  0  2  0  0  0  0  0  0
  186.5370  174.6710  135.0750 C   0  0  2  0  0  3  0  0  0  0  0  0
  183.4280  172.8940  136.5030 C   0  0  0  0  0  2  0  0  0  0  0  0
  183.5450  179.3220  140.0780 C   0  0  2  0  0  3  0  0  0  0  0  0
  185.5430  179.2830  142.3280 C   0  0  0  0  0  2  0  0  0  0  0  0
  185.2790  176.7390  137.7940 N   0  0  0  0  0  2  0  0  0  0  0  0
  183.2750  174.0660  137.5090 C   0  0  0  0  0  2  0  0  0  0  0  0
  184.5440  178.2630  139.5440 C   0  0  1  0  0  3  0  0  0  0  0  0
  181.9990  178.1260  141.4600 C   0  0  0  0  0  2  0  0  0  0  0  0
  183.3670  175.4660  136.8480 C   0  0  1  0  0  3  0  0  0  0  0  0
  184.8360  172.7440  135.8860 C   0  0  0  0  0  2  0  0  0  0  0  0
  184.3110  178.3950  142.3920 C   0  0  2  0  0  3  0  0  0  0  0  0
  183.0720  177.8800  137.4570 C   0  0  2  0  0  3  0  0  0  0  0  0
  185.7410  174.7950  136.3930 C   0  0  1  0  0  0  0  0  0  0  0  0
  184.4990  177.9660  138.0360 C   0  0  2  0  0  3  0  0  0  0  0  0
  180.1660  177.4850  137.5460 C   0  0  0  0  0  2  0  0  0  0  0  0
  186.4020  179.0030  141.1250 C   0  0  0  0  0  3  0  0  0  0  0  0
  181.0840  176.4350  136.9340 C   0  0  0  0  0  2  0  0  0  0  0  0
  185.9680  178.6040  139.9180 C   0  0  0  0  0  3  0  0  0  0  0  0
  183.1930  179.0190  141.5500 C   0  0  1  0  0  3  0  0  0  0  0  0
  180.7440  178.8820  137.3350 C   0  0  0  0  0  2  0  0  0  0  0  0
  182.1590  179.2310  139.4400 C   0  0  1  0  0  3  0  0  0  0  0  0
  183.8950  178.2860  143.7210 O   0  0  0  0  0  0  0  0  0  0  0  0
  184.9170  178.8780  144.4660 C   0  0  0  0  0  2  0  0  0  0  0  0
  187.5690  177.8810  146.3100 O   0  0  0  0  0  0  0  0  0  0  0  0
  185.5700  178.6940  146.8420 C   0  0  0  0  0  3  0  0  0  0  0  0
  185.3670  177.9370  145.5700 C   0  0  2  0  0  3  0  0  0  0  0  0
  186.8340  178.6260  147.2110 C   0  0  0  0  0  3  0  0  0  0  0  0
  186.7600  177.4050  145.2490 C   0  0  0  0  0  2  0  0  0  0  0  0
  1 26  1  1  0  0  0
  1 27  1  0  0  0  0
  2 14  1  0  0  0  0
  3 16  1  1  0  0  0
  3 19  1  0  0  0  0
  4 23  1  6  0  0  0
  5 15  1  0  0  0  0
  5 11  1  1  0  0  0
  6 19  1  0  0  0  0
  7  3  1  0  0  0  0
  7  6  1  1  0  0  0
  7 19  1  0  0  0  0
  8 12  1  0  0  0  0
  9 25  1  0  0  0  0
 10 17  1  0  0  0  0
 11 20  1  0  0  0  0
 13 24  1  0  0  0  0
 13  9  1  0  0  0  0
 14 25  1  0  0  0  0
 15 12  1  0  0  0  0
 15  4  1  0  0  0  0
 16  8  1  0  0  0  0
 17 28  1  0  0  0  0
 18  4  1  0  0  0  0
 18  1  1  0  0  0  0
 18 20  1  0  0  0  0
 19  5  1  0  0  0  0
 20 13  1  0  0  0  0
 22 10  1  0  0  0  0
 23 21  1  0  0  0  0
 24 22  2  0  0  0  0
 25 17  1  0  0  0  0
 26 21  1  0  0  0  0
 27  9  1  0  0  0  0
 27  2  1  0  0  0  0
 28 29  1  0  0  0  0
 29 32  1  0  0  0  0
 30 33  1  0  0  0  0
 31 33  2  0  0  0  0
 32 31  1  0  0  0  0
 34 32  1  0  0  0  0
 34 30  1  0  0  0  0
M  END
>  <MODEL>
8

>  <REMARK>
 VINA RESULT:      -6.6      1.589      2.413
  Name = 
  3 active torsions:
  status: ('A' for Active; 'I' for Inactive)
    1  A    between atoms: C_17  and  O_28
    2  A    between atoms: O_28  and  C_29
    3  A    between atoms: C_29  and  C_32
                            x       y       z     vdW  Elec       q    Type
                         _______ _______ _______ _____ _____    ______ ____

>  <TORSDO>
F 3

$$$$
=
 OpenBabel11122412213D

 34 42  0  0  1  0  0  0  0  0999 V2000
  187.5510  178.6990  138.0200 C   0  0  1  0  0  3  0  0  0  0  0  0
  187.8730  176.1920  137.5330 C   0  0  0  0  0  2  0  0  0  0  0  0
  185.8230  179.1700  144.1640 C   0  0  1  0  0  3  0  0  0  0  0  0
  187.6380  177.8780  140.4610 C   0  0  1  0  0  3  0  0  0  0  0  0
  185.6110  178.7950  141.7880 C   0  0  2  0  0  3  0  0  0  0  0  0
  183.4660  178.9200  143.1830 C   0  0  0  0  0  2  0  0  0  0  0  0
  184.4410  179.7520  143.9690 C   0  0  2  0  0  3  0  0  0  0  0  0
  187.3900  177.2850  144.2650 C   0  0  0  0  0  2  0  0  0  0  0  0
  185.7150  177.1340  137.1030 C   0  0  2  0  0  3  0  0  0  0  0  0
  183.3170  175.3910  136.5800 C   0  0  0  0  0  2  0  0  0  0  0  0
  184.8360  178.1630  140.7170 N   0  0  0  0  0  2  0  0  0  0  0  0
  187.1800  176.9250  142.7690 C   0  0  0  0  0  2  0  0  0  0  0  0
  184.9920  177.2380  138.4710 C   0  0  1  0  0  3  0  0  0  0  0  0
  187.0820  175.1720  137.2340 C   0  0  0  0  0  2  0  0  0  0  0  0
  187.0490  178.1640  141.8450 C   0  0  1  0  0  3  0  0  0  0  0  0
  186.1700  177.9360  144.9560 C   0  0  0  0  0  2  0  0  0  0  0  0
  184.6130  174.7700  137.0760 C   0  0  2  0  0  3  0  0  0  0  0  0
  186.9000  178.7080  139.4030 C   0  0  2  0  0  3  0  0  0  0  0  0
  184.9260  178.5520  143.1250 C   0  0  1  0  0  0  0  0  0  0  0  0
  185.3860  178.4190  139.3740 C   0  0  2  0  0  3  0  0  0  0  0  0
  189.7510  178.0810  139.1070 C   0  0  0  0  0  2  0  0  0  0  0  0
  182.7690  176.4260  137.5240 C   0  0  0  0  0  3  0  0  0  0  0  0
  189.1210  178.2490  140.4850 C   0  0  0  0  0  2  0  0  0  0  0  0
  183.4900  177.2470  138.3050 C   0  0  0  0  0  3  0  0  0  0  0  0
  185.7910  175.6570  136.6600 C   0  0  1  0  0  3  0  0  0  0  0  0
  189.0550  178.9850  138.0920 C   0  0  0  0  0  2  0  0  0  0  0  0
  187.2040  177.4760  137.1700 C   0  0  1  0  0  3  0  0  0  0  0  0
  184.7560  173.5000  136.5110 O   0  0  0  0  0  0  0  0  0  0  0  0
  184.2920  172.6190  137.4900 C   0  0  0  0  0  2  0  0  0  0  0  0
  181.3650  172.0970  135.8800 O   0  0  0  0  0  0  0  0  0  0  0  0
  183.4810  171.6480  135.3670 C   0  0  0  0  0  3  0  0  0  0  0  0
  183.4050  171.5600  136.8570 C   0  0  2  0  0  3  0  0  0  0  0  0
  182.2980  171.9540  134.8710 C   0  0  0  0  0  3  0  0  0  0  0  0
  181.9430  171.8780  137.1550 C   0  0  0  0  0  2  0  0  0  0  0  0
  1 26  1  1  0  0  0
  1 18  1  0  0  0  0
  3 16  1  1  0  0  0
  4 23  1  1  0  0  0
  4 15  1  0  0  0  0
  5 11  1  6  0  0  0
  5 15  1  0  0  0  0
  5 19  1  0  0  0  0
  7  6  1  1  0  0  0
  7  3  1  0  0  0  0
  8 16  1  0  0  0  0
  9 27  1  0  0  0  0
  9 13  1  0  0  0  0
 10 17  1  0  0  0  0
 10 22  1  0  0  0  0
 12  8  1  0  0  0  0
 13 20  1  0  0  0  0
 14  2  1  0  0  0  0
 15 12  1  0  0  0  0
 18  4  1  0  0  0  0
 19  6  1  0  0  0  0
 19  7  1  0  0  0  0
 19  3  1  0  0  0  0
 20 18  1  0  0  0  0
 20 11  1  0  0  0  0
 21 23  1  0  0  0  0
 22 24  2  0  0  0  0
 24 13  1  0  0  0  0
 25 17  1  0  0  0  0
 25  9  1  0  0  0  0
 25 14  1  0  0  0  0
 26 21  1  0  0  0  0
 27  2  1  0  0  0  0
 27  1  1  0  0  0  0
 28 17  1  0  0  0  0
 28 29  1  0  0  0  0
 30 34  1  0  0  0  0
 31 32  1  0  0  0  0
 32 34  1  0  0  0  0
 32 29  1  0  0  0  0
 33 31  2  0  0  0  0
 33 30  1  0  0  0  0
M  END
>  <MODEL>
9

>  <REMARK>
 VINA RESULT:      -6.5      3.235      8.442
  Name = 
  3 active torsions:
  status: ('A' for Active; 'I' for Inactive)
    1  A    between atoms: C_17  and  O_28
    2  A    between atoms: O_28  and  C_29
    3  A    between atoms: C_29  and  C_32
                            x       y       z     vdW  Elec       q    Type
                         _______ _______ _______ _____ _____    ______ ____

>  <TORSDO>
F 3

$$$$
