=
 OpenBabel11122410453D

 32 37  0  0  1  0  0  0  0  0999 V2000
  187.1680  178.2200  138.7040 C   0  0  1  0  0  3  0  0  0  0  0  0
  190.7550  176.7590  141.6680 C   0  0  0  0  0  3  0  0  0  0  0  0
  189.9230  176.9250  142.7760 C   0  0  0  0  0  3  0  0  0  0  0  0
  184.9470  178.7910  139.7260 C   0  0  0  0  0  0  0  0  0  0  0  0
  184.1160  178.8840  140.9250 C   0  0  0  0  0  0  0  0  0  0  0  0
  187.6500  176.4070  137.0960 N   0  0  0  0  0  0  0  0  0  0  0  0
  189.4760  177.9590  137.7340 C   0  0  0  0  0  2  0  0  0  0  0  0
  183.5990  178.6810  143.1060 C   0  0  0  0  0  0  0  0  0  0  0  0
  190.3560  177.2350  140.4170 C   0  0  0  0  0  3  0  0  0  0  0  0
  188.6690  178.4440  138.9400 C   0  0  2  0  0  3  0  0  0  0  0  0
  189.1110  177.8640  140.2620 C   0  0  0  0  0  0  0  0  0  0  0  0
  186.9830  178.7940  141.2160 C   0  0  2  0  0  3  0  0  0  0  0  0
  182.4230  178.8280  142.5070 C   0  0  0  0  0  3  0  0  0  0  0  0
  189.1080  176.5260  137.3330 C   0  0  2  0  0  3  0  0  0  0  0  0
  182.6290  178.9770  141.0220 C   0  0  0  0  0  3  0  0  0  0  0  0
  188.6910  177.5670  142.6350 C   0  0  0  0  0  3  0  0  0  0  0  0
  188.2720  178.0290  141.3780 C   0  0  0  0  0  0  0  0  0  0  0  0
  186.0410  178.5090  142.3080 N   0  0  0  0  0  2  0  0  0  0  0  0
  186.9130  176.7650  138.3110 C   0  0  0  0  0  2  0  0  0  0  0  0
  184.4280  178.8740  138.5800 O   0  0  0  0  0  0  0  0  0  0  0  0
  183.7900  178.4960  144.5690 C   0  0  0  0  0  1  0  0  0  0  0  0
  186.3620  178.5580  139.8870 N   0  0  0  0  0  0  0  0  0  0  0  0
  184.6450  178.7270  142.1110 C   0  0  1  0  0  3  0  0  0  0  0  0
  189.7970  177.1030  135.0940 O   0  0  0  0  0  1  0  0  0  0  0  0
  189.9510  176.1490  136.1020 C   0  0  1  0  0  3  0  0  0  0  0  0
  191.4330  175.9550  136.4350 C   0  0  2  0  0  3  0  0  0  0  0  0
  192.0150  174.8010  135.6120 C   0  0  0  0  0  2  0  0  0  0  0  0
  191.7140  174.6070  137.0740 C   0  0  1  0  0  0  0  0  0  0  0  0
  192.8420  174.5080  137.8870 O   0  0  0  0  0  1  0  0  0  0  0  0
  190.6180  173.6890  137.3410 N   0  0  0  0  0  1  0  0  0  0  0  0
  185.9780  174.7300  137.1880 O   0  0  0  0  0  1  0  0  0  0  0  0
  187.2820  175.0260  136.7700 C   0  0  0  0  0  2  0  0  0  0  0  0
  1 19  1  1  0  0  0
  1 10  1  0  0  0  0
  1 22  1  0  0  0  0
  2  3  1  0  0  0  0
  4 22  1  0  0  0  0
  4  5  1  0  0  0  0
  5 15  2  0  0  0  0
  6 14  1  0  0  0  0
  6 19  1  0  0  0  0
  8 21  1  0  0  0  0
  9  2  2  0  0  0  0
 10  7  1  6  0  0  0
 10 11  1  0  0  0  0
 11  9  1  0  0  0  0
 11 17  2  0  0  0  0
 12 17  1  1  0  0  0
 12 18  1  0  0  0  0
 13  8  2  0  0  0  0
 14 25  1  6  0  0  0
 14  7  1  0  0  0  0
 15 13  1  0  0  0  0
 16  3  2  0  0  0  0
 17 16  1  0  0  0  0
 20  4  2  0  0  0  0
 22 12  1  0  0  0  0
 23  5  1  6  0  0  0
 23 18  1  0  0  0  0
 23  8  1  0  0  0  0
 25 24  1  6  0  0  0
 26 25  1  6  0  0  0
 26 28  1  0  0  0  0
 27 26  1  0  0  0  0
 27 28  1  0  0  0  0
 28 30  1  1  0  0  0
 28 29  1  0  0  0  0
 32  6  1  0  0  0  0
 32 31  1  0  0  0  0
M  END
>  <MODEL>
1

>  <REMARK>
 VINA RESULT:      -7.8      0.000      0.000
  Name = 
  3 active torsions:
  status: ('A' for Active; 'I' for Inactive)
    1  A    between atoms: N_7  and  C_19
    2  A    between atoms: C_10  and  C_17
    3  A    between atoms: C_10  and  C_20
                            x       y       z     vdW  Elec       q    Type
                         _______ _______ _______ _____ _____    ______ ____

>  <TORSDO>
F 3

$$$$
=
 OpenBabel11122410453D

 32 37  0  0  1  0  0  0  0  0999 V2000
  183.5950  178.8540  141.0410 C   0  0  1  0  0  3  0  0  0  0  0  0
  187.0310  177.7990  137.7430 C   0  0  0  0  0  3  0  0  0  0  0  0
  187.9650  177.6030  138.7610 C   0  0  0  0  0  3  0  0  0  0  0  0
  184.2160  178.7480  143.4710 C   0  0  0  0  0  0  0  0  0  0  0  0
  185.2310  178.4670  144.4860 C   0  0  0  0  0  0  0  0  0  0  0  0
  181.9270  177.4630  139.8640 N   0  0  0  0  0  0  0  0  0  0  0  0
  183.0760  179.2690  138.6130 C   0  0  0  0  0  2  0  0  0  0  0  0
  187.2320  177.8230  145.2890 C   0  0  0  0  0  0  0  0  0  0  0  0
  185.7850  178.3590  138.0360 C   0  0  0  0  0  3  0  0  0  0  0  0
  184.1450  179.3700  139.7030 C   0  0  2  0  0  3  0  0  0  0  0  0
  185.4570  178.7090  139.3550 C   0  0  0  0  0  0  0  0  0  0  0  0
  186.0680  178.9800  141.7750 C   0  0  2  0  0  3  0  0  0  0  0  0
  186.4320  177.7920  146.3480 C   0  0  0  0  0  3  0  0  0  0  0  0
  182.4570  177.8680  138.5420 C   0  0  2  0  0  3  0  0  0  0  0  0
  185.0420  178.2080  145.9440 C   0  0  0  0  0  2  0  0  0  0  0  0
  187.6540  177.9660  140.0740 C   0  0  0  0  0  3  0  0  0  0  0  0
  186.3980  178.5090  140.3810 C   0  0  0  0  0  0  0  0  0  0  0  0
  186.9160  178.3280  142.7830 N   0  0  0  0  0  2  0  0  0  0  0  0
  183.0040  177.4560  140.8570 C   0  0  0  0  0  2  0  0  0  0  0  0
  183.0060  178.8860  143.7990 O   0  0  0  0  0  0  0  0  0  0  0  0
  188.6750  177.4650  145.3020 C   0  0  0  0  0  1  0  0  0  0  0  0
  184.6260  178.8170  142.0900 N   0  0  0  0  0  0  0  0  0  0  0  0
  186.4740  178.2540  144.1380 C   0  0  0  0  0  0  0  0  0  0  0  0
  180.3660  178.7840  137.7620 O   0  0  0  0  0  1  0  0  0  0  0  0
  181.3830  177.8830  137.4400 C   0  0  1  0  0  3  0  0  0  0  0  0
  181.9570  178.1950  136.0560 C   0  0  2  0  0  3  0  0  0  0  0  0
  181.4280  177.1940  135.0230 C   0  0  0  0  0  2  0  0  0  0  0  0
  182.8410  177.0790  135.5270 C   0  0  1  0  0  0  0  0  0  0  0  0
  183.8160  177.4240  134.5940 O   0  0  0  0  0  1  0  0  0  0  0  0
  183.0890  175.9020  136.3460 N   0  0  0  0  0  1  0  0  0  0  0  0
  180.0380  176.0700  140.1970 O   0  0  0  0  0  1  0  0  0  0  0  0
  181.3860  176.1000  139.8180 C   0  0  0  0  0  2  0  0  0  0  0  0
  1 19  1  6  0  0  0
  1 22  1  0  0  0  0
  2  9  2  0  0  0  0
  2  3  1  0  0  0  0
  3 16  2  0  0  0  0
  4 20  2  0  0  0  0
  4  5  1  0  0  0  0
  5 15  1  0  0  0  0
  6 19  1  0  0  0  0
  8 21  1  0  0  0  0
  8 13  2  0  0  0  0
  9 11  1  0  0  0  0
 10  7  1  6  0  0  0
 10  1  1  0  0  0  0
 11 10  1  0  0  0  0
 11 17  2  0  0  0  0
 12 17  1  6  0  0  0
 12 22  1  0  0  0  0
 12 18  1  0  0  0  0
 14 25  1  6  0  0  0
 14  7  1  0  0  0  0
 14  6  1  0  0  0  0
 15 13  1  0  0  0  0
 16 17  1  0  0  0  0
 18 23  1  0  0  0  0
 22  4  1  0  0  0  0
 23  5  2  0  0  0  0
 23  8  1  0  0  0  0
 25 24  1  1  0  0  0
 26 25  1  1  0  0  0
 27 28  1  0  0  0  0
 27 26  1  0  0  0  0
 28 29  1  6  0  0  0
 28 26  1  0  0  0  0
 28 30  1  0  0  0  0
 32  6  1  0  0  0  0
 32 31  1  0  0  0  0
M  END
>  <MODEL>
2

>  <REMARK>
 VINA RESULT:      -7.8      3.670      6.164
  Name = 
  3 active torsions:
  status: ('A' for Active; 'I' for Inactive)
    1  A    between atoms: N_7  and  C_19
    2  A    between atoms: C_10  and  C_17
    3  A    between atoms: C_10  and  C_20
                            x       y       z     vdW  Elec       q    Type
                         _______ _______ _______ _____ _____    ______ ____

>  <TORSDO>
F 3

$$$$
=
 OpenBabel11122410453D

 32 37  0  0  1  0  0  0  0  0999 V2000
  183.6460  178.8150  140.8040 C   0  0  1  0  0  3  0  0  0  0  0  0
  187.2870  177.8570  137.7030 C   0  0  0  0  0  3  0  0  0  0  0  0
  188.1690  177.6860  138.7720 C   0  0  0  0  0  3  0  0  0  0  0  0
  184.1330  178.7260  143.2650 C   0  0  0  0  0  0  0  0  0  0  0  0
  185.0970  178.4740  144.3350 C   0  0  0  0  0  0  0  0  0  0  0  0
  182.0850  177.3780  139.5380 N   0  0  0  0  0  0  0  0  0  0  0  0
  183.2510  179.2160  138.3500 C   0  0  0  0  0  2  0  0  0  0  0  0
  187.0670  177.8860  145.2490 C   0  0  0  0  0  0  0  0  0  0  0  0
  186.0130  178.3810  137.9260 C   0  0  0  0  0  3  0  0  0  0  0  0
  184.2550  179.3470  139.4970 C   0  0  2  0  0  3  0  0  0  0  0  0
  185.6020  178.7220  139.2240 C   0  0  0  0  0  0  0  0  0  0  0  0
  186.0700  179.0100  141.6740 C   0  0  2  0  0  3  0  0  0  0  0  0
  186.2120  177.8320  146.2620 C   0  0  0  0  0  3  0  0  0  0  0  0
  182.6770  177.7980  138.2470 C   0  0  2  0  0  3  0  0  0  0  0  0
  184.8350  178.2100  145.7800 C   0  0  0  0  0  2  0  0  0  0  0  0
  187.7760  178.0400  140.0650 C   0  0  0  0  0  3  0  0  0  0  0  0
  186.4890  178.5480  140.3010 C   0  0  0  0  0  0  0  0  0  0  0  0
  186.8780  178.3820  142.7290 N   0  0  0  0  0  2  0  0  0  0  0  0
  183.1050  177.4020  140.5890 C   0  0  0  0  0  2  0  0  0  0  0  0
  182.9040  178.8310  143.5240 O   0  0  0  0  0  0  0  0  0  0  0  0
  188.5170  177.5680  145.3420 C   0  0  0  0  0  1  0  0  0  0  0  0
  184.6180  178.8070  141.9080 N   0  0  0  0  0  0  0  0  0  0  0  0
  186.3630  178.2950  144.0560 C   0  0  0  0  0  0  0  0  0  0  0  0
  181.6030  176.5150  136.5080 O   0  0  0  0  0  1  0  0  0  0  0  0
  181.6650  177.7830  137.0870 C   0  0  1  0  0  3  0  0  0  0  0  0
  180.2690  178.2480  137.5110 C   0  0  2  0  0  3  0  0  0  0  0  0
  179.3380  178.3130  136.2960 C   0  0  0  0  0  2  0  0  0  0  0  0
  179.8860  179.5810  136.8930 C   0  0  1  0  0  0  0  0  0  0  0  0
  178.9440  180.3530  137.5710 O   0  0  0  0  0  1  0  0  0  0  0  0
  180.8320  180.2820  136.0400 N   0  0  0  0  0  1  0  0  0  0  0  0
  180.3670  175.8600  140.1390 O   0  0  0  0  0  1  0  0  0  0  0  0
  181.5860  176.0020  139.4640 C   0  0  0  0  0  2  0  0  0  0  0  0
  1 19  1  6  0  0  0
  1 22  1  0  0  0  0
  2  9  2  0  0  0  0
  2  3  1  0  0  0  0
  3 16  2  0  0  0  0
  4 20  2  0  0  0  0
  4  5  1  0  0  0  0
  5 15  1  0  0  0  0
  6 19  1  0  0  0  0
  8 21  1  0  0  0  0
  8 13  2  0  0  0  0
  9 11  1  0  0  0  0
 10  7  1  6  0  0  0
 10  1  1  0  0  0  0
 11 10  1  0  0  0  0
 11 17  2  0  0  0  0
 12 17  1  6  0  0  0
 12 22  1  0  0  0  0
 12 18  1  0  0  0  0
 14 25  1  6  0  0  0
 14  7  1  0  0  0  0
 14  6  1  0  0  0  0
 15 13  1  0  0  0  0
 16 17  1  0  0  0  0
 18 23  1  0  0  0  0
 22  4  1  0  0  0  0
 23  5  2  0  0  0  0
 23  8  1  0  0  0  0
 25 24  1  1  0  0  0
 26 25  1  6  0  0  0
 27 28  1  0  0  0  0
 27 26  1  0  0  0  0
 28 30  1  6  0  0  0
 28 26  1  0  0  0  0
 28 29  1  0  0  0  0
 32  6  1  0  0  0  0
 32 31  1  0  0  0  0
M  END
>  <MODEL>
3

>  <REMARK>
 VINA RESULT:      -7.1      4.000      6.871
  Name = 
  3 active torsions:
  status: ('A' for Active; 'I' for Inactive)
    1  A    between atoms: N_7  and  C_19
    2  A    between atoms: C_10  and  C_17
    3  A    between atoms: C_10  and  C_20
                            x       y       z     vdW  Elec       q    Type
                         _______ _______ _______ _____ _____    ______ ____

>  <TORSDO>
F 3

$$$$
=
 OpenBabel11122410453D

 32 37  0  0  1  0  0  0  0  0999 V2000
  188.8010  177.2960  137.9360 C   0  0  1  0  0  3  0  0  0  0  0  0
  190.8360  176.6530  142.3230 C   0  0  0  0  0  3  0  0  0  0  0  0
  189.6430  177.0240  142.9440 C   0  0  0  0  0  3  0  0  0  0  0  0
  186.3910  177.9910  137.8410 C   0  0  0  0  0  0  0  0  0  0  0  0
  185.1580  178.3110  138.5590 C   0  0  0  0  0  0  0  0  0  0  0  0
  189.7850  175.1960  137.0850 N   0  0  0  0  0  0  0  0  0  0  0  0
  191.2880  176.9180  138.0470 C   0  0  0  0  0  2  0  0  0  0  0  0
  183.8090  178.5690  140.3400 C   0  0  0  0  0  0  0  0  0  0  0  0
  190.9910  176.8290  140.9460 C   0  0  0  0  0  3  0  0  0  0  0  0
  190.0960  177.6230  138.6970 C   0  0  2  0  0  3  0  0  0  0  0  0
  189.9450  177.3620  140.1760 C   0  0  0  0  0  0  0  0  0  0  0  0
  187.6660  178.3960  139.9790 C   0  0  2  0  0  3  0  0  0  0  0  0
  182.9770  178.5370  139.3070 C   0  0  0  0  0  3  0  0  0  0  0  0
  191.0330  175.4190  137.8510 C   0  0  2  0  0  3  0  0  0  0  0  0
  183.7620  178.3660  138.0320 C   0  0  0  0  0  3  0  0  0  0  0  0
  188.6030  177.5730  142.1890 C   0  0  0  0  0  3  0  0  0  0  0  0
  188.7420  177.7340  140.8020 C   0  0  0  0  0  0  0  0  0  0  0  0
  186.3550  178.3200  140.6390 N   0  0  0  0  0  2  0  0  0  0  0  0
  188.6470  175.7820  137.7970 C   0  0  0  0  0  2  0  0  0  0  0  0
  186.3740  177.8020  136.5940 O   0  0  0  0  0  0  0  0  0  0  0  0
  183.3940  178.7150  141.7610 C   0  0  0  0  0  1  0  0  0  0  0  0
  187.6110  177.8530  138.5980 N   0  0  0  0  0  0  0  0  0  0  0  0
  185.1640  178.4370  139.8610 C   0  0  1  0  0  3  0  0  0  0  0  0
  192.1110  174.7980  135.7830 O   0  0  0  0  0  1  0  0  0  0  0  0
  192.2750  174.8160  137.1700 C   0  0  1  0  0  3  0  0  0  0  0  0
  193.5690  175.5390  137.5480 C   0  0  2  0  0  3  0  0  0  0  0  0
  194.6890  175.1730  136.5670 C   0  0  0  0  0  2  0  0  0  0  0  0
  194.6760  174.5800  137.9510 C   0  0  1  0  0  0  0  0  0  0  0  0
  195.6690  175.0700  138.7970 O   0  0  0  0  0  1  0  0  0  0  0  0
  194.4170  173.1490  137.9840 N   0  0  0  0  0  1  0  0  0  0  0  0
  188.1590  173.5330  136.6280 O   0  0  0  0  0  1  0  0  0  0  0  0
  189.5040  173.7640  136.9440 C   0  0  0  0  0  2  0  0  0  0  0  0
  1 19  1  1  0  0  0
  1 22  1  0  0  0  0
  1 10  1  0  0  0  0
  2  3  1  0  0  0  0
  4  5  1  0  0  0  0
  4 22  1  0  0  0  0
  6 19  1  0  0  0  0
  6 14  1  0  0  0  0
  8 21  1  0  0  0  0
  9  2  2  0  0  0  0
 10  7  1  6  0  0  0
 10 11  1  0  0  0  0
 11 17  2  0  0  0  0
 11  9  1  0  0  0  0
 12 18  1  1  0  0  0
 12 17  1  0  0  0  0
 13  8  2  0  0  0  0
 14 25  1  6  0  0  0
 14  7  1  0  0  0  0
 15  5  2  0  0  0  0
 15 13  1  0  0  0  0
 16  3  2  0  0  0  0
 17 16  1  0  0  0  0
 20  4  2  0  0  0  0
 22 12  1  0  0  0  0
 23  5  1  6  0  0  0
 23  8  1  0  0  0  0
 23 18  1  0  0  0  0
 25 24  1  6  0  0  0
 26 25  1  6  0  0  0
 26 28  1  0  0  0  0
 27 26  1  0  0  0  0
 27 28  1  0  0  0  0
 28 30  1  1  0  0  0
 28 29  1  0  0  0  0
 31 32  1  0  0  0  0
 32  6  1  0  0  0  0
M  END
>  <MODEL>
4

>  <REMARK>
 VINA RESULT:      -6.6      1.816      2.398
  Name = 
  3 active torsions:
  status: ('A' for Active; 'I' for Inactive)
    1  A    between atoms: N_7  and  C_19
    2  A    between atoms: C_10  and  C_17
    3  A    between atoms: C_10  and  C_20
                            x       y       z     vdW  Elec       q    Type
                         _______ _______ _______ _____ _____    ______ ____

>  <TORSDO>
F 3

$$$$
=
 OpenBabel11122410453D

 32 37  0  0  1  0  0  0  0  0999 V2000
  190.1140  177.8420  141.8630 C   0  0  1  0  0  3  0  0  0  0  0  0
  185.6410  178.2030  143.7750 C   0  0  0  0  0  3  0  0  0  0  0  0
  185.0750  178.0690  142.5060 C   0  0  0  0  0  3  0  0  0  0  0  0
  190.3170  177.4840  139.3870 C   0  0  0  0  0  0  0  0  0  0  0  0
  189.6540  177.2890  138.0980 C   0  0  0  0  0  0  0  0  0  0  0  0
  190.8430  176.3090  143.6580 N   0  0  0  0  0  0  0  0  0  0  0  0
  189.9080  178.5200  144.2790 C   0  0  0  0  0  2  0  0  0  0  0  0
  187.9290  177.0170  136.6800 C   0  0  0  0  0  0  0  0  0  0  0  0
  187.0180  178.3920  143.9090 C   0  0  0  0  0  3  0  0  0  0  0  0
  189.3270  178.6910  142.8730 C   0  0  2  0  0  3  0  0  0  0  0  0
  187.8440  178.4290  142.7740 C   0  0  0  0  0  0  0  0  0  0  0  0
  188.1580  178.4320  140.2830 C   0  0  2  0  0  3  0  0  0  0  0  0
  188.9860  176.6190  135.9830 C   0  0  0  0  0  3  0  0  0  0  0  0
  190.0470  177.0440  144.6690 C   0  0  2  0  0  3  0  0  0  0  0  0
  190.2260  176.7530  136.8280 C   0  0  0  0  0  3  0  0  0  0  0  0
  185.8860  178.1230  141.3700 C   0  0  0  0  0  3  0  0  0  0  0  0
  187.2730  178.2910  141.4960 C   0  0  0  0  0  0  0  0  0  0  0  0
  187.5380  177.8420  139.0880 N   0  0  0  0  0  2  0  0  0  0  0  0
  190.1930  176.3940  142.3480 C   0  0  0  0  0  2  0  0  0  0  0  0
  191.5540  177.2730  139.5070 O   0  0  0  0  0  0  0  0  0  0  0  0
  186.5300  177.0170  136.1750 C   0  0  0  0  0  1  0  0  0  0  0  0
  189.5160  177.8780  140.5200 N   0  0  0  0  0  0  0  0  0  0  0  0
  188.3580  177.4400  137.9920 C   0  0  1  0  0  3  0  0  0  0  0  0
  192.0550  177.0280  146.0060 O   0  0  0  0  0  1  0  0  0  0  0  0
  190.6620  176.9850  146.0790 C   0  0  1  0  0  3  0  0  0  0  0  0
  190.1380  178.0890  147.0000 C   0  0  2  0  0  3  0  0  0  0  0  0
  190.3080  177.6820  148.4680 C   0  0  0  0  0  2  0  0  0  0  0  0
  188.9460  177.6400  147.8280 C   0  0  1  0  0  0  0  0  0  0  0  0
  188.0700  178.6280  148.2740 O   0  0  0  0  0  1  0  0  0  0  0  0
  188.4080  176.3000  147.6550 N   0  0  0  0  0  1  0  0  0  0  0  0
  192.2560  174.4930  144.2290 O   0  0  0  0  0  1  0  0  0  0  0  0
  190.9310  174.8840  143.9940 C   0  0  0  0  0  2  0  0  0  0  0  0
  1 19  1  1  0  0  0
  1 10  1  0  0  0  0
  2  9  1  0  0  0  0
  3  2  2  0  0  0  0
  4 20  2  0  0  0  0
  4 22  1  0  0  0  0
  5  4  1  0  0  0  0
  6 32  1  0  0  0  0
  6 14  1  0  0  0  0
  7 14  1  0  0  0  0
 10  7  1  1  0  0  0
 11 10  1  0  0  0  0
 11  9  2  0  0  0  0
 12 18  1  6  0  0  0
 12 22  1  0  0  0  0
 12 17  1  0  0  0  0
 13  8  2  0  0  0  0
 13 15  1  0  0  0  0
 14 25  1  1  0  0  0
 15  5  2  0  0  0  0
 16 17  2  0  0  0  0
 16  3  1  0  0  0  0
 17 11  1  0  0  0  0
 19  6  1  0  0  0  0
 21  8  1  0  0  0  0
 22  1  1  0  0  0  0
 23  8  1  1  0  0  0
 23  5  1  0  0  0  0
 23 18  1  0  0  0  0
 25 24  1  6  0  0  0
 26 25  1  6  0  0  0
 26 28  1  0  0  0  0
 26 27  1  0  0  0  0
 28 30  1  6  0  0  0
 28 29  1  0  0  0  0
 28 27  1  0  0  0  0
 32 31  1  0  0  0  0
M  END
>  <MODEL>
5

>  <REMARK>
 VINA RESULT:      -6.5      3.757      7.676
  Name = 
  3 active torsions:
  status: ('A' for Active; 'I' for Inactive)
    1  A    between atoms: N_7  and  C_19
    2  A    between atoms: C_10  and  C_17
    3  A    between atoms: C_10  and  C_20
                            x       y       z     vdW  Elec       q    Type
                         _______ _______ _______ _____ _____    ______ ____

>  <TORSDO>
F 3

$$$$
=
 OpenBabel11122410453D

 32 37  0  0  1  0  0  0  0  0999 V2000
  189.1160  178.0650  140.8810 C   0  0  1  0  0  3  0  0  0  0  0  0
  184.5850  178.3080  142.6680 C   0  0  0  0  0  3  0  0  0  0  0  0
  184.0570  178.1000  141.3930 C   0  0  0  0  0  3  0  0  0  0  0  0
  189.3980  177.6200  138.4260 C   0  0  0  0  0  0  0  0  0  0  0  0
  188.7760  177.3470  137.1310 C   0  0  0  0  0  0  0  0  0  0  0  0
  189.8630  176.6360  142.7530 N   0  0  0  0  0  0  0  0  0  0  0  0
  188.8200  178.8270  143.2620 C   0  0  0  0  0  2  0  0  0  0  0  0
  187.1010  176.9460  135.6830 C   0  0  0  0  0  0  0  0  0  0  0  0
  185.9490  178.5610  142.8280 C   0  0  0  0  0  3  0  0  0  0  0  0
  188.2690  178.9180  141.8370 C   0  0  2  0  0  3  0  0  0  0  0  0
  186.8000  178.5890  141.7130 C   0  0  0  0  0  0  0  0  0  0  0  0
  187.1790  178.5080  139.2310 C   0  0  2  0  0  3  0  0  0  0  0  0
  188.1920  176.5680  135.0290 C   0  0  0  0  0  3  0  0  0  0  0  0
  189.0110  177.3750  143.7130 C   0  0  2  0  0  3  0  0  0  0  0  0
  189.4030  176.7870  135.8980 C   0  0  0  0  0  3  0  0  0  0  0  0
  184.8940  178.1450  140.2750 C   0  0  0  0  0  3  0  0  0  0  0  0
  186.2700  178.3770  140.4280 C   0  0  0  0  0  0  0  0  0  0  0  0
  186.6150  177.8470  138.0460 N   0  0  0  0  0  2  0  0  0  0  0  0
  189.2440  176.6420  141.4250 C   0  0  0  0  0  2  0  0  0  0  0  0
  190.6390  177.4670  138.5840 O   0  0  0  0  0  0  0  0  0  0  0  0
  185.7170  176.8660  135.1460 C   0  0  0  0  0  1  0  0  0  0  0  0
  188.5520  178.0240  139.5230 N   0  0  0  0  0  0  0  0  0  0  0  0
  187.4790  177.4380  136.9870 C   0  0  1  0  0  3  0  0  0  0  0  0
  190.9390  177.7610  145.1120 O   0  0  0  0  0  1  0  0  0  0  0  0
  189.5910  177.3970  145.1390 C   0  0  1  0  0  3  0  0  0  0  0  0
  188.8070  178.3110  146.0840 C   0  0  2  0  0  3  0  0  0  0  0  0
  188.4000  177.5470  147.3480 C   0  0  0  0  0  2  0  0  0  0  0  0
  187.3750  177.8470  146.2880 C   0  0  1  0  0  0  0  0  0  0  0  0
  186.4370  178.8110  146.6510 O   0  0  0  0  0  1  0  0  0  0  0  0
  186.8870  176.6750  145.5800 N   0  0  0  0  0  1  0  0  0  0  0  0
  191.3110  174.9380  143.5520 O   0  0  0  0  0  1  0  0  0  0  0  0
  190.0020  175.2310  143.1470 C   0  0  0  0  0  2  0  0  0  0  0  0
  1 19  1  1  0  0  0
  1 10  1  0  0  0  0
  2  9  1  0  0  0  0
  3  2  2  0  0  0  0
  4 20  2  0  0  0  0
  4 22  1  0  0  0  0
  5  4  1  0  0  0  0
  6 32  1  0  0  0  0
  6 14  1  0  0  0  0
  7 14  1  0  0  0  0
 10  7  1  1  0  0  0
 11 10  1  0  0  0  0
 11  9  2  0  0  0  0
 12 18  1  6  0  0  0
 12 22  1  0  0  0  0
 12 17  1  0  0  0  0
 13  8  2  0  0  0  0
 13 15  1  0  0  0  0
 14 25  1  1  0  0  0
 15  5  2  0  0  0  0
 16 17  2  0  0  0  0
 16  3  1  0  0  0  0
 17 11  1  0  0  0  0
 19  6  1  0  0  0  0
 21  8  1  0  0  0  0
 22  1  1  0  0  0  0
 23  8  1  1  0  0  0
 23  5  1  0  0  0  0
 23 18  1  0  0  0  0
 25 24  1  6  0  0  0
 26 25  1  6  0  0  0
 26 28  1  0  0  0  0
 26 27  1  0  0  0  0
 28 30  1  6  0  0  0
 28 29  1  0  0  0  0
 28 27  1  0  0  0  0
 32 31  1  0  0  0  0
M  END
>  <MODEL>
6

>  <REMARK>
 VINA RESULT:      -6.2      3.163      7.273
  Name = 
  3 active torsions:
  status: ('A' for Active; 'I' for Inactive)
    1  A    between atoms: N_7  and  C_19
    2  A    between atoms: C_10  and  C_17
    3  A    between atoms: C_10  and  C_20
                            x       y       z     vdW  Elec       q    Type
                         _______ _______ _______ _____ _____    ______ ____

>  <TORSDO>
F 3

$$$$
=
 OpenBabel11122410453D

 32 37  0  0  1  0  0  0  0  0999 V2000
  184.3990  177.8680  137.8210 C   0  0  1  0  0  3  0  0  0  0  0  0
  187.9290  178.2510  141.1650 C   0  0  0  0  0  3  0  0  0  0  0  0
  186.9780  178.4820  142.1600 C   0  0  0  0  0  3  0  0  0  0  0  0
  182.0180  178.0850  138.5840 C   0  0  0  0  0  0  0  0  0  0  0  0
  181.0760  178.2730  139.6860 C   0  0  0  0  0  0  0  0  0  0  0  0
  185.4670  175.8850  136.8060 N   0  0  0  0  0  0  0  0  0  0  0  0
  186.7840  177.9750  137.0210 C   0  0  0  0  0  2  0  0  0  0  0  0
  180.4140  178.5320  141.8210 C   0  0  0  0  0  0  0  0  0  0  0  0
  187.5490  178.2530  139.8210 C   0  0  0  0  0  3  0  0  0  0  0  0
  185.7690  178.5350  138.0200 C   0  0  2  0  0  3  0  0  0  0  0  0
  186.2090  178.4660  139.4630 C   0  0  0  0  0  0  0  0  0  0  0  0
  183.8340  179.0230  140.0610 C   0  0  2  0  0  3  0  0  0  0  0  0
  179.3030  178.1980  141.1760 C   0  0  0  0  0  3  0  0  0  0  0  0
  186.8200  176.4420  137.0350 C   0  0  2  0  0  3  0  0  0  0  0  0
  179.6100  177.9940  139.7160 C   0  0  0  0  0  3  0  0  0  0  0  0
  185.6450  178.7150  141.8120 C   0  0  0  0  0  3  0  0  0  0  0  0
  185.2500  178.6970  140.4660 C   0  0  0  0  0  0  0  0  0  0  0  0
  182.8900  178.8030  141.1650 N   0  0  0  0  0  2  0  0  0  0  0  0
  184.5500  176.3470  137.8500 C   0  0  0  0  0  2  0  0  0  0  0  0
  181.6080  177.7190  137.4490 O   0  0  0  0  0  0  0  0  0  0  0  0
  180.5010  178.8030  143.2810 C   0  0  0  0  0  1  0  0  0  0  0  0
  183.4230  178.2860  138.8390 N   0  0  0  0  0  0  0  0  0  0  0  0
  181.5090  178.5840  140.8810 C   0  0  1  0  0  3  0  0  0  0  0  0
  187.6840  176.7070  134.7980 O   0  0  0  0  0  1  0  0  0  0  0  0
  187.8460  175.9860  135.9820 C   0  0  1  0  0  3  0  0  0  0  0  0
  189.2910  176.0880  136.4790 C   0  0  2  0  0  3  0  0  0  0  0  0
  190.2170  175.2430  135.5970 C   0  0  0  0  0  2  0  0  0  0  0  0
  189.8330  174.7560  136.9680 C   0  0  1  0  0  0  0  0  0  0  0  0
  190.8670  174.7910  137.9020 O   0  0  0  0  0  1  0  0  0  0  0  0
  188.9770  173.5810  136.9660 N   0  0  0  0  0  1  0  0  0  0  0  0
  184.6600  173.9470  137.9050 O   0  0  0  0  0  1  0  0  0  0  0  0
  185.4840  174.4200  136.8760 C   0  0  0  0  0  2  0  0  0  0  0  0
  1 19  1  1  0  0  0
  1 10  1  0  0  0  0
  1 22  1  0  0  0  0
  2  3  1  0  0  0  0
  4 22  1  0  0  0  0
  4  5  1  0  0  0  0
  5 15  2  0  0  0  0
  6 32  1  0  0  0  0
  6 14  1  0  0  0  0
  6 19  1  0  0  0  0
  7 14  1  0  0  0  0
  8 21  1  0  0  0  0
  9  2  2  0  0  0  0
 10  7  1  6  0  0  0
 10 11  1  0  0  0  0
 11  9  1  0  0  0  0
 11 17  2  0  0  0  0
 12 17  1  1  0  0  0
 12 18  1  0  0  0  0
 13  8  2  0  0  0  0
 14 25  1  6  0  0  0
 15 13  1  0  0  0  0
 16  3  2  0  0  0  0
 17 16  1  0  0  0  0
 20  4  2  0  0  0  0
 22 12  1  0  0  0  0
 23  5  1  1  0  0  0
 23 18  1  0  0  0  0
 23  8  1  0  0  0  0
 25 24  1  6  0  0  0
 26 25  1  6  0  0  0
 26 28  1  0  0  0  0
 27 26  1  0  0  0  0
 27 28  1  0  0  0  0
 28 30  1  1  0  0  0
 28 29  1  0  0  0  0
 32 31  1  0  0  0  0
M  END
>  <MODEL>
7

>  <REMARK>
 VINA RESULT:      -6.2      2.032      2.864
  Name = 
  3 active torsions:
  status: ('A' for Active; 'I' for Inactive)
    1  A    between atoms: N_7  and  C_19
    2  A    between atoms: C_10  and  C_17
    3  A    between atoms: C_10  and  C_20
                            x       y       z     vdW  Elec       q    Type
                         _______ _______ _______ _____ _____    ______ ____

>  <TORSDO>
F 3

$$$$
=
 OpenBabel11122410453D

 32 37  0  0  1  0  0  0  0  0999 V2000
  185.6530  179.0430  141.9910 C   0  0  1  0  0  3  0  0  0  0  0  0
  181.2480  178.4680  144.0040 C   0  0  0  0  0  3  0  0  0  0  0  0
  180.7220  178.0780  142.7710 C   0  0  0  0  0  3  0  0  0  0  0  0
  185.9170  178.5150  139.5510 C   0  0  0  0  0  0  0  0  0  0  0  0
  185.3120  178.0410  138.3070 C   0  0  0  0  0  0  0  0  0  0  0  0
  186.7560  177.9140  143.8920 N   0  0  0  0  0  0  0  0  0  0  0  0
  185.3050  179.8740  144.3420 C   0  0  0  0  0  2  0  0  0  0  0  0
  183.6960  177.2190  136.9740 C   0  0  0  0  0  0  0  0  0  0  0  0
  182.5350  179.0030  144.0770 C   0  0  0  0  0  3  0  0  0  0  0  0
  184.6880  179.7630  142.9460 C   0  0  2  0  0  3  0  0  0  0  0  0
  183.3160  179.1340  142.9180 C   0  0  0  0  0  0  0  0  0  0  0  0
  183.5980  178.9800  140.4270 C   0  0  2  0  0  3  0  0  0  0  0  0
  184.8140  177.0310  136.2820 C   0  0  0  0  0  3  0  0  0  0  0  0
  185.8110  178.5220  144.8570 C   0  0  2  0  0  3  0  0  0  0  0  0
  185.9890  177.5460  137.0730 C   0  0  0  0  0  3  0  0  0  0  0  0
  181.4840  178.2240  141.6100 C   0  0  0  0  0  3  0  0  0  0  0  0
  182.7870  178.7410  141.6760 C   0  0  0  0  0  0  0  0  0  0  0  0
  183.1340  178.1450  139.3100 N   0  0  0  0  0  2  0  0  0  0  0  0
  186.0940  177.7130  142.6000 C   0  0  0  0  0  2  0  0  0  0  0  0
  187.1690  178.6280  139.6500 O   0  0  0  0  0  0  0  0  0  0  0  0
  182.3370  176.8250  136.5170 C   0  0  0  0  0  1  0  0  0  0  0  0
  185.0530  178.8040  140.6690 N   0  0  0  0  0  0  0  0  0  0  0  0
  184.0190  177.8570  138.2290 C   0  0  1  0  0  3  0  0  0  0  0  0
  185.5190  179.3780  147.0940 O   0  0  0  0  0  1  0  0  0  0  0  0
  186.4330  178.7500  146.2460 C   0  0  1  0  0  3  0  0  0  0  0  0
  186.9540  177.4580  146.8820 C   0  0  2  0  0  3  0  0  0  0  0  0
  187.5550  177.7500  148.2620 C   0  0  0  0  0  2  0  0  0  0  0  0
  188.4590  177.4770  147.0900 C   0  0  1  0  0  0  0  0  0  0  0  0
  189.1130  176.2480  147.1390 O   0  0  0  0  0  1  0  0  0  0  0  0
  189.2350  178.6280  146.6540 N   0  0  0  0  0  1  0  0  0  0  0  0
  188.1200  176.0240  143.4620 O   0  0  0  0  0  1  0  0  0  0  0  0
  187.1990  176.5940  144.3500 C   0  0  0  0  0  2  0  0  0  0  0  0
  1 19  1  1  0  0  0
  1 10  1  0  0  0  0
  2  9  1  0  0  0  0
  3  2  2  0  0  0  0
  4 20  2  0  0  0  0
  4 22  1  0  0  0  0
  5  4  1  0  0  0  0
  6 32  1  0  0  0  0
  6 14  1  0  0  0  0
  7 14  1  0  0  0  0
 10  7  1  1  0  0  0
 11 10  1  0  0  0  0
 11  9  2  0  0  0  0
 12 18  1  6  0  0  0
 12 22  1  0  0  0  0
 12 17  1  0  0  0  0
 13  8  2  0  0  0  0
 13 15  1  0  0  0  0
 14 25  1  1  0  0  0
 15  5  2  0  0  0  0
 16 17  2  0  0  0  0
 16  3  1  0  0  0  0
 17 11  1  0  0  0  0
 19  6  1  0  0  0  0
 21  8  1  0  0  0  0
 22  1  1  0  0  0  0
 23  8  1  1  0  0  0
 23  5  1  0  0  0  0
 23 18  1  0  0  0  0
 25 24  1  1  0  0  0
 26 25  1  6  0  0  0
 26 28  1  0  0  0  0
 26 27  1  0  0  0  0
 28 30  1  6  0  0  0
 28 29  1  0  0  0  0
 28 27  1  0  0  0  0
 31 32  1  0  0  0  0
M  END
>  <MODEL>
8

>  <REMARK>
 VINA RESULT:      -6.1      3.877      7.796
  Name = 
  3 active torsions:
  status: ('A' for Active; 'I' for Inactive)
    1  A    between atoms: N_7  and  C_19
    2  A    between atoms: C_10  and  C_17
    3  A    between atoms: C_10  and  C_20
                            x       y       z     vdW  Elec       q    Type
                         _______ _______ _______ _____ _____    ______ ____

>  <TORSDO>
F 3

$$$$
=
 OpenBabel11122410453D

 32 37  0  0  1  0  0  0  0  0999 V2000
  185.5480  178.1790  137.9860 C   0  0  1  0  0  3  0  0  0  0  0  0
  182.6890  174.2470  137.5900 C   0  0  0  0  0  3  0  0  0  0  0  0
  183.8040  173.4470  137.3300 C   0  0  0  0  0  3  0  0  0  0  0  0
  188.0260  177.8710  137.7270 C   0  0  0  0  0  0  0  0  0  0  0  0
  189.1520  176.9640  137.5080 C   0  0  0  0  0  0  0  0  0  0  0  0
  184.3410  178.9510  139.9990 N   0  0  0  0  0  0  0  0  0  0  0  0
  183.0550  178.5260  137.9220 C   0  0  0  0  0  2  0  0  0  0  0  0
  190.1910  174.9920  137.2050 C   0  0  0  0  0  0  0  0  0  0  0  0
  182.8150  175.6370  137.6060 C   0  0  0  0  0  3  0  0  0  0  0  0
  184.2280  177.7390  137.3330 C   0  0  2  0  0  3  0  0  0  0  0  0
  184.0630  176.2390  137.3820 C   0  0  0  0  0  0  0  0  0  0  0  0
  186.4980  176.0980  136.7860 C   0  0  2  0  0  3  0  0  0  0  0  0
  191.1690  175.8250  137.5360 C   0  0  0  0  0  3  0  0  0  0  0  0
  183.0450  178.4840  139.4540 C   0  0  2  0  0  3  0  0  0  0  0  0
  190.6020  177.2010  137.7690 C   0  0  0  0  0  2  0  0  0  0  0  0
  185.0460  174.0390  137.0870 C   0  0  0  0  0  3  0  0  0  0  0  0
  185.1860  175.4340  137.1230 C   0  0  0  0  0  0  0  0  0  0  0  0
  187.6330  175.1840  136.9760 N   0  0  0  0  0  2  0  0  0  0  0  0
  185.4280  178.1000  139.5080 C   0  0  0  0  0  2  0  0  0  0  0  0
  188.2250  179.0570  138.1070 O   0  0  0  0  0  0  0  0  0  0  0  0
  190.3700  173.5450  136.9110 C   0  0  0  0  0  1  0  0  0  0  0  0
  186.6890  177.3640  137.5390 N   0  0  0  0  0  0  0  0  0  0  0  0
  188.9410  175.7150  137.1820 C   0  0  0  0  0  0  0  0  0  0  0  0
  181.6340  180.4060  139.0880 O   0  0  0  0  0  1  0  0  0  0  0  0
  181.8500  179.3230  139.9410 C   0  0  1  0  0  3  0  0  0  0  0  0
  180.5700  178.4970  140.0940 C   0  0  2  0  0  3  0  0  0  0  0  0
  179.4760  179.3330  140.7690 C   0  0  0  0  0  2  0  0  0  0  0  0
  180.1970  178.2660  141.5480 C   0  0  1  0  0  0  0  0  0  0  0  0
  179.4240  177.1430  141.8390 O   0  0  0  0  0  1  0  0  0  0  0  0
  181.0550  178.7760  142.6060 N   0  0  0  0  0  1  0  0  0  0  0  0
  185.3960  179.6240  142.0120 O   0  0  0  0  0  1  0  0  0  0  0  0
  184.3600  178.8580  141.4620 C   0  0  0  0  0  2  0  0  0  0  0  0
  1 19  1  1  0  0  0
  2  9  1  0  0  0  0
  3  2  2  0  0  0  0
  4 20  2  0  0  0  0
  5  4  1  0  0  0  0
  5 15  1  0  0  0  0
  6 32  1  0  0  0  0
  7 14  1  0  0  0  0
  8 13  2  0  0  0  0
 10 11  1  0  0  0  0
 10  7  1  1  0  0  0
 10  1  1  0  0  0  0
 11  9  2  0  0  0  0
 12 18  1  1  0  0  0
 12 17  1  0  0  0  0
 12 22  1  0  0  0  0
 13 15  1  0  0  0  0
 14 25  1  1  0  0  0
 14  6  1  0  0  0  0
 16 17  2  0  0  0  0
 16  3  1  0  0  0  0
 17 11  1  0  0  0  0
 18 23  1  0  0  0  0
 19  6  1  0  0  0  0
 21  8  1  0  0  0  0
 22  4  1  0  0  0  0
 22  1  1  0  0  0  0
 23  8  1  0  0  0  0
 23  5  2  0  0  0  0
 25 24  1  6  0  0  0
 26 25  1  1  0  0  0
 26 27  1  0  0  0  0
 26 28  1  0  0  0  0
 27 28  1  0  0  0  0
 28 29  1  1  0  0  0
 28 30  1  0  0  0  0
 32 31  1  0  0  0  0
M  END
>  <MODEL>
9

>  <REMARK>
 VINA RESULT:      -6.1      2.821      8.370
  Name = 
  3 active torsions:
  status: ('A' for Active; 'I' for Inactive)
    1  A    between atoms: N_7  and  C_19
    2  A    between atoms: C_10  and  C_17
    3  A    between atoms: C_10  and  C_20
                            x       y       z     vdW  Elec       q    Type
                         _______ _______ _______ _____ _____    ______ ____

>  <TORSDO>
F 3

$$$$
