=
 OpenBabel11122410293D

 30 35  0  0  1  0  0  0  0  0999 V2000
  188.8880  177.5390  144.8380 C   0  0  0  0  0  0  0  0  0  0  0  0
  187.0860  177.7250  146.5870 C   0  0  0  0  0  0  0  0  0  0  0  0
  186.1360  178.5340  141.8210 N   0  0  0  0  0  2  0  0  0  0  0  0
  189.2510  177.5930  143.4750 C   0  0  0  0  0  0  0  0  0  0  0  0
  189.9200  177.3070  145.8050 N   0  0  0  0  0  0  0  0  0  0  0  0
  191.5660  174.8910  143.8390 Cl  0  0  0  0  0  0  0  0  0  0  0  0
  190.2060  176.3850  140.8740 N   0  0  1  0  0  0  0  0  0  0  0  0
  191.5190  176.6600  144.0700 C   0  0  2  0  0  3  0  0  0  0  0  0
  188.9820  177.0000  140.3180 C   0  0  2  0  0  3  0  0  0  0  0  0
  187.0300  178.5460  140.7120 C   0  0  0  0  0  0  0  0  0  0  0  0
  191.1340  176.9570  145.4920 C   0  0  0  0  0  0  0  0  0  0  0  0
  190.6070  177.2680  143.0950 N   0  0  0  0  0  0  0  0  0  0  0  0
  185.7460  177.9750  146.8820 C   0  0  0  0  0  3  0  0  0  0  0  0
  189.2500  177.3200  138.8670 C   0  0  0  0  0  2  0  0  0  0  0  0
  191.0120  175.9570  139.7330 C   0  0  0  0  0  2  0  0  0  0  0  0
  187.9710  177.3950  147.7420 C   0  0  0  0  0  1  0  0  0  0  0  0
  186.9710  178.1750  142.9100 C   0  0  0  0  0  0  0  0  0  0  0  0
  184.8490  178.2780  145.8630 C   0  0  0  0  0  3  0  0  0  0  0  0
  187.5360  177.7800  145.2400 C   0  0  0  0  0  0  0  0  0  0  0  0
  188.2760  177.9490  142.5350 C   0  0  0  0  0  0  0  0  0  0  0  0
  186.6550  178.8490  139.5490 O   0  0  0  0  0  0  0  0  0  0  0  0
  188.4500  178.2240  141.0780 C   0  0  1  0  0  3  0  0  0  0  0  0
  190.2620  176.2880  138.4580 C   0  0  0  0  0  2  0  0  0  0  0  0
  191.1870  178.5530  141.1930 O   0  0  0  0  0  1  0  0  0  0  0  0
  185.2750  178.3320  144.5760 N   0  0  0  0  0  0  0  0  0  0  0  0
  186.5700  178.0930  144.2410 C   0  0  0  0  0  0  0  0  0  0  0  0
  191.0590  177.2560  141.7040 C   0  0  2  0  0  3  0  0  0  0  0  0
  192.0990  176.7930  146.4880 O   0  0  0  0  0  0  0  0  0  0  0  0
  192.9120  175.9230  148.5680 C   0  0  0  0  0  1  0  0  0  0  0  0
  192.1840  175.6150  147.2760 C   0  0  0  0  0  2  0  0  0  0  0  0
  1 19  1  0  0  0  0
  1  5  1  0  0  0  0
  2 13  1  0  0  0  0
  2 16  1  0  0  0  0
  3 17  1  0  0  0  0
  4  1  2  0  0  0  0
  7 15  1  6  0  0  0
  7 27  1  0  0  0  0
  8  6  1  1  0  0  0
  8 11  1  0  0  0  0
  9 14  1  6  0  0  0
  9  7  1  0  0  0  0
  9 22  1  0  0  0  0
 10  3  1  0  0  0  0
 11  5  2  0  0  0  0
 11 28  1  0  0  0  0
 12  4  1  0  0  0  0
 12  8  1  0  0  0  0
 17 26  1  0  0  0  0
 18 13  2  0  0  0  0
 19  2  2  0  0  0  0
 20 17  2  0  0  0  0
 20  4  1  0  0  0  0
 21 10  2  0  0  0  0
 22 10  1  6  0  0  0
 22 20  1  0  0  0  0
 23 14  1  0  0  0  0
 23 15  1  0  0  0  0
 25 18  1  0  0  0  0
 26 25  2  0  0  0  0
 26 19  1  0  0  0  0
 27 24  1  6  0  0  0
 27 12  1  0  0  0  0
 28 30  1  0  0  0  0
 30 29  1  0  0  0  0
M  END
>  <MODEL>
1

>  <REMARK>
 VINA RESULT:      -9.0      0.000      0.000
  Name = 
  2 active torsions:
  status: ('A' for Active; 'I' for Inactive)
    1  A    between atoms: C_11  and  O_28
    2  A    between atoms: O_28  and  C_30
                            x       y       z     vdW  Elec       q    Type
                         _______ _______ _______ _____ _____    ______ ____

>  <TORSDO>
F 2

$$$$
=
 OpenBabel11122410293D

 30 35  0  0  1  0  0  0  0  0999 V2000
  187.8810  178.0250  141.3580 C   0  0  0  0  0  0  0  0  0  0  0  0
  189.4640  177.4240  143.2210 C   0  0  0  0  0  0  0  0  0  0  0  0
  184.6990  178.3280  144.0860 N   0  0  0  0  0  2  0  0  0  0  0  0
  186.5640  178.3300  140.9490 C   0  0  0  0  0  0  0  0  0  0  0  0
  188.9200  178.0600  140.3710 N   0  0  0  0  0  0  0  0  0  0  0  0
  186.9510  176.5390  137.8770 Cl  0  0  0  0  0  0  0  0  0  0  0  0
  183.9840  177.7720  139.4760 N   0  0  1  0  0  0  0  0  0  0  0  0
  187.2990  178.1590  138.5420 C   0  0  2  0  0  3  0  0  0  0  0  0
  183.3620  177.9920  140.7990 C   0  0  2  0  0  3  0  0  0  0  0  0
  183.6810  178.7470  143.1830 C   0  0  0  0  0  0  0  0  0  0  0  0
  188.6970  178.1690  139.0930 C   0  0  0  0  0  0  0  0  0  0  0  0
  186.2900  178.5180  139.5430 N   0  0  0  0  0  0  0  0  0  0  0  0
  189.6510  177.1800  144.5810 C   0  0  0  0  0  3  0  0  0  0  0  0
  181.9680  178.5240  140.5660 C   0  0  0  0  0  2  0  0  0  0  0  0
  182.8960  177.7530  138.5020 C   0  0  0  0  0  2  0  0  0  0  0  0
  190.6700  177.2980  142.3510 C   0  0  0  0  0  1  0  0  0  0  0  0
  185.8330  178.1660  143.2500 C   0  0  0  0  0  0  0  0  0  0  0  0
  188.5760  177.2630  145.4610 C   0  0  0  0  0  3  0  0  0  0  0  0
  188.1710  177.7580  142.7320 C   0  0  0  0  0  0  0  0  0  0  0  0
  185.5650  178.4280  141.9260 C   0  0  0  0  0  0  0  0  0  0  0  0
  182.5120  179.0190  143.5650 O   0  0  0  0  0  0  0  0  0  0  0  0
  184.1530  178.8870  141.7650 C   0  0  1  0  0  3  0  0  0  0  0  0
  181.5840  177.9360  139.2380 C   0  0  0  0  0  2  0  0  0  0  0  0
  184.5440  180.1020  139.3190 O   0  0  0  0  0  1  0  0  0  0  0  0
  187.3420  177.5810  145.0000 N   0  0  0  0  0  0  0  0  0  0  0  0
  187.1120  177.8240  143.6820 C   0  0  0  0  0  0  0  0  0  0  0  0
  184.9490  178.7940  139.0270 C   0  0  2  0  0  3  0  0  0  0  0  0
  189.7640  178.2420  138.1950 O   0  0  0  0  0  0  0  0  0  0  0  0
  191.4430  176.5510  138.4520 C   0  0  0  0  0  1  0  0  0  0  0  0
  190.3230  177.0880  137.5850 C   0  0  0  0  0  2  0  0  0  0  0  0
  1 19  1  0  0  0  0
  2 13  1  0  0  0  0
  4  1  2  0  0  0  0
  4 20  1  0  0  0  0
  5  1  1  0  0  0  0
  7 15  1  6  0  0  0
  7  9  1  0  0  0  0
  8  6  1  1  0  0  0
  8 11  1  0  0  0  0
  8 12  1  0  0  0  0
  9 14  1  6  0  0  0
  9 22  1  0  0  0  0
 10 21  2  0  0  0  0
 10  3  1  0  0  0  0
 11  5  2  0  0  0  0
 12  4  1  0  0  0  0
 13 18  2  0  0  0  0
 15 23  1  0  0  0  0
 16  2  1  0  0  0  0
 17 26  1  0  0  0  0
 17  3  1  0  0  0  0
 19  2  2  0  0  0  0
 19 26  1  0  0  0  0
 20 17  2  0  0  0  0
 22 20  1  1  0  0  0
 22 10  1  0  0  0  0
 23 14  1  0  0  0  0
 25 18  1  0  0  0  0
 26 25  2  0  0  0  0
 27 24  1  1  0  0  0
 27  7  1  0  0  0  0
 27 12  1  0  0  0  0
 28 11  1  0  0  0  0
 30 28  1  0  0  0  0
 30 29  1  0  0  0  0
M  END
>  <MODEL>
2

>  <REMARK>
 VINA RESULT:      -8.9      3.019      6.051
  Name = 
  2 active torsions:
  status: ('A' for Active; 'I' for Inactive)
    1  A    between atoms: C_11  and  O_28
    2  A    between atoms: O_28  and  C_30
                            x       y       z     vdW  Elec       q    Type
                         _______ _______ _______ _____ _____    ______ ____

>  <TORSDO>
F 2

$$$$
=
 OpenBabel11122410293D

 30 35  0  0  1  0  0  0  0  0999 V2000
  187.7790  177.8020  143.2360 C   0  0  0  0  0  0  0  0  0  0  0  0
  185.5710  178.2560  144.3570 C   0  0  0  0  0  0  0  0  0  0  0  0
  186.1370  178.7650  139.4890 N   0  0  0  0  0  2  0  0  0  0  0  0
  188.5290  177.7240  142.0420 C   0  0  0  0  0  0  0  0  0  0  0  0
  188.4570  177.5690  144.4770 N   0  0  0  0  0  0  0  0  0  0  0  0
  190.3700  174.8910  143.2190 Cl  0  0  0  0  0  0  0  0  0  0  0  0
  190.0840  176.2500  139.9100 N   0  0  1  0  0  0  0  0  0  0  0  0
  190.4240  176.6720  143.3330 C   0  0  2  0  0  3  0  0  0  0  0  0
  189.1400  176.9110  138.9840 C   0  0  2  0  0  3  0  0  0  0  0  0
  187.3130  178.6250  138.6980 C   0  0  0  0  0  0  0  0  0  0  0  0
  189.6710  177.1050  144.5590 C   0  0  0  0  0  0  0  0  0  0  0  0
  189.8990  177.2690  142.1020 N   0  0  0  0  0  0  0  0  0  0  0  0
  184.2320  178.6280  144.2260 C   0  0  0  0  0  3  0  0  0  0  0  0
  189.8500  177.0980  137.6640 C   0  0  0  0  0  2  0  0  0  0  0  0
  191.1440  175.6770  139.0850 C   0  0  0  0  0  2  0  0  0  0  0  0
  186.0440  177.9510  145.7390 C   0  0  0  0  0  1  0  0  0  0  0  0
  186.5790  178.4300  140.7950 C   0  0  0  0  0  0  0  0  0  0  0  0
  183.7060  178.9190  142.9720 C   0  0  0  0  0  3  0  0  0  0  0  0
  186.3980  178.1740  143.2040 C   0  0  0  0  0  0  0  0  0  0  0  0
  187.9090  178.0780  140.8380 C   0  0  0  0  0  0  0  0  0  0  0  0
  187.3250  178.8650  137.4620 O   0  0  0  0  0  0  0  0  0  0  0  0
  188.5270  178.2270  139.4870 C   0  0  1  0  0  3  0  0  0  0  0  0
  190.8350  175.9640  137.6290 C   0  0  0  0  0  2  0  0  0  0  0  0
  191.1290  178.3570  140.3950 O   0  0  0  0  0  1  0  0  0  0  0  0
  184.4920  178.8420  141.8690 N   0  0  0  0  0  0  0  0  0  0  0  0
  185.8010  178.4800  141.9480 C   0  0  0  0  0  0  0  0  0  0  0  0
  190.7350  177.1170  140.9100 C   0  0  2  0  0  3  0  0  0  0  0  0
  190.2820  176.9460  145.8040 O   0  0  0  0  0  0  0  0  0  0  0  0
  191.9580  175.9980  147.2320 C   0  0  0  0  0  1  0  0  0  0  0  0
  191.6810  176.7430  145.9420 C   0  0  0  0  0  2  0  0  0  0  0  0
  1  5  1  0  0  0  0
  2 16  1  0  0  0  0
  3 17  1  0  0  0  0
  4 12  1  0  0  0  0
  4  1  2  0  0  0  0
  5 11  2  0  0  0  0
  7 15  1  6  0  0  0
  7 27  1  0  0  0  0
  8  6  1  6  0  0  0
  8 11  1  0  0  0  0
  9 14  1  6  0  0  0
  9 22  1  0  0  0  0
  9  7  1  0  0  0  0
 10  3  1  0  0  0  0
 11 28  1  0  0  0  0
 12  8  1  0  0  0  0
 13  2  1  0  0  0  0
 17 20  2  0  0  0  0
 17 26  1  0  0  0  0
 18 13  2  0  0  0  0
 19  1  1  0  0  0  0
 19  2  2  0  0  0  0
 20  4  1  0  0  0  0
 21 10  2  0  0  0  0
 22 10  1  6  0  0  0
 22 20  1  0  0  0  0
 23 14  1  0  0  0  0
 23 15  1  0  0  0  0
 25 26  2  0  0  0  0
 25 18  1  0  0  0  0
 26 19  1  0  0  0  0
 27 24  1  6  0  0  0
 27 12  1  0  0  0  0
 28 30  1  0  0  0  0
 30 29  1  0  0  0  0
M  END
>  <MODEL>
3

>  <REMARK>
 VINA RESULT:      -8.6      1.406      1.966
  Name = 
  2 active torsions:
  status: ('A' for Active; 'I' for Inactive)
    1  A    between atoms: C_11  and  O_28
    2  A    between atoms: O_28  and  C_30
                            x       y       z     vdW  Elec       q    Type
                         _______ _______ _______ _____ _____    ______ ____

>  <TORSDO>
F 2

$$$$
=
 OpenBabel11122410293D

 30 35  0  0  1  0  0  0  0  0999 V2000
  188.0330  177.8530  144.2260 C   0  0  0  0  0  0  0  0  0  0  0  0
  186.3900  178.0480  146.1230 C   0  0  0  0  0  0  0  0  0  0  0  0
  185.0340  178.8420  141.4530 N   0  0  0  0  0  2  0  0  0  0  0  0
  188.2780  177.9010  142.8360 C   0  0  0  0  0  0  0  0  0  0  0  0
  189.1450  177.6220  145.1000 N   0  0  0  0  0  0  0  0  0  0  0  0
  190.6110  175.1950  143.0090 Cl  0  0  0  0  0  0  0  0  0  0  0  0
  189.0030  176.6820  140.1670 N   0  0  1  0  0  0  0  0  0  0  0  0
  190.5870  176.9660  143.2360 C   0  0  2  0  0  3  0  0  0  0  0  0
  187.7360  177.2980  139.7160 C   0  0  2  0  0  3  0  0  0  0  0  0
  185.8290  178.8490  140.2710 C   0  0  0  0  0  0  0  0  0  0  0  0
  190.3270  177.2680  144.6850 C   0  0  0  0  0  0  0  0  0  0  0  0
  189.5950  177.5720  142.3420 N   0  0  0  0  0  0  0  0  0  0  0  0
  185.0800  178.3020  146.5320 C   0  0  0  0  0  3  0  0  0  0  0  0
  187.8790  177.6120  138.2460 C   0  0  0  0  0  2  0  0  0  0  0  0
  189.7060  176.2480  138.9620 C   0  0  0  0  0  2  0  0  0  0  0  0
  187.3700  177.7200  147.1980 C   0  0  0  0  0  1  0  0  0  0  0  0
  185.9590  178.4860  142.4680 C   0  0  0  0  0  0  0  0  0  0  0  0
  184.1000  178.6040  145.5920 C   0  0  0  0  0  3  0  0  0  0  0  0
  186.7220  178.0980  144.7410 C   0  0  0  0  0  0  0  0  0  0  0  0
  187.2260  178.2560  141.9820 C   0  0  0  0  0  0  0  0  0  0  0  0
  185.3550  179.1490  139.1440 O   0  0  0  0  0  0  0  0  0  0  0  0
  187.2740  178.5260  140.5140 C   0  0  1  0  0  3  0  0  0  0  0  0
  188.8500  176.5770  137.7560 C   0  0  0  0  0  2  0  0  0  0  0  0
  190.0120  178.8490  140.3920 O   0  0  0  0  0  1  0  0  0  0  0  0
  184.4130  178.6530  144.2740 N   0  0  0  0  0  0  0  0  0  0  0  0
  185.6740  178.4090  143.8280 C   0  0  0  0  0  0  0  0  0  0  0  0
  189.9260  177.5540  140.9170 C   0  0  2  0  0  3  0  0  0  0  0  0
  191.3740  177.1050  145.5950 O   0  0  0  0  0  0  0  0  0  0  0  0
  192.1160  175.6680  147.3630 C   0  0  0  0  0  1  0  0  0  0  0  0
  191.1520  176.7630  146.9550 C   0  0  0  0  0  2  0  0  0  0  0  0
  1 19  1  0  0  0  0
  1  5  1  0  0  0  0
  2 13  1  0  0  0  0
  2 16  1  0  0  0  0
  3 17  1  0  0  0  0
  4  1  2  0  0  0  0
  7 15  1  6  0  0  0
  7 27  1  0  0  0  0
  8  6  1  1  0  0  0
  8 11  1  0  0  0  0
  9 14  1  6  0  0  0
  9  7  1  0  0  0  0
  9 22  1  0  0  0  0
 10  3  1  0  0  0  0
 11  5  2  0  0  0  0
 11 28  1  0  0  0  0
 12  4  1  0  0  0  0
 12  8  1  0  0  0  0
 17 26  1  0  0  0  0
 18 13  2  0  0  0  0
 19  2  2  0  0  0  0
 20 17  2  0  0  0  0
 20  4  1  0  0  0  0
 21 10  2  0  0  0  0
 22 10  1  6  0  0  0
 22 20  1  0  0  0  0
 23 14  1  0  0  0  0
 23 15  1  0  0  0  0
 25 18  1  0  0  0  0
 26 25  2  0  0  0  0
 26 19  1  0  0  0  0
 27 24  1  6  0  0  0
 27 12  1  0  0  0  0
 28 30  1  0  0  0  0
 30 29  1  0  0  0  0
M  END
>  <MODEL>
4

>  <REMARK>
 VINA RESULT:      -8.6      1.116      1.259
  Name = 
  2 active torsions:
  status: ('A' for Active; 'I' for Inactive)
    1  A    between atoms: C_11  and  O_28
    2  A    between atoms: O_28  and  C_30
                            x       y       z     vdW  Elec       q    Type
                         _______ _______ _______ _____ _____    ______ ____

>  <TORSDO>
F 2

$$$$
=
 OpenBabel11122410293D

 30 35  0  0  1  0  0  0  0  0999 V2000
  188.0320  178.0060  140.2700 C   0  0  0  0  0  0  0  0  0  0  0  0
  190.0750  177.3500  141.5860 C   0  0  0  0  0  0  0  0  0  0  0  0
  185.7910  178.3400  143.8090 N   0  0  0  0  0  2  0  0  0  0  0  0
  186.6610  178.3430  140.2650 C   0  0  0  0  0  0  0  0  0  0  0  0
  188.7400  178.0320  139.0230 N   0  0  0  0  0  0  0  0  0  0  0  0
  186.0950  176.5820  137.2020 Cl  0  0  0  0  0  0  0  0  0  0  0  0
  183.7520  177.8540  139.6040 N   0  0  1  0  0  0  0  0  0  0  0  0
  186.6590  178.1860  137.7460 C   0  0  2  0  0  3  0  0  0  0  0  0
  183.5480  178.0710  141.0520 C   0  0  2  0  0  3  0  0  0  0  0  0
  184.5640  178.7900  143.2440 C   0  0  0  0  0  0  0  0  0  0  0  0
  188.1570  178.1610  137.8660 C   0  0  0  0  0  0  0  0  0  0  0  0
  185.9940  178.5530  139.0000 N   0  0  0  0  0  0  0  0  0  0  0  0
  190.6450  177.0860  142.8320 C   0  0  0  0  0  3  0  0  0  0  0  0
  182.1580  178.6330  141.2390 C   0  0  0  0  0  2  0  0  0  0  0  0
  182.4270  177.8690  138.9900 C   0  0  0  0  0  2  0  0  0  0  0  0
  190.9730  177.2120  140.4020 C   0  0  0  0  0  1  0  0  0  0  0  0
  186.6290  178.1650  142.6770 C   0  0  0  0  0  0  0  0  0  0  0  0
  189.8760  177.1800  143.9870 C   0  0  0  0  0  3  0  0  0  0  0  0
  188.7050  177.7170  141.4980 C   0  0  0  0  0  0  0  0  0  0  0  0
  185.9930  178.4490  141.4910 C   0  0  0  0  0  0  0  0  0  0  0  0
  183.5640  179.0810  143.9520 O   0  0  0  0  0  0  0  0  0  0  0  0
  184.6060  178.9380  141.7500 C   0  0  1  0  0  3  0  0  0  0  0  0
  181.3900  178.0700  140.0770 C   0  0  0  0  0  2  0  0  0  0  0  0
  184.2950  180.1750  139.3040 O   0  0  0  0  0  1  0  0  0  0  0  0
  188.5680  177.5290  143.9080 N   0  0  0  0  0  0  0  0  0  0  0  0
  187.9690  177.7930  142.7160 C   0  0  0  0  0  0  0  0  0  0  0  0
  184.5670  178.8620  138.9000 C   0  0  2  0  0  3  0  0  0  0  0  0
  188.9170  178.2240  136.6970 O   0  0  0  0  0  0  0  0  0  0  0  0
  189.7840  177.4330  134.6080 C   0  0  0  0  0  1  0  0  0  0  0  0
  189.3490  177.0590  136.0090 C   0  0  0  0  0  2  0  0  0  0  0  0
  1 19  1  0  0  0  0
  2 13  1  0  0  0  0
  4  1  2  0  0  0  0
  4 20  1  0  0  0  0
  5  1  1  0  0  0  0
  7 15  1  6  0  0  0
  7  9  1  0  0  0  0
  8  6  1  1  0  0  0
  8 11  1  0  0  0  0
  8 12  1  0  0  0  0
  9 14  1  6  0  0  0
  9 22  1  0  0  0  0
 10  3  1  0  0  0  0
 10 21  2  0  0  0  0
 11  5  2  0  0  0  0
 12  4  1  0  0  0  0
 13 18  2  0  0  0  0
 15 23  1  0  0  0  0
 16  2  1  0  0  0  0
 17 26  1  0  0  0  0
 17  3  1  0  0  0  0
 19  2  2  0  0  0  0
 19 26  1  0  0  0  0
 20 17  2  0  0  0  0
 22 20  1  6  0  0  0
 22 10  1  0  0  0  0
 23 14  1  0  0  0  0
 25 18  1  0  0  0  0
 26 25  2  0  0  0  0
 27 12  1  0  0  0  0
 27 24  1  1  0  0  0
 27  7  1  0  0  0  0
 28 11  1  0  0  0  0
 29 30  1  0  0  0  0
 30 28  1  0  0  0  0
M  END
>  <MODEL>
5

>  <REMARK>
 VINA RESULT:      -8.4      3.443      6.979
  Name = 
  2 active torsions:
  status: ('A' for Active; 'I' for Inactive)
    1  A    between atoms: C_11  and  O_28
    2  A    between atoms: O_28  and  C_30
                            x       y       z     vdW  Elec       q    Type
                         _______ _______ _______ _____ _____    ______ ____

>  <TORSDO>
F 2

$$$$
=
 OpenBabel11122410293D

 30 35  0  0  1  0  0  0  0  0999 V2000
  189.7360  177.4410  141.0880 C   0  0  0  0  0  0  0  0  0  0  0  0
  190.2580  177.1430  143.5330 C   0  0  0  0  0  0  0  0  0  0  0  0
  185.8140  178.6320  142.0160 N   0  0  0  0  0  2  0  0  0  0  0  0
  188.7890  177.7590  140.0900 C   0  0  0  0  0  0  0  0  0  0  0  0
  191.0800  177.1600  140.6790 N   0  0  0  0  0  0  0  0  0  0  0  0
  190.1000  175.2900  137.8580 Cl  0  0  0  0  0  0  0  0  0  0  0  0
  187.0090  177.1080  137.7350 N   0  0  1  0  0  0  0  0  0  0  0  0
  190.4210  176.9820  138.3300 C   0  0  2  0  0  3  0  0  0  0  0  0
  185.9400  177.6760  138.5840 C   0  0  2  0  0  3  0  0  0  0  0  0
  185.3610  178.9230  140.6970 C   0  0  0  0  0  0  0  0  0  0  0  0
  191.4370  176.9950  139.4380 C   0  0  0  0  0  0  0  0  0  0  0  0
  189.1670  177.6450  138.7000 N   0  0  0  0  0  0  0  0  0  0  0  0
  189.8110  177.1990  144.8530 C   0  0  0  0  0  3  0  0  0  0  0  0
  184.8910  178.2610  137.6680 C   0  0  0  0  0  2  0  0  0  0  0  0
  186.4440  176.9630  136.3960 C   0  0  0  0  0  2  0  0  0  0  0  0
  191.6740  176.7190  143.3280 C   0  0  0  0  0  1  0  0  0  0  0  0
  187.1450  178.1860  141.8140 C   0  0  0  0  0  0  0  0  0  0  0  0
  188.5010  177.5730  145.1330 C   0  0  0  0  0  3  0  0  0  0  0  0
  189.3710  177.4690  142.4710 C   0  0  0  0  0  0  0  0  0  0  0  0
  187.5080  178.1630  140.4870 C   0  0  0  0  0  0  0  0  0  0  0  0
  184.2080  179.3750  140.4660 O   0  0  0  0  0  0  0  0  0  0  0  0
  186.4000  178.6940  139.6380 C   0  0  1  0  0  3  0  0  0  0  0  0
  185.0000  177.4220  136.4260 C   0  0  0  0  0  2  0  0  0  0  0  0
  187.9890  179.2830  137.4610 O   0  0  0  0  0  1  0  0  0  0  0  0
  187.6520  177.8850  144.1230 N   0  0  0  0  0  0  0  0  0  0  0  0
  188.0420  177.8420  142.8210 C   0  0  0  0  0  0  0  0  0  0  0  0
  188.2380  177.9130  137.6020 C   0  0  2  0  0  3  0  0  0  0  0  0
  192.7750  176.7690  139.1130 O   0  0  0  0  0  0  0  0  0  0  0  0
  193.7860  175.1180  137.7000 C   0  0  0  0  0  1  0  0  0  0  0  0
  193.2010  176.5120  137.7830 C   0  0  0  0  0  2  0  0  0  0  0  0
  1 19  1  0  0  0  0
  2 13  1  0  0  0  0
  4 20  1  0  0  0  0
  4  1  2  0  0  0  0
  5  1  1  0  0  0  0
  7 15  1  6  0  0  0
  7  9  1  0  0  0  0
  8  6  1  1  0  0  0
  8 12  1  0  0  0  0
  8 11  1  0  0  0  0
  9 14  1  6  0  0  0
  9 22  1  0  0  0  0
 10  3  1  0  0  0  0
 11  5  2  0  0  0  0
 12  4  1  0  0  0  0
 13 18  2  0  0  0  0
 15 23  1  0  0  0  0
 16  2  1  0  0  0  0
 17  3  1  0  0  0  0
 17 26  1  0  0  0  0
 19 26  1  0  0  0  0
 19  2  2  0  0  0  0
 20 17  2  0  0  0  0
 21 10  2  0  0  0  0
 22 20  1  1  0  0  0
 22 10  1  0  0  0  0
 23 14  1  0  0  0  0
 25 18  1  0  0  0  0
 26 25  2  0  0  0  0
 27 24  1  1  0  0  0
 27  7  1  0  0  0  0
 27 12  1  0  0  0  0
 28 11  1  0  0  0  0
 29 30  1  0  0  0  0
 30 28  1  0  0  0  0
M  END
>  <MODEL>
6

>  <REMARK>
 VINA RESULT:      -8.0      2.742      5.016
  Name = 
  2 active torsions:
  status: ('A' for Active; 'I' for Inactive)
    1  A    between atoms: C_11  and  O_28
    2  A    between atoms: O_28  and  C_30
                            x       y       z     vdW  Elec       q    Type
                         _______ _______ _______ _____ _____    ______ ____

>  <TORSDO>
F 2

$$$$
=
 OpenBabel11122410293D

 30 35  0  0  1  0  0  0  0  0999 V2000
  188.1520  177.5070  140.1150 C   0  0  0  0  0  0  0  0  0  0  0  0
  186.3130  178.5350  138.7370 C   0  0  0  0  0  0  0  0  0  0  0  0
  185.9720  178.2010  143.6400 N   0  0  0  0  0  2  0  0  0  0  0  0
  188.6560  177.1720  141.3910 C   0  0  0  0  0  0  0  0  0  0  0  0
  188.9170  177.1240  138.9650 N   0  0  0  0  0  0  0  0  0  0  0  0
  192.0110  177.9580  140.4290 Cl  0  0  0  0  0  0  0  0  0  0  0  0
  190.6060  177.4210  143.6870 N   0  0  1  0  0  0  0  0  0  0  0  0
  190.8710  176.5870  140.3340 C   0  0  2  0  0  3  0  0  0  0  0  0
  189.3860  177.6350  144.4960 C   0  0  2  0  0  3  0  0  0  0  0  0
  186.8670  177.5940  144.5680 C   0  0  0  0  0  0  0  0  0  0  0  0
  190.1310  176.6590  139.0280 C   0  0  0  0  0  0  0  0  0  0  0  0
  189.9770  176.5960  141.4960 N   0  0  0  0  0  0  0  0  0  0  0  0
  185.0640  179.1560  138.7060 C   0  0  0  0  0  3  0  0  0  0  0  0
  189.6720  177.1400  145.8940 C   0  0  0  0  0  2  0  0  0  0  0  0
  191.7010  177.2170  144.6320 C   0  0  0  0  0  2  0  0  0  0  0  0
  186.9860  178.3300  137.4210 C   0  0  0  0  0  1  0  0  0  0  0  0
  186.6350  178.0450  142.3960 C   0  0  0  0  0  0  0  0  0  0  0  0
  184.3730  179.3970  139.8890 C   0  0  0  0  0  3  0  0  0  0  0  0
  186.8810  178.1470  139.9810 C   0  0  0  0  0  0  0  0  0  0  0  0
  187.8570  177.4220  142.5130 C   0  0  0  0  0  0  0  0  0  0  0  0
  186.6080  177.5140  145.7980 O   0  0  0  0  0  0  0  0  0  0  0  0
  188.0980  177.0180  143.9310 C   0  0  1  0  0  3  0  0  0  0  0  0
  191.1550  177.3330  146.0400 C   0  0  0  0  0  2  0  0  0  0  0  0
  190.0130  175.1190  143.3460 O   0  0  0  0  0  1  0  0  0  0  0  0
  184.9110  179.0280  141.0780 N   0  0  0  0  0  0  0  0  0  0  0  0
  186.1260  178.4230  141.1570 C   0  0  0  0  0  0  0  0  0  0  0  0
  190.5950  176.2590  142.7790 C   0  0  2  0  0  3  0  0  0  0  0  0
  190.7960  176.2640  137.8660 O   0  0  0  0  0  0  0  0  0  0  0  0
  193.1390  176.0660  137.4010 C   0  0  0  0  0  1  0  0  0  0  0  0
  191.8910  175.3600  137.8870 C   0  0  0  0  0  2  0  0  0  0  0  0
  1  4  1  0  0  0  0
  2 19  1  0  0  0  0
  3 10  1  0  0  0  0
  4 12  1  0  0  0  0
  4 20  2  0  0  0  0
  5 11  2  0  0  0  0
  5  1  1  0  0  0  0
  7  9  1  0  0  0  0
  7 15  1  1  0  0  0
  8  6  1  1  0  0  0
  8 12  1  0  0  0  0
  9 14  1  1  0  0  0
 10 21  2  0  0  0  0
 11  8  1  0  0  0  0
 12 27  1  0  0  0  0
 13  2  2  0  0  0  0
 13 18  1  0  0  0  0
 14 23  1  0  0  0  0
 15 23  1  0  0  0  0
 16  2  1  0  0  0  0
 17 20  1  0  0  0  0
 17  3  1  0  0  0  0
 18 25  2  0  0  0  0
 19  1  2  0  0  0  0
 19 26  1  0  0  0  0
 22 20  1  6  0  0  0
 22  9  1  0  0  0  0
 22 10  1  0  0  0  0
 25 26  1  0  0  0  0
 26 17  2  0  0  0  0
 27 24  1  1  0  0  0
 27  7  1  0  0  0  0
 28 30  1  0  0  0  0
 28 11  1  0  0  0  0
 29 30  1  0  0  0  0
M  END
>  <MODEL>
7

>  <REMARK>
 VINA RESULT:      -8.0      2.258      5.853
  Name = 
  2 active torsions:
  status: ('A' for Active; 'I' for Inactive)
    1  A    between atoms: C_11  and  O_28
    2  A    between atoms: O_28  and  C_30
                            x       y       z     vdW  Elec       q    Type
                         _______ _______ _______ _____ _____    ______ ____

>  <TORSDO>
F 2

$$$$
=
 OpenBabel11122410293D

 30 35  0  0  1  0  0  0  0  0999 V2000
  185.4410  178.4620  141.0880 C   0  0  0  0  0  0  0  0  0  0  0  0
  187.3350  178.0760  142.7010 C   0  0  0  0  0  0  0  0  0  0  0  0
  182.6930  178.6020  144.2640 N   0  0  0  0  0  2  0  0  0  0  0  0
  184.0560  178.6360  140.8790 C   0  0  0  0  0  0  0  0  0  0  0  0
  186.3120  178.5460  139.9530 N   0  0  0  0  0  0  0  0  0  0  0  0
  184.1360  176.7610  137.8330 Cl  0  0  0  0  0  0  0  0  0  0  0  0
  181.3450  177.7990  139.8360 N   0  0  1  0  0  0  0  0  0  0  0  0
  184.4320  178.4310  138.3920 C   0  0  2  0  0  3  0  0  0  0  0  0
  180.9120  178.0190  141.2320 C   0  0  2  0  0  3  0  0  0  0  0  0
  181.5170  178.8950  143.5170 C   0  0  0  0  0  0  0  0  0  0  0  0
  185.8900  178.5830  138.7220 C   0  0  0  0  0  0  0  0  0  0  0  0
  183.5570  178.7420  139.5270 N   0  0  0  0  0  0  0  0  0  0  0  0
  187.7470  177.9040  144.0230 C   0  0  0  0  0  3  0  0  0  0  0  0
  179.4560  178.4180  141.2020 C   0  0  0  0  0  2  0  0  0  0  0  0
  180.1280  177.6460  139.0420 C   0  0  0  0  0  2  0  0  0  0  0  0
  188.4030  178.0190  141.6600 C   0  0  0  0  0  1  0  0  0  0  0  0
  183.6980  178.5040  143.2680 C   0  0  0  0  0  0  0  0  0  0  0  0
  186.8140  177.9300  145.0550 C   0  0  0  0  0  3  0  0  0  0  0  0
  185.9590  178.2770  142.4080 C   0  0  0  0  0  0  0  0  0  0  0  0
  183.2110  178.6880  141.9950 C   0  0  0  0  0  0  0  0  0  0  0  0
  180.3990  179.0810  144.0670 O   0  0  0  0  0  0  0  0  0  0  0  0
  181.7550  179.0160  142.0400 C   0  0  1  0  0  3  0  0  0  0  0  0
  178.9310  177.7460  139.9650 C   0  0  0  0  0  2  0  0  0  0  0  0
  181.6600  180.1600  139.5310 O   0  0  0  0  0  1  0  0  0  0  0  0
  185.5000  178.1230  144.7800 N   0  0  0  0  0  0  0  0  0  0  0  0
  185.0530  178.2910  143.5070 C   0  0  0  0  0  0  0  0  0  0  0  0
  182.1330  178.8810  139.2160 C   0  0  2  0  0  3  0  0  0  0  0  0
  186.7980  178.7110  137.6690 O   0  0  0  0  0  0  0  0  0  0  0  0
  189.1940  178.6780  137.6880 C   0  0  0  0  0  1  0  0  0  0  0  0
  187.9280  177.8620  137.5340 C   0  0  0  0  0  2  0  0  0  0  0  0
  1 19  1  0  0  0  0
  2 13  1  0  0  0  0
  4  1  2  0  0  0  0
  4 20  1  0  0  0  0
  5  1  1  0  0  0  0
  7 15  1  6  0  0  0
  7  9  1  0  0  0  0
  8  6  1  1  0  0  0
  8 11  1  0  0  0  0
  8 12  1  0  0  0  0
  9 14  1  6  0  0  0
  9 22  1  0  0  0  0
 10 21  2  0  0  0  0
 10  3  1  0  0  0  0
 11  5  2  0  0  0  0
 12  4  1  0  0  0  0
 13 18  2  0  0  0  0
 15 23  1  0  0  0  0
 16  2  1  0  0  0  0
 17 26  1  0  0  0  0
 17  3  1  0  0  0  0
 19  2  2  0  0  0  0
 19 26  1  0  0  0  0
 20 17  2  0  0  0  0
 22 20  1  1  0  0  0
 22 10  1  0  0  0  0
 23 14  1  0  0  0  0
 25 18  1  0  0  0  0
 26 25  2  0  0  0  0
 27 12  1  0  0  0  0
 27 24  1  1  0  0  0
 27  7  1  0  0  0  0
 28 11  1  0  0  0  0
 30 28  1  0  0  0  0
 30 29  1  0  0  0  0
M  END
>  <MODEL>
8

>  <REMARK>
 VINA RESULT:      -8.0      4.376      7.686
  Name = 
  2 active torsions:
  status: ('A' for Active; 'I' for Inactive)
    1  A    between atoms: C_11  and  O_28
    2  A    between atoms: O_28  and  C_30
                            x       y       z     vdW  Elec       q    Type
                         _______ _______ _______ _____ _____    ______ ____

>  <TORSDO>
F 2

$$$$
=
 OpenBabel11122410293D

 30 35  0  0  1  0  0  0  0  0999 V2000
  185.9270  178.1050  141.9200 C   0  0  0  0  0  0  0  0  0  0  0  0
  183.5230  178.8100  142.1670 C   0  0  0  0  0  0  0  0  0  0  0  0
  186.3450  177.8690  146.0950 N   0  0  0  0  0  2  0  0  0  0  0  0
  187.1500  177.7620  142.5370 C   0  0  0  0  0  0  0  0  0  0  0  0
  185.8510  178.0440  140.4900 N   0  0  0  0  0  0  0  0  0  0  0  0
  189.0550  179.4270  140.0070 Cl  0  0  0  0  0  0  0  0  0  0  0  0
  190.0560  178.2170  143.2340 N   0  0  1  0  0  0  0  0  0  0  0  0
  188.2800  177.8420  140.2820 C   0  0  2  0  0  3  0  0  0  0  0  0
  189.5880  178.0440  144.6260 C   0  0  2  0  0  3  0  0  0  0  0  0
  187.6870  177.3960  146.1490 C   0  0  0  0  0  0  0  0  0  0  0  0
  186.8860  177.8770  139.7190 C   0  0  0  0  0  0  0  0  0  0  0  0
  188.3080  177.5110  141.7100 N   0  0  0  0  0  0  0  0  0  0  0  0
  182.4610  179.1140  143.0200 C   0  0  0  0  0  3  0  0  0  0  0  0
  190.7380  177.4810  145.4280 C   0  0  0  0  0  2  0  0  0  0  0  0
  191.5150  178.1780  143.2770 C   0  0  0  0  0  2  0  0  0  0  0  0
  183.2520  178.9160  140.7040 C   0  0  0  0  0  1  0  0  0  0  0  0
  186.1040  178.0130  144.7040 C   0  0  0  0  0  0  0  0  0  0  0  0
  182.6320  179.0520  144.3990 C   0  0  0  0  0  3  0  0  0  0  0  0
  184.7820  178.4350  142.7100 C   0  0  0  0  0  0  0  0  0  0  0  0
  187.1980  177.6910  143.9340 C   0  0  0  0  0  0  0  0  0  0  0  0
  188.2610  177.1230  147.2370 O   0  0  0  0  0  0  0  0  0  0  0  0
  188.3140  177.2040  144.7990 C   0  0  1  0  0  3  0  0  0  0  0  0
  191.9530  178.0060  144.7180 C   0  0  0  0  0  2  0  0  0  0  0  0
  189.6640  175.8920  142.7810 O   0  0  0  0  0  1  0  0  0  0  0  0
  183.8310  178.6950  144.9210 N   0  0  0  0  0  0  0  0  0  0  0  0
  184.8950  178.3930  144.1300 C   0  0  0  0  0  0  0  0  0  0  0  0
  189.6240  177.1920  142.2650 C   0  0  2  0  0  3  0  0  0  0  0  0
  186.7280  177.7830  138.3350 O   0  0  0  0  0  0  0  0  0  0  0  0
  188.2790  178.2120  136.5590 C   0  0  0  0  0  1  0  0  0  0  0  0
  187.7010  177.1750  137.4990 C   0  0  0  0  0  2  0  0  0  0  0  0
  1  4  2  0  0  0  0
  1 19  1  0  0  0  0
  2 19  2  0  0  0  0
  2 13  1  0  0  0  0
  3 10  1  0  0  0  0
  4 20  1  0  0  0  0
  5  1  1  0  0  0  0
  7 15  1  1  0  0  0
  7  9  1  0  0  0  0
  8  6  1  1  0  0  0
  8 12  1  0  0  0  0
  9 22  1  0  0  0  0
  9 14  1  1  0  0  0
 10 21  2  0  0  0  0
 11  8  1  0  0  0  0
 11  5  2  0  0  0  0
 12 27  1  0  0  0  0
 12  4  1  0  0  0  0
 13 18  2  0  0  0  0
 15 23  1  0  0  0  0
 16  2  1  0  0  0  0
 17  3  1  0  0  0  0
 18 25  1  0  0  0  0
 19 26  1  0  0  0  0
 20 17  2  0  0  0  0
 22 20  1  6  0  0  0
 22 10  1  0  0  0  0
 23 14  1  0  0  0  0
 26 17  1  0  0  0  0
 26 25  2  0  0  0  0
 27 24  1  1  0  0  0
 27  7  1  0  0  0  0
 28 11  1  0  0  0  0
 29 30  1  0  0  0  0
 30 28  1  0  0  0  0
M  END
>  <MODEL>
9

>  <REMARK>
 VINA RESULT:      -7.9      2.381      5.862
  Name = 
  2 active torsions:
  status: ('A' for Active; 'I' for Inactive)
    1  A    between atoms: C_11  and  O_28
    2  A    between atoms: O_28  and  C_30
                            x       y       z     vdW  Elec       q    Type
                         _______ _______ _______ _____ _____    ______ ____

>  <TORSDO>
F 2

$$$$
