=
 OpenBabel11122412043D

 34 40  0  0  1  0  0  0  0  0999 V2000
  184.3630  179.0570  144.4570 C   0  0  2  0  0  3  0  0  0  0  0  0
  181.8850  179.1720  143.8040 C   0  0  0  0  0  2  0  0  0  0  0  0
  190.6340  177.8680  142.9220 C   0  0  0  0  0  0  0  0  0  0  0  0
  186.6890  178.1130  144.9650 C   0  0  0  0  0  0  0  0  0  0  0  0
  188.1580  177.4360  143.0760 C   0  0  0  0  0  0  0  0  0  0  0  0
  189.7450  175.5340  142.9240 C   0  0  0  0  0  1  0  0  0  0  0  0
  191.7490  177.6420  142.4790 O   0  0  0  0  0  0  0  0  0  0  0  0
  190.1450  178.6340  145.2810 C   0  0  0  0  0  2  0  0  0  0  0  0
  183.4490  178.4740  142.2060 C   0  0  0  0  0  0  0  0  0  0  0  0
  183.1320  179.3800  139.1850 C   0  0  0  0  0  2  0  0  0  0  0  0
  187.1320  177.5870  142.2270 C   0  0  0  0  0  3  0  0  0  0  0  0
  189.1020  177.5200  145.4140 C   0  0  0  0  0  2  0  0  0  0  0  0
  184.6750  178.1900  141.7280 C   0  0  0  0  0  0  0  0  0  0  0  0
  181.1480  178.9290  142.4810 C   0  0  0  0  0  2  0  0  0  0  0  0
  187.9860  177.7110  144.4880 N   0  0  0  0  0  0  0  0  0  0  0  0
  190.4420  179.0460  143.8370 C   0  0  0  0  0  2  0  0  0  0  0  0
  182.3420  179.8050  140.4220 C   0  0  2  0  0  3  0  0  0  0  0  0
  185.6250  178.3750  143.9840 C   0  0  0  0  0  0  0  0  0  0  0  0
  189.4800  176.9760  142.5240 C   0  0  2  0  0  3  0  0  0  0  0  0
  185.8090  178.0720  142.6840 C   0  0  0  0  0  0  0  0  0  0  0  0
  184.9940  178.3820  146.7070 C   0  0  0  0  0  3  0  0  0  0  0  0
  184.6210  179.2330  139.4700 C   0  0  0  0  0  2  0  0  0  0  0  0
  186.3820  178.1240  146.2680 C   0  0  0  0  0  3  0  0  0  0  0  0
  184.8970  177.9630  140.2630 C   0  0  0  0  0  2  0  0  0  0  0  0
  182.2050  178.6330  141.4050 C   0  0  1  0  0  3  0  0  0  0  0  0
  184.0730  178.7500  145.8610 N   0  0  0  0  0  0  0  0  0  0  0  0
  183.2410  178.7160  143.5860 N   0  0  0  0  0  0  0  0  0  0  0  0
  181.0800  180.2440  140.0100 O   0  0  0  0  0  0  0  0  0  0  0  0
  180.9490  179.7780  138.7000 C   0  0  0  0  0  2  0  0  0  0  0  0
  180.5960  182.9350  138.0070 O   0  0  0  0  0  0  0  0  0  0  0  0
  180.5640  181.0350  136.6090 C   0  0  0  0  0  2  0  0  0  0  0  0
  179.9730  180.6510  137.9340 C   0  0  2  0  0  3  0  0  0  0  0  0
  180.6280  182.5420  136.6620 C   0  0  0  0  0  2  0  0  0  0  0  0
  179.8070  181.9710  138.6520 C   0  0  0  0  0  2  0  0  0  0  0  0
  1 18  1  6  0  0  0
  1 26  1  0  0  0  0
  3 16  1  0  0  0  0
  4 23  2  0  0  0  0
  5 15  1  0  0  0  0
  7  3  2  0  0  0  0
  8 12  1  0  0  0  0
  9 27  1  0  0  0  0
 10 22  1  0  0  0  0
 10 17  1  0  0  0  0
 11 20  1  0  0  0  0
 11  5  2  0  0  0  0
 13  9  2  0  0  0  0
 13 20  1  0  0  0  0
 14  2  1  0  0  0  0
 15  4  1  0  0  0  0
 15 12  1  0  0  0  0
 16  8  1  0  0  0  0
 17 28  1  6  0  0  0
 17 25  1  0  0  0  0
 18  4  1  0  0  0  0
 19  3  1  0  0  0  0
 19  6  1  1  0  0  0
 19  5  1  0  0  0  0
 20 18  2  0  0  0  0
 22 24  1  0  0  0  0
 23 21  1  0  0  0  0
 24 13  1  0  0  0  0
 25  9  1  0  0  0  0
 25 14  1  1  0  0  0
 26 21  2  0  0  0  0
 27  2  1  0  0  0  0
 27  1  1  0  0  0  0
 29 28  1  0  0  0  0
 30 34  1  0  0  0  0
 31 33  1  0  0  0  0
 31 32  1  0  0  0  0
 32 34  1  0  0  0  0
 32 29  1  1  0  0  0
 33 30  1  0  0  0  0
M  END
>  <MODEL>
1

>  <REMARK>
 VINA RESULT:      -9.1      0.000      0.000
  Name = 
  3 active torsions:
  status: ('A' for Active; 'I' for Inactive)
    1  A    between atoms: C_17  and  O_28
    2  A    between atoms: O_28  and  C_29
    3  A    between atoms: C_29  and  C_32
                            x       y       z     vdW  Elec       q    Type
                         _______ _______ _______ _____ _____    ______ ____

>  <TORSDO>
F 3

$$$$
=
 OpenBabel11122412043D

 34 40  0  0  1  0  0  0  0  0999 V2000
  187.7430  177.3750  138.5070 C   0  0  2  0  0  3  0  0  0  0  0  0
  186.5040  178.6000  140.3890 C   0  0  0  0  0  2  0  0  0  0  0  0
  193.0330  174.2050  136.2580 C   0  0  0  0  0  0  0  0  0  0  0  0
  189.4770  176.8420  136.6990 C   0  0  0  0  0  0  0  0  0  0  0  0
  191.7300  176.0420  137.3840 C   0  0  0  0  0  0  0  0  0  0  0  0
  193.9440  176.5280  136.3730 C   0  0  0  0  0  1  0  0  0  0  0  0
  194.0680  173.6120  135.9970 O   0  0  0  0  0  0  0  0  0  0  0  0
  191.0810  174.4680  134.6730 C   0  0  0  0  0  2  0  0  0  0  0  0
  188.6810  177.8290  140.7770 C   0  0  0  0  0  0  0  0  0  0  0  0
  189.4410  176.6000  143.5990 C   0  0  0  0  0  2  0  0  0  0  0  0
  191.4420  176.3320  138.6600 C   0  0  0  0  0  3  0  0  0  0  0  0
  191.0760  175.9750  134.9480 C   0  0  0  0  0  2  0  0  0  0  0  0
  189.8360  177.2060  140.4780 C   0  0  0  0  0  0  0  0  0  0  0  0
  186.8720  178.9090  141.8450 C   0  0  0  0  0  2  0  0  0  0  0  0
  190.7480  176.2690  136.3430 N   0  0  0  0  0  0  0  0  0  0  0  0
  191.7280  173.6310  135.7800 C   0  0  0  0  0  2  0  0  0  0  0  0
  188.0810  177.0360  143.0560 C   0  0  2  0  0  3  0  0  0  0  0  0
  189.1640  177.0390  138.1230 C   0  0  0  0  0  0  0  0  0  0  0  0
  193.0900  175.4800  137.0670 C   0  0  2  0  0  3  0  0  0  0  0  0
  190.1150  176.8520  139.0600 C   0  0  0  0  0  0  0  0  0  0  0  0
  187.4150  178.0570  136.1950 C   0  0  0  0  0  3  0  0  0  0  0  0
  190.2880  175.8980  142.5450 C   0  0  0  0  0  2  0  0  0  0  0  0
  188.6320  177.3270  135.7800 C   0  0  0  0  0  3  0  0  0  0  0  0
  190.8450  176.9000  141.5440 C   0  0  0  0  0  2  0  0  0  0  0  0
  188.2340  178.2530  142.1320 C   0  0  1  0  0  3  0  0  0  0  0  0
  187.0550  178.1180  137.4460 N   0  0  0  0  0  0  0  0  0  0  0  0
  187.7140  178.0960  139.7770 N   0  0  0  0  0  0  0  0  0  0  0  0
  187.2540  177.3490  144.1390 O   0  0  0  0  0  0  0  0  0  0  0  0
  188.1210  177.8170  145.1290 C   0  0  0  0  0  2  0  0  0  0  0  0
  189.2460  177.8930  148.1790 O   0  0  0  0  0  0  0  0  0  0  0  0
  187.0710  178.2260  147.3270 C   0  0  0  0  0  2  0  0  0  0  0  0
  187.7580  177.2040  146.4690 C   0  0  2  0  0  3  0  0  0  0  0  0
  187.9700  178.3510  148.5330 C   0  0  0  0  0  2  0  0  0  0  0  0
  189.0220  176.8810  147.2330 C   0  0  0  0  0  2  0  0  0  0  0  0
  1 26  1  6  0  0  0
  1 27  1  0  0  0  0
  2 14  1  0  0  0  0
  3 19  1  0  0  0  0
  4 18  1  0  0  0  0
  5 11  2  0  0  0  0
  7  3  2  0  0  0  0
  8 12  1  0  0  0  0
  8 16  1  0  0  0  0
  9 25  1  0  0  0  0
 11 20  1  0  0  0  0
 12 15  1  0  0  0  0
 13  9  2  0  0  0  0
 13 24  1  0  0  0  0
 15  4  1  0  0  0  0
 15  5  1  0  0  0  0
 16  3  1  0  0  0  0
 17 10  1  0  0  0  0
 17 28  1  1  0  0  0
 18  1  1  0  0  0  0
 18 20  2  0  0  0  0
 19  6  1  6  0  0  0
 19  5  1  0  0  0  0
 20 13  1  0  0  0  0
 21 26  2  0  0  0  0
 22 10  1  0  0  0  0
 23 21  1  0  0  0  0
 23  4  2  0  0  0  0
 24 22  1  0  0  0  0
 25 14  1  6  0  0  0
 25 17  1  0  0  0  0
 27  2  1  0  0  0  0
 27  9  1  0  0  0  0
 28 29  1  0  0  0  0
 30 33  1  0  0  0  0
 31 33  1  0  0  0  0
 32 29  1  6  0  0  0
 32 34  1  0  0  0  0
 32 31  1  0  0  0  0
 34 30  1  0  0  0  0
M  END
>  <MODEL>
2

>  <REMARK>
 VINA RESULT:      -9.0      4.975      8.957
  Name = 
  3 active torsions:
  status: ('A' for Active; 'I' for Inactive)
    1  A    between atoms: C_17  and  O_28
    2  A    between atoms: O_28  and  C_29
    3  A    between atoms: C_29  and  C_32
                            x       y       z     vdW  Elec       q    Type
                         _______ _______ _______ _____ _____    ______ ____

>  <TORSDO>
F 3

$$$$
=
 OpenBabel11122412043D

 34 40  0  0  1  0  0  0  0  0999 V2000
  186.3510  178.7370  140.9020 C   0  0  2  0  0  3  0  0  0  0  0  0
  188.1610  177.8340  142.4790 C   0  0  0  0  0  2  0  0  0  0  0  0
  180.1140  180.4050  139.7120 C   0  0  0  0  0  0  0  0  0  0  0  0
  184.2660  178.8340  139.4170 C   0  0  0  0  0  0  0  0  0  0  0  0
  182.0240  178.9590  140.4860 C   0  0  0  0  0  0  0  0  0  0  0  0
  179.8860  177.9190  139.7780 C   0  0  0  0  0  1  0  0  0  0  0  0
  178.9310  180.6990  139.6540 O   0  0  0  0  0  0  0  0  0  0  0  0
  181.7800  180.7460  137.8410 C   0  0  0  0  0  2  0  0  0  0  0  0
  185.9510  177.9620  143.2430 C   0  0  0  0  0  0  0  0  0  0  0  0
  185.3620  178.8350  146.2330 C   0  0  0  0  0  2  0  0  0  0  0  0
  182.5840  178.7150  141.6800 C   0  0  0  0  0  3  0  0  0  0  0  0
  182.2300  179.2890  137.9930 C   0  0  0  0  0  2  0  0  0  0  0  0
  184.6390  178.2530  143.1670 C   0  0  0  0  0  0  0  0  0  0  0  0
  188.1310  177.3850  143.9440 C   0  0  0  0  0  2  0  0  0  0  0  0
  182.8480  179.0480  139.2980 N   0  0  0  0  0  0  0  0  0  0  0  0
  181.1230  181.3320  139.0930 C   0  0  0  0  0  2  0  0  0  0  0  0
  186.6820  178.8090  145.4630 C   0  0  2  0  0  3  0  0  0  0  0  0
  184.8480  178.6810  140.7590 C   0  0  0  0  0  0  0  0  0  0  0  0
  180.5320  179.1360  140.4190 C   0  0  2  0  0  3  0  0  0  0  0  0
  184.0490  178.5660  141.8370 C   0  0  0  0  0  0  0  0  0  0  0  0
  186.4660  178.2530  138.5200 C   0  0  0  0  0  3  0  0  0  0  0  0
  184.1990  179.3130  145.3740 C   0  0  0  0  0  2  0  0  0  0  0  0
  185.0480  178.6340  138.3480 C   0  0  0  0  0  3  0  0  0  0  0  0
  183.7730  178.2320  144.3900 C   0  0  0  0  0  2  0  0  0  0  0  0
  186.7100  177.6300  144.4790 C   0  0  1  0  0  3  0  0  0  0  0  0
  187.0290  178.2490  139.6960 N   0  0  0  0  0  0  0  0  0  0  0  0
  186.7770  178.0070  142.0930 N   0  0  0  0  0  0  0  0  0  0  0  0
  187.7280  178.6980  146.3850 O   0  0  0  0  0  0  0  0  0  0  0  0
  187.1350  178.1820  147.5390 C   0  0  0  0  0  2  0  0  0  0  0  0
  189.8890  176.5120  147.0930 O   0  0  0  0  0  0  0  0  0  0  0  0
  189.4130  178.3630  148.4770 C   0  0  0  0  0  2  0  0  0  0  0  0
  188.1830  177.5060  148.4020 C   0  0  2  0  0  3  0  0  0  0  0  0
  190.4970  177.4960  147.8850 C   0  0  0  0  0  2  0  0  0  0  0  0
  188.6620  176.2450  147.7180 C   0  0  0  0  0  2  0  0  0  0  0  0
  1 26  1  6  0  0  0
  1 27  1  0  0  0  0
  2 14  1  0  0  0  0
  3 19  1  0  0  0  0
  4 18  1  0  0  0  0
  5 11  2  0  0  0  0
  7  3  2  0  0  0  0
  8 12  1  0  0  0  0
  8 16  1  0  0  0  0
  9 25  1  0  0  0  0
 11 20  1  0  0  0  0
 12 15  1  0  0  0  0
 13  9  2  0  0  0  0
 13 24  1  0  0  0  0
 15  4  1  0  0  0  0
 15  5  1  0  0  0  0
 16  3  1  0  0  0  0
 17 10  1  0  0  0  0
 17 28  1  1  0  0  0
 18  1  1  0  0  0  0
 18 20  2  0  0  0  0
 19  6  1  6  0  0  0
 19  5  1  0  0  0  0
 20 13  1  0  0  0  0
 21 26  2  0  0  0  0
 22 10  1  0  0  0  0
 23 21  1  0  0  0  0
 23  4  2  0  0  0  0
 24 22  1  0  0  0  0
 25 14  1  6  0  0  0
 25 17  1  0  0  0  0
 27  2  1  0  0  0  0
 27  9  1  0  0  0  0
 28 29  1  0  0  0  0
 30 34  1  0  0  0  0
 30 33  1  0  0  0  0
 32 29  1  6  0  0  0
 32 31  1  0  0  0  0
 33 31  1  0  0  0  0
 34 32  1  0  0  0  0
M  END
>  <MODEL>
3

>  <REMARK>
 VINA RESULT:      -8.7      2.348      9.094
  Name = 
  3 active torsions:
  status: ('A' for Active; 'I' for Inactive)
    1  A    between atoms: C_17  and  O_28
    2  A    between atoms: O_28  and  C_29
    3  A    between atoms: C_29  and  C_32
                            x       y       z     vdW  Elec       q    Type
                         _______ _______ _______ _____ _____    ______ ____

>  <TORSDO>
F 3

$$$$
=
 OpenBabel11122412043D

 34 40  0  0  1  0  0  0  0  0999 V2000
  187.7130  177.2740  138.2790 C   0  0  2  0  0  3  0  0  0  0  0  0
  186.3600  178.6090  140.0000 C   0  0  0  0  0  2  0  0  0  0  0  0
  193.1630  174.0520  136.5410 C   0  0  0  0  0  0  0  0  0  0  0  0
  189.5470  176.6440  136.6060 C   0  0  0  0  0  0  0  0  0  0  0  0
  191.7750  175.9400  137.4600 C   0  0  0  0  0  0  0  0  0  0  0  0
  194.0290  176.3940  136.5290 C   0  0  0  0  0  1  0  0  0  0  0  0
  194.2190  173.4620  136.3780 O   0  0  0  0  0  0  0  0  0  0  0  0
  191.2910  174.1590  134.8450 C   0  0  0  0  0  2  0  0  0  0  0  0
  188.5260  177.9110  140.5540 C   0  0  0  0  0  0  0  0  0  0  0  0
  189.1580  176.9080  143.4940 C   0  0  0  0  0  2  0  0  0  0  0  0
  191.4160  176.3180  138.6960 C   0  0  0  0  0  3  0  0  0  0  0  0
  191.2490  175.6830  135.0060 C   0  0  0  0  0  2  0  0  0  0  0  0
  189.7050  177.2920  140.3610 C   0  0  0  0  0  0  0  0  0  0  0  0
  186.6470  179.0310  141.4460 C   0  0  0  0  0  2  0  0  0  0  0  0
  190.8440  176.0710  136.3580 N   0  0  0  0  0  0  0  0  0  0  0  0
  191.8940  173.4190  136.0420 C   0  0  0  0  0  2  0  0  0  0  0  0
  187.8210  177.2760  142.8520 C   0  0  2  0  0  3  0  0  0  0  0  0
  189.1580  176.9390  137.9930 C   0  0  0  0  0  0  0  0  0  0  0  0
  193.1570  175.3840  137.2560 C   0  0  2  0  0  3  0  0  0  0  0  0
  190.0620  176.8400  138.9880 C   0  0  0  0  0  0  0  0  0  0  0  0
  187.4950  177.7780  135.9090 C   0  0  0  0  0  3  0  0  0  0  0  0
  190.0690  176.1470  142.5390 C   0  0  0  0  0  2  0  0  0  0  0  0
  188.7440  177.0430  135.6120 C   0  0  0  0  0  3  0  0  0  0  0  0
  190.6620  177.0840  141.4950 C   0  0  0  0  0  2  0  0  0  0  0  0
  188.0020  178.4250  141.8490 C   0  0  1  0  0  3  0  0  0  0  0  0
  187.0700  177.9240  137.1330 N   0  0  0  0  0  0  0  0  0  0  0  0
  187.6080  178.0850  139.4890 N   0  0  0  0  0  0  0  0  0  0  0  0
  186.9340  177.6510  143.8660 O   0  0  0  0  0  0  0  0  0  0  0  0
  187.6920  177.6070  145.0380 C   0  0  0  0  0  2  0  0  0  0  0  0
  185.8090  179.4410  146.9540 O   0  0  0  0  0  0  0  0  0  0  0  0
  185.3470  177.4370  145.7970 C   0  0  0  0  0  2  0  0  0  0  0  0
  186.7820  177.4040  146.2360 C   0  0  2  0  0  3  0  0  0  0  0  0
  184.7600  178.5990  146.5610 C   0  0  0  0  0  2  0  0  0  0  0  0
  186.9030  178.5890  147.1670 C   0  0  0  0  0  2  0  0  0  0  0  0
  1 26  1  6  0  0  0
  1 27  1  0  0  0  0
  2 14  1  0  0  0  0
  3 19  1  0  0  0  0
  4 18  1  0  0  0  0
  5 11  2  0  0  0  0
  7  3  2  0  0  0  0
  8 12  1  0  0  0  0
  8 16  1  0  0  0  0
  9 25  1  0  0  0  0
 11 20  1  0  0  0  0
 12 15  1  0  0  0  0
 13  9  2  0  0  0  0
 13 24  1  0  0  0  0
 15  4  1  0  0  0  0
 15  5  1  0  0  0  0
 16  3  1  0  0  0  0
 17 10  1  0  0  0  0
 17 28  1  1  0  0  0
 18  1  1  0  0  0  0
 18 20  2  0  0  0  0
 19  6  1  6  0  0  0
 19  5  1  0  0  0  0
 20 13  1  0  0  0  0
 21 26  2  0  0  0  0
 22 10  1  0  0  0  0
 23 21  1  0  0  0  0
 23  4  2  0  0  0  0
 24 22  1  0  0  0  0
 25 14  1  6  0  0  0
 25 17  1  0  0  0  0
 27  2  1  0  0  0  0
 27  9  1  0  0  0  0
 28 29  1  0  0  0  0
 30 34  1  0  0  0  0
 31 32  1  0  0  0  0
 31 33  1  0  0  0  0
 32 29  1  6  0  0  0
 32 34  1  0  0  0  0
 33 30  1  0  0  0  0
M  END
>  <MODEL>
4

>  <REMARK>
 VINA RESULT:      -8.6      5.029      8.448
  Name = 
  3 active torsions:
  status: ('A' for Active; 'I' for Inactive)
    1  A    between atoms: C_17  and  O_28
    2  A    between atoms: O_28  and  C_29
    3  A    between atoms: C_29  and  C_32
                            x       y       z     vdW  Elec       q    Type
                         _______ _______ _______ _____ _____    ______ ____

>  <TORSDO>
F 3

$$$$
=
 OpenBabel11122412043D

 34 40  0  0  1  0  0  0  0  0999 V2000
  187.4580  177.5400  139.3980 C   0  0  2  0  0  3  0  0  0  0  0  0
  185.3110  178.2480  138.1870 C   0  0  0  0  0  2  0  0  0  0  0  0
  191.1170  177.2220  144.8400 C   0  0  0  0  0  0  0  0  0  0  0  0
  189.6870  177.6820  140.6520 C   0  0  0  0  0  0  0  0  0  0  0  0
  189.6810  178.2840  143.0650 C   0  0  0  0  0  0  0  0  0  0  0  0
  191.3000  179.6630  144.3440 C   0  0  0  0  0  1  0  0  0  0  0  0
  191.6610  177.2130  145.9330 O   0  0  0  0  0  0  0  0  0  0  0  0
  192.0650  176.1710  142.7450 C   0  0  0  0  0  2  0  0  0  0  0  0
  185.5670  178.7860  140.4520 C   0  0  0  0  0  0  0  0  0  0  0  0
  183.0760  178.6170  142.4050 C   0  0  0  0  0  2  0  0  0  0  0  0
  188.3800  178.5940  142.9810 C   0  0  0  0  0  3  0  0  0  0  0  0
  191.8190  177.4820  141.9910 C   0  0  0  0  0  2  0  0  0  0  0  0
  186.1820  178.8070  141.6490 C   0  0  0  0  0  0  0  0  0  0  0  0
  184.0300  178.9420  138.6650 C   0  0  0  0  0  2  0  0  0  0  0  0
  190.3920  177.7950  141.9010 N   0  0  0  0  0  0  0  0  0  0  0  0
  191.1850  175.9870  143.9850 C   0  0  0  0  0  2  0  0  0  0  0  0
  183.2030  178.1930  140.9430 C   0  0  2  0  0  3  0  0  0  0  0  0
  188.2370  177.9250  140.6340 C   0  0  0  0  0  0  0  0  0  0  0  0
  190.3740  178.4590  144.3890 C   0  0  2  0  0  3  0  0  0  0  0  0
  187.6160  178.4150  141.7250 C   0  0  0  0  0  0  0  0  0  0  0  0
  189.5820  177.5560  138.2110 C   0  0  0  0  0  3  0  0  0  0  0  0
  184.3220  178.2870  143.2160 C   0  0  0  0  0  2  0  0  0  0  0  0
  190.3250  177.5000  139.4890 C   0  0  0  0  0  3  0  0  0  0  0  0
  185.4550  179.2480  142.8830 C   0  0  0  0  0  2  0  0  0  0  0  0
  184.1460  179.1400  140.1860 C   0  0  1  0  0  3  0  0  0  0  0  0
  188.2810  177.6320  138.1880 N   0  0  0  0  0  0  0  0  0  0  0  0
  186.2440  178.3440  139.2890 N   0  0  0  0  0  0  0  0  0  0  0  0
  181.9290  178.2110  140.3670 O   0  0  0  0  0  0  0  0  0  0  0  0
  181.0490  178.3150  141.4460 C   0  0  0  0  0  2  0  0  0  0  0  0
  179.6790  181.2530  141.7030 O   0  0  0  0  0  0  0  0  0  0  0  0
  180.0330  179.8740  139.8210 C   0  0  0  0  0  2  0  0  0  0  0  0
  179.7640  178.9910  141.0040 C   0  0  2  0  0  3  0  0  0  0  0  0
  179.6500  181.2530  140.3020 C   0  0  0  0  0  2  0  0  0  0  0  0
  179.3070  179.9530  142.0770 C   0  0  0  0  0  2  0  0  0  0  0  0
  1 26  1  6  0  0  0
  1 18  1  0  0  0  0
  2 14  1  0  0  0  0
  2 27  1  0  0  0  0
  3  7  2  0  0  0  0
  4 15  1  0  0  0  0
  5 19  1  0  0  0  0
  8 16  1  0  0  0  0
  9 13  2  0  0  0  0
 10 22  1  0  0  0  0
 11  5  2  0  0  0  0
 12  8  1  0  0  0  0
 13 20  1  0  0  0  0
 13 24  1  0  0  0  0
 15 12  1  0  0  0  0
 15  5  1  0  0  0  0
 16  3  1  0  0  0  0
 17 28  1  6  0  0  0
 17 10  1  0  0  0  0
 18  4  1  0  0  0  0
 18 20  2  0  0  0  0
 19  6  1  6  0  0  0
 19  3  1  0  0  0  0
 20 11  1  0  0  0  0
 21 23  1  0  0  0  0
 23  4  2  0  0  0  0
 24 22  1  0  0  0  0
 25 14  1  6  0  0  0
 25  9  1  0  0  0  0
 25 17  1  0  0  0  0
 26 21  2  0  0  0  0
 27  1  1  0  0  0  0
 27  9  1  0  0  0  0
 28 29  1  0  0  0  0
 30 34  1  0  0  0  0
 31 33  1  0  0  0  0
 31 32  1  0  0  0  0
 32 29  1  1  0  0  0
 32 34  1  0  0  0  0
 33 30  1  0  0  0  0
M  END
>  <MODEL>
5

>  <REMARK>
 VINA RESULT:      -8.4      2.595      4.428
  Name = 
  3 active torsions:
  status: ('A' for Active; 'I' for Inactive)
    1  A    between atoms: C_17  and  O_28
    2  A    between atoms: O_28  and  C_29
    3  A    between atoms: C_29  and  C_32
                            x       y       z     vdW  Elec       q    Type
                         _______ _______ _______ _____ _____    ______ ____

>  <TORSDO>
F 3

$$$$
=
 OpenBabel11122412043D

 34 40  0  0  1  0  0  0  0  0999 V2000
  182.1680  178.3200  143.6990 C   0  0  2  0  0  3  0  0  0  0  0  0
  183.7020  178.6950  145.7200 C   0  0  0  0  0  2  0  0  0  0  0  0
  181.2120  178.0900  137.2080 C   0  0  0  0  0  0  0  0  0  0  0  0
  180.7980  178.7800  141.5840 C   0  0  0  0  0  0  0  0  0  0  0  0
  181.9800  179.0390  139.4110 C   0  0  0  0  0  0  0  0  0  0  0  0
  181.4670  180.5550  137.5150 C   0  0  0  0  0  1  0  0  0  0  0  0
  181.2000  178.0550  135.9880 O   0  0  0  0  0  0  0  0  0  0  0  0
  179.2320  177.5630  138.6890 C   0  0  0  0  0  2  0  0  0  0  0  0
  184.5770  178.9690  143.5650 C   0  0  0  0  0  0  0  0  0  0  0  0
  187.5260  177.9990  142.9240 C   0  0  0  0  0  2  0  0  0  0  0  0
  183.1540  179.0630  140.0560 C   0  0  0  0  0  3  0  0  0  0  0  0
  179.4620  178.8760  139.4440 C   0  0  0  0  0  2  0  0  0  0  0  0
  184.5540  178.9650  142.2190 C   0  0  0  0  0  0  0  0  0  0  0  0
  185.1950  179.0210  145.8440 C   0  0  0  0  0  2  0  0  0  0  0  0
  180.7440  178.8770  140.1500 N   0  0  0  0  0  0  0  0  0  0  0  0
  180.4740  177.0260  137.9720 C   0  0  0  0  0  2  0  0  0  0  0  0
  186.6880  177.8120  144.1870 C   0  0  2  0  0  3  0  0  0  0  0  0
  182.1130  178.6990  142.2380 C   0  0  0  0  0  0  0  0  0  0  0  0
  181.9830  179.1830  137.9130 C   0  0  2  0  0  3  0  0  0  0  0  0
  183.2400  178.8900  141.5240 C   0  0  0  0  0  0  0  0  0  0  0  0
  179.8240  178.9610  143.8200 C   0  0  0  0  0  3  0  0  0  0  0  0
  186.7010  177.8450  141.6520 C   0  0  0  0  0  2  0  0  0  0  0  0
  179.7050  178.8990  142.3480 C   0  0  0  0  0  3  0  0  0  0  0  0
  185.8220  179.0670  141.4260 C   0  0  0  0  0  2  0  0  0  0  0  0
  185.7890  179.0350  144.4260 C   0  0  1  0  0  3  0  0  0  0  0  0
  180.9640  178.7520  144.4170 N   0  0  0  0  0  0  0  0  0  0  0  0
  183.3820  178.8460  144.3170 N   0  0  0  0  0  0  0  0  0  0  0  0
  187.5550  177.6270  145.2680 O   0  0  0  0  0  0  0  0  0  0  0  0
  188.7860  177.3140  144.6900 C   0  0  0  0  0  2  0  0  0  0  0  0
  190.4640  176.3420  147.3010 O   0  0  0  0  0  0  0  0  0  0  0  0
  191.1960  177.1440  145.2060 C   0  0  0  0  0  2  0  0  0  0  0  0
  189.9150  177.8450  145.5540 C   0  0  2  0  0  3  0  0  0  0  0  0
  191.6020  176.4700  146.4940 C   0  0  0  0  0  2  0  0  0  0  0  0
  189.6710  177.4580  146.9950 C   0  0  0  0  0  2  0  0  0  0  0  0
  1 18  1  6  0  0  0
  1 27  1  0  0  0  0
  1 26  1  0  0  0  0
  2 14  1  0  0  0  0
  3 19  1  0  0  0  0
  3 16  1  0  0  0  0
  4 18  1  0  0  0  0
  4 23  2  0  0  0  0
  5 11  2  0  0  0  0
  5 15  1  0  0  0  0
  7  3  2  0  0  0  0
  8 12  1  0  0  0  0
  9 27  1  0  0  0  0
  9 25  1  0  0  0  0
 10 17  1  0  0  0  0
 11 20  1  0  0  0  0
 12 15  1  0  0  0  0
 13  9  2  0  0  0  0
 15  4  1  0  0  0  0
 16  8  1  0  0  0  0
 17 25  1  0  0  0  0
 17 28  1  1  0  0  0
 19  6  1  1  0  0  0
 19  5  1  0  0  0  0
 20 13  1  0  0  0  0
 20 18  2  0  0  0  0
 21 26  2  0  0  0  0
 22 10  1  0  0  0  0
 23 21  1  0  0  0  0
 24 22  1  0  0  0  0
 24 13  1  0  0  0  0
 25 14  1  1  0  0  0
 27  2  1  0  0  0  0
 29 28  1  0  0  0  0
 31 32  1  0  0  0  0
 31 33  1  0  0  0  0
 32 29  1  6  0  0  0
 32 34  1  0  0  0  0
 33 30  1  0  0  0  0
 34 30  1  0  0  0  0
M  END
>  <MODEL>
6

>  <REMARK>
 VINA RESULT:      -8.2      2.195      8.761
  Name = 
  3 active torsions:
  status: ('A' for Active; 'I' for Inactive)
    1  A    between atoms: C_17  and  O_28
    2  A    between atoms: O_28  and  C_29
    3  A    between atoms: C_29  and  C_32
                            x       y       z     vdW  Elec       q    Type
                         _______ _______ _______ _____ _____    ______ ____

>  <TORSDO>
F 3

$$$$
=
 OpenBabel11122412043D

 34 40  0  0  1  0  0  0  0  0999 V2000
  187.4370  177.5470  139.4100 C   0  0  2  0  0  3  0  0  0  0  0  0
  185.2870  178.2620  138.2090 C   0  0  0  0  0  2  0  0  0  0  0  0
  191.1180  177.2080  144.8360 C   0  0  0  0  0  0  0  0  0  0  0  0
  189.6720  177.6810  140.6540 C   0  0  0  0  0  0  0  0  0  0  0  0
  189.6780  178.2780  143.0690 C   0  0  0  0  0  0  0  0  0  0  0  0
  191.3060  179.6490  144.3430 C   0  0  0  0  0  1  0  0  0  0  0  0
  191.6670  177.1950  145.9260 O   0  0  0  0  0  0  0  0  0  0  0  0
  192.0550  176.1600  142.7340 C   0  0  0  0  0  2  0  0  0  0  0  0
  185.5540  178.7950  140.4740 C   0  0  0  0  0  0  0  0  0  0  0  0
  183.0700  178.6280  142.4380 C   0  0  0  0  0  2  0  0  0  0  0  0
  188.3770  178.5910  142.9910 C   0  0  0  0  0  3  0  0  0  0  0  0
  191.8090  177.4730  141.9840 C   0  0  0  0  0  2  0  0  0  0  0  0
  186.1740  178.8120  141.6680 C   0  0  0  0  0  0  0  0  0  0  0  0
  184.0100  178.9580  138.6940 C   0  0  0  0  0  2  0  0  0  0  0  0
  190.3820  177.7890  141.9010 N   0  0  0  0  0  0  0  0  0  0  0  0
  191.1800  175.9750  143.9770 C   0  0  0  0  0  2  0  0  0  0  0  0
  183.1900  178.2070  140.9740 C   0  0  2  0  0  3  0  0  0  0  0  0
  188.2220  177.9280  140.6430 C   0  0  0  0  0  0  0  0  0  0  0  0
  190.3770  178.4480  144.3900 C   0  0  2  0  0  3  0  0  0  0  0  0
  187.6070  178.4160  141.7380 C   0  0  0  0  0  0  0  0  0  0  0  0
  189.5560  177.5610  138.2140 C   0  0  0  0  0  3  0  0  0  0  0  0
  184.3190  178.2930  143.2420 C   0  0  0  0  0  2  0  0  0  0  0  0
  190.3050  177.5000  139.4880 C   0  0  0  0  0  3  0  0  0  0  0  0
  185.4530  179.2520  142.9060 C   0  0  0  0  0  2  0  0  0  0  0  0
  184.1320  179.1530  140.2150 C   0  0  1  0  0  3  0  0  0  0  0  0
  188.2550  177.6400  138.1960 N   0  0  0  0  0  0  0  0  0  0  0  0
  186.2250  178.3540  139.3070 N   0  0  0  0  0  0  0  0  0  0  0  0
  181.9140  178.2290  140.4030 O   0  0  0  0  0  0  0  0  0  0  0  0
  181.0860  178.7550  141.3970 C   0  0  0  0  0  2  0  0  0  0  0  0
  179.2020  177.8500  138.9060 O   0  0  0  0  0  0  0  0  0  0  0  0
  179.6460  176.7940  140.9690 C   0  0  0  0  0  2  0  0  0  0  0  0
  179.6600  178.2780  141.1900 C   0  0  2  0  0  3  0  0  0  0  0  0
  179.0480  176.6370  139.5920 C   0  0  0  0  0  2  0  0  0  0  0  0
  179.1240  178.8420  139.8940 C   0  0  0  0  0  2  0  0  0  0  0  0
  1 26  1  6  0  0  0
  1 18  1  0  0  0  0
  2 14  1  0  0  0  0
  2 27  1  0  0  0  0
  3  7  2  0  0  0  0
  4 15  1  0  0  0  0
  5 19  1  0  0  0  0
  8 16  1  0  0  0  0
  9 13  2  0  0  0  0
 10 22  1  0  0  0  0
 11  5  2  0  0  0  0
 12  8  1  0  0  0  0
 13 20  1  0  0  0  0
 13 24  1  0  0  0  0
 15 12  1  0  0  0  0
 15  5  1  0  0  0  0
 16  3  1  0  0  0  0
 17 28  1  6  0  0  0
 17 10  1  0  0  0  0
 18  4  1  0  0  0  0
 18 20  2  0  0  0  0
 19  6  1  6  0  0  0
 19  3  1  0  0  0  0
 20 11  1  0  0  0  0
 21 23  1  0  0  0  0
 23  4  2  0  0  0  0
 24 22  1  0  0  0  0
 25 14  1  6  0  0  0
 25  9  1  0  0  0  0
 25 17  1  0  0  0  0
 26 21  2  0  0  0  0
 27  1  1  0  0  0  0
 27  9  1  0  0  0  0
 28 29  1  0  0  0  0
 30 33  1  0  0  0  0
 30 34  1  0  0  0  0
 31 32  1  0  0  0  0
 32 29  1  6  0  0  0
 33 31  1  0  0  0  0
 34 32  1  0  0  0  0
M  END
>  <MODEL>
7

>  <REMARK>
 VINA RESULT:      -7.9      2.821      4.634
  Name = 
  3 active torsions:
  status: ('A' for Active; 'I' for Inactive)
    1  A    between atoms: C_17  and  O_28
    2  A    between atoms: O_28  and  C_29
    3  A    between atoms: C_29  and  C_32
                            x       y       z     vdW  Elec       q    Type
                         _______ _______ _______ _____ _____    ______ ____

>  <TORSDO>
F 3

$$$$
=
 OpenBabel11122412043D

 34 40  0  0  1  0  0  0  0  0999 V2000
  184.4150  177.9760  143.1750 C   0  0  2  0  0  3  0  0  0  0  0  0
  186.6530  177.7940  144.4140 C   0  0  0  0  0  2  0  0  0  0  0  0
  180.9880  179.0990  137.6900 C   0  0  0  0  0  0  0  0  0  0  0  0
  182.4330  178.9730  141.8960 C   0  0  0  0  0  0  0  0  0  0  0  0
  182.7020  179.5210  139.4850 C   0  0  0  0  0  0  0  0  0  0  0  0
  181.7630  181.4200  138.1920 C   0  0  0  0  0  1  0  0  0  0  0  0
  180.4960  179.3010  136.5910 O   0  0  0  0  0  0  0  0  0  0  0  0
  179.6800  178.5040  139.7700 C   0  0  0  0  0  2  0  0  0  0  0  0
  186.6550  178.3850  142.1480 C   0  0  0  0  0  0  0  0  0  0  0  0
  188.9070  177.2570  140.2240 C   0  0  0  0  0  2  0  0  0  0  0  0
  184.0200  179.3000  139.5850 C   0  0  0  0  0  3  0  0  0  0  0  0
  180.4080  179.6170  140.5320 C   0  0  0  0  0  2  0  0  0  0  0  0
  186.1110  178.6430  140.9440 C   0  0  0  0  0  0  0  0  0  0  0  0
  188.1090  177.9330  143.9530 C   0  0  0  0  0  2  0  0  0  0  0  0
  181.8420  179.3490  140.6390 N   0  0  0  0  0  0  0  0  0  0  0  0
  180.4330  177.9900  138.5400 C   0  0  0  0  0  2  0  0  0  0  0  0
  188.6080  176.9180  141.6830 C   0  0  2  0  0  3  0  0  0  0  0  0
  183.8630  178.6320  141.9320 C   0  0  0  0  0  0  0  0  0  0  0  0
  182.1480  179.9500  138.1540 C   0  0  2  0  0  3  0  0  0  0  0  0
  184.6390  178.8400  140.8500 C   0  0  0  0  0  0  0  0  0  0  0  0
  182.4510  178.8190  144.3370 C   0  0  0  0  0  3  0  0  0  0  0  0
  187.6410  177.4370  139.3980 C   0  0  0  0  0  2  0  0  0  0  0  0
  181.7600  179.0550  143.0510 C   0  0  0  0  0  3  0  0  0  0  0  0
  186.9680  178.7640  139.7200 C   0  0  0  0  0  2  0  0  0  0  0  0
  188.0980  178.1590  142.4320 C   0  0  1  0  0  3  0  0  0  0  0  0
  183.6790  178.3830  144.3770 N   0  0  0  0  0  0  0  0  0  0  0  0
  185.8450  178.2440  143.3020 N   0  0  0  0  0  0  0  0  0  0  0  0
  189.7810  176.4400  142.2740 O   0  0  0  0  0  0  0  0  0  0  0  0
  190.7470  177.4050  141.9830 C   0  0  0  0  0  2  0  0  0  0  0  0
  191.1290  178.0300  145.1520 O   0  0  0  0  0  0  0  0  0  0  0  0
  191.6980  176.1300  143.8740 C   0  0  0  0  0  2  0  0  0  0  0  0
  191.8660  177.3440  143.0070 C   0  0  2  0  0  3  0  0  0  0  0  0
  191.5400  176.6950  145.2640 C   0  0  0  0  0  2  0  0  0  0  0  0
  191.7280  178.4990  143.9730 C   0  0  0  0  0  2  0  0  0  0  0  0
  1 18  1  6  0  0  0
  1 27  1  0  0  0  0
  1 26  1  0  0  0  0
  3 19  1  0  0  0  0
  3 16  1  0  0  0  0
  4 18  1  0  0  0  0
  4 23  2  0  0  0  0
  5 11  2  0  0  0  0
  5 15  1  0  0  0  0
  7  3  2  0  0  0  0
  8 12  1  0  0  0  0
  9 25  1  0  0  0  0
  9 27  1  0  0  0  0
 10 17  1  0  0  0  0
 11 20  1  0  0  0  0
 12 15  1  0  0  0  0
 13  9  2  0  0  0  0
 14  2  1  0  0  0  0
 15  4  1  0  0  0  0
 16  8  1  0  0  0  0
 17 28  1  1  0  0  0
 17 25  1  0  0  0  0
 19  6  1  1  0  0  0
 19  5  1  0  0  0  0
 20 13  1  0  0  0  0
 20 18  2  0  0  0  0
 21 26  2  0  0  0  0
 22 24  1  0  0  0  0
 22 10  1  0  0  0  0
 23 21  1  0  0  0  0
 24 13  1  0  0  0  0
 25 14  1  1  0  0  0
 27  2  1  0  0  0  0
 29 28  1  0  0  0  0
 30 33  1  0  0  0  0
 31 33  1  0  0  0  0
 32 29  1  6  0  0  0
 32 31  1  0  0  0  0
 32 34  1  0  0  0  0
 34 30  1  0  0  0  0
M  END
>  <MODEL>
8

>  <REMARK>
 VINA RESULT:      -7.7      1.803      8.567
  Name = 
  3 active torsions:
  status: ('A' for Active; 'I' for Inactive)
    1  A    between atoms: C_17  and  O_28
    2  A    between atoms: O_28  and  C_29
    3  A    between atoms: C_29  and  C_32
                            x       y       z     vdW  Elec       q    Type
                         _______ _______ _______ _____ _____    ______ ____

>  <TORSDO>
F 3

$$$$
=
 OpenBabel11122412043D

 34 40  0  0  1  0  0  0  0  0999 V2000
  187.8500  177.3090  139.0690 C   0  0  2  0  0  3  0  0  0  0  0  0
  185.8740  177.9940  137.5830 C   0  0  0  0  0  2  0  0  0  0  0  0
  190.8460  177.1940  144.9090 C   0  0  0  0  0  0  0  0  0  0  0  0
  189.9220  177.4730  140.5650 C   0  0  0  0  0  0  0  0  0  0  0  0
  189.6510  178.1930  142.9300 C   0  0  0  0  0  0  0  0  0  0  0  0
  191.1440  179.6040  144.3230 C   0  0  0  0  0  1  0  0  0  0  0  0
  191.2600  177.2290  146.0560 O   0  0  0  0  0  0  0  0  0  0  0  0
  192.0060  176.0250  142.9900 C   0  0  0  0  0  2  0  0  0  0  0  0
  185.8790  178.6390  139.8350 C   0  0  0  0  0  0  0  0  0  0  0  0
  183.1750  178.6120  141.4910 C   0  0  0  0  0  2  0  0  0  0  0  0
  188.3750  178.5220  142.6810 C   0  0  0  0  0  3  0  0  0  0  0  0
  191.8790  177.3010  142.1520 C   0  0  0  0  0  2  0  0  0  0  0  0
  186.3530  178.7080  141.0930 C   0  0  0  0  0  0  0  0  0  0  0  0
  184.5630  178.7340  137.8760 C   0  0  0  0  0  2  0  0  0  0  0  0
  190.4800  177.6340  141.8820 N   0  0  0  0  0  0  0  0  0  0  0  0
  190.9840  175.9180  144.1260 C   0  0  0  0  0  2  0  0  0  0  0  0
  183.4610  178.1140  140.0750 C   0  0  2  0  0  3  0  0  0  0  0  0
  188.4890  177.7410  140.3670 C   0  0  0  0  0  0  0  0  0  0  0  0
  190.1900  178.4210  144.3170 C   0  0  2  0  0  3  0  0  0  0  0  0
  187.7580  178.2950  141.3540 C   0  0  0  0  0  0  0  0  0  0  0  0
  190.0960  177.2290  138.1380 C   0  0  0  0  0  3  0  0  0  0  0  0
  184.3120  178.2990  142.4550 C   0  0  0  0  0  2  0  0  0  0  0  0
  190.6850  177.2220  139.4940 C   0  0  0  0  0  3  0  0  0  0  0  0
  185.4980  179.2220  142.2120 C   0  0  0  0  0  2  0  0  0  0  0  0
  184.5070  179.0050  139.3890 C   0  0  1  0  0  3  0  0  0  0  0  0
  188.8090  177.3270  137.9590 N   0  0  0  0  0  0  0  0  0  0  0  0
  186.6750  178.1280  138.7810 N   0  0  0  0  0  0  0  0  0  0  0  0
  182.2630  178.1260  139.3530 O   0  0  0  0  0  0  0  0  0  0  0  0
  181.3650  177.3980  140.1370 C   0  0  0  0  0  2  0  0  0  0  0  0
  178.9360  175.3770  139.3710 O   0  0  0  0  0  0  0  0  0  0  0  0
  180.8260  176.0580  138.1330 C   0  0  0  0  0  2  0  0  0  0  0  0
  181.2130  175.9940  139.5820 C   0  0  2  0  0  3  0  0  0  0  0  0
  179.4890  175.3590  138.0830 C   0  0  0  0  0  2  0  0  0  0  0  0
  180.0330  175.3170  140.2420 C   0  0  0  0  0  2  0  0  0  0  0  0
  1 26  1  6  0  0  0
  1 18  1  0  0  0  0
  2 14  1  0  0  0  0
  2 27  1  0  0  0  0
  3  7  2  0  0  0  0
  4 15  1  0  0  0  0
  5 19  1  0  0  0  0
  8 16  1  0  0  0  0
  9 13  2  0  0  0  0
 10 22  1  0  0  0  0
 11  5  2  0  0  0  0
 12  8  1  0  0  0  0
 13 20  1  0  0  0  0
 13 24  1  0  0  0  0
 15 12  1  0  0  0  0
 15  5  1  0  0  0  0
 16  3  1  0  0  0  0
 17 28  1  6  0  0  0
 17 10  1  0  0  0  0
 18  4  1  0  0  0  0
 18 20  2  0  0  0  0
 19  6  1  6  0  0  0
 19  3  1  0  0  0  0
 20 11  1  0  0  0  0
 21 23  1  0  0  0  0
 23  4  2  0  0  0  0
 24 22  1  0  0  0  0
 25 14  1  6  0  0  0
 25  9  1  0  0  0  0
 25 17  1  0  0  0  0
 26 21  2  0  0  0  0
 27  1  1  0  0  0  0
 27  9  1  0  0  0  0
 28 29  1  0  0  0  0
 30 34  1  0  0  0  0
 31 32  1  0  0  0  0
 32 29  1  1  0  0  0
 32 34  1  0  0  0  0
 33 31  1  0  0  0  0
 33 30  1  0  0  0  0
M  END
>  <MODEL>
9

>  <REMARK>
 VINA RESULT:      -7.7      3.196      5.048
  Name = 
  3 active torsions:
  status: ('A' for Active; 'I' for Inactive)
    1  A    between atoms: C_17  and  O_28
    2  A    between atoms: O_28  and  C_29
    3  A    between atoms: C_29  and  C_32
                            x       y       z     vdW  Elec       q    Type
                         _______ _______ _______ _____ _____    ______ ____

>  <TORSDO>
F 3

$$$$
