=
 OpenBabel11122411323D

 37 44  0  0  1  0  0  0  0  0999 V2000
  189.0320  176.4770  139.4290 C   0  0  0  0  0  2  0  0  0  0  0  0
  190.7260  178.2640  144.0000 C   0  0  1  0  0  0  0  0  0  0  0  0
  186.7000  177.4860  142.8770 C   0  0  1  0  0  3  0  0  0  0  0  0
  189.9440  176.4080  138.1920 C   0  0  2  0  0  3  0  0  0  0  0  0
  186.0500  179.1810  139.5450 C   0  0  0  0  0  2  0  0  0  0  0  0
  188.4810  178.1920  144.5890 C   0  0  1  0  0  3  0  0  0  0  0  0
  186.8010  177.7730  141.4220 N   0  0  1  0  0  0  0  0  0  0  0  0
  188.2450  177.4010  136.5550 C   0  0  0  0  0  0  0  0  0  0  0  0
  188.1340  177.3190  143.3840 C   0  0  2  0  0  3  0  0  0  0  0  0
  185.8380  178.7480  140.9630 N   0  0  2  0  0  0  0  0  0  0  0  0
  187.4860  177.9120  145.6830 C   0  0  0  0  0  2  0  0  0  0  0  0
  189.1950  176.3960  136.9290 N   0  0  0  0  0  2  0  0  0  0  0  0
  189.0470  177.5540  142.2620 N   0  0  2  0  0  0  0  0  0  0  0  0
  191.7820  177.1830  143.8970 C   0  0  0  0  0  1  0  0  0  0  0  0
  184.3580  178.1420  143.5770 C   0  0  0  0  0  2  0  0  0  0  0  0
  186.0970  178.3860  145.2570 C   0  0  0  0  0  2  0  0  0  0  0  0
  190.1320  178.4950  142.5870 C   0  0  0  0  0  2  0  0  0  0  0  0
  187.6620  178.1860  137.5780 N   0  0  0  0  0  0  0  0  0  0  0  0
  186.7740  178.0990  138.7960 C   0  0  1  0  0  3  0  0  0  0  0  0
  185.8350  178.4630  143.7380 C   0  0  1  0  0  3  0  0  0  0  0  0
  188.2190  178.1990  141.2540 C   0  0  1  0  0  3  0  0  0  0  0  0
  189.7870  177.8780  144.9990 O   0  0  0  0  0  0  0  0  0  0  0  0
  184.4850  178.1450  141.1140 C   0  0  1  0  0  3  0  0  0  0  0  0
  191.3470  179.4320  144.4030 F   0  0  0  0  0  0  0  0  0  0  0  0
  187.9680  178.7660  138.8900 C   0  0  1  0  0  3  0  0  0  0  0  0
  187.5590  177.3590  135.0760 S   0  0  0  0  0  0  0  0  0  0  0  0
  188.8080  177.9470  139.8410 C   0  0  2  0  0  3  0  0  0  0  0  0
  183.7900  178.7470  142.3150 C   0  0  0  0  0  2  0  0  0  0  0  0
  183.2940  176.9380  139.2630 C   0  0  0  0  0  3  0  0  0  0  0  0
  183.5710  178.1490  139.9090 C   0  0  0  0  0  0  0  0  0  0  0  0
  183.0200  179.3410  139.4110 C   0  0  0  0  0  3  0  0  0  0  0  0
  181.6660  180.4680  137.8060 F   0  0  0  0  0  0  0  0  0  0  0  0
  181.9220  178.1040  137.6440 C   0  0  0  0  0  3  0  0  0  0  0  0
  182.1960  179.3170  138.2820 C   0  0  0  0  0  0  0  0  0  0  0  0
  182.4710  176.9160  138.1330 C   0  0  0  0  0  3  0  0  0  0  0  0
  190.2110  174.1200  137.5640 O   0  0  0  0  0  1  0  0  0  0  0  0
  190.8150  175.1670  138.2620 C   0  0  0  0  0  2  0  0  0  0  0  0
  1 27  1  0  0  0  0
  2 14  1  6  0  0  0
  2 24  1  0  0  0  0
  2 22  1  0  0  0  0
  3  9  1  0  0  0  0
  3 20  1  0  0  0  0
  4 37  1  0  0  0  0
  4  1  1  0  0  0  0
  5 10  1  0  0  0  0
  6 22  1  0  0  0  0
  6 11  1  0  0  0  0
  7  3  1  0  0  0  0
  8 12  1  0  0  0  0
  8 18  1  0  0  0  0
  9  6  1  0  0  0  0
 10 23  1  0  0  0  0
 10  7  1  0  0  0  0
 12  4  1  0  0  0  0
 13 17  1  0  0  0  0
 13  9  1  0  0  0  0
 15 20  1  0  0  0  0
 16 11  1  0  0  0  0
 17  2  1  0  0  0  0
 18 19  1  0  0  0  0
 18 25  1  0  0  0  0
 19 25  1  0  0  0  0
 19  5  1  0  0  0  0
 20 16  1  0  0  0  0
 21  7  1  0  0  0  0
 21 13  1  0  0  0  0
 23 28  1  0  0  0  0
 25 27  1  0  0  0  0
 26  8  2  0  0  0  0
 27 21  1  0  0  0  0
 28 15  1  0  0  0  0
 29 30  1  0  0  0  0
 30 23  1  0  0  0  0
 31 30  2  0  0  0  0
 32 34  1  0  0  0  0
 33 35  1  0  0  0  0
 33 34  2  0  0  0  0
 34 31  1  0  0  0  0
 35 29  2  0  0  0  0
 36 37  1  0  0  0  0
M  END
>  <MODEL>
1

>  <REMARK>
 VINA RESULT:      -7.7      0.000      0.000
  Name = 
  2 active torsions:
  status: ('A' for Active; 'I' for Inactive)
    1  A    between atoms: CA_4  and  C_37
    2  A    between atoms: C_23  and  C_30
                            x       y       z     vdW  Elec       q    Type
                         _______ _______ _______ _____ _____    ______ ____

>  <TORSDO>
F 2

$$$$
=
 OpenBabel11122411323D

 37 44  0  0  1  0  0  0  0  0999 V2000
  189.0210  176.4890  139.4270 C   0  0  0  0  0  2  0  0  0  0  0  0
  190.7000  178.2980  143.9960 C   0  0  1  0  0  0  0  0  0  0  0  0
  186.6780  177.5040  142.8660 C   0  0  1  0  0  3  0  0  0  0  0  0
  189.9360  176.4180  138.1930 C   0  0  2  0  0  3  0  0  0  0  0  0
  186.0310  179.1840  139.5270 C   0  0  0  0  0  2  0  0  0  0  0  0
  188.4540  178.2210  144.5790 C   0  0  1  0  0  3  0  0  0  0  0  0
  186.7820  177.7850  141.4100 N   0  0  1  0  0  0  0  0  0  0  0  0
  188.2380  177.4010  136.5480 C   0  0  0  0  0  0  0  0  0  0  0  0
  188.1120  177.3430  143.3780 C   0  0  2  0  0  3  0  0  0  0  0  0
  185.8170  178.7560  140.9450 N   0  0  2  0  0  0  0  0  0  0  0  0
  187.4570  177.9430  145.6720 C   0  0  0  0  0  2  0  0  0  0  0  0
  189.1900  176.4000  136.9280 N   0  0  0  0  0  2  0  0  0  0  0  0
  189.0260  177.5770  142.2570 N   0  0  2  0  0  0  0  0  0  0  0  0
  191.7600  177.2200  143.8990 C   0  0  0  0  0  1  0  0  0  0  0  0
  184.3330  178.1560  143.5580 C   0  0  0  0  0  2  0  0  0  0  0  0
  186.0680  178.4110  145.2420 C   0  0  0  0  0  2  0  0  0  0  0  0
  190.1080  178.5220  142.5800 C   0  0  0  0  0  2  0  0  0  0  0  0
  187.6500  178.1870  137.5670 N   0  0  0  0  0  0  0  0  0  0  0  0
  186.7600  178.1020  138.7830 C   0  0  1  0  0  3  0  0  0  0  0  0
  185.8080  178.4810  143.7220 C   0  0  1  0  0  3  0  0  0  0  0  0
  188.1990  178.2150  141.2450 C   0  0  1  0  0  3  0  0  0  0  0  0
  189.7600  177.9130  144.9940 O   0  0  0  0  0  0  0  0  0  0  0  0
  184.4660  178.1500  141.0960 C   0  0  1  0  0  3  0  0  0  0  0  0
  191.3160  179.4690  144.3950 F   0  0  0  0  0  0  0  0  0  0  0  0
  187.9520  178.7730  138.8770 C   0  0  1  0  0  3  0  0  0  0  0  0
  187.5560  177.3510  135.0680 S   0  0  0  0  0  0  0  0  0  0  0  0
  188.7910  177.9600  139.8330 C   0  0  2  0  0  3  0  0  0  0  0  0
  183.7660  178.7540  142.2930 C   0  0  0  0  0  2  0  0  0  0  0  0
  182.9400  179.3420  139.4990 C   0  0  0  0  0  3  0  0  0  0  0  0
  183.5540  178.1470  139.8890 C   0  0  0  0  0  0  0  0  0  0  0  0
  183.2890  176.9670  139.1730 C   0  0  0  0  0  3  0  0  0  0  0  0
  182.1730  175.8510  137.3880 F   0  0  0  0  0  0  0  0  0  0  0  0
  181.8170  178.1890  137.6910 C   0  0  0  0  0  3  0  0  0  0  0  0
  182.4250  176.9900  138.0750 C   0  0  0  0  0  0  0  0  0  0  0  0
  182.0730  179.3640  138.4020 C   0  0  0  0  0  3  0  0  0  0  0  0
  190.2020  174.1240  137.5890 O   0  0  0  0  0  1  0  0  0  0  0  0
  190.8100  175.1800  138.2690 C   0  0  0  0  0  2  0  0  0  0  0  0
  1 27  1  0  0  0  0
  2 14  1  6  0  0  0
  2 24  1  0  0  0  0
  2 22  1  0  0  0  0
  3  9  1  0  0  0  0
  3 20  1  0  0  0  0
  4 37  1  0  0  0  0
  4  1  1  0  0  0  0
  5 10  1  0  0  0  0
  6 22  1  0  0  0  0
  6 11  1  0  0  0  0
  7  3  1  0  0  0  0
  8 12  1  0  0  0  0
  8 18  1  0  0  0  0
  9  6  1  0  0  0  0
 10 23  1  0  0  0  0
 10  7  1  0  0  0  0
 12  4  1  0  0  0  0
 13 17  1  0  0  0  0
 13  9  1  0  0  0  0
 15 20  1  0  0  0  0
 16 11  1  0  0  0  0
 17  2  1  0  0  0  0
 18 19  1  0  0  0  0
 18 25  1  0  0  0  0
 19 25  1  0  0  0  0
 19  5  1  0  0  0  0
 20 16  1  0  0  0  0
 21  7  1  0  0  0  0
 21 13  1  0  0  0  0
 23 28  1  0  0  0  0
 25 27  1  0  0  0  0
 26  8  2  0  0  0  0
 27 21  1  0  0  0  0
 28 15  1  0  0  0  0
 29 30  1  0  0  0  0
 30 23  1  0  0  0  0
 31 30  2  0  0  0  0
 32 34  1  0  0  0  0
 33 34  2  0  0  0  0
 33 35  1  0  0  0  0
 34 31  1  0  0  0  0
 35 29  2  0  0  0  0
 36 37  1  0  0  0  0
M  END
>  <MODEL>
2

>  <REMARK>
 VINA RESULT:      -7.6      0.769      1.106
  Name = 
  2 active torsions:
  status: ('A' for Active; 'I' for Inactive)
    1  A    between atoms: CA_4  and  C_37
    2  A    between atoms: C_23  and  C_30
                            x       y       z     vdW  Elec       q    Type
                         _______ _______ _______ _____ _____    ______ ____

>  <TORSDO>
F 2

$$$$
=
 OpenBabel11122411323D

 37 44  0  0  1  0  0  0  0  0999 V2000
  190.0520  178.2340  143.2230 C   0  0  0  0  0  2  0  0  0  0  0  0
  191.1990  176.4090  138.4990 C   0  0  1  0  0  0  0  0  0  0  0  0
  187.7680  178.6550  139.6240 C   0  0  1  0  0  3  0  0  0  0  0  0
  190.8210  177.7880  144.4780 C   0  0  2  0  0  3  0  0  0  0  0  0
  186.2450  177.0330  142.6970 C   0  0  0  0  0  2  0  0  0  0  0  0
  189.2270  177.4640  137.8760 C   0  0  1  0  0  3  0  0  0  0  0  0
  187.6380  178.1980  141.0320 N   0  0  1  0  0  0  0  0  0  0  0  0
  188.7510  177.4150  145.9380 C   0  0  0  0  0  0  0  0  0  0  0  0
  189.1790  178.2680  139.1740 C   0  0  2  0  0  3  0  0  0  0  0  0
  186.3300  177.6640  141.3420 N   0  0  2  0  0  0  0  0  0  0  0  0
  188.5140  178.2450  136.8050 C   0  0  0  0  0  2  0  0  0  0  0  0
  190.0520  177.9720  145.7160 N   0  0  0  0  0  2  0  0  0  0  0  0
  189.8330  177.5580  140.2760 N   0  0  2  0  0  0  0  0  0  0  0  0
  192.5930  176.9390  138.7630 C   0  0  0  0  0  1  0  0  0  0  0  0
  185.4200  179.1030  138.7950 C   0  0  0  0  0  2  0  0  0  0  0  0
  187.0260  178.3440  137.1350 C   0  0  0  0  0  2  0  0  0  0  0  0
  190.4610  176.2930  139.8590 C   0  0  0  0  0  2  0  0  0  0  0  0
  187.9740  177.0560  144.8100 N   0  0  0  0  0  0  0  0  0  0  0  0
  187.2900  177.6320  143.5940 C   0  0  1  0  0  3  0  0  0  0  0  0
  186.6450  178.2210  138.6260 C   0  0  1  0  0  3  0  0  0  0  0  0
  188.7430  177.2090  141.1750 C   0  0  1  0  0  3  0  0  0  0  0  0
  190.5740  177.2530  137.5370 O   0  0  0  0  0  0  0  0  0  0  0  0
  185.3550  178.7840  141.2390 C   0  0  1  0  0  3  0  0  0  0  0  0
  191.3180  175.1400  137.9650 F   0  0  0  0  0  0  0  0  0  0  0  0
  188.1120  176.5460  143.4420 C   0  0  1  0  0  3  0  0  0  0  0  0
  188.0360  177.5790  147.3940 S   0  0  0  0  0  0  0  0  0  0  0  0
  189.2790  177.0420  142.6220 C   0  0  2  0  0  3  0  0  0  0  0  0
  184.5640  178.6550  139.9560 C   0  0  0  0  0  2  0  0  0  0  0  0
  184.9420  179.6570  143.5560 C   0  0  0  0  0  3  0  0  0  0  0  0
  184.4330  179.0290  142.4130 C   0  0  0  0  0  0  0  0  0  0  0  0
  183.0910  178.6150  142.3900 C   0  0  0  0  0  3  0  0  0  0  0  0
  180.9760  178.4340  143.4720 F   0  0  0  0  0  0  0  0  0  0  0  0
  182.7830  179.4640  144.6350 C   0  0  0  0  0  3  0  0  0  0  0  0
  182.2690  178.8350  143.4980 C   0  0  0  0  0  0  0  0  0  0  0  0
  184.1190  179.8740  144.6650 C   0  0  0  0  0  3  0  0  0  0  0  0
  191.9240  179.8890  144.2150 O   0  0  0  0  0  1  0  0  0  0  0  0
  192.1230  178.5580  144.5860 C   0  0  0  0  0  2  0  0  0  0  0  0
  1  4  1  0  0  0  0
  2 14  1  1  0  0  0
  2 17  1  0  0  0  0
  3  7  1  0  0  0  0
  4 37  1  0  0  0  0
  4 12  1  0  0  0  0
  5 19  1  0  0  0  0
  6  9  1  0  0  0  0
  7 21  1  0  0  0  0
  7 10  1  0  0  0  0
  8 26  2  0  0  0  0
  9  3  1  0  0  0  0
  9 13  1  0  0  0  0
 10  5  1  0  0  0  0
 11 16  1  0  0  0  0
 11  6  1  0  0  0  0
 12  8  1  0  0  0  0
 13 21  1  0  0  0  0
 15 28  1  0  0  0  0
 16 20  1  0  0  0  0
 17 13  1  0  0  0  0
 18  8  1  0  0  0  0
 19 18  1  0  0  0  0
 20 15  1  0  0  0  0
 20  3  1  0  0  0  0
 21 27  1  0  0  0  0
 22  6  1  0  0  0  0
 22  2  1  0  0  0  0
 23 10  1  0  0  0  0
 23 30  1  0  0  0  0
 24  2  1  0  0  0  0
 25 19  1  0  0  0  0
 25 18  1  0  0  0  0
 27  1  1  0  0  0  0
 27 25  1  0  0  0  0
 28 23  1  0  0  0  0
 29 35  1  0  0  0  0
 30 29  2  0  0  0  0
 31 30  1  0  0  0  0
 31 34  2  0  0  0  0
 32 34  1  0  0  0  0
 33 35  2  0  0  0  0
 34 33  1  0  0  0  0
 36 37  1  0  0  0  0
M  END
>  <MODEL>
3

>  <REMARK>
 VINA RESULT:      -7.4      3.158      6.018
  Name = 
  2 active torsions:
  status: ('A' for Active; 'I' for Inactive)
    1  A    between atoms: CA_4  and  C_37
    2  A    between atoms: C_23  and  C_30
                            x       y       z     vdW  Elec       q    Type
                         _______ _______ _______ _____ _____    ______ ____

>  <TORSDO>
F 2

$$$$
=
 OpenBabel11122411323D

 37 44  0  0  1  0  0  0  0  0999 V2000
  184.3570  177.3550  139.7930 C   0  0  0  0  0  2  0  0  0  0  0  0
  186.8950  178.1920  135.3410 C   0  0  1  0  0  0  0  0  0  0  0  0
  188.5310  176.7980  139.0100 C   0  0  1  0  0  3  0  0  0  0  0  0
  182.9160  177.8460  140.0150 C   0  0  2  0  0  3  0  0  0  0  0  0
  187.3800  179.1230  141.7800 C   0  0  0  0  0  2  0  0  0  0  0  0
  188.7380  177.4230  136.5270 C   0  0  1  0  0  3  0  0  0  0  0  0
  187.6100  177.4840  139.9550 N   0  0  1  0  0  0  0  0  0  0  0  0
  183.3190  178.8050  142.3540 C   0  0  0  0  0  0  0  0  0  0  0  0
  187.8570  176.8510  137.6370 C   0  0  2  0  0  3  0  0  0  0  0  0
  188.2970  178.2840  140.9430 N   0  0  2  0  0  0  0  0  0  0  0  0
  190.0130  176.6250  136.4720 C   0  0  0  0  0  2  0  0  0  0  0  0
  182.5740  177.9960  141.4350 N   0  0  0  0  0  2  0  0  0  0  0  0
  186.6020  177.5950  137.7710 N   0  0  2  0  0  0  0  0  0  0  0  0
  185.7380  177.4670  134.6840 C   0  0  0  0  0  1  0  0  0  0  0  0
  190.7740  176.6550  140.1720 C   0  0  0  0  0  2  0  0  0  0  0  0
  190.8210  176.8470  137.7490 C   0  0  0  0  0  2  0  0  0  0  0  0
  186.4400  178.6460  136.7520 C   0  0  0  0  0  2  0  0  0  0  0  0
  184.6620  179.1180  142.0340 N   0  0  0  0  0  0  0  0  0  0  0  0
  186.0170  178.4920  141.8120 C   0  0  1  0  0  3  0  0  0  0  0  0
  190.0220  177.2660  139.0020 C   0  0  1  0  0  3  0  0  0  0  0  0
  186.7190  178.2680  139.0550 C   0  0  1  0  0  3  0  0  0  0  0  0
  188.0320  177.3350  135.3150 O   0  0  0  0  0  0  0  0  0  0  0  0
  189.0710  177.3550  141.8110 C   0  0  1  0  0  3  0  0  0  0  0  0
  187.1730  179.3200  134.5940 F   0  0  0  0  0  0  0  0  0  0  0  0
  185.5330  179.3770  140.8830 C   0  0  1  0  0  3  0  0  0  0  0  0
  182.7830  179.0000  143.8810 S   0  0  0  0  0  0  0  0  0  0  0  0
  185.3090  178.5590  139.6350 C   0  0  2  0  0  3  0  0  0  0  0  0
  190.5380  177.4230  141.4500 C   0  0  0  0  0  2  0  0  0  0  0  0
  189.9350  177.9540  144.0910 C   0  0  0  0  0  3  0  0  0  0  0  0
  188.8830  177.4640  143.3080 C   0  0  0  0  0  0  0  0  0  0  0  0
  187.6890  177.0580  143.9290 C   0  0  0  0  0  3  0  0  0  0  0  0
  186.4010  176.7580  145.9110 F   0  0  0  0  0  0  0  0  0  0  0  0
  188.6070  177.6420  146.0910 C   0  0  0  0  0  3  0  0  0  0  0  0
  187.5530  177.1500  145.3160 C   0  0  0  0  0  0  0  0  0  0  0  0
  189.7980  178.0430  145.4790 C   0  0  0  0  0  3  0  0  0  0  0  0
  182.5700  175.6640  139.1090 O   0  0  0  0  0  1  0  0  0  0  0  0
  181.9380  176.8800  139.3710 C   0  0  0  0  0  2  0  0  0  0  0  0
  1  4  1  0  0  0  0
  2 14  1  6  0  0  0
  2 17  1  0  0  0  0
  3  7  1  0  0  0  0
  4 12  1  0  0  0  0
  5 19  1  0  0  0  0
  6  9  1  0  0  0  0
  7 10  1  0  0  0  0
  8 26  2  0  0  0  0
  9 13  1  0  0  0  0
  9  3  1  0  0  0  0
 10  5  1  0  0  0  0
 10 23  1  0  0  0  0
 11  6  1  0  0  0  0
 11 16  1  0  0  0  0
 12  8  1  0  0  0  0
 13 21  1  0  0  0  0
 15 28  1  0  0  0  0
 16 20  1  0  0  0  0
 17 13  1  0  0  0  0
 18  8  1  0  0  0  0
 19 18  1  0  0  0  0
 20  3  1  0  0  0  0
 20 15  1  0  0  0  0
 21 27  1  0  0  0  0
 21  7  1  0  0  0  0
 22  2  1  0  0  0  0
 22  6  1  0  0  0  0
 23 30  1  0  0  0  0
 24  2  1  0  0  0  0
 25 19  1  0  0  0  0
 25 18  1  0  0  0  0
 27  1  1  0  0  0  0
 27 25  1  0  0  0  0
 28 23  1  0  0  0  0
 29 35  1  0  0  0  0
 30 31  1  0  0  0  0
 30 29  2  0  0  0  0
 31 34  2  0  0  0  0
 34 32  1  0  0  0  0
 34 33  1  0  0  0  0
 35 33  2  0  0  0  0
 36 37  1  0  0  0  0
 37  4  1  0  0  0  0
M  END
>  <MODEL>
4

>  <REMARK>
 VINA RESULT:      -7.4      3.136      7.460
  Name = 
  2 active torsions:
  status: ('A' for Active; 'I' for Inactive)
    1  A    between atoms: CA_4  and  C_37
    2  A    between atoms: C_23  and  C_30
                            x       y       z     vdW  Elec       q    Type
                         _______ _______ _______ _____ _____    ______ ____

>  <TORSDO>
F 2

$$$$
=
 OpenBabel11122411323D

 37 44  0  0  1  0  0  0  0  0999 V2000
  188.1710  178.8650  139.8170 C   0  0  0  0  0  2  0  0  0  0  0  0
  183.0030  178.3870  139.9690 C   0  0  1  0  0  0  0  0  0  0  0  0
  185.6230  179.0170  143.2570 C   0  0  1  0  0  3  0  0  0  0  0  0
  188.9840  178.5260  138.5560 C   0  0  2  0  0  3  0  0  0  0  0  0
  188.4270  176.4690  143.0430 C   0  0  0  0  0  2  0  0  0  0  0  0
  183.2770  178.7430  142.2470 C   0  0  1  0  0  3  0  0  0  0  0  0
  186.8270  178.3180  142.7360 N   0  0  1  0  0  0  0  0  0  0  0  0
  190.8040  177.1930  139.7650 C   0  0  0  0  0  0  0  0  0  0  0  0
  184.7050  179.2480  142.0540 C   0  0  2  0  0  3  0  0  0  0  0  0
  187.3330  177.3030  143.6340 N   0  0  2  0  0  0  0  0  0  0  0  0
  182.7100  179.3780  143.4880 C   0  0  0  0  0  2  0  0  0  0  0  0
  190.3880  178.2120  138.8480 N   0  0  0  0  0  2  0  0  0  0  0  0
  185.3380  178.6520  140.8750 N   0  0  2  0  0  0  0  0  0  0  0  0
  182.9990  179.3350  138.7880 C   0  0  0  0  0  1  0  0  0  0  0  0
  185.6470  178.7140  145.7690 C   0  0  0  0  0  2  0  0  0  0  0  0
  183.4600  178.8740  144.7200 C   0  0  0  0  0  2  0  0  0  0  0  0
  184.4270  177.7890  140.1040 C   0  0  0  0  0  2  0  0  0  0  0  0
  189.8870  176.7690  140.7560 N   0  0  0  0  0  0  0  0  0  0  0  0
  189.1230  177.2500  141.9650 C   0  0  1  0  0  3  0  0  0  0  0  0
  184.9030  178.3770  144.4880 C   0  0  1  0  0  3  0  0  0  0  0  0
  186.3740  177.7880  141.4200 C   0  0  1  0  0  3  0  0  0  0  0  0
  182.5280  179.0930  141.1110 O   0  0  0  0  0  0  0  0  0  0  0  0
  187.8230  177.9940  144.8580 C   0  0  1  0  0  3  0  0  0  0  0  0
  182.1270  177.3540  139.6910 F   0  0  0  0  0  0  0  0  0  0  0  0
  188.4510  176.5770  140.9780 C   0  0  1  0  0  3  0  0  0  0  0  0
  192.3890  176.8430  139.9240 S   0  0  0  0  0  0  0  0  0  0  0  0
  187.5060  177.5900  140.3770 C   0  0  2  0  0  3  0  0  0  0  0  0
  186.8310  177.8010  145.9840 C   0  0  0  0  0  2  0  0  0  0  0  0
  190.3090  178.2780  144.6570 C   0  0  0  0  0  3  0  0  0  0  0  0
  189.2290  177.6910  145.3270 C   0  0  0  0  0  0  0  0  0  0  0  0
  189.4720  176.8130  146.3960 C   0  0  0  0  0  3  0  0  0  0  0  0
  191.0120  175.6870  147.8240 F   0  0  0  0  0  0  0  0  0  0  0  0
  191.8560  177.1250  146.1200 C   0  0  0  0  0  3  0  0  0  0  0  0
  190.7820  176.5340  146.7920 C   0  0  0  0  0  0  0  0  0  0  0  0
  191.6200  177.9960  145.0530 C   0  0  0  0  0  3  0  0  0  0  0  0
  187.7410  179.6430  136.8500 O   0  0  0  0  0  1  0  0  0  0  0  0
  188.9300  179.6880  137.5800 C   0  0  0  0  0  2  0  0  0  0  0  0
  1 27  1  0  0  0  0
  2 14  1  6  0  0  0
  2 17  1  0  0  0  0
  2 22  1  0  0  0  0
  3 20  1  0  0  0  0
  4 12  1  0  0  0  0
  4  1  1  0  0  0  0
  5 10  1  0  0  0  0
  6 11  1  0  0  0  0
  7  3  1  0  0  0  0
  7 10  1  0  0  0  0
  8 26  2  0  0  0  0
  8 18  1  0  0  0  0
  9  6  1  0  0  0  0
  9  3  1  0  0  0  0
 10 23  1  0  0  0  0
 11 16  1  0  0  0  0
 12  8  1  0  0  0  0
 13 21  1  0  0  0  0
 13  9  1  0  0  0  0
 15 28  1  0  0  0  0
 17 13  1  0  0  0  0
 18 25  1  0  0  0  0
 18 19  1  0  0  0  0
 19  5  1  0  0  0  0
 20 16  1  0  0  0  0
 20 15  1  0  0  0  0
 21  7  1  0  0  0  0
 22  6  1  0  0  0  0
 23 30  1  0  0  0  0
 23 28  1  0  0  0  0
 24  2  1  0  0  0  0
 25 19  1  0  0  0  0
 27 25  1  0  0  0  0
 27 21  1  0  0  0  0
 29 35  2  0  0  0  0
 29 30  1  0  0  0  0
 30 31  2  0  0  0  0
 31 34  1  0  0  0  0
 33 34  2  0  0  0  0
 34 32  1  0  0  0  0
 35 33  1  0  0  0  0
 36 37  1  0  0  0  0
 37  4  1  0  0  0  0
M  END
>  <MODEL>
5

>  <REMARK>
 VINA RESULT:      -7.3      2.724      6.797
  Name = 
  2 active torsions:
  status: ('A' for Active; 'I' for Inactive)
    1  A    between atoms: CA_4  and  C_37
    2  A    between atoms: C_23  and  C_30
                            x       y       z     vdW  Elec       q    Type
                         _______ _______ _______ _____ _____    ______ ____

>  <TORSDO>
F 2

$$$$
=
 OpenBabel11122411323D

 37 44  0  0  1  0  0  0  0  0999 V2000
  184.5130  177.1190  138.6710 C   0  0  0  0  0  2  0  0  0  0  0  0
  189.0060  177.8550  136.1740 C   0  0  1  0  0  0  0  0  0  0  0  0
  188.4700  177.0160  140.3070 C   0  0  1  0  0  3  0  0  0  0  0  0
  183.1570  177.4450  138.0220 C   0  0  2  0  0  3  0  0  0  0  0  0
  185.8770  179.4230  141.6780 C   0  0  0  0  0  2  0  0  0  0  0  0
  189.9530  177.4330  138.2510 C   0  0  1  0  0  3  0  0  0  0  0  0
  187.1480  177.6660  140.5100 N   0  0  1  0  0  0  0  0  0  0  0  0
  182.1760  178.6560  140.0530 C   0  0  0  0  0  0  0  0  0  0  0  0
  188.6460  176.8600  138.7950 C   0  0  2  0  0  3  0  0  0  0  0  0
  187.1450  178.6320  141.5860 N   0  0  2  0  0  0  0  0  0  0  0  0
  191.0970  176.7980  138.9950 C   0  0  0  0  0  2  0  0  0  0  0  0
  182.0930  177.6810  139.0070 N   0  0  0  0  0  2  0  0  0  0  0  0
  187.4780  177.4510  138.1350 N   0  0  2  0  0  0  0  0  0  0  0  0
  188.4310  176.9350  135.1160 C   0  0  0  0  0  1  0  0  0  0  0  0
  189.7320  177.2600  142.4870 C   0  0  0  0  0  2  0  0  0  0  0  0
  191.0720  177.2350  140.4600 C   0  0  0  0  0  2  0  0  0  0  0  0
  187.8350  178.3760  137.0470 C   0  0  0  0  0  2  0  0  0  0  0  0
  183.4580  179.1030  140.4530 N   0  0  0  0  0  0  0  0  0  0  0  0
  184.7510  178.6340  141.0740 C   0  0  1  0  0  3  0  0  0  0  0  0
  189.7000  177.6640  141.0230 C   0  0  1  0  0  3  0  0  0  0  0  0
  186.8430  178.2480  139.1740 C   0  0  1  0  0  3  0  0  0  0  0  0
  190.0220  177.1470  136.8770 O   0  0  0  0  0  0  0  0  0  0  0  0
  187.3760  177.8900  142.8550 C   0  0  1  0  0  3  0  0  0  0  0  0
  189.5810  178.9360  135.5340 F   0  0  0  0  0  0  0  0  0  0  0  0
  184.7970  179.3620  139.9140 C   0  0  1  0  0  3  0  0  0  0  0  0
  180.8890  178.9210  141.0180 S   0  0  0  0  0  0  0  0  0  0  0  0
  185.3310  178.4130  138.8690 C   0  0  2  0  0  3  0  0  0  0  0  0
  188.7990  178.1060  143.3210 C   0  0  0  0  0  2  0  0  0  0  0  0
  186.8860  178.1400  145.3040 C   0  0  0  0  0  3  0  0  0  0  0  0
  186.4020  178.1110  143.9910 C   0  0  0  0  0  0  0  0  0  0  0  0
  185.0250  178.2570  143.7580 C   0  0  0  0  0  3  0  0  0  0  0  0
  182.8190  178.5790  144.6000 F   0  0  0  0  0  0  0  0  0  0  0  0
  184.6370  178.4680  146.1370 C   0  0  0  0  0  3  0  0  0  0  0  0
  184.1460  178.4380  144.8290 C   0  0  0  0  0  0  0  0  0  0  0  0
  186.0060  178.3190  146.3750 C   0  0  0  0  0  3  0  0  0  0  0  0
  182.5410  175.1450  137.8460 O   0  0  0  0  0  1  0  0  0  0  0  0
  182.7380  176.3110  137.1050 C   0  0  0  0  0  2  0  0  0  0  0  0
  1 27  1  0  0  0  0
  2 14  1  6  0  0  0
  2 22  1  0  0  0  0
  2 17  1  0  0  0  0
  3  7  1  0  0  0  0
  3 20  1  0  0  0  0
  4  1  1  0  0  0  0
  4 12  1  0  0  0  0
  6  9  1  0  0  0  0
  6 11  1  0  0  0  0
  7 10  1  0  0  0  0
  8 18  1  0  0  0  0
  8 26  2  0  0  0  0
  9  3  1  0  0  0  0
 10  5  1  0  0  0  0
 10 23  1  0  0  0  0
 11 16  1  0  0  0  0
 12  8  1  0  0  0  0
 13  9  1  0  0  0  0
 13 21  1  0  0  0  0
 15 28  1  0  0  0  0
 16 20  1  0  0  0  0
 17 13  1  0  0  0  0
 18 19  1  0  0  0  0
 19  5  1  0  0  0  0
 20 15  1  0  0  0  0
 21  7  1  0  0  0  0
 22  6  1  0  0  0  0
 23 28  1  0  0  0  0
 23 30  1  0  0  0  0
 24  2  1  0  0  0  0
 25 18  1  0  0  0  0
 25 19  1  0  0  0  0
 27 21  1  0  0  0  0
 27 25  1  0  0  0  0
 29 35  1  0  0  0  0
 30 29  2  0  0  0  0
 31 30  1  0  0  0  0
 31 34  2  0  0  0  0
 32 34  1  0  0  0  0
 33 35  2  0  0  0  0
 34 33  1  0  0  0  0
 37 36  1  0  0  0  0
 37  4  1  0  0  0  0
M  END
>  <MODEL>
6

>  <REMARK>
 VINA RESULT:      -6.9      3.045      6.264
  Name = 
  2 active torsions:
  status: ('A' for Active; 'I' for Inactive)
    1  A    between atoms: CA_4  and  C_37
    2  A    between atoms: C_23  and  C_30
                            x       y       z     vdW  Elec       q    Type
                         _______ _______ _______ _____ _____    ______ ____

>  <TORSDO>
F 2

$$$$
=
 OpenBabel11122411323D

 37 44  0  0  1  0  0  0  0  0999 V2000
  185.1640  177.4770  140.3040 C   0  0  0  0  0  2  0  0  0  0  0  0
  188.9090  178.2540  136.7920 C   0  0  1  0  0  0  0  0  0  0  0  0
  189.3670  176.7840  140.7550 C   0  0  1  0  0  3  0  0  0  0  0  0
  183.7370  178.0150  140.1060 C   0  0  2  0  0  3  0  0  0  0  0  0
  187.5350  179.1310  143.1080 C   0  0  0  0  0  2  0  0  0  0  0  0
  190.3040  177.4160  138.4480 C   0  0  1  0  0  3  0  0  0  0  0  0
  188.2340  177.4950  141.4030 N   0  0  1  0  0  0  0  0  0  0  0  0
  183.4740  178.9460  142.4760 C   0  0  0  0  0  0  0  0  0  0  0  0
  189.1230  176.8680  139.2470 C   0  0  2  0  0  3  0  0  0  0  0  0
  188.6280  178.2670  142.5610 N   0  0  2  0  0  0  0  0  0  0  0  0
  191.5160  176.5770  138.7530 C   0  0  0  0  0  2  0  0  0  0  0  0
  183.0030  178.1680  141.3690 N   0  0  0  0  0  2  0  0  0  0  0  0
  187.9060  177.6530  139.0230 N   0  0  2  0  0  0  0  0  0  0  0  0
  187.9710  177.5720  135.8160 C   0  0  0  0  0  1  0  0  0  0  0  0
  191.1720  176.5590  142.5150 C   0  0  0  0  0  2  0  0  0  0  0  0
  191.9260  176.7640  140.2130 C   0  0  0  0  0  2  0  0  0  0  0  0
  188.0790  178.7150  138.0170 C   0  0  0  0  0  2  0  0  0  0  0  0
  184.8610  179.2150  142.5640 N   0  0  0  0  0  0  0  0  0  0  0  0
  186.2020  178.5460  142.7350 C   0  0  1  0  0  3  0  0  0  0  0  0
  190.8110  177.2020  141.1860 C   0  0  1  0  0  3  0  0  0  0  0  0
  187.6660  178.3150  140.2960 C   0  0  1  0  0  3  0  0  0  0  0  0
  189.9780  177.3590  137.0830 O   0  0  0  0  0  0  0  0  0  0  0  0
  189.0880  177.3070  143.6010 C   0  0  1  0  0  3  0  0  0  0  0  0
  189.4270  179.3770  136.1750 F   0  0  0  0  0  0  0  0  0  0  0  0
  186.0350  179.4520  141.7190 C   0  0  1  0  0  3  0  0  0  0  0  0
  182.5240  179.1500  143.7860 S   0  0  0  0  0  0  0  0  0  0  0  0
  186.1580  178.6500  140.4470 C   0  0  2  0  0  3  0  0  0  0  0  0
  190.5990  177.3270  143.6820 C   0  0  0  0  0  2  0  0  0  0  0  0
  187.1050  177.1870  145.1350 C   0  0  0  0  0  3  0  0  0  0  0  0
  188.4780  177.4130  144.9810 C   0  0  0  0  0  0  0  0  0  0  0  0
  189.2520  177.7610  146.1000 C   0  0  0  0  0  3  0  0  0  0  0  0
  189.4060  178.2090  148.4360 F   0  0  0  0  0  0  0  0  0  0  0  0
  187.2850  177.6450  147.5060 C   0  0  0  0  0  3  0  0  0  0  0  0
  188.6560  177.8740  147.3590 C   0  0  0  0  0  0  0  0  0  0  0  0
  186.5100  177.3030  146.3950 C   0  0  0  0  0  3  0  0  0  0  0  0
  181.6770  176.8780  139.7020 O   0  0  0  0  0  1  0  0  0  0  0  0
  182.9590  177.0870  139.1920 C   0  0  0  0  0  2  0  0  0  0  0  0
  1 27  1  0  0  0  0
  2 14  1  6  0  0  0
  2 22  1  0  0  0  0
  2 17  1  0  0  0  0
  3 20  1  0  0  0  0
  3  7  1  0  0  0  0
  4  1  1  0  0  0  0
  4 12  1  0  0  0  0
  6 11  1  0  0  0  0
  6  9  1  0  0  0  0
  7 10  1  0  0  0  0
  8 18  1  0  0  0  0
  8 26  2  0  0  0  0
  9  3  1  0  0  0  0
 10  5  1  0  0  0  0
 10 23  1  0  0  0  0
 11 16  1  0  0  0  0
 12  8  1  0  0  0  0
 13  9  1  0  0  0  0
 13 21  1  0  0  0  0
 15 28  1  0  0  0  0
 16 20  1  0  0  0  0
 17 13  1  0  0  0  0
 18 19  1  0  0  0  0
 19  5  1  0  0  0  0
 20 15  1  0  0  0  0
 21 27  1  0  0  0  0
 21  7  1  0  0  0  0
 22  6  1  0  0  0  0
 23 28  1  0  0  0  0
 23 30  1  0  0  0  0
 24  2  1  0  0  0  0
 25 18  1  0  0  0  0
 25 19  1  0  0  0  0
 27 25  1  0  0  0  0
 29 35  1  0  0  0  0
 30 29  2  0  0  0  0
 30 31  1  0  0  0  0
 31 34  2  0  0  0  0
 34 33  1  0  0  0  0
 34 32  1  0  0  0  0
 35 33  2  0  0  0  0
 37 36  1  0  0  0  0
 37  4  1  0  0  0  0
M  END
>  <MODEL>
7

>  <REMARK>
 VINA RESULT:      -6.4      3.099      7.177
  Name = 
  2 active torsions:
  status: ('A' for Active; 'I' for Inactive)
    1  A    between atoms: CA_4  and  C_37
    2  A    between atoms: C_23  and  C_30
                            x       y       z     vdW  Elec       q    Type
                         _______ _______ _______ _____ _____    ______ ____

>  <TORSDO>
F 2

$$$$
=
 OpenBabel11122411323D

 37 44  0  0  1  0  0  0  0  0999 V2000
  190.4260  177.8110  141.3640 C   0  0  0  0  0  2  0  0  0  0  0  0
  187.4900  177.2130  137.1230 C   0  0  1  0  0  0  0  0  0  0  0  0
  186.3180  178.9060  140.8430 C   0  0  1  0  0  3  0  0  0  0  0  0
  191.8010  177.1370  141.5050 C   0  0  2  0  0  3  0  0  0  0  0  0
  187.3430  176.5170  143.6080 C   0  0  0  0  0  2  0  0  0  0  0  0
  185.8550  178.2520  138.4020 C   0  0  1  0  0  3  0  0  0  0  0  0
  187.2040  178.1260  141.7470 N   0  0  1  0  0  0  0  0  0  0  0  0
  191.4420  176.3000  143.8970 C   0  0  0  0  0  0  0  0  0  0  0  0
  186.8790  178.7280  139.4300 C   0  0  2  0  0  3  0  0  0  0  0  0
  186.4890  177.4510  142.8060 N   0  0  2  0  0  0  0  0  0  0  0  0
  184.6950  179.2130  138.4050 C   0  0  0  0  0  2  0  0  0  0  0  0
  192.2200  176.9780  142.9040 N   0  0  0  0  0  2  0  0  0  0  0  0
  188.0310  177.8250  139.5060 N   0  0  2  0  0  0  0  0  0  0  0  0
  188.6830  177.7580  136.3650 C   0  0  0  0  0  1  0  0  0  0  0  0
  184.2010  179.3790  142.1470 C   0  0  0  0  0  2  0  0  0  0  0  0
  183.9580  179.1340  139.7410 C   0  0  0  0  0  2  0  0  0  0  0  0
  187.9800  176.7370  138.5160 C   0  0  0  0  0  2  0  0  0  0  0  0
  190.0490  176.1630  143.6800 N   0  0  0  0  0  0  0  0  0  0  0  0
  188.7770  176.9590  143.5270 C   0  0  1  0  0  3  0  0  0  0  0  0
  184.7810  178.6430  140.9510 C   0  0  1  0  0  3  0  0  0  0  0  0
  187.9180  177.2060  140.8180 C   0  0  1  0  0  3  0  0  0  0  0  0
  186.4780  178.2140  137.1440 O   0  0  0  0  0  0  0  0  0  0  0  0
  185.9090  178.4970  143.6920 C   0  0  1  0  0  3  0  0  0  0  0  0
  187.0120  176.1130  136.4350 F   0  0  0  0  0  0  0  0  0  0  0  0
  189.0730  175.9950  142.5990 C   0  0  1  0  0  3  0  0  0  0  0  0
  192.0540  176.0730  145.3920 S   0  0  0  0  0  0  0  0  0  0  0  0
  189.3140  176.7430  141.3110 C   0  0  2  0  0  3  0  0  0  0  0  0
  184.4230  178.6180  143.4320 C   0  0  0  0  0  2  0  0  0  0  0  0
  185.1170  178.4950  146.0740 C   0  0  0  0  0  3  0  0  0  0  0  0
  186.1870  178.4020  145.1760 C   0  0  0  0  0  0  0  0  0  0  0  0
  187.4930  178.2500  145.6690 C   0  0  0  0  0  3  0  0  0  0  0  0
  188.9830  178.0410  147.5170 F   0  0  0  0  0  0  0  0  0  0  0  0
  186.6480  178.2800  147.9370 C   0  0  0  0  0  3  0  0  0  0  0  0
  187.7220  178.1870  147.0460 C   0  0  0  0  0  0  0  0  0  0  0  0
  185.3470  178.4350  147.4510 C   0  0  0  0  0  3  0  0  0  0  0  0
  193.5360  177.1280  139.8640 O   0  0  0  0  0  1  0  0  0  0  0  0
  192.8510  177.9450  140.7640 C   0  0  0  0  0  2  0  0  0  0  0  0
  1  4  1  0  0  0  0
  2 14  1  6  0  0  0
  2 22  1  0  0  0  0
  2 17  1  0  0  0  0
  3 20  1  0  0  0  0
  3  7  1  0  0  0  0
  4 12  1  0  0  0  0
  6 11  1  0  0  0  0
  6  9  1  0  0  0  0
  7 10  1  0  0  0  0
  8 26  2  0  0  0  0
  9 13  1  0  0  0  0
  9  3  1  0  0  0  0
 10  5  1  0  0  0  0
 10 23  1  0  0  0  0
 11 16  1  0  0  0  0
 12  8  1  0  0  0  0
 13 21  1  0  0  0  0
 15 28  1  0  0  0  0
 16 20  1  0  0  0  0
 17 13  1  0  0  0  0
 18  8  1  0  0  0  0
 19  5  1  0  0  0  0
 19 18  1  0  0  0  0
 20 15  1  0  0  0  0
 21 27  1  0  0  0  0
 21  7  1  0  0  0  0
 22  6  1  0  0  0  0
 23 30  1  0  0  0  0
 24  2  1  0  0  0  0
 25 19  1  0  0  0  0
 25 18  1  0  0  0  0
 27  1  1  0  0  0  0
 27 25  1  0  0  0  0
 28 23  1  0  0  0  0
 29 35  1  0  0  0  0
 30 31  1  0  0  0  0
 30 29  2  0  0  0  0
 31 34  2  0  0  0  0
 34 32  1  0  0  0  0
 34 33  1  0  0  0  0
 35 33  2  0  0  0  0
 36 37  1  0  0  0  0
 37  4  1  0  0  0  0
M  END
>  <MODEL>
8

>  <REMARK>
 VINA RESULT:      -6.3      3.083      6.555
  Name = 
  2 active torsions:
  status: ('A' for Active; 'I' for Inactive)
    1  A    between atoms: CA_4  and  C_37
    2  A    between atoms: C_23  and  C_30
                            x       y       z     vdW  Elec       q    Type
                         _______ _______ _______ _____ _____    ______ ____

>  <TORSDO>
F 2

$$$$
=
 OpenBabel11122411323D

 37 44  0  0  1  0  0  0  0  0999 V2000
  182.2200  175.6130  138.7730 C   0  0  0  0  0  2  0  0  0  0  0  0
  181.0890  171.4910  135.8250 C   0  0  1  0  0  0  0  0  0  0  0  0
  184.9540  172.9210  136.8690 C   0  0  1  0  0  3  0  0  0  0  0  0
  181.1520  176.6460  139.1740 C   0  0  2  0  0  3  0  0  0  0  0  0
  185.0800  176.6420  136.1320 C   0  0  0  0  0  2  0  0  0  0  0  0
  183.3940  171.2260  135.7320 C   0  0  1  0  0  3  0  0  0  0  0  0
  184.6460  174.3710  136.9850 N   0  0  1  0  0  0  0  0  0  0  0  0
  182.5740  178.7100  138.6540 C   0  0  0  0  0  0  0  0  0  0  0  0
  183.6090  172.1910  136.8960 C   0  0  2  0  0  3  0  0  0  0  0  0
  185.4990  175.2040  136.1670 N   0  0  2  0  0  0  0  0  0  0  0  0
  184.5380  170.2490  135.7050 C   0  0  0  0  0  2  0  0  0  0  0  0
  181.7240  177.9520  139.5230 N   0  0  0  0  0  2  0  0  0  0  0  0
  182.5450  173.1950  136.9730 N   0  0  2  0  0  0  0  0  0  0  0  0
  180.0720  171.1530  136.8960 C   0  0  0  0  0  1  0  0  0  0  0  0
  187.3410  172.7590  136.0440 C   0  0  0  0  0  2  0  0  0  0  0  0
  185.8370  170.9760  135.3600 C   0  0  0  0  0  2  0  0  0  0  0  0
  181.4770  172.9840  135.9820 C   0  0  0  0  0  2  0  0  0  0  0  0
  183.2590  178.0250  137.6220 N   0  0  0  0  0  0  0  0  0  0  0  0
  184.3050  176.9660  137.3770 C   0  0  1  0  0  3  0  0  0  0  0  0
  185.8880  172.4820  135.6950 C   0  0  1  0  0  3  0  0  0  0  0  0
  183.2030  174.4450  136.6220 C   0  0  1  0  0  3  0  0  0  0  0  0
  182.1690  170.5670  135.9260 O   0  0  0  0  0  0  0  0  0  0  0  0
  186.8830  175.0900  136.7040 C   0  0  1  0  0  3  0  0  0  0  0  0
  180.4830  171.3300  134.5940 F   0  0  0  0  0  0  0  0  0  0  0  0
  183.1090  176.8860  136.7120 C   0  0  1  0  0  3  0  0  0  0  0  0
  183.0550  180.2060  139.0920 S   0  0  0  0  0  0  0  0  0  0  0  0
  182.4390  175.6430  137.2460 C   0  0  2  0  0  3  0  0  0  0  0  0
  187.7090  174.2030  135.8000 C   0  0  0  0  0  2  0  0  0  0  0  0
  188.2330  177.0790  135.9810 C   0  0  0  0  0  3  0  0  0  0  0  0
  187.6250  176.3690  137.0230 C   0  0  0  0  0  0  0  0  0  0  0  0
  187.7410  176.8400  138.3410 C   0  0  0  0  0  3  0  0  0  0  0  0
  188.5620  178.4640  139.8800 F   0  0  0  0  0  0  0  0  0  0  0  0
  189.0550  178.7180  137.5620 C   0  0  0  0  0  3  0  0  0  0  0  0
  188.4530  178.0130  138.6080 C   0  0  0  0  0  0  0  0  0  0  0  0
  188.9460  178.2510  136.2490 C   0  0  0  0  0  3  0  0  0  0  0  0
  180.0240  174.7830  140.1540 O   0  0  0  0  0  1  0  0  0  0  0  0
  180.3490  176.1260  140.3520 C   0  0  0  0  0  2  0  0  0  0  0  0
  1  4  1  0  0  0  0
  2 22  1  0  0  0  0
  2 17  1  0  0  0  0
  2 14  1  1  0  0  0
  3  9  1  0  0  0  0
  3  7  1  0  0  0  0
  4 12  1  0  0  0  0
  4 37  1  0  0  0  0
  5 10  1  0  0  0  0
  5 19  1  0  0  0  0
  6 22  1  0  0  0  0
  6  9  1  0  0  0  0
  8 26  2  0  0  0  0
  8 12  1  0  0  0  0
  9 13  1  0  0  0  0
 10 23  1  0  0  0  0
 10  7  1  0  0  0  0
 11  6  1  0  0  0  0
 16 20  1  0  0  0  0
 16 11  1  0  0  0  0
 17 13  1  0  0  0  0
 18  8  1  0  0  0  0
 19 18  1  0  0  0  0
 20 15  1  0  0  0  0
 20  3  1  0  0  0  0
 21 13  1  0  0  0  0
 21  7  1  0  0  0  0
 21 27  1  0  0  0  0
 23 30  1  0  0  0  0
 24  2  1  0  0  0  0
 25 27  1  0  0  0  0
 25 19  1  0  0  0  0
 25 18  1  0  0  0  0
 27  1  1  0  0  0  0
 28 15  1  0  0  0  0
 28 23  1  0  0  0  0
 29 35  2  0  0  0  0
 29 30  1  0  0  0  0
 30 31  2  0  0  0  0
 31 34  1  0  0  0  0
 33 34  2  0  0  0  0
 34 32  1  0  0  0  0
 35 33  1  0  0  0  0
 36 37  1  0  0  0  0
M  END
>  <MODEL>
9

>  <REMARK>
 VINA RESULT:      -6.2      4.942      9.185
  Name = 
  2 active torsions:
  status: ('A' for Active; 'I' for Inactive)
    1  A    between atoms: CA_4  and  C_37
    2  A    between atoms: C_23  and  C_30
                            x       y       z     vdW  Elec       q    Type
                         _______ _______ _______ _____ _____    ______ ____

>  <TORSDO>
F 2

$$$$
