=
 OpenBabel11122411063D

 31 35  0  0  1  0  0  0  0  0999 V2000
  184.4610  178.7680  144.7110 C   0  0  0  0  0  0  0  0  0  0  0  0
  188.0010  177.8230  143.8440 C   0  0  0  0  0  0  0  0  0  0  0  0
  188.6710  177.5280  145.0690 C   0  0  0  0  0  0  0  0  0  0  0  0
  187.2800  178.4430  138.6530 O   0  0  0  0  0  0  0  0  0  0  0  0
  188.4710  178.0970  138.8700 C   0  0  0  0  0  0  0  0  0  0  0  0
  188.8280  177.2740  147.6140 C   0  0  0  0  0  0  0  0  0  0  0  0
  186.6350  178.2230  143.7400 C   0  0  0  0  0  0  0  0  0  0  0  0
  183.9430  179.0220  143.4420 C   0  0  0  0  0  3  0  0  0  0  0  0
  187.9830  177.6150  146.4170 C   0  0  0  0  0  2  0  0  0  0  0  0
  188.1580  177.9800  141.4060 C   0  0  0  0  0  0  0  0  0  0  0  0
  183.6530  178.9070  145.8310 O   0  0  0  0  0  1  0  0  0  0  0  0
  190.6680  177.0580  143.8370 N   0  0  0  0  0  0  0  0  0  0  0  0
  188.2680  177.3320  148.8460 F   0  0  0  0  0  0  0  0  0  0  0  0
  186.8560  178.3580  141.3480 N   0  0  0  0  0  0  0  0  0  0  0  0
  188.7500  177.7060  142.6450 C   0  0  0  0  0  0  0  0  0  0  0  0
  188.9350  177.8570  140.2060 N   0  0  0  0  0  2  0  0  0  0  0  0
  185.7920  178.3740  144.8560 C   0  0  0  0  0  3  0  0  0  0  0  0
  190.1050  176.9170  147.5020 C   0  0  0  0  0  3  0  0  0  0  0  0
  186.0910  178.4860  142.4580 C   0  0  0  0  0  0  0  0  0  0  0  0
  184.7570  178.8810  142.3180 C   0  0  0  0  0  3  0  0  0  0  0  0
  190.0540  177.3290  142.6900 N   0  0  0  0  0  0  0  0  0  0  0  0
  190.0240  177.1440  145.0240 C   0  0  0  0  0  0  0  0  0  0  0  0
  190.7340  176.8410  146.2250 N   0  0  0  0  0  2  0  0  0  0  0  0
  189.5590  175.1950  136.7820 C   0  0  1  0  0  3  0  0  0  0  0  0
  188.6780  177.3830  136.4720 C   0  0  0  0  0  2  0  0  0  0  0  0
  191.2140  177.4550  139.2250 F   0  0  0  0  0  0  0  0  0  0  0  0
  189.2200  173.7200  136.8230 C   0  0  0  0  0  1  0  0  0  0  0  0
  188.3290  175.9720  136.6510 N   0  0  0  0  0  2  0  0  0  0  0  0
  190.6320  177.0680  138.0320 C   0  0  2  0  0  3  0  0  0  0  0  0
  189.4030  177.9300  137.7070 C   0  0  2  0  0  3  0  0  0  0  0  0
  190.2880  175.5800  138.0660 C   0  0  0  0  0  2  0  0  0  0  0  0
  1 17  1  0  0  0  0
  1 11  1  0  0  0  0
  2  3  2  0  0  0  0
  3  9  1  0  0  0  0
  4  5  2  0  0  0  0
  5 16  1  0  0  0  0
  6 13  1  0  0  0  0
  7  2  1  0  0  0  0
  7 17  2  0  0  0  0
  8  1  2  0  0  0  0
  9  6  1  0  0  0  0
 10 15  1  0  0  0  0
 12 22  2  0  0  0  0
 14 10  2  0  0  0  0
 14 19  1  0  0  0  0
 15 21  2  0  0  0  0
 15  2  1  0  0  0  0
 16 10  1  0  0  0  0
 18  6  2  0  0  0  0
 19  7  1  0  0  0  0
 20 19  2  0  0  0  0
 20  8  1  0  0  0  0
 21 12  1  0  0  0  0
 22  3  1  0  0  0  0
 22 23  1  0  0  0  0
 23 18  1  0  0  0  0
 24 27  1  1  0  0  0
 24 31  1  0  0  0  0
 25 28  1  0  0  0  0
 25 30  1  0  0  0  0
 28 24  1  0  0  0  0
 29 31  1  0  0  0  0
 29 26  1  1  0  0  0
 30 29  1  0  0  0  0
 30  5  1  1  0  0  0
M  END
>  <MODEL>
1

>  <REMARK>
 VINA RESULT:     -12.0      0.000      0.000
  Name = 
  1 active torsions:
  status: ('A' for Active; 'I' for Inactive)
    1  A    between atoms: C_5  and  C_30
                            x       y       z     vdW  Elec       q    Type
                         _______ _______ _______ _____ _____    ______ ____

>  <TORSDO>
F 1

$$$$
=
 OpenBabel11122411063D

 31 35  0  0  1  0  0  0  0  0999 V2000
  185.0630  178.6150  145.4310 C   0  0  0  0  0  0  0  0  0  0  0  0
  188.1590  177.7840  143.4550 C   0  0  0  0  0  0  0  0  0  0  0  0
  189.1800  177.4470  144.3940 C   0  0  0  0  0  0  0  0  0  0  0  0
  185.8470  178.6280  138.7870 O   0  0  0  0  0  0  0  0  0  0  0  0
  187.0480  178.2960  138.6040 C   0  0  0  0  0  0  0  0  0  0  0  0
  190.1260  177.0790  146.7470 C   0  0  0  0  0  0  0  0  0  0  0  0
  186.8270  178.1600  143.8040 C   0  0  0  0  0  0  0  0  0  0  0  0
  184.1730  178.9160  144.4010 C   0  0  0  0  0  3  0  0  0  0  0  0
  188.9470  177.4570  145.8920 C   0  0  0  0  0  2  0  0  0  0  0  0
  187.5440  178.0560  141.1010 C   0  0  0  0  0  0  0  0  0  0  0  0
  184.6450  178.6860  146.7520 O   0  0  0  0  0  1  0  0  0  0  0  0
  190.6940  177.0740  142.5780 N   0  0  0  0  0  0  0  0  0  0  0  0
  189.9790  177.0680  148.0930 F   0  0  0  0  0  0  0  0  0  0  0  0
  186.2880  178.4090  141.4710 N   0  0  0  0  0  0  0  0  0  0  0  0
  188.4960  177.7380  142.0780 C   0  0  0  0  0  0  0  0  0  0  0  0
  187.9080  178.0040  139.7140 N   0  0  0  0  0  2  0  0  0  0  0  0
  186.3740  178.2420  145.1320 C   0  0  0  0  0  3  0  0  0  0  0  0
  191.3050  176.7530  146.2240 C   0  0  0  0  0  3  0  0  0  0  0  0
  185.9070  178.4710  142.7700 C   0  0  0  0  0  0  0  0  0  0  0  0
  184.5950  178.8440  143.0740 C   0  0  0  0  0  3  0  0  0  0  0  0
  189.7500  177.3860  141.6950 N   0  0  0  0  0  0  0  0  0  0  0  0
  190.4530  177.0930  143.9100 C   0  0  0  0  0  0  0  0  0  0  0  0
  191.5040  176.7490  144.8120 N   0  0  0  0  0  2  0  0  0  0  0  0
  189.5800  176.1460  136.8910 C   0  0  1  0  0  3  0  0  0  0  0  0
  187.3170  176.8180  136.5920 C   0  0  0  0  0  2  0  0  0  0  0  0
  189.3320  179.7530  137.7520 F   0  0  0  0  0  0  0  0  0  0  0  0
  190.4850  175.0380  137.3860 C   0  0  0  0  0  1  0  0  0  0  0  0
  188.1910  175.8110  137.1970 N   0  0  0  0  0  2  0  0  0  0  0  0
  189.0550  178.5770  137.0790 C   0  0  2  0  0  3  0  0  0  0  0  0
  187.5710  178.2020  137.2010 C   0  0  2  0  0  3  0  0  0  0  0  0
  189.9660  177.4550  137.5740 C   0  0  0  0  0  2  0  0  0  0  0  0
  1 11  1  0  0  0  0
  2  7  1  0  0  0  0
  2  3  2  0  0  0  0
  3  9  1  0  0  0  0
  5  4  2  0  0  0  0
  5 16  1  0  0  0  0
  6 13  1  0  0  0  0
  7 17  2  0  0  0  0
  8  1  2  0  0  0  0
  9  6  1  0  0  0  0
 10 14  2  0  0  0  0
 10 15  1  0  0  0  0
 12 22  2  0  0  0  0
 14 19  1  0  0  0  0
 15  2  1  0  0  0  0
 16 10  1  0  0  0  0
 17  1  1  0  0  0  0
 18  6  2  0  0  0  0
 19 20  2  0  0  0  0
 19  7  1  0  0  0  0
 20  8  1  0  0  0  0
 21 15  2  0  0  0  0
 21 12  1  0  0  0  0
 22  3  1  0  0  0  0
 22 23  1  0  0  0  0
 23 18  1  0  0  0  0
 24 28  1  0  0  0  0
 24 27  1  1  0  0  0
 24 31  1  0  0  0  0
 25 28  1  0  0  0  0
 25 30  1  0  0  0  0
 29 30  1  0  0  0  0
 29 31  1  0  0  0  0
 29 26  1  1  0  0  0
 30  5  1  1  0  0  0
M  END
>  <MODEL>
2

>  <REMARK>
 VINA RESULT:     -11.9      1.209      1.403
  Name = 
  1 active torsions:
  status: ('A' for Active; 'I' for Inactive)
    1  A    between atoms: C_5  and  C_30
                            x       y       z     vdW  Elec       q    Type
                         _______ _______ _______ _____ _____    ______ ____

>  <TORSDO>
F 1

$$$$
=
 OpenBabel11122411063D

 31 35  0  0  1  0  0  0  0  0999 V2000
  190.2650  176.9890  146.3370 C   0  0  0  0  0  0  0  0  0  0  0  0
  187.7320  177.7940  143.6700 C   0  0  0  0  0  0  0  0  0  0  0  0
  186.4960  178.0660  144.3300 C   0  0  0  0  0  0  0  0  0  0  0  0
  191.1700  177.1890  139.7110 O   0  0  0  0  0  0  0  0  0  0  0  0
  190.0410  177.4900  139.2410 C   0  0  0  0  0  0  0  0  0  0  0  0
  184.9770  178.3200  146.3780 C   0  0  0  0  0  0  0  0  0  0  0  0
  188.9480  177.4470  144.3310 C   0  0  0  0  0  0  0  0  0  0  0  0
  191.3960  176.7530  145.5570 C   0  0  0  0  0  3  0  0  0  0  0  0
  186.3470  178.0090  145.8370 C   0  0  0  0  0  2  0  0  0  0  0  0
  188.9270  177.6250  141.5390 C   0  0  0  0  0  0  0  0  0  0  0  0
  190.3410  176.8850  147.7180 O   0  0  0  0  0  1  0  0  0  0  0  0
  185.4720  178.4560  142.2020 N   0  0  0  0  0  0  0  0  0  0  0  0
  184.7820  178.2870  147.7180 F   0  0  0  0  0  0  0  0  0  0  0  0
  190.0630  177.2980  142.2040 N   0  0  0  0  0  0  0  0  0  0  0  0
  187.7490  177.8790  142.2540 C   0  0  0  0  0  0  0  0  0  0  0  0
  188.9210  177.7150  140.1070 N   0  0  0  0  0  2  0  0  0  0  0  0
  189.0570  177.3320  145.7290 C   0  0  0  0  0  3  0  0  0  0  0  0
  183.9550  178.6280  145.5850 C   0  0  0  0  0  3  0  0  0  0  0  0
  190.1090  177.2020  143.5540 C   0  0  0  0  0  0  0  0  0  0  0  0
  191.3170  176.8590  144.1680 C   0  0  0  0  0  3  0  0  0  0  0  0
  186.6180  178.2050  141.5770 N   0  0  0  0  0  0  0  0  0  0  0  0
  185.3730  178.3970  143.5510 C   0  0  0  0  0  0  0  0  0  0  0  0
  184.1160  178.6760  144.1690 N   0  0  0  0  0  2  0  0  0  0  0  0
  187.1180  177.5490  136.9140 C   0  0  1  0  0  3  0  0  0  0  0  0
  189.0550  178.8500  137.3760 C   0  0  0  0  0  2  0  0  0  0  0  0
  189.9420  175.2170  137.5420 F   0  0  0  0  0  0  0  0  0  0  0  0
  185.6250  177.4310  137.1420 C   0  0  0  0  0  1  0  0  0  0  0  0
  187.6430  178.6570  137.7100 N   0  0  0  0  0  2  0  0  0  0  0  0
  189.3010  176.3580  137.0960 C   0  0  2  0  0  3  0  0  0  0  0  0
  189.8830  177.6170  137.7550 C   0  0  2  0  0  3  0  0  0  0  0  0
  187.7950  176.2440  137.3220 C   0  0  0  0  0  2  0  0  0  0  0  0
  1 11  1  0  0  0  0
  2  3  2  0  0  0  0
  2  7  1  0  0  0  0
  3  9  1  0  0  0  0
  5  4  2  0  0  0  0
  5 16  1  0  0  0  0
  6 13  1  0  0  0  0
  7 17  2  0  0  0  0
  8  1  2  0  0  0  0
  9  6  1  0  0  0  0
 10 14  2  0  0  0  0
 10 15  1  0  0  0  0
 12 22  2  0  0  0  0
 14 19  1  0  0  0  0
 15  2  1  0  0  0  0
 16 10  1  0  0  0  0
 17  1  1  0  0  0  0
 18  6  2  0  0  0  0
 19 20  2  0  0  0  0
 19  7  1  0  0  0  0
 20  8  1  0  0  0  0
 21 12  1  0  0  0  0
 21 15  2  0  0  0  0
 22 23  1  0  0  0  0
 22  3  1  0  0  0  0
 23 18  1  0  0  0  0
 24 27  1  1  0  0  0
 24 31  1  0  0  0  0
 24 28  1  0  0  0  0
 25 28  1  0  0  0  0
 25 30  1  0  0  0  0
 29 31  1  0  0  0  0
 29 26  1  1  0  0  0
 29 30  1  0  0  0  0
 30  5  1  1  0  0  0
M  END
>  <MODEL>
3

>  <REMARK>
 VINA RESULT:     -11.7      2.273      4.242
  Name = 
  1 active torsions:
  status: ('A' for Active; 'I' for Inactive)
    1  A    between atoms: C_5  and  C_30
                            x       y       z     vdW  Elec       q    Type
                         _______ _______ _______ _____ _____    ______ ____

>  <TORSDO>
F 1

$$$$
=
 OpenBabel11122411063D

 31 35  0  0  1  0  0  0  0  0999 V2000
  188.3690  177.3370  146.0070 C   0  0  0  0  0  0  0  0  0  0  0  0
  187.0690  178.0670  142.5490 C   0  0  0  0  0  0  0  0  0  0  0  0
  188.1720  177.9520  141.6510 C   0  0  0  0  0  0  0  0  0  0  0  0
  182.1180  178.8780  144.1870 O   0  0  0  0  0  0  0  0  0  0  0  0
  182.1780  179.0430  142.9400 C   0  0  0  0  0  0  0  0  0  0  0  0
  190.6240  177.5170  141.0460 C   0  0  0  0  0  0  0  0  0  0  0  0
  187.1450  177.8640  143.9600 C   0  0  0  0  0  0  0  0  0  0  0  0
  187.2030  177.4830  146.7570 C   0  0  0  0  0  3  0  0  0  0  0  0
  189.5700  177.5970  142.1170 C   0  0  0  0  0  2  0  0  0  0  0  0
  184.6810  178.5350  142.8170 C   0  0  0  0  0  0  0  0  0  0  0  0
  189.5600  177.0020  146.6340 O   0  0  0  0  0  1  0  0  0  0  0  0
  186.7180  178.5000  139.8310 N   0  0  0  0  0  0  0  0  0  0  0  0
  191.8930  177.2010  141.4010 F   0  0  0  0  0  0  0  0  0  0  0  0
  184.7920  178.3340  144.1540 N   0  0  0  0  0  0  0  0  0  0  0  0
  185.8080  178.4050  141.9950 C   0  0  0  0  0  0  0  0  0  0  0  0
  183.4150  178.8790  142.2350 N   0  0  0  0  0  2  0  0  0  0  0  0
  188.3370  177.5260  144.6240 C   0  0  0  0  0  3  0  0  0  0  0  0
  190.3500  177.7430  139.7640 C   0  0  0  0  0  3  0  0  0  0  0  0
  185.9690  178.0090  144.7400 C   0  0  0  0  0  0  0  0  0  0  0  0
  186.0070  177.8190  146.1250 C   0  0  0  0  0  3  0  0  0  0  0  0
  185.6830  178.6090  140.6580 N   0  0  0  0  0  0  0  0  0  0  0  0
  187.9540  178.1800  140.2800 C   0  0  0  0  0  0  0  0  0  0  0  0
  189.0280  178.0760  139.3450 N   0  0  0  0  0  2  0  0  0  0  0  0
  179.5400  177.1050  141.1380 C   0  0  1  0  0  3  0  0  0  0  0  0
  179.6840  178.7750  142.8270 C   0  0  0  0  0  2  0  0  0  0  0  0
  182.1830  179.5180  140.1400 F   0  0  0  0  0  0  0  0  0  0  0  0
  179.3570  175.6240  140.8760 C   0  0  0  0  0  1  0  0  0  0  0  0
  179.6480  177.3320  142.5780 N   0  0  0  0  0  2  0  0  0  0  0  0
  180.9950  179.0800  140.6970 C   0  0  2  0  0  3  0  0  0  0  0  0
  180.9280  179.4100  142.1950 C   0  0  2  0  0  3  0  0  0  0  0  0
  180.8040  177.5880  140.4350 C   0  0  0  0  0  2  0  0  0  0  0  0
  1 11  1  0  0  0  0
  1  8  1  0  0  0  0
  2  7  1  0  0  0  0
  3  9  1  0  0  0  0
  3  2  2  0  0  0  0
  5  4  2  0  0  0  0
  6 13  1  0  0  0  0
  6  9  1  0  0  0  0
  7 17  1  0  0  0  0
  7 19  2  0  0  0  0
 10 14  2  0  0  0  0
 12 22  2  0  0  0  0
 12 21  1  0  0  0  0
 14 19  1  0  0  0  0
 15  2  1  0  0  0  0
 15 10  1  0  0  0  0
 16 10  1  0  0  0  0
 16  5  1  0  0  0  0
 17  1  2  0  0  0  0
 18  6  2  0  0  0  0
 19 20  1  0  0  0  0
 20  8  2  0  0  0  0
 21 15  2  0  0  0  0
 22  3  1  0  0  0  0
 23 18  1  0  0  0  0
 23 22  1  0  0  0  0
 24 27  1  1  0  0  0
 24 28  1  0  0  0  0
 28 25  1  0  0  0  0
 29 26  1  1  0  0  0
 29 30  1  0  0  0  0
 30 25  1  0  0  0  0
 30  5  1  1  0  0  0
 31 29  1  0  0  0  0
 31 24  1  0  0  0  0
M  END
>  <MODEL>
4

>  <REMARK>
 VINA RESULT:     -10.8      3.482      6.976
  Name = 
  1 active torsions:
  status: ('A' for Active; 'I' for Inactive)
    1  A    between atoms: C_5  and  C_30
                            x       y       z     vdW  Elec       q    Type
                         _______ _______ _______ _____ _____    ______ ____

>  <TORSDO>
F 1

$$$$
=
 OpenBabel11122411063D

 31 35  0  0  1  0  0  0  0  0999 V2000
  186.8520  178.0710  147.2880 C   0  0  0  0  0  0  0  0  0  0  0  0
  187.4730  177.8840  143.5790 C   0  0  0  0  0  0  0  0  0  0  0  0
  188.8660  177.6290  143.3970 C   0  0  0  0  0  0  0  0  0  0  0  0
  182.4220  178.7500  142.3210 O   0  0  0  0  0  0  0  0  0  0  0  0
  183.0980  178.6200  141.2670 C   0  0  0  0  0  0  0  0  0  0  0  0
  191.2640  177.2160  144.2000 C   0  0  0  0  0  0  0  0  0  0  0  0
  186.8310  178.0250  144.8460 C   0  0  0  0  0  0  0  0  0  0  0  0
  185.4800  178.3180  147.3080 C   0  0  0  0  0  3  0  0  0  0  0  0
  189.8270  177.4810  144.5600 C   0  0  0  0  0  2  0  0  0  0  0  0
  185.2990  178.2530  142.5160 C   0  0  0  0  0  0  0  0  0  0  0  0
  187.5550  177.9690  148.4790 O   0  0  0  0  0  1  0  0  0  0  0  0
  188.5350  177.6410  141.0270 N   0  0  0  0  0  0  0  0  0  0  0  0
  192.1700  177.0730  145.1970 F   0  0  0  0  0  0  0  0  0  0  0  0
  184.7240  178.3810  143.7390 N   0  0  0  0  0  0  0  0  0  0  0  0
  186.6730  178.0030  142.4140 C   0  0  0  0  0  0  0  0  0  0  0  0
  184.5090  178.3710  141.3240 N   0  0  0  0  0  2  0  0  0  0  0  0
  187.5170  177.9270  146.0700 C   0  0  0  0  0  3  0  0  0  0  0  0
  191.6720  177.1170  142.9380 C   0  0  0  0  0  3  0  0  0  0  0  0
  185.4360  178.2760  144.8860 C   0  0  0  0  0  0  0  0  0  0  0  0
  184.7750  178.4210  146.1090 C   0  0  0  0  0  3  0  0  0  0  0  0
  187.2360  177.8780  141.1840 N   0  0  0  0  0  0  0  0  0  0  0  0
  189.3660  177.5130  142.0870 C   0  0  0  0  0  0  0  0  0  0  0  0
  190.7520  177.2590  141.8580 N   0  0  0  0  0  2  0  0  0  0  0  0
  183.2520  176.6840  138.0740 C   0  0  1  0  0  3  0  0  0  0  0  0
  181.6100  177.4520  139.6160 C   0  0  0  0  0  2  0  0  0  0  0  0
  184.1810  180.1280  139.1170 F   0  0  0  0  0  0  0  0  0  0  0  0
  184.0770  175.4920  137.6390 C   0  0  0  0  0  1  0  0  0  0  0  0
  182.5090  176.3430  139.2850 N   0  0  0  0  0  2  0  0  0  0  0  0
  183.3520  179.0730  138.7840 C   0  0  2  0  0  3  0  0  0  0  0  0
  182.4030  178.7230  139.9410 C   0  0  2  0  0  3  0  0  0  0  0  0
  184.1780  177.8660  138.3440 C   0  0  0  0  0  2  0  0  0  0  0  0
  1  8  1  0  0  0  0
  1 11  1  0  0  0  0
  2  7  1  0  0  0  0
  3  2  2  0  0  0  0
  3  9  1  0  0  0  0
  5 16  1  0  0  0  0
  5  4  2  0  0  0  0
  6  9  1  0  0  0  0
  6 13  1  0  0  0  0
  7 19  2  0  0  0  0
  7 17  1  0  0  0  0
 10 14  2  0  0  0  0
 12 21  1  0  0  0  0
 12 22  2  0  0  0  0
 14 19  1  0  0  0  0
 15 10  1  0  0  0  0
 15  2  1  0  0  0  0
 16 10  1  0  0  0  0
 17  1  2  0  0  0  0
 18  6  2  0  0  0  0
 19 20  1  0  0  0  0
 20  8  2  0  0  0  0
 21 15  2  0  0  0  0
 22  3  1  0  0  0  0
 23 22  1  0  0  0  0
 23 18  1  0  0  0  0
 24 27  1  1  0  0  0
 24 31  1  0  0  0  0
 24 28  1  0  0  0  0
 25 30  1  0  0  0  0
 28 25  1  0  0  0  0
 29 26  1  1  0  0  0
 29 30  1  0  0  0  0
 30  5  1  1  0  0  0
 31 29  1  0  0  0  0
M  END
>  <MODEL>
5

>  <REMARK>
 VINA RESULT:     -10.6      3.335      4.804
  Name = 
  1 active torsions:
  status: ('A' for Active; 'I' for Inactive)
    1  A    between atoms: C_5  and  C_30
                            x       y       z     vdW  Elec       q    Type
                         _______ _______ _______ _____ _____    ______ ____

>  <TORSDO>
F 1

$$$$
=
 OpenBabel11122411063D

 31 35  0  0  1  0  0  0  0  0999 V2000
  190.7330  176.9460  145.1340 C   0  0  0  0  0  0  0  0  0  0  0  0
  187.7040  178.0120  143.1680 C   0  0  0  0  0  0  0  0  0  0  0  0
  186.6420  178.2080  144.1020 C   0  0  0  0  0  0  0  0  0  0  0  0
  190.2050  177.8370  138.5240 O   0  0  0  0  0  0  0  0  0  0  0  0
  189.0070  178.1800  138.3410 C   0  0  0  0  0  0  0  0  0  0  0  0
  185.6010  178.2420  146.4430 C   0  0  0  0  0  0  0  0  0  0  0  0
  189.0260  177.6030  143.5150 C   0  0  0  0  0  0  0  0  0  0  0  0
  191.6660  176.7970  144.1090 C   0  0  0  0  0  3  0  0  0  0  0  0
  186.8170  177.9950  145.5920 C   0  0  0  0  0  2  0  0  0  0  0  0
  188.4120  178.0710  140.8250 C   0  0  0  0  0  0  0  0  0  0  0  0
  191.1010  176.6980  146.4490 O   0  0  0  0  0  1  0  0  0  0  0  0
  185.1940  178.8130  142.2950 N   0  0  0  0  0  0  0  0  0  0  0  0
  185.6960  178.0690  147.7840 F   0  0  0  0  0  0  0  0  0  0  0  0
  189.6580  177.6810  141.1940 N   0  0  0  0  0  0  0  0  0  0  0  0
  187.4190  178.2430  141.7980 C   0  0  0  0  0  0  0  0  0  0  0  0
  188.1020  178.3090  139.4450 N   0  0  0  0  0  2  0  0  0  0  0  0
  189.4290  177.3450  144.8370 C   0  0  0  0  0  3  0  0  0  0  0  0
  184.4380  178.6250  145.9230 C   0  0  0  0  0  3  0  0  0  0  0  0
  189.9890  177.4460  142.4860 C   0  0  0  0  0  0  0  0  0  0  0  0
  191.2950  177.0460  142.7880 C   0  0  0  0  0  3  0  0  0  0  0  0
  186.1760  178.6340  141.4160 N   0  0  0  0  0  0  0  0  0  0  0  0
  185.3840  178.6140  143.6200 C   0  0  0  0  0  0  0  0  0  0  0  0
  184.2940  178.8210  144.5180 N   0  0  0  0  0  2  0  0  0  0  0  0
  186.6840  176.4690  135.9660 C   0  0  1  0  0  3  0  0  0  0  0  0
  187.0170  178.6390  136.8810 C   0  0  0  0  0  2  0  0  0  0  0  0
  190.3410  177.1210  136.0680 F   0  0  0  0  0  0  0  0  0  0  0  0
  185.8710  175.1950  136.0690 C   0  0  0  0  0  1  0  0  0  0  0  0
  186.3300  177.3600  137.0690 N   0  0  0  0  0  2  0  0  0  0  0  0
  188.9950  177.4050  135.9260 C   0  0  2  0  0  3  0  0  0  0  0  0
  188.5380  178.4600  136.9430 C   0  0  2  0  0  3  0  0  0  0  0  0
  188.1690  176.1240  136.0280 C   0  0  0  0  0  2  0  0  0  0  0  0
  1 11  1  0  0  0  0
  2  7  1  0  0  0  0
  2  3  2  0  0  0  0
  3  9  1  0  0  0  0
  5  4  2  0  0  0  0
  5 16  1  0  0  0  0
  6 13  1  0  0  0  0
  7 17  2  0  0  0  0
  8  1  2  0  0  0  0
  9  6  1  0  0  0  0
 10 14  2  0  0  0  0
 10 15  1  0  0  0  0
 12 22  2  0  0  0  0
 14 19  1  0  0  0  0
 15  2  1  0  0  0  0
 16 10  1  0  0  0  0
 17  1  1  0  0  0  0
 18  6  2  0  0  0  0
 19 20  2  0  0  0  0
 19  7  1  0  0  0  0
 20  8  1  0  0  0  0
 21 15  2  0  0  0  0
 21 12  1  0  0  0  0
 22  3  1  0  0  0  0
 22 23  1  0  0  0  0
 23 18  1  0  0  0  0
 24 31  1  0  0  0  0
 24 27  1  1  0  0  0
 24 28  1  0  0  0  0
 25 30  1  0  0  0  0
 25 28  1  0  0  0  0
 29 31  1  0  0  0  0
 29 26  1  1  0  0  0
 29 30  1  0  0  0  0
 30  5  1  1  0  0  0
M  END
>  <MODEL>
6

>  <REMARK>
 VINA RESULT:     -10.5      2.465      4.144
  Name = 
  1 active torsions:
  status: ('A' for Active; 'I' for Inactive)
    1  A    between atoms: C_5  and  C_30
                            x       y       z     vdW  Elec       q    Type
                         _______ _______ _______ _____ _____    ______ ____

>  <TORSDO>
F 1

$$$$
=
 OpenBabel11122411063D

 31 35  0  0  1  0  0  0  0  0999 V2000
  186.0640  178.0520  145.9330 C   0  0  0  0  0  0  0  0  0  0  0  0
  184.9990  178.5130  142.3510 C   0  0  0  0  0  0  0  0  0  0  0  0
  183.5880  178.7320  142.3550 C   0  0  0  0  0  0  0  0  0  0  0  0
  189.8840  177.9270  140.4430 O   0  0  0  0  0  0  0  0  0  0  0  0
  189.0830  178.1170  139.4890 C   0  0  0  0  0  0  0  0  0  0  0  0
  181.2940  178.9960  143.4650 C   0  0  0  0  0  0  0  0  0  0  0  0
  185.7910  178.2940  143.5180 C   0  0  0  0  0  0  0  0  0  0  0  0
  187.4340  177.8530  145.7720 C   0  0  0  0  0  3  0  0  0  0  0  0
  182.7700  178.7530  143.6310 C   0  0  0  0  0  2  0  0  0  0  0  0
  187.0390  178.3060  141.0140 C   0  0  0  0  0  0  0  0  0  0  0  0
  185.5050  178.0340  147.2030 O   0  0  0  0  0  1  0  0  0  0  0  0
  183.6340  178.9210  139.9700 N   0  0  0  0  0  0  0  0  0  0  0  0
  180.5100  179.0270  144.5700 F   0  0  0  0  0  0  0  0  0  0  0  0
  187.7580  178.1020  142.1460 N   0  0  0  0  0  0  0  0  0  0  0  0
  185.6570  178.5150  141.0940 C   0  0  0  0  0  0  0  0  0  0  0  0
  187.6840  178.3110  139.7320 N   0  0  0  0  0  2  0  0  0  0  0  0
  185.2540  178.2700  144.8180 C   0  0  0  0  0  3  0  0  0  0  0  0
  180.7350  179.1810  142.2730 C   0  0  0  0  0  3  0  0  0  0  0  0
  187.1860  178.0890  143.3730 C   0  0  0  0  0  0  0  0  0  0  0  0
  187.9930  177.8710  144.4940 C   0  0  0  0  0  3  0  0  0  0  0  0
  184.9470  178.7180  139.9540 N   0  0  0  0  0  0  0  0  0  0  0  0
  182.9320  178.9350  141.1270 C   0  0  0  0  0  0  0  0  0  0  0  0
  181.5230  179.1570  141.0840 N   0  0  0  0  0  2  0  0  0  0  0  0
  187.5620  177.7040  136.1010 C   0  0  1  0  0  3  0  0  0  0  0  0
  188.9580  179.2490  137.2510 C   0  0  0  0  0  2  0  0  0  0  0  0
  189.9610  175.7610  138.1700 F   0  0  0  0  0  0  0  0  0  0  0  0
  186.1470  177.4200  135.6420 C   0  0  0  0  0  1  0  0  0  0  0  0
  187.5710  178.9070  136.9300 N   0  0  0  0  0  2  0  0  0  0  0  0
  189.5060  176.7920  137.3690 C   0  0  2  0  0  3  0  0  0  0  0  0
  189.6160  178.1450  138.0870 C   0  0  2  0  0  3  0  0  0  0  0  0
  188.0800  176.5120  136.9010 C   0  0  0  0  0  2  0  0  0  0  0  0
  1 11  1  0  0  0  0
  2  3  2  0  0  0  0
  2  7  1  0  0  0  0
  3  9  1  0  0  0  0
  5 16  1  0  0  0  0
  5  4  2  0  0  0  0
  6  9  1  0  0  0  0
  6 13  1  0  0  0  0
  7 17  1  0  0  0  0
  8  1  1  0  0  0  0
 10 15  1  0  0  0  0
 10 14  2  0  0  0  0
 12 22  2  0  0  0  0
 14 19  1  0  0  0  0
 15  2  1  0  0  0  0
 16 10  1  0  0  0  0
 17  1  2  0  0  0  0
 18  6  2  0  0  0  0
 19  7  2  0  0  0  0
 19 20  1  0  0  0  0
 20  8  2  0  0  0  0
 21 12  1  0  0  0  0
 21 15  2  0  0  0  0
 22  3  1  0  0  0  0
 23 22  1  0  0  0  0
 23 18  1  0  0  0  0
 24 27  1  1  0  0  0
 24 31  1  0  0  0  0
 24 28  1  0  0  0  0
 25 30  1  0  0  0  0
 28 25  1  0  0  0  0
 29 30  1  0  0  0  0
 29 26  1  1  0  0  0
 30  5  1  1  0  0  0
 31 29  1  0  0  0  0
M  END
>  <MODEL>
7

>  <REMARK>
 VINA RESULT:     -10.4      2.622      5.051
  Name = 
  1 active torsions:
  status: ('A' for Active; 'I' for Inactive)
    1  A    between atoms: C_5  and  C_30
                            x       y       z     vdW  Elec       q    Type
                         _______ _______ _______ _____ _____    ______ ____

>  <TORSDO>
F 1

$$$$
=
 OpenBabel11122411063D

 31 35  0  0  1  0  0  0  0  0999 V2000
  190.7410  177.3470  142.1480 C   0  0  0  0  0  0  0  0  0  0  0  0
  187.5140  177.9410  143.9960 C   0  0  0  0  0  0  0  0  0  0  0  0
  187.8000  177.8320  145.3900 C   0  0  0  0  0  0  0  0  0  0  0  0
  184.7080  178.6960  139.5910 O   0  0  0  0  0  0  0  0  0  0  0  0
  183.9500  178.8010  140.5910 C   0  0  0  0  0  0  0  0  0  0  0  0
  189.3240  177.4420  147.4130 C   0  0  0  0  0  0  0  0  0  0  0  0
  188.4760  177.7830  142.9540 C   0  0  0  0  0  0  0  0  0  0  0  0
  190.3120  177.4840  140.8290 C   0  0  0  0  0  3  0  0  0  0  0  0
  189.1880  177.5270  145.9170 C   0  0  0  0  0  2  0  0  0  0  0  0
  185.8220  178.3520  142.2740 C   0  0  0  0  0  0  0  0  0  0  0  0
  192.0720  177.0640  142.4190 O   0  0  0  0  0  1  0  0  0  0  0  0
  185.5000  178.2850  145.8740 N   0  0  0  0  0  0  0  0  0  0  0  0
  190.5420  177.1740  147.9430 F   0  0  0  0  0  0  0  0  0  0  0  0
  186.7650  178.1950  141.3120 N   0  0  0  0  0  0  0  0  0  0  0  0
  186.1760  178.2300  143.6240 C   0  0  0  0  0  0  0  0  0  0  0  0
  184.4620  178.6430  141.9210 N   0  0  0  0  0  2  0  0  0  0  0  0
  189.8310  177.4950  143.1970 C   0  0  0  0  0  3  0  0  0  0  0  0
  188.2900  177.6250  148.2300 C   0  0  0  0  0  3  0  0  0  0  0  0
  188.0580  177.9180  141.6060 C   0  0  0  0  0  0  0  0  0  0  0  0
  188.9730  177.7690  140.5590 C   0  0  0  0  0  3  0  0  0  0  0  0
  185.2230  178.3900  144.5780 N   0  0  0  0  0  0  0  0  0  0  0  0
  186.7520  178.0120  146.3110 C   0  0  0  0  0  0  0  0  0  0  0  0
  186.9920  177.9110  147.7150 N   0  0  0  0  0  2  0  0  0  0  0  0
  181.3360  177.5340  138.2400 C   0  0  1  0  0  3  0  0  0  0  0  0
  181.6220  177.8600  140.5790 C   0  0  0  0  0  2  0  0  0  0  0  0
  183.0870  180.7740  138.7410 F   0  0  0  0  0  0  0  0  0  0  0  0
  181.3740  176.5160  137.1200 C   0  0  0  0  0  1  0  0  0  0  0  0
  181.7950  176.9100  139.4790 N   0  0  0  0  0  2  0  0  0  0  0  0
  182.2070  179.7410  139.0080 C   0  0  2  0  0  3  0  0  0  0  0  0
  182.4960  179.1030  140.3740 C   0  0  2  0  0  3  0  0  0  0  0  0
  182.2390  178.7110  137.8810 C   0  0  0  0  0  2  0  0  0  0  0  0
  1 11  1  0  0  0  0
  1 17  1  0  0  0  0
  2  3  2  0  0  0  0
  3  9  1  0  0  0  0
  3 22  1  0  0  0  0
  4  5  2  0  0  0  0
  5 16  1  0  0  0  0
  6 13  1  0  0  0  0
  6 18  2  0  0  0  0
  7 17  2  0  0  0  0
  7  2  1  0  0  0  0
  8  1  2  0  0  0  0
  9  6  1  0  0  0  0
 10 15  1  0  0  0  0
 12 22  2  0  0  0  0
 14 19  1  0  0  0  0
 14 10  2  0  0  0  0
 15  2  1  0  0  0  0
 15 21  2  0  0  0  0
 16 10  1  0  0  0  0
 19  7  1  0  0  0  0
 20  8  1  0  0  0  0
 20 19  2  0  0  0  0
 21 12  1  0  0  0  0
 22 23  1  0  0  0  0
 23 18  1  0  0  0  0
 24 27  1  6  0  0  0
 24 28  1  0  0  0  0
 28 25  1  0  0  0  0
 29 26  1  6  0  0  0
 29 30  1  0  0  0  0
 30 25  1  0  0  0  0
 30  5  1  6  0  0  0
 31 24  1  0  0  0  0
 31 29  1  0  0  0  0
M  END
>  <MODEL>
8

>  <REMARK>
 VINA RESULT:     -10.3      3.516      5.561
  Name = 
  1 active torsions:
  status: ('A' for Active; 'I' for Inactive)
    1  A    between atoms: C_5  and  C_30
                            x       y       z     vdW  Elec       q    Type
                         _______ _______ _______ _____ _____    ______ ____

>  <TORSDO>
F 1

$$$$
=
 OpenBabel11122411063D

 31 35  0  0  1  0  0  0  0  0999 V2000
  191.3420  176.7440  145.1920 C   0  0  0  0  0  0  0  0  0  0  0  0
  187.9890  177.7450  143.8010 C   0  0  0  0  0  0  0  0  0  0  0  0
  187.1280  177.9920  144.9120 C   0  0  0  0  0  0  0  0  0  0  0  0
  189.5460  177.3370  138.7750 O   0  0  0  0  0  0  0  0  0  0  0  0
  188.3350  177.6810  138.8100 C   0  0  0  0  0  0  0  0  0  0  0  0
  186.5590  178.1420  147.4060 C   0  0  0  0  0  0  0  0  0  0  0  0
  189.3540  177.3410  143.9040 C   0  0  0  0  0  0  0  0  0  0  0  0
  192.0600  176.5400  144.0150 C   0  0  0  0  0  3  0  0  0  0  0  0
  187.5880  177.8460  146.3490 C   0  0  0  0  0  2  0  0  0  0  0  0
  188.2320  177.6910  141.3650 C   0  0  0  0  0  0  0  0  0  0  0  0
  191.9570  176.5540  146.4210 O   0  0  0  0  0  1  0  0  0  0  0  0
  185.3580  178.5260  143.3930 N   0  0  0  0  0  0  0  0  0  0  0  0
  186.9120  178.0290  148.7100 F   0  0  0  0  0  0  0  0  0  0  0  0
  189.5260  177.3080  141.5040 N   0  0  0  0  0  0  0  0  0  0  0  0
  187.4450  177.9160  142.5020 C   0  0  0  0  0  0  0  0  0  0  0  0
  187.6600  177.8680  140.0610 N   0  0  0  0  0  2  0  0  0  0  0  0
  190.0050  177.1400  145.1350 C   0  0  0  0  0  3  0  0  0  0  0  0
  185.3180  178.5110  147.1030 C   0  0  0  0  0  3  0  0  0  0  0  0
  190.1000  177.1290  142.7170 C   0  0  0  0  0  0  0  0  0  0  0  0
  191.4400  176.7320  142.7800 C   0  0  0  0  0  3  0  0  0  0  0  0
  186.1510  178.2980  142.3500 N   0  0  0  0  0  0  0  0  0  0  0  0
  185.8010  178.3860  144.6640 C   0  0  0  0  0  0  0  0  0  0  0  0
  184.9040  178.6430  145.7450 N   0  0  0  0  0  2  0  0  0  0  0  0
  188.5170  176.1510  135.4060 C   0  0  1  0  0  3  0  0  0  0  0  0
  186.8740  176.6350  137.0570 C   0  0  0  0  0  2  0  0  0  0  0  0
  189.2820  179.4930  136.8400 F   0  0  0  0  0  0  0  0  0  0  0  0
  189.3950  175.0680  134.8160 C   0  0  0  0  0  1  0  0  0  0  0  0
  187.8230  175.6270  136.5790 N   0  0  0  0  0  2  0  0  0  0  0  0
  188.5040  178.4400  136.3970 C   0  0  2  0  0  3  0  0  0  0  0  0
  187.6040  177.9010  137.5190 C   0  0  2  0  0  3  0  0  0  0  0  0
  189.3840  177.3430  135.7990 C   0  0  0  0  0  2  0  0  0  0  0  0
  1 11  1  0  0  0  0
  2  7  1  0  0  0  0
  2  3  2  0  0  0  0
  3  9  1  0  0  0  0
  4  5  2  0  0  0  0
  5 16  1  0  0  0  0
  6 13  1  0  0  0  0
  7 17  2  0  0  0  0
  8  1  2  0  0  0  0
  9  6  1  0  0  0  0
 10 14  2  0  0  0  0
 10 15  1  0  0  0  0
 12 22  2  0  0  0  0
 14 19  1  0  0  0  0
 15  2  1  0  0  0  0
 16 10  1  0  0  0  0
 17  1  1  0  0  0  0
 18  6  2  0  0  0  0
 19 20  2  0  0  0  0
 19  7  1  0  0  0  0
 20  8  1  0  0  0  0
 21 15  2  0  0  0  0
 21 12  1  0  0  0  0
 22  3  1  0  0  0  0
 22 23  1  0  0  0  0
 23 18  1  0  0  0  0
 24 27  1  1  0  0  0
 24 31  1  0  0  0  0
 24 28  1  0  0  0  0
 25 30  1  0  0  0  0
 28 25  1  0  0  0  0
 29 26  1  1  0  0  0
 29 30  1  0  0  0  0
 30  5  1  1  0  0  0
 31 29  1  0  0  0  0
M  END
>  <MODEL>
9

>  <REMARK>
 VINA RESULT:     -10.2      2.492      4.025
  Name = 
  1 active torsions:
  status: ('A' for Active; 'I' for Inactive)
    1  A    between atoms: C_5  and  C_30
                            x       y       z     vdW  Elec       q    Type
                         _______ _______ _______ _____ _____    ______ ____

>  <TORSDO>
F 1

$$$$
