=
 OpenBabel11122410303D

 30 35  0  0  1  0  0  0  0  0999 V2000
  189.0130  177.3950  143.5630 C   0  0  0  0  0  0  0  0  0  0  0  0
  191.1180  176.4650  144.6420 C   0  0  0  0  0  0  0  0  0  0  0  0
  187.2530  177.9850  147.3210 N   0  0  0  0  0  2  0  0  0  0  0  0
  187.6920  177.9280  143.7280 C   0  0  0  0  0  0  0  0  0  0  0  0
  189.5180  177.2800  142.2640 C   0  0  0  0  0  3  0  0  0  0  0  0
  186.8090  178.6660  140.1910 O   0  0  0  0  0  1  0  0  0  0  0  0
  184.5790  178.1390  143.3270 C   0  0  1  0  0  3  0  0  0  0  0  0
  187.5230  178.2430  141.3110 C   0  0  0  0  0  0  0  0  0  0  0  0
  184.6460  177.9760  144.8380 C   0  0  2  0  0  3  0  0  0  0  0  0
  185.9510  178.5280  146.9320 C   0  0  1  0  0  3  0  0  0  0  0  0
  188.7930  177.6850  141.1490 C   0  0  0  0  0  0  0  0  0  0  0  0
  186.9690  178.3800  142.5920 C   0  0  0  0  0  0  0  0  0  0  0  0
  191.8110  176.1600  145.8180 C   0  0  0  0  0  3  0  0  0  0  0  0
  183.4390  178.7380  145.3440 C   0  0  0  0  0  2  0  0  0  0  0  0
  183.1840  178.6630  143.0360 C   0  0  0  0  0  2  0  0  0  0  0  0
  192.0030  176.1000  143.1620 Cl  0  0  0  0  0  0  0  0  0  0  0  0
  187.9470  177.7210  146.1170 C   0  0  0  0  0  0  0  0  0  0  0  0
  191.2410  176.3770  147.0670 C   0  0  0  0  0  3  0  0  0  0  0  0
  189.7970  177.0150  144.7080 C   0  0  0  0  0  0  0  0  0  0  0  0
  187.1820  178.0190  145.0360 C   0  0  0  0  0  0  0  0  0  0  0  0
  185.8600  179.9770  147.3740 C   0  0  0  0  0  1  0  0  0  0  0  0
  185.8860  178.4520  145.4630 N   0  0  0  0  0  0  0  0  0  0  0  0
  182.4390  178.7070  144.2890 N   0  0  0  0  0  2  0  0  0  0  0  0
  185.7160  180.4520  143.2910 C   0  0  0  0  0  1  0  0  0  0  0  0
  189.9580  176.9000  147.1590 C   0  0  0  0  0  3  0  0  0  0  0  0
  189.2370  177.2140  146.0040 C   0  0  0  0  0  0  0  0  0  0  0  0
  185.6290  179.0490  142.6960 C   0  0  2  0  0  3  0  0  0  0  0  0
  189.3900  177.5110  139.7920 C   0  0  0  0  0  2  0  0  0  0  0  0
  190.7310  175.7100  139.0110 O   0  0  0  0  0  1  0  0  0  0  0  0
  190.7200  176.7860  139.8960 C   0  0  0  0  0  2  0  0  0  0  0  0
  1  4  1  0  0  0  0
  1 19  1  0  0  0  0
  2 19  2  0  0  0  0
  2 13  1  0  0  0  0
  4 20  1  0  0  0  0
  5  1  2  0  0  0  0
  6  8  1  0  0  0  0
  7 15  1  1  0  0  0
  7  9  1  0  0  0  0
  8 12  1  0  0  0  0
  9 14  1  1  0  0  0
  9 22  1  0  0  0  0
 10  3  1  0  0  0  0
 10 21  1  6  0  0  0
 11  8  2  0  0  0  0
 11  5  1  0  0  0  0
 12 27  1  0  0  0  0
 12  4  2  0  0  0  0
 13 18  2  0  0  0  0
 15 23  1  0  0  0  0
 16  2  1  0  0  0  0
 17  3  1  0  0  0  0
 18 25  1  0  0  0  0
 19 26  1  0  0  0  0
 20 22  1  0  0  0  0
 20 17  2  0  0  0  0
 22 10  1  0  0  0  0
 23 14  1  0  0  0  0
 26 17  1  0  0  0  0
 26 25  2  0  0  0  0
 27 24  1  1  0  0  0
 27  7  1  0  0  0  0
 28 30  1  0  0  0  0
 28 11  1  0  0  0  0
 29 30  1  0  0  0  0
M  END
>  <MODEL>
1

>  <REMARK>
 VINA RESULT:      -9.0      0.000      0.000
  Name = 
  2 active torsions:
  status: ('A' for Active; 'I' for Inactive)
    1  A    between atoms: C_11  and  C_28
    2  A    between atoms: C_28  and  C_30
                            x       y       z     vdW  Elec       q    Type
                         _______ _______ _______ _____ _____    ______ ____

>  <TORSDO>
F 2

$$$$
=
 OpenBabel11122410303D

 30 35  0  0  1  0  0  0  0  0999 V2000
  185.7110  178.4100  142.4120 C   0  0  0  0  0  0  0  0  0  0  0  0
  186.4860  178.3420  144.8310 C   0  0  0  0  0  0  0  0  0  0  0  0
  181.7140  178.7720  143.6190 N   0  0  0  0  0  2  0  0  0  0  0  0
  184.6230  178.4920  141.4820 C   0  0  0  0  0  0  0  0  0  0  0  0
  187.0100  178.3340  141.8980 C   0  0  0  0  0  3  0  0  0  0  0  0
  186.4800  178.5280  138.2600 O   0  0  0  0  0  1  0  0  0  0  0  0
  182.7920  177.6220  139.0760 C   0  0  1  0  0  3  0  0  0  0  0  0
  186.2130  178.4810  139.6270 C   0  0  0  0  0  0  0  0  0  0  0  0
  181.7670  177.6480  140.2000 C   0  0  2  0  0  3  0  0  0  0  0  0
  181.0380  178.8120  142.3220 C   0  0  1  0  0  3  0  0  0  0  0  0
  187.2690  178.3600  140.5320 C   0  0  0  0  0  0  0  0  0  0  0  0
  184.8900  178.5600  140.0890 C   0  0  0  0  0  0  0  0  0  0  0  0
  186.1450  178.4050  146.1860 C   0  0  0  0  0  3  0  0  0  0  0  0
  180.4720  178.0170  139.5070 C   0  0  0  0  0  2  0  0  0  0  0  0
  181.9860  177.6240  137.7890 C   0  0  0  0  0  2  0  0  0  0  0  0
  188.2090  178.1380  144.5250 Cl  0  0  0  0  0  0  0  0  0  0  0  0
  183.0940  178.6280  143.3420 C   0  0  0  0  0  0  0  0  0  0  0  0
  184.8230  178.5500  146.5920 C   0  0  0  0  0  3  0  0  0  0  0  0
  185.4660  178.4290  143.8290 C   0  0  0  0  0  0  0  0  0  0  0  0
  183.3180  178.5440  142.0060 C   0  0  0  0  0  0  0  0  0  0  0  0
  180.4300  180.1880  142.1160 C   0  0  0  0  0  1  0  0  0  0  0  0
  182.0710  178.5670  141.3020 N   0  0  0  0  0  0  0  0  0  0  0  0
  180.5710  177.5500  138.1330 N   0  0  0  0  0  2  0  0  0  0  0  0
  183.2210  180.1640  139.0940 C   0  0  0  0  0  1  0  0  0  0  0  0
  183.8140  178.6280  145.6410 C   0  0  0  0  0  3  0  0  0  0  0  0
  184.1200  178.5660  144.2780 C   0  0  0  0  0  0  0  0  0  0  0  0
  183.8130  178.7580  139.0640 C   0  0  2  0  0  3  0  0  0  0  0  0
  188.6810  178.2530  140.0590 C   0  0  0  0  0  2  0  0  0  0  0  0
  190.1830  176.4530  140.4500 O   0  0  0  0  0  1  0  0  0  0  0  0
  189.5180  177.5030  141.0790 C   0  0  0  0  0  2  0  0  0  0  0  0
  1 19  1  0  0  0  0
  2 13  1  0  0  0  0
  4 20  1  0  0  0  0
  4  1  2  0  0  0  0
  5  1  1  0  0  0  0
  6  8  1  0  0  0  0
  7 15  1  6  0  0  0
  7  9  1  0  0  0  0
  8 12  2  0  0  0  0
  8 11  1  0  0  0  0
  9 14  1  6  0  0  0
  9 22  1  0  0  0  0
 10 21  1  6  0  0  0
 10  3  1  0  0  0  0
 11  5  2  0  0  0  0
 12  4  1  0  0  0  0
 13 18  2  0  0  0  0
 15 23  1  0  0  0  0
 16  2  1  0  0  0  0
 17  3  1  0  0  0  0
 17 26  1  0  0  0  0
 19 26  1  0  0  0  0
 19  2  2  0  0  0  0
 20 17  2  0  0  0  0
 22 20  1  0  0  0  0
 22 10  1  0  0  0  0
 23 14  1  0  0  0  0
 25 18  1  0  0  0  0
 26 25  2  0  0  0  0
 27  7  1  0  0  0  0
 27 24  1  1  0  0  0
 27 12  1  0  0  0  0
 28 11  1  0  0  0  0
 28 30  1  0  0  0  0
 29 30  1  0  0  0  0
M  END
>  <MODEL>
2

>  <REMARK>
 VINA RESULT:      -9.0      2.854      4.945
  Name = 
  2 active torsions:
  status: ('A' for Active; 'I' for Inactive)
    1  A    between atoms: C_11  and  C_28
    2  A    between atoms: C_28  and  C_30
                            x       y       z     vdW  Elec       q    Type
                         _______ _______ _______ _____ _____    ______ ____

>  <TORSDO>
F 2

$$$$
=
 OpenBabel11122410303D

 30 35  0  0  1  0  0  0  0  0999 V2000
  185.9920  178.3300  142.0050 C   0  0  0  0  0  0  0  0  0  0  0  0
  183.5270  178.8950  142.2570 C   0  0  0  0  0  0  0  0  0  0  0  0
  186.4480  178.1100  146.1660 N   0  0  0  0  0  2  0  0  0  0  0  0
  187.2460  178.0380  142.6360 C   0  0  0  0  0  0  0  0  0  0  0  0
  185.9450  178.3370  140.6070 C   0  0  0  0  0  3  0  0  0  0  0  0
  189.3790  177.4130  139.6540 O   0  0  0  0  0  1  0  0  0  0  0  0
  190.3030  178.3660  143.3030 C   0  0  1  0  0  3  0  0  0  0  0  0
  188.2710  177.7220  140.4400 C   0  0  0  0  0  0  0  0  0  0  0  0
  189.7030  178.5360  144.6910 C   0  0  2  0  0  3  0  0  0  0  0  0
  187.8720  177.7970  146.2700 C   0  0  1  0  0  3  0  0  0  0  0  0
  187.0590  178.0480  139.8270 C   0  0  0  0  0  0  0  0  0  0  0  0
  188.3730  177.7020  141.8390 C   0  0  0  0  0  0  0  0  0  0  0  0
  182.4380  179.0930  143.1120 C   0  0  0  0  0  3  0  0  0  0  0  0
  190.7730  178.0040  145.6220 C   0  0  0  0  0  2  0  0  0  0  0  0
  191.7790  178.0880  143.5290 C   0  0  0  0  0  2  0  0  0  0  0  0
  183.1490  179.0800  140.5460 Cl  0  0  0  0  0  0  0  0  0  0  0  0
  186.1680  178.2320  144.7840 C   0  0  0  0  0  0  0  0  0  0  0  0
  182.5790  178.9970  144.4920 C   0  0  0  0  0  3  0  0  0  0  0  0
  184.8170  178.5850  142.7960 C   0  0  0  0  0  0  0  0  0  0  0  0
  187.2910  178.0560  144.0420 C   0  0  0  0  0  0  0  0  0  0  0  0
  188.0380  176.3910  146.8210 C   0  0  0  0  0  1  0  0  0  0  0  0
  188.4180  177.8610  144.9040 N   0  0  0  0  0  0  0  0  0  0  0  0
  192.0530  178.1920  144.9570 N   0  0  0  0  0  2  0  0  0  0  0  0
  189.6280  175.8900  143.0610 C   0  0  0  0  0  1  0  0  0  0  0  0
  183.8210  178.7060  145.0410 C   0  0  0  0  0  3  0  0  0  0  0  0
  184.9300  178.5050  144.2150 C   0  0  0  0  0  0  0  0  0  0  0  0
  189.6860  177.2770  142.4280 C   0  0  2  0  0  3  0  0  0  0  0  0
  186.9360  178.0960  138.3410 C   0  0  0  0  0  2  0  0  0  0  0  0
  185.2650  177.0020  137.0530 O   0  0  0  0  0  1  0  0  0  0  0  0
  185.4740  178.0590  137.9360 C   0  0  0  0  0  2  0  0  0  0  0  0
  1  4  1  0  0  0  0
  1 19  1  0  0  0  0
  2 19  2  0  0  0  0
  2 13  1  0  0  0  0
  3 10  1  0  0  0  0
  4 20  1  0  0  0  0
  5  1  2  0  0  0  0
  6  8  1  0  0  0  0
  7 15  1  1  0  0  0
  7  9  1  0  0  0  0
  8 12  1  0  0  0  0
  9 22  1  0  0  0  0
  9 14  1  1  0  0  0
 10 21  1  6  0  0  0
 11  8  2  0  0  0  0
 11  5  1  0  0  0  0
 12 27  1  0  0  0  0
 12  4  2  0  0  0  0
 13 18  2  0  0  0  0
 15 23  1  0  0  0  0
 16  2  1  0  0  0  0
 17  3  1  0  0  0  0
 18 25  1  0  0  0  0
 19 26  1  0  0  0  0
 20 17  2  0  0  0  0
 20 22  1  0  0  0  0
 22 10  1  0  0  0  0
 23 14  1  0  0  0  0
 26 17  1  0  0  0  0
 26 25  2  0  0  0  0
 27 24  1  1  0  0  0
 27  7  1  0  0  0  0
 28 11  1  0  0  0  0
 29 30  1  0  0  0  0
 30 28  1  0  0  0  0
M  END
>  <MODEL>
3

>  <REMARK>
 VINA RESULT:      -8.4      2.622      5.642
  Name = 
  2 active torsions:
  status: ('A' for Active; 'I' for Inactive)
    1  A    between atoms: C_11  and  C_28
    2  A    between atoms: C_28  and  C_30
                            x       y       z     vdW  Elec       q    Type
                         _______ _______ _______ _____ _____    ______ ____

>  <TORSDO>
F 2

$$$$
=
 OpenBabel11122410303D

 30 35  0  0  1  0  0  0  0  0999 V2000
  186.0740  178.3480  142.5610 C   0  0  0  0  0  0  0  0  0  0  0  0
  188.5610  178.0140  142.9650 C   0  0  0  0  0  0  0  0  0  0  0  0
  186.6440  178.1780  138.4120 N   0  0  0  0  0  2  0  0  0  0  0  0
  185.0000  178.4910  141.6220 C   0  0  0  0  0  0  0  0  0  0  0  0
  185.7640  178.3790  143.9250 C   0  0  0  0  0  3  0  0  0  0  0  0
  182.0990  178.7340  143.9380 O   0  0  0  0  0  1  0  0  0  0  0  0
  182.5180  179.8410  140.2390 C   0  0  1  0  0  3  0  0  0  0  0  0
  183.4070  178.6160  143.4710 C   0  0  0  0  0  0  0  0  0  0  0  0
  183.4710  179.7520  139.0560 C   0  0  2  0  0  3  0  0  0  0  0  0
  185.2750  178.3770  137.9390 C   0  0  1  0  0  3  0  0  0  0  0  0
  184.4590  178.5180  144.3850 C   0  0  0  0  0  0  0  0  0  0  0  0
  183.6640  178.5910  142.0920 C   0  0  0  0  0  0  0  0  0  0  0  0
  189.8310  177.7960  142.4200 C   0  0  0  0  0  3  0  0  0  0  0  0
  182.5580  179.5980  137.8580 C   0  0  0  0  0  2  0  0  0  0  0  0
  181.1460  180.0870  139.6370 C   0  0  0  0  0  2  0  0  0  0  0  0
  188.5320  178.1060  144.7240 Cl  0  0  0  0  0  0  0  0  0  0  0  0
  186.5870  178.2360  139.8250 C   0  0  0  0  0  0  0  0  0  0  0  0
  190.0210  177.7140  141.0460 C   0  0  0  0  0  3  0  0  0  0  0  0
  187.4250  178.1560  142.1050 C   0  0  0  0  0  0  0  0  0  0  0  0
  185.3230  178.4830  140.2530 C   0  0  0  0  0  0  0  0  0  0  0  0
  184.7830  177.1010  137.2780 C   0  0  0  0  0  1  0  0  0  0  0  0
  184.4560  178.6670  139.1280 N   0  0  0  0  0  0  0  0  0  0  0  0
  181.2960  180.2390  138.1950 N   0  0  0  0  0  2  0  0  0  0  0  0
  182.2180  177.2940  140.4880 C   0  0  0  0  0  1  0  0  0  0  0  0
  188.9380  177.8570  140.1890 C   0  0  0  0  0  3  0  0  0  0  0  0
  187.6560  178.0790  140.7000 C   0  0  0  0  0  0  0  0  0  0  0  0
  182.4800  178.6330  141.1700 C   0  0  2  0  0  3  0  0  0  0  0  0
  184.2090  178.5640  145.8550 C   0  0  0  0  0  2  0  0  0  0  0  0
  185.7530  179.6090  147.3300 O   0  0  0  0  0  1  0  0  0  0  0  0
  185.5190  178.4380  146.6120 C   0  0  0  0  0  2  0  0  0  0  0  0
  1  5  1  0  0  0  0
  2 16  1  0  0  0  0
  3 17  1  0  0  0  0
  4 12  1  0  0  0  0
  4  1  2  0  0  0  0
  5 11  2  0  0  0  0
  7 15  1  6  0  0  0
  7 27  1  0  0  0  0
  8  6  1  0  0  0  0
  8 11  1  0  0  0  0
  9 14  1  6  0  0  0
  9 22  1  0  0  0  0
  9  7  1  0  0  0  0
 10 21  1  1  0  0  0
 10  3  1  0  0  0  0
 10 22  1  0  0  0  0
 11 28  1  0  0  0  0
 12  8  2  0  0  0  0
 13  2  1  0  0  0  0
 14 23  1  0  0  0  0
 17 20  2  0  0  0  0
 17 26  1  0  0  0  0
 18 13  2  0  0  0  0
 19  1  1  0  0  0  0
 19  2  2  0  0  0  0
 20  4  1  0  0  0  0
 22 20  1  0  0  0  0
 23 15  1  0  0  0  0
 25 26  2  0  0  0  0
 25 18  1  0  0  0  0
 26 19  1  0  0  0  0
 27 24  1  6  0  0  0
 27 12  1  0  0  0  0
 28 30  1  0  0  0  0
 30 29  1  0  0  0  0
M  END
>  <MODEL>
4

>  <REMARK>
 VINA RESULT:      -8.4      3.783      6.240
  Name = 
  2 active torsions:
  status: ('A' for Active; 'I' for Inactive)
    1  A    between atoms: C_11  and  C_28
    2  A    between atoms: C_28  and  C_30
                            x       y       z     vdW  Elec       q    Type
                         _______ _______ _______ _____ _____    ______ ____

>  <TORSDO>
F 2

$$$$
=
 OpenBabel11122410303D

 30 35  0  0  1  0  0  0  0  0999 V2000
  186.6390  178.2350  142.0860 C   0  0  0  0  0  0  0  0  0  0  0  0
  185.2950  178.5850  139.9590 C   0  0  0  0  0  0  0  0  0  0  0  0
  190.0470  177.2290  139.8630 N   0  0  0  0  0  2  0  0  0  0  0  0
  187.8860  177.8730  142.6950 C   0  0  0  0  0  0  0  0  0  0  0  0
  185.5790  178.5940  142.9250 C   0  0  0  0  0  3  0  0  0  0  0  0
  187.0630  178.3780  146.2870 O   0  0  0  0  0  1  0  0  0  0  0  0
  189.8420  176.2760  144.5720 C   0  0  1  0  0  3  0  0  0  0  0  0
  186.9340  178.3190  144.9010 C   0  0  0  0  0  0  0  0  0  0  0  0
  190.4820  176.0020  143.2180 C   0  0  2  0  0  3  0  0  0  0  0  0
  191.0030  176.9530  140.9340 C   0  0  1  0  0  3  0  0  0  0  0  0
  185.7080  178.6310  144.3090 C   0  0  0  0  0  0  0  0  0  0  0  0
  188.0300  177.9520  144.1060 C   0  0  0  0  0  0  0  0  0  0  0  0
  185.2730  178.6010  138.5600 C   0  0  0  0  0  3  0  0  0  0  0  0
  191.9550  175.8480  143.5330 C   0  0  0  0  0  2  0  0  0  0  0  0
  190.8990  175.9180  145.6010 C   0  0  0  0  0  2  0  0  0  0  0  0
  183.7540  178.9860  140.7130 Cl  0  0  0  0  0  0  0  0  0  0  0  0
  188.8270  177.5670  140.4960 C   0  0  0  0  0  0  0  0  0  0  0  0
  186.4070  178.2920  137.8180 C   0  0  0  0  0  3  0  0  0  0  0  0
  186.5000  178.2480  140.6550 C   0  0  0  0  0  0  0  0  0  0  0  0
  188.9420  177.4900  141.8470 C   0  0  0  0  0  0  0  0  0  0  0  0
  192.0920  178.0110  140.9200 C   0  0  0  0  0  1  0  0  0  0  0  0
  190.2510  177.0310  142.1980 N   0  0  0  0  0  0  0  0  0  0  0  0
  192.0550  175.3680  144.9020 N   0  0  0  0  0  2  0  0  0  0  0  0
  190.3570  178.8010  144.5650 C   0  0  0  0  0  1  0  0  0  0  0  0
  187.5870  177.9540  138.4680 C   0  0  0  0  0  3  0  0  0  0  0  0
  187.6420  177.9250  139.8640 C   0  0  0  0  0  0  0  0  0  0  0  0
  189.3330  177.6960  144.8050 C   0  0  2  0  0  3  0  0  0  0  0  0
  184.5240  179.0030  145.1380 C   0  0  0  0  0  2  0  0  0  0  0  0
  182.3150  178.6280  144.3430 O   0  0  0  0  0  1  0  0  0  0  0  0
  183.3990  179.4990  144.2490 C   0  0  0  0  0  2  0  0  0  0  0  0
  1  4  1  0  0  0  0
  1  5  2  0  0  0  0
  2 19  1  0  0  0  0
  2 16  1  0  0  0  0
  3 17  1  0  0  0  0
  3 10  1  0  0  0  0
  4 12  2  0  0  0  0
  5 11  1  0  0  0  0
  7 27  1  0  0  0  0
  7 15  1  1  0  0  0
  8  6  1  0  0  0  0
  9 14  1  1  0  0  0
  9  7  1  0  0  0  0
 10 21  1  1  0  0  0
 10 22  1  0  0  0  0
 11  8  2  0  0  0  0
 11 28  1  0  0  0  0
 12 27  1  0  0  0  0
 12  8  1  0  0  0  0
 13  2  2  0  0  0  0
 14 23  1  0  0  0  0
 17 20  2  0  0  0  0
 18 25  2  0  0  0  0
 18 13  1  0  0  0  0
 19  1  1  0  0  0  0
 20 22  1  0  0  0  0
 20  4  1  0  0  0  0
 22  9  1  0  0  0  0
 23 15  1  0  0  0  0
 25 26  1  0  0  0  0
 26 17  1  0  0  0  0
 26 19  2  0  0  0  0
 27 24  1  6  0  0  0
 30 29  1  0  0  0  0
 30 28  1  0  0  0  0
M  END
>  <MODEL>
5

>  <REMARK>
 VINA RESULT:      -7.9      3.524      7.126
  Name = 
  2 active torsions:
  status: ('A' for Active; 'I' for Inactive)
    1  A    between atoms: C_11  and  C_28
    2  A    between atoms: C_28  and  C_30
                            x       y       z     vdW  Elec       q    Type
                         _______ _______ _______ _____ _____    ______ ____

>  <TORSDO>
F 2

$$$$
=
 OpenBabel11122410303D

 30 35  0  0  1  0  0  0  0  0999 V2000
  186.7800  178.1720  140.8750 C   0  0  0  0  0  0  0  0  0  0  0  0
  184.3720  178.8050  140.3660 C   0  0  0  0  0  0  0  0  0  0  0  0
  185.9890  178.1540  144.9910 N   0  0  0  0  0  2  0  0  0  0  0  0
  187.7830  177.8830  141.8580 C   0  0  0  0  0  0  0  0  0  0  0  0
  187.1440  178.1080  139.5260 C   0  0  0  0  0  3  0  0  0  0  0  0
  190.6700  177.0580  139.6640 O   0  0  0  0  0  1  0  0  0  0  0  0
  190.5200  178.1750  143.3810 C   0  0  1  0  0  3  0  0  0  0  0  0
  189.3930  177.4320  140.0760 C   0  0  0  0  0  0  0  0  0  0  0  0
  189.5470  178.4300  144.5230 C   0  0  2  0  0  3  0  0  0  0  0  0
  187.3080  177.8140  145.5230 C   0  0  1  0  0  3  0  0  0  0  0  0
  188.4260  177.7540  139.1210 C   0  0  0  0  0  0  0  0  0  0  0  0
  189.0800  177.4810  141.4430 C   0  0  0  0  0  0  0  0  0  0  0  0
  183.0880  179.0710  140.8540 C   0  0  0  0  0  3  0  0  0  0  0  0
  190.2780  177.9220  145.7480 C   0  0  0  0  0  2  0  0  0  0  0  0
  191.8540  177.8760  144.0420 C   0  0  0  0  0  2  0  0  0  0  0  0
  184.5180  178.9100  138.6130 Cl  0  0  0  0  0  0  0  0  0  0  0  0
  186.1310  178.2120  143.5840 C   0  0  0  0  0  0  0  0  0  0  0  0
  182.8150  179.0420  142.2170 C   0  0  0  0  0  3  0  0  0  0  0  0
  185.4360  178.4930  141.2730 C   0  0  0  0  0  0  0  0  0  0  0  0
  187.4150  177.9730  143.2130 C   0  0  0  0  0  0  0  0  0  0  0  0
  187.2530  176.4360  146.1570 C   0  0  0  0  0  1  0  0  0  0  0  0
  188.2320  177.7960  144.3760 N   0  0  0  0  0  0  0  0  0  0  0  0
  191.7020  178.0470  145.4820 N   0  0  0  0  0  2  0  0  0  0  0  0
  189.8550  175.7060  143.0550 C   0  0  0  0  0  1  0  0  0  0  0  0
  183.8300  178.7520  143.1190 C   0  0  0  0  0  3  0  0  0  0  0  0
  185.1250  178.4840  142.6650 C   0  0  0  0  0  0  0  0  0  0  0  0
  190.1470  177.0580  142.4100 C   0  0  2  0  0  3  0  0  0  0  0  0
  188.7460  177.7290  137.6630 C   0  0  0  0  0  2  0  0  0  0  0  0
  187.7000  179.6630  136.7610 O   0  0  0  0  0  1  0  0  0  0  0  0
  188.9340  179.1430  137.1450 C   0  0  0  0  0  2  0  0  0  0  0  0
  1 19  2  0  0  0  0
  1  4  1  0  0  0  0
  2 13  2  0  0  0  0
  2 19  1  0  0  0  0
  3 10  1  0  0  0  0
  4 20  2  0  0  0  0
  5  1  1  0  0  0  0
  6  8  1  0  0  0  0
  7 15  1  1  0  0  0
  7  9  1  0  0  0  0
  8 12  2  0  0  0  0
  9 14  1  1  0  0  0
 10 21  1  6  0  0  0
 11  5  2  0  0  0  0
 11  8  1  0  0  0  0
 12  4  1  0  0  0  0
 12 27  1  0  0  0  0
 13 18  1  0  0  0  0
 15 23  1  0  0  0  0
 16  2  1  0  0  0  0
 17  3  1  0  0  0  0
 18 25  2  0  0  0  0
 19 26  1  0  0  0  0
 20 17  1  0  0  0  0
 20 22  1  0  0  0  0
 22  9  1  0  0  0  0
 22 10  1  0  0  0  0
 23 14  1  0  0  0  0
 26 25  1  0  0  0  0
 26 17  2  0  0  0  0
 27 24  1  1  0  0  0
 27  7  1  0  0  0  0
 28 11  1  0  0  0  0
 29 30  1  0  0  0  0
 30 28  1  0  0  0  0
M  END
>  <MODEL>
6

>  <REMARK>
 VINA RESULT:      -7.7      2.492      5.727
  Name = 
  2 active torsions:
  status: ('A' for Active; 'I' for Inactive)
    1  A    between atoms: C_11  and  C_28
    2  A    between atoms: C_28  and  C_30
                            x       y       z     vdW  Elec       q    Type
                         _______ _______ _______ _____ _____    ______ ____

>  <TORSDO>
F 2

$$$$
=
 OpenBabel11122410303D

 30 35  0  0  1  0  0  0  0  0999 V2000
  187.9740  177.8600  142.6100 C   0  0  0  0  0  0  0  0  0  0  0  0
  186.8990  178.0440  144.9060 C   0  0  0  0  0  0  0  0  0  0  0  0
  184.3280  178.7460  140.7430 N   0  0  0  0  0  2  0  0  0  0  0  0
  187.8240  177.9170  141.1850 C   0  0  0  0  0  0  0  0  0  0  0  0
  189.2470  177.5970  143.1270 C   0  0  0  0  0  3  0  0  0  0  0  0
  191.3380  177.3520  140.1060 O   0  0  0  0  0  1  0  0  0  0  0  0
  187.9790  176.9070  138.2100 C   0  0  1  0  0  3  0  0  0  0  0  0
  190.2200  177.5130  140.9210 C   0  0  0  0  0  0  0  0  0  0  0  0
  186.4850  177.1760  138.3270 C   0  0  2  0  0  3  0  0  0  0  0  0
  184.7160  178.6750  139.3350 C   0  0  1  0  0  3  0  0  0  0  0  0
  190.3560  177.4160  142.3080 C   0  0  0  0  0  0  0  0  0  0  0  0
  188.9640  177.7740  140.3510 C   0  0  0  0  0  0  0  0  0  0  0  0
  185.7520  178.3190  145.6580 C   0  0  0  0  0  3  0  0  0  0  0  0
  186.0720  177.5670  136.9230 C   0  0  0  0  0  2  0  0  0  0  0  0
  188.2590  176.8110  136.7210 C   0  0  0  0  0  2  0  0  0  0  0  0
  188.3200  177.6430  145.8680 Cl  0  0  0  0  0  0  0  0  0  0  0  0
  185.4900  178.4400  141.4900 C   0  0  0  0  0  0  0  0  0  0  0  0
  184.5460  178.6370  145.0440 C   0  0  0  0  0  3  0  0  0  0  0  0
  186.8480  178.0910  143.4750 C   0  0  0  0  0  0  0  0  0  0  0  0
  186.5360  178.1580  140.6720 C   0  0  0  0  0  0  0  0  0  0  0  0
  184.6330  180.0610  138.7210 C   0  0  0  0  0  1  0  0  0  0  0  0
  186.1100  178.2030  139.3060 N   0  0  0  0  0  0  0  0  0  0  0  0
  186.9930  176.9140  136.0060 N   0  0  0  0  0  2  0  0  0  0  0  0
  188.6790  179.3780  138.4290 C   0  0  0  0  0  1  0  0  0  0  0  0
  184.4670  178.6800  143.6580 C   0  0  0  0  0  3  0  0  0  0  0  0
  185.5940  178.4090  142.8760 C   0  0  0  0  0  0  0  0  0  0  0  0
  188.9040  177.9320  138.8600 C   0  0  2  0  0  3  0  0  0  0  0  0
  191.6780  177.1180  142.9330 C   0  0  0  0  0  2  0  0  0  0  0  0
  191.6800  176.5250  145.2350 O   0  0  0  0  0  1  0  0  0  0  0  0
  191.5350  176.0020  143.9520 C   0  0  0  0  0  2  0  0  0  0  0  0
  1  5  1  0  0  0  0
  1 19  1  0  0  0  0
  2 13  1  0  0  0  0
  2 16  1  0  0  0  0
  3 17  1  0  0  0  0
  4  1  2  0  0  0  0
  6  8  1  0  0  0  0
  7 15  1  6  0  0  0
  7  9  1  0  0  0  0
  7 27  1  0  0  0  0
  8 11  1  0  0  0  0
  9 14  1  6  0  0  0
  9 22  1  0  0  0  0
 10 21  1  1  0  0  0
 10  3  1  0  0  0  0
 11 28  1  0  0  0  0
 11  5  2  0  0  0  0
 12  8  2  0  0  0  0
 12  4  1  0  0  0  0
 17 26  1  0  0  0  0
 18 13  2  0  0  0  0
 19  2  2  0  0  0  0
 20  4  1  0  0  0  0
 20 17  2  0  0  0  0
 22 10  1  0  0  0  0
 22 20  1  0  0  0  0
 23 15  1  0  0  0  0
 23 14  1  0  0  0  0
 25 18  1  0  0  0  0
 26 19  1  0  0  0  0
 26 25  2  0  0  0  0
 27 24  1  1  0  0  0
 27 12  1  0  0  0  0
 28 30  1  0  0  0  0
 30 29  1  0  0  0  0
M  END
>  <MODEL>
7

>  <REMARK>
 VINA RESULT:      -7.6      3.236      5.794
  Name = 
  2 active torsions:
  status: ('A' for Active; 'I' for Inactive)
    1  A    between atoms: C_11  and  C_28
    2  A    between atoms: C_28  and  C_30
                            x       y       z     vdW  Elec       q    Type
                         _______ _______ _______ _____ _____    ______ ____

>  <TORSDO>
F 2

$$$$
=
 OpenBabel11122410303D

 30 35  0  0  1  0  0  0  0  0999 V2000
  185.0130  178.5660  141.8310 C   0  0  0  0  0  0  0  0  0  0  0  0
  187.5280  178.3230  141.5640 C   0  0  0  0  0  0  0  0  0  0  0  0
  184.4710  178.3490  137.6800 N   0  0  0  0  0  2  0  0  0  0  0  0
  183.7240  178.6570  141.2090 C   0  0  0  0  0  0  0  0  0  0  0  0
  185.0730  178.6080  143.2280 C   0  0  0  0  0  3  0  0  0  0  0  0
  181.5320  178.8390  144.2080 O   0  0  0  0  0  1  0  0  0  0  0  0
  180.9160  179.9000  140.5230 C   0  0  1  0  0  3  0  0  0  0  0  0
  182.6730  178.7580  143.4130 C   0  0  0  0  0  0  0  0  0  0  0  0
  181.5260  179.8240  139.1310 C   0  0  2  0  0  3  0  0  0  0  0  0
  183.0190  178.4930  137.5850 C   0  0  1  0  0  3  0  0  0  0  0  0
  183.9320  178.7100  144.0160 C   0  0  0  0  0  0  0  0  0  0  0  0
  182.5560  178.7190  142.0150 C   0  0  0  0  0  0  0  0  0  0  0  0
  188.6160  178.1390  140.7040 C   0  0  0  0  0  3  0  0  0  0  0  0
  180.3340  179.6200  138.2190 C   0  0  0  0  0  2  0  0  0  0  0  0
  179.4260  180.0900  140.3050 C   0  0  0  0  0  2  0  0  0  0  0  0
  187.9620  178.4410  143.2680 Cl  0  0  0  0  0  0  0  0  0  0  0  0
  184.7880  178.4270  139.0580 C   0  0  0  0  0  0  0  0  0  0  0  0
  188.4390  178.0420  139.3290 C   0  0  0  0  0  3  0  0  0  0  0  0
  186.2000  178.4120  141.0340 C   0  0  0  0  0  0  0  0  0  0  0  0
  183.6730  178.6380  139.8030 C   0  0  0  0  0  0  0  0  0  0  0  0
  182.4170  177.1910  137.0870 C   0  0  0  0  0  1  0  0  0  0  0  0
  182.5340  178.7740  138.9470 N   0  0  0  0  0  0  0  0  0  0  0  0
  179.1840  180.2230  138.8740 N   0  0  0  0  0  2  0  0  0  0  0  0
  180.7870  177.3480  140.8600 C   0  0  0  0  0  1  0  0  0  0  0  0
  187.1630  178.1340  138.7880 C   0  0  0  0  0  3  0  0  0  0  0  0
  186.0550  178.3200  139.6190 C   0  0  0  0  0  0  0  0  0  0  0  0
  181.1700  178.7060  141.4400 C   0  0  2  0  0  3  0  0  0  0  0  0
  184.0780  178.7710  145.5000 C   0  0  0  0  0  2  0  0  0  0  0  0
  185.6160  179.5270  147.1470 O   0  0  0  0  0  1  0  0  0  0  0  0
  185.5360  178.9680  145.8740 C   0  0  0  0  0  2  0  0  0  0  0  0
  1  5  2  0  0  0  0
  2 16  1  0  0  0  0
  3 17  1  0  0  0  0
  4  1  1  0  0  0  0
  4 12  2  0  0  0  0
  5 11  1  0  0  0  0
  7 15  1  6  0  0  0
  7 27  1  0  0  0  0
  8 11  2  0  0  0  0
  8  6  1  0  0  0  0
  9 14  1  6  0  0  0
  9  7  1  0  0  0  0
 10 21  1  1  0  0  0
 10  3  1  0  0  0  0
 10 22  1  0  0  0  0
 11 28  1  0  0  0  0
 12  8  1  0  0  0  0
 13  2  2  0  0  0  0
 14 23  1  0  0  0  0
 17 26  1  0  0  0  0
 17 20  2  0  0  0  0
 18 13  1  0  0  0  0
 19  2  1  0  0  0  0
 19  1  1  0  0  0  0
 20  4  1  0  0  0  0
 22  9  1  0  0  0  0
 22 20  1  0  0  0  0
 23 15  1  0  0  0  0
 25 18  2  0  0  0  0
 25 26  1  0  0  0  0
 26 19  2  0  0  0  0
 27 24  1  6  0  0  0
 27 12  1  0  0  0  0
 28 30  1  0  0  0  0
 30 29  1  0  0  0  0
M  END
>  <MODEL>
8

>  <REMARK>
 VINA RESULT:      -7.5      4.331      7.025
  Name = 
  2 active torsions:
  status: ('A' for Active; 'I' for Inactive)
    1  A    between atoms: C_11  and  C_28
    2  A    between atoms: C_28  and  C_30
                            x       y       z     vdW  Elec       q    Type
                         _______ _______ _______ _____ _____    ______ ____

>  <TORSDO>
F 2

$$$$
=
 OpenBabel11122410303D

 30 35  0  0  1  0  0  0  0  0999 V2000
  186.5520  178.2150  142.9060 C   0  0  0  0  0  0  0  0  0  0  0  0
  185.9330  178.4320  140.4500 C   0  0  0  0  0  0  0  0  0  0  0  0
  190.5880  177.6610  141.9230 N   0  0  0  0  0  2  0  0  0  0  0  0
  187.5690  177.9980  143.8920 C   0  0  0  0  0  0  0  0  0  0  0  0
  185.2430  178.4310  143.3490 C   0  0  0  0  0  3  0  0  0  0  0  0
  185.5790  178.3470  147.0140 O   0  0  0  0  0  1  0  0  0  0  0  0
  188.9910  176.6210  146.3380 C   0  0  1  0  0  3  0  0  0  0  0  0
  185.9100  178.2930  145.6620 C   0  0  0  0  0  0  0  0  0  0  0  0
  190.0600  176.4460  145.2700 C   0  0  2  0  0  3  0  0  0  0  0  0
  191.1730  177.4860  143.2510 C   0  0  1  0  0  3  0  0  0  0  0  0
  184.9130  178.4640  144.7000 C   0  0  0  0  0  0  0  0  0  0  0  0
  187.2400  178.0720  145.2720 C   0  0  0  0  0  0  0  0  0  0  0  0
  186.3620  178.4660  139.1200 C   0  0  0  0  0  3  0  0  0  0  0  0
  191.3610  176.4670  146.0450 C   0  0  0  0  0  2  0  0  0  0  0  0
  189.6940  176.3780  147.6610 C   0  0  0  0  0  2  0  0  0  0  0  0
  184.1950  178.6330  140.6590 Cl  0  0  0  0  0  0  0  0  0  0  0  0
  189.1980  177.8400  142.1210 C   0  0  0  0  0  0  0  0  0  0  0  0
  187.7030  178.3070  138.7900 C   0  0  0  0  0  3  0  0  0  0  0  0
  186.8810  178.2330  141.5060 C   0  0  0  0  0  0  0  0  0  0  0  0
  188.8790  177.7580  143.4380 C   0  0  0  0  0  0  0  0  0  0  0  0
  192.0740  178.6680  143.5620 C   0  0  0  0  0  1  0  0  0  0  0  0
  190.0510  177.4550  144.2040 N   0  0  0  0  0  0  0  0  0  0  0  0
  191.0700  175.9820  147.3850 N   0  0  0  0  0  2  0  0  0  0  0  0
  189.1760  179.1900  146.4340 C   0  0  0  0  0  1  0  0  0  0  0  0
  188.6410  178.1040  139.7930 C   0  0  0  0  0  3  0  0  0  0  0  0
  188.2460  178.0620  141.1330 C   0  0  0  0  0  0  0  0  0  0  0  0
  188.2690  177.9650  146.3590 C   0  0  2  0  0  3  0  0  0  0  0  0
  183.4900  178.6780  145.0950 C   0  0  0  0  0  2  0  0  0  0  0  0
  181.3310  178.6650  144.1000 O   0  0  0  0  0  1  0  0  0  0  0  0
  182.6570  179.0300  143.8760 C   0  0  0  0  0  2  0  0  0  0  0  0
  1  5  2  0  0  0  0
  1  4  1  0  0  0  0
  2 16  1  0  0  0  0
  2 19  1  0  0  0  0
  3 17  1  0  0  0  0
  3 10  1  0  0  0  0
  4 12  2  0  0  0  0
  5 11  1  0  0  0  0
  7 27  1  0  0  0  0
  7 15  1  1  0  0  0
  8  6  1  0  0  0  0
  9 14  1  1  0  0  0
  9  7  1  0  0  0  0
 10 21  1  1  0  0  0
 10 22  1  0  0  0  0
 11 28  1  0  0  0  0
 11  8  2  0  0  0  0
 12  8  1  0  0  0  0
 12 27  1  0  0  0  0
 13  2  2  0  0  0  0
 14 23  1  0  0  0  0
 17 20  2  0  0  0  0
 18 13  1  0  0  0  0
 18 25  2  0  0  0  0
 19  1  1  0  0  0  0
 20  4  1  0  0  0  0
 20 22  1  0  0  0  0
 22  9  1  0  0  0  0
 23 15  1  0  0  0  0
 25 26  1  0  0  0  0
 26 19  2  0  0  0  0
 26 17  1  0  0  0  0
 27 24  1  6  0  0  0
 30 29  1  0  0  0  0
 30 28  1  0  0  0  0
M  END
>  <MODEL>
9

>  <REMARK>
 VINA RESULT:      -7.3      3.378      6.615
  Name = 
  2 active torsions:
  status: ('A' for Active; 'I' for Inactive)
    1  A    between atoms: C_11  and  C_28
    2  A    between atoms: C_28  and  C_30
                            x       y       z     vdW  Elec       q    Type
                         _______ _______ _______ _____ _____    ______ ____

>  <TORSDO>
F 2

$$$$
