=
 OpenBabel11122411053D

 31 35  0  0  1  0  0  0  0  0999 V2000
  184.3430  178.6730  144.7540 C   0  0  0  0  0  0  0  0  0  0  0  0
  187.9360  177.8310  144.0010 C   0  0  0  0  0  0  0  0  0  0  0  0
  188.5800  177.5740  145.2460 C   0  0  0  0  0  0  0  0  0  0  0  0
  187.3460  178.3580  138.7830 O   0  0  0  0  0  0  0  0  0  0  0  0
  188.5400  178.0520  139.0400 C   0  0  0  0  0  0  0  0  0  0  0  0
  188.5910  177.3870  147.6810 C   0  0  0  0  0  0  0  0  0  0  0  0
  186.5610  178.1850  143.8530 C   0  0  0  0  0  0  0  0  0  0  0  0
  183.8540  178.8930  143.4670 C   0  0  0  0  0  3  0  0  0  0  0  0
  187.9190  177.6460  146.4850 C   0  0  0  0  0  3  0  0  0  0  0  0
  188.1580  177.9590  141.5670 C   0  0  0  0  0  0  0  0  0  0  0  0
  183.5200  178.7980  145.8220 F   0  0  0  0  0  0  0  0  0  0  0  0
  190.6310  177.1490  144.0780 N   0  0  0  0  0  0  0  0  0  0  0  0
  187.9130  177.4660  148.8900 O   0  0  0  0  0  1  0  0  0  0  0  0
  186.8470  178.2950  141.4660 N   0  0  0  0  0  0  0  0  0  0  0  0
  188.7240  177.7220  142.8250 C   0  0  0  0  0  0  0  0  0  0  0  0
  188.9730  177.8440  140.3920 N   0  0  0  0  0  2  0  0  0  0  0  0
  185.6820  178.3230  144.9430 C   0  0  0  0  0  3  0  0  0  0  0  0
  189.9450  177.0500  147.6620 C   0  0  0  0  0  3  0  0  0  0  0  0
  186.0460  178.4140  142.5520 C   0  0  0  0  0  0  0  0  0  0  0  0
  184.7050  178.7630  142.3680 C   0  0  0  0  0  3  0  0  0  0  0  0
  190.0370  177.3860  142.9120 N   0  0  0  0  0  0  0  0  0  0  0  0
  189.9540  177.2300  145.2470 C   0  0  0  0  0  0  0  0  0  0  0  0
  190.6240  176.9710  146.4460 C   0  0  0  0  0  3  0  0  0  0  0  0
  188.4050  176.3070  135.6780 C   0  0  1  0  0  3  0  0  0  0  0  0
  188.9950  178.5580  136.6200 C   0  0  0  0  0  2  0  0  0  0  0  0
  190.3450  175.8280  138.8320 O   0  0  0  0  0  1  0  0  0  0  0  0
  187.3890  175.5610  135.0850 O   0  0  0  0  0  1  0  0  0  0  0  0
  187.9010  177.7200  135.9580 C   0  0  0  0  0  2  0  0  0  0  0  0
  189.9430  176.4460  137.6470 C   0  0  2  0  0  3  0  0  0  0  0  0
  189.5110  177.9000  137.9050 C   0  0  2  0  0  3  0  0  0  0  0  0
  188.8370  175.6340  136.9770 C   0  0  0  0  0  2  0  0  0  0  0  0
  1 17  1  0  0  0  0
  1 11  1  0  0  0  0
  2  3  1  0  0  0  0
  3 22  2  0  0  0  0
  3  9  1  0  0  0  0
  4  5  2  0  0  0  0
  5 16  1  0  0  0  0
  6 13  1  0  0  0  0
  7  2  1  0  0  0  0
  7 17  2  0  0  0  0
  8  1  2  0  0  0  0
  9  6  2  0  0  0  0
 10 15  1  0  0  0  0
 12 22  1  0  0  0  0
 14 10  2  0  0  0  0
 14 19  1  0  0  0  0
 15 21  1  0  0  0  0
 15  2  2  0  0  0  0
 16 10  1  0  0  0  0
 18  6  1  0  0  0  0
 19  7  1  0  0  0  0
 20 19  2  0  0  0  0
 20  8  1  0  0  0  0
 21 12  2  0  0  0  0
 22 23  1  0  0  0  0
 23 18  2  0  0  0  0
 24 27  1  1  0  0  0
 24 28  1  0  0  0  0
 24 31  1  0  0  0  0
 25 30  1  0  0  0  0
 28 25  1  0  0  0  0
 29 30  1  0  0  0  0
 29 26  1  1  0  0  0
 30  5  1  1  0  0  0
 31 29  1  0  0  0  0
M  END
>  <MODEL>
1

>  <REMARK>
 VINA RESULT:     -12.3      0.000      0.000
  Name = 
  1 active torsions:
  status: ('A' for Active; 'I' for Inactive)
    1  A    between atoms: C_5  and  C_30
                            x       y       z     vdW  Elec       q    Type
                         _______ _______ _______ _____ _____    ______ ____

>  <TORSDO>
F 1

$$$$
=
 OpenBabel11122411053D

 31 35  0  0  1  0  0  0  0  0999 V2000
  189.9800  177.0700  146.4830 C   0  0  0  0  0  0  0  0  0  0  0  0
  187.6430  177.7920  143.6190 C   0  0  0  0  0  0  0  0  0  0  0  0
  186.3790  178.1350  144.1810 C   0  0  0  0  0  0  0  0  0  0  0  0
  191.2970  176.8630  139.9260 O   0  0  0  0  0  0  0  0  0  0  0  0
  190.2080  177.1680  139.3700 C   0  0  0  0  0  0  0  0  0  0  0  0
  184.8800  178.5150  146.0720 C   0  0  0  0  0  0  0  0  0  0  0  0
  188.8050  177.4480  144.3750 C   0  0  0  0  0  0  0  0  0  0  0  0
  191.1490  176.7570  145.7900 C   0  0  0  0  0  3  0  0  0  0  0  0
  186.1350  178.1720  145.5660 C   0  0  0  0  0  3  0  0  0  0  0  0
  188.9600  177.4680  141.5810 C   0  0  0  0  0  0  0  0  0  0  0  0
  189.9670  177.0430  147.8370 F   0  0  0  0  0  0  0  0  0  0  0  0
  185.4960  178.4330  141.9710 N   0  0  0  0  0  0  0  0  0  0  0  0
  184.6690  178.5430  147.4430 O   0  0  0  0  0  1  0  0  0  0  0  0
  190.0430  177.1460  142.3330 N   0  0  0  0  0  0  0  0  0  0  0  0
  187.7490  177.7940  142.2040 C   0  0  0  0  0  0  0  0  0  0  0  0
  189.0440  177.4750  140.1490 N   0  0  0  0  0  2  0  0  0  0  0  0
  188.8220  177.4120  145.7810 C   0  0  0  0  0  3  0  0  0  0  0  0
  183.8370  178.8260  145.1990 C   0  0  0  0  0  3  0  0  0  0  0  0
  190.0020  177.1260  143.6870 C   0  0  0  0  0  0  0  0  0  0  0  0
  191.1590  176.7860  144.3950 C   0  0  0  0  0  3  0  0  0  0  0  0
  186.6720  178.1140  141.4390 N   0  0  0  0  0  0  0  0  0  0  0  0
  185.3090  178.4560  143.3110 C   0  0  0  0  0  0  0  0  0  0  0  0
  184.0530  178.7980  143.8210 C   0  0  0  0  0  3  0  0  0  0  0  0
  187.3890  176.9820  136.8430 C   0  0  1  0  0  3  0  0  0  0  0  0
  189.3690  178.4340  137.3670 C   0  0  0  0  0  2  0  0  0  0  0  0
  190.2830  174.8020  137.7440 O   0  0  0  0  0  1  0  0  0  0  0  0
  186.0160  176.8340  137.0280 O   0  0  0  0  0  1  0  0  0  0  0  0
  187.8610  178.2530  137.5440 C   0  0  0  0  0  2  0  0  0  0  0  0
  189.6200  175.9180  137.2310 C   0  0  2  0  0  3  0  0  0  0  0  0
  190.1480  177.2140  137.8710 C   0  0  2  0  0  3  0  0  0  0  0  0
  188.1110  175.7650  137.4130 C   0  0  0  0  0  2  0  0  0  0  0  0
  1 11  1  0  0  0  0
  2  3  1  0  0  0  0
  2  7  1  0  0  0  0
  3  9  1  0  0  0  0
  5  4  2  0  0  0  0
  5 16  1  0  0  0  0
  6 13  1  0  0  0  0
  7 17  1  0  0  0  0
  8  1  1  0  0  0  0
  9  6  2  0  0  0  0
 10 15  1  0  0  0  0
 10 14  2  0  0  0  0
 12 22  1  0  0  0  0
 14 19  1  0  0  0  0
 15  2  2  0  0  0  0
 16 10  1  0  0  0  0
 17  1  2  0  0  0  0
 18  6  1  0  0  0  0
 19  7  2  0  0  0  0
 19 20  1  0  0  0  0
 20  8  2  0  0  0  0
 21 12  2  0  0  0  0
 21 15  1  0  0  0  0
 22 23  1  0  0  0  0
 22  3  2  0  0  0  0
 23 18  2  0  0  0  0
 24 27  1  1  0  0  0
 24 31  1  0  0  0  0
 24 28  1  0  0  0  0
 25 28  1  0  0  0  0
 25 30  1  0  0  0  0
 29 31  1  0  0  0  0
 29 26  1  1  0  0  0
 29 30  1  0  0  0  0
 30  5  1  1  0  0  0
M  END
>  <MODEL>
2

>  <REMARK>
 VINA RESULT:     -12.2      1.863      4.039
  Name = 
  1 active torsions:
  status: ('A' for Active; 'I' for Inactive)
    1  A    between atoms: C_5  and  C_30
                            x       y       z     vdW  Elec       q    Type
                         _______ _______ _______ _____ _____    ______ ____

>  <TORSDO>
F 1

$$$$
=
 OpenBabel11122411053D

 31 35  0  0  1  0  0  0  0  0999 V2000
  184.8880  178.5340  145.4060 C   0  0  0  0  0  0  0  0  0  0  0  0
  187.9490  177.8620  143.3170 C   0  0  0  0  0  0  0  0  0  0  0  0
  189.0090  177.5360  144.2130 C   0  0  0  0  0  0  0  0  0  0  0  0
  185.4700  178.7510  138.7440 O   0  0  0  0  0  0  0  0  0  0  0  0
  186.6750  178.4650  138.5170 C   0  0  0  0  0  0  0  0  0  0  0  0
  189.9200  177.1720  146.4490 C   0  0  0  0  0  0  0  0  0  0  0  0
  186.6160  178.1840  143.7150 C   0  0  0  0  0  0  0  0  0  0  0  0
  183.9570  178.8320  144.4110 C   0  0  0  0  0  3  0  0  0  0  0  0
  188.8530  177.4970  145.6100 C   0  0  0  0  0  3  0  0  0  0  0  0
  187.2550  178.1750  140.9910 C   0  0  0  0  0  0  0  0  0  0  0  0
  184.5180  178.5540  146.7080 F   0  0  0  0  0  0  0  0  0  0  0  0
  190.4830  177.2630  142.3410 N   0  0  0  0  0  0  0  0  0  0  0  0
  189.7370  177.1410  147.8240 O   0  0  0  0  0  1  0  0  0  0  0  0
  185.9990  178.4760  141.4070 N   0  0  0  0  0  0  0  0  0  0  0  0
  188.2470  177.8650  141.9290 C   0  0  0  0  0  0  0  0  0  0  0  0
  187.5780  178.1720  139.5930 N   0  0  0  0  0  2  0  0  0  0  0  0
  186.2030  178.2140  145.0590 C   0  0  0  0  0  3  0  0  0  0  0  0
  191.1720  176.8800  145.9050 C   0  0  0  0  0  3  0  0  0  0  0  0
  185.6560  178.4900  142.7180 C   0  0  0  0  0  0  0  0  0  0  0  0
  184.3410  178.8090  143.0700 C   0  0  0  0  0  3  0  0  0  0  0  0
  189.5000  177.5650  141.4990 N   0  0  0  0  0  0  0  0  0  0  0  0
  190.2860  177.2370  143.6790 C   0  0  0  0  0  0  0  0  0  0  0  0
  191.3530  176.9120  144.5230 C   0  0  0  0  0  3  0  0  0  0  0  0
  189.1110  176.2640  136.6210 C   0  0  1  0  0  3  0  0  0  0  0  0
  186.7630  177.1240  136.3930 C   0  0  0  0  0  2  0  0  0  0  0  0
  189.0320  179.8540  137.6430 O   0  0  0  0  0  1  0  0  0  0  0  0
  189.8840  175.1880  137.0520 O   0  0  0  0  0  1  0  0  0  0  0  0
  187.6350  175.9520  136.8470 C   0  0  0  0  0  2  0  0  0  0  0  0
  188.6630  178.7050  136.9430 C   0  0  2  0  0  3  0  0  0  0  0  0
  187.1570  178.4270  137.0960 C   0  0  2  0  0  3  0  0  0  0  0  0
  189.5100  177.5170  137.3940 C   0  0  0  0  0  2  0  0  0  0  0  0
  1 11  1  0  0  0  0
  2  7  1  0  0  0  0
  2  3  1  0  0  0  0
  3  9  1  0  0  0  0
  5  4  2  0  0  0  0
  5 16  1  0  0  0  0
  6 13  1  0  0  0  0
  7 17  2  0  0  0  0
  8  1  2  0  0  0  0
  9  6  2  0  0  0  0
 10 14  2  0  0  0  0
 10 15  1  0  0  0  0
 12 22  1  0  0  0  0
 14 19  1  0  0  0  0
 15  2  2  0  0  0  0
 16 10  1  0  0  0  0
 17  1  1  0  0  0  0
 18  6  1  0  0  0  0
 19 20  2  0  0  0  0
 19  7  1  0  0  0  0
 20  8  1  0  0  0  0
 21 15  1  0  0  0  0
 21 12  2  0  0  0  0
 22  3  2  0  0  0  0
 22 23  1  0  0  0  0
 23 18  2  0  0  0  0
 24 28  1  0  0  0  0
 24 27  1  1  0  0  0
 24 31  1  0  0  0  0
 25 28  1  0  0  0  0
 25 30  1  0  0  0  0
 29 30  1  0  0  0  0
 29 31  1  0  0  0  0
 29 26  1  1  0  0  0
 30  5  1  1  0  0  0
M  END
>  <MODEL>
3

>  <REMARK>
 VINA RESULT:     -12.0      1.292      1.849
  Name = 
  1 active torsions:
  status: ('A' for Active; 'I' for Inactive)
    1  A    between atoms: C_5  and  C_30
                            x       y       z     vdW  Elec       q    Type
                         _______ _______ _______ _____ _____    ______ ____

>  <TORSDO>
F 1

$$$$
=
 OpenBabel11122411053D

 31 35  0  0  1  0  0  0  0  0999 V2000
  189.9280  177.1280  146.7480 C   0  0  0  0  0  0  0  0  0  0  0  0
  187.8860  177.8730  143.6720 C   0  0  0  0  0  0  0  0  0  0  0  0
  186.5740  178.2220  144.1100 C   0  0  0  0  0  0  0  0  0  0  0  0
  191.8770  176.9360  140.3500 O   0  0  0  0  0  0  0  0  0  0  0  0
  190.8500  177.2500  139.6920 C   0  0  0  0  0  0  0  0  0  0  0  0
  184.9000  178.6030  145.8470 C   0  0  0  0  0  0  0  0  0  0  0  0
  188.9660  177.5210  144.5370 C   0  0  0  0  0  0  0  0  0  0  0  0
  191.1570  176.8100  146.1710 C   0  0  0  0  0  3  0  0  0  0  0  0
  186.1970  178.2560  145.4640 C   0  0  0  0  0  3  0  0  0  0  0  0
  189.3930  177.5490  141.7720 C   0  0  0  0  0  0  0  0  0  0  0  0
  189.7820  177.0960  148.0940 F   0  0  0  0  0  0  0  0  0  0  0  0
  185.9130  178.5330  141.8260 N   0  0  0  0  0  0  0  0  0  0  0  0
  184.5560  178.6280  147.1910 O   0  0  0  0  0  1  0  0  0  0  0  0
  190.3950  177.2180  142.6240 N   0  0  0  0  0  0  0  0  0  0  0  0
  188.1290  177.8800  142.2740 C   0  0  0  0  0  0  0  0  0  0  0  0
  189.6160  177.5610  140.3550 N   0  0  0  0  0  2  0  0  0  0  0  0
  188.8450  177.4790  145.9380 C   0  0  0  0  0  3  0  0  0  0  0  0
  183.9490  178.9240  144.8770 C   0  0  0  0  0  3  0  0  0  0  0  0
  190.2230  177.1940  143.9680 C   0  0  0  0  0  0  0  0  0  0  0  0
  191.3030  176.8440  144.7830 C   0  0  0  0  0  3  0  0  0  0  0  0
  187.1340  178.2090  141.4090 N   0  0  0  0  0  0  0  0  0  0  0  0
  185.5960  178.5520  143.1410 C   0  0  0  0  0  0  0  0  0  0  0  0
  184.2980  178.8990  143.5270 C   0  0  0  0  0  3  0  0  0  0  0  0
  190.2650  174.7170  136.9330 C   0  0  1  0  0  3  0  0  0  0  0  0
  189.5750  177.0550  137.5340 C   0  0  0  0  0  2  0  0  0  0  0  0
  193.2360  176.5540  138.2530 O   0  0  0  0  0  1  0  0  0  0  0  0
  189.8930  173.3760  136.9990 O   0  0  0  0  0  1  0  0  0  0  0  0
  189.1850  175.5770  137.5820 C   0  0  0  0  0  2  0  0  0  0  0  0
  192.0140  176.3770  137.6020 C   0  0  2  0  0  3  0  0  0  0  0  0
  190.9360  177.3020  138.1940 C   0  0  2  0  0  3  0  0  0  0  0  0
  191.5960  174.9090  137.6530 C   0  0  0  0  0  2  0  0  0  0  0  0
  1 11  1  0  0  0  0
  2  3  1  0  0  0  0
  2  7  1  0  0  0  0
  3  9  1  0  0  0  0
  5  4  2  0  0  0  0
  5 16  1  0  0  0  0
  6 13  1  0  0  0  0
  7 17  1  0  0  0  0
  8  1  1  0  0  0  0
  9  6  2  0  0  0  0
 10 15  1  0  0  0  0
 10 14  2  0  0  0  0
 12 22  1  0  0  0  0
 14 19  1  0  0  0  0
 15  2  2  0  0  0  0
 16 10  1  0  0  0  0
 17  1  2  0  0  0  0
 18  6  1  0  0  0  0
 19  7  2  0  0  0  0
 19 20  1  0  0  0  0
 20  8  2  0  0  0  0
 21 12  2  0  0  0  0
 21 15  1  0  0  0  0
 22 23  1  0  0  0  0
 22  3  2  0  0  0  0
 23 18  2  0  0  0  0
 24 27  1  1  0  0  0
 24 28  1  0  0  0  0
 24 31  1  0  0  0  0
 25 28  1  0  0  0  0
 25 30  1  0  0  0  0
 29 31  1  0  0  0  0
 29 30  1  0  0  0  0
 29 26  1  1  0  0  0
 30  5  1  1  0  0  0
M  END
>  <MODEL>
4

>  <REMARK>
 VINA RESULT:     -11.7      2.149      4.251
  Name = 
  1 active torsions:
  status: ('A' for Active; 'I' for Inactive)
    1  A    between atoms: C_5  and  C_30
                            x       y       z     vdW  Elec       q    Type
                         _______ _______ _______ _____ _____    ______ ____

>  <TORSDO>
F 1

$$$$
=
 OpenBabel11122411053D

 31 35  0  0  1  0  0  0  0  0999 V2000
  186.7840  178.1210  147.3880 C   0  0  0  0  0  0  0  0  0  0  0  0
  187.5630  177.8930  143.7110 C   0  0  0  0  0  0  0  0  0  0  0  0
  188.9580  177.6230  143.5900 C   0  0  0  0  0  0  0  0  0  0  0  0
  182.5810  178.8000  142.2280 O   0  0  0  0  0  0  0  0  0  0  0  0
  183.3010  178.6530  141.2050 C   0  0  0  0  0  0  0  0  0  0  0  0
  191.1750  177.2190  144.5300 C   0  0  0  0  0  0  0  0  0  0  0  0
  186.8690  178.0520  144.9480 C   0  0  0  0  0  0  0  0  0  0  0  0
  185.4150  178.3820  147.3470 C   0  0  0  0  0  3  0  0  0  0  0  0
  189.8150  177.4830  144.6960 C   0  0  0  0  0  3  0  0  0  0  0  0
  185.4420  178.2740  142.5510 C   0  0  0  0  0  0  0  0  0  0  0  0
  187.4200  178.0250  148.5800 F   0  0  0  0  0  0  0  0  0  0  0  0
  188.7320  177.6160  141.2030 N   0  0  0  0  0  0  0  0  0  0  0  0
  191.9970  177.0860  145.6400 O   0  0  0  0  0  1  0  0  0  0  0  0
  184.8160  178.4200  143.7470 N   0  0  0  0  0  0  0  0  0  0  0  0
  186.8160  178.0110  142.5100 C   0  0  0  0  0  0  0  0  0  0  0  0
  184.7060  178.3890  141.3250 N   0  0  0  0  0  2  0  0  0  0  0  0
  187.5010  177.9580  146.2010 C   0  0  0  0  0  3  0  0  0  0  0  0
  191.7090  177.0900  143.2470 C   0  0  0  0  0  3  0  0  0  0  0  0
  185.4760  178.3190  144.9250 C   0  0  0  0  0  0  0  0  0  0  0  0
  184.7630  178.4800  146.1170 C   0  0  0  0  0  3  0  0  0  0  0  0
  187.4310  177.8670  141.3070 N   0  0  0  0  0  0  0  0  0  0  0  0
  189.5180  177.4880  142.2960 C   0  0  0  0  0  0  0  0  0  0  0  0
  190.8810  177.2240  142.1330 C   0  0  0  0  0  3  0  0  0  0  0  0
  183.7890  176.8100  137.9290 C   0  0  1  0  0  3  0  0  0  0  0  0
  181.9210  177.4660  139.4720 C   0  0  0  0  0  2  0  0  0  0  0  0
  184.3660  180.3040  139.1100 O   0  0  0  0  0  1  0  0  0  0  0  0
  184.6680  175.7820  137.5900 O   0  0  0  0  0  1  0  0  0  0  0  0
  182.8880  176.3510  139.0720 C   0  0  0  0  0  2  0  0  0  0  0  0
  183.6380  179.1740  138.7350 C   0  0  2  0  0  3  0  0  0  0  0  0
  182.6650  178.7510  139.8490 C   0  0  2  0  0  3  0  0  0  0  0  0
  184.5870  178.0410  138.3470 C   0  0  0  0  0  2  0  0  0  0  0  0
  1 11  1  0  0  0  0
  2  7  1  0  0  0  0
  3  2  1  0  0  0  0
  3  9  1  0  0  0  0
  5 16  1  0  0  0  0
  5  4  2  0  0  0  0
  6  9  2  0  0  0  0
  6 13  1  0  0  0  0
  7 17  1  0  0  0  0
  8  1  1  0  0  0  0
 10 14  2  0  0  0  0
 12 21  2  0  0  0  0
 12 22  1  0  0  0  0
 14 19  1  0  0  0  0
 15 10  1  0  0  0  0
 15  2  2  0  0  0  0
 16 10  1  0  0  0  0
 17  1  2  0  0  0  0
 18  6  1  0  0  0  0
 19  7  2  0  0  0  0
 19 20  1  0  0  0  0
 20  8  2  0  0  0  0
 21 15  1  0  0  0  0
 22  3  2  0  0  0  0
 23 22  1  0  0  0  0
 23 18  2  0  0  0  0
 24 27  1  1  0  0  0
 24 31  1  0  0  0  0
 24 28  1  0  0  0  0
 25 30  1  0  0  0  0
 28 25  1  0  0  0  0
 29 26  1  1  0  0  0
 29 30  1  0  0  0  0
 30  5  1  1  0  0  0
 31 29  1  0  0  0  0
M  END
>  <MODEL>
5

>  <REMARK>
 VINA RESULT:     -11.4      3.122      4.518
  Name = 
  1 active torsions:
  status: ('A' for Active; 'I' for Inactive)
    1  A    between atoms: C_5  and  C_30
                            x       y       z     vdW  Elec       q    Type
                         _______ _______ _______ _____ _____    ______ ____

>  <TORSDO>
F 1

$$$$
=
 OpenBabel11122411053D

 31 35  0  0  1  0  0  0  0  0999 V2000
  191.4190  176.3990  145.1900 C   0  0  0  0  0  0  0  0  0  0  0  0
  188.0750  177.6530  143.9930 C   0  0  0  0  0  0  0  0  0  0  0  0
  187.2970  177.9520  145.1500 C   0  0  0  0  0  0  0  0  0  0  0  0
  189.3150  177.1750  138.8860 O   0  0  0  0  0  0  0  0  0  0  0  0
  188.1360  177.6070  138.9920 C   0  0  0  0  0  0  0  0  0  0  0  0
  186.9730  178.0870  147.5670 C   0  0  0  0  0  0  0  0  0  0  0  0
  189.4110  177.1500  144.0180 C   0  0  0  0  0  0  0  0  0  0  0  0
  192.0530  176.1540  143.9720 C   0  0  0  0  0  3  0  0  0  0  0  0
  187.7710  177.7800  146.4630 C   0  0  0  0  0  3  0  0  0  0  0  0
  188.1760  177.6030  141.5480 C   0  0  0  0  0  0  0  0  0  0  0  0
  192.0690  176.1600  146.3530 F   0  0  0  0  0  0  0  0  0  0  0  0
  185.4830  178.6280  143.7340 N   0  0  0  0  0  0  0  0  0  0  0  0
  187.4670  177.9070  148.8510 O   0  0  0  0  0  1  0  0  0  0  0  0
  189.4440  177.1250  141.6120 N   0  0  0  0  0  0  0  0  0  0  0  0
  187.4720  177.8730  142.7280 C   0  0  0  0  0  0  0  0  0  0  0  0
  187.5460  177.8320  140.2800 N   0  0  0  0  0  2  0  0  0  0  0  0
  190.1120  176.8920  145.2100 C   0  0  0  0  0  3  0  0  0  0  0  0
  185.6790  178.5730  147.3790 C   0  0  0  0  0  3  0  0  0  0  0  0
  190.0720  176.8940  142.7900 C   0  0  0  0  0  0  0  0  0  0  0  0
  191.3800  176.4010  142.7750 C   0  0  0  0  0  3  0  0  0  0  0  0
  186.2020  178.3510  142.6510 N   0  0  0  0  0  0  0  0  0  0  0  0
  185.9810  178.4470  144.9790 C   0  0  0  0  0  0  0  0  0  0  0  0
  185.1850  178.7530  146.0870 C   0  0  0  0  0  3  0  0  0  0  0  0
  188.4880  176.5540  135.3670 C   0  0  1  0  0  3  0  0  0  0  0  0
  186.7290  176.6180  137.1580 C   0  0  0  0  0  2  0  0  0  0  0  0
  188.7700  179.7800  137.2250 O   0  0  0  0  0  1  0  0  0  0  0  0
  189.4410  175.7480  134.7470 O   0  0  0  0  0  1  0  0  0  0  0  0
  187.7740  175.7530  136.4520 C   0  0  0  0  0  2  0  0  0  0  0  0
  188.1450  178.6610  136.6740 C   0  0  2  0  0  3  0  0  0  0  0  0
  187.3520  177.8900  137.7430 C   0  0  2  0  0  3  0  0  0  0  0  0
  189.1740  177.7720  135.9770 C   0  0  0  0  0  2  0  0  0  0  0  0
  1 17  1  0  0  0  0
  1 11  1  0  0  0  0
  2  7  1  0  0  0  0
  2  3  1  0  0  0  0
  3  9  1  0  0  0  0
  4  5  2  0  0  0  0
  5 16  1  0  0  0  0
  6 13  1  0  0  0  0
  7 17  2  0  0  0  0
  8  1  2  0  0  0  0
  9  6  2  0  0  0  0
 10 14  2  0  0  0  0
 10 15  1  0  0  0  0
 12 22  1  0  0  0  0
 14 19  1  0  0  0  0
 15  2  2  0  0  0  0
 16 10  1  0  0  0  0
 18  6  1  0  0  0  0
 19  7  1  0  0  0  0
 20 19  2  0  0  0  0
 20  8  1  0  0  0  0
 21 15  1  0  0  0  0
 21 12  2  0  0  0  0
 22  3  2  0  0  0  0
 22 23  1  0  0  0  0
 23 18  2  0  0  0  0
 24 27  1  1  0  0  0
 24 31  1  0  0  0  0
 24 28  1  0  0  0  0
 25 30  1  0  0  0  0
 28 25  1  0  0  0  0
 29 26  1  1  0  0  0
 29 30  1  0  0  0  0
 30  5  1  1  0  0  0
 31 29  1  0  0  0  0
M  END
>  <MODEL>
6

>  <REMARK>
 VINA RESULT:     -10.8      2.238      4.044
  Name = 
  1 active torsions:
  status: ('A' for Active; 'I' for Inactive)
    1  A    between atoms: C_5  and  C_30
                            x       y       z     vdW  Elec       q    Type
                         _______ _______ _______ _____ _____    ______ ____

>  <TORSDO>
F 1

$$$$
=
 OpenBabel11122411053D

 31 35  0  0  1  0  0  0  0  0999 V2000
  191.0220  177.2060  142.1340 C   0  0  0  0  0  0  0  0  0  0  0  0
  187.8150  177.8570  143.9980 C   0  0  0  0  0  0  0  0  0  0  0  0
  188.1040  177.7420  145.3900 C   0  0  0  0  0  0  0  0  0  0  0  0
  185.0000  178.6600  139.6080 O   0  0  0  0  0  0  0  0  0  0  0  0
  184.2500  178.7790  140.6130 C   0  0  0  0  0  0  0  0  0  0  0  0
  189.6200  177.3360  147.2610 C   0  0  0  0  0  0  0  0  0  0  0  0
  188.7690  177.6810  142.9510 C   0  0  0  0  0  0  0  0  0  0  0  0
  190.5890  177.3500  140.8160 C   0  0  0  0  0  3  0  0  0  0  0  0
  189.3830  177.4380  145.8890 C   0  0  0  0  0  3  0  0  0  0  0  0
  186.1220  178.2980  142.2860 C   0  0  0  0  0  0  0  0  0  0  0  0
  192.3170  176.9070  142.3920 F   0  0  0  0  0  0  0  0  0  0  0  0
  185.8120  178.2370  145.8890 N   0  0  0  0  0  0  0  0  0  0  0  0
  190.8930  177.0340  147.7240 O   0  0  0  0  0  1  0  0  0  0  0  0
  187.0570  178.1230  141.3180 N   0  0  0  0  0  0  0  0  0  0  0  0
  186.4800  178.1690  143.6340 C   0  0  0  0  0  0  0  0  0  0  0  0
  184.7660  178.6130  141.9410 N   0  0  0  0  0  2  0  0  0  0  0  0
  190.1210  177.3700  143.1880 C   0  0  0  0  0  3  0  0  0  0  0  0
  188.5770  177.5360  148.1650 C   0  0  0  0  0  3  0  0  0  0  0  0
  188.3470  177.8230  141.6050 C   0  0  0  0  0  0  0  0  0  0  0  0
  189.2540  177.6590  140.5530 C   0  0  0  0  0  3  0  0  0  0  0  0
  185.5340  178.3460  144.5930 N   0  0  0  0  0  0  0  0  0  0  0  0
  187.0590  177.9430  146.3230 C   0  0  0  0  0  0  0  0  0  0  0  0
  187.3000  177.8400  147.6970 C   0  0  0  0  0  3  0  0  0  0  0  0
  181.5820  177.5040  138.2410 C   0  0  1  0  0  3  0  0  0  0  0  0
  181.8940  177.9060  140.7000 C   0  0  0  0  0  2  0  0  0  0  0  0
  183.3660  180.7480  138.7190 O   0  0  0  0  0  1  0  0  0  0  0  0
  181.6490  176.5410  137.2360 O   0  0  0  0  0  1  0  0  0  0  0  0
  181.9480  176.8670  139.5790 C   0  0  0  0  0  2  0  0  0  0  0  0
  182.4930  179.7020  139.0170 C   0  0  2  0  0  3  0  0  0  0  0  0
  182.8000  179.1060  140.4020 C   0  0  2  0  0  3  0  0  0  0  0  0
  182.5440  178.6430  137.9170 C   0  0  0  0  0  2  0  0  0  0  0  0
  1 11  1  0  0  0  0
  1 17  1  0  0  0  0
  2  3  1  0  0  0  0
  3  9  2  0  0  0  0
  3 22  1  0  0  0  0
  4  5  2  0  0  0  0
  5 16  1  0  0  0  0
  6 13  1  0  0  0  0
  6 18  2  0  0  0  0
  7 17  2  0  0  0  0
  7  2  1  0  0  0  0
  8  1  2  0  0  0  0
  9  6  1  0  0  0  0
 10 15  1  0  0  0  0
 12 22  1  0  0  0  0
 14 19  1  0  0  0  0
 14 10  2  0  0  0  0
 15  2  2  0  0  0  0
 15 21  1  0  0  0  0
 16 10  1  0  0  0  0
 19  7  1  0  0  0  0
 20  8  1  0  0  0  0
 20 19  2  0  0  0  0
 21 12  2  0  0  0  0
 22 23  2  0  0  0  0
 23 18  1  0  0  0  0
 24 27  1  6  0  0  0
 24 28  1  0  0  0  0
 28 25  1  0  0  0  0
 29 26  1  6  0  0  0
 29 30  1  0  0  0  0
 30  5  1  6  0  0  0
 30 25  1  0  0  0  0
 31 24  1  0  0  0  0
 31 29  1  0  0  0  0
M  END
>  <MODEL>
7

>  <REMARK>
 VINA RESULT:     -10.8      3.339      5.287
  Name = 
  1 active torsions:
  status: ('A' for Active; 'I' for Inactive)
    1  A    between atoms: C_5  and  C_30
                            x       y       z     vdW  Elec       q    Type
                         _______ _______ _______ _____ _____    ______ ____

>  <TORSDO>
F 1

$$$$
=
 OpenBabel11122411053D

 31 35  0  0  1  0  0  0  0  0999 V2000
  185.5680  178.0890  146.0870 C   0  0  0  0  0  0  0  0  0  0  0  0
  184.8150  178.5040  142.4210 C   0  0  0  0  0  0  0  0  0  0  0  0
  183.4120  178.7300  142.3000 C   0  0  0  0  0  0  0  0  0  0  0  0
  189.8410  177.8670  140.9440 O   0  0  0  0  0  0  0  0  0  0  0  0
  189.1250  178.0470  139.9230 C   0  0  0  0  0  0  0  0  0  0  0  0
  181.1730  178.9990  143.2370 C   0  0  0  0  0  0  0  0  0  0  0  0
  185.5030  178.2980  143.6540 C   0  0  0  0  0  0  0  0  0  0  0  0
  186.9460  177.8800  146.0460 C   0  0  0  0  0  3  0  0  0  0  0  0
  182.5410  178.7740  143.4030 C   0  0  0  0  0  3  0  0  0  0  0  0
  186.9600  178.2690  141.2650 C   0  0  0  0  0  0  0  0  0  0  0  0
  184.9180  178.0920  147.2760 F   0  0  0  0  0  0  0  0  0  0  0  0
  183.6600  178.8870  139.9200 N   0  0  0  0  0  0  0  0  0  0  0  0
  180.3360  179.0370  144.3430 O   0  0  0  0  0  1  0  0  0  0  0  0
  187.5790  178.0760  142.4570 N   0  0  0  0  0  0  0  0  0  0  0  0
  185.5770  178.4850  141.2240 C   0  0  0  0  0  0  0  0  0  0  0  0
  187.7100  178.2530  140.0430 N   0  0  0  0  0  2  0  0  0  0  0  0
  184.8560  178.2950  144.9030 C   0  0  0  0  0  3  0  0  0  0  0  0
  180.6470  179.1840  141.9580 C   0  0  0  0  0  3  0  0  0  0  0  0
  186.9050  178.0830  143.6320 C   0  0  0  0  0  0  0  0  0  0  0  0
  187.6120  177.8780  144.8200 C   0  0  0  0  0  3  0  0  0  0  0  0
  184.9690  178.6770  140.0240 N   0  0  0  0  0  0  0  0  0  0  0  0
  182.8600  178.9210  141.0100 C   0  0  0  0  0  0  0  0  0  0  0  0
  181.4890  179.1450  140.8470 C   0  0  0  0  0  3  0  0  0  0  0  0
  188.0010  177.0100  136.4550 C   0  0  1  0  0  3  0  0  0  0  0  0
  189.0560  178.9850  137.5920 C   0  0  0  0  0  2  0  0  0  0  0  0
  190.5550  175.7840  138.8850 O   0  0  0  0  0  1  0  0  0  0  0  0
  186.7930  176.4700  136.0180 O   0  0  0  0  0  1  0  0  0  0  0  0
  187.7460  178.3730  137.0920 C   0  0  0  0  0  2  0  0  0  0  0  0
  189.9630  176.6500  137.9660 C   0  0  2  0  0  3  0  0  0  0  0  0
  189.7770  178.0530  138.5710 C   0  0  2  0  0  3  0  0  0  0  0  0
  188.6430  176.0660  137.4660 C   0  0  0  0  0  2  0  0  0  0  0  0
  1 11  1  0  0  0  0
  2  7  1  0  0  0  0
  3  2  1  0  0  0  0
  3  9  1  0  0  0  0
  5 16  1  0  0  0  0
  5  4  2  0  0  0  0
  6  9  2  0  0  0  0
  6 13  1  0  0  0  0
  7 17  1  0  0  0  0
  8  1  1  0  0  0  0
 10 14  2  0  0  0  0
 12 21  2  0  0  0  0
 12 22  1  0  0  0  0
 14 19  1  0  0  0  0
 15 10  1  0  0  0  0
 15  2  2  0  0  0  0
 16 10  1  0  0  0  0
 17  1  2  0  0  0  0
 18  6  1  0  0  0  0
 19  7  2  0  0  0  0
 19 20  1  0  0  0  0
 20  8  2  0  0  0  0
 21 15  1  0  0  0  0
 22  3  2  0  0  0  0
 23 22  1  0  0  0  0
 23 18  2  0  0  0  0
 24 27  1  1  0  0  0
 24 28  1  0  0  0  0
 24 31  1  0  0  0  0
 25 30  1  0  0  0  0
 28 25  1  0  0  0  0
 29 30  1  0  0  0  0
 29 26  1  1  0  0  0
 30  5  1  1  0  0  0
 31 29  1  0  0  0  0
M  END
>  <MODEL>
8

>  <REMARK>
 VINA RESULT:     -10.5      2.368      4.913
  Name = 
  1 active torsions:
  status: ('A' for Active; 'I' for Inactive)
    1  A    between atoms: C_5  and  C_30
                            x       y       z     vdW  Elec       q    Type
                         _______ _______ _______ _____ _____    ______ ____

>  <TORSDO>
F 1

$$$$
=
 OpenBabel11122411053D

 31 35  0  0  1  0  0  0  0  0999 V2000
  188.5350  177.3360  146.0570 C   0  0  0  0  0  0  0  0  0  0  0  0
  187.3240  178.0740  142.5680 C   0  0  0  0  0  0  0  0  0  0  0  0
  188.4430  177.9400  141.6940 C   0  0  0  0  0  0  0  0  0  0  0  0
  182.3520  178.9680  144.0910 O   0  0  0  0  0  0  0  0  0  0  0  0
  182.4430  179.1280  142.8450 C   0  0  0  0  0  0  0  0  0  0  0  0
  190.7980  177.4720  141.2480 C   0  0  0  0  0  0  0  0  0  0  0  0
  187.3650  177.8750  143.9810 C   0  0  0  0  0  0  0  0  0  0  0  0
  187.3550  177.5040  146.7800 C   0  0  0  0  0  3  0  0  0  0  0  0
  189.7310  177.5920  142.1400 C   0  0  0  0  0  3  0  0  0  0  0  0
  184.9390  178.5800  142.7790 C   0  0  0  0  0  0  0  0  0  0  0  0
  189.6790  176.9940  146.6960 F   0  0  0  0  0  0  0  0  0  0  0  0
  187.0380  178.5040  139.8350 N   0  0  0  0  0  0  0  0  0  0  0  0
  192.0590  177.1280  141.7160 O   0  0  0  0  0  1  0  0  0  0  0  0
  185.0170  178.3830  144.1190 N   0  0  0  0  0  0  0  0  0  0  0  0
  186.0820  178.4310  141.9830 C   0  0  0  0  0  0  0  0  0  0  0  0
  183.6930  178.9410  142.1670 N   0  0  0  0  0  2  0  0  0  0  0  0
  188.5380  177.5210  144.6720 C   0  0  0  0  0  3  0  0  0  0  0  0
  190.5980  177.7000  139.8860 C   0  0  0  0  0  3  0  0  0  0  0  0
  186.1760  178.0420  144.7340 C   0  0  0  0  0  0  0  0  0  0  0  0
  186.1780  177.8550  146.1190 C   0  0  0  0  0  3  0  0  0  0  0  0
  185.9900  178.6310  140.6420 N   0  0  0  0  0  0  0  0  0  0  0  0
  188.2600  178.1670  140.3090 C   0  0  0  0  0  0  0  0  0  0  0  0
  189.3310  178.0460  139.4180 C   0  0  0  0  0  3  0  0  0  0  0  0
  179.5600  177.1760  141.3430 C   0  0  1  0  0  3  0  0  0  0  0  0
  179.9290  179.1660  142.8300 C   0  0  0  0  0  2  0  0  0  0  0  0
  182.3810  179.2040  139.9750 O   0  0  0  0  0  1  0  0  0  0  0  0
  179.3030  175.8070  141.3300 O   0  0  0  0  0  1  0  0  0  0  0  0
  179.6360  177.6650  142.7870 C   0  0  0  0  0  2  0  0  0  0  0  0
  181.1810  178.9490  140.6400 C   0  0  2  0  0  3  0  0  0  0  0  0
  181.2140  179.5120  142.0710 C   0  0  2  0  0  3  0  0  0  0  0  0
  180.8770  177.4520  140.6230 C   0  0  0  0  0  2  0  0  0  0  0  0
  1 11  1  0  0  0  0
  1  8  1  0  0  0  0
  2  7  1  0  0  0  0
  3  9  1  0  0  0  0
  3  2  2  0  0  0  0
  5  4  2  0  0  0  0
  6 13  1  0  0  0  0
  6  9  2  0  0  0  0
  7 17  1  0  0  0  0
  7 19  2  0  0  0  0
 10 14  2  0  0  0  0
 12 22  2  0  0  0  0
 12 21  1  0  0  0  0
 14 19  1  0  0  0  0
 15  2  1  0  0  0  0
 15 10  1  0  0  0  0
 16 10  1  0  0  0  0
 16  5  1  0  0  0  0
 17  1  2  0  0  0  0
 18  6  1  0  0  0  0
 19 20  1  0  0  0  0
 20  8  2  0  0  0  0
 21 15  2  0  0  0  0
 22  3  1  0  0  0  0
 23 18  2  0  0  0  0
 23 22  1  0  0  0  0
 24 27  1  1  0  0  0
 24 28  1  0  0  0  0
 28 25  1  0  0  0  0
 29 26  1  1  0  0  0
 29 30  1  0  0  0  0
 30 25  1  0  0  0  0
 30  5  1  1  0  0  0
 31 29  1  0  0  0  0
 31 24  1  0  0  0  0
M  END
>  <MODEL>
9

>  <REMARK>
 VINA RESULT:     -10.4      3.445      6.786
  Name = 
  1 active torsions:
  status: ('A' for Active; 'I' for Inactive)
    1  A    between atoms: C_5  and  C_30
                            x       y       z     vdW  Elec       q    Type
                         _______ _______ _______ _____ _____    ______ ____

>  <TORSDO>
F 1

$$$$
