=
 OpenBabel11122411123D

 31 35  0  0  1  0  0  0  0  0999 V2000
  191.3950  176.6640  144.8980 C   0  0  0  0  0  0  0  0  0  0  0  0
  187.7370  177.0510  143.9130 C   0  0  2  0  0  3  0  0  0  0  0  0
  187.0400  177.8370  145.0070 C   0  0  0  0  0  0  0  0  0  0  0  0
  186.8900  178.5250  147.3350 C   0  0  0  0  0  0  0  0  0  0  0  0
  189.2410  177.2080  143.9200 C   0  0  0  0  0  0  0  0  0  0  0  0
  192.0330  177.4750  143.9550 C   0  0  0  0  0  3  0  0  0  0  0  0
  187.5700  177.8710  146.3050 C   0  0  0  0  0  3  0  0  0  0  0  0
  187.6790  178.6490  141.9220 C   0  0  2  0  0  3  0  0  0  0  0  0
  192.1260  176.0090  145.8310 F   0  0  0  0  0  0  0  0  0  0  0  0
  185.1770  178.4310  143.3940 C   0  0  0  0  0  2  0  0  0  0  0  0
  187.4330  178.5650  148.6110 O   0  0  0  0  0  1  0  0  0  0  0  0
  189.1370  178.6590  141.9330 N   0  0  0  0  0  2  0  0  0  0  0  0
  187.1420  177.3360  142.5180 C   0  0  2  0  0  3  0  0  0  0  0  0
  190.0050  176.5280  144.8780 C   0  0  0  0  0  3  0  0  0  0  0  0
  185.6610  179.1390  147.0810 C   0  0  0  0  0  3  0  0  0  0  0  0
  189.8880  178.0210  142.9680 C   0  0  0  0  0  0  0  0  0  0  0  0
  191.2800  178.1470  142.9880 C   0  0  0  0  0  3  0  0  0  0  0  0
  185.6750  177.3200  142.5760 N   0  0  0  0  0  2  0  0  0  0  0  0
  185.7790  178.4250  144.7680 C   0  0  0  0  0  0  0  0  0  0  0  0
  185.1090  179.0890  145.8000 C   0  0  0  0  0  3  0  0  0  0  0  0
  188.6350  177.2080  139.6570 O   0  0  0  0  0  0  0  0  0  0  0  0
  187.7160  178.0510  139.4670 C   0  0  0  0  0  0  0  0  0  0  0  0
  187.1980  178.8130  140.5580 N   0  0  0  0  0  2  0  0  0  0  0  0
  188.2260  176.4230  136.1440 C   0  0  1  0  0  3  0  0  0  0  0  0
  186.4210  177.0320  137.5720 C   0  0  0  0  0  2  0  0  0  0  0  0
  188.9830  179.7780  137.5770 O   0  0  0  0  0  1  0  0  0  0  0  0
  189.1100  175.2820  135.6880 C   0  0  0  0  0  1  0  0  0  0  0  0
  187.3660  175.9660  137.2350 N   0  0  0  0  0  2  0  0  0  0  0  0
  188.2070  178.7350  137.0680 C   0  0  2  0  0  3  0  0  0  0  0  0
  187.1570  178.2730  138.0920 C   0  0  2  0  0  3  0  0  0  0  0  0
  189.0980  177.5820  136.6160 C   0  0  0  0  0  2  0  0  0  0  0  0
  1  9  1  0  0  0  0
  2  5  1  6  0  0  0
  2  3  1  0  0  0  0
  3  7  1  0  0  0  0
  4 11  1  0  0  0  0
  5 14  2  0  0  0  0
  6  1  2  0  0  0  0
  7  4  2  0  0  0  0
  8 23  1  6  0  0  0
  8 12  1  0  0  0  0
  8 13  1  0  0  0  0
 10 19  1  0  0  0  0
 12 16  1  0  0  0  0
 13 18  1  1  0  0  0
 13  2  1  0  0  0  0
 14  1  1  0  0  0  0
 15  4  1  0  0  0  0
 16 17  2  0  0  0  0
 16  5  1  0  0  0  0
 17  6  1  0  0  0  0
 18 10  1  0  0  0  0
 19  3  2  0  0  0  0
 19 20  1  0  0  0  0
 20 15  2  0  0  0  0
 22 21  2  0  0  0  0
 22 23  1  0  0  0  0
 24 27  1  1  0  0  0
 24 31  1  0  0  0  0
 24 28  1  0  0  0  0
 25 30  1  0  0  0  0
 28 25  1  0  0  0  0
 29 26  1  1  0  0  0
 29 30  1  0  0  0  0
 30 22  1  1  0  0  0
 31 29  1  0  0  0  0
M  END
>  <MODEL>
1

>  <REMARK>
 VINA RESULT:      -9.6      0.000      0.000
  Name = 
  2 active torsions:
  status: ('A' for Active; 'I' for Inactive)
    1  A    between atoms: C_5  and  C_30
    2  A    between atoms: C_10  and  N_16
                            x       y       z     vdW  Elec       q    Type
                         _______ _______ _______ _____ _____    ______ ____

>  <TORSDO>
F 2

$$$$
=
 OpenBabel11122411123D

 31 35  0  0  1  0  0  0  0  0999 V2000
  189.8620  176.0230  142.6160 C   0  0  0  0  0  0  0  0  0  0  0  0
  186.5570  177.1570  144.1310 C   0  0  2  0  0  3  0  0  0  0  0  0
  186.8570  177.8200  145.4620 C   0  0  0  0  0  0  0  0  0  0  0  0
  188.2850  178.0680  147.4160 C   0  0  0  0  0  0  0  0  0  0  0  0
  187.7560  177.0730  143.2130 C   0  0  0  0  0  0  0  0  0  0  0  0
  189.9890  176.8890  141.5260 C   0  0  0  0  0  3  0  0  0  0  0  0
  188.0420  177.5230  146.1530 C   0  0  0  0  0  3  0  0  0  0  0  0
  185.7180  179.0930  142.6940 C   0  0  2  0  0  3  0  0  0  0  0  0
  190.8190  175.0960  142.8590 F   0  0  0  0  0  0  0  0  0  0  0  0
  184.6120  178.9940  145.3850 C   0  0  0  0  0  2  0  0  0  0  0  0
  189.4680  177.7790  148.0800 O   0  0  0  0  0  1  0  0  0  0  0  0
  186.8490  178.8730  141.8000 N   0  0  0  0  0  2  0  0  0  0  0  0
  185.3430  177.7920  143.4220 C   0  0  2  0  0  3  0  0  0  0  0  0
  188.7470  176.1120  143.4540 C   0  0  0  0  0  3  0  0  0  0  0  0
  187.3370  178.9020  148.0100 C   0  0  0  0  0  3  0  0  0  0  0  0
  187.8860  177.9410  142.1110 C   0  0  0  0  0  0  0  0  0  0  0  0
  188.9990  177.8420  141.2710 C   0  0  0  0  0  3  0  0  0  0  0  0
  184.2440  177.9950  144.3760 N   0  0  0  0  0  2  0  0  0  0  0  0
  185.8870  178.6320  146.0870 C   0  0  0  0  0  0  0  0  0  0  0  0
  186.1420  179.1840  147.3470 C   0  0  0  0  0  3  0  0  0  0  0  0
  184.0710  177.5130  140.9880 O   0  0  0  0  0  0  0  0  0  0  0  0
  183.7890  178.7380  141.1000 C   0  0  0  0  0  0  0  0  0  0  0  0
  184.5800  179.5870  141.9320 N   0  0  0  0  0  2  0  0  0  0  0  0
  181.7610  177.6640  138.1530 C   0  0  1  0  0  3  0  0  0  0  0  0
  181.4050  178.3950  140.3900 C   0  0  0  0  0  2  0  0  0  0  0  0
  184.1400  180.4480  138.8400 O   0  0  0  0  0  1  0  0  0  0  0  0
  181.8360  176.4550  137.2450 C   0  0  0  0  0  1  0  0  0  0  0  0
  181.6170  177.2230  139.5380 N   0  0  0  0  0  2  0  0  0  0  0  0
  182.9540  179.7160  138.9070 C   0  0  2  0  0  3  0  0  0  0  0  0
  182.6240  179.3240  140.3570 C   0  0  2  0  0  3  0  0  0  0  0  0
  183.0330  178.4930  137.9980 C   0  0  0  0  0  2  0  0  0  0  0  0
  1  9  1  0  0  0  0
  1 14  1  0  0  0  0
  2  5  1  6  0  0  0
  2  3  1  0  0  0  0
  3 19  2  0  0  0  0
  3  7  1  0  0  0  0
  4 15  1  0  0  0  0
  4 11  1  0  0  0  0
  5 14  2  0  0  0  0
  6  1  2  0  0  0  0
  7  4  2  0  0  0  0
  8 23  1  6  0  0  0
  8 13  1  0  0  0  0
 10 19  1  0  0  0  0
 12 16  1  0  0  0  0
 12  8  1  0  0  0  0
 13  2  1  0  0  0  0
 13 18  1  1  0  0  0
 16  5  1  0  0  0  0
 17  6  1  0  0  0  0
 17 16  2  0  0  0  0
 18 10  1  0  0  0  0
 19 20  1  0  0  0  0
 20 15  2  0  0  0  0
 21 22  2  0  0  0  0
 22 23  1  0  0  0  0
 24 27  1  6  0  0  0
 24 28  1  0  0  0  0
 28 25  1  0  0  0  0
 29 26  1  1  0  0  0
 29 30  1  0  0  0  0
 30 25  1  0  0  0  0
 30 22  1  6  0  0  0
 31 24  1  0  0  0  0
 31 29  1  0  0  0  0
M  END
>  <MODEL>
2

>  <REMARK>
 VINA RESULT:      -9.4      3.018      3.790
  Name = 
  2 active torsions:
  status: ('A' for Active; 'I' for Inactive)
    1  A    between atoms: C_5  and  C_30
    2  A    between atoms: C_10  and  N_16
                            x       y       z     vdW  Elec       q    Type
                         _______ _______ _______ _____ _____    ______ ____

>  <TORSDO>
F 2

$$$$
=
 OpenBabel11122411123D

 31 35  0  0  1  0  0  0  0  0999 V2000
  190.4290  176.8570  146.1220 C   0  0  0  0  0  0  0  0  0  0  0  0
  187.6790  177.1950  143.5080 C   0  0  2  0  0  3  0  0  0  0  0  0
  186.5850  178.0670  144.0930 C   0  0  0  0  0  0  0  0  0  0  0  0
  185.3900  178.9320  146.0270 C   0  0  0  0  0  0  0  0  0  0  0  0
  189.0090  177.3400  144.2130 C   0  0  0  0  0  0  0  0  0  0  0  0
  191.4670  177.5880  145.5400 C   0  0  0  0  0  3  0  0  0  0  0  0
  186.4450  178.1960  145.4830 C   0  0  0  0  0  3  0  0  0  0  0  0
  188.6290  178.6360  141.6270 C   0  0  2  0  0  3  0  0  0  0  0  0
  190.6080  176.2690  147.3290 F   0  0  0  0  0  0  0  0  0  0  0  0
  185.7220  178.5500  141.7590 C   0  0  0  0  0  2  0  0  0  0  0  0
  185.2730  179.0650  147.4030 O   0  0  0  0  0  1  0  0  0  0  0  0
  189.9110  178.6350  142.3230 N   0  0  0  0  0  2  0  0  0  0  0  0
  187.8200  177.3760  141.9830 C   0  0  2  0  0  3  0  0  0  0  0  0
  189.2050  176.7290  145.4580 C   0  0  0  0  0  3  0  0  0  0  0  0
  184.4510  179.5330  145.1870 C   0  0  0  0  0  3  0  0  0  0  0  0
  190.0610  178.0730  143.6280 C   0  0  0  0  0  0  0  0  0  0  0  0
  191.2850  178.1900  144.2920 C   0  0  0  0  0  3  0  0  0  0  0  0
  186.4980  177.3760  141.3450 N   0  0  0  0  0  2  0  0  0  0  0  0
  185.6100  178.6440  143.2520 C   0  0  0  0  0  0  0  0  0  0  0  0
  184.5620  179.3900  143.8020 C   0  0  0  0  0  3  0  0  0  0  0  0
  190.1000  176.7280  140.1060 O   0  0  0  0  0  0  0  0  0  0  0  0
  189.5930  177.7030  139.4860 C   0  0  0  0  0  0  0  0  0  0  0  0
  188.8510  178.6990  140.1900 N   0  0  0  0  0  2  0  0  0  0  0  0
  187.2670  177.6090  136.5640 C   0  0  1  0  0  3  0  0  0  0  0  0
  188.9700  179.0210  137.4410 C   0  0  0  0  0  2  0  0  0  0  0  0
  190.0300  175.4370  137.8020 O   0  0  0  0  0  1  0  0  0  0  0  0
  185.7720  177.3980  136.4530 C   0  0  0  0  0  1  0  0  0  0  0  0
  187.5340  178.7390  137.4510 N   0  0  0  0  0  2  0  0  0  0  0  0
  189.4240  176.5540  137.2240 C   0  0  2  0  0  3  0  0  0  0  0  0
  189.7660  177.8360  138.0000 C   0  0  2  0  0  3  0  0  0  0  0  0
  187.9160  176.3440  137.1190 C   0  0  0  0  0  2  0  0  0  0  0  0
  1  9  1  0  0  0  0
  2  3  1  1  0  0  0
  2  5  1  0  0  0  0
  3  7  1  0  0  0  0
  4 11  1  0  0  0  0
  5 14  1  0  0  0  0
  6  1  1  0  0  0  0
  7  4  2  0  0  0  0
  8 23  1  6  0  0  0
  8 13  1  0  0  0  0
  8 12  1  0  0  0  0
 10 19  1  0  0  0  0
 12 16  1  0  0  0  0
 13 18  1  6  0  0  0
 13  2  1  0  0  0  0
 14  1  2  0  0  0  0
 15  4  1  0  0  0  0
 16  5  2  0  0  0  0
 16 17  1  0  0  0  0
 17  6  2  0  0  0  0
 18 10  1  0  0  0  0
 19 20  1  0  0  0  0
 19  3  2  0  0  0  0
 20 15  2  0  0  0  0
 22 21  2  0  0  0  0
 22 23  1  0  0  0  0
 24 27  1  1  0  0  0
 24 31  1  0  0  0  0
 24 28  1  0  0  0  0
 25 28  1  0  0  0  0
 25 30  1  0  0  0  0
 29 26  1  1  0  0  0
 29 30  1  0  0  0  0
 30 22  1  1  0  0  0
 31 29  1  0  0  0  0
M  END
>  <MODEL>
3

>  <REMARK>
 VINA RESULT:      -8.8      1.573      2.042
  Name = 
  2 active torsions:
  status: ('A' for Active; 'I' for Inactive)
    1  A    between atoms: C_5  and  C_30
    2  A    between atoms: C_10  and  N_16
                            x       y       z     vdW  Elec       q    Type
                         _______ _______ _______ _____ _____    ______ ____

>  <TORSDO>
F 2

$$$$
=
 OpenBabel11122411123D

 31 35  0  0  1  0  0  0  0  0999 V2000
  191.2310  176.1770  143.6380 C   0  0  0  0  0  0  0  0  0  0  0  0
  187.5020  176.9460  143.7020 C   0  0  2  0  0  3  0  0  0  0  0  0
  187.1990  177.6800  144.9940 C   0  0  0  0  0  0  0  0  0  0  0  0
  187.7340  178.1590  147.3180 C   0  0  0  0  0  0  0  0  0  0  0  0
  188.9630  176.9800  143.3150 C   0  0  0  0  0  0  0  0  0  0  0  0
  191.6790  177.0180  142.6160 C   0  0  0  0  0  3  0  0  0  0  0  0
  188.0500  177.5500  146.1010 C   0  0  0  0  0  3  0  0  0  0  0  0
  187.0880  178.7200  141.9140 C   0  0  2  0  0  3  0  0  0  0  0  0
  192.1100  175.3810  144.2930 F   0  0  0  0  0  0  0  0  0  0  0  0
  185.0490  178.5690  143.9860 C   0  0  0  0  0  2  0  0  0  0  0  0
  188.5930  178.0360  148.4000 O   0  0  0  0  0  1  0  0  0  0  0  0
  188.4920  178.6120  141.5330 N   0  0  0  0  0  2  0  0  0  0  0  0
  186.5950  177.4050  142.5410 C   0  0  2  0  0  3  0  0  0  0  0  0
  189.8770  176.1550  143.9830 C   0  0  0  0  0  3  0  0  0  0  0  0
  186.5510  178.8900  147.4460 C   0  0  0  0  0  3  0  0  0  0  0  0
  189.4180  177.8230  142.2820 C   0  0  0  0  0  0  0  0  0  0  0  0
  190.7720  177.8350  141.9350 C   0  0  0  0  0  3  0  0  0  0  0  0
  185.2000  177.5020  142.9910 N   0  0  0  0  0  2  0  0  0  0  0  0
  185.9860  178.3860  145.1430 C   0  0  0  0  0  0  0  0  0  0  0  0
  185.6800  179.0030  146.3610 C   0  0  0  0  0  3  0  0  0  0  0  0
  187.4280  177.5920  139.3190 O   0  0  0  0  0  0  0  0  0  0  0  0
  186.5050  178.4390  139.4710 C   0  0  0  0  0  0  0  0  0  0  0  0
  186.2860  179.0490  140.7440 N   0  0  0  0  0  2  0  0  0  0  0  0
  183.6930  176.7780  137.6590 C   0  0  1  0  0  3  0  0  0  0  0  0
  184.1460  178.8600  138.7190 C   0  0  0  0  0  2  0  0  0  0  0  0
  187.1700  177.7800  136.7730 O   0  0  0  0  0  1  0  0  0  0  0  0
  183.0270  175.4280  137.8200 C   0  0  0  0  0  1  0  0  0  0  0  0
  183.6270  177.5070  138.9240 N   0  0  0  0  0  2  0  0  0  0  0  0
  185.8170  177.9390  137.0750 C   0  0  2  0  0  3  0  0  0  0  0  0
  185.6250  178.8250  138.3170 C   0  0  2  0  0  3  0  0  0  0  0  0
  185.1480  176.5780  137.2460 C   0  0  0  0  0  2  0  0  0  0  0  0
  1 14  1  0  0  0  0
  1  9  1  0  0  0  0
  2  5  1  6  0  0  0
  2  3  1  0  0  0  0
  3 19  2  0  0  0  0
  3  7  1  0  0  0  0
  4 15  1  0  0  0  0
  4 11  1  0  0  0  0
  5 14  2  0  0  0  0
  6  1  2  0  0  0  0
  7  4  2  0  0  0  0
  8 23  1  6  0  0  0
  8 13  1  0  0  0  0
 10 19  1  0  0  0  0
 12  8  1  0  0  0  0
 12 16  1  0  0  0  0
 13 18  1  1  0  0  0
 13  2  1  0  0  0  0
 16  5  1  0  0  0  0
 17 16  2  0  0  0  0
 17  6  1  0  0  0  0
 18 10  1  0  0  0  0
 19 20  1  0  0  0  0
 20 15  2  0  0  0  0
 21 22  2  0  0  0  0
 22 23  1  0  0  0  0
 24 27  1  1  0  0  0
 24 28  1  0  0  0  0
 25 28  1  0  0  0  0
 29 26  1  1  0  0  0
 29 31  1  0  0  0  0
 29 30  1  0  0  0  0
 30 25  1  0  0  0  0
 30 22  1  1  0  0  0
 31 24  1  0  0  0  0
M  END
>  <MODEL>
4

>  <REMARK>
 VINA RESULT:      -8.6      1.775      2.193
  Name = 
  2 active torsions:
  status: ('A' for Active; 'I' for Inactive)
    1  A    between atoms: C_5  and  C_30
    2  A    between atoms: C_10  and  N_16
                            x       y       z     vdW  Elec       q    Type
                         _______ _______ _______ _____ _____    ______ ____

>  <TORSDO>
F 2

$$$$
=
 OpenBabel11122411123D

 31 35  0  0  1  0  0  0  0  0999 V2000
  186.6240  178.2560  146.7750 C   0  0  0  0  0  0  0  0  0  0  0  0
  189.7400  178.1440  144.5880 C   0  0  2  0  0  3  0  0  0  0  0  0
  190.5860  176.9700  145.0410 C   0  0  0  0  0  0  0  0  0  0  0  0
  191.2830  175.4280  146.7890 C   0  0  0  0  0  0  0  0  0  0  0  0
  188.2950  178.0540  145.0260 C   0  0  0  0  0  0  0  0  0  0  0  0
  185.6240  177.8990  145.8670 C   0  0  0  0  0  3  0  0  0  0  0  0
  190.4500  176.4560  146.3390 C   0  0  0  0  0  3  0  0  0  0  0  0
  188.9740  177.4430  142.2560 C   0  0  2  0  0  3  0  0  0  0  0  0
  186.3030  178.5250  148.0630 F   0  0  0  0  0  0  0  0  0  0  0  0
  191.7930  176.9780  142.8120 C   0  0  0  0  0  2  0  0  0  0  0  0
  191.1270  174.9170  148.0690 O   0  0  0  0  0  1  0  0  0  0  0  0
  187.5970  177.4840  142.7350 N   0  0  0  0  0  2  0  0  0  0  0  0
  189.8590  178.4000  143.0710 C   0  0  2  0  0  3  0  0  0  0  0  0
  187.9550  178.3370  146.3550 C   0  0  0  0  0  3  0  0  0  0  0  0
  192.2740  174.9160  145.9500 C   0  0  0  0  0  3  0  0  0  0  0  0
  187.2830  177.6980  144.1130 C   0  0  0  0  0  0  0  0  0  0  0  0
  185.9530  177.6270  144.5360 C   0  0  0  0  0  3  0  0  0  0  0  0
  191.2650  178.3370  142.6520 N   0  0  0  0  0  2  0  0  0  0  0  0
  191.6160  176.4740  144.2140 C   0  0  0  0  0  0  0  0  0  0  0  0
  192.4390  175.4370  144.6650 C   0  0  0  0  0  3  0  0  0  0  0  0
  190.4050  176.0290  140.2380 O   0  0  0  0  0  0  0  0  0  0  0  0
  189.7450  177.0440  139.8830 C   0  0  0  0  0  0  0  0  0  0  0  0
  189.0130  177.8020  140.8460 N   0  0  0  0  0  2  0  0  0  0  0  0
  187.0410  177.7210  137.3970 C   0  0  1  0  0  3  0  0  0  0  0  0
  188.9770  178.8020  138.2620 C   0  0  0  0  0  2  0  0  0  0  0  0
  189.7260  175.1610  137.7360 O   0  0  0  0  0  1  0  0  0  0  0  0
  185.5310  177.6370  137.4790 C   0  0  0  0  0  1  0  0  0  0  0  0
  187.5350  178.6190  138.4390 N   0  0  0  0  0  2  0  0  0  0  0  0
  189.1560  176.4110  137.4920 C   0  0  2  0  0  3  0  0  0  0  0  0
  189.7240  177.4760  138.4450 C   0  0  2  0  0  3  0  0  0  0  0  0
  187.6360  176.3280  137.5820 C   0  0  0  0  0  2  0  0  0  0  0  0
  1  9  1  0  0  0  0
  2  5  1  6  0  0  0
  2  3  1  0  0  0  0
  3  7  1  0  0  0  0
  4 11  1  0  0  0  0
  5 14  2  0  0  0  0
  6  1  2  0  0  0  0
  7  4  2  0  0  0  0
  8 23  1  6  0  0  0
  8 12  1  0  0  0  0
  8 13  1  0  0  0  0
 10 19  1  0  0  0  0
 12 16  1  0  0  0  0
 13 18  1  6  0  0  0
 13  2  1  0  0  0  0
 14  1  1  0  0  0  0
 15  4  1  0  0  0  0
 16 17  2  0  0  0  0
 16  5  1  0  0  0  0
 17  6  1  0  0  0  0
 18 10  1  0  0  0  0
 19 20  1  0  0  0  0
 19  3  2  0  0  0  0
 20 15  2  0  0  0  0
 22 21  2  0  0  0  0
 22 23  1  0  0  0  0
 24 27  1  1  0  0  0
 24 31  1  0  0  0  0
 24 28  1  0  0  0  0
 25 28  1  0  0  0  0
 25 30  1  0  0  0  0
 29 31  1  0  0  0  0
 29 26  1  1  0  0  0
 29 30  1  0  0  0  0
 30 22  1  1  0  0  0
M  END
>  <MODEL>
5

>  <REMARK>
 VINA RESULT:      -8.0      2.236      4.474
  Name = 
  2 active torsions:
  status: ('A' for Active; 'I' for Inactive)
    1  A    between atoms: C_5  and  C_30
    2  A    between atoms: C_10  and  N_16
                            x       y       z     vdW  Elec       q    Type
                         _______ _______ _______ _____ _____    ______ ____

>  <TORSDO>
F 2

$$$$
=
 OpenBabel11122411123D

 31 35  0  0  1  0  0  0  0  0999 V2000
  189.2690  177.7880  144.3830 C   0  0  0  0  0  0  0  0  0  0  0  0
  187.2630  178.8970  141.3420 C   0  0  2  0  0  3  0  0  0  0  0  0
  187.6990  178.0510  140.1620 C   0  0  0  0  0  0  0  0  0  0  0  0
  189.3970  176.7170  139.0410 C   0  0  0  0  0  0  0  0  0  0  0  0
  187.6110  178.2900  142.6830 C   0  0  0  0  0  0  0  0  0  0  0  0
  188.2870  177.1780  145.1670 C   0  0  0  0  0  3  0  0  0  0  0  0
  188.9570  177.4300  140.1590 C   0  0  0  0  0  3  0  0  0  0  0  0
  184.8550  178.1440  141.7380 C   0  0  2  0  0  3  0  0  0  0  0  0
  190.5490  177.8400  144.8220 F   0  0  0  0  0  0  0  0  0  0  0  0
  185.5470  178.6270  138.9520 C   0  0  0  0  0  2  0  0  0  0  0  0
  190.6370  176.0940  139.0580 O   0  0  0  0  0  1  0  0  0  0  0  0
  185.2560  177.6810  143.0620 N   0  0  0  0  0  2  0  0  0  0  0  0
  185.7720  179.2850  141.2640 C   0  0  2  0  0  3  0  0  0  0  0  0
  188.9320  178.3460  143.1470 C   0  0  0  0  0  3  0  0  0  0  0  0
  188.5900  176.6330  137.9050 C   0  0  0  0  0  3  0  0  0  0  0  0
  186.6220  177.6780  143.4780 C   0  0  0  0  0  0  0  0  0  0  0  0
  186.9640  177.1290  144.7180 C   0  0  0  0  0  3  0  0  0  0  0  0
  185.4320  179.7330  139.9080 N   0  0  0  0  0  2  0  0  0  0  0  0
  186.9070  177.9940  138.9950 C   0  0  0  0  0  0  0  0  0  0  0  0
  187.3480  177.2690  137.8830 C   0  0  0  0  0  3  0  0  0  0  0  0
  182.7320  177.0630  140.1750 O   0  0  0  0  0  0  0  0  0  0  0  0
  182.4530  178.0030  140.9680 C   0  0  0  0  0  0  0  0  0  0  0  0
  183.4710  178.5950  141.7740 N   0  0  0  0  0  2  0  0  0  0  0  0
  179.2700  177.3150  139.1360 C   0  0  1  0  0  3  0  0  0  0  0  0
  180.0520  177.3940  141.3830 C   0  0  0  0  0  2  0  0  0  0  0  0
  181.5450  180.2490  139.4560 O   0  0  0  0  0  1  0  0  0  0  0  0
  178.9340  176.4030  137.9760 C   0  0  0  0  0  1  0  0  0  0  0  0
  179.8610  176.5290  140.2180 N   0  0  0  0  0  2  0  0  0  0  0  0
  180.5870  179.3090  139.8380 C   0  0  2  0  0  3  0  0  0  0  0  0
  181.0470  178.5190  141.0740 C   0  0  2  0  0  3  0  0  0  0  0  0
  180.2540  178.3850  138.6710 C   0  0  0  0  0  2  0  0  0  0  0  0
  1  9  1  0  0  0  0
  1  6  1  0  0  0  0
  2  3  1  6  0  0  0
  2  5  1  0  0  0  0
  4 11  1  0  0  0  0
  4  7  2  0  0  0  0
  5 14  1  0  0  0  0
  5 16  2  0  0  0  0
  7  3  1  0  0  0  0
  8 23  1  1  0  0  0
  8 12  1  0  0  0  0
 10 19  1  0  0  0  0
 10 18  1  0  0  0  0
 12 16  1  0  0  0  0
 13 18  1  6  0  0  0
 13  2  1  0  0  0  0
 13  8  1  0  0  0  0
 14  1  2  0  0  0  0
 15  4  1  0  0  0  0
 16 17  1  0  0  0  0
 17  6  2  0  0  0  0
 19  3  2  0  0  0  0
 20 15  2  0  0  0  0
 20 19  1  0  0  0  0
 21 22  2  0  0  0  0
 22 23  1  0  0  0  0
 24 27  1  6  0  0  0
 24 28  1  0  0  0  0
 28 25  1  0  0  0  0
 29 26  1  6  0  0  0
 29 30  1  0  0  0  0
 30 22  1  6  0  0  0
 30 25  1  0  0  0  0
 31 24  1  0  0  0  0
 31 29  1  0  0  0  0
M  END
>  <MODEL>
6

>  <REMARK>
 VINA RESULT:      -7.8      3.775      6.379
  Name = 
  2 active torsions:
  status: ('A' for Active; 'I' for Inactive)
    1  A    between atoms: C_5  and  C_30
    2  A    between atoms: C_10  and  N_16
                            x       y       z     vdW  Elec       q    Type
                         _______ _______ _______ _____ _____    ______ ____

>  <TORSDO>
F 2

$$$$
=
 OpenBabel11122411123D

 31 35  0  0  1  0  0  0  0  0999 V2000
  179.6880  179.2370  143.0810 C   0  0  0  0  0  0  0  0  0  0  0  0
  183.2360  179.3690  141.7050 C   0  0  2  0  0  3  0  0  0  0  0  0
  184.1720  178.8470  142.7780 C   0  0  0  0  0  0  0  0  0  0  0  0
  184.6810  178.4700  145.1280 C   0  0  0  0  0  0  0  0  0  0  0  0
  181.7950  178.9590  141.9090 C   0  0  0  0  0  0  0  0  0  0  0  0
  179.1180  178.2250  142.3050 C   0  0  0  0  0  3  0  0  0  0  0  0
  183.7920  178.8740  144.1290 C   0  0  0  0  0  3  0  0  0  0  0  0
  183.3840  177.5840  139.8860 C   0  0  2  0  0  3  0  0  0  0  0  0
  178.9480  179.8620  144.0280 F   0  0  0  0  0  0  0  0  0  0  0  0
  185.9400  178.3960  141.0180 C   0  0  0  0  0  2  0  0  0  0  0  0
  184.2850  178.4870  146.4570 O   0  0  0  0  0  1  0  0  0  0  0  0
  181.9610  177.3260  140.0740 N   0  0  0  0  0  2  0  0  0  0  0  0
  183.7290  179.0290  140.2830 C   0  0  2  0  0  3  0  0  0  0  0  0
  181.0210  179.6060  142.8810 C   0  0  0  0  0  3  0  0  0  0  0  0
  185.9680  178.0510  144.7880 C   0  0  0  0  0  3  0  0  0  0  0  0
  181.2150  177.9420  141.1250 C   0  0  0  0  0  0  0  0  0  0  0  0
  179.8790  177.5830  141.3240 C   0  0  0  0  0  3  0  0  0  0  0  0
  185.1670  179.3020  140.1630 N   0  0  0  0  0  2  0  0  0  0  0  0
  185.4880  178.4590  142.4470 C   0  0  0  0  0  0  0  0  0  0  0  0
  186.3700  178.0440  143.4510 C   0  0  0  0  0  3  0  0  0  0  0  0
  183.3900  175.0410  138.6010 O   0  0  0  0  0  0  0  0  0  0  0  0
  183.7200  176.0440  137.9110 C   0  0  0  0  0  0  0  0  0  0  0  0
  183.7460  177.3460  138.4960 N   0  0  0  0  0  2  0  0  0  0  0  0
  184.4120  173.1180  135.6940 C   0  0  1  0  0  3  0  0  0  0  0  0
  183.0520  175.0720  135.6940 C   0  0  0  0  0  2  0  0  0  0  0  0
  186.4440  175.9270  137.0590 O   0  0  0  0  0  1  0  0  0  0  0  0
  184.4310  171.6250  135.9460 C   0  0  0  0  0  1  0  0  0  0  0  0
  183.1080  173.6580  136.0710 N   0  0  0  0  0  2  0  0  0  0  0  0
  185.4970  175.2870  136.2570 C   0  0  2  0  0  3  0  0  0  0  0  0
  184.0970  175.8860  136.4660 C   0  0  2  0  0  3  0  0  0  0  0  0
  185.5110  173.7840  136.5170 C   0  0  0  0  0  2  0  0  0  0  0  0
  1  9  1  0  0  0  0
  2  5  1  1  0  0  0
  2  3  1  0  0  0  0
  3  7  1  0  0  0  0
  4 11  1  0  0  0  0
  5 14  2  0  0  0  0
  6  1  2  0  0  0  0
  7  4  2  0  0  0  0
  8 23  1  6  0  0  0
  8 12  1  0  0  0  0
  8 13  1  0  0  0  0
 10 19  1  0  0  0  0
 12 16  1  0  0  0  0
 13 18  1  1  0  0  0
 13  2  1  0  0  0  0
 14  1  1  0  0  0  0
 15  4  1  0  0  0  0
 16 17  2  0  0  0  0
 16  5  1  0  0  0  0
 17  6  1  0  0  0  0
 18 10  1  0  0  0  0
 19  3  2  0  0  0  0
 19 20  1  0  0  0  0
 20 15  2  0  0  0  0
 22 23  1  0  0  0  0
 22 21  2  0  0  0  0
 24 27  1  1  0  0  0
 24 28  1  0  0  0  0
 24 31  1  0  0  0  0
 25 28  1  0  0  0  0
 25 30  1  0  0  0  0
 29 30  1  0  0  0  0
 29 31  1  0  0  0  0
 29 26  1  1  0  0  0
 30 22  1  1  0  0  0
M  END
>  <MODEL>
7

>  <REMARK>
 VINA RESULT:      -7.7      4.517      6.642
  Name = 
  2 active torsions:
  status: ('A' for Active; 'I' for Inactive)
    1  A    between atoms: C_5  and  C_30
    2  A    between atoms: C_10  and  N_16
                            x       y       z     vdW  Elec       q    Type
                         _______ _______ _______ _____ _____    ______ ____

>  <TORSDO>
F 2

$$$$
=
 OpenBabel11122411123D

 31 35  0  0  1  0  0  0  0  0999 V2000
  184.9850  178.4500  138.7100 C   0  0  0  0  0  0  0  0  0  0  0  0
  188.6890  178.1510  139.5450 C   0  0  2  0  0  3  0  0  0  0  0  0
  188.8090  177.4630  140.8910 C   0  0  0  0  0  0  0  0  0  0  0  0
  187.8750  176.9250  143.0720 C   0  0  0  0  0  0  0  0  0  0  0  0
  187.3520  177.9350  138.8730 C   0  0  0  0  0  0  0  0  0  0  0  0
  184.8600  177.5570  137.6420 C   0  0  0  0  0  3  0  0  0  0  0  0
  187.7410  177.4870  141.8010 C   0  0  0  0  0  3  0  0  0  0  0  0
  189.6700  176.4380  137.9260 C   0  0  2  0  0  3  0  0  0  0  0  0
  183.9010  179.1310  139.1530 F   0  0  0  0  0  0  0  0  0  0  0  0
  191.2110  176.8460  140.3620 C   0  0  0  0  0  2  0  0  0  0  0  0
  186.8050  176.9410  143.9550 O   0  0  0  0  0  1  0  0  0  0  0  0
  188.3700  176.3700  137.2670 N   0  0  0  0  0  2  0  0  0  0  0  0
  189.8610  177.8050  138.6040 C   0  0  2  0  0  3  0  0  0  0  0  0
  186.2280  178.6410  139.3210 C   0  0  0  0  0  3  0  0  0  0  0  0
  189.0870  176.3470  143.4560 C   0  0  0  0  0  3  0  0  0  0  0  0
  187.2220  177.0390  137.7930 C   0  0  0  0  0  0  0  0  0  0  0  0
  185.9790  176.8590  137.1800 C   0  0  0  0  0  3  0  0  0  0  0  0
  191.1370  177.8840  139.3280 N   0  0  0  0  0  2  0  0  0  0  0  0
  190.0430  176.9120  141.3010 C   0  0  0  0  0  0  0  0  0  0  0  0
  190.1670  176.3410  142.5720 C   0  0  0  0  0  3  0  0  0  0  0  0
  191.4640  174.2240  137.9340 O   0  0  0  0  0  0  0  0  0  0  0  0
  191.5880  175.0730  137.0080 C   0  0  0  0  0  0  0  0  0  0  0  0
  190.7260  176.2100  136.9510 N   0  0  0  0  0  2  0  0  0  0  0  0
  194.7110  173.0410  136.7400 C   0  0  1  0  0  3  0  0  0  0  0  0
  192.7390  173.4530  135.4720 C   0  0  0  0  0  2  0  0  0  0  0  0
  193.9470  176.6810  136.9610 O   0  0  0  0  0  1  0  0  0  0  0  0
  195.3900  172.0790  137.6910 C   0  0  0  0  0  1  0  0  0  0  0  0
  193.3390  172.5980  136.4980 N   0  0  0  0  0  2  0  0  0  0  0  0
  194.0310  175.4110  136.3900 C   0  0  2  0  0  3  0  0  0  0  0  0
  192.6450  174.9050  135.9550 C   0  0  2  0  0  3  0  0  0  0  0  0
  194.7080  174.4390  137.3510 C   0  0  0  0  0  2  0  0  0  0  0  0
  1  9  1  0  0  0  0
  1 14  1  0  0  0  0
  2  5  1  6  0  0  0
  2  3  1  0  0  0  0
  3 19  2  0  0  0  0
  3  7  1  0  0  0  0
  4 15  1  0  0  0  0
  4 11  1  0  0  0  0
  5 14  2  0  0  0  0
  6  1  2  0  0  0  0
  7  4  2  0  0  0  0
  8 23  1  6  0  0  0
  8 13  1  0  0  0  0
 10 19  1  0  0  0  0
 12 16  1  0  0  0  0
 12  8  1  0  0  0  0
 13 18  1  1  0  0  0
 13  2  1  0  0  0  0
 16  5  1  0  0  0  0
 17  6  1  0  0  0  0
 17 16  2  0  0  0  0
 18 10  1  0  0  0  0
 19 20  1  0  0  0  0
 20 15  2  0  0  0  0
 22 21  2  0  0  0  0
 23 22  1  0  0  0  0
 24 31  1  0  0  0  0
 24 27  1  1  0  0  0
 25 30  1  0  0  0  0
 25 28  1  0  0  0  0
 28 24  1  0  0  0  0
 29 26  1  1  0  0  0
 29 31  1  0  0  0  0
 30 29  1  0  0  0  0
 30 22  1  1  0  0  0
M  END
>  <MODEL>
8

>  <REMARK>
 VINA RESULT:      -7.7      4.018      6.517
  Name = 
  2 active torsions:
  status: ('A' for Active; 'I' for Inactive)
    1  A    between atoms: C_5  and  C_30
    2  A    between atoms: C_10  and  N_16
                            x       y       z     vdW  Elec       q    Type
                         _______ _______ _______ _____ _____    ______ ____

>  <TORSDO>
F 2

$$$$
=
 OpenBabel11122411123D

 31 35  0  0  1  0  0  0  0  0999 V2000
  184.1340  178.7520  144.3940 C   0  0  0  0  0  0  0  0  0  0  0  0
  182.7980  178.0240  140.9030 C   0  0  2  0  0  3  0  0  0  0  0  0
  181.5570  178.8700  140.6930 C   0  0  0  0  0  0  0  0  0  0  0  0
  179.6360  180.0530  141.6040 C   0  0  0  0  0  0  0  0  0  0  0  0
  183.6880  178.5230  142.0190 C   0  0  0  0  0  0  0  0  0  0  0  0
  185.3210  179.4330  144.1100 C   0  0  0  0  0  3  0  0  0  0  0  0
  180.8250  179.3430  141.7920 C   0  0  0  0  0  3  0  0  0  0  0  0
  184.4700  179.0260  139.2540 C   0  0  2  0  0  3  0  0  0  0  0  0
  183.7710  178.5340  145.6810 F   0  0  0  0  0  0  0  0  0  0  0  0
  181.7970  178.6000  138.1840 C   0  0  0  0  0  2  0  0  0  0  0  0
  178.9310  180.5290  142.7000 O   0  0  0  0  0  1  0  0  0  0  0  0
  185.3210  179.3780  140.3860 N   0  0  0  0  0  2  0  0  0  0  0  0
  183.5900  177.8120  139.5960 C   0  0  2  0  0  3  0  0  0  0  0  0
  183.3230  178.2950  143.3520 C   0  0  0  0  0  3  0  0  0  0  0  0
  179.1570  180.2820  140.3130 C   0  0  0  0  0  3  0  0  0  0  0  0
  184.8880  179.2060  141.7370 C   0  0  0  0  0  0  0  0  0  0  0  0
  185.7000  179.6530  142.7830 C   0  0  0  0  0  3  0  0  0  0  0  0
  182.6780  177.4710  138.4970 N   0  0  0  0  0  2  0  0  0  0  0  0
  181.0450  179.0710  139.3930 C   0  0  0  0  0  0  0  0  0  0  0  0
  179.8610  179.7930  139.2110 C   0  0  0  0  0  3  0  0  0  0  0  0
  187.1550  178.0760  139.3420 O   0  0  0  0  0  0  0  0  0  0  0  0
  186.6350  178.2530  138.2060 C   0  0  0  0  0  0  0  0  0  0  0  0
  185.2960  178.7350  138.0920 N   0  0  0  0  0  2  0  0  0  0  0  0
  189.7780  176.3760  137.4620 C   0  0  1  0  0  3  0  0  0  0  0  0
  187.5270  176.4590  136.6920 C   0  0  0  0  0  2  0  0  0  0  0  0
  188.7500  179.9540  137.3160 O   0  0  0  0  0  1  0  0  0  0  0  0
  190.7560  175.6280  138.3430 C   0  0  0  0  0  1  0  0  0  0  0  0
  188.4370  175.8250  137.6480 N   0  0  0  0  0  2  0  0  0  0  0  0
  188.8120  178.6110  136.9410 C   0  0  2  0  0  3  0  0  0  0  0  0
  187.4160  177.9650  136.9570 C   0  0  2  0  0  3  0  0  0  0  0  0
  189.7910  177.8560  137.8340 C   0  0  0  0  0  2  0  0  0  0  0  0
  1  9  1  0  0  0  0
  2  3  1  6  0  0  0
  2  5  1  0  0  0  0
  3  7  1  0  0  0  0
  4  7  2  0  0  0  0
  4 11  1  0  0  0  0
  5 14  1  0  0  0  0
  6  1  1  0  0  0  0
  8 23  1  6  0  0  0
  8 13  1  0  0  0  0
  8 12  1  0  0  0  0
 10 18  1  0  0  0  0
 10 19  1  0  0  0  0
 12 16  1  0  0  0  0
 13 18  1  6  0  0  0
 13  2  1  0  0  0  0
 14  1  2  0  0  0  0
 15  4  1  0  0  0  0
 16  5  2  0  0  0  0
 16 17  1  0  0  0  0
 17  6  2  0  0  0  0
 19  3  2  0  0  0  0
 20 19  1  0  0  0  0
 20 15  2  0  0  0  0
 22 21  2  0  0  0  0
 23 22  1  0  0  0  0
 24 28  1  0  0  0  0
 24 31  1  0  0  0  0
 24 27  1  1  0  0  0
 25 30  1  0  0  0  0
 25 28  1  0  0  0  0
 29 30  1  0  0  0  0
 29 26  1  1  0  0  0
 29 31  1  0  0  0  0
 30 22  1  1  0  0  0
M  END
>  <MODEL>
9

>  <REMARK>
 VINA RESULT:      -7.6      4.145      5.824
  Name = 
  2 active torsions:
  status: ('A' for Active; 'I' for Inactive)
    1  A    between atoms: C_5  and  C_30
    2  A    between atoms: C_10  and  N_16
                            x       y       z     vdW  Elec       q    Type
                         _______ _______ _______ _____ _____    ______ ____

>  <TORSDO>
F 2

$$$$
