=
 OpenBabel11122410523D

 32 37  0  0  1  0  0  0  0  0999 V2000
  188.5210  177.6520  148.2450 C   0  0  0  0  0  2  0  0  0  0  0  0
  185.4390  178.5260  144.0930 C   0  0  2  0  0  3  0  0  0  0  0  0
  187.7230  178.2780  139.7960 C   0  0  0  0  0  3  0  0  0  0  0  0
  186.5460  178.5610  139.1070 C   0  0  0  0  0  3  0  0  0  0  0  0
  182.9150  178.7470  144.0140 C   0  0  0  0  0  0  0  0  0  0  0  0
  181.6210  178.6430  143.2500 C   0  0  1  0  0  3  0  0  0  0  0  0
  186.6960  177.5850  146.0540 C   0  0  1  0  0  3  0  0  0  0  0  0
  187.8580  177.8430  143.8590 N   0  0  0  0  0  2  0  0  0  0  0  0
  180.5730  178.7600  141.1820 C   0  0  2  0  0  3  0  0  0  0  0  0
  189.2650  177.3310  145.7950 C   0  0  0  0  0  2  0  0  0  0  0  0
  187.7070  178.1650  141.1500 N   0  0  0  0  0  0  0  0  0  0  0  0
  186.6270  178.2040  143.2210 C   0  0  0  0  0  0  0  0  0  0  0  0
  186.5690  178.3250  141.8840 C   0  0  0  0  0  0  0  0  0  0  0  0
  184.1880  178.6850  141.9070 C   0  0  0  0  0  0  0  0  0  0  0  0
  179.8810  179.7530  142.1090 C   0  0  0  0  0  2  0  0  0  0  0  0
  188.0850  179.0160  147.7020 C   0  0  0  0  0  2  0  0  0  0  0  0
  187.8840  177.1700  145.1570 C   0  0  1  0  0  3  0  0  0  0  0  0
  180.7940  179.9020  143.3000 C   0  0  0  0  0  2  0  0  0  0  0  0
  186.8630  178.9320  146.7760 C   0  0  0  0  0  2  0  0  0  0  0  0
  189.3340  176.8130  147.2360 C   0  0  1  0  0  3  0  0  0  0  0  0
  185.3610  178.7110  139.8220 C   0  0  0  0  0  3  0  0  0  0  0  0
  185.3460  178.5900  141.2210 C   0  0  0  0  0  0  0  0  0  0  0  0
  182.8920  178.9940  141.2130 C   0  0  0  0  0  2  0  0  0  0  0  0
  185.3870  177.5440  145.2660 C   0  0  0  0  0  2  0  0  0  0  0  0
  182.8780  178.9820  145.2530 O   0  0  0  0  0  0  0  0  0  0  0  0
  179.6410  177.6020  140.8820 C   0  0  0  0  0  1  0  0  0  0  0  0
  184.1760  178.5670  143.3400 N   0  0  0  0  0  0  0  0  0  0  0  0
  181.7830  178.2670  141.8380 N   0  0  1  0  0  0  0  0  0  0  0  0
  190.7910  176.7540  147.6650 C   0  0  0  0  0  2  0  0  0  0  0  0
  191.6750  176.4600  146.5020 C   0  0  0  0  0  0  0  0  0  0  0  0
  192.1560  175.3060  146.3540 O   0  0  0  0  0  1  0  0  0  0  0  0
  191.9460  177.4480  145.5670 O   0  0  0  0  0  0  0  0  0  0  0  0
  2 24  1  1  0  0  0
  3 11  2  0  0  0  0
  4  3  1  0  0  0  0
  4 21  2  0  0  0  0
  5 25  2  0  0  0  0
  6 18  1  6  0  0  0
  6  5  1  0  0  0  0
  7 24  1  6  0  0  0
  7 19  1  0  0  0  0
  8 17  1  0  0  0  0
  9 26  1  1  0  0  0
  9 28  1  0  0  0  0
  9 15  1  0  0  0  0
 10 20  1  0  0  0  0
 11 13  1  0  0  0  0
 12  8  1  0  0  0  0
 12  2  1  0  0  0  0
 13 12  2  0  0  0  0
 14 27  1  0  0  0  0
 15 18  1  0  0  0  0
 16  1  1  0  0  0  0
 17 10  1  1  0  0  0
 17  7  1  0  0  0  0
 19 16  1  0  0  0  0
 20 29  1  1  0  0  0
 20  1  1  0  0  0  0
 21 22  1  0  0  0  0
 22 13  1  0  0  0  0
 22 14  2  0  0  0  0
 23 14  1  0  0  0  0
 27  5  1  0  0  0  0
 27  2  1  0  0  0  0
 28 23  1  6  0  0  0
 28  6  1  0  0  0  0
 30 29  1  0  0  0  0
 31 30  1  0  0  0  0
 32 30  2  0  0  0  0
M  END
>  <MODEL>
1

>  <REMARK>
 VINA RESULT:      -9.2      0.000      0.000
  Name = 
  2 active torsions:
  status: ('A' for Active; 'I' for Inactive)
    1  A    between atoms: C_20  and  C_29
    2  A    between atoms: C_29  and  C_30
                            x       y       z     vdW  Elec       q    Type
                         _______ _______ _______ _____ _____    ______ ____

>  <TORSDO>
F 2

$$$$
=
 OpenBabel11122410523D

 32 37  0  0  1  0  0  0  0  0999 V2000
  181.0420  179.3230  140.4200 C   0  0  0  0  0  2  0  0  0  0  0  0
  186.1340  178.1720  140.9130 C   0  0  2  0  0  3  0  0  0  0  0  0
  188.6150  178.1610  136.7190 C   0  0  0  0  0  3  0  0  0  0  0  0
  189.7990  177.8290  137.3720 C   0  0  0  0  0  3  0  0  0  0  0  0
  187.5050  177.9320  143.0320 C   0  0  0  0  0  0  0  0  0  0  0  0
  188.8360  177.9810  143.7350 C   0  0  1  0  0  3  0  0  0  0  0  0
  183.8620  179.2420  140.8360 C   0  0  1  0  0  3  0  0  0  0  0  0
  185.1100  178.8520  138.7080 N   0  0  0  0  0  2  0  0  0  0  0  0
  191.1370  177.7290  143.5550 C   0  0  2  0  0  3  0  0  0  0  0  0
  182.7570  179.4930  138.5010 C   0  0  0  0  0  2  0  0  0  0  0  0
  187.4770  178.3590  137.4340 N   0  0  0  0  0  0  0  0  0  0  0  0
  186.2750  178.4440  139.4350 C   0  0  0  0  0  0  0  0  0  0  0  0
  187.4370  178.2400  138.7920 C   0  0  0  0  0  0  0  0  0  0  0  0
  188.6390  177.8690  140.8460 C   0  0  0  0  0  0  0  0  0  0  0  0
  190.6530  176.7920  144.6560 C   0  0  0  0  0  2  0  0  0  0  0  0
  181.6540  177.9250  140.5490 C   0  0  0  0  0  2  0  0  0  0  0  0
  184.0300  179.6050  139.3420 C   0  0  1  0  0  3  0  0  0  0  0  0
  189.1540  176.7230  144.5020 C   0  0  0  0  0  2  0  0  0  0  0  0
  183.0840  177.9440  141.1060 C   0  0  0  0  0  2  0  0  0  0  0  0
  181.5240  180.1010  139.1780 C   0  0  1  0  0  3  0  0  0  0  0  0
  189.8010  177.7170  138.7600 C   0  0  0  0  0  3  0  0  0  0  0  0
  188.6240  177.9270  139.4980 C   0  0  0  0  0  0  0  0  0  0  0  0
  189.8880  177.5090  141.6000 C   0  0  0  0  0  2  0  0  0  0  0  0
  185.2190  179.2260  141.5410 C   0  0  0  0  0  2  0  0  0  0  0  0
  186.4570  177.7760  143.7150 O   0  0  0  0  0  0  0  0  0  0  0  0
  191.9440  178.8600  144.1620 C   0  0  0  0  0  1  0  0  0  0  0  0
  187.4310  178.0770  141.6000 N   0  0  0  0  0  0  0  0  0  0  0  0
  189.9750  178.2680  142.8500 N   0  0  1  0  0  0  0  0  0  0  0  0
  180.4020  180.1950  138.1570 C   0  0  0  0  0  2  0  0  0  0  0  0
  180.7020  181.2360  137.1340 C   0  0  0  0  0  0  0  0  0  0  0  0
  180.6830  180.9400  135.9100 O   0  0  0  0  0  0  0  0  0  0  0  0
  180.9740  182.5390  137.5270 O   0  0  0  0  0  1  0  0  0  0  0  0
  1 16  1  0  0  0  0
  2 24  1  1  0  0  0
  2 27  1  0  0  0  0
  3  4  1  0  0  0  0
  3 11  2  0  0  0  0
  4 21  2  0  0  0  0
  5 25  2  0  0  0  0
  5  6  1  0  0  0  0
  6 18  1  6  0  0  0
  7 19  1  6  0  0  0
  7 24  1  0  0  0  0
  8 17  1  0  0  0  0
  8 12  1  0  0  0  0
  9 26  1  1  0  0  0
  9 15  1  0  0  0  0
 10 20  1  0  0  0  0
 11 13  1  0  0  0  0
 12  2  1  0  0  0  0
 13 12  2  0  0  0  0
 13 22  1  0  0  0  0
 14 23  1  0  0  0  0
 14 27  1  0  0  0  0
 16 19  1  0  0  0  0
 17 10  1  6  0  0  0
 17  7  1  0  0  0  0
 18 15  1  0  0  0  0
 20 29  1  6  0  0  0
 20  1  1  0  0  0  0
 21 22  1  0  0  0  0
 22 14  2  0  0  0  0
 27  5  1  0  0  0  0
 28 23  1  6  0  0  0
 28  9  1  0  0  0  0
 28  6  1  0  0  0  0
 30 32  1  0  0  0  0
 30 29  1  0  0  0  0
 31 30  2  0  0  0  0
M  END
>  <MODEL>
2

>  <REMARK>
 VINA RESULT:      -8.9      3.301      8.694
  Name = 
  2 active torsions:
  status: ('A' for Active; 'I' for Inactive)
    1  A    between atoms: C_20  and  C_29
    2  A    between atoms: C_29  and  C_30
                            x       y       z     vdW  Elec       q    Type
                         _______ _______ _______ _____ _____    ______ ____

>  <TORSDO>
F 2

$$$$
=
 OpenBabel11122410523D

 32 37  0  0  1  0  0  0  0  0999 V2000
  187.5580  177.7940  147.4870 C   0  0  0  0  0  2  0  0  0  0  0  0
  186.0630  178.3510  142.4920 C   0  0  2  0  0  3  0  0  0  0  0  0
  189.7160  178.2530  139.2690 C   0  0  0  0  0  3  0  0  0  0  0  0
  188.8370  178.4240  138.2040 C   0  0  0  0  0  3  0  0  0  0  0  0
  183.7170  178.3520  141.5320 C   0  0  0  0  0  0  0  0  0  0  0  0
  182.7830  178.1270  140.3710 C   0  0  1  0  0  3  0  0  0  0  0  0
  186.6240  177.5440  144.8040 C   0  0  1  0  0  3  0  0  0  0  0  0
  188.4570  177.8770  143.1410 N   0  0  0  0  0  2  0  0  0  0  0  0
  182.5180  178.1290  138.0650 C   0  0  2  0  0  3  0  0  0  0  0  0
  189.1330  177.5110  145.4630 C   0  0  0  0  0  2  0  0  0  0  0  0
  189.2370  178.1540  140.5360 N   0  0  0  0  0  0  0  0  0  0  0  0
  187.5020  178.1230  142.1000 C   0  0  0  0  0  0  0  0  0  0  0  0
  187.9060  178.2230  140.8230 C   0  0  0  0  0  0  0  0  0  0  0  0
  185.6470  178.3760  140.0020 C   0  0  0  0  0  0  0  0  0  0  0  0
  181.4720  179.0690  138.6520 C   0  0  0  0  0  2  0  0  0  0  0  0
  187.2350  179.1090  146.7720 C   0  0  0  0  0  2  0  0  0  0  0  0
  188.0790  177.2240  144.3930 C   0  0  1  0  0  3  0  0  0  0  0  0
  181.8970  179.3100  140.0790 C   0  0  0  0  0  2  0  0  0  0  0  0
  186.4240  178.9090  145.4830 C   0  0  0  0  0  2  0  0  0  0  0  0
  188.7340  177.0170  146.8580 C   0  0  1  0  0  3  0  0  0  0  0  0
  187.4680  178.4800  138.4550 C   0  0  0  0  0  3  0  0  0  0  0  0
  186.9750  178.3730  139.7660 C   0  0  0  0  0  0  0  0  0  0  0  0
  184.6550  178.5640  138.8900 C   0  0  0  0  0  2  0  0  0  0  0  0
  185.6800  177.3810  143.6120 C   0  0  0  0  0  2  0  0  0  0  0  0
  183.2310  178.5960  142.6700 O   0  0  0  0  0  0  0  0  0  0  0  0
  181.8420  176.8920  137.5080 C   0  0  0  0  0  1  0  0  0  0  0  0
  185.1440  178.2730  141.3460 N   0  0  0  0  0  0  0  0  0  0  0  0
  183.4570  177.7510  139.1200 N   0  0  1  0  0  0  0  0  0  0  0  0
  189.9490  177.0890  147.7690 C   0  0  0  0  0  2  0  0  0  0  0  0
  191.1280  176.4370  147.1330 C   0  0  0  0  0  0  0  0  0  0  0  0
  191.4240  175.2480  147.4260 O   0  0  0  0  0  1  0  0  0  0  0  0
  191.8840  177.1280  146.1970 O   0  0  0  0  0  0  0  0  0  0  0  0
  2 24  1  1  0  0  0
  3 11  2  0  0  0  0
  4 21  2  0  0  0  0
  4  3  1  0  0  0  0
  5 25  2  0  0  0  0
  6 18  1  6  0  0  0
  6  5  1  0  0  0  0
  7 24  1  6  0  0  0
  7 19  1  0  0  0  0
  8 17  1  0  0  0  0
  9 26  1  1  0  0  0
  9 15  1  0  0  0  0
  9 28  1  0  0  0  0
 10 20  1  0  0  0  0
 11 13  1  0  0  0  0
 12  2  1  0  0  0  0
 12  8  1  0  0  0  0
 13 12  2  0  0  0  0
 14 27  1  0  0  0  0
 15 18  1  0  0  0  0
 16  1  1  0  0  0  0
 17  7  1  0  0  0  0
 17 10  1  1  0  0  0
 19 16  1  0  0  0  0
 20  1  1  0  0  0  0
 20 29  1  1  0  0  0
 21 22  1  0  0  0  0
 22 14  2  0  0  0  0
 22 13  1  0  0  0  0
 23 14  1  0  0  0  0
 27  5  1  0  0  0  0
 27  2  1  0  0  0  0
 28 23  1  6  0  0  0
 28  6  1  0  0  0  0
 30 31  1  0  0  0  0
 30 29  1  0  0  0  0
 32 30  2  0  0  0  0
M  END
>  <MODEL>
3

>  <REMARK>
 VINA RESULT:      -8.6      1.694      2.228
  Name = 
  2 active torsions:
  status: ('A' for Active; 'I' for Inactive)
    1  A    between atoms: C_20  and  C_29
    2  A    between atoms: C_29  and  C_30
                            x       y       z     vdW  Elec       q    Type
                         _______ _______ _______ _____ _____    ______ ____

>  <TORSDO>
F 2

$$$$
=
 OpenBabel11122410523D

 32 37  0  0  1  0  0  0  0  0999 V2000
  187.9860  177.8860  145.4460 C   0  0  0  0  0  2  0  0  0  0  0  0
  183.9110  178.3650  142.1800 C   0  0  2  0  0  3  0  0  0  0  0  0
  179.5960  178.8400  144.3930 C   0  0  0  0  0  3  0  0  0  0  0  0
  178.9320  178.9250  143.1730 C   0  0  0  0  0  3  0  0  0  0  0  0
  183.9260  178.6870  139.6660 C   0  0  0  0  0  0  0  0  0  0  0  0
  183.2550  179.1820  138.4110 C   0  0  1  0  0  3  0  0  0  0  0  0
  185.9290  178.6900  143.6400 C   0  0  1  0  0  3  0  0  0  0  0  0
  183.6640  178.5610  144.6850 N   0  0  0  0  0  2  0  0  0  0  0  0
  181.2510  179.6270  137.3280 C   0  0  2  0  0  3  0  0  0  0  0  0
  185.5820  178.4450  146.2000 C   0  0  0  0  0  2  0  0  0  0  0  0
  180.9490  178.7290  144.4240 N   0  0  0  0  0  0  0  0  0  0  0  0
  183.0400  178.5730  143.3950 C   0  0  0  0  0  0  0  0  0  0  0  0
  181.7060  178.6890  143.2910 C   0  0  0  0  0  0  0  0  0  0  0  0
  181.7930  178.8310  140.8880 C   0  0  0  0  0  0  0  0  0  0  0  0
  182.0430  178.6600  136.4560 C   0  0  0  0  0  2  0  0  0  0  0  0
  187.2580  176.7500  144.7200 C   0  0  0  0  0  2  0  0  0  0  0  0
  185.0490  178.9910  144.8750 C   0  0  1  0  0  3  0  0  0  0  0  0
  183.1470  178.1310  137.3360 C   0  0  0  0  0  2  0  0  0  0  0  0
  186.4200  177.2370  143.5290 C   0  0  0  0  0  2  0  0  0  0  0  0
  187.0820  178.6920  146.4010 C   0  0  1  0  0  3  0  0  0  0  0  0
  179.6730  178.9070  141.9940 C   0  0  0  0  0  3  0  0  0  0  0  0
  181.0730  178.7970  142.0280 C   0  0  0  0  0  0  0  0  0  0  0  0
  181.1260  178.9160  139.5440 C   0  0  0  0  0  2  0  0  0  0  0  0
  185.2250  179.1300  142.3570 C   0  0  0  0  0  2  0  0  0  0  0  0
  185.1130  178.2650  139.6000 O   0  0  0  0  0  0  0  0  0  0  0  0
  181.1850  180.9860  136.6590 C   0  0  0  0  0  1  0  0  0  0  0  0
  183.2260  178.7120  140.9250 N   0  0  0  0  0  0  0  0  0  0  0  0
  181.9130  179.7430  138.6260 N   0  0  1  0  0  0  0  0  0  0  0  0
  187.4400  178.3770  147.8440 C   0  0  0  0  0  2  0  0  0  0  0  0
  188.6530  177.5130  147.9130 C   0  0  0  0  0  0  0  0  0  0  0  0
  189.7940  178.0370  148.0110 O   0  0  0  0  0  1  0  0  0  0  0  0
  188.5250  176.1320  147.8970 O   0  0  0  0  0  0  0  0  0  0  0  0
  1 20  1  0  0  0  0
  2 24  1  1  0  0  0
  2 12  1  0  0  0  0
  3 11  2  0  0  0  0
  4  3  1  0  0  0  0
  5 27  1  0  0  0  0
  6 18  1  6  0  0  0
  6 28  1  0  0  0  0
  6  5  1  0  0  0  0
  7 24  1  6  0  0  0
  7 17  1  0  0  0  0
  8 17  1  0  0  0  0
  9 26  1  6  0  0  0
  9 28  1  0  0  0  0
 10 20  1  0  0  0  0
 12  8  1  0  0  0  0
 13 12  2  0  0  0  0
 13 11  1  0  0  0  0
 14 27  1  0  0  0  0
 14 22  2  0  0  0  0
 15  9  1  0  0  0  0
 15 18  1  0  0  0  0
 16  1  1  0  0  0  0
 17 10  1  1  0  0  0
 19  7  1  0  0  0  0
 19 16  1  0  0  0  0
 20 29  1  1  0  0  0
 21 22  1  0  0  0  0
 21  4  2  0  0  0  0
 22 13  1  0  0  0  0
 23 14  1  0  0  0  0
 25  5  2  0  0  0  0
 27  2  1  0  0  0  0
 28 23  1  1  0  0  0
 29 30  1  0  0  0  0
 30 31  1  0  0  0  0
 32 30  2  0  0  0  0
M  END
>  <MODEL>
4

>  <REMARK>
 VINA RESULT:      -8.3      2.474      4.795
  Name = 
  2 active torsions:
  status: ('A' for Active; 'I' for Inactive)
    1  A    between atoms: C_20  and  C_29
    2  A    between atoms: C_29  and  C_30
                            x       y       z     vdW  Elec       q    Type
                         _______ _______ _______ _____ _____    ______ ____

>  <TORSDO>
F 2

$$$$
=
 OpenBabel11122410523D

 32 37  0  0  1  0  0  0  0  0999 V2000
  181.8370  179.3480  138.5310 C   0  0  0  0  0  2  0  0  0  0  0  0
  185.7990  178.5290  141.8670 C   0  0  2  0  0  3  0  0  0  0  0  0
  184.5320  178.6290  146.5700 C   0  0  0  0  0  3  0  0  0  0  0  0
  185.8400  178.3750  146.9720 C   0  0  0  0  0  3  0  0  0  0  0  0
  188.1720  177.7960  141.3570 C   0  0  0  0  0  0  0  0  0  0  0  0
  189.4530  177.1330  141.7910 C   0  0  1  0  0  3  0  0  0  0  0  0
  183.9040  178.3550  140.2270 C   0  0  1  0  0  3  0  0  0  0  0  0
  183.4080  178.7600  142.6410 N   0  0  0  0  0  2  0  0  0  0  0  0
  190.8660  176.6100  143.5570 C   0  0  2  0  0  3  0  0  0  0  0  0
  181.5470  179.0350  141.0760 C   0  0  0  0  0  2  0  0  0  0  0  0
  184.2240  178.6800  145.2480 N   0  0  0  0  0  0  0  0  0  0  0  0
  184.7860  178.5650  142.9830 C   0  0  0  0  0  0  0  0  0  0  0  0
  185.1590  178.4960  144.2720 C   0  0  0  0  0  0  0  0  0  0  0  0
  187.4360  177.9560  143.7010 C   0  0  0  0  0  0  0  0  0  0  0  0
  191.6810  177.3820  142.5260 C   0  0  0  0  0  2  0  0  0  0  0  0
  182.8660  180.3820  138.9980 C   0  0  0  0  0  2  0  0  0  0  0  0
  182.8590  178.3030  141.3650 C   0  0  1  0  0  3  0  0  0  0  0  0
  190.6720  177.9960  141.5890 C   0  0  0  0  0  2  0  0  0  0  0  0
  184.1230  179.7450  139.6080 C   0  0  0  0  0  2  0  0  0  0  0  0
  180.9910  178.7530  139.6750 C   0  0  1  0  0  3  0  0  0  0  0  0
  186.8180  178.1630  146.0040 C   0  0  0  0  0  3  0  0  0  0  0  0
  186.4980  178.2120  144.6370 C   0  0  0  0  0  0  0  0  0  0  0  0
  188.8630  177.6820  144.0800 C   0  0  0  0  0  2  0  0  0  0  0  0
  185.2280  177.7420  140.6840 C   0  0  0  0  0  2  0  0  0  0  0  0
  188.0420  178.1460  140.1520 O   0  0  0  0  0  0  0  0  0  0  0  0
  191.3210  175.1640  143.5930 C   0  0  0  0  0  1  0  0  0  0  0  0
  187.1060  178.0120  142.3020 N   0  0  0  0  0  0  0  0  0  0  0  0
  189.4530  176.6780  143.1900 N   0  0  1  0  0  0  0  0  0  0  0  0
  179.5690  179.2850  139.5990 C   0  0  0  0  0  2  0  0  0  0  0  0
  179.4330  180.5510  140.3750 C   0  0  0  0  0  0  0  0  0  0  0  0
  179.7420  181.6500  139.8440 O   0  0  0  0  0  0  0  0  0  0  0  0
  178.9410  180.5220  141.6720 O   0  0  0  0  0  1  0  0  0  0  0  0
  1 16  1  0  0  0  0
  1 20  1  0  0  0  0
  2 24  1  6  0  0  0
  2 27  1  0  0  0  0
  2 12  1  0  0  0  0
  3  4  1  0  0  0  0
  5  6  1  0  0  0  0
  5 27  1  0  0  0  0
  6 18  1  1  0  0  0
  6 28  1  0  0  0  0
  7 19  1  1  0  0  0
  7 24  1  0  0  0  0
  7 17  1  0  0  0  0
  8 12  1  0  0  0  0
  9 26  1  6  0  0  0
 11  3  2  0  0  0  0
 12 13  2  0  0  0  0
 13 22  1  0  0  0  0
 13 11  1  0  0  0  0
 14 23  1  0  0  0  0
 14 22  2  0  0  0  0
 15  9  1  0  0  0  0
 16 19  1  0  0  0  0
 17 10  1  6  0  0  0
 17  8  1  0  0  0  0
 18 15  1  0  0  0  0
 20 29  1  1  0  0  0
 20 10  1  0  0  0  0
 21  4  2  0  0  0  0
 22 21  1  0  0  0  0
 25  5  2  0  0  0  0
 27 14  1  0  0  0  0
 28  9  1  0  0  0  0
 28 23  1  1  0  0  0
 29 30  1  0  0  0  0
 30 32  1  0  0  0  0
 31 30  2  0  0  0  0
M  END
>  <MODEL>
5

>  <REMARK>
 VINA RESULT:      -8.1      2.772      8.840
  Name = 
  2 active torsions:
  status: ('A' for Active; 'I' for Inactive)
    1  A    between atoms: C_20  and  C_29
    2  A    between atoms: C_29  and  C_30
                            x       y       z     vdW  Elec       q    Type
                         _______ _______ _______ _____ _____    ______ ____

>  <TORSDO>
F 2

$$$$
=
 OpenBabel11122410523D

 32 37  0  0  1  0  0  0  0  0999 V2000
  188.9590  178.0520  136.6930 C   0  0  0  0  0  2  0  0  0  0  0  0
  187.7050  178.2750  141.7800 C   0  0  2  0  0  3  0  0  0  0  0  0
  182.9800  179.0740  142.6610 C   0  0  0  0  0  3  0  0  0  0  0  0
  183.1870  179.0390  144.0370 C   0  0  0  0  0  3  0  0  0  0  0  0
  189.1470  177.7250  143.7920 C   0  0  0  0  0  0  0  0  0  0  0  0
  189.2670  177.2930  145.2300 C   0  0  1  0  0  3  0  0  0  0  0  0
  188.2810  177.6070  139.4280 C   0  0  1  0  0  3  0  0  0  0  0  0
  185.9650  178.3800  139.9540 N   0  0  0  0  0  2  0  0  0  0  0  0
  188.2830  177.2490  147.3320 C   0  0  2  0  0  3  0  0  0  0  0  0
  186.5410  178.1680  137.5850 C   0  0  0  0  0  2  0  0  0  0  0  0
  184.0170  178.8550  141.8110 N   0  0  0  0  0  0  0  0  0  0  0  0
  186.2620  178.4000  141.3560 C   0  0  0  0  0  0  0  0  0  0  0  0
  185.2830  178.6020  142.2520 C   0  0  0  0  0  0  0  0  0  0  0  0
  186.7560  178.2190  144.1180 C   0  0  0  0  0  0  0  0  0  0  0  0
  189.6500  177.9080  147.4740 C   0  0  0  0  0  2  0  0  0  0  0  0
  189.1250  179.2580  137.6230 C   0  0  0  0  0  2  0  0  0  0  0  0
  186.7960  177.6460  139.0010 C   0  0  1  0  0  3  0  0  0  0  0  0
  190.0930  178.2330  146.0690 C   0  0  0  0  0  2  0  0  0  0  0  0
  189.0830  178.8800  139.1100 C   0  0  0  0  0  2  0  0  0  0  0  0
  187.4980  177.5830  136.5400 C   0  0  1  0  0  3  0  0  0  0  0  0
  184.4620  178.7650  144.5240 C   0  0  0  0  0  3  0  0  0  0  0  0
  185.5330  178.5350  143.6440 C   0  0  0  0  0  0  0  0  0  0  0  0
  187.0360  178.1740  145.5940 C   0  0  0  0  0  2  0  0  0  0  0  0
  188.4060  177.2330  140.9050 C   0  0  0  0  0  2  0  0  0  0  0  0
  190.1930  177.8380  143.0960 O   0  0  0  0  0  0  0  0  0  0  0  0
  188.2960  175.8910  148.0050 C   0  0  0  0  0  1  0  0  0  0  0  0
  187.8520  177.9900  143.2160 N   0  0  0  0  0  0  0  0  0  0  0  0
  187.9780  177.0970  145.9100 N   0  0  1  0  0  0  0  0  0  0  0  0
  186.9820  177.9350  135.1550 C   0  0  0  0  0  2  0  0  0  0  0  0
  185.8460  177.0510  134.7700 C   0  0  0  0  0  0  0  0  0  0  0  0
  186.0310  175.8130  134.6300 O   0  0  0  0  0  1  0  0  0  0  0  0
  184.5770  177.5850  134.5940 O   0  0  0  0  0  0  0  0  0  0  0  0
  1 16  1  0  0  0  0
  2 24  1  6  0  0  0
  2 27  1  0  0  0  0
  3  4  1  0  0  0  0
  4 21  2  0  0  0  0
  5  6  1  0  0  0  0
  6 28  1  0  0  0  0
  6 18  1  1  0  0  0
  7 19  1  1  0  0  0
  7 24  1  0  0  0  0
  8 12  1  0  0  0  0
  9 15  1  0  0  0  0
  9 26  1  1  0  0  0
 11 13  1  0  0  0  0
 11  3  2  0  0  0  0
 12  2  1  0  0  0  0
 12 13  2  0  0  0  0
 13 22  1  0  0  0  0
 14 23  1  0  0  0  0
 16 19  1  0  0  0  0
 17 10  1  6  0  0  0
 17  7  1  0  0  0  0
 17  8  1  0  0  0  0
 18 15  1  0  0  0  0
 20 29  1  6  0  0  0
 20  1  1  0  0  0  0
 20 10  1  0  0  0  0
 22 14  2  0  0  0  0
 22 21  1  0  0  0  0
 25  5  2  0  0  0  0
 27  5  1  0  0  0  0
 27 14  1  0  0  0  0
 28 23  1  6  0  0  0
 28  9  1  0  0  0  0
 30 29  1  0  0  0  0
 31 30  1  0  0  0  0
 32 30  2  0  0  0  0
M  END
>  <MODEL>
6

>  <REMARK>
 VINA RESULT:      -8.1      3.382      8.260
  Name = 
  2 active torsions:
  status: ('A' for Active; 'I' for Inactive)
    1  A    between atoms: C_20  and  C_29
    2  A    between atoms: C_29  and  C_30
                            x       y       z     vdW  Elec       q    Type
                         _______ _______ _______ _____ _____    ______ ____

>  <TORSDO>
F 2

$$$$
=
 OpenBabel11122410523D

 32 37  0  0  1  0  0  0  0  0999 V2000
  191.3670  177.4670  142.3420 C   0  0  0  0  0  2  0  0  0  0  0  0
  186.2450  178.1460  141.4460 C   0  0  2  0  0  3  0  0  0  0  0  0
  183.5390  178.6310  145.4690 C   0  0  0  0  0  3  0  0  0  0  0  0
  182.3750  178.7730  144.7190 C   0  0  0  0  0  3  0  0  0  0  0  0
  185.0650  178.5580  139.2400 C   0  0  0  0  0  0  0  0  0  0  0  0
  183.8920  179.1110  138.4730 C   0  0  1  0  0  3  0  0  0  0  0  0
  188.7260  178.3770  141.7630 C   0  0  1  0  0  3  0  0  0  0  0  0
  187.2370  178.2580  143.7650 N   0  0  0  0  0  2  0  0  0  0  0  0
  181.6320  179.6360  138.4960 C   0  0  2  0  0  3  0  0  0  0  0  0
  189.6410  178.0480  144.1700 C   0  0  0  0  0  2  0  0  0  0  0  0
  184.7370  178.4910  144.8440 N   0  0  0  0  0  0  0  0  0  0  0  0
  186.0720  178.3290  142.9340 C   0  0  0  0  0  0  0  0  0  0  0  0
  184.8560  178.4760  143.4850 C   0  0  0  0  0  0  0  0  0  0  0  0
  183.7850  178.7020  141.3400 C   0  0  0  0  0  0  0  0  0  0  0  0
  181.8740  178.6850  137.3300 C   0  0  0  0  0  2  0  0  0  0  0  0
  190.3410  176.3720  142.0310 C   0  0  0  0  0  2  0  0  0  0  0  0
  188.5570  178.6520  143.2750 C   0  0  1  0  0  3  0  0  0  0  0  0
  183.2450  178.1010  137.5600 C   0  0  0  0  0  2  0  0  0  0  0  0
  189.0530  176.9190  141.4000 C   0  0  0  0  0  2  0  0  0  0  0  0
  191.0610  178.2570  143.6310 C   0  0  1  0  0  3  0  0  0  0  0  0
  182.4590  178.7820  143.3290 C   0  0  0  0  0  3  0  0  0  0  0  0
  183.6990  178.6420  142.6850 C   0  0  0  0  0  0  0  0  0  0  0  0
  182.5590  178.8480  140.4830 C   0  0  0  0  0  2  0  0  0  0  0  0
  187.5090  178.8770  140.9860 C   0  0  0  0  0  2  0  0  0  0  0  0
  186.0590  178.1130  138.6040 O   0  0  0  0  0  0  0  0  0  0  0  0
  181.3010  181.0190  137.9690 C   0  0  0  0  0  1  0  0  0  0  0  0
  185.0550  178.5520  140.6810 N   0  0  0  0  0  0  0  0  0  0  0  0
  182.8390  179.6920  139.3180 N   0  0  1  0  0  0  0  0  0  0  0  0
  192.0560  177.8830  144.7170 C   0  0  0  0  0  2  0  0  0  0  0  0
  191.6200  176.6510  145.4340 C   0  0  0  0  0  0  0  0  0  0  0  0
  191.8690  175.5170  144.9450 O   0  0  0  0  0  0  0  0  0  0  0  0
  190.9660  176.7500  146.6540 O   0  0  0  0  0  1  0  0  0  0  0  0
  1 20  1  0  0  0  0
  2 24  1  6  0  0  0
  2 12  1  0  0  0  0
  4  3  1  0  0  0  0
  5 27  1  0  0  0  0
  6 18  1  1  0  0  0
  6  5  1  0  0  0  0
  6 28  1  0  0  0  0
  7 24  1  6  0  0  0
  7 17  1  0  0  0  0
  9 26  1  6  0  0  0
  9 28  1  0  0  0  0
 11  3  2  0  0  0  0
 12 13  2  0  0  0  0
 12  8  1  0  0  0  0
 13 11  1  0  0  0  0
 14 22  2  0  0  0  0
 15 18  1  0  0  0  0
 15  9  1  0  0  0  0
 16  1  1  0  0  0  0
 17  8  1  0  0  0  0
 17 10  1  1  0  0  0
 19  7  1  0  0  0  0
 19 16  1  0  0  0  0
 20 10  1  0  0  0  0
 20 29  1  1  0  0  0
 21  4  2  0  0  0  0
 22 21  1  0  0  0  0
 22 13  1  0  0  0  0
 23 14  1  0  0  0  0
 25  5  2  0  0  0  0
 27 14  1  0  0  0  0
 27  2  1  0  0  0  0
 28 23  1  1  0  0  0
 29 30  1  0  0  0  0
 30 32  1  0  0  0  0
 31 30  2  0  0  0  0
M  END
>  <MODEL>
7

>  <REMARK>
 VINA RESULT:      -8.0      2.563      4.367
  Name = 
  2 active torsions:
  status: ('A' for Active; 'I' for Inactive)
    1  A    between atoms: C_20  and  C_29
    2  A    between atoms: C_29  and  C_30
                            x       y       z     vdW  Elec       q    Type
                         _______ _______ _______ _____ _____    ______ ____

>  <TORSDO>
F 2

$$$$
=
 OpenBabel11122410523D

 32 37  0  0  1  0  0  0  0  0999 V2000
  181.7020  179.2840  140.2210 C   0  0  0  0  0  2  0  0  0  0  0  0
  186.0860  177.9760  142.7830 C   0  0  2  0  0  3  0  0  0  0  0  0
  190.0360  177.5860  139.9560 C   0  0  0  0  0  3  0  0  0  0  0  0
  190.8350  177.2540  141.0460 C   0  0  0  0  0  3  0  0  0  0  0  0
  186.4750  177.8280  145.2840 C   0  0  0  0  0  0  0  0  0  0  0  0
  187.4120  177.8740  146.4620 C   0  0  1  0  0  3  0  0  0  0  0  0
  184.1080  179.1240  141.7440 C   0  0  1  0  0  3  0  0  0  0  0  0
  186.0770  178.5430  140.3230 N   0  0  0  0  0  2  0  0  0  0  0  0
  189.5710  177.5230  147.2390 C   0  0  2  0  0  3  0  0  0  0  0  0
  184.0500  179.2570  139.1530 C   0  0  0  0  0  2  0  0  0  0  0  0
  188.7210  177.8750  140.1400 N   0  0  0  0  0  0  0  0  0  0  0  0
  186.8250  178.1420  141.4780 C   0  0  0  0  0  0  0  0  0  0  0  0
  188.1320  177.8500  141.3690 C   0  0  0  0  0  0  0  0  0  0  0  0
  188.3840  177.5730  143.7480 C   0  0  0  0  0  0  0  0  0  0  0  0
  188.6290  176.6820  148.0930 C   0  0  0  0  0  2  0  0  0  0  0  0
  182.1230  177.8750  140.6510 C   0  0  0  0  0  2  0  0  0  0  0  0
  184.8830  179.3780  140.4310 C   0  0  1  0  0  3  0  0  0  0  0  0
  187.3170  176.6600  147.3500 C   0  0  0  0  0  2  0  0  0  0  0  0
  183.2070  177.8780  141.7380 C   0  0  0  0  0  2  0  0  0  0  0  0
  182.6890  179.9560  139.2460 C   0  0  1  0  0  3  0  0  0  0  0  0
  190.2730  177.2370  142.3200 C   0  0  0  0  0  3  0  0  0  0  0  0
  188.9140  177.5410  142.5080 C   0  0  0  0  0  0  0  0  0  0  0  0
  189.2000  177.2180  144.9580 C   0  0  0  0  0  2  0  0  0  0  0  0
  185.0640  179.1040  142.9370 C   0  0  0  0  0  2  0  0  0  0  0  0
  185.2330  177.7590  145.4920 O   0  0  0  0  0  0  0  0  0  0  0  0
  190.1360  178.6600  148.0670 C   0  0  0  0  0  1  0  0  0  0  0  0
  186.9910  177.8780  143.9390 N   0  0  0  0  0  0  0  0  0  0  0  0
  188.8260  178.0570  146.1010 N   0  0  1  0  0  0  0  0  0  0  0  0
  182.0790  180.0230  137.8550 C   0  0  0  0  0  2  0  0  0  0  0  0
  181.2630  181.2600  137.6920 C   0  0  0  0  0  0  0  0  0  0  0  0
  181.5480  182.2930  138.3540 O   0  0  0  0  0  1  0  0  0  0  0  0
  180.2070  181.2830  136.7920 O   0  0  0  0  0  0  0  0  0  0  0  0
  1 16  1  0  0  0  0
  2 24  1  1  0  0  0
  2 27  1  0  0  0  0
  3 11  2  0  0  0  0
  3  4  1  0  0  0  0
  4 21  2  0  0  0  0
  5 25  2  0  0  0  0
  5  6  1  0  0  0  0
  6 18  1  6  0  0  0
  7 19  1  6  0  0  0
  7 24  1  0  0  0  0
  8 17  1  0  0  0  0
  8 12  1  0  0  0  0
  9 26  1  1  0  0  0
  9 15  1  0  0  0  0
 10 20  1  0  0  0  0
 11 13  1  0  0  0  0
 12  2  1  0  0  0  0
 13 12  2  0  0  0  0
 13 22  1  0  0  0  0
 14 27  1  0  0  0  0
 14 23  1  0  0  0  0
 16 19  1  0  0  0  0
 17 10  1  6  0  0  0
 17  7  1  0  0  0  0
 18 15  1  0  0  0  0
 20 29  1  6  0  0  0
 20  1  1  0  0  0  0
 21 22  1  0  0  0  0
 22 14  2  0  0  0  0
 27  5  1  0  0  0  0
 28 23  1  6  0  0  0
 28  6  1  0  0  0  0
 28  9  1  0  0  0  0
 30 29  1  0  0  0  0
 30 31  1  0  0  0  0
 32 30  2  0  0  0  0
M  END
>  <MODEL>
8

>  <REMARK>
 VINA RESULT:      -7.8      2.884      8.200
  Name = 
  2 active torsions:
  status: ('A' for Active; 'I' for Inactive)
    1  A    between atoms: C_20  and  C_29
    2  A    between atoms: C_29  and  C_30
                            x       y       z     vdW  Elec       q    Type
                         _______ _______ _______ _____ _____    ______ ____

>  <TORSDO>
F 2

$$$$
=
 OpenBabel11122410523D

 32 37  0  0  1  0  0  0  0  0999 V2000
  185.9960  178.6280  146.4570 C   0  0  0  0  0  2  0  0  0  0  0  0
  184.4180  178.7280  141.4580 C   0  0  2  0  0  3  0  0  0  0  0  0
  188.0080  178.2530  138.1980 C   0  0  0  0  0  3  0  0  0  0  0  0
  187.1120  178.3370  137.1360 C   0  0  0  0  0  3  0  0  0  0  0  0
  182.0540  178.6790  140.5420 C   0  0  0  0  0  0  0  0  0  0  0  0
  181.0960  178.3610  139.4250 C   0  0  1  0  0  3  0  0  0  0  0  0
  185.0080  178.1380  143.8270 C   0  0  1  0  0  3  0  0  0  0  0  0
  186.8150  178.2760  142.1090 N   0  0  0  0  0  2  0  0  0  0  0  0
  180.7880  178.1450  137.1340 C   0  0  2  0  0  3  0  0  0  0  0  0
  187.5280  178.1230  144.4440 C   0  0  0  0  0  2  0  0  0  0  0  0
  187.5510  178.2860  139.4770 N   0  0  0  0  0  0  0  0  0  0  0  0
  185.8460  178.4380  141.0660 C   0  0  0  0  0  0  0  0  0  0  0  0
  186.2270  178.4060  139.7780 C   0  0  0  0  0  0  0  0  0  0  0  0
  183.9550  178.5210  138.9850 C   0  0  0  0  0  0  0  0  0  0  0  0
  179.7680  179.1570  137.6450 C   0  0  0  0  0  2  0  0  0  0  0  0
  185.6810  179.8740  145.6240 C   0  0  0  0  0  2  0  0  0  0  0  0
  186.4500  177.7530  143.4240 C   0  0  1  0  0  3  0  0  0  0  0  0
  180.2240  179.5260  139.0340 C   0  0  0  0  0  2  0  0  0  0  0  0
  184.8430  179.5650  144.3750 C   0  0  0  0  0  2  0  0  0  0  0  0
  187.1460  177.7730  145.8870 C   0  0  1  0  0  3  0  0  0  0  0  0
  185.7500  178.4420  137.4040 C   0  0  0  0  0  3  0  0  0  0  0  0
  185.2790  178.4710  138.7270 C   0  0  0  0  0  0  0  0  0  0  0  0
  182.9460  178.6190  137.8760 C   0  0  0  0  0  2  0  0  0  0  0  0
  184.0400  177.8780  142.6730 C   0  0  0  0  0  2  0  0  0  0  0  0
  181.5940  179.0420  141.6590 O   0  0  0  0  0  0  0  0  0  0  0  0
  180.0810  176.8730  136.7100 C   0  0  0  0  0  1  0  0  0  0  0  0
  183.4760  178.5570  140.3410 N   0  0  0  0  0  0  0  0  0  0  0  0
  181.7400  177.8540  138.2040 N   0  0  1  0  0  0  0  0  0  0  0  0
  188.3790  177.9110  146.7660 C   0  0  0  0  0  2  0  0  0  0  0  0
  188.1950  177.1860  148.0550 C   0  0  0  0  0  0  0  0  0  0  0  0
  188.3060  175.9330  148.0930 O   0  0  0  0  0  0  0  0  0  0  0  0
  187.9300  177.8940  149.2190 O   0  0  0  0  0  1  0  0  0  0  0  0
  2 24  1  1  0  0  0
  3 11  2  0  0  0  0
  4 21  2  0  0  0  0
  4  3  1  0  0  0  0
  5 25  2  0  0  0  0
  6 18  1  6  0  0  0
  6  5  1  0  0  0  0
  7 24  1  6  0  0  0
  7 19  1  0  0  0  0
  8 17  1  0  0  0  0
  9 26  1  1  0  0  0
  9 15  1  0  0  0  0
  9 28  1  0  0  0  0
 10 20  1  0  0  0  0
 11 13  1  0  0  0  0
 12  2  1  0  0  0  0
 12  8  1  0  0  0  0
 13 12  2  0  0  0  0
 14 27  1  0  0  0  0
 15 18  1  0  0  0  0
 16  1  1  0  0  0  0
 17  7  1  0  0  0  0
 17 10  1  1  0  0  0
 19 16  1  0  0  0  0
 20  1  1  0  0  0  0
 20 29  1  1  0  0  0
 21 22  1  0  0  0  0
 22 14  2  0  0  0  0
 22 13  1  0  0  0  0
 23 14  1  0  0  0  0
 27  5  1  0  0  0  0
 27  2  1  0  0  0  0
 28 23  1  6  0  0  0
 28  6  1  0  0  0  0
 29 30  1  0  0  0  0
 30 31  2  0  0  0  0
 30 32  1  0  0  0  0
M  END
>  <MODEL>
9

>  <REMARK>
 VINA RESULT:      -7.8      2.371      3.264
  Name = 
  2 active torsions:
  status: ('A' for Active; 'I' for Inactive)
    1  A    between atoms: C_20  and  C_29
    2  A    between atoms: C_29  and  C_30
                            x       y       z     vdW  Elec       q    Type
                         _______ _______ _______ _____ _____    ______ ____

>  <TORSDO>
F 2

$$$$
