=
 OpenBabel11122410453D

 32 37  0  0  1  0  0  0  0  0999 V2000
  189.7050  175.8350  136.2080 C   0  0  0  0  0  2  0  0  0  0  0  0
  188.3890  177.8450  141.3530 C   0  0  0  0  0  0  0  0  0  0  0  0
  191.7900  176.5970  144.6310 C   0  0  0  0  0  3  0  0  0  0  0  0
  190.8210  176.8370  145.6660 N   0  0  0  0  0  0  0  0  0  0  0  0
  186.0960  178.6500  141.9280 C   0  0  1  0  0  3  0  0  0  0  0  0
  185.1540  178.6100  143.0890 C   0  0  0  0  0  0  0  0  0  0  0  0
  188.7920  177.0830  139.0130 C   0  0  0  0  0  0  0  0  0  0  0  0
  190.7280  177.1580  140.5730 C   0  0  0  0  0  2  0  0  0  0  0  0
  184.4770  178.4240  145.1630 N   0  0  0  0  0  0  0  0  0  0  0  0
  190.8430  175.7400  138.4610 C   0  0  0  0  0  2  0  0  0  0  0  0
  191.4790  176.7610  143.3450 C   0  0  0  0  0  3  0  0  0  0  0  0
  189.7540  177.3740  141.7010 C   0  0  0  0  0  0  0  0  0  0  0  0
  190.1180  177.1980  142.9840 C   0  0  0  0  0  0  0  0  0  0  0  0
  187.8310  177.8390  143.7400 C   0  0  0  0  0  0  0  0  0  0  0  0
  183.4500  178.7810  144.3610 C   0  0  0  0  0  3  0  0  0  0  0  0
  188.4490  175.5690  137.0360 C   0  0  0  0  0  2  0  0  0  0  0  0
  190.0390  176.6500  139.3360 C   0  0  0  0  0  0  0  0  0  0  0  0
  183.8380  178.9100  143.0670 N   0  0  0  0  0  0  0  0  0  0  0  0
  188.1090  176.6900  137.8480 O   0  0  0  0  0  0  0  0  0  0  0  0
  190.9030  176.2930  137.0400 C   0  0  1  0  0  3  0  0  0  0  0  0
  189.6060  177.2220  145.4050 C   0  0  0  0  0  3  0  0  0  0  0  0
  189.1750  177.4280  144.0480 N   0  0  0  0  0  0  0  0  0  0  0  0
  186.9090  177.9470  144.7120 C   0  0  0  0  0  3  0  0  0  0  0  0
  188.0920  178.0810  139.8950 C   0  0  0  0  0  2  0  0  0  0  0  0
  186.2250  179.9690  141.4900 O   0  0  0  0  0  1  0  0  0  0  0  0
  184.4190  178.1960  146.5950 C   0  0  0  0  0  1  0  0  0  0  0  0
  187.4680  178.0970  142.3050 C   0  0  0  0  0  0  0  0  0  0  0  0
  185.5410  178.3230  144.3590 C   0  0  0  0  0  0  0  0  0  0  0  0
  192.1320  175.8670  136.3870 N   0  0  0  0  0  2  0  0  0  0  0  0
  193.4240  176.2840  136.8340 C   0  0  0  0  0  0  0  0  0  0  0  0
  193.5440  177.0690  137.8110 O   0  0  0  0  0  0  0  0  0  0  0  0
  194.6380  175.7910  136.1320 C   0  0  0  0  0  1  0  0  0  0  0  0
  1 16  1  0  0  0  0
  1 20  1  0  0  0  0
  2 12  1  0  0  0  0
  2 27  2  0  0  0  0
  3  4  1  0  0  0  0
  5 25  1  1  0  0  0
  5 27  1  0  0  0  0
  5  6  1  0  0  0  0
  6 28  2  0  0  0  0
  7 17  2  0  0  0  0
  7 24  1  0  0  0  0
  8 12  1  0  0  0  0
  9 26  1  0  0  0  0
 10 17  1  0  0  0  0
 11  3  2  0  0  0  0
 12 13  2  0  0  0  0
 13 11  1  0  0  0  0
 13 22  1  0  0  0  0
 14 22  1  0  0  0  0
 14 23  2  0  0  0  0
 15  9  1  0  0  0  0
 16 19  1  0  0  0  0
 17  8  1  0  0  0  0
 18  6  1  0  0  0  0
 18 15  2  0  0  0  0
 19  7  1  0  0  0  0
 20 29  1  6  0  0  0
 20 10  1  0  0  0  0
 21  4  2  0  0  0  0
 22 21  1  0  0  0  0
 24  2  1  0  0  0  0
 27 14  1  0  0  0  0
 28 23  1  0  0  0  0
 28  9  1  0  0  0  0
 29 30  1  0  0  0  0
 30 31  2  0  0  0  0
 32 30  1  0  0  0  0
M  END
>  <MODEL>
1

>  <REMARK>
 VINA RESULT:     -10.1      0.000      0.000
  Name = 
  1 active torsions:
  status: ('A' for Active; 'I' for Inactive)
    1  A    between atoms: C_20  and  N_29
                            x       y       z     vdW  Elec       q    Type
                         _______ _______ _______ _____ _____    ______ ____

>  <TORSDO>
F 1

$$$$
=
 OpenBabel11122410453D

 32 37  0  0  1  0  0  0  0  0999 V2000
  179.3600  178.7630  142.7550 C   0  0  0  0  0  2  0  0  0  0  0  0
  184.9230  178.8420  143.8940 C   0  0  0  0  0  0  0  0  0  0  0  0
  187.5420  178.1140  139.8340 C   0  0  0  0  0  3  0  0  0  0  0  0
  188.6490  177.7330  140.6670 N   0  0  0  0  0  0  0  0  0  0  0  0
  185.8160  178.6130  146.2150 C   0  0  0  0  0  0  0  0  0  0  0  0
  186.9650  177.9570  146.9130 C   0  0  0  0  0  0  0  0  0  0  0  0
  182.4460  178.8740  143.6080 C   0  0  0  0  0  0  0  0  0  0  0  0
  183.8650  179.2430  141.5990 C   0  0  0  0  0  2  0  0  0  0  0  0
  188.9340  177.0390  147.1830 N   0  0  0  0  0  0  0  0  0  0  0  0
  181.4350  178.5260  141.3340 C   0  0  0  0  0  2  0  0  0  0  0  0
  186.3710  178.4690  140.3650 C   0  0  0  0  0  3  0  0  0  0  0  0
  185.0550  178.8150  142.4150 C   0  0  0  0  0  0  0  0  0  0  0  0
  186.2160  178.4700  141.8310 C   0  0  0  0  0  0  0  0  0  0  0  0
  187.2360  178.0510  144.0670 C   0  0  2  0  0  3  0  0  0  0  0  0
  188.3180  177.1940  148.3750 C   0  0  0  0  0  3  0  0  0  0  0  0
  180.1430  177.8740  143.7200 C   0  0  0  0  0  2  0  0  0  0  0  0
  182.5700  178.8460  142.2560 C   0  0  0  0  0  0  0  0  0  0  0  0
  187.0940  177.7670  148.2430 N   0  0  0  0  0  0  0  0  0  0  0  0
  181.2540  178.5640  144.2870 O   0  0  0  0  0  0  0  0  0  0  0  0
  180.2260  179.3960  141.6660 C   0  0  1  0  0  3  0  0  0  0  0  0
  188.5690  177.7140  141.9650 C   0  0  0  0  0  3  0  0  0  0  0  0
  187.3480  178.0810  142.6320 N   0  0  0  0  0  0  0  0  0  0  0  0
  188.2450  177.5820  144.8210 C   0  0  0  0  0  3  0  0  0  0  0  0
  183.6080  179.3080  144.4610 C   0  0  0  0  0  2  0  0  0  0  0  0
  185.7610  179.9570  146.5900 O   0  0  0  0  0  1  0  0  0  0  0  0
  190.2450  176.4590  146.9540 C   0  0  0  0  0  1  0  0  0  0  0  0
  185.9530  178.5080  144.6990 C   0  0  0  0  0  0  0  0  0  0  0  0
  188.0820  177.5230  146.2730 C   0  0  0  0  0  0  0  0  0  0  0  0
  179.4190  179.6080  140.4740 N   0  0  0  0  0  2  0  0  0  0  0  0
  179.7960  180.5240  139.4430 C   0  0  0  0  0  0  0  0  0  0  0  0
  180.8470  181.2100  139.5450 O   0  0  0  0  0  0  0  0  0  0  0  0
  178.9330  180.6730  138.2420 C   0  0  0  0  0  1  0  0  0  0  0  0
  1 16  1  0  0  0  0
  2 24  1  0  0  0  0
  2 27  2  0  0  0  0
  3 11  2  0  0  0  0
  3  4  1  0  0  0  0
  4 21  2  0  0  0  0
  5 25  1  0  0  0  0
  5  6  2  0  0  0  0
  6 18  1  0  0  0  0
  7 19  1  0  0  0  0
  7 24  1  0  0  0  0
  8 17  1  0  0  0  0
  8 12  1  0  0  0  0
  9 15  1  0  0  0  0
 10 20  1  0  0  0  0
 10 17  1  0  0  0  0
 11 13  1  0  0  0  0
 12  2  1  0  0  0  0
 13 12  2  0  0  0  0
 13 22  1  0  0  0  0
 14 27  1  0  0  0  0
 14 23  1  6  0  0  0
 16 19  1  0  0  0  0
 17  7  2  0  0  0  0
 18 15  2  0  0  0  0
 20 29  1  6  0  0  0
 20  1  1  0  0  0  0
 21 22  1  0  0  0  0
 22 14  1  0  0  0  0
 23 28  2  0  0  0  0
 26  9  1  0  0  0  0
 27  5  1  0  0  0  0
 28  6  1  0  0  0  0
 28  9  1  0  0  0  0
 30 31  2  0  0  0  0
 30 29  1  0  0  0  0
 32 30  1  0  0  0  0
M  END
>  <MODEL>
2

>  <REMARK>
 VINA RESULT:      -9.9      4.219      8.155
  Name = 
  1 active torsions:
  status: ('A' for Active; 'I' for Inactive)
    1  A    between atoms: C_20  and  N_29
                            x       y       z     vdW  Elec       q    Type
                         _______ _______ _______ _____ _____    ______ ____

>  <TORSDO>
F 1

$$$$
=
 OpenBabel11122410453D

 32 37  0  0  1  0  0  0  0  0999 V2000
  189.0720  176.9750  144.4220 C   0  0  0  0  0  2  0  0  0  0  0  0
  184.4680  178.4980  141.4680 C   0  0  0  0  0  0  0  0  0  0  0  0
  180.5200  178.6280  144.3440 C   0  0  0  0  0  3  0  0  0  0  0  0
  179.7070  178.5290  143.1620 N   0  0  0  0  0  0  0  0  0  0  0  0
  184.4010  178.4410  138.9720 C   0  0  1  0  0  3  0  0  0  0  0  0
  183.4330  178.0930  137.8860 C   0  0  0  0  0  0  0  0  0  0  0  0
  186.6120  177.8780  142.5800 C   0  0  0  0  0  0  0  0  0  0  0  0
  184.7380  178.6770  144.0070 C   0  0  0  0  0  2  0  0  0  0  0  0
  181.5100  177.7250  136.9070 N   0  0  0  0  0  0  0  0  0  0  0  0
  186.6510  177.3470  145.0360 C   0  0  0  0  0  2  0  0  0  0  0  0
  181.8510  178.6400  144.2650 C   0  0  0  0  0  3  0  0  0  0  0  0
  183.8330  178.5560  142.8100 C   0  0  0  0  0  0  0  0  0  0  0  0
  182.4950  178.5520  142.9420 C   0  0  0  0  0  0  0  0  0  0  0  0
  182.2340  178.3480  140.4710 C   0  0  0  0  0  0  0  0  0  0  0  0
  182.5160  177.6710  136.0070 C   0  0  0  0  0  3  0  0  0  0  0  0
  188.4660  176.2960  143.1950 C   0  0  0  0  0  2  0  0  0  0  0  0
  186.0270  177.9280  143.8050 C   0  0  0  0  0  0  0  0  0  0  0  0
  183.7240  177.9000  136.5830 N   0  0  0  0  0  0  0  0  0  0  0  0
  187.8400  177.2390  142.3290 O   0  0  0  0  0  0  0  0  0  0  0  0
  188.0830  177.8510  145.1900 C   0  0  1  0  0  3  0  0  0  0  0  0
  180.2210  178.4470  141.9690 C   0  0  0  0  0  3  0  0  0  0  0  0
  181.6480  178.4530  141.7810 N   0  0  0  0  0  0  0  0  0  0  0  0
  181.4610  178.1400  139.3910 C   0  0  0  0  0  3  0  0  0  0  0  0
  185.9710  178.5780  141.4120 C   0  0  0  0  0  2  0  0  0  0  0  0
  184.9300  179.7080  138.7230 O   0  0  0  0  0  1  0  0  0  0  0  0
  180.0970  177.5240  136.6400 C   0  0  0  0  0  1  0  0  0  0  0  0
  183.7280  178.4250  140.3430 C   0  0  0  0  0  0  0  0  0  0  0  0
  182.0920  177.9930  138.0800 C   0  0  0  0  0  0  0  0  0  0  0  0
  188.4560  177.8790  146.5960 N   0  0  0  0  0  2  0  0  0  0  0  0
  187.5450  178.2700  147.6250 C   0  0  0  0  0  0  0  0  0  0  0  0
  186.3730  178.6330  147.3440 O   0  0  0  0  0  0  0  0  0  0  0  0
  187.9890  178.2530  149.0440 C   0  0  0  0  0  1  0  0  0  0  0  0
  1 20  1  0  0  0  0
  2 12  1  0  0  0  0
  4  3  1  0  0  0  0
  5 25  1  6  0  0  0
  5 27  1  0  0  0  0
  6 28  2  0  0  0  0
  6  5  1  0  0  0  0
  7 17  2  0  0  0  0
  9 28  1  0  0  0  0
 10 20  1  0  0  0  0
 11  3  2  0  0  0  0
 12 13  2  0  0  0  0
 12  8  1  0  0  0  0
 13 11  1  0  0  0  0
 14 22  1  0  0  0  0
 15 18  2  0  0  0  0
 15  9  1  0  0  0  0
 16  1  1  0  0  0  0
 17  8  1  0  0  0  0
 17 10  1  0  0  0  0
 18  6  1  0  0  0  0
 19  7  1  0  0  0  0
 19 16  1  0  0  0  0
 20 29  1  1  0  0  0
 21  4  2  0  0  0  0
 22 21  1  0  0  0  0
 22 13  1  0  0  0  0
 23 14  2  0  0  0  0
 24  2  1  0  0  0  0
 24  7  1  0  0  0  0
 26  9  1  0  0  0  0
 27 14  1  0  0  0  0
 27  2  2  0  0  0  0
 28 23  1  0  0  0  0
 29 30  1  0  0  0  0
 30 32  1  0  0  0  0
 31 30  2  0  0  0  0
M  END
>  <MODEL>
3

>  <REMARK>
 VINA RESULT:      -9.2      4.293      8.272
  Name = 
  1 active torsions:
  status: ('A' for Active; 'I' for Inactive)
    1  A    between atoms: C_20  and  N_29
                            x       y       z     vdW  Elec       q    Type
                         _______ _______ _______ _____ _____    ______ ____

>  <TORSDO>
F 1

$$$$
=
 OpenBabel11122410453D

 32 37  0  0  1  0  0  0  0  0999 V2000
  190.1960  176.1130  136.4470 C   0  0  0  0  0  2  0  0  0  0  0  0
  186.6890  178.3420  140.3170 C   0  0  0  0  0  0  0  0  0  0  0  0
  188.4260  177.6650  144.8340 C   0  0  0  0  0  3  0  0  0  0  0  0
  187.0960  177.8820  145.3330 N   0  0  0  0  0  0  0  0  0  0  0  0
  184.3270  178.9560  139.7860 C   0  0  1  0  0  3  0  0  0  0  0  0
  182.9830  178.9070  140.4400 C   0  0  0  0  0  0  0  0  0  0  0  0
  188.0980  177.4600  138.4590 C   0  0  0  0  0  0  0  0  0  0  0  0
  189.1720  177.8330  140.6720 C   0  0  0  0  0  2  0  0  0  0  0  0
  181.4960  178.8010  142.0430 N   0  0  0  0  0  0  0  0  0  0  0  0
  190.2630  176.2880  138.9650 C   0  0  0  0  0  2  0  0  0  0  0  0
  188.6870  177.7080  143.5270 C   0  0  0  0  0  3  0  0  0  0  0  0
  187.7980  178.0320  141.2550 C   0  0  0  0  0  0  0  0  0  0  0  0
  187.5880  177.9830  142.5820 C   0  0  0  0  0  0  0  0  0  0  0  0
  185.1640  178.4490  142.2340 C   0  0  0  0  0  0  0  0  0  0  0  0
  180.8920  178.9990  140.8510 C   0  0  0  0  0  3  0  0  0  0  0  0
  188.7240  175.7850  136.6930 C   0  0  0  0  0  2  0  0  0  0  0  0
  189.1100  177.1750  139.3200 C   0  0  0  0  0  0  0  0  0  0  0  0
  181.7890  179.0740  139.8350 N   0  0  0  0  0  0  0  0  0  0  0  0
  188.0040  176.9220  137.1630 O   0  0  0  0  0  0  0  0  0  0  0  0
  190.8930  176.7430  137.6520 C   0  0  1  0  0  3  0  0  0  0  0  0
  186.0890  178.1270  144.5460 C   0  0  0  0  0  3  0  0  0  0  0  0
  186.2690  178.1940  143.1200 N   0  0  0  0  0  0  0  0  0  0  0  0
  183.9100  178.5340  142.7110 C   0  0  0  0  0  3  0  0  0  0  0  0
  187.0310  178.4440  138.8540 C   0  0  0  0  0  2  0  0  0  0  0  0
  184.5540  180.2480  139.3070 O   0  0  0  0  0  1  0  0  0  0  0  0
  180.8440  178.6700  143.3340 C   0  0  0  0  0  1  0  0  0  0  0  0
  185.4350  178.5690  140.7610 C   0  0  0  0  0  0  0  0  0  0  0  0
  182.8050  178.7490  141.7780 C   0  0  0  0  0  0  0  0  0  0  0  0
  192.3050  176.3950  137.6260 N   0  0  0  0  0  2  0  0  0  0  0  0
  192.7650  175.0420  137.6720 C   0  0  0  0  0  0  0  0  0  0  0  0
  191.9480  174.0880  137.7620 O   0  0  0  0  0  0  0  0  0  0  0  0
  194.2230  174.7600  137.6190 C   0  0  0  0  0  1  0  0  0  0  0  0
  1 16  1  0  0  0  0
  1 20  1  0  0  0  0
  2 27  2  0  0  0  0
  2 12  1  0  0  0  0
  3  4  1  0  0  0  0
  5 25  1  1  0  0  0
  5  6  1  0  0  0  0
  5 27  1  0  0  0  0
  6 28  2  0  0  0  0
  7 24  1  0  0  0  0
  7 17  2  0  0  0  0
  8 12  1  0  0  0  0
  9 26  1  0  0  0  0
 10 17  1  0  0  0  0
 11  3  2  0  0  0  0
 12 13  2  0  0  0  0
 13 22  1  0  0  0  0
 13 11  1  0  0  0  0
 14 23  2  0  0  0  0
 14 22  1  0  0  0  0
 15  9  1  0  0  0  0
 16 19  1  0  0  0  0
 17  8  1  0  0  0  0
 18  6  1  0  0  0  0
 18 15  2  0  0  0  0
 19  7  1  0  0  0  0
 20 29  1  1  0  0  0
 20 10  1  0  0  0  0
 21  4  2  0  0  0  0
 22 21  1  0  0  0  0
 24  2  1  0  0  0  0
 27 14  1  0  0  0  0
 28  9  1  0  0  0  0
 28 23  1  0  0  0  0
 29 30  1  0  0  0  0
 30 31  2  0  0  0  0
 32 30  1  0  0  0  0
M  END
>  <MODEL>
4

>  <REMARK>
 VINA RESULT:      -9.1      2.021      2.810
  Name = 
  1 active torsions:
  status: ('A' for Active; 'I' for Inactive)
    1  A    between atoms: C_20  and  N_29
                            x       y       z     vdW  Elec       q    Type
                         _______ _______ _______ _____ _____    ______ ____

>  <TORSDO>
F 1

$$$$
=
 OpenBabel11122410453D

 32 37  0  0  1  0  0  0  0  0999 V2000
  190.8780  176.6120  144.9830 C   0  0  0  0  0  2  0  0  0  0  0  0
  187.6290  178.3070  140.6450 C   0  0  0  0  0  0  0  0  0  0  0  0
  182.9490  178.6520  142.0060 C   0  0  0  0  0  3  0  0  0  0  0  0
  182.5830  178.5760  140.6180 N   0  0  0  0  0  0  0  0  0  0  0  0
  188.4120  178.2230  138.2750 C   0  0  1  0  0  3  0  0  0  0  0  0
  187.8560  177.9060  136.9230 C   0  0  0  0  0  0  0  0  0  0  0  0
  189.2360  177.6030  142.4170 C   0  0  0  0  0  0  0  0  0  0  0  0
  187.0280  178.5050  143.1250 C   0  0  0  0  0  2  0  0  0  0  0  0
  186.3650  177.6140  135.3460 N   0  0  0  0  0  0  0  0  0  0  0  0
  188.4120  177.1010  144.7370 C   0  0  0  0  0  2  0  0  0  0  0  0
  184.2270  178.6030  142.3850 C   0  0  0  0  0  3  0  0  0  0  0  0
  186.5800  178.4100  141.6910 C   0  0  0  0  0  0  0  0  0  0  0  0
  185.2780  178.4690  141.3590 C   0  0  0  0  0  0  0  0  0  0  0  0
  185.8630  178.2470  138.9460 C   0  0  0  0  0  0  0  0  0  0  0  0
  187.6140  177.5040  134.8420 C   0  0  0  0  0  3  0  0  0  0  0  0
  190.6940  175.9460  143.6200 C   0  0  0  0  0  2  0  0  0  0  0  0
  188.2730  177.6950  143.3700 C   0  0  0  0  0  0  0  0  0  0  0  0
  188.5630  177.6850  135.7950 N   0  0  0  0  0  0  0  0  0  0  0  0
  190.4440  176.9060  142.5960 O   0  0  0  0  0  0  0  0  0  0  0  0
  189.7290  177.5410  145.3710 C   0  0  1  0  0  3  0  0  0  0  0  0
  183.4680  178.4560  139.6710 C   0  0  0  0  0  3  0  0  0  0  0  0
  184.8720  178.3950  139.9800 N   0  0  0  0  0  0  0  0  0  0  0  0
  185.4940  178.0620  137.6670 C   0  0  0  0  0  3  0  0  0  0  0  0
  189.0640  178.3180  141.1040 C   0  0  0  0  0  2  0  0  0  0  0  0
  189.0540  179.4620  138.2260 O   0  0  0  0  0  1  0  0  0  0  0  0
  185.1200  177.4740  134.6140 C   0  0  0  0  0  1  0  0  0  0  0  0
  187.3140  178.2550  139.3340 C   0  0  0  0  0  0  0  0  0  0  0  0
  186.5250  177.8700  136.6490 C   0  0  0  0  0  0  0  0  0  0  0  0
  189.6020  177.5690  146.8210 N   0  0  0  0  0  2  0  0  0  0  0  0
  188.3770  177.8940  147.4800 C   0  0  0  0  0  0  0  0  0  0  0  0
  187.3500  178.1960  146.8160 O   0  0  0  0  0  0  0  0  0  0  0  0
  188.3150  177.8810  148.9650 C   0  0  0  0  0  1  0  0  0  0  0  0
  1 20  1  0  0  0  0
  2 24  1  0  0  0  0
  2 12  1  0  0  0  0
  3 11  2  0  0  0  0
  4  3  1  0  0  0  0
  5 25  1  6  0  0  0
  5 27  1  0  0  0  0
  6  5  1  0  0  0  0
  7 19  1  0  0  0  0
  7 17  2  0  0  0  0
  8 17  1  0  0  0  0
  9 28  1  0  0  0  0
 10 20  1  0  0  0  0
 12  8  1  0  0  0  0
 13 12  2  0  0  0  0
 13 11  1  0  0  0  0
 14 27  1  0  0  0  0
 14 22  1  0  0  0  0
 15  9  1  0  0  0  0
 15 18  2  0  0  0  0
 16  1  1  0  0  0  0
 17 10  1  0  0  0  0
 18  6  1  0  0  0  0
 19 16  1  0  0  0  0
 20 29  1  1  0  0  0
 21 22  1  0  0  0  0
 21  4  2  0  0  0  0
 22 13  1  0  0  0  0
 23 14  2  0  0  0  0
 24  7  1  0  0  0  0
 26  9  1  0  0  0  0
 27  2  2  0  0  0  0
 28  6  2  0  0  0  0
 28 23  1  0  0  0  0
 29 30  1  0  0  0  0
 30 32  1  0  0  0  0
 31 30  2  0  0  0  0
M  END
>  <MODEL>
5

>  <REMARK>
 VINA RESULT:      -9.0      2.961      7.857
  Name = 
  1 active torsions:
  status: ('A' for Active; 'I' for Inactive)
    1  A    between atoms: C_20  and  N_29
                            x       y       z     vdW  Elec       q    Type
                         _______ _______ _______ _____ _____    ______ ____

>  <TORSDO>
F 1

$$$$
=
 OpenBabel11122410453D

 32 37  0  0  1  0  0  0  0  0999 V2000
  191.6450  175.9180  146.5710 C   0  0  0  0  0  2  0  0  0  0  0  0
  190.7960  177.3710  141.1470 C   0  0  0  0  0  0  0  0  0  0  0  0
  186.1530  178.7020  140.4080 C   0  0  0  0  0  3  0  0  0  0  0  0
  186.3490  178.4560  139.0060 N   0  0  0  0  0  0  0  0  0  0  0  0
  192.4000  176.7630  139.3330 C   0  0  0  0  0  0  0  0  0  0  0  0
  192.3600  176.3190  137.9050 C   0  0  0  0  0  0  0  0  0  0  0  0
  191.3900  176.7200  143.4800 C   0  0  0  0  0  0  0  0  0  0  0  0
  189.3360  178.0780  143.1270 C   0  0  0  0  0  2  0  0  0  0  0  0
  191.5760  176.0160  135.8830 N   0  0  0  0  0  0  0  0  0  0  0  0
  189.6400  176.7560  145.2830 C   0  0  0  0  0  2  0  0  0  0  0  0
  187.1380  178.5090  141.2860 C   0  0  0  0  0  3  0  0  0  0  0  0
  189.4720  177.8190  141.6500 C   0  0  0  0  0  0  0  0  0  0  0  0
  188.4490  178.0340  140.8040 C   0  0  0  0  0  0  0  0  0  0  0  0
  189.8630  177.3180  138.8810 C   0  0  2  0  0  3  0  0  0  0  0  0
  192.8660  175.6190  135.9540 C   0  0  0  0  0  3  0  0  0  0  0  0
  191.8660  175.0720  145.3170 C   0  0  0  0  0  2  0  0  0  0  0  0
  190.1770  177.1270  143.9360 C   0  0  0  0  0  0  0  0  0  0  0  0
  193.3840  175.7990  137.1960 N   0  0  0  0  0  0  0  0  0  0  0  0
  192.2500  175.8750  144.2030 O   0  0  0  0  0  0  0  0  0  0  0  0
  190.6680  177.0750  146.3650 C   0  0  1  0  0  3  0  0  0  0  0  0
  187.4830  178.0350  138.5250 C   0  0  0  0  0  3  0  0  0  0  0  0
  188.6060  177.7970  139.3930 N   0  0  0  0  0  0  0  0  0  0  0  0
  189.9910  176.9830  137.5850 C   0  0  0  0  0  3  0  0  0  0  0  0
  191.9030  177.2230  142.1570 C   0  0  0  0  0  2  0  0  0  0  0  0
  193.2650  177.8540  139.4470 O   0  0  0  0  0  1  0  0  0  0  0  0
  190.7160  175.9620  134.7150 C   0  0  0  0  0  1  0  0  0  0  0  0
  191.0120  177.1520  139.8340 C   0  0  0  0  0  0  0  0  0  0  0  0
  191.2680  176.4570  137.1070 C   0  0  0  0  0  0  0  0  0  0  0  0
  189.9970  177.3660  147.6230 N   0  0  0  0  0  2  0  0  0  0  0  0
  188.6510  177.8430  147.6850 C   0  0  0  0  0  0  0  0  0  0  0  0
  187.9950  178.0550  146.6310 O   0  0  0  0  0  0  0  0  0  0  0  0
  188.0220  178.0980  149.0070 C   0  0  0  0  0  1  0  0  0  0  0  0
  2 12  1  0  0  0  0
  2 24  1  0  0  0  0
  3 11  2  0  0  0  0
  4  3  1  0  0  0  0
  5 25  1  0  0  0  0
  5 27  1  0  0  0  0
  6  5  2  0  0  0  0
  7 17  2  0  0  0  0
  7 19  1  0  0  0  0
  8 17  1  0  0  0  0
  9 15  1  0  0  0  0
  9 28  1  0  0  0  0
 10 20  1  0  0  0  0
 12  8  1  0  0  0  0
 13 11  1  0  0  0  0
 13 12  2  0  0  0  0
 14 23  1  1  0  0  0
 14 22  1  0  0  0  0
 14 27  1  0  0  0  0
 15 18  2  0  0  0  0
 16  1  1  0  0  0  0
 17 10  1  0  0  0  0
 18  6  1  0  0  0  0
 19 16  1  0  0  0  0
 20  1  1  0  0  0  0
 20 29  1  1  0  0  0
 21  4  2  0  0  0  0
 21 22  1  0  0  0  0
 22 13  1  0  0  0  0
 24  7  1  0  0  0  0
 26  9  1  0  0  0  0
 27  2  2  0  0  0  0
 28 23  2  0  0  0  0
 28  6  1  0  0  0  0
 29 30  1  0  0  0  0
 30 32  1  0  0  0  0
 31 30  2  0  0  0  0
M  END
>  <MODEL>
6

>  <REMARK>
 VINA RESULT:      -8.9      2.758      8.522
  Name = 
  1 active torsions:
  status: ('A' for Active; 'I' for Inactive)
    1  A    between atoms: C_20  and  N_29
                            x       y       z     vdW  Elec       q    Type
                         _______ _______ _______ _____ _____    ______ ____

>  <TORSDO>
F 1

$$$$
=
 OpenBabel11122410453D

 32 37  0  0  1  0  0  0  0  0999 V2000
  179.2910  177.7750  139.3810 C   0  0  0  0  0  2  0  0  0  0  0  0
  184.4770  178.6640  141.5180 C   0  0  0  0  0  0  0  0  0  0  0  0
  187.8860  178.2480  138.0420 C   0  0  0  0  0  3  0  0  0  0  0  0
  188.8590  178.0420  139.0800 N   0  0  0  0  0  0  0  0  0  0  0  0
  184.9410  178.6020  143.9710 C   0  0  0  0  0  0  0  0  0  0  0  0
  186.0170  178.1280  144.8950 C   0  0  0  0  0  0  0  0  0  0  0  0
  182.1170  178.3380  140.7810 C   0  0  0  0  0  0  0  0  0  0  0  0
  183.8240  178.8720  139.0520 C   0  0  0  0  0  2  0  0  0  0  0  0
  188.0070  177.5040  145.5610 N   0  0  0  0  0  0  0  0  0  0  0  0
  181.6090  177.8120  138.3770 C   0  0  0  0  0  2  0  0  0  0  0  0
  186.5990  178.4420  138.3330 C   0  0  0  0  0  3  0  0  0  0  0  0
  184.8870  178.6320  140.0900 C   0  0  0  0  0  0  0  0  0  0  0  0
  186.1730  178.4450  139.7450 C   0  0  0  0  0  0  0  0  0  0  0  0
  186.8030  178.2130  142.1460 C   0  0  2  0  0  3  0  0  0  0  0  0
  187.1630  177.5900  146.6120 C   0  0  0  0  0  3  0  0  0  0  0  0
  179.9920  177.0230  140.5110 C   0  0  0  0  0  2  0  0  0  0  0  0
  182.4960  178.3060  139.4770 C   0  0  0  0  0  0  0  0  0  0  0  0
  185.9190  177.9800  146.2330 N   0  0  0  0  0  0  0  0  0  0  0  0
  180.8720  177.8740  141.2420 O   0  0  0  0  0  0  0  0  0  0  0  0
  180.2510  178.5070  138.4430 C   0  0  1  0  0  3  0  0  0  0  0  0
  188.5400  178.0330  140.3410 C   0  0  0  0  0  3  0  0  0  0  0  0
  187.1770  178.2340  140.7560 N   0  0  0  0  0  0  0  0  0  0  0  0
  187.7060  177.9040  143.0920 C   0  0  0  0  0  3  0  0  0  0  0  0
  183.0280  178.9470  141.8130 C   0  0  0  0  0  2  0  0  0  0  0  0
  184.6340  179.9310  144.2720 O   0  0  0  0  0  1  0  0  0  0  0  0
  189.4040  177.1130  145.6020 C   0  0  0  0  0  1  0  0  0  0  0  0
  185.3730  178.4930  142.5110 C   0  0  0  0  0  0  0  0  0  0  0  0
  187.2830  177.8470  144.4900 C   0  0  0  0  0  0  0  0  0  0  0  0
  179.6620  178.5830  137.1150 N   0  0  0  0  0  2  0  0  0  0  0  0
  179.9570  179.6410  136.2020 C   0  0  0  0  0  0  0  0  0  0  0  0
  180.7340  180.5760  136.5300 O   0  0  0  0  0  0  0  0  0  0  0  0
  179.3340  179.6420  134.8520 C   0  0  0  0  0  1  0  0  0  0  0  0
  1 16  1  0  0  0  0
  2 24  1  0  0  0  0
  2 27  2  0  0  0  0
  3 11  2  0  0  0  0
  3  4  1  0  0  0  0
  4 21  2  0  0  0  0
  5 25  1  0  0  0  0
  5  6  2  0  0  0  0
  6 18  1  0  0  0  0
  7 19  1  0  0  0  0
  7 24  1  0  0  0  0
  8 17  1  0  0  0  0
  8 12  1  0  0  0  0
  9 26  1  0  0  0  0
  9 15  1  0  0  0  0
 10 20  1  0  0  0  0
 10 17  1  0  0  0  0
 11 13  1  0  0  0  0
 12  2  1  0  0  0  0
 13 12  2  0  0  0  0
 13 22  1  0  0  0  0
 14 27  1  0  0  0  0
 14 23  1  6  0  0  0
 16 19  1  0  0  0  0
 17  7  2  0  0  0  0
 18 15  2  0  0  0  0
 20 29  1  6  0  0  0
 20  1  1  0  0  0  0
 21 22  1  0  0  0  0
 22 14  1  0  0  0  0
 23 28  2  0  0  0  0
 27  5  1  0  0  0  0
 28  6  1  0  0  0  0
 28  9  1  0  0  0  0
 30 31  2  0  0  0  0
 30 29  1  0  0  0  0
 32 30  1  0  0  0  0
M  END
>  <MODEL>
7

>  <REMARK>
 VINA RESULT:      -8.4      4.317      7.598
  Name = 
  1 active torsions:
  status: ('A' for Active; 'I' for Inactive)
    1  A    between atoms: C_20  and  N_29
                            x       y       z     vdW  Elec       q    Type
                         _______ _______ _______ _____ _____    ______ ____

>  <TORSDO>
F 1

$$$$
=
 OpenBabel11122410453D

 32 37  0  0  1  0  0  0  0  0999 V2000
  190.1210  176.9200  146.0250 C   0  0  0  0  0  2  0  0  0  0  0  0
  190.8580  177.3830  140.4140 C   0  0  0  0  0  0  0  0  0  0  0  0
  186.5670  177.8780  138.1300 C   0  0  0  0  0  3  0  0  0  0  0  0
  187.2110  177.4520  136.9170 N   0  0  0  0  0  0  0  0  0  0  0  0
  192.9960  176.7500  139.2890 C   0  0  0  0  0  0  0  0  0  0  0  0
  193.4430  176.0920  138.0220 C   0  0  0  0  0  0  0  0  0  0  0  0
  190.7600  177.1930  142.8980 C   0  0  0  0  0  0  0  0  0  0  0  0
  188.7960  178.1580  141.7160 C   0  0  0  0  0  2  0  0  0  0  0  0
  193.3560  175.3690  135.9570 N   0  0  0  0  0  0  0  0  0  0  0  0
  188.5430  177.2430  144.0800 C   0  0  0  0  0  2  0  0  0  0  0  0
  187.2460  177.9700  139.2740 C   0  0  0  0  0  3  0  0  0  0  0  0
  189.4070  177.7000  140.4190 C   0  0  0  0  0  0  0  0  0  0  0  0
  188.6800  177.6280  139.2900 C   0  0  0  0  0  0  0  0  0  0  0  0
  190.6820  176.8450  138.0290 C   0  0  2  0  0  3  0  0  0  0  0  0
  194.5920  175.1850  136.4710 C   0  0  0  0  0  3  0  0  0  0  0  0
  190.7990  175.9350  145.0740 C   0  0  0  0  0  2  0  0  0  0  0  0
  189.4320  177.4790  142.8990 C   0  0  0  0  0  0  0  0  0  0  0  0
  194.6800  175.6280  137.7510 N   0  0  0  0  0  0  0  0  0  0  0  0
  191.4310  176.6060  143.9860 O   0  0  0  0  0  0  0  0  0  0  0  0
  189.1490  177.8730  145.3300 C   0  0  1  0  0  3  0  0  0  0  0  0
  188.4720  177.1360  136.8730 C   0  0  0  0  0  3  0  0  0  0  0  0
  189.2890  177.2040  138.0560 N   0  0  0  0  0  0  0  0  0  0  0  0
  191.2370  176.3390  136.9140 C   0  0  0  0  0  3  0  0  0  0  0  0
  191.6070  177.5580  141.7090 C   0  0  0  0  0  2  0  0  0  0  0  0
  193.6730  177.9620  139.4370 O   0  0  0  0  0  1  0  0  0  0  0  0
  192.9090  175.0090  134.6240 C   0  0  0  0  0  1  0  0  0  0  0  0
  191.4900  177.0000  139.2850 C   0  0  0  0  0  0  0  0  0  0  0  0
  192.6440  175.9420  136.9330 C   0  0  0  0  0  0  0  0  0  0  0  0
  188.0970  178.2500  146.2620 N   0  0  0  0  0  2  0  0  0  0  0  0
  186.7150  178.2520  145.9010 C   0  0  0  0  0  0  0  0  0  0  0  0
  186.3540  177.9450  144.7340 O   0  0  0  0  0  0  0  0  0  0  0  0
  185.6920  178.6270  146.9120 C   0  0  0  0  0  1  0  0  0  0  0  0
  2 12  1  0  0  0  0
  2 24  1  0  0  0  0
  3 11  2  0  0  0  0
  4  3  1  0  0  0  0
  5 25  1  0  0  0  0
  6  5  2  0  0  0  0
  7 17  2  0  0  0  0
  7 19  1  0  0  0  0
  8 17  1  0  0  0  0
  9 15  1  0  0  0  0
  9 28  1  0  0  0  0
 10 20  1  0  0  0  0
 11 13  1  0  0  0  0
 12  8  1  0  0  0  0
 13 12  2  0  0  0  0
 14 23  1  1  0  0  0
 14 22  1  0  0  0  0
 14 27  1  0  0  0  0
 15 18  2  0  0  0  0
 16  1  1  0  0  0  0
 17 10  1  0  0  0  0
 18  6  1  0  0  0  0
 19 16  1  0  0  0  0
 20  1  1  0  0  0  0
 20 29  1  1  0  0  0
 21  4  2  0  0  0  0
 21 22  1  0  0  0  0
 22 13  1  0  0  0  0
 23 28  2  0  0  0  0
 24  7  1  0  0  0  0
 26  9  1  0  0  0  0
 27  5  1  0  0  0  0
 27  2  2  0  0  0  0
 28  6  1  0  0  0  0
 30 29  1  0  0  0  0
 30 32  1  0  0  0  0
 31 30  2  0  0  0  0
M  END
>  <MODEL>
8

>  <REMARK>
 VINA RESULT:      -8.3      2.319      8.858
  Name = 
  1 active torsions:
  status: ('A' for Active; 'I' for Inactive)
    1  A    between atoms: C_20  and  N_29
                            x       y       z     vdW  Elec       q    Type
                         _______ _______ _______ _____ _____    ______ ____

>  <TORSDO>
F 1

$$$$
=
 OpenBabel11122410453D

 32 37  0  0  1  0  0  0  0  0999 V2000
  187.4180  178.6230  148.1680 C   0  0  0  0  0  2  0  0  0  0  0  0
  184.1280  178.4200  143.5450 C   0  0  0  0  0  0  0  0  0  0  0  0
  186.8400  178.2530  139.4840 C   0  0  0  0  0  3  0  0  0  0  0  0
  185.6930  178.7110  138.7490 N   0  0  0  0  0  0  0  0  0  0  0  0
  181.7010  179.0080  143.6030 C   0  0  0  0  0  0  0  0  0  0  0  0
  180.6980  179.7100  142.7440 C   0  0  0  0  0  0  0  0  0  0  0  0
  185.3830  178.4840  145.6980 C   0  0  0  0  0  0  0  0  0  0  0  0
  186.5730  177.6780  143.6680 C   0  0  0  0  0  2  0  0  0  0  0  0
  179.7870  180.5440  140.9360 N   0  0  0  0  0  0  0  0  0  0  0  0
  187.8960  178.4790  145.6920 C   0  0  0  0  0  2  0  0  0  0  0  0
  186.7840  178.0680  140.8040 C   0  0  0  0  0  3  0  0  0  0  0  0
  185.4140  178.1740  142.8460 C   0  0  0  0  0  0  0  0  0  0  0  0
  185.5210  178.3400  141.5150 C   0  0  0  0  0  0  0  0  0  0  0  0
  183.1470  179.0910  141.4010 C   0  0  2  0  0  3  0  0  0  0  0  0
  178.9360  180.6410  141.9810 C   0  0  0  0  0  3  0  0  0  0  0  0
  186.3540  179.6230  147.7180 C   0  0  0  0  0  2  0  0  0  0  0  0
  186.5590  178.2620  145.0550 C   0  0  0  0  0  0  0  0  0  0  0  0
  179.4710  180.1280  143.1190 N   0  0  0  0  0  0  0  0  0  0  0  0
  185.2960  178.9800  147.0110 O   0  0  0  0  0  0  0  0  0  0  0  0
  187.9630  177.7550  147.0340 C   0  0  1  0  0  3  0  0  0  0  0  0
  184.5540  178.9670  139.3250 C   0  0  0  0  0  3  0  0  0  0  0  0
  184.3940  178.7980  140.7450 N   0  0  0  0  0  0  0  0  0  0  0  0
  182.1230  179.6280  140.7150 C   0  0  0  0  0  3  0  0  0  0  0  0
  184.0820  178.1420  145.0240 C   0  0  0  0  0  2  0  0  0  0  0  0
  181.1950  177.7590  143.9690 O   0  0  0  0  0  1  0  0  0  0  0  0
  179.5440  180.9940  139.5770 C   0  0  0  0  0  1  0  0  0  0  0  0
  183.0310  178.8320  142.8750 C   0  0  0  0  0  0  0  0  0  0  0  0
  180.8850  179.9550  141.4200 C   0  0  0  0  0  0  0  0  0  0  0  0
  189.3370  177.3810  147.3340 N   0  0  0  0  0  2  0  0  0  0  0  0
  190.2370  176.8970  146.3350 C   0  0  0  0  0  0  0  0  0  0  0  0
  189.8580  176.7520  145.1430 O   0  0  0  0  0  0  0  0  0  0  0  0
  191.6340  176.5540  146.7100 C   0  0  0  0  0  1  0  0  0  0  0  0
  2 24  1  0  0  0  0
  3 11  2  0  0  0  0
  4 21  2  0  0  0  0
  4  3  1  0  0  0  0
  5 25  1  0  0  0  0
  6 18  1  0  0  0  0
  6  5  2  0  0  0  0
  7 19  1  0  0  0  0
  8 17  1  0  0  0  0
  9 28  1  0  0  0  0
  9 15  1  0  0  0  0
 10 20  1  0  0  0  0
 11 13  1  0  0  0  0
 12  2  1  0  0  0  0
 12  8  1  0  0  0  0
 13 12  2  0  0  0  0
 14 23  1  1  0  0  0
 14 27  1  0  0  0  0
 15 18  2  0  0  0  0
 16  1  1  0  0  0  0
 17 10  1  0  0  0  0
 17  7  2  0  0  0  0
 19 16  1  0  0  0  0
 20 29  1  1  0  0  0
 20  1  1  0  0  0  0
 21 22  1  0  0  0  0
 22 14  1  0  0  0  0
 22 13  1  0  0  0  0
 23 28  2  0  0  0  0
 24  7  1  0  0  0  0
 26  9  1  0  0  0  0
 27  2  2  0  0  0  0
 27  5  1  0  0  0  0
 28  6  1  0  0  0  0
 30 32  1  0  0  0  0
 30 29  1  0  0  0  0
 31 30  2  0  0  0  0
M  END
>  <MODEL>
9

>  <REMARK>
 VINA RESULT:      -7.7      4.193      7.650
  Name = 
  1 active torsions:
  status: ('A' for Active; 'I' for Inactive)
    1  A    between atoms: C_20  and  N_29
                            x       y       z     vdW  Elec       q    Type
                         _______ _______ _______ _____ _____    ______ ____

>  <TORSDO>
F 1

$$$$
