=
 OpenBabel11122410373D

 32 37  0  0  1  0  0  0  0  0999 V2000
  190.5040  178.5460  144.1020 C   0  0  0  0  0  2  0  0  0  0  0  0
  188.9030  176.9340  139.2680 C   0  0  1  0  0  3  0  0  0  0  0  0
  193.2790  175.9520  137.0990 C   0  0  0  0  0  3  0  0  0  0  0  0
  192.7190  176.1830  135.8410 C   0  0  0  0  0  3  0  0  0  0  0  0
  187.0600  177.8760  137.8620 C   0  0  0  0  0  0  0  0  0  0  0  0
  186.3430  176.8150  137.1640 C   0  0  0  0  0  0  0  0  0  0  0  0
  188.8940  177.0620  141.7240 N   0  0  1  0  0  0  0  0  0  0  0  0
  190.8140  176.0110  140.6020 C   0  0  0  0  0  2  0  0  0  0  0  0
  186.0810  174.8250  136.0880 C   0  0  0  0  0  0  0  0  0  0  0  0
  190.8520  176.2340  143.0680 C   0  0  0  0  0  2  0  0  0  0  0  0
  192.4900  176.0680  138.2460 C   0  0  0  0  0  3  0  0  0  0  0  0
  190.3240  176.5580  139.3360 N   0  0  0  0  0  0  0  0  0  0  0  0
  191.1320  176.4160  138.1500 C   0  0  0  0  0  0  0  0  0  0  0  0
  189.1320  176.9940  136.7270 C   0  0  1  0  0  3  0  0  0  0  0  0
  184.9060  175.2170  136.4740 N   0  0  0  0  0  0  0  0  0  0  0  0
  189.2830  179.0120  143.2910 C   0  0  0  0  0  2  0  0  0  0  0  0
  190.3600  176.8840  141.7680 C   0  0  2  0  0  3  0  0  0  0  0  0
  185.0630  176.4660  137.1740 C   0  0  0  0  0  2  0  0  0  0  0  0
  188.3590  177.8670  142.8360 C   0  0  0  0  0  2  0  0  0  0  0  0
  190.5440  177.0310  144.3420 C   0  0  1  0  0  3  0  0  0  0  0  0
  191.3710  176.5310  135.7320 C   0  0  0  0  0  3  0  0  0  0  0  0
  190.5780  176.6540  136.8780 C   0  0  0  0  0  0  0  0  0  0  0  0
  188.3560  175.8070  136.3210 N   0  0  0  0  0  2  0  0  0  0  0  0
  188.5510  177.7760  140.4960 C   0  0  0  0  0  2  0  0  0  0  0  0
  186.4550  178.8450  138.3940 O   0  0  0  0  0  0  0  0  0  0  0  0
  186.3270  173.5700  135.3290 C   0  0  0  0  0  1  0  0  0  0  0  0
  188.5610  177.7150  137.9870 C   0  0  2  0  0  3  0  0  0  0  0  0
  187.0690  175.8020  136.4750 C   0  0  0  0  0  0  0  0  0  0  0  0
  191.5310  176.7090  145.3600 N   0  0  0  0  0  2  0  0  0  0  0  0
  191.1850  176.5020  146.7310 C   0  0  0  0  0  0  0  0  0  0  0  0
  189.9840  176.5670  147.1080 O   0  0  0  0  0  0  0  0  0  0  0  0
  192.2500  176.2000  147.7210 C   0  0  0  0  0  1  0  0  0  0  0  0
  1 20  1  0  0  0  0
  2 12  1  0  0  0  0
  2 24  1  1  0  0  0
  3 11  1  0  0  0  0
  4  3  2  0  0  0  0
  5 25  2  0  0  0  0
  6 18  1  0  0  0  0
  6  5  1  0  0  0  0
  7 24  1  6  0  0  0
  7 17  1  0  0  0  0
  7 19  1  0  0  0  0
  9 15  2  0  0  0  0
  9 28  1  0  0  0  0
 10 20  1  0  0  0  0
 12  8  1  0  0  0  0
 13 11  2  0  0  0  0
 13 12  1  0  0  0  0
 14 23  1  1  0  0  0
 14 22  1  0  0  0  0
 14 27  1  0  0  0  0
 15 18  1  0  0  0  0
 16  1  1  0  0  0  0
 17  8  1  6  0  0  0
 17 10  1  0  0  0  0
 19 16  1  0  0  0  0
 20 29  1  1  0  0  0
 21  4  1  0  0  0  0
 21 22  2  0  0  0  0
 22 13  1  0  0  0  0
 23 28  1  0  0  0  0
 26  9  1  0  0  0  0
 27  5  1  6  0  0  0
 27  2  1  0  0  0  0
 28  6  2  0  0  0  0
 29 30  1  0  0  0  0
 30 31  2  0  0  0  0
 30 32  1  0  0  0  0
M  END
>  <MODEL>
1

>  <REMARK>
 VINA RESULT:      -7.5      0.000      0.000
  Name = 
  1 active torsions:
  status: ('A' for Active; 'I' for Inactive)
    1  A    between atoms: C_20  and  N_29
                            x       y       z     vdW  Elec       q    Type
                         _______ _______ _______ _____ _____    ______ ____

>  <TORSDO>
F 1

$$$$
=
 OpenBabel11122410373D

 32 37  0  0  1  0  0  0  0  0999 V2000
  188.7060  176.3480  138.5500 C   0  0  0  0  0  2  0  0  0  0  0  0
  183.9090  178.6780  138.8500 C   0  0  1  0  0  3  0  0  0  0  0  0
  183.1890  178.7330  143.7790 C   0  0  0  0  0  3  0  0  0  0  0  0
  181.8060  178.7460  143.5870 C   0  0  0  0  0  3  0  0  0  0  0  0
  181.9290  178.3270  137.3600 C   0  0  0  0  0  0  0  0  0  0  0  0
  181.2260  179.5830  137.1250 C   0  0  0  0  0  0  0  0  0  0  0  0
  186.2220  178.3630  138.0770 N   0  0  1  0  0  0  0  0  0  0  0  0
  185.8350  179.0000  140.4210 C   0  0  0  0  0  2  0  0  0  0  0  0
  180.4230  181.6550  137.6220 C   0  0  0  0  0  0  0  0  0  0  0  0
  188.1580  178.5800  139.6680 C   0  0  0  0  0  2  0  0  0  0  0  0
  184.0460  178.7220  142.6760 C   0  0  0  0  0  3  0  0  0  0  0  0
  184.4180  178.6900  140.2310 N   0  0  0  0  0  0  0  0  0  0  0  0
  183.5320  178.7240  141.3680 C   0  0  0  0  0  0  0  0  0  0  0  0
  181.5480  178.7650  139.8140 C   0  0  1  0  0  3  0  0  0  0  0  0
  180.4110  181.5320  136.3300 N   0  0  0  0  0  0  0  0  0  0  0  0
  187.5330  176.2600  137.5590 C   0  0  0  0  0  2  0  0  0  0  0  0
  186.6920  178.1750  139.4650 C   0  0  2  0  0  3  0  0  0  0  0  0
  180.9360  180.2310  136.0040 C   0  0  0  0  0  3  0  0  0  0  0  0
  187.0150  177.6270  137.0760 C   0  0  0  0  0  2  0  0  0  0  0  0
  189.1670  177.7840  138.8320 C   0  0  1  0  0  3  0  0  0  0  0  0
  181.2820  178.7460  142.2930 C   0  0  0  0  0  3  0  0  0  0  0  0
  182.1370  178.7290  141.1840 C   0  0  0  0  0  0  0  0  0  0  0  0
  181.1230  180.1330  139.4630 N   0  0  0  0  0  0  0  0  0  0  0  0
  184.8560  177.8530  137.9760 C   0  0  0  0  0  2  0  0  0  0  0  0
  182.1280  177.4960  136.4340 O   0  0  0  0  0  0  0  0  0  0  0  0
  179.9520  182.8680  138.3420 C   0  0  0  0  0  1  0  0  0  0  0  0
  182.4830  178.1080  138.7520 C   0  0  2  0  0  3  0  0  0  0  0  0
  180.9180  180.4390  138.2200 C   0  0  0  0  0  0  0  0  0  0  0  0
  190.4520  177.7740  139.5130 N   0  0  0  0  0  2  0  0  0  0  0  0
  190.6230  177.2490  140.8300 C   0  0  0  0  0  0  0  0  0  0  0  0
  189.6510  176.7420  141.4520 O   0  0  0  0  0  0  0  0  0  0  0  0
  191.9620  177.2960  141.4720 C   0  0  0  0  0  1  0  0  0  0  0  0
  1 20  1  0  0  0  0
  2 24  1  6  0  0  0
  2 12  1  0  0  0  0
  4  3  1  0  0  0  0
  6  5  1  0  0  0  0
  6 28  1  0  0  0  0
  7 19  1  6  0  0  0
  7 17  1  0  0  0  0
  9 28  1  0  0  0  0
  9 26  1  0  0  0  0
 11  3  2  0  0  0  0
 12  8  1  0  0  0  0
 12 13  1  0  0  0  0
 13 11  1  0  0  0  0
 14 23  1  6  0  0  0
 14 22  1  0  0  0  0
 15  9  2  0  0  0  0
 16  1  1  0  0  0  0
 17 10  1  6  0  0  0
 17  8  1  0  0  0  0
 18 15  1  0  0  0  0
 18  6  2  0  0  0  0
 19 16  1  0  0  0  0
 20 29  1  1  0  0  0
 20 10  1  0  0  0  0
 21  4  2  0  0  0  0
 22 13  2  0  0  0  0
 22 21  1  0  0  0  0
 24  7  1  0  0  0  0
 25  5  2  0  0  0  0
 27  5  1  6  0  0  0
 27  2  1  0  0  0  0
 27 14  1  0  0  0  0
 28 23  2  0  0  0  0
 29 30  1  0  0  0  0
 30 31  2  0  0  0  0
 30 32  1  0  0  0  0
M  END
>  <MODEL>
2

>  <REMARK>
 VINA RESULT:      -7.1      4.609      7.675
  Name = 
  1 active torsions:
  status: ('A' for Active; 'I' for Inactive)
    1  A    between atoms: C_20  and  N_29
                            x       y       z     vdW  Elec       q    Type
                         _______ _______ _______ _____ _____    ______ ____

>  <TORSDO>
F 1

$$$$
=
 OpenBabel11122410373D

 32 37  0  0  1  0  0  0  0  0999 V2000
  185.7510  179.5840  145.3740 C   0  0  0  0  0  2  0  0  0  0  0  0
  187.0980  177.6630  140.5760 C   0  0  1  0  0  3  0  0  0  0  0  0
  192.0430  177.2930  141.0570 C   0  0  0  0  0  3  0  0  0  0  0  0
  192.1970  177.4150  139.6750 C   0  0  0  0  0  3  0  0  0  0  0  0
  186.1620  178.2960  138.3440 C   0  0  0  0  0  0  0  0  0  0  0  0
  186.0410  177.1280  137.4790 C   0  0  0  0  0  0  0  0  0  0  0  0
  185.7980  177.8340  142.6560 N   0  0  1  0  0  0  0  0  0  0  0  0
  188.1280  177.0560  142.7790 C   0  0  0  0  0  2  0  0  0  0  0  0
  186.6100  175.1010  136.6110 C   0  0  0  0  0  0  0  0  0  0  0  0
  186.8500  177.3290  144.8840 C   0  0  0  0  0  2  0  0  0  0  0  0
  190.7650  177.3150  141.6220 C   0  0  0  0  0  3  0  0  0  0  0  0
  188.3090  177.5010  141.3970 N   0  0  0  0  0  0  0  0  0  0  0  0
  189.6260  177.4570  140.8110 C   0  0  0  0  0  0  0  0  0  0  0  0
  188.6080  177.7070  138.5190 C   0  0  1  0  0  3  0  0  0  0  0  0
  185.3700  175.3230  136.3010 N   0  0  0  0  0  0  0  0  0  0  0  0
  185.0860  179.8490  144.0130 C   0  0  0  0  0  2  0  0  0  0  0  0
  187.0360  177.8740  143.4620 C   0  0  2  0  0  3  0  0  0  0  0  0
  184.9940  176.5950  136.8640 C   0  0  0  0  0  3  0  0  0  0  0  0
  184.6740  178.5730  143.2570 C   0  0  0  0  0  2  0  0  0  0  0  0
  185.8350  178.0960  145.7390 C   0  0  1  0  0  3  0  0  0  0  0  0
  191.0740  177.5590  138.8590 C   0  0  0  0  0  3  0  0  0  0  0  0
  189.7910  177.5870  139.4200 C   0  0  0  0  0  0  0  0  0  0  0  0
  188.3000  176.4120  137.8840 N   0  0  0  0  0  0  0  0  0  0  0  0
  186.0640  178.4660  141.3660 C   0  0  0  0  0  2  0  0  0  0  0  0
  185.2610  179.1750  138.3980 O   0  0  0  0  0  0  0  0  0  0  0  0
  187.3590  173.8820  136.2040 C   0  0  0  0  0  1  0  0  0  0  0  0
  187.3850  178.3600  139.2340 C   0  0  2  0  0  3  0  0  0  0  0  0
  187.1320  176.2200  137.3560 C   0  0  0  0  0  0  0  0  0  0  0  0
  186.1780  177.9420  147.1440 N   0  0  0  0  0  2  0  0  0  0  0  0
  187.5270  177.9530  147.6150 C   0  0  0  0  0  0  0  0  0  0  0  0
  188.4860  178.1240  146.8140 O   0  0  0  0  0  0  0  0  0  0  0  0
  187.8020  177.7650  149.0620 C   0  0  0  0  0  1  0  0  0  0  0  0
  1 20  1  0  0  0  0
  2 24  1  1  0  0  0
  2 12  1  0  0  0  0
  3 11  1  0  0  0  0
  4  3  2  0  0  0  0
  5 25  2  0  0  0  0
  6  5  1  0  0  0  0
  7 24  1  6  0  0  0
  7 19  1  0  0  0  0
  7 17  1  0  0  0  0
  9 28  1  0  0  0  0
 10 20  1  0  0  0  0
 12  8  1  0  0  0  0
 13 12  1  0  0  0  0
 13 11  2  0  0  0  0
 14 23  1  1  0  0  0
 14 27  1  0  0  0  0
 14 22  1  0  0  0  0
 15  9  2  0  0  0  0
 15 18  1  0  0  0  0
 16  1  1  0  0  0  0
 17  8  1  6  0  0  0
 17 10  1  0  0  0  0
 18  6  2  0  0  0  0
 19 16  1  0  0  0  0
 20 29  1  1  0  0  0
 21 22  2  0  0  0  0
 21  4  1  0  0  0  0
 22 13  1  0  0  0  0
 26  9  1  0  0  0  0
 27  5  1  6  0  0  0
 27  2  1  0  0  0  0
 28  6  1  0  0  0  0
 28 23  2  0  0  0  0
 29 30  1  0  0  0  0
 30 32  1  0  0  0  0
 31 30  2  0  0  0  0
M  END
>  <MODEL>
3

>  <REMARK>
 VINA RESULT:      -7.1      2.433      3.267
  Name = 
  1 active torsions:
  status: ('A' for Active; 'I' for Inactive)
    1  A    between atoms: C_20  and  N_29
                            x       y       z     vdW  Elec       q    Type
                         _______ _______ _______ _____ _____    ______ ____

>  <TORSDO>
F 1

$$$$
=
 OpenBabel11122410373D

 32 37  0  0  1  0  0  0  0  0999 V2000
  188.7580  175.5800  137.5930 C   0  0  0  0  0  2  0  0  0  0  0  0
  184.2310  178.3130  138.3440 C   0  0  1  0  0  3  0  0  0  0  0  0
  184.2850  178.8950  143.2910 C   0  0  0  0  0  3  0  0  0  0  0  0
  182.8930  179.0030  143.3040 C   0  0  0  0  0  3  0  0  0  0  0  0
  182.0270  177.9860  137.2050 C   0  0  0  0  0  0  0  0  0  0  0  0
  181.3820  179.2670  136.9440 C   0  0  0  0  0  0  0  0  0  0  0  0
  186.3720  177.7370  137.2780 N   0  0  1  0  0  0  0  0  0  0  0  0
  186.3940  178.6230  139.5730 C   0  0  0  0  0  2  0  0  0  0  0  0
  180.8050  181.4360  137.3310 C   0  0  0  0  0  0  0  0  0  0  0  0
  188.5400  177.9450  138.5370 C   0  0  0  0  0  2  0  0  0  0  0  0
  184.9600  178.7090  142.0820 C   0  0  0  0  0  3  0  0  0  0  0  0
  184.9470  178.4140  139.6260 N   0  0  0  0  0  0  0  0  0  0  0  0
  184.2510  178.6290  140.8710 C   0  0  0  0  0  0  0  0  0  0  0  0
  182.0590  178.6840  139.6280 C   0  0  1  0  0  3  0  0  0  0  0  0
  180.5850  181.1920  136.0750 N   0  0  0  0  0  0  0  0  0  0  0  0
  187.4440  175.4940  136.8000 C   0  0  0  0  0  2  0  0  0  0  0  0
  187.0360  177.6440  138.5950 C   0  0  2  0  0  3  0  0  0  0  0  0
  180.9660  179.8270  135.8160 C   0  0  0  0  0  3  0  0  0  0  0  0
  186.9500  176.8470  136.2560 C   0  0  0  0  0  2  0  0  0  0  0  0
  189.3520  176.9930  137.6510 C   0  0  1  0  0  3  0  0  0  0  0  0
  182.1770  178.9230  142.1080 C   0  0  0  0  0  3  0  0  0  0  0  0
  182.8480  178.7310  140.8940 C   0  0  0  0  0  0  0  0  0  0  0  0
  181.6770  180.0440  139.2000 N   0  0  0  0  0  0  0  0  0  0  0  0
  184.9760  177.3340  137.4330 C   0  0  0  0  0  2  0  0  0  0  0  0
  182.0240  177.0580  136.3540 O   0  0  0  0  0  0  0  0  0  0  0  0
  180.5330  182.7460  137.9790 C   0  0  0  0  0  1  0  0  0  0  0  0
  182.7730  177.8550  138.5170 C   0  0  2  0  0  3  0  0  0  0  0  0
  181.3040  180.2460  137.9750 C   0  0  0  0  0  0  0  0  0  0  0  0
  190.7240  176.9420  138.1330 N   0  0  0  0  0  2  0  0  0  0  0  0
  191.7980  176.4200  137.3480 C   0  0  0  0  0  0  0  0  0  0  0  0
  191.5940  176.0000  136.1770 O   0  0  0  0  0  0  0  0  0  0  0  0
  193.1700  176.3780  137.9150 C   0  0  0  0  0  1  0  0  0  0  0  0
  1 20  1  0  0  0  0
  2 24  1  6  0  0  0
  2 27  1  0  0  0  0
  2 12  1  0  0  0  0
  3  4  1  0  0  0  0
  6  5  1  0  0  0  0
  6 28  1  0  0  0  0
  7 19  1  6  0  0  0
  7 24  1  0  0  0  0
  7 17  1  0  0  0  0
  8 12  1  0  0  0  0
  9 28  1  0  0  0  0
  9 26  1  0  0  0  0
 11  3  2  0  0  0  0
 12 13  1  0  0  0  0
 13 22  2  0  0  0  0
 13 11  1  0  0  0  0
 14 23  1  6  0  0  0
 14 22  1  0  0  0  0
 15  9  2  0  0  0  0
 16  1  1  0  0  0  0
 17 10  1  6  0  0  0
 17  8  1  0  0  0  0
 18 15  1  0  0  0  0
 18  6  2  0  0  0  0
 19 16  1  0  0  0  0
 20 29  1  1  0  0  0
 20 10  1  0  0  0  0
 21  4  2  0  0  0  0
 22 21  1  0  0  0  0
 25  5  2  0  0  0  0
 27  5  1  6  0  0  0
 27 14  1  0  0  0  0
 28 23  2  0  0  0  0
 30 32  1  0  0  0  0
 30 29  1  0  0  0  0
 31 30  2  0  0  0  0
M  END
>  <MODEL>
4

>  <REMARK>
 VINA RESULT:      -6.9      4.278      7.853
  Name = 
  1 active torsions:
  status: ('A' for Active; 'I' for Inactive)
    1  A    between atoms: C_20  and  N_29
                            x       y       z     vdW  Elec       q    Type
                         _______ _______ _______ _____ _____    ______ ____

>  <TORSDO>
F 1

$$$$
=
 OpenBabel11122410373D

 32 37  0  0  1  0  0  0  0  0999 V2000
  185.6800  179.5570  145.6670 C   0  0  0  0  0  2  0  0  0  0  0  0
  185.0730  178.2160  140.5330 C   0  0  1  0  0  3  0  0  0  0  0  0
  189.8060  178.2480  138.9800 C   0  0  0  0  0  3  0  0  0  0  0  0
  189.3860  178.5100  137.6740 C   0  0  0  0  0  3  0  0  0  0  0  0
  183.2910  178.9670  138.9450 C   0  0  0  0  0  0  0  0  0  0  0  0
  182.8870  177.8770  138.0640 C   0  0  0  0  0  0  0  0  0  0  0  0
  184.7100  178.0780  142.9620 N   0  0  1  0  0  0  0  0  0  0  0  0
  186.9270  177.5030  142.0630 C   0  0  0  0  0  2  0  0  0  0  0  0
  183.1500  175.9980  136.8050 C   0  0  0  0  0  0  0  0  0  0  0  0
  186.5910  177.4650  144.5160 C   0  0  0  0  0  2  0  0  0  0  0  0
  188.8630  178.1020  140.0000 C   0  0  0  0  0  3  0  0  0  0  0  0
  186.5170  178.0880  140.7850 N   0  0  0  0  0  0  0  0  0  0  0  0
  187.4890  178.2160  139.7270 C   0  0  0  0  0  0  0  0  0  0  0  0
  185.6250  178.5850  138.0700 C   0  0  1  0  0  3  0  0  0  0  0  0
  181.8800  176.1360  137.0380 N   0  0  0  0  0  0  0  0  0  0  0  0
  184.5130  179.8870  144.7220 C   0  0  0  0  0  2  0  0  0  0  0  0
  186.1650  178.1540  143.2130 C   0  0  2  0  0  3  0  0  0  0  0  0
  181.7050  177.3120  137.8520 C   0  0  0  0  0  2  0  0  0  0  0  0
  183.8900  178.6540  144.0410 C   0  0  0  0  0  2  0  0  0  0  0  0
  185.9710  178.0560  145.7880 C   0  0  1  0  0  3  0  0  0  0  0  0
  188.0240  178.6280  137.3900 C   0  0  0  0  0  3  0  0  0  0  0  0
  187.0750  178.4890  138.4100 C   0  0  0  0  0  0  0  0  0  0  0  0
  185.1480  177.3310  137.4560 N   0  0  0  0  0  2  0  0  0  0  0  0
  184.4070  178.8480  141.7580 C   0  0  0  0  0  2  0  0  0  0  0  0
  182.4500  179.7530  139.4550 O   0  0  0  0  0  0  0  0  0  0  0  0
  183.7260  174.8940  135.9930 C   0  0  0  0  0  1  0  0  0  0  0  0
  184.7650  179.0570  139.2820 C   0  0  2  0  0  3  0  0  0  0  0  0
  183.8750  177.0860  137.4130 C   0  0  0  0  0  0  0  0  0  0  0  0
  186.8550  177.8040  146.9150 N   0  0  0  0  0  2  0  0  0  0  0  0
  188.2780  177.8830  146.8110 C   0  0  0  0  0  0  0  0  0  0  0  0
  188.8270  178.2040  145.7220 O   0  0  0  0  0  0  0  0  0  0  0  0
  189.1200  177.5880  147.9990 C   0  0  0  0  0  1  0  0  0  0  0  0
  1 20  1  0  0  0  0
  2 12  1  0  0  0  0
  2 24  1  1  0  0  0
  3 11  1  0  0  0  0
  4  3  2  0  0  0  0
  5 25  2  0  0  0  0
  6  5  1  0  0  0  0
  7 24  1  6  0  0  0
  7 17  1  0  0  0  0
  7 19  1  0  0  0  0
  9 15  2  0  0  0  0
  9 28  1  0  0  0  0
 10 20  1  0  0  0  0
 12  8  1  0  0  0  0
 13 11  2  0  0  0  0
 13 12  1  0  0  0  0
 14 23  1  1  0  0  0
 14 22  1  0  0  0  0
 14 27  1  0  0  0  0
 15 18  1  0  0  0  0
 16  1  1  0  0  0  0
 17  8  1  6  0  0  0
 17 10  1  0  0  0  0
 18  6  1  0  0  0  0
 19 16  1  0  0  0  0
 20 29  1  1  0  0  0
 21  4  1  0  0  0  0
 21 22  2  0  0  0  0
 22 13  1  0  0  0  0
 26  9  1  0  0  0  0
 27  5  1  6  0  0  0
 27  2  1  0  0  0  0
 28 23  1  0  0  0  0
 28  6  2  0  0  0  0
 30 29  1  0  0  0  0
 30 32  1  0  0  0  0
 31 30  2  0  0  0  0
M  END
>  <MODEL>
5

>  <REMARK>
 VINA RESULT:      -6.9      3.050      4.182
  Name = 
  1 active torsions:
  status: ('A' for Active; 'I' for Inactive)
    1  A    between atoms: C_20  and  N_29
                            x       y       z     vdW  Elec       q    Type
                         _______ _______ _______ _____ _____    ______ ____

>  <TORSDO>
F 1

$$$$
=
 OpenBabel11122410373D

 32 37  0  0  1  0  0  0  0  0999 V2000
  187.3030  178.9950  147.1480 C   0  0  0  0  0  2  0  0  0  0  0  0
  184.5240  178.1930  142.6590 C   0  0  1  0  0  3  0  0  0  0  0  0
  188.1630  178.3030  139.2590 C   0  0  0  0  0  3  0  0  0  0  0  0
  187.2510  178.7040  138.2800 C   0  0  0  0  0  3  0  0  0  0  0  0
  182.2880  179.1310  142.0420 C   0  0  0  0  0  0  0  0  0  0  0  0
  181.4890  178.1440  141.3260 C   0  0  0  0  0  0  0  0  0  0  0  0
  185.2050  177.8140  144.9910 N   0  0  1  0  0  0  0  0  0  0  0  0
  186.8030  177.2970  143.1940 C   0  0  0  0  0  2  0  0  0  0  0  0
  181.0900  176.3980  139.9180 C   0  0  0  0  0  0  0  0  0  0  0  0
  187.5240  177.0160  145.5470 C   0  0  0  0  0  2  0  0  0  0  0  0
  187.7280  178.0700  140.5660 C   0  0  0  0  0  3  0  0  0  0  0  0
  185.9310  178.0160  142.2640 N   0  0  0  0  0  0  0  0  0  0  0  0
  186.3750  178.2350  140.9100 C   0  0  0  0  0  0  0  0  0  0  0  0
  184.0140  178.8010  140.2340 C   0  0  1  0  0  3  0  0  0  0  0  0
  180.0460  176.5330  140.6770 N   0  0  0  0  0  0  0  0  0  0  0  0
  185.8690  179.4390  146.8160 C   0  0  0  0  0  2  0  0  0  0  0  0
  186.6330  177.8400  144.6090 C   0  0  2  0  0  3  0  0  0  0  0  0
  180.2960  177.6230  141.5860 C   0  0  0  0  0  2  0  0  0  0  0  0
  184.9470  178.2920  146.3610 C   0  0  0  0  0  2  0  0  0  0  0  0
  187.5300  177.4850  147.0070 C   0  0  1  0  0  3  0  0  0  0  0  0
  185.9050  178.8720  138.6100 C   0  0  0  0  0  3  0  0  0  0  0  0
  185.4640  178.6460  139.9190 C   0  0  0  0  0  0  0  0  0  0  0  0
  183.2510  177.6250  139.7750 N   0  0  0  0  0  2  0  0  0  0  0  0
  184.4700  178.7080  144.0980 C   0  0  0  0  0  2  0  0  0  0  0  0
  181.7840  179.8750  142.9250 O   0  0  0  0  0  0  0  0  0  0  0  0
  181.2080  175.3730  138.8480 C   0  0  0  0  0  1  0  0  0  0  0  0
  183.7700  179.1620  141.7310 C   0  0  2  0  0  3  0  0  0  0  0  0
  182.0660  177.4060  140.2530 C   0  0  0  0  0  0  0  0  0  0  0  0
  188.7890  177.1050  147.6280 N   0  0  0  0  0  2  0  0  0  0  0  0
  190.0330  177.1280  146.9260 C   0  0  0  0  0  0  0  0  0  0  0  0
  190.0880  177.5110  145.7260 O   0  0  0  0  0  0  0  0  0  0  0  0
  191.2760  176.7020  147.6190 C   0  0  0  0  0  1  0  0  0  0  0  0
  2 24  1  1  0  0  0
  3 11  1  0  0  0  0
  4 21  1  0  0  0  0
  4  3  2  0  0  0  0
  5 25  2  0  0  0  0
  6 18  1  0  0  0  0
  6  5  1  0  0  0  0
  7 24  1  6  0  0  0
  7 19  1  0  0  0  0
  9 28  1  0  0  0  0
  9 15  2  0  0  0  0
 10 20  1  0  0  0  0
 11 13  2  0  0  0  0
 12  2  1  0  0  0  0
 12  8  1  0  0  0  0
 13 12  1  0  0  0  0
 14 23  1  1  0  0  0
 14 27  1  0  0  0  0
 15 18  1  0  0  0  0
 16  1  1  0  0  0  0
 17  8  1  6  0  0  0
 17  7  1  0  0  0  0
 17 10  1  0  0  0  0
 19 16  1  0  0  0  0
 20  1  1  0  0  0  0
 20 29  1  6  0  0  0
 21 22  2  0  0  0  0
 22 14  1  0  0  0  0
 22 13  1  0  0  0  0
 23 28  1  0  0  0  0
 26  9  1  0  0  0  0
 27  5  1  1  0  0  0
 27  2  1  0  0  0  0
 28  6  2  0  0  0  0
 30 32  1  0  0  0  0
 30 29  1  0  0  0  0
 31 30  2  0  0  0  0
M  END
>  <MODEL>
6

>  <REMARK>
 VINA RESULT:      -6.5      4.053      5.521
  Name = 
  1 active torsions:
  status: ('A' for Active; 'I' for Inactive)
    1  A    between atoms: C_20  and  N_29
                            x       y       z     vdW  Elec       q    Type
                         _______ _______ _______ _____ _____    ______ ____

>  <TORSDO>
F 1

$$$$
=
 OpenBabel11122410373D

 32 37  0  0  1  0  0  0  0  0999 V2000
  187.2950  175.5720  137.2250 C   0  0  0  0  0  2  0  0  0  0  0  0
  182.9920  178.3300  138.7770 C   0  0  1  0  0  3  0  0  0  0  0  0
  183.9240  178.8830  143.6390 C   0  0  0  0  0  3  0  0  0  0  0  0
  182.5570  179.0000  143.8990 C   0  0  0  0  0  3  0  0  0  0  0  0
  180.6190  178.0250  138.0450 C   0  0  0  0  0  0  0  0  0  0  0  0
  179.9470  179.3120  137.9080 C   0  0  0  0  0  0  0  0  0  0  0  0
  184.9060  177.7470  137.3470 N   0  0  1  0  0  0  0  0  0  0  0  0
  185.3410  178.6190  139.6060 C   0  0  0  0  0  2  0  0  0  0  0  0
  179.4650  181.4820  138.4000 C   0  0  0  0  0  0  0  0  0  0  0  0
  187.2640  177.9330  138.2040 C   0  0  0  0  0  2  0  0  0  0  0  0
  184.3730  178.6990  142.3290 C   0  0  0  0  0  3  0  0  0  0  0  0
  183.9240  178.4200  139.9130 N   0  0  0  0  0  0  0  0  0  0  0  0
  183.4610  178.6310  141.2620 C   0  0  0  0  0  0  0  0  0  0  0  0
  181.0840  178.7090  140.4270 C   0  0  1  0  0  3  0  0  0  0  0  0
  179.0250  181.2470  137.2020 N   0  0  0  0  0  0  0  0  0  0  0  0
  185.8600  175.4990  136.6770 C   0  0  0  0  0  2  0  0  0  0  0  0
  185.7920  177.6410  138.5250 C   0  0  2  0  0  3  0  0  0  0  0  0
  179.3430  179.8810  136.8730 C   0  0  0  0  0  3  0  0  0  0  0  0
  185.2880  176.8590  136.2350 C   0  0  0  0  0  2  0  0  0  0  0  0
  187.9000  176.9810  137.1840 C   0  0  1  0  0  3  0  0  0  0  0  0
  181.6410  178.9320  142.8480 C   0  0  0  0  0  3  0  0  0  0  0  0
  182.0850  178.7430  141.5340 C   0  0  0  0  0  0  0  0  0  0  0  0
  180.6430  180.0730  140.0800 N   0  0  0  0  0  0  0  0  0  0  0  0
  183.5570  177.3520  137.7450 C   0  0  0  0  0  2  0  0  0  0  0  0
  180.4590  177.1020  137.2040 O   0  0  0  0  0  0  0  0  0  0  0  0
  179.3210  182.7900  139.0930 C   0  0  0  0  0  1  0  0  0  0  0  0
  181.5840  177.8810  139.2040 C   0  0  2  0  0  3  0  0  0  0  0  0
  180.0600  180.2850  138.9410 C   0  0  0  0  0  0  0  0  0  0  0  0
  189.3350  176.9180  137.4150 N   0  0  0  0  0  2  0  0  0  0  0  0
  190.2530  176.4310  136.4350 C   0  0  0  0  0  0  0  0  0  0  0  0
  189.8460  176.0550  135.3030 O   0  0  0  0  0  0  0  0  0  0  0  0
  191.7030  176.3740  136.7500 C   0  0  0  0  0  1  0  0  0  0  0  0
  2 24  1  6  0  0  0
  2 27  1  0  0  0  0
  2 12  1  0  0  0  0
  3  4  1  0  0  0  0
  6  5  1  0  0  0  0
  6 28  1  0  0  0  0
  7 19  1  6  0  0  0
  7 24  1  0  0  0  0
  7 17  1  0  0  0  0
  8 12  1  0  0  0  0
  9 28  1  0  0  0  0
  9 26  1  0  0  0  0
 11  3  2  0  0  0  0
 12 13  1  0  0  0  0
 13 22  2  0  0  0  0
 13 11  1  0  0  0  0
 14 23  1  6  0  0  0
 14 22  1  0  0  0  0
 15  9  2  0  0  0  0
 16  1  1  0  0  0  0
 17 10  1  6  0  0  0
 17  8  1  0  0  0  0
 18 15  1  0  0  0  0
 18  6  2  0  0  0  0
 19 16  1  0  0  0  0
 20  1  1  0  0  0  0
 20 29  1  1  0  0  0
 20 10  1  0  0  0  0
 21  4  2  0  0  0  0
 22 21  1  0  0  0  0
 25  5  2  0  0  0  0
 27  5  1  6  0  0  0
 27 14  1  0  0  0  0
 28 23  2  0  0  0  0
 30 32  1  0  0  0  0
 30 29  1  0  0  0  0
 31 30  2  0  0  0  0
M  END
>  <MODEL>
7

>  <REMARK>
 VINA RESULT:      -6.4      4.887      8.757
  Name = 
  1 active torsions:
  status: ('A' for Active; 'I' for Inactive)
    1  A    between atoms: C_20  and  N_29
                            x       y       z     vdW  Elec       q    Type
                         _______ _______ _______ _____ _____    ______ ____

>  <TORSDO>
F 1

$$$$
=
 OpenBabel11122410373D

 32 37  0  0  1  0  0  0  0  0999 V2000
  187.5540  176.6290  135.6140 C   0  0  0  0  0  2  0  0  0  0  0  0
  182.8380  175.1730  137.6550 C   0  0  1  0  0  3  0  0  0  0  0  0
  182.3430  170.6040  135.7300 C   0  0  0  0  0  3  0  0  0  0  0  0
  180.9530  170.7030  135.8270 C   0  0  0  0  0  3  0  0  0  0  0  0
  180.7850  176.5740  137.9430 C   0  0  0  0  0  0  0  0  0  0  0  0
  180.1040  176.2490  139.1910 C   0  0  0  0  0  0  0  0  0  0  0  0
  185.1050  176.1260  137.6630 N   0  0  1  0  0  0  0  0  0  0  0  0
  184.8410  173.7060  137.3080 C   0  0  0  0  0  2  0  0  0  0  0  0
  179.3790  174.9220  140.8940 C   0  0  0  0  0  0  0  0  0  0  0  0
  187.1150  174.6830  137.2120 C   0  0  0  0  0  2  0  0  0  0  0  0
  183.1490  171.6620  136.1580 C   0  0  0  0  0  3  0  0  0  0  0  0
  183.4090  173.9310  137.1080 N   0  0  0  0  0  0  0  0  0  0  0  0
  182.5760  172.8310  136.6880 C   0  0  0  0  0  0  0  0  0  0  0  0
  180.5260  174.1340  137.3610 C   0  0  1  0  0  3  0  0  0  0  0  0
  179.3050  176.1520  141.3000 N   0  0  0  0  0  0  0  0  0  0  0  0
  186.3360  177.5100  135.9370 C   0  0  0  0  0  2  0  0  0  0  0  0
  185.6320  174.9550  136.9310 C   0  0  2  0  0  3  0  0  0  0  0  0
  179.7810  176.9990  140.2370 C   0  0  0  0  0  2  0  0  0  0  0  0
  185.8320  177.3770  137.3870 C   0  0  0  0  0  2  0  0  0  0  0  0
  188.0650  175.8190  136.8130 C   0  0  1  0  0  3  0  0  0  0  0  0
  180.3720  171.8590  136.3500 C   0  0  0  0  0  3  0  0  0  0  0  0
  181.1750  172.9250  136.7740 C   0  0  0  0  0  0  0  0  0  0  0  0
  180.1210  173.8840  138.7570 N   0  0  0  0  0  2  0  0  0  0  0  0
  183.7230  176.3510  137.2450 C   0  0  0  0  0  2  0  0  0  0  0  0
  180.9190  177.7630  137.5530 O   0  0  0  0  0  0  0  0  0  0  0  0
  178.9730  173.7530  141.7180 C   0  0  0  0  0  1  0  0  0  0  0  0
  181.3950  175.4160  137.1800 C   0  0  2  0  0  3  0  0  0  0  0  0
  179.8680  174.8880  139.5380 C   0  0  0  0  0  0  0  0  0  0  0  0
  189.3790  175.2670  136.5240 N   0  0  0  0  0  2  0  0  0  0  0  0
  190.4230  175.2130  137.4970 C   0  0  0  0  0  0  0  0  0  0  0  0
  190.2300  175.6280  138.6720 O   0  0  0  0  0  0  0  0  0  0  0  0
  191.7490  174.6580  137.1230 C   0  0  0  0  0  1  0  0  0  0  0  0
  1 16  1  0  0  0  0
  1 20  1  0  0  0  0
  2 24  1  6  0  0  0
  3  4  2  0  0  0  0
  3 11  1  0  0  0  0
  4 21  1  0  0  0  0
  5  6  1  0  0  0  0
  6 28  2  0  0  0  0
  6 18  1  0  0  0  0
  7 24  1  6  0  0  0
  9 15  2  0  0  0  0
  9 26  1  0  0  0  0
 11 13  2  0  0  0  0
 12  8  1  0  0  0  0
 12  2  1  0  0  0  0
 13 22  1  0  0  0  0
 13 12  1  0  0  0  0
 14 22  1  1  0  0  0
 14 23  1  0  0  0  0
 16 19  1  0  0  0  0
 17 10  1  1  0  0  0
 17  8  1  0  0  0  0
 17  7  1  0  0  0  0
 18 15  1  0  0  0  0
 19  7  1  0  0  0  0
 20 29  1  6  0  0  0
 20 10  1  0  0  0  0
 21 22  2  0  0  0  0
 23 28  1  0  0  0  0
 25  5  2  0  0  0  0
 27 14  1  0  0  0  0
 27  2  1  0  0  0  0
 27  5  1  1  0  0  0
 28  9  1  0  0  0  0
 29 30  1  0  0  0  0
 30 31  2  0  0  0  0
 32 30  1  0  0  0  0
M  END
>  <MODEL>
8

>  <REMARK>
 VINA RESULT:      -6.0      4.822      8.564
  Name = 
  1 active torsions:
  status: ('A' for Active; 'I' for Inactive)
    1  A    between atoms: C_20  and  N_29
                            x       y       z     vdW  Elec       q    Type
                         _______ _______ _______ _____ _____    ______ ____

>  <TORSDO>
F 1

$$$$
=
 OpenBabel11122410373D

 32 37  0  0  1  0  0  0  0  0999 V2000
  188.7050  177.5090  135.6090 C   0  0  0  0  0  2  0  0  0  0  0  0
  183.9300  175.6520  137.1200 C   0  0  1  0  0  3  0  0  0  0  0  0
  184.2570  170.9000  135.6610 C   0  0  0  0  0  3  0  0  0  0  0  0
  182.8670  170.8270  135.5510 C   0  0  0  0  0  3  0  0  0  0  0  0
  181.7110  176.7980  136.9630 C   0  0  0  0  0  0  0  0  0  0  0  0
  180.8910  176.5040  138.1330 C   0  0  0  0  0  0  0  0  0  0  0  0
  186.0460  176.8860  137.3390 N   0  0  1  0  0  0  0  0  0  0  0  0
  186.1170  174.4300  137.2190 C   0  0  0  0  0  2  0  0  0  0  0  0
  180.0710  175.2580  139.8540 C   0  0  0  0  0  0  0  0  0  0  0  0
  188.2530  175.6790  137.3340 C   0  0  0  0  0  2  0  0  0  0  0  0
  184.8630  172.0880  136.0770 C   0  0  0  0  0  3  0  0  0  0  0  0
  184.7150  174.4490  136.7990 N   0  0  0  0  0  0  0  0  0  0  0  0
  184.0870  173.2170  136.3900 C   0  0  0  0  0  0  0  0  0  0  0  0
  181.8230  174.3010  136.6230 C   0  0  1  0  0  3  0  0  0  0  0  0
  179.7970  176.5010  140.1070 N   0  0  0  0  0  0  0  0  0  0  0  0
  187.3590  178.2520  135.6600 C   0  0  0  0  0  2  0  0  0  0  0  0
  186.8080  175.7300  136.8210 C   0  0  2  0  0  3  0  0  0  0  0  0
  180.3290  177.3000  139.0330 C   0  0  0  0  0  2  0  0  0  0  0  0
  186.6600  178.1890  137.0310 C   0  0  0  0  0  2  0  0  0  0  0  0
  189.1160  176.8860  136.9490 C   0  0  1  0  0  3  0  0  0  0  0  0
  182.0850  171.9430  135.8570 C   0  0  0  0  0  3  0  0  0  0  0  0
  182.6870  173.1370  136.2700 C   0  0  0  0  0  0  0  0  0  0  0  0
  181.2420  174.1320  137.9680 N   0  0  0  0  0  2  0  0  0  0  0  0
  184.7280  176.8920  136.7100 C   0  0  0  0  0  2  0  0  0  0  0  0
  181.7670  177.9540  136.4670 O   0  0  0  0  0  0  0  0  0  0  0  0
  179.6800  174.1280  140.7370 C   0  0  0  0  0  1  0  0  0  0  0  0
  182.5580  175.6630  136.4250 C   0  0  2  0  0  3  0  0  0  0  0  0
  180.7610  175.1620  138.5910 C   0  0  0  0  0  0  0  0  0  0  0  0
  190.5130  176.4840  136.9080 N   0  0  0  0  0  2  0  0  0  0  0  0
  191.3880  176.6210  138.0300 C   0  0  0  0  0  0  0  0  0  0  0  0
  190.9640  177.0820  139.1230 O   0  0  0  0  0  0  0  0  0  0  0  0
  192.8100  176.2120  137.9070 C   0  0  0  0  0  1  0  0  0  0  0  0
  1 16  1  0  0  0  0
  1 20  1  0  0  0  0
  2 24  1  6  0  0  0
  3 11  1  0  0  0  0
  4  3  2  0  0  0  0
  4 21  1  0  0  0  0
  5  6  1  0  0  0  0
  6 28  2  0  0  0  0
  6 18  1  0  0  0  0
  7 24  1  6  0  0  0
  9 15  2  0  0  0  0
  9 26  1  0  0  0  0
 11 13  2  0  0  0  0
 12  2  1  0  0  0  0
 12  8  1  0  0  0  0
 13 12  1  0  0  0  0
 14 22  1  1  0  0  0
 14 23  1  0  0  0  0
 16 19  1  0  0  0  0
 17  8  1  1  0  0  0
 17 10  1  0  0  0  0
 17  7  1  0  0  0  0
 18 15  1  0  0  0  0
 19  7  1  0  0  0  0
 20 29  1  6  0  0  0
 20 10  1  0  0  0  0
 21 22  2  0  0  0  0
 22 13  1  0  0  0  0
 23 28  1  0  0  0  0
 25  5  2  0  0  0  0
 27 14  1  0  0  0  0
 27  5  1  1  0  0  0
 27  2  1  0  0  0  0
 28  9  1  0  0  0  0
 29 30  1  0  0  0  0
 30 31  2  0  0  0  0
 32 30  1  0  0  0  0
M  END
>  <MODEL>
9

>  <REMARK>
 VINA RESULT:      -5.9      4.385      7.561
  Name = 
  1 active torsions:
  status: ('A' for Active; 'I' for Inactive)
    1  A    between atoms: C_20  and  N_29
                            x       y       z     vdW  Elec       q    Type
                         _______ _______ _______ _____ _____    ______ ____

>  <TORSDO>
F 1

$$$$
