=
 OpenBabel11122410493D

 32 37  0  0  1  0  0  0  0  0999 V2000
  190.7730  177.4490  140.6060 C   0  0  1  0  0  3  0  0  0  0  0  0
  187.3090  178.7510  138.4390 O   0  0  0  0  0  0  0  0  0  0  0  0
  187.8410  178.1390  137.2890 C   0  0  0  0  0  2  0  0  0  0  0  0
  192.7000  176.7100  139.0450 C   0  0  0  0  0  0  0  0  0  0  0  0
  193.0570  176.0200  137.7670 C   0  0  2  0  0  3  0  0  0  0  0  0
  191.0360  176.8790  143.0970 C   0  0  2  0  0  3  0  0  0  0  0  0
  189.0240  177.8340  142.0390 O   0  0  0  0  0  0  0  0  0  0  0  0
  192.4720  175.7860  135.4750 C   0  0  1  0  0  3  0  0  0  0  0  0
  188.2980  178.6720  139.4370 C   0  0  0  0  0  2  0  0  0  0  0  0
  189.4120  177.0490  140.9980 N   0  0  1  0  0  0  0  0  0  0  0  0
  188.4620  177.2090  139.8870 C   0  0  2  0  0  3  0  0  0  0  0  0
  190.3320  176.5640  138.3080 C   0  0  2  0  0  3  0  0  0  0  0  0
  193.9710  176.0950  135.5590 C   0  0  0  0  0  2  0  0  0  0  0  0
  189.5270  177.2080  143.2000 C   0  0  2  0  0  3  0  0  0  0  0  0
  194.2740  176.4910  137.0100 C   0  0  0  0  0  2  0  0  0  0  0  0
  187.9500  176.6250  137.4980 C   0  0  0  0  0  2  0  0  0  0  0  0
  188.8660  176.3230  138.6890 C   0  0  2  0  0  3  0  0  0  0  0  0
  190.7470  175.7130  137.2550 O   0  0  0  0  0  0  0  0  0  0  0  0
  191.6810  177.4990  141.8500 C   0  0  0  0  0  2  0  0  0  0  0  0
  193.5340  177.3200  139.6960 O   0  0  0  0  0  0  0  0  0  0  0  0
  192.2920  174.4040  135.3750 O   0  0  0  0  0  1  0  0  0  0  0  0
  191.2800  176.4770  139.5330 C   0  0  2  0  0  3  0  0  0  0  0  0
  191.9430  176.2910  136.7980 C   0  0  1  0  0  3  0  0  0  0  0  0
  187.8600  177.9420  144.8900 C   0  0  0  0  0  2  0  0  0  0  0  0
  189.2850  178.1040  144.4010 C   0  0  1  0  0  3  0  0  0  0  0  0
  188.9900  177.2390  145.6110 C   0  0  1  0  0  3  0  0  0  0  0  0
  189.3510  178.0090  146.8650 C   0  0  0  0  0  2  0  0  0  0  0  0
  188.5770  177.4800  148.0210 C   0  0  0  0  0  0  0  0  0  0  0  0
  188.2760  178.3080  149.0940 O   0  0  0  0  0  1  0  0  0  0  0  0
  188.2230  176.2720  148.0420 O   0  0  0  0  0  0  0  0  0  0  0  0
  191.9860  174.9290  144.3330 C   0  0  0  0  0  1  0  0  0  0  0  0
  191.2500  175.3740  143.0840 C   0  0  0  0  0  2  0  0  0  0  0  0
  1 10  1  0  0  0  0
  1 19  1  1  0  0  0
  2  9  1  0  0  0  0
  3 16  1  0  0  0  0
  3  2  1  0  0  0  0
  4 20  2  0  0  0  0
  5 15  1  6  0  0  0
  5  4  1  0  0  0  0
  6 32  1  6  0  0  0
  6 14  1  0  0  0  0
  8 21  1  1  0  0  0
  8 13  1  0  0  0  0
  8 23  1  0  0  0  0
 10  7  1  1  0  0  0
 11  9  1  6  0  0  0
 11 10  1  0  0  0  0
 12 18  1  6  0  0  0
 12 17  1  0  0  0  0
 12 22  1  0  0  0  0
 13 15  1  0  0  0  0
 14  7  1  6  0  0  0
 14 25  1  0  0  0  0
 17 16  1  6  0  0  0
 17 11  1  0  0  0  0
 19  6  1  0  0  0  0
 22  4  1  6  0  0  0
 22  1  1  0  0  0  0
 23 18  1  1  0  0  0
 23  5  1  0  0  0  0
 24 26  1  0  0  0  0
 25 24  1  6  0  0  0
 25 26  1  0  0  0  0
 26 27  1  1  0  0  0
 27 28  1  0  0  0  0
 28 30  2  0  0  0  0
 28 29  1  0  0  0  0
 32 31  1  0  0  0  0
M  END
>  <MODEL>
1

>  <REMARK>
 VINA RESULT:      -7.4      0.000      0.000
  Name = 
  4 active torsions:
  status: ('A' for Active; 'I' for Inactive)
    1  A    between atoms: C_7  and  C_19
    2  A    between atoms: C_10  and  C_17
    3  A    between atoms: C_20  and  C_29
    4  A    between atoms: C_29  and  C_30
                            x       y       z     vdW  Elec       q    Type
                         _______ _______ _______ _____ _____    ______ ____

>  <TORSDO>
F 4

$$$$
=
 OpenBabel11122410493D

 32 37  0  0  1  0  0  0  0  0999 V2000
  189.2880  177.7460  139.5390 C   0  0  1  0  0  3  0  0  0  0  0  0
  187.0640  178.3410  135.9200 O   0  0  0  0  0  0  0  0  0  0  0  0
  187.9860  177.5100  135.2580 C   0  0  0  0  0  2  0  0  0  0  0  0
  191.6440  176.7660  139.1060 C   0  0  0  0  0  0  0  0  0  0  0  0
  192.4540  175.8200  138.2770 C   0  0  2  0  0  3  0  0  0  0  0  0
  188.4920  177.7740  141.9810 C   0  0  2  0  0  3  0  0  0  0  0  0
  187.1290  178.3590  140.0120 O   0  0  0  0  0  0  0  0  0  0  0  0
  192.8360  175.0390  136.0650 C   0  0  1  0  0  3  0  0  0  0  0  0
  187.5600  178.5430  137.2220 C   0  0  0  0  0  2  0  0  0  0  0  0
  187.8670  177.3780  139.4270 N   0  0  1  0  0  0  0  0  0  0  0  0
  187.4570  177.2310  138.0220 C   0  0  2  0  0  3  0  0  0  0  0  0
  189.7720  176.3370  137.5290 C   0  0  2  0  0  3  0  0  0  0  0  0
  194.1860  175.4350  136.6750 C   0  0  0  0  0  2  0  0  0  0  0  0
  187.0890  178.0420  141.3870 C   0  0  2  0  0  3  0  0  0  0  0  0
  193.8940  176.1660  137.9910 C   0  0  0  0  0  2  0  0  0  0  0  0
  187.9280  176.0910  135.8350 C   0  0  0  0  0  2  0  0  0  0  0  0
  188.2680  176.1160  137.3290 C   0  0  2  0  0  3  0  0  0  0  0  0
  190.5370  175.2890  136.9600 O   0  0  0  0  0  0  0  0  0  0  0  0
  189.6150  178.1240  140.9960 C   0  0  0  0  0  2  0  0  0  0  0  0
  192.1710  177.5500  139.8800 O   0  0  0  0  0  0  0  0  0  0  0  0
  192.6460  173.6640  136.2210 O   0  0  0  0  0  1  0  0  0  0  0  0
  190.1390  176.5800  139.0170 C   0  0  2  0  0  3  0  0  0  0  0  0
  191.8420  175.8070  136.9060 C   0  0  1  0  0  3  0  0  0  0  0  0
  184.9900  179.3390  141.6860 C   0  0  0  0  0  2  0  0  0  0  0  0
  186.4240  179.1750  142.1470 C   0  0  1  0  0  3  0  0  0  0  0  0
  185.2900  178.6130  142.9800 C   0  0  1  0  0  3  0  0  0  0  0  0
  185.0360  179.5380  144.1530 C   0  0  0  0  0  2  0  0  0  0  0  0
  183.9680  178.9710  145.0200 C   0  0  0  0  0  0  0  0  0  0  0  0
  182.7350  178.6370  144.4750 O   0  0  0  0  0  0  0  0  0  0  0  0
  184.1690  178.8230  146.2540 O   0  0  0  0  0  1  0  0  0  0  0  0
  190.0570  175.9910  142.7600 C   0  0  0  0  0  1  0  0  0  0  0  0
  188.6200  176.3180  142.4010 C   0  0  0  0  0  2  0  0  0  0  0  0
  1 19  1  1  0  0  0
  2  9  1  0  0  0  0
  3 16  1  0  0  0  0
  3  2  1  0  0  0  0
  4 20  2  0  0  0  0
  5 15  1  6  0  0  0
  5  4  1  0  0  0  0
  6 32  1  6  0  0  0
  8 21  1  1  0  0  0
  8 13  1  0  0  0  0
  8 23  1  0  0  0  0
 10  1  1  0  0  0  0
 10  7  1  6  0  0  0
 11  9  1  6  0  0  0
 11 10  1  0  0  0  0
 12 18  1  1  0  0  0
 12 22  1  0  0  0  0
 13 15  1  0  0  0  0
 14  7  1  6  0  0  0
 14  6  1  0  0  0  0
 14 25  1  0  0  0  0
 17 16  1  6  0  0  0
 17 12  1  0  0  0  0
 17 11  1  0  0  0  0
 19  6  1  0  0  0  0
 22  4  1  6  0  0  0
 22  1  1  0  0  0  0
 23 18  1  1  0  0  0
 23  5  1  0  0  0  0
 24 26  1  0  0  0  0
 25 24  1  6  0  0  0
 25 26  1  0  0  0  0
 26 27  1  1  0  0  0
 27 28  1  0  0  0  0
 28 30  1  0  0  0  0
 29 28  2  0  0  0  0
 32 31  1  0  0  0  0
M  END
>  <MODEL>
2

>  <REMARK>
 VINA RESULT:      -7.2      2.402      3.015
  Name = 
  4 active torsions:
  status: ('A' for Active; 'I' for Inactive)
    1  A    between atoms: C_7  and  C_19
    2  A    between atoms: C_10  and  C_17
    3  A    between atoms: C_20  and  C_29
    4  A    between atoms: C_29  and  C_30
                            x       y       z     vdW  Elec       q    Type
                         _______ _______ _______ _____ _____    ______ ____

>  <TORSDO>
F 4

$$$$
=
 OpenBabel11122410493D

 32 37  0  0  1  0  0  0  0  0999 V2000
  186.2230  178.7080  140.8050 C   0  0  1  0  0  3  0  0  0  0  0  0
  182.2140  179.6470  139.6070 O   0  0  0  0  0  0  0  0  0  0  0  0
  182.5190  179.1590  138.3240 C   0  0  0  0  0  2  0  0  0  0  0  0
  187.7890  178.2870  138.7870 C   0  0  0  0  0  0  0  0  0  0  0  0
  187.9030  177.7040  137.4150 C   0  0  2  0  0  3  0  0  0  0  0  0
  187.1410  178.0690  143.1170 C   0  0  2  0  0  3  0  0  0  0  0  0
  184.8390  178.8040  142.6310 O   0  0  0  0  0  0  0  0  0  0  0  0
  186.8140  177.4950  135.3130 C   0  0  1  0  0  3  0  0  0  0  0  0
  183.4170  179.6530  140.3390 C   0  0  0  0  0  2  0  0  0  0  0  0
  185.0510  178.1210  141.4740 N   0  0  1  0  0  0  0  0  0  0  0  0
  183.8500  178.2050  140.6310 C   0  0  2  0  0  3  0  0  0  0  0  0
  185.3440  177.8720  138.6160 C   0  0  2  0  0  3  0  0  0  0  0  0
  188.2440  177.9900  135.0660 C   0  0  0  0  0  2  0  0  0  0  0  0
  185.6750  178.1990  143.5940 C   0  0  2  0  0  3  0  0  0  0  0  0
  188.8400  178.3580  136.4300 C   0  0  0  0  0  2  0  0  0  0  0  0
  182.8470  177.6630  138.3930 C   0  0  0  0  0  2  0  0  0  0  0  0
  184.0510  177.4300  139.3110 C   0  0  2  0  0  3  0  0  0  0  0  0
  185.5880  177.1270  137.4370 O   0  0  0  0  0  0  0  0  0  0  0  0
  187.3920  178.8190  141.8030 C   0  0  0  0  0  2  0  0  0  0  0  0
  188.6800  178.9710  139.2680 O   0  0  0  0  0  0  0  0  0  0  0  0
  186.7730  176.1070  135.1590 O   0  0  0  0  0  1  0  0  0  0  0  0
  186.5640  177.8550  139.5760 C   0  0  2  0  0  3  0  0  0  0  0  0
  186.5650  177.8720  136.7560 C   0  0  1  0  0  3  0  0  0  0  0  0
  184.3600  178.6870  145.6460 C   0  0  0  0  0  2  0  0  0  0  0  0
  185.6290  179.0040  144.8800 C   0  0  1  0  0  3  0  0  0  0  0  0
  185.6710  178.0530  146.0600 C   0  0  1  0  0  3  0  0  0  0  0  0
  186.2330  178.7860  147.2610 C   0  0  0  0  0  2  0  0  0  0  0  0
  187.5390  178.1870  147.6500 C   0  0  0  0  0  0  0  0  0  0  0  0
  188.3090  177.5230  146.7030 O   0  0  0  0  0  0  0  0  0  0  0  0
  187.9320  178.2520  148.8430 O   0  0  0  0  0  1  0  0  0  0  0  0
  188.9700  176.3800  143.3150 C   0  0  0  0  0  1  0  0  0  0  0  0
  187.5150  176.6050  142.9470 C   0  0  0  0  0  2  0  0  0  0  0  0
  1 10  1  0  0  0  0
  1 19  1  1  0  0  0
  2  9  1  0  0  0  0
  3 16  1  0  0  0  0
  3  2  1  0  0  0  0
  4 20  2  0  0  0  0
  5 15  1  6  0  0  0
  5  4  1  0  0  0  0
  6 32  1  6  0  0  0
  6 14  1  0  0  0  0
  8 21  1  1  0  0  0
  8 23  1  0  0  0  0
 10  7  1  1  0  0  0
 11  9  1  6  0  0  0
 11 10  1  0  0  0  0
 12 18  1  6  0  0  0
 12 17  1  0  0  0  0
 12 22  1  0  0  0  0
 13  8  1  0  0  0  0
 13 15  1  0  0  0  0
 14  7  1  6  0  0  0
 14 25  1  0  0  0  0
 17 16  1  6  0  0  0
 17 11  1  0  0  0  0
 19  6  1  0  0  0  0
 22  4  1  6  0  0  0
 22  1  1  0  0  0  0
 23  5  1  0  0  0  0
 23 18  1  1  0  0  0
 24 26  1  0  0  0  0
 25 24  1  6  0  0  0
 25 26  1  0  0  0  0
 26 27  1  1  0  0  0
 27 28  1  0  0  0  0
 28 30  1  0  0  0  0
 29 28  2  0  0  0  0
 32 31  1  0  0  0  0
M  END
>  <MODEL>
3

>  <REMARK>
 VINA RESULT:      -6.9      3.372      4.665
  Name = 
  4 active torsions:
  status: ('A' for Active; 'I' for Inactive)
    1  A    between atoms: C_7  and  C_19
    2  A    between atoms: C_10  and  C_17
    3  A    between atoms: C_20  and  C_29
    4  A    between atoms: C_29  and  C_30
                            x       y       z     vdW  Elec       q    Type
                         _______ _______ _______ _____ _____    ______ ____

>  <TORSDO>
F 4

$$$$
=
 OpenBabel11122410493D

 32 37  0  0  1  0  0  0  0  0999 V2000
  189.1530  177.8730  140.9430 C   0  0  1  0  0  3  0  0  0  0  0  0
  192.0840  177.8170  144.0740 O   0  0  0  0  0  0  0  0  0  0  0  0
  191.0330  177.8130  145.0100 C   0  0  0  0  0  2  0  0  0  0  0  0
  186.7980  178.5190  141.8000 C   0  0  0  0  0  0  0  0  0  0  0  0
  185.8150  178.3930  142.9210 C   0  0  2  0  0  3  0  0  0  0  0  0
  189.2860  176.9490  138.5510 C   0  0  2  0  0  3  0  0  0  0  0  0
  191.1450  177.0400  140.1680 O   0  0  0  0  0  0  0  0  0  0  0  0
  185.5730  178.4360  145.2850 C   0  0  1  0  0  3  0  0  0  0  0  0
  191.4990  177.9960  142.8060 C   0  0  0  0  0  2  0  0  0  0  0  0
  190.1480  176.7960  141.0620 N   0  0  1  0  0  0  0  0  0  0  0  0
  190.7150  176.7300  142.4170 C   0  0  2  0  0  3  0  0  0  0  0  0
  188.4510  177.4320  143.3040 C   0  0  2  0  0  3  0  0  0  0  0  0
  184.5420  179.3950  144.6790 C   0  0  0  0  0  2  0  0  0  0  0  0
  190.7090  176.4860  138.9450 C   0  0  2  0  0  3  0  0  0  0  0  0
  184.8800  179.5460  143.1910 C   0  0  0  0  0  2  0  0  0  0  0  0
  190.2040  176.5320  144.8680 C   0  0  0  0  0  2  0  0  0  0  0  0
  189.6120  176.4420  143.4580 C   0  0  2  0  0  3  0  0  0  0  0  0
  187.3950  177.1470  144.2030 O   0  0  0  0  0  0  0  0  0  0  0  0
  188.7660  178.0660  139.4650 C   0  0  0  0  0  2  0  0  0  0  0  0
  186.6110  179.2870  140.8690 O   0  0  0  0  0  0  0  0  0  0  0  0
  184.9680  177.2000  145.5230 O   0  0  0  0  0  1  0  0  0  0  0  0
  187.9540  177.5340  141.8380 C   0  0  2  0  0  3  0  0  0  0  0  0
  186.6100  178.3120  144.1920 C   0  0  1  0  0  3  0  0  0  0  0  0
  193.1100  176.7170  138.3470 C   0  0  0  0  0  2  0  0  0  0  0  0
  191.6870  176.8570  137.8460 C   0  0  1  0  0  3  0  0  0  0  0  0
  192.5050  175.6360  137.4780 C   0  0  1  0  0  3  0  0  0  0  0  0
  193.0030  175.7880  136.0550 C   0  0  0  0  0  2  0  0  0  0  0  0
  194.4830  175.6330  136.0200 C   0  0  0  0  0  0  0  0  0  0  0  0
  195.2860  176.7050  135.6540 O   0  0  0  0  0  0  0  0  0  0  0  0
  195.0060  174.5210  136.2910 O   0  0  0  0  0  1  0  0  0  0  0  0
  187.7180  175.5440  137.2080 C   0  0  0  0  0  1  0  0  0  0  0  0
  188.3200  175.7760  138.5810 C   0  0  0  0  0  2  0  0  0  0  0  0
  1 19  1  6  0  0  0
  1 10  1  0  0  0  0
  1 22  1  0  0  0  0
  2  3  1  0  0  0  0
  4  5  1  0  0  0  0
  5 15  1  1  0  0  0
  5 23  1  0  0  0  0
  6 32  1  1  0  0  0
  6 14  1  0  0  0  0
  6 19  1  0  0  0  0
  8 21  1  6  0  0  0
  9  2  1  0  0  0  0
 10  7  1  6  0  0  0
 10 11  1  0  0  0  0
 11  9  1  1  0  0  0
 11 17  1  0  0  0  0
 12 17  1  0  0  0  0
 12 18  1  1  0  0  0
 13  8  1  0  0  0  0
 14  7  1  1  0  0  0
 15 13  1  0  0  0  0
 16  3  1  0  0  0  0
 17 16  1  1  0  0  0
 20  4  2  0  0  0  0
 22  4  1  1  0  0  0
 22 12  1  0  0  0  0
 23 18  1  1  0  0  0
 23  8  1  0  0  0  0
 25 24  1  1  0  0  0
 25 14  1  0  0  0  0
 26 27  1  6  0  0  0
 26 25  1  0  0  0  0
 26 24  1  0  0  0  0
 28 27  1  0  0  0  0
 28 30  1  0  0  0  0
 29 28  2  0  0  0  0
 31 32  1  0  0  0  0
M  END
>  <MODEL>
4

>  <REMARK>
 VINA RESULT:      -6.9      2.165      8.595
  Name = 
  4 active torsions:
  status: ('A' for Active; 'I' for Inactive)
    1  A    between atoms: C_7  and  C_19
    2  A    between atoms: C_10  and  C_17
    3  A    between atoms: C_20  and  C_29
    4  A    between atoms: C_29  and  C_30
                            x       y       z     vdW  Elec       q    Type
                         _______ _______ _______ _____ _____    ______ ____

>  <TORSDO>
F 4

$$$$
=
 OpenBabel11122410493D

 32 37  0  0  1  0  0  0  0  0999 V2000
  186.0900  178.9930  143.1870 C   0  0  1  0  0  3  0  0  0  0  0  0
  189.7790  177.9570  141.2610 O   0  0  0  0  0  0  0  0  0  0  0  0
  190.2270  177.4240  142.4830 C   0  0  0  0  0  2  0  0  0  0  0  0
  186.2620  178.9160  145.7690 C   0  0  0  0  0  0  0  0  0  0  0  0
  186.8490  178.2030  146.9450 C   0  0  2  0  0  3  0  0  0  0  0  0
  183.7270  179.2090  142.2050 C   0  0  2  0  0  3  0  0  0  0  0  0
  185.7940  178.8230  140.9190 O   0  0  0  0  0  0  0  0  0  0  0  0
  188.8260  177.1980  147.7990 C   0  0  1  0  0  3  0  0  0  0  0  0
  188.5490  178.5900  141.5190 C   0  0  0  0  0  2  0  0  0  0  0  0
  186.1360  178.0990  142.0190 N   0  0  1  0  0  0  0  0  0  0  0  0
  187.4780  177.5280  141.8290 C   0  0  2  0  0  3  0  0  0  0  0  0
  187.7290  177.5000  144.3470 C   0  0  2  0  0  3  0  0  0  0  0  0
  188.3010  178.1900  148.8440 C   0  0  0  0  0  2  0  0  0  0  0  0
  184.3840  178.7980  140.8650 C   0  0  2  0  0  3  0  0  0  0  0  0
  187.1860  179.0050  148.1780 C   0  0  0  0  0  2  0  0  0  0  0  0
  189.3500  176.2370  142.8950 C   0  0  0  0  0  2  0  0  0  0  0  0
  187.8940  176.6890  143.0560 C   0  0  2  0  0  3  0  0  0  0  0  0
  188.0390  176.7310  145.4940 O   0  0  0  0  0  0  0  0  0  0  0  0
  184.7500  179.7530  143.2100 C   0  0  0  0  0  2  0  0  0  0  0  0
  185.6760  179.9810  145.8930 O   0  0  0  0  0  0  0  0  0  0  0  0
  188.3700  175.9150  148.1140 O   0  0  0  0  0  1  0  0  0  0  0  0
  186.3280  178.1590  144.4530 C   0  0  2  0  0  3  0  0  0  0  0  0
  188.1900  177.6820  146.5160 C   0  0  1  0  0  3  0  0  0  0  0  0
  183.8270  178.9670  138.4490 C   0  0  0  0  0  2  0  0  0  0  0  0
  183.9050  179.7220  139.7610 C   0  0  1  0  0  3  0  0  0  0  0  0
  182.5670  179.2260  139.2470 C   0  0  1  0  0  3  0  0  0  0  0  0
  181.8110  180.3910  138.6410 C   0  0  0  0  0  2  0  0  0  0  0  0
  180.6180  180.7040  139.4730 C   0  0  0  0  0  0  0  0  0  0  0  0
  180.4300  180.0600  140.6890 O   0  0  0  0  0  1  0  0  0  0  0  0
  179.7600  181.5270  139.0600 O   0  0  0  0  0  0  0  0  0  0  0  0
  182.0890  178.4890  143.9470 C   0  0  0  0  0  1  0  0  0  0  0  0
  182.9910  178.0280  142.8170 C   0  0  0  0  0  2  0  0  0  0  0  0
  1 19  1  1  0  0  0
  1 22  1  0  0  0  0
  2  9  1  0  0  0  0
  2  3  1  0  0  0  0
  3 16  1  0  0  0  0
  4 20  2  0  0  0  0
  4  5  1  0  0  0  0
  5 15  1  1  0  0  0
  6 32  1  1  0  0  0
  6 19  1  0  0  0  0
  8 21  1  1  0  0  0
  8 13  1  0  0  0  0
 10  7  1  6  0  0  0
 10  1  1  0  0  0  0
 11  9  1  1  0  0  0
 11 10  1  0  0  0  0
 11 17  1  0  0  0  0
 12 22  1  0  0  0  0
 12 18  1  1  0  0  0
 14  7  1  1  0  0  0
 14  6  1  0  0  0  0
 15 13  1  0  0  0  0
 17 16  1  6  0  0  0
 17 12  1  0  0  0  0
 22  4  1  1  0  0  0
 23 18  1  6  0  0  0
 23  5  1  0  0  0  0
 23  8  1  0  0  0  0
 24 26  1  0  0  0  0
 25 24  1  6  0  0  0
 25 14  1  0  0  0  0
 26 27  1  6  0  0  0
 26 25  1  0  0  0  0
 27 28  1  0  0  0  0
 28 29  1  0  0  0  0
 30 28  2  0  0  0  0
 32 31  1  0  0  0  0
M  END
>  <MODEL>
5

>  <REMARK>
 VINA RESULT:      -6.7      3.987      9.083
  Name = 
  4 active torsions:
  status: ('A' for Active; 'I' for Inactive)
    1  A    between atoms: C_7  and  C_19
    2  A    between atoms: C_10  and  C_17
    3  A    between atoms: C_20  and  C_29
    4  A    between atoms: C_29  and  C_30
                            x       y       z     vdW  Elec       q    Type
                         _______ _______ _______ _____ _____    ______ ____

>  <TORSDO>
F 4

$$$$
=
 OpenBabel11122410493D

 32 37  0  0  1  0  0  0  0  0999 V2000
  190.2280  177.2230  139.1290 C   0  0  1  0  0  3  0  0  0  0  0  0
  187.4400  177.3660  135.8730 O   0  0  0  0  0  0  0  0  0  0  0  0
  188.3180  176.5550  135.1310 C   0  0  0  0  0  2  0  0  0  0  0  0
  192.5660  176.3890  138.3970 C   0  0  0  0  0  0  0  0  0  0  0  0
  193.3190  175.4430  137.5150 C   0  0  2  0  0  3  0  0  0  0  0  0
  189.8120  177.3850  141.6580 C   0  0  2  0  0  3  0  0  0  0  0  0
  188.1210  177.7110  139.8930 O   0  0  0  0  0  0  0  0  0  0  0  0
  193.4260  174.5210  135.3270 C   0  0  1  0  0  3  0  0  0  0  0  0
  188.1070  177.7050  137.0650 C   0  0  0  0  0  2  0  0  0  0  0  0
  188.8430  176.7440  139.2660 N   0  0  1  0  0  0  0  0  0  0  0  0
  188.2390  176.4570  137.9560 C   0  0  2  0  0  3  0  0  0  0  0  0
  190.5200  175.7000  137.1650 C   0  0  2  0  0  3  0  0  0  0  0  0
  194.8140  175.0620  135.6900 C   0  0  0  0  0  2  0  0  0  0  0  0
  188.3170  177.5010  141.2760 C   0  0  2  0  0  3  0  0  0  0  0  0
  194.6640  175.8710  136.9840 C   0  0  0  0  0  2  0  0  0  0  0  0
  188.4690  175.1860  135.8020 C   0  0  0  0  0  2  0  0  0  0  0  0
  189.0270  175.3530  137.2190 C   0  0  2  0  0  3  0  0  0  0  0  0
  191.2760  174.6700  136.5540 O   0  0  0  0  0  0  0  0  0  0  0  0
  190.7390  177.7380  140.4880 C   0  0  0  0  0  2  0  0  0  0  0  0
  193.1360  177.2680  139.0240 O   0  0  0  0  0  0  0  0  0  0  0  0
  193.3800  173.1520  135.6020 O   0  0  0  0  0  1  0  0  0  0  0  0
  191.0860  176.0860  138.5580 C   0  0  2  0  0  3  0  0  0  0  0  0
  192.5090  175.2770  136.2620 C   0  0  1  0  0  3  0  0  0  0  0  0
  186.3430  179.0030  141.4420 C   0  0  0  0  0  2  0  0  0  0  0  0
  187.6810  178.6380  142.0540 C   0  0  1  0  0  3  0  0  0  0  0  0
  186.3950  178.1450  142.6880 C   0  0  1  0  0  3  0  0  0  0  0  0
  186.0900  178.9960  143.9040 C   0  0  0  0  0  2  0  0  0  0  0  0
  184.6990  178.7340  144.3650 C   0  0  0  0  0  0  0  0  0  0  0  0
  184.3460  178.9810  145.6850 O   0  0  0  0  0  1  0  0  0  0  0  0
  183.8510  178.2570  143.5670 O   0  0  0  0  0  0  0  0  0  0  0  0
  190.9290  176.0310  143.4340 C   0  0  0  0  0  1  0  0  0  0  0  0
  190.1250  175.9800  142.1490 C   0  0  0  0  0  2  0  0  0  0  0  0
  1 10  1  0  0  0  0
  1 19  1  1  0  0  0
  2  9  1  0  0  0  0
  3 16  1  0  0  0  0
  3  2  1  0  0  0  0
  4 20  2  0  0  0  0
  5 15  1  6  0  0  0
  5  4  1  0  0  0  0
  6 32  1  6  0  0  0
  8 21  1  1  0  0  0
  8 13  1  0  0  0  0
  8 23  1  0  0  0  0
 10  7  1  6  0  0  0
 11  9  1  6  0  0  0
 11 10  1  0  0  0  0
 12 18  1  1  0  0  0
 12 17  1  0  0  0  0
 12 22  1  0  0  0  0
 13 15  1  0  0  0  0
 14  7  1  6  0  0  0
 14  6  1  0  0  0  0
 14 25  1  0  0  0  0
 17 16  1  6  0  0  0
 17 11  1  0  0  0  0
 19  6  1  0  0  0  0
 22  4  1  6  0  0  0
 22  1  1  0  0  0  0
 23 18  1  1  0  0  0
 23  5  1  0  0  0  0
 24 26  1  0  0  0  0
 25 24  1  6  0  0  0
 25 26  1  0  0  0  0
 26 27  1  1  0  0  0
 27 28  1  0  0  0  0
 28 29  1  0  0  0  0
 30 28  2  0  0  0  0
 32 31  1  0  0  0  0
M  END
>  <MODEL>
6

>  <REMARK>
 VINA RESULT:      -6.5      2.278      2.744
  Name = 
  4 active torsions:
  status: ('A' for Active; 'I' for Inactive)
    1  A    between atoms: C_7  and  C_19
    2  A    between atoms: C_10  and  C_17
    3  A    between atoms: C_20  and  C_29
    4  A    between atoms: C_29  and  C_30
                            x       y       z     vdW  Elec       q    Type
                         _______ _______ _______ _____ _____    ______ ____

>  <TORSDO>
F 4

$$$$
=
 OpenBabel11122410493D

 32 37  0  0  1  0  0  0  0  0999 V2000
  188.4870  176.5530  138.4940 C   0  0  1  0  0  3  0  0  0  0  0  0
  189.8420  177.0040  142.5380 O   0  0  0  0  0  0  0  0  0  0  0  0
  191.1480  176.7210  142.0960 C   0  0  0  0  0  2  0  0  0  0  0  0
  190.2280  175.3670  136.9910 C   0  0  0  0  0  0  0  0  0  0  0  0
  191.6820  175.2030  136.6790 C   0  0  2  0  0  3  0  0  0  0  0  0
  186.4990  177.6510  137.2950 C   0  0  2  0  0  3  0  0  0  0  0  0
  187.0180  177.8400  139.6980 O   0  0  0  0  0  0  0  0  0  0  0  0
  193.8400  174.9440  137.6380 C   0  0  1  0  0  3  0  0  0  0  0  0
  188.9860  176.7960  141.4410 C   0  0  0  0  0  2  0  0  0  0  0  0
  188.3000  177.8050  139.2450 N   0  0  1  0  0  0  0  0  0  0  0  0
  189.2230  177.8930  140.3870 C   0  0  2  0  0  3  0  0  0  0  0  0
  190.9380  176.6690  138.9850 C   0  0  2  0  0  3  0  0  0  0  0  0
  193.6400  173.8350  136.6000 C   0  0  0  0  0  2  0  0  0  0  0  0
  186.2510  178.3750  138.6400 C   0  0  2  0  0  3  0  0  0  0  0  0
  192.1650  173.8640  136.1820 C   0  0  0  0  0  2  0  0  0  0  0  0
  191.6230  177.8060  141.1230 C   0  0  0  0  0  2  0  0  0  0  0  0
  190.6900  177.8680  139.9080 C   0  0  2  0  0  3  0  0  0  0  0  0
  192.2590  176.6610  138.4770 O   0  0  0  0  0  0  0  0  0  0  0  0
  187.3530  176.3880  137.4650 C   0  0  0  0  0  2  0  0  0  0  0  0
  189.3810  174.6440  136.4880 O   0  0  0  0  0  0  0  0  0  0  0  0
  194.5330  176.0060  137.0510 O   0  0  0  0  0  1  0  0  0  0  0  0
  189.8810  176.5690  137.8530 C   0  0  2  0  0  3  0  0  0  0  0  0
  192.4260  175.3600  137.9730 C   0  0  1  0  0  3  0  0  0  0  0  0
  184.5210  179.0020  140.3110 C   0  0  0  0  0  2  0  0  0  0  0  0
  184.7770  178.2950  138.9950 C   0  0  1  0  0  3  0  0  0  0  0  0
  184.1960  179.6950  139.0050 C   0  0  1  0  0  3  0  0  0  0  0  0
  182.7060  179.6100  138.7410 C   0  0  0  0  0  2  0  0  0  0  0  0
  182.1200  180.9780  138.7170 C   0  0  0  0  0  0  0  0  0  0  0  0
  180.7430  181.1430  138.6550 O   0  0  0  0  0  0  0  0  0  0  0  0
  182.8740  181.9860  138.7180 O   0  0  0  0  0  1  0  0  0  0  0  0
  187.5420  177.8470  135.0350 C   0  0  0  0  0  1  0  0  0  0  0  0
  187.1700  178.5890  136.3050 C   0  0  0  0  0  2  0  0  0  0  0  0
  1 19  1  6  0  0  0
  1 10  1  0  0  0  0
  3  2  1  0  0  0  0
  5 15  1  1  0  0  0
  5  4  1  0  0  0  0
  5 23  1  0  0  0  0
  6 32  1  6  0  0  0
  6 19  1  0  0  0  0
  6 14  1  0  0  0  0
  8 21  1  6  0  0  0
  8 23  1  0  0  0  0
  9  2  1  0  0  0  0
 10  7  1  1  0  0  0
 10 11  1  0  0  0  0
 11  9  1  1  0  0  0
 12 18  1  6  0  0  0
 12 17  1  0  0  0  0
 13  8  1  0  0  0  0
 14 25  1  0  0  0  0
 14  7  1  1  0  0  0
 15 13  1  0  0  0  0
 16  3  1  0  0  0  0
 17 11  1  0  0  0  0
 17 16  1  1  0  0  0
 20  4  2  0  0  0  0
 22  4  1  1  0  0  0
 22  1  1  0  0  0  0
 22 12  1  0  0  0  0
 23 18  1  6  0  0  0
 25 26  1  0  0  0  0
 25 24  1  1  0  0  0
 26 27  1  1  0  0  0
 26 24  1  0  0  0  0
 28 30  1  0  0  0  0
 28 27  1  0  0  0  0
 29 28  2  0  0  0  0
 31 32  1  0  0  0  0
M  END
>  <MODEL>
7

>  <REMARK>
 VINA RESULT:      -6.3      2.866      6.315
  Name = 
  4 active torsions:
  status: ('A' for Active; 'I' for Inactive)
    1  A    between atoms: C_7  and  C_19
    2  A    between atoms: C_10  and  C_17
    3  A    between atoms: C_20  and  C_29
    4  A    between atoms: C_29  and  C_30
                            x       y       z     vdW  Elec       q    Type
                         _______ _______ _______ _____ _____    ______ ____

>  <TORSDO>
F 4

$$$$
=
 OpenBabel11122410493D

 32 37  0  0  1  0  0  0  0  0999 V2000
  190.1100  176.4810  139.0170 C   0  0  1  0  0  3  0  0  0  0  0  0
  187.2600  176.5930  135.8140 O   0  0  0  0  0  0  0  0  0  0  0  0
  186.3790  177.2810  136.6680 C   0  0  0  0  0  2  0  0  0  0  0  0
  189.0450  177.0250  141.3120 C   0  0  0  0  0  0  0  0  0  0  0  0
  188.0380  177.8590  142.0390 C   0  0  2  0  0  3  0  0  0  0  0  0
  192.6760  176.4200  138.9320 C   0  0  2  0  0  3  0  0  0  0  0  0
  191.1640  176.2550  136.9920 O   0  0  0  0  0  0  0  0  0  0  0  0
  185.8230  178.7180  141.9500 C   0  0  1  0  0  3  0  0  0  0  0  0
  188.3640  176.2030  136.5950 C   0  0  0  0  0  2  0  0  0  0  0  0
  190.4120  177.1190  137.7250 N   0  0  1  0  0  0  0  0  0  0  0  0
  189.1840  177.4460  136.9850 C   0  0  2  0  0  3  0  0  0  0  0  0
  188.0710  177.9200  139.2080 C   0  0  2  0  0  3  0  0  0  0  0  0
  186.0180  178.0290  143.3060 C   0  0  0  0  0  2  0  0  0  0  0  0
  192.4990  176.4690  137.3960 C   0  0  2  0  0  3  0  0  0  0  0  0
  187.3480  177.2690  143.2430 C   0  0  0  0  0  2  0  0  0  0  0  0
  186.9750  178.6380  137.0600 C   0  0  0  0  0  2  0  0  0  0  0  0
  188.3100  178.4360  137.7840 C   0  0  2  0  0  3  0  0  0  0  0  0
  187.3290  178.8420  139.9830 O   0  0  0  0  0  0  0  0  0  0  0  0
  191.4070  175.9390  139.6470 C   0  0  0  0  0  2  0  0  0  0  0  0
  189.6220  176.0990  141.8600 O   0  0  0  0  0  0  0  0  0  0  0  0
  186.0520  180.0890  142.0940 O   0  0  0  0  0  1  0  0  0  0  0  0
  189.3900  177.4990  139.9100 C   0  0  2  0  0  3  0  0  0  0  0  0
  186.8980  178.0920  141.0900 C   0  0  1  0  0  3  0  0  0  0  0  0
  193.0210  175.2560  135.2900 C   0  0  0  0  0  2  0  0  0  0  0  0
  193.3950  175.4280  136.7490 C   0  0  1  0  0  3  0  0  0  0  0  0
  194.2240  176.0930  135.6680 C   0  0  1  0  0  3  0  0  0  0  0  0
  195.4910  175.2900  135.4560 C   0  0  0  0  0  2  0  0  0  0  0  0
  196.6800  176.1400  135.7380 C   0  0  0  0  0  0  0  0  0  0  0  0
  197.7440  175.6280  136.4680 O   0  0  0  0  0  1  0  0  0  0  0  0
  196.7070  177.3350  135.3430 O   0  0  0  0  0  0  0  0  0  0  0  0
  192.8080  177.8780  140.9550 C   0  0  0  0  0  1  0  0  0  0  0  0
  193.0700  177.7890  139.4640 C   0  0  0  0  0  2  0  0  0  0  0  0
  1 19  1  1  0  0  0
  1 22  1  0  0  0  0
  2  9  1  0  0  0  0
  2  3  1  0  0  0  0
  3 16  1  0  0  0  0
  4 20  2  0  0  0  0
  4  5  1  0  0  0  0
  5 15  1  1  0  0  0
  6 32  1  1  0  0  0
  6 19  1  0  0  0  0
  8 21  1  1  0  0  0
  8 13  1  0  0  0  0
 10  7  1  6  0  0  0
 10  1  1  0  0  0  0
 11  9  1  1  0  0  0
 11 10  1  0  0  0  0
 11 17  1  0  0  0  0
 12 22  1  0  0  0  0
 12 18  1  1  0  0  0
 14  7  1  1  0  0  0
 14  6  1  0  0  0  0
 15 13  1  0  0  0  0
 17 16  1  6  0  0  0
 17 12  1  0  0  0  0
 22  4  1  1  0  0  0
 23 18  1  6  0  0  0
 23  8  1  0  0  0  0
 23  5  1  0  0  0  0
 24 26  1  0  0  0  0
 25 24  1  6  0  0  0
 25 14  1  0  0  0  0
 26 27  1  6  0  0  0
 26 25  1  0  0  0  0
 27 28  1  0  0  0  0
 28 29  1  0  0  0  0
 30 28  2  0  0  0  0
 32 31  1  0  0  0  0
M  END
>  <MODEL>
8

>  <REMARK>
 VINA RESULT:      -5.7      2.814      7.969
  Name = 
  4 active torsions:
  status: ('A' for Active; 'I' for Inactive)
    1  A    between atoms: C_7  and  C_19
    2  A    between atoms: C_10  and  C_17
    3  A    between atoms: C_20  and  C_29
    4  A    between atoms: C_29  and  C_30
                            x       y       z     vdW  Elec       q    Type
                         _______ _______ _______ _____ _____    ______ ____

>  <TORSDO>
F 4

$$$$
=
 OpenBabel11122410493D

 32 37  0  0  1  0  0  0  0  0999 V2000
  188.1520  176.6950  138.3440 C   0  0  1  0  0  3  0  0  0  0  0  0
  189.6110  177.3330  142.3260 O   0  0  0  0  0  0  0  0  0  0  0  0
  190.8710  176.8740  141.9010 C   0  0  0  0  0  2  0  0  0  0  0  0
  189.7330  175.2050  136.9350 C   0  0  0  0  0  0  0  0  0  0  0  0
  191.1550  174.8600  136.6290 C   0  0  2  0  0  3  0  0  0  0  0  0
  186.2750  177.8970  137.0680 C   0  0  2  0  0  3  0  0  0  0  0  0
  186.8490  178.2290  139.4420 O   0  0  0  0  0  0  0  0  0  0  0  0
  193.2890  174.4500  137.5930 C   0  0  1  0  0  3  0  0  0  0  0  0
  188.7200  177.1280  141.2550 C   0  0  0  0  0  2  0  0  0  0  0  0
  188.1130  178.0180  138.9860 N   0  0  1  0  0  0  0  0  0  0  0  0
  189.0570  178.1000  140.1100 C   0  0  2  0  0  3  0  0  0  0  0  0
  190.6090  176.5850  138.8070 C   0  0  2  0  0  3  0  0  0  0  0  0
  192.9540  173.2860  136.6540 C   0  0  0  0  0  2  0  0  0  0  0  0
  186.1270  178.7530  138.3480 C   0  0  2  0  0  3  0  0  0  0  0  0
  191.4840  173.4390  136.2440 C   0  0  0  0  0  2  0  0  0  0  0  0
  191.4450  177.8160  140.8360 C   0  0  0  0  0  2  0  0  0  0  0  0
  190.5060  177.8770  139.6270 C   0  0  2  0  0  3  0  0  0  0  0  0
  191.9140  176.3920  138.2940 O   0  0  0  0  0  0  0  0  0  0  0  0
  186.9910  176.5680  137.3390 C   0  0  0  0  0  2  0  0  0  0  0  0
  188.8060  174.5390  136.5010 O   0  0  0  0  0  0  0  0  0  0  0  0
  194.0820  175.3770  136.9140 O   0  0  0  0  0  1  0  0  0  0  0  0
  189.5300  176.5050  137.6950 C   0  0  2  0  0  3  0  0  0  0  0  0
  191.9330  175.0430  137.9000 C   0  0  1  0  0  3  0  0  0  0  0  0
  184.0050  177.4980  138.6620 C   0  0  0  0  0  2  0  0  0  0  0  0
  184.6600  178.8640  138.7180 C   0  0  1  0  0  3  0  0  0  0  0  0
  184.4120  178.0870  139.9960 C   0  0  1  0  0  3  0  0  0  0  0  0
  183.1940  178.6610  140.6910 C   0  0  0  0  0  2  0  0  0  0  0  0
  183.3940  178.6280  142.1650 C   0  0  0  0  0  0  0  0  0  0  0  0
  184.6010  178.1890  142.6930 O   0  0  0  0  0  0  0  0  0  0  0  0
  182.4590  178.9660  142.9360 O   0  0  0  0  0  1  0  0  0  0  0  0
  187.3920  177.7620  134.8380 C   0  0  0  0  0  1  0  0  0  0  0  0
  187.0280  178.6710  135.9970 C   0  0  0  0  0  2  0  0  0  0  0  0
  1 19  1  6  0  0  0
  1 10  1  0  0  0  0
  3  2  1  0  0  0  0
  5 15  1  1  0  0  0
  5  4  1  0  0  0  0
  5 23  1  0  0  0  0
  6 32  1  6  0  0  0
  6 19  1  0  0  0  0
  6 14  1  0  0  0  0
  8 21  1  6  0  0  0
  8 23  1  0  0  0  0
  9  2  1  0  0  0  0
 10  7  1  1  0  0  0
 10 11  1  0  0  0  0
 11  9  1  1  0  0  0
 12 18  1  6  0  0  0
 12 17  1  0  0  0  0
 13  8  1  0  0  0  0
 14 25  1  0  0  0  0
 14  7  1  1  0  0  0
 15 13  1  0  0  0  0
 16  3  1  0  0  0  0
 17 11  1  0  0  0  0
 17 16  1  1  0  0  0
 20  4  2  0  0  0  0
 22  4  1  1  0  0  0
 22  1  1  0  0  0  0
 22 12  1  0  0  0  0
 23 18  1  6  0  0  0
 24 26  1  0  0  0  0
 25 24  1  6  0  0  0
 25 26  1  0  0  0  0
 26 27  1  1  0  0  0
 27 28  1  0  0  0  0
 28 29  2  0  0  0  0
 28 30  1  0  0  0  0
 31 32  1  0  0  0  0
M  END
>  <MODEL>
9

>  <REMARK>
 VINA RESULT:      -5.5      2.943      5.588
  Name = 
  4 active torsions:
  status: ('A' for Active; 'I' for Inactive)
    1  A    between atoms: C_7  and  C_19
    2  A    between atoms: C_10  and  C_17
    3  A    between atoms: C_20  and  C_29
    4  A    between atoms: C_29  and  C_30
                            x       y       z     vdW  Elec       q    Type
                         _______ _______ _______ _____ _____    ______ ____

>  <TORSDO>
F 4

$$$$
