=
 OpenBabel11122411173D

 31 35  0  0  1  0  0  0  0  0999 V2000
  192.9880  175.0560  136.4220 C   0  0  0  0  0  0  0  0  0  0  0  0
  189.6590  176.8660  136.8030 C   0  0  2  0  0  3  0  0  0  0  0  0
  188.5680  175.8220  136.9460 C   0  0  0  0  0  0  0  0  0  0  0  0
  187.7520  173.5490  136.8360 C   0  0  0  0  0  0  0  0  0  0  0  0
  191.0540  176.3590  137.0940 C   0  0  0  0  0  0  0  0  0  0  0  0
  193.6560  175.4390  137.5870 C   0  0  0  0  0  3  0  0  0  0  0  0
  188.8120  174.4530  136.7720 C   0  0  0  0  0  3  0  0  0  0  0  0
  189.7640  177.9950  139.1000 C   0  0  1  0  0  3  0  0  0  0  0  0
  193.5970  174.2380  135.5300 F   0  0  0  0  0  0  0  0  0  0  0  0
  186.9550  177.6520  137.3100 N   0  0  0  0  0  0  0  0  0  0  0  0
  187.9960  172.1570  136.6760 N   0  0  0  0  0  1  0  0  0  0  0  0
  191.1430  177.6350  139.1740 O   0  0  0  0  0  0  0  0  0  0  0  0
  189.3370  178.1360  137.6260 C   0  0  2  0  0  3  0  0  0  0  0  0
  191.6940  175.5190  136.1730 C   0  0  0  0  0  3  0  0  0  0  0  0
  186.4840  173.9960  137.0400 N   0  0  0  0  0  0  0  0  0  0  0  0
  191.7360  176.7530  138.2640 C   0  0  0  0  0  0  0  0  0  0  0  0
  193.0330  176.2890  138.5040 C   0  0  0  0  0  3  0  0  0  0  0  0
  187.8900  178.5380  137.4930 C   0  0  0  0  0  3  0  0  0  0  0  0
  187.2450  176.2570  137.1490 C   0  0  0  0  0  0  0  0  0  0  0  0
  186.2110  175.3200  137.1920 C   0  0  0  0  0  3  0  0  0  0  0  0
  188.9260  176.9620  139.8490 C   0  0  0  0  0  2  0  0  0  0  0  0
  188.6390  178.8740  141.2720 O   0  0  0  0  0  1  0  0  0  0  0  0
  188.4250  177.4970  141.1850 C   0  0  2  0  0  3  0  0  0  0  0  0
  188.9030  177.8270  145.1940 C   0  0  0  0  0  0  0  0  0  0  0  0
  188.0730  176.1760  143.3770 C   0  0  0  0  0  2  0  0  0  0  0  0
  191.1880  177.8880  142.3650 O   0  0  0  0  0  0  0  0  0  0  0  0
  189.0000  177.8600  146.4810 N   0  0  0  0  0  2  0  0  0  0  0  0
  187.3270  177.4530  144.4350 S   0  0  0  0  0  0  0  0  0  0  0  0
  190.1590  177.5980  143.0290 C   0  0  0  0  0  0  0  0  0  0  0  0
  189.0720  176.7800  142.3790 C   0  0  2  0  0  3  0  0  0  0  0  0
  190.0640  178.0350  144.3900 N   0  0  0  0  0  2  0  0  0  0  0  0
  1  6  1  0  0  0  0
  2  3  1  1  0  0  0
  2  5  1  0  0  0  0
  2 13  1  0  0  0  0
  3 19  1  0  0  0  0
  4 15  2  0  0  0  0
  5 16  2  0  0  0  0
  6 17  2  0  0  0  0
  7  4  1  0  0  0  0
  7  3  2  0  0  0  0
  8 12  1  0  0  0  0
  8 21  1  6  0  0  0
  9  1  1  0  0  0  0
 10 18  2  0  0  0  0
 11  4  1  0  0  0  0
 13 18  1  1  0  0  0
 13  8  1  0  0  0  0
 14  1  2  0  0  0  0
 14  5  1  0  0  0  0
 15 20  1  0  0  0  0
 16 17  1  0  0  0  0
 16 12  1  0  0  0  0
 19 20  2  0  0  0  0
 19 10  1  0  0  0  0
 21 23  1  0  0  0  0
 23 22  1  1  0  0  0
 24 27  2  0  0  0  0
 25 28  1  0  0  0  0
 26 29  2  0  0  0  0
 28 24  1  0  0  0  0
 29 31  1  0  0  0  0
 30 23  1  6  0  0  0
 30 29  1  0  0  0  0
 30 25  1  0  0  0  0
 31 24  1  0  0  0  0
M  END
>  <MODEL>
1

>  <REMARK>
 VINA RESULT:      -7.3      0.000      0.000
  Name = 
  3 active torsions:
  status: ('A' for Active; 'I' for Inactive)
    1  A    between atoms: C_5  and  C_16
    2  A    between atoms: C_5  and  C_30
    3  A    between atoms: C_10  and  C_16
                            x       y       z     vdW  Elec       q    Type
                         _______ _______ _______ _____ _____    ______ ____

>  <TORSDO>
F 3

$$$$
=
 OpenBabel11122411173D

 31 35  0  0  1  0  0  0  0  0999 V2000
  180.4540  179.8180  142.4920 C   0  0  0  0  0  0  0  0  0  0  0  0
  180.6140  178.2020  139.0470 C   0  0  2  0  0  3  0  0  0  0  0  0
  180.7250  179.3060  138.0120 C   0  0  0  0  0  0  0  0  0  0  0  0
  180.6310  181.6250  137.3370 C   0  0  0  0  0  0  0  0  0  0  0  0
  180.9900  178.6180  140.4510 C   0  0  0  0  0  0  0  0  0  0  0  0
  181.6430  179.3710  143.0720 C   0  0  0  0  0  3  0  0  0  0  0  0
  180.6000  180.6610  138.3450 C   0  0  0  0  0  3  0  0  0  0  0  0
  182.8840  177.0180  138.9610 C   0  0  1  0  0  3  0  0  0  0  0  0
  179.6170  180.6190  143.1940 F   0  0  0  0  0  0  0  0  0  0  0  0
  180.9570  177.5670  136.2780 N   0  0  0  0  0  0  0  0  0  0  0  0
  180.5190  183.0040  137.6710 N   0  0  0  0  0  1  0  0  0  0  0  0
  183.0400  177.2940  140.3530 O   0  0  0  0  0  0  0  0  0  0  0  0
  181.3860  176.9350  138.6070 C   0  0  2  0  0  3  0  0  0  0  0  0
  180.1260  179.4390  141.1880 C   0  0  0  0  0  3  0  0  0  0  0  0
  180.7560  181.2500  136.0360 N   0  0  0  0  0  0  0  0  0  0  0  0
  182.1840  178.1590  141.0450 C   0  0  0  0  0  0  0  0  0  0  0  0
  182.5040  178.5390  142.3510 C   0  0  0  0  0  3  0  0  0  0  0  0
  181.1670  176.6230  137.1480 C   0  0  0  0  0  3  0  0  0  0  0  0
  180.8480  178.9460  136.6570 C   0  0  0  0  0  0  0  0  0  0  0  0
  180.8600  179.9420  135.6790 C   0  0  0  0  0  3  0  0  0  0  0  0
  183.6140  178.0820  138.1450 C   0  0  0  0  0  2  0  0  0  0  0  0
  184.9760  179.7110  139.2650 O   0  0  0  0  0  1  0  0  0  0  0  0
  184.9760  178.4180  138.7380 C   0  0  2  0  0  3  0  0  0  0  0  0
  187.4880  175.6350  137.2020 C   0  0  0  0  0  0  0  0  0  0  0  0
  185.7480  177.4170  136.4840 C   0  0  0  0  0  2  0  0  0  0  0  0
  187.9650  178.6580  139.1670 O   0  0  0  0  0  0  0  0  0  0  0  0
  188.2420  174.7550  136.6340 N   0  0  0  0  0  2  0  0  0  0  0  0
  185.7300  175.6400  136.8710 S   0  0  0  0  0  0  0  0  0  0  0  0
  187.4190  177.8670  138.3550 C   0  0  0  0  0  0  0  0  0  0  0  0
  186.1110  178.2600  137.7160 C   0  0  2  0  0  3  0  0  0  0  0  0
  188.0700  176.6290  138.0440 N   0  0  0  0  0  2  0  0  0  0  0  0
  1  6  1  0  0  0  0
  1  9  1  0  0  0  0
  2  3  1  6  0  0  0
  2  5  1  0  0  0  0
  3  7  1  0  0  0  0
  4 11  1  0  0  0  0
  4  7  2  0  0  0  0
  5 16  2  0  0  0  0
  5 14  1  0  0  0  0
  8 21  1  6  0  0  0
  8 12  1  0  0  0  0
 10 19  1  0  0  0  0
 10 18  2  0  0  0  0
 12 16  1  0  0  0  0
 13 18  1  6  0  0  0
 13  8  1  0  0  0  0
 13  2  1  0  0  0  0
 14  1  2  0  0  0  0
 15  4  1  0  0  0  0
 16 17  1  0  0  0  0
 17  6  2  0  0  0  0
 19  3  2  0  0  0  0
 20 15  2  0  0  0  0
 20 19  1  0  0  0  0
 21 23  1  0  0  0  0
 23 22  1  6  0  0  0
 24 31  1  0  0  0  0
 25 28  1  0  0  0  0
 25 30  1  0  0  0  0
 27 24  2  0  0  0  0
 28 24  1  0  0  0  0
 29 26  2  0  0  0  0
 30 29  1  0  0  0  0
 30 23  1  1  0  0  0
 31 29  1  0  0  0  0
M  END
>  <MODEL>
2

>  <REMARK>
 VINA RESULT:      -6.3      6.505      9.395
  Name = 
  3 active torsions:
  status: ('A' for Active; 'I' for Inactive)
    1  A    between atoms: C_5  and  C_16
    2  A    between atoms: C_5  and  C_30
    3  A    between atoms: C_10  and  C_16
                            x       y       z     vdW  Elec       q    Type
                         _______ _______ _______ _____ _____    ______ ____

>  <TORSDO>
F 3

$$$$
=
 OpenBabel11122411173D

 31 35  0  0  1  0  0  0  0  0999 V2000
  187.7100  177.1920  136.6260 C   0  0  0  0  0  0  0  0  0  0  0  0
  184.3590  178.3540  138.0130 C   0  0  2  0  0  3  0  0  0  0  0  0
  183.4660  177.1380  138.1720 C   0  0  0  0  0  0  0  0  0  0  0  0
  182.9340  174.8100  137.7980 C   0  0  0  0  0  0  0  0  0  0  0  0
  185.8350  178.0410  137.9130 C   0  0  0  0  0  0  0  0  0  0  0  0
  188.5740  177.4870  137.6830 C   0  0  0  0  0  3  0  0  0  0  0  0
  183.8320  175.8730  137.6950 C   0  0  0  0  0  3  0  0  0  0  0  0
  184.8460  179.1040  140.4130 C   0  0  1  0  0  3  0  0  0  0  0  0
  188.1950  176.6360  135.4900 F   0  0  0  0  0  0  0  0  0  0  0  0
  181.7670  178.6010  139.1980 N   0  0  0  0  0  0  0  0  0  0  0  0
  183.3050  173.5190  137.3290 N   0  0  0  0  0  1  0  0  0  0  0  0
  186.2390  178.9660  140.1370 O   0  0  0  0  0  0  0  0  0  0  0  0
  184.0790  179.4080  139.1110 C   0  0  2  0  0  3  0  0  0  0  0  0
  186.3460  177.4730  136.7380 C   0  0  0  0  0  3  0  0  0  0  0  0
  181.7010  175.0070  138.3360 N   0  0  0  0  0  0  0  0  0  0  0  0
  186.7120  178.3480  138.9730 C   0  0  0  0  0  0  0  0  0  0  0  0
  188.0770  178.0680  138.8520 C   0  0  0  0  0  3  0  0  0  0  0  0
  182.6010  179.5860  139.3540 C   0  0  0  0  0  3  0  0  0  0  0  0
  182.1820  177.3150  138.7190 C   0  0  0  0  0  0  0  0  0  0  0  0
  181.3090  176.2280  138.7910 C   0  0  0  0  0  3  0  0  0  0  0  0
  184.3350  177.8430  141.1060 C   0  0  0  0  0  2  0  0  0  0  0  0
  182.6350  178.8210  142.4910 O   0  0  0  0  0  1  0  0  0  0  0  0
  183.8480  178.1290  142.5210 C   0  0  2  0  0  3  0  0  0  0  0  0
  186.6540  177.5860  145.3920 C   0  0  0  0  0  0  0  0  0  0  0  0
  186.3450  178.5710  143.0140 C   0  0  0  0  0  2  0  0  0  0  0  0
  183.5200  179.4260  145.2380 O   0  0  0  0  0  0  0  0  0  0  0  0
  187.6110  177.4310  146.2430 N   0  0  0  0  0  2  0  0  0  0  0  0
  186.8460  176.9730  143.7230 S   0  0  0  0  0  0  0  0  0  0  0  0
  184.5790  178.8860  144.8250 C   0  0  0  0  0  0  0  0  0  0  0  0
  184.8830  178.9040  143.3480 C   0  0  2  0  0  3  0  0  0  0  0  0
  185.4740  178.2930  145.7740 N   0  0  0  0  0  2  0  0  0  0  0  0
  1 14  2  0  0  0  0
  1  6  1  0  0  0  0
  2  5  1  1  0  0  0
  2  3  1  0  0  0  0
  2 13  1  0  0  0  0
  3 19  1  0  0  0  0
  4 15  2  0  0  0  0
  5 16  2  0  0  0  0
  6 17  2  0  0  0  0
  7  4  1  0  0  0  0
  7  3  2  0  0  0  0
  8 21  1  6  0  0  0
  9  1  1  0  0  0  0
 10 18  2  0  0  0  0
 11  4  1  0  0  0  0
 12  8  1  0  0  0  0
 13 18  1  1  0  0  0
 13  8  1  0  0  0  0
 14  5  1  0  0  0  0
 15 20  1  0  0  0  0
 16 12  1  0  0  0  0
 17 16  1  0  0  0  0
 19 20  2  0  0  0  0
 19 10  1  0  0  0  0
 21 23  1  0  0  0  0
 23 22  1  6  0  0  0
 24 31  1  0  0  0  0
 24 27  2  0  0  0  0
 25 30  1  0  0  0  0
 25 28  1  0  0  0  0
 28 24  1  0  0  0  0
 29 26  2  0  0  0  0
 29 31  1  0  0  0  0
 30 23  1  6  0  0  0
 30 29  1  0  0  0  0
M  END
>  <MODEL>
3

>  <REMARK>
 VINA RESULT:      -6.2      3.893      5.205
  Name = 
  3 active torsions:
  status: ('A' for Active; 'I' for Inactive)
    1  A    between atoms: C_5  and  C_16
    2  A    between atoms: C_5  and  C_30
    3  A    between atoms: C_10  and  C_16
                            x       y       z     vdW  Elec       q    Type
                         _______ _______ _______ _____ _____    ______ ____

>  <TORSDO>
F 3

$$$$
=
 OpenBabel11122411173D

 31 35  0  0  1  0  0  0  0  0999 V2000
  190.7100  173.3930  135.6420 C   0  0  0  0  0  0  0  0  0  0  0  0
  189.0060  176.7400  136.2720 C   0  0  2  0  0  3  0  0  0  0  0  0
  187.5980  176.4680  136.7670 C   0  0  0  0  0  0  0  0  0  0  0  0
  185.7180  175.0040  137.1740 C   0  0  0  0  0  0  0  0  0  0  0  0
  189.9550  175.5710  136.4040 C   0  0  0  0  0  0  0  0  0  0  0  0
  191.7270  173.4060  136.5990 C   0  0  0  0  0  3  0  0  0  0  0  0
  187.0460  175.1800  136.7840 C   0  0  0  0  0  3  0  0  0  0  0  0
  190.2110  177.7400  138.2990 C   0  0  1  0  0  3  0  0  0  0  0  0
  190.5780  172.3330  134.8090 F   0  0  0  0  0  0  0  0  0  0  0  0
  187.3120  178.8960  137.0880 N   0  0  0  0  0  0  0  0  0  0  0  0
  185.1560  173.6980  137.2080 N   0  0  0  0  0  1  0  0  0  0  0  0
  191.1730  176.6910  138.2000 O   0  0  0  0  0  0  0  0  0  0  0  0
  189.5930  178.0190  136.9150 C   0  0  2  0  0  3  0  0  0  0  0  0
  189.8300  174.4740  135.5410 C   0  0  0  0  0  3  0  0  0  0  0  0
  184.9560  176.0790  137.5100 N   0  0  0  0  0  0  0  0  0  0  0  0
  190.9900  175.5850  137.3620 C   0  0  0  0  0  0  0  0  0  0  0  0
  191.8700  174.5020  137.4540 C   0  0  0  0  0  3  0  0  0  0  0  0
  188.5830  179.1380  136.9630 C   0  0  0  0  0  3  0  0  0  0  0  0
  186.7850  177.5630  137.1140 C   0  0  0  0  0  0  0  0  0  0  0  0
  185.4570  177.3430  137.4850 C   0  0  0  0  0  3  0  0  0  0  0  0
  189.1560  177.3680  139.3390 C   0  0  0  0  0  2  0  0  0  0  0  0
  189.6740  176.0470  141.2760 O   0  0  0  0  0  1  0  0  0  0  0  0
  189.7330  177.3400  140.7490 C   0  0  2  0  0  3  0  0  0  0  0  0
  187.1780  177.4520  143.8900 C   0  0  0  0  0  0  0  0  0  0  0  0
  189.5160  178.2850  143.1440 C   0  0  0  0  0  2  0  0  0  0  0  0
  187.0070  178.6270  140.4520 O   0  0  0  0  0  0  0  0  0  0  0  0
  186.4330  177.5170  144.9430 N   0  0  0  0  0  2  0  0  0  0  0  0
  188.8520  176.8400  144.0270 S   0  0  0  0  0  0  0  0  0  0  0  0
  187.5280  178.2960  141.5490 C   0  0  0  0  0  0  0  0  0  0  0  0
  189.0290  178.3300  141.6870 C   0  0  2  0  0  3  0  0  0  0  0  0
  186.6770  177.9220  142.6380 N   0  0  0  0  0  2  0  0  0  0  0  0
  1  6  1  0  0  0  0
  2  5  1  1  0  0  0
  2  3  1  0  0  0  0
  2 13  1  0  0  0  0
  3  7  2  0  0  0  0
  3 19  1  0  0  0  0
  4 11  1  0  0  0  0
  4 15  2  0  0  0  0
  5 16  2  0  0  0  0
  6 17  2  0  0  0  0
  7  4  1  0  0  0  0
  8 21  1  1  0  0  0
  9  1  1  0  0  0  0
 10 19  1  0  0  0  0
 12  8  1  0  0  0  0
 13 18  1  1  0  0  0
 13  8  1  0  0  0  0
 14  1  2  0  0  0  0
 14  5  1  0  0  0  0
 16 17  1  0  0  0  0
 16 12  1  0  0  0  0
 18 10  2  0  0  0  0
 19 20  2  0  0  0  0
 20 15  1  0  0  0  0
 21 23  1  0  0  0  0
 23 22  1  1  0  0  0
 24 28  1  0  0  0  0
 24 27  2  0  0  0  0
 25 28  1  0  0  0  0
 26 29  2  0  0  0  0
 29 30  1  0  0  0  0
 29 31  1  0  0  0  0
 30 23  1  6  0  0  0
 30 25  1  0  0  0  0
 31 24  1  0  0  0  0
M  END
>  <MODEL>
4

>  <REMARK>
 VINA RESULT:      -6.2      1.859      2.358
  Name = 
  3 active torsions:
  status: ('A' for Active; 'I' for Inactive)
    1  A    between atoms: C_5  and  C_16
    2  A    between atoms: C_5  and  C_30
    3  A    between atoms: C_10  and  C_16
                            x       y       z     vdW  Elec       q    Type
                         _______ _______ _______ _____ _____    ______ ____

>  <TORSDO>
F 3

$$$$
=
 OpenBabel11122411173D

 31 35  0  0  1  0  0  0  0  0999 V2000
  189.9810  177.8450  140.8140 C   0  0  0  0  0  0  0  0  0  0  0  0
  188.4850  177.9720  137.3150 C   0  0  2  0  0  3  0  0  0  0  0  0
  188.6310  176.5980  136.6880 C   0  0  0  0  0  0  0  0  0  0  0  0
  189.5300  174.3550  136.6330 C   0  0  0  0  0  0  0  0  0  0  0  0
  188.6030  177.9900  138.8220 C   0  0  0  0  0  0  0  0  0  0  0  0
  188.8560  178.0610  141.6140 C   0  0  0  0  0  3  0  0  0  0  0  0
  189.3650  175.5710  137.2960 C   0  0  0  0  0  3  0  0  0  0  0  0
  185.9630  178.2470  137.6680 C   0  0  1  0  0  3  0  0  0  0  0  0
  191.1950  177.6660  141.3890 F   0  0  0  0  0  0  0  0  0  0  0  0
  187.3640  177.4240  134.7400 N   0  0  0  0  0  0  0  0  0  0  0  0
  190.2610  173.3030  137.2520 N   0  0  0  0  0  1  0  0  0  0  0  0
  186.2160  178.4550  139.0560 O   0  0  0  0  0  0  0  0  0  0  0  0
  187.1910  178.6750  136.8400 C   0  0  2  0  0  3  0  0  0  0  0  0
  189.8560  177.8150  139.4230 C   0  0  0  0  0  3  0  0  0  0  0  0
  189.0040  174.1760  135.3920 N   0  0  0  0  0  0  0  0  0  0  0  0
  187.4710  178.2210  139.6320 C   0  0  0  0  0  0  0  0  0  0  0  0
  187.6040  178.2540  141.0230 C   0  0  0  0  0  3  0  0  0  0  0  0
  186.9650  178.4950  135.3600 C   0  0  0  0  0  3  0  0  0  0  0  0
  188.1020  176.3880  135.4010 C   0  0  0  0  0  0  0  0  0  0  0  0
  188.3030  175.1600  134.7670 C   0  0  0  0  0  3  0  0  0  0  0  0
  185.5860  176.7870  137.4300 C   0  0  0  0  0  2  0  0  0  0  0  0
  183.4480  177.8570  137.2150 O   0  0  0  0  0  1  0  0  0  0  0  0
  184.0950  176.6200  137.1640 C   0  0  2  0  0  3  0  0  0  0  0  0
  180.4540  175.4270  138.4780 C   0  0  0  0  0  0  0  0  0  0  0  0
  182.6500  174.4990  137.4620 C   0  0  0  0  0  2  0  0  0  0  0  0
  183.3020  177.0490  140.0560 O   0  0  0  0  0  0  0  0  0  0  0  0
  179.3080  174.9680  138.8550 N   0  0  0  0  0  2  0  0  0  0  0  0
  181.0480  175.0810  136.8280 S   0  0  0  0  0  0  0  0  0  0  0  0
  182.6740  176.3240  139.2410 C   0  0  0  0  0  0  0  0  0  0  0  0
  183.4360  175.6330  138.1380 C   0  0  2  0  0  3  0  0  0  0  0  0
  181.2600  176.1600  139.4010 N   0  0  0  0  0  2  0  0  0  0  0  0
  1  9  1  0  0  0  0
  1  6  1  0  0  0  0
  2  3  1  1  0  0  0
  2  5  1  0  0  0  0
  3  7  1  0  0  0  0
  4 11  1  0  0  0  0
  4  7  2  0  0  0  0
  5 14  1  0  0  0  0
  5 16  2  0  0  0  0
  8 21  1  1  0  0  0
  8 12  1  0  0  0  0
 10 18  2  0  0  0  0
 10 19  1  0  0  0  0
 12 16  1  0  0  0  0
 13 18  1  6  0  0  0
 13  2  1  0  0  0  0
 13  8  1  0  0  0  0
 14  1  2  0  0  0  0
 15  4  1  0  0  0  0
 16 17  1  0  0  0  0
 17  6  2  0  0  0  0
 19  3  2  0  0  0  0
 20 15  2  0  0  0  0
 20 19  1  0  0  0  0
 23 22  1  1  0  0  0
 23 21  1  0  0  0  0
 24 27  2  0  0  0  0
 24 31  1  0  0  0  0
 25 30  1  0  0  0  0
 28 25  1  0  0  0  0
 28 24  1  0  0  0  0
 29 31  1  0  0  0  0
 29 26  2  0  0  0  0
 30 23  1  6  0  0  0
 30 29  1  0  0  0  0
M  END
>  <MODEL>
5

>  <REMARK>
 VINA RESULT:      -6.1      4.142      6.150
  Name = 
  3 active torsions:
  status: ('A' for Active; 'I' for Inactive)
    1  A    between atoms: C_5  and  C_16
    2  A    between atoms: C_5  and  C_30
    3  A    between atoms: C_10  and  C_16
                            x       y       z     vdW  Elec       q    Type
                         _______ _______ _______ _____ _____    ______ ____

>  <TORSDO>
F 3

$$$$
=
 OpenBabel11122411173D

 31 35  0  0  1  0  0  0  0  0999 V2000
  182.5010  174.7730  136.8290 C   0  0  0  0  0  0  0  0  0  0  0  0
  181.6250  178.2580  138.0900 C   0  0  2  0  0  3  0  0  0  0  0  0
  180.7840  178.1100  139.3440 C   0  0  0  0  0  0  0  0  0  0  0  0
  179.4720  176.8050  140.9000 C   0  0  0  0  0  0  0  0  0  0  0  0
  182.4250  177.0290  137.7220 C   0  0  0  0  0  0  0  0  0  0  0  0
  183.8880  174.7510  136.9900 C   0  0  0  0  0  3  0  0  0  0  0  0
  180.3090  176.8670  139.7850 C   0  0  0  0  0  3  0  0  0  0  0  0
  183.8350  179.2510  138.9210 C   0  0  1  0  0  3  0  0  0  0  0  0
  181.8610  173.6910  136.3230 F   0  0  0  0  0  0  0  0  0  0  0  0
  180.8280  180.5640  139.5850 N   0  0  0  0  0  0  0  0  0  0  0  0
  178.9990  175.5450  141.3610 N   0  0  0  0  0  1  0  0  0  0  0  0
  184.5120  178.1320  138.3490 O   0  0  0  0  0  0  0  0  0  0  0  0
  182.5230  179.5170  138.1580 C   0  0  2  0  0  3  0  0  0  0  0  0
  181.7720  175.9100  137.1890 C   0  0  0  0  0  3  0  0  0  0  0  0
  179.0990  177.9450  141.5400 N   0  0  0  0  0  0  0  0  0  0  0  0
  183.8270  177.0080  137.8720 C   0  0  0  0  0  0  0  0  0  0  0  0
  184.5500  175.8690  137.5060 C   0  0  0  0  0  3  0  0  0  0  0  0
  181.7800  180.7070  138.7110 C   0  0  0  0  0  3  0  0  0  0  0  0
  180.3780  179.2740  140.0210 C   0  0  0  0  0  0  0  0  0  0  0  0
  179.5280  179.1670  141.1250 C   0  0  0  0  0  3  0  0  0  0  0  0
  183.6000  179.0000  140.4080 C   0  0  0  0  0  2  0  0  0  0  0  0
  185.9990  178.9030  140.3920 O   0  0  0  0  0  1  0  0  0  0  0  0
  184.8890  179.1090  141.2140 C   0  0  2  0  0  3  0  0  0  0  0  0
  185.2450  179.0480  145.2490 C   0  0  0  0  0  0  0  0  0  0  0  0
  183.7010  178.2310  143.3340 C   0  0  0  0  0  2  0  0  0  0  0  0
  187.2750  177.7700  142.5140 O   0  0  0  0  0  0  0  0  0  0  0  0
  185.2720  179.0020  146.5380 N   0  0  0  0  0  2  0  0  0  0  0  0
  183.8000  179.6900  144.4150 S   0  0  0  0  0  0  0  0  0  0  0  0
  186.2400  178.1410  143.1260 C   0  0  0  0  0  0  0  0  0  0  0  0
  184.9180  178.1350  142.4010 C   0  0  2  0  0  3  0  0  0  0  0  0
  186.3470  178.5340  144.4990 N   0  0  0  0  0  2  0  0  0  0  0  0
  1  6  2  0  0  0  0
  1 14  1  0  0  0  0
  2  5  1  1  0  0  0
  2 13  1  0  0  0  0
  2  3  1  0  0  0  0
  3  7  2  0  0  0  0
  3 19  1  0  0  0  0
  4 11  1  0  0  0  0
  4 15  2  0  0  0  0
  5 16  1  0  0  0  0
  6 17  1  0  0  0  0
  7  4  1  0  0  0  0
  8 21  1  1  0  0  0
  9  1  1  0  0  0  0
 10 19  1  0  0  0  0
 12  8  1  0  0  0  0
 13 18  1  1  0  0  0
 13  8  1  0  0  0  0
 14  5  2  0  0  0  0
 16 12  1  0  0  0  0
 17 16  2  0  0  0  0
 18 10  2  0  0  0  0
 19 20  2  0  0  0  0
 20 15  1  0  0  0  0
 21 23  1  0  0  0  0
 23 22  1  6  0  0  0
 24 27  2  0  0  0  0
 25 28  1  0  0  0  0
 26 29  2  0  0  0  0
 28 24  1  0  0  0  0
 29 31  1  0  0  0  0
 30 23  1  6  0  0  0
 30 29  1  0  0  0  0
 30 25  1  0  0  0  0
 31 24  1  0  0  0  0
M  END
>  <MODEL>
6

>  <REMARK>
 VINA RESULT:      -6.0      5.889      7.489
  Name = 
  3 active torsions:
  status: ('A' for Active; 'I' for Inactive)
    1  A    between atoms: C_5  and  C_16
    2  A    between atoms: C_5  and  C_30
    3  A    between atoms: C_10  and  C_16
                            x       y       z     vdW  Elec       q    Type
                         _______ _______ _______ _____ _____    ______ ____

>  <TORSDO>
F 3

$$$$
=
 OpenBabel11122411173D

 31 35  0  0  1  0  0  0  0  0999 V2000
  190.1080  172.6330  135.3030 C   0  0  0  0  0  0  0  0  0  0  0  0
  188.1340  175.8510  135.8020 C   0  0  2  0  0  3  0  0  0  0  0  0
  186.8200  175.5000  136.4750 C   0  0  0  0  0  0  0  0  0  0  0  0
  185.1550  173.9160  137.2250 C   0  0  0  0  0  0  0  0  0  0  0  0
  189.2090  174.7970  135.9370 C   0  0  0  0  0  0  0  0  0  0  0  0
  191.2100  172.8420  136.1350 C   0  0  0  0  0  3  0  0  0  0  0  0
  186.4110  174.1750  136.6740 C   0  0  0  0  0  3  0  0  0  0  0  0
  189.4260  177.1670  137.5790 C   0  0  1  0  0  3  0  0  0  0  0  0
  190.0040  171.4840  134.5940 F   0  0  0  0  0  0  0  0  0  0  0  0
  186.3130  177.9110  136.5960 N   0  0  0  0  0  0  0  0  0  0  0  0
  184.7400  172.5730  137.4440 N   0  0  0  0  0  1  0  0  0  0  0  0
  190.4790  176.2100  137.4720 O   0  0  0  0  0  0  0  0  0  0  0  0
  188.6450  177.2400  136.2520 C   0  0  2  0  0  3  0  0  0  0  0  0
  189.1130  173.6090  135.2000 C   0  0  0  0  0  3  0  0  0  0  0  0
  184.3230  174.9430  137.5420 N   0  0  0  0  0  0  0  0  0  0  0  0
  190.3290  175.0100  136.7670 C   0  0  0  0  0  0  0  0  0  0  0  0
  191.3220  174.0310  136.8620 C   0  0  0  0  0  3  0  0  0  0  0  0
  187.5330  178.2580  136.3070 C   0  0  0  0  0  3  0  0  0  0  0  0
  185.9360  176.5440  136.8060 C   0  0  0  0  0  0  0  0  0  0  0  0
  184.6830  176.2390  137.3420 C   0  0  0  0  0  3  0  0  0  0  0  0
  188.5280  176.8090  138.7610 C   0  0  0  0  0  2  0  0  0  0  0  0
  189.4890  178.8080  139.6790 O   0  0  0  0  0  1  0  0  0  0  0  0
  188.9030  177.5850  140.0160 C   0  0  2  0  0  3  0  0  0  0  0  0
  190.9260  177.9000  143.5120 C   0  0  0  0  0  0  0  0  0  0  0  0
  189.2100  176.3930  142.2880 C   0  0  0  0  0  2  0  0  0  0  0  0
  191.9310  177.4900  140.0410 O   0  0  0  0  0  0  0  0  0  0  0  0
  191.5130  177.9390  144.6610 N   0  0  0  0  0  2  0  0  0  0  0  0
  189.1420  177.8040  143.4320 S   0  0  0  0  0  0  0  0  0  0  0  0
  191.2030  177.4050  141.0640 C   0  0  0  0  0  0  0  0  0  0  0  0
  189.8340  176.7860  140.9400 C   0  0  2  0  0  3  0  0  0  0  0  0
  191.7080  177.8780  142.3180 N   0  0  0  0  0  2  0  0  0  0  0  0
  1  6  1  0  0  0  0
  2  5  1  1  0  0  0
  2 13  1  0  0  0  0
  2  3  1  0  0  0  0
  3  7  2  0  0  0  0
  3 19  1  0  0  0  0
  4 11  1  0  0  0  0
  4 15  2  0  0  0  0
  5 16  2  0  0  0  0
  6 17  2  0  0  0  0
  7  4  1  0  0  0  0
  8 21  1  1  0  0  0
  9  1  1  0  0  0  0
 10 19  1  0  0  0  0
 12  8  1  0  0  0  0
 13 18  1  1  0  0  0
 13  8  1  0  0  0  0
 14  1  2  0  0  0  0
 14  5  1  0  0  0  0
 16 17  1  0  0  0  0
 16 12  1  0  0  0  0
 18 10  2  0  0  0  0
 19 20  2  0  0  0  0
 20 15  1  0  0  0  0
 21 23  1  0  0  0  0
 23 22  1  6  0  0  0
 24 27  2  0  0  0  0
 25 28  1  0  0  0  0
 26 29  2  0  0  0  0
 28 24  1  0  0  0  0
 29 31  1  0  0  0  0
 30 23  1  1  0  0  0
 30 29  1  0  0  0  0
 30 25  1  0  0  0  0
 31 24  1  0  0  0  0
M  END
>  <MODEL>
7

>  <REMARK>
 VINA RESULT:      -5.9      2.000      2.513
  Name = 
  3 active torsions:
  status: ('A' for Active; 'I' for Inactive)
    1  A    between atoms: C_5  and  C_16
    2  A    between atoms: C_5  and  C_30
    3  A    between atoms: C_10  and  C_16
                            x       y       z     vdW  Elec       q    Type
                         _______ _______ _______ _____ _____    ______ ____

>  <TORSDO>
F 3

$$$$
=
 OpenBabel11122411173D

 31 35  0  0  1  0  0  0  0  0999 V2000
  190.4380  176.8600  139.2080 C   0  0  0  0  0  0  0  0  0  0  0  0
  187.8200  176.9150  136.4430 C   0  0  2  0  0  3  0  0  0  0  0  0
  187.3310  175.4950  136.2270 C   0  0  0  0  0  0  0  0  0  0  0  0
  187.4840  173.1050  136.5550 C   0  0  0  0  0  0  0  0  0  0  0  0
  188.5030  177.1480  137.7710 C   0  0  0  0  0  0  0  0  0  0  0  0
  189.8090  177.6020  140.2110 C   0  0  0  0  0  3  0  0  0  0  0  0
  187.9260  174.3940  136.8550 C   0  0  0  0  0  3  0  0  0  0  0  0
  185.8050  178.1370  137.4440 C   0  0  1  0  0  3  0  0  0  0  0  0
  191.6780  176.3570  139.4160 F   0  0  0  0  0  0  0  0  0  0  0  0
  185.6990  176.3740  134.6000 N   0  0  0  0  0  0  0  0  0  0  0  0
  188.0750  171.9830  137.2010 N   0  0  0  0  0  1  0  0  0  0  0  0
  186.6140  178.4760  138.5690 O   0  0  0  0  0  0  0  0  0  0  0  0
  186.6920  177.9450  136.1980 C   0  0  2  0  0  3  0  0  0  0  0  0
  189.7890  176.6380  137.9910 C   0  0  0  0  0  3  0  0  0  0  0  0
  186.4980  172.9170  135.6370 N   0  0  0  0  0  0  0  0  0  0  0  0
  187.8760  177.9070  138.7810 C   0  0  0  0  0  0  0  0  0  0  0  0
  188.5320  178.1290  139.9950 C   0  0  0  0  0  3  0  0  0  0  0  0
  185.8780  177.6070  134.9740 C   0  0  0  0  0  3  0  0  0  0  0  0
  186.3160  175.2720  135.2780 C   0  0  0  0  0  0  0  0  0  0  0  0
  185.9130  173.9650  134.9960 C   0  0  0  0  0  3  0  0  0  0  0  0
  184.9780  176.8940  137.7650 C   0  0  0  0  0  2  0  0  0  0  0  0
  183.3130  178.6150  137.9420 O   0  0  0  0  0  1  0  0  0  0  0  0
  183.5230  177.2380  138.0530 C   0  0  2  0  0  3  0  0  0  0  0  0
  180.6290  177.8110  140.8300 C   0  0  0  0  0  0  0  0  0  0  0  0
  181.7520  175.9470  139.4230 C   0  0  0  0  0  2  0  0  0  0  0  0
  184.2300  178.3220  140.7920 O   0  0  0  0  0  0  0  0  0  0  0  0
  179.6760  177.9110  141.6950 N   0  0  0  0  0  2  0  0  0  0  0  0
  180.3120  177.0430  139.2470 S   0  0  0  0  0  0  0  0  0  0  0  0
  183.1190  177.8170  140.4870 C   0  0  0  0  0  0  0  0  0  0  0  0
  183.0680  176.7400  139.4330 C   0  0  2  0  0  3  0  0  0  0  0  0
  181.9410  178.2650  141.1670 N   0  0  0  0  0  2  0  0  0  0  0  0
  1  9  1  0  0  0  0
  1  6  1  0  0  0  0
  2  3  1  1  0  0  0
  2  5  1  0  0  0  0
  3  7  1  0  0  0  0
  4  7  2  0  0  0  0
  4 11  1  0  0  0  0
  5 14  1  0  0  0  0
  5 16  2  0  0  0  0
  8 21  1  1  0  0  0
  8 12  1  0  0  0  0
 10 18  2  0  0  0  0
 10 19  1  0  0  0  0
 12 16  1  0  0  0  0
 13 18  1  6  0  0  0
 13  2  1  0  0  0  0
 13  8  1  0  0  0  0
 14  1  2  0  0  0  0
 15  4  1  0  0  0  0
 16 17  1  0  0  0  0
 17  6  2  0  0  0  0
 19  3  2  0  0  0  0
 20 19  1  0  0  0  0
 20 15  2  0  0  0  0
 21 23  1  0  0  0  0
 23 22  1  1  0  0  0
 24 31  1  0  0  0  0
 24 27  2  0  0  0  0
 25 30  1  0  0  0  0
 28 25  1  0  0  0  0
 28 24  1  0  0  0  0
 29 26  2  0  0  0  0
 29 31  1  0  0  0  0
 30 23  1  6  0  0  0
 30 29  1  0  0  0  0
M  END
>  <MODEL>
8

>  <REMARK>
 VINA RESULT:      -5.9      3.907      5.296
  Name = 
  3 active torsions:
  status: ('A' for Active; 'I' for Inactive)
    1  A    between atoms: C_5  and  C_16
    2  A    between atoms: C_5  and  C_30
    3  A    between atoms: C_10  and  C_16
                            x       y       z     vdW  Elec       q    Type
                         _______ _______ _______ _____ _____    ______ ____

>  <TORSDO>
F 3

$$$$
=
 OpenBabel11122411173D

 31 35  0  0  1  0  0  0  0  0999 V2000
  184.7400  178.9240  141.7890 C   0  0  0  0  0  0  0  0  0  0  0  0
  187.2950  178.6490  138.9780 C   0  0  2  0  0  3  0  0  0  0  0  0
  188.4670  177.8290  139.4840 C   0  0  0  0  0  0  0  0  0  0  0  0
  189.7260  176.7540  141.2450 C   0  0  0  0  0  0  0  0  0  0  0  0
  186.0210  178.4810  139.7760 C   0  0  0  0  0  0  0  0  0  0  0  0
  183.6560  178.2210  141.2590 C   0  0  0  0  0  3  0  0  0  0  0  0
  188.5850  177.4370  140.8240 C   0  0  0  0  0  3  0  0  0  0  0  0
  186.1940  177.1600  137.2090 C   0  0  1  0  0  3  0  0  0  0  0  0
  184.6500  179.4790  143.0220 F   0  0  0  0  0  0  0  0  0  0  0  0
  189.4460  177.9550  137.2240 N   0  0  0  0  0  0  0  0  0  0  0  0
  189.8450  176.3400  142.6010 N   0  0  0  0  0  1  0  0  0  0  0  0
  184.9760  177.2410  137.9490 O   0  0  0  0  0  0  0  0  0  0  0  0
  187.0510  178.4140  137.4680 C   0  0  2  0  0  3  0  0  0  0  0  0
  185.9170  179.0590  141.0480 C   0  0  0  0  0  3  0  0  0  0  0  0
  190.7300  176.4930  140.3660 N   0  0  0  0  0  0  0  0  0  0  0  0
  184.9200  177.7810  139.2390 C   0  0  0  0  0  0  0  0  0  0  0  0
  183.7450  177.6550  139.9850 C   0  0  0  0  0  3  0  0  0  0  0  0
  188.3420  178.3870  136.6890 C   0  0  0  0  0  3  0  0  0  0  0  0
  189.5230  177.5510  138.5970 C   0  0  0  0  0  0  0  0  0  0  0  0
  190.6540  176.8770  139.0640 C   0  0  0  0  0  3  0  0  0  0  0  0
  186.9270  175.8720  137.5720 C   0  0  0  0  0  2  0  0  0  0  0  0
  185.7500  175.1740  135.5990 O   0  0  0  0  0  1  0  0  0  0  0  0
  186.7230  174.7860  136.5230 C   0  0  2  0  0  3  0  0  0  0  0  0
  184.8810  171.2880  135.6400 C   0  0  0  0  0  0  0  0  0  0  0  0
  187.1110  172.2310  136.5640 C   0  0  0  0  0  2  0  0  0  0  0  0
  184.1810  173.9930  137.9680 O   0  0  0  0  0  0  0  0  0  0  0  0
  184.3750  170.1330  135.3630 N   0  0  0  0  0  2  0  0  0  0  0  0
  186.4560  171.7560  134.9350 S   0  0  0  0  0  0  0  0  0  0  0  0
  184.8630  173.2230  137.2430 C   0  0  0  0  0  0  0  0  0  0  0  0
  186.3530  173.4330  137.1490 C   0  0  2  0  0  3  0  0  0  0  0  0
  184.2050  172.1570  136.5490 N   0  0  0  0  0  2  0  0  0  0  0  0
  1  9  1  0  0  0  0
  2  3  1  1  0  0  0
  2  5  1  0  0  0  0
  3  7  1  0  0  0  0
  4 11  1  0  0  0  0
  5 14  1  0  0  0  0
  6  1  1  0  0  0  0
  7  4  2  0  0  0  0
  8 13  1  0  0  0  0
  8 21  1  1  0  0  0
  8 12  1  0  0  0  0
 10 19  1  0  0  0  0
 12 16  1  0  0  0  0
 13 18  1  6  0  0  0
 13  2  1  0  0  0  0
 14  1  2  0  0  0  0
 15  4  1  0  0  0  0
 16  5  2  0  0  0  0
 16 17  1  0  0  0  0
 17  6  2  0  0  0  0
 18 10  2  0  0  0  0
 19 20  1  0  0  0  0
 19  3  2  0  0  0  0
 20 15  2  0  0  0  0
 23 22  1  6  0  0  0
 23 21  1  0  0  0  0
 24 31  1  0  0  0  0
 25 30  1  0  0  0  0
 27 24  2  0  0  0  0
 28 24  1  0  0  0  0
 28 25  1  0  0  0  0
 29 26  2  0  0  0  0
 30 23  1  6  0  0  0
 30 29  1  0  0  0  0
 31 29  1  0  0  0  0
M  END
>  <MODEL>
9

>  <REMARK>
 VINA RESULT:      -5.9      4.407      7.826
  Name = 
  3 active torsions:
  status: ('A' for Active; 'I' for Inactive)
    1  A    between atoms: C_5  and  C_16
    2  A    between atoms: C_5  and  C_30
    3  A    between atoms: C_10  and  C_16
                            x       y       z     vdW  Elec       q    Type
                         _______ _______ _______ _____ _____    ______ ____

>  <TORSDO>
F 3

$$$$
