=
 OpenBabel11122412293D

 34 40  0  0  1  0  0  0  0  0999 V2000
  189.6120  177.5810  140.1720 N   0  0  1  0  0  0  0  0  0  0  0  0
  191.4610  176.6130  138.7680 C   0  0  0  0  0  2  0  0  0  0  0  0
  183.2040  178.5580  141.0180 C   0  0  1  0  0  3  0  0  0  0  0  0
  187.6620  178.2730  141.5140 C   0  0  2  0  0  3  0  0  0  0  0  0
  185.6590  179.0350  140.2170 C   0  0  2  0  0  3  0  0  0  0  0  0
  183.6210  179.6100  138.7660 C   0  0  0  0  0  1  0  0  0  0  0  0
  183.4020  177.1790  140.8540 O   0  0  0  0  0  1  0  0  0  0  0  0
  184.2490  178.3650  143.0880 C   0  0  0  0  0  2  0  0  0  0  0  0
  189.5520  177.5590  137.7570 C   0  0  2  0  0  3  0  0  0  0  0  0
  188.3140  176.3500  135.0560 C   0  0  0  0  0  2  0  0  0  0  0  0
  186.0650  178.2360  139.0580 N   0  0  0  0  0  2  0  0  0  0  0  0
  185.5930  179.0020  142.7650 C   0  0  0  0  0  2  0  0  0  0  0  0
  188.0240  177.6060  137.6920 C   0  0  1  0  0  3  0  0  0  0  0  0
  191.5730  176.3200  137.2720 C   0  0  0  0  0  2  0  0  0  0  0  0
  186.1350  178.3410  141.5080 C   0  0  2  0  0  3  0  0  0  0  0  0
  183.1970  178.9720  142.3730 O   0  0  0  0  0  0  0  0  0  0  0  0
  189.5120  175.8100  135.8660 C   0  0  1  0  0  3  0  0  0  0  0  0
  188.1370  177.5960  140.2180 C   0  0  1  0  0  3  0  0  0  0  0  0
  184.1580  179.4080  140.1730 C   0  0  1  0  0  3  0  0  0  0  0  0
  187.5260  178.2890  138.9760 C   0  0  2  0  0  3  0  0  0  0  0  0
  189.5220  177.5780  142.6190 C   0  0  0  0  0  2  0  0  0  0  0  0
  188.1300  177.8690  135.1290 C   0  0  0  0  0  2  0  0  0  0  0  0
  188.1130  177.5180  142.6160 O   0  0  0  0  0  0  0  0  0  0  0  0
  187.5090  178.3430  136.4500 C   0  0  0  0  0  2  0  0  0  0  0  0
  190.3160  176.8960  136.6160 C   0  0  1  0  0  3  0  0  0  0  0  0
  190.0810  176.8810  141.3720 C   0  0  0  0  0  2  0  0  0  0  0  0
  189.9750  176.8010  138.9880 C   0  0  2  0  0  3  0  0  0  0  0  0
  189.0710  174.8110  136.7400 O   0  0  0  0  0  0  0  0  0  0  0  0
  187.8850  174.3310  136.1800 C   0  0  0  0  0  2  0  0  0  0  0  0
  184.5090  174.2330  137.2780 C   0  0  0  0  0  2  0  0  0  0  0  0
  186.3320  172.7030  137.2180 C   0  0  0  0  0  2  0  0  0  0  0  0
  186.8510  174.1190  137.2700 C   0  0  2  0  0  3  0  0  0  0  0  0
  184.9080  172.8300  137.6750 C   0  0  0  0  0  2  0  0  0  0  0  0
  185.7210  175.0210  137.0810 N   0  0  0  0  0  2  0  0  0  0  0  0
  1 18  1  0  0  0  0
  1 26  1  1  0  0  0
  2 27  1  0  0  0  0
  3  7  1  1  0  0  0
  3 16  1  0  0  0  0
  4 23  1  1  0  0  0
  5 11  1  6  0  0  0
  5 15  1  0  0  0  0
  6 19  1  0  0  0  0
  9 27  1  0  0  0  0
 10 22  1  0  0  0  0
 10 17  1  0  0  0  0
 12  8  1  0  0  0  0
 13  9  1  0  0  0  0
 13 20  1  0  0  0  0
 14  2  1  0  0  0  0
 15  4  1  0  0  0  0
 15 12  1  0  0  0  0
 16  8  1  0  0  0  0
 17 25  1  0  0  0  0
 17 28  1  0  0  0  0
 18  4  1  0  0  0  0
 19  5  1  0  0  0  0
 19  3  1  0  0  0  0
 20 11  1  0  0  0  0
 20 18  1  0  0  0  0
 22 24  1  0  0  0  0
 23 21  1  0  0  0  0
 24 13  1  0  0  0  0
 25 14  1  0  0  0  0
 25  9  1  0  0  0  0
 26 21  1  0  0  0  0
 27  1  1  0  0  0  0
 29 28  1  0  0  0  0
 29 32  1  0  0  0  0
 30 33  1  0  0  0  0
 31 32  1  0  0  0  0
 31 33  1  0  0  0  0
 34 32  1  0  0  0  0
 34 30  1  0  0  0  0
M  END
>  <MODEL>
1

>  <REMARK>
 VINA RESULT:      -7.6      0.000      0.000
  Name = 
  3 active torsions:
  status: ('A' for Active; 'I' for Inactive)
    1  A    between atoms: C_17  and  O_28
    2  A    between atoms: O_28  and  C_29
    3  A    between atoms: C_29  and  C_32
                            x       y       z     vdW  Elec       q    Type
                         _______ _______ _______ _____ _____    ______ ____

>  <TORSDO>
F 3

$$$$
=
 OpenBabel11122412293D

 34 40  0  0  1  0  0  0  0  0999 V2000
  189.5210  177.7900  140.8350 N   0  0  1  0  0  0  0  0  0  0  0  0
  191.5440  176.8800  139.6500 C   0  0  0  0  0  2  0  0  0  0  0  0
  183.0250  178.5060  140.9900 C   0  0  1  0  0  3  0  0  0  0  0  0
  187.4150  178.4190  141.9520 C   0  0  2  0  0  3  0  0  0  0  0  0
  185.5290  179.0750  140.4390 C   0  0  2  0  0  3  0  0  0  0  0  0
  183.6320  179.5400  138.7730 C   0  0  0  0  0  1  0  0  0  0  0  0
  183.2950  177.1340  140.8750 O   0  0  0  0  0  1  0  0  0  0  0  0
  183.8540  178.3900  143.1610 C   0  0  0  0  0  2  0  0  0  0  0  0
  189.7160  177.7280  138.4280 C   0  0  2  0  0  3  0  0  0  0  0  0
  188.8180  176.4260  135.6370 C   0  0  0  0  0  2  0  0  0  0  0  0
  186.0870  178.2760  139.3450 N   0  0  0  0  0  2  0  0  0  0  0  0
  185.1980  179.0780  142.9670 C   0  0  0  0  0  2  0  0  0  0  0  0
  188.2020  177.7090  138.2030 C   0  0  1  0  0  3  0  0  0  0  0  0
  191.8250  176.5690  138.1810 C   0  0  0  0  0  2  0  0  0  0  0  0
  185.8950  178.4220  141.7870 C   0  0  2  0  0  3  0  0  0  0  0  0
  182.8590  178.9400  142.3280 O   0  0  0  0  0  0  0  0  0  0  0  0
  189.9450  175.9510  136.5780 C   0  0  1  0  0  3  0  0  0  0  0  0
  188.0500  177.7430  140.7270 C   0  0  1  0  0  3  0  0  0  0  0  0
  184.0270  179.3830  140.2320 C   0  0  1  0  0  3  0  0  0  0  0  0
  187.5440  178.3900  139.4150 C   0  0  2  0  0  3  0  0  0  0  0  0
  189.1750  177.8210  143.2590 C   0  0  0  0  0  2  0  0  0  0  0  0
  188.5650  177.9370  135.6600 C   0  0  0  0  0  2  0  0  0  0  0  0
  187.7780  177.7010  143.1110 O   0  0  0  0  0  0  0  0  0  0  0  0
  187.7900  178.4040  136.9000 C   0  0  0  0  0  2  0  0  0  0  0  0
  190.6210  177.0810  137.3850 C   0  0  1  0  0  3  0  0  0  0  0  0
  189.8900  177.1300  142.0900 C   0  0  0  0  0  2  0  0  0  0  0  0
  190.0380  177.0080  139.7110 C   0  0  2  0  0  3  0  0  0  0  0  0
  189.4560  174.9460  137.4210 O   0  0  0  0  0  0  0  0  0  0  0  0
  188.4780  174.2850  136.6750 C   0  0  0  0  0  2  0  0  0  0  0  0
  187.7220  170.9710  135.6440 C   0  0  0  0  0  2  0  0  0  0  0  0
  189.3300  172.6230  135.0480 C   0  0  0  0  0  2  0  0  0  0  0  0
  188.8790  172.8360  136.4710 C   0  0  2  0  0  3  0  0  0  0  0  0
  188.9200  171.2090  134.7530 C   0  0  0  0  0  2  0  0  0  0  0  0
  187.7450  171.9550  136.7220 N   0  0  0  0  0  2  0  0  0  0  0  0
  1 26  1  1  0  0  0
  2 27  1  0  0  0  0
  3  7  1  1  0  0  0
  3 16  1  0  0  0  0
  4 23  1  1  0  0  0
  5 11  1  6  0  0  0
  5 15  1  0  0  0  0
  6 19  1  0  0  0  0
  9 27  1  0  0  0  0
 10 22  1  0  0  0  0
 10 17  1  0  0  0  0
 11 20  1  0  0  0  0
 12  8  1  0  0  0  0
 13  9  1  0  0  0  0
 13 20  1  0  0  0  0
 14  2  1  0  0  0  0
 15  4  1  0  0  0  0
 15 12  1  0  0  0  0
 16  8  1  0  0  0  0
 17 25  1  0  0  0  0
 17 28  1  0  0  0  0
 18  1  1  0  0  0  0
 18  4  1  0  0  0  0
 19  5  1  0  0  0  0
 19  3  1  0  0  0  0
 20 18  1  0  0  0  0
 22 24  1  0  0  0  0
 23 21  1  0  0  0  0
 24 13  1  0  0  0  0
 25 14  1  0  0  0  0
 25  9  1  0  0  0  0
 26 21  1  0  0  0  0
 27  1  1  0  0  0  0
 29 28  1  0  0  0  0
 30 34  1  0  0  0  0
 31 32  1  0  0  0  0
 32 29  1  0  0  0  0
 32 34  1  0  0  0  0
 33 31  1  0  0  0  0
 33 30  1  0  0  0  0
M  END
>  <MODEL>
2

>  <REMARK>
 VINA RESULT:      -7.2      1.392      1.676
  Name = 
  3 active torsions:
  status: ('A' for Active; 'I' for Inactive)
    1  A    between atoms: C_17  and  O_28
    2  A    between atoms: O_28  and  C_29
    3  A    between atoms: C_29  and  C_32
                            x       y       z     vdW  Elec       q    Type
                         _______ _______ _______ _____ _____    ______ ____

>  <TORSDO>
F 3

$$$$
=
 OpenBabel11122412293D

 34 40  0  0  1  0  0  0  0  0999 V2000
  190.9260  177.1260  138.0030 N   0  0  1  0  0  0  0  0  0  0  0  0
  190.9090  176.4060  135.5930 C   0  0  0  0  0  2  0  0  0  0  0  0
  187.8120  177.4000  143.7440 C   0  0  1  0  0  3  0  0  0  0  0  0
  190.8420  177.5630  140.4280 C   0  0  2  0  0  3  0  0  0  0  0  0
  188.5910  178.1580  141.3540 C   0  0  2  0  0  3  0  0  0  0  0  0
  186.2010  178.5680  142.1970 C   0  0  0  0  0  1  0  0  0  0  0  0
  187.8420  176.0560  143.3450 O   0  0  0  0  0  1  0  0  0  0  0  0
  190.1060  177.2450  144.1020 C   0  0  0  0  0  2  0  0  0  0  0  0
  188.9390  177.1820  136.6300 C   0  0  2  0  0  3  0  0  0  0  0  0
  186.0680  175.9460  135.9100 C   0  0  0  0  0  2  0  0  0  0  0  0
  187.9200  177.4470  140.2630 N   0  0  0  0  0  2  0  0  0  0  0  0
  190.6130  178.0290  142.9000 C   0  0  0  0  0  2  0  0  0  0  0  0
  187.9870  177.0720  137.8230 C   0  0  1  0  0  3  0  0  0  0  0  0
  189.7760  176.1780  134.5940 C   0  0  0  0  0  2  0  0  0  0  0  0
  189.9380  177.4720  141.6580 C   0  0  2  0  0  3  0  0  0  0  0  0
  188.8900  177.7630  144.5900 O   0  0  0  0  0  0  0  0  0  0  0  0
  187.4440  175.5060  135.3680 C   0  0  1  0  0  3  0  0  0  0  0  0
  190.0960  176.9860  139.2150 C   0  0  1  0  0  3  0  0  0  0  0  0
  187.6620  178.3740  142.5710 C   0  0  1  0  0  3  0  0  0  0  0  0
  188.7100  177.6540  139.0490 C   0  0  2  0  0  3  0  0  0  0  0  0
  192.8510  177.0280  139.5130 C   0  0  0  0  0  2  0  0  0  0  0  0
  185.9680  177.4340  136.2600 C   0  0  0  0  0  2  0  0  0  0  0  0
  192.0240  176.8220  140.6350 O   0  0  0  0  0  0  0  0  0  0  0  0
  186.6550  177.7940  137.5830 C   0  0  0  0  0  2  0  0  0  0  0  0
  188.4870  176.6430  135.2770 C   0  0  1  0  0  3  0  0  0  0  0  0
  192.1940  176.4370  138.2580 C   0  0  0  0  0  2  0  0  0  0  0  0
  190.2080  176.4300  136.9340 C   0  0  2  0  0  3  0  0  0  0  0  0
  187.9250  174.4360  136.1300 O   0  0  0  0  0  0  0  0  0  0  0  0
  187.5870  173.2900  135.4070 C   0  0  0  0  0  2  0  0  0  0  0  0
  185.1280  172.8510  137.9320 C   0  0  0  0  0  2  0  0  0  0  0  0
  185.3260  172.3020  135.6240 C   0  0  0  0  0  2  0  0  0  0  0  0
  186.6960  172.3950  136.2480 C   0  0  2  0  0  3  0  0  0  0  0  0
  184.4080  172.1510  136.8020 C   0  0  0  0  0  2  0  0  0  0  0  0
  186.5440  172.9460  137.5900 N   0  0  0  0  0  2  0  0  0  0  0  0
  1 26  1  1  0  0  0
  1 18  1  0  0  0  0
  2 27  1  0  0  0  0
  3  7  1  6  0  0  0
  3 16  1  0  0  0  0
  4 23  1  1  0  0  0
  4 15  1  0  0  0  0
  5 11  1  6  0  0  0
  5 15  1  0  0  0  0
  5 19  1  0  0  0  0
  6 19  1  0  0  0  0
  8 16  1  0  0  0  0
  9 27  1  0  0  0  0
  9 13  1  0  0  0  0
 10 22  1  0  0  0  0
 12  8  1  0  0  0  0
 13 20  1  0  0  0  0
 14 25  1  0  0  0  0
 14  2  1  0  0  0  0
 15 12  1  0  0  0  0
 17 10  1  0  0  0  0
 17 28  1  0  0  0  0
 18  4  1  0  0  0  0
 19  3  1  0  0  0  0
 20 18  1  0  0  0  0
 20 11  1  0  0  0  0
 21 23  1  0  0  0  0
 22 24  1  0  0  0  0
 24 13  1  0  0  0  0
 25 17  1  0  0  0  0
 25  9  1  0  0  0  0
 26 21  1  0  0  0  0
 27  1  1  0  0  0  0
 29 28  1  0  0  0  0
 29 32  1  0  0  0  0
 31 32  1  0  0  0  0
 31 33  1  0  0  0  0
 32 34  1  0  0  0  0
 33 30  1  0  0  0  0
 34 30  1  0  0  0  0
M  END
>  <MODEL>
3

>  <REMARK>
 VINA RESULT:      -7.1      2.077      3.350
  Name = 
  3 active torsions:
  status: ('A' for Active; 'I' for Inactive)
    1  A    between atoms: C_17  and  O_28
    2  A    between atoms: O_28  and  C_29
    3  A    between atoms: C_29  and  C_32
                            x       y       z     vdW  Elec       q    Type
                         _______ _______ _______ _____ _____    ______ ____

>  <TORSDO>
F 3

$$$$
=
 OpenBabel11122412293D

 34 40  0  0  1  0  0  0  0  0999 V2000
  189.9330  177.8380  139.6990 N   0  0  1  0  0  0  0  0  0  0  0  0
  189.9710  177.4240  137.2190 C   0  0  0  0  0  2  0  0  0  0  0  0
  186.6720  177.4410  145.3510 C   0  0  1  0  0  3  0  0  0  0  0  0
  189.7900  177.9710  142.1570 C   0  0  2  0  0  3  0  0  0  0  0  0
  187.5230  178.4800  143.0940 C   0  0  2  0  0  3  0  0  0  0  0  0
  185.1160  178.8180  143.9230 C   0  0  0  0  0  1  0  0  0  0  0  0
  186.6960  176.1570  144.7870 O   0  0  0  0  0  1  0  0  0  0  0  0
  188.9530  177.2080  145.7430 C   0  0  0  0  0  2  0  0  0  0  0  0
  187.9840  178.0950  138.2950 C   0  0  2  0  0  3  0  0  0  0  0  0
  185.1180  177.0030  137.3560 C   0  0  0  0  0  2  0  0  0  0  0  0
  186.8720  177.9200  141.9070 N   0  0  0  0  0  2  0  0  0  0  0  0
  189.5020  178.1280  144.6620 C   0  0  0  0  0  2  0  0  0  0  0  0
  186.9990  177.8520  139.4420 C   0  0  1  0  0  3  0  0  0  0  0  0
  188.8620  177.3400  136.1710 C   0  0  0  0  0  2  0  0  0  0  0  0
  188.8530  177.7410  143.3440 C   0  0  2  0  0  3  0  0  0  0  0  0
  187.7310  177.6790  146.2620 O   0  0  0  0  0  0  0  0  0  0  0  0
  186.5030  176.6130  136.7970 C   0  0  1  0  0  3  0  0  0  0  0  0
  189.0690  177.5600  140.8640 C   0  0  1  0  0  3  0  0  0  0  0  0
  186.5640  178.5560  144.3060 C   0  0  1  0  0  3  0  0  0  0  0  0
  187.6960  178.2650  140.7480 C   0  0  2  0  0  3  0  0  0  0  0  0
  191.8160  177.5230  141.2320 C   0  0  0  0  0  2  0  0  0  0  0  0
  185.0270  178.4370  137.8860 C   0  0  0  0  0  2  0  0  0  0  0  0
  190.9570  177.1910  142.2990 O   0  0  0  0  0  0  0  0  0  0  0  0
  185.6830  178.6190  139.2610 C   0  0  0  0  0  2  0  0  0  0  0  0
  187.5610  177.7360  136.8750 C   0  0  1  0  0  3  0  0  0  0  0  0
  191.1860  177.1030  139.8980 C   0  0  0  0  0  2  0  0  0  0  0  0
  189.2350  177.2920  138.5350 C   0  0  2  0  0  3  0  0  0  0  0  0
  186.9500  175.4490  137.4310 O   0  0  0  0  0  0  0  0  0  0  0  0
  186.3920  174.3970  136.7020 C   0  0  0  0  0  2  0  0  0  0  0  0
  189.2530  174.0080  134.6330 C   0  0  0  0  0  2  0  0  0  0  0  0
  188.7520  173.6790  136.9370 C   0  0  0  0  0  2  0  0  0  0  0  0
  187.4960  173.5380  136.1130 C   0  0  2  0  0  3  0  0  0  0  0  0
  189.8550  173.5230  135.9320 C   0  0  0  0  0  2  0  0  0  0  0  0
  187.7980  173.9620  134.7520 N   0  0  0  0  0  2  0  0  0  0  0  0
  1 26  1  1  0  0  0
  1 18  1  0  0  0  0
  2 27  1  0  0  0  0
  3  7  1  6  0  0  0
  3 16  1  0  0  0  0
  4 23  1  1  0  0  0
  4 15  1  0  0  0  0
  5 11  1  6  0  0  0
  5 15  1  0  0  0  0
  5 19  1  0  0  0  0
  6 19  1  0  0  0  0
  8 16  1  0  0  0  0
  9 27  1  0  0  0  0
  9 13  1  0  0  0  0
 10 22  1  0  0  0  0
 12  8  1  0  0  0  0
 13 20  1  0  0  0  0
 14 25  1  0  0  0  0
 14  2  1  0  0  0  0
 15 12  1  0  0  0  0
 17 25  1  0  0  0  0
 17 10  1  0  0  0  0
 17 28  1  0  0  0  0
 18  4  1  0  0  0  0
 19  3  1  0  0  0  0
 20 18  1  0  0  0  0
 20 11  1  0  0  0  0
 21 23  1  0  0  0  0
 22 24  1  0  0  0  0
 24 13  1  0  0  0  0
 25  9  1  0  0  0  0
 26 21  1  0  0  0  0
 27  1  1  0  0  0  0
 29 28  1  0  0  0  0
 30 34  1  0  0  0  0
 30 33  1  0  0  0  0
 32 29  1  0  0  0  0
 32 31  1  0  0  0  0
 33 31  1  0  0  0  0
 34 32  1  0  0  0  0
M  END
>  <MODEL>
4

>  <REMARK>
 VINA RESULT:      -6.9      2.073      3.568
  Name = 
  3 active torsions:
  status: ('A' for Active; 'I' for Inactive)
    1  A    between atoms: C_17  and  O_28
    2  A    between atoms: O_28  and  C_29
    3  A    between atoms: C_29  and  C_32
                            x       y       z     vdW  Elec       q    Type
                         _______ _______ _______ _____ _____    ______ ____

>  <TORSDO>
F 3

$$$$
=
 OpenBabel11122412293D

 34 40  0  0  1  0  0  0  0  0999 V2000
  190.0770  177.4550  137.5060 N   0  0  1  0  0  0  0  0  0  0  0  0
  189.1780  177.3190  135.1610 C   0  0  0  0  0  2  0  0  0  0  0  0
  189.0710  176.5690  143.9040 C   0  0  1  0  0  3  0  0  0  0  0  0
  190.8470  177.3200  139.8440 C   0  0  2  0  0  3  0  0  0  0  0  0
  189.1230  177.8160  141.5940 C   0  0  2  0  0  3  0  0  0  0  0  0
  187.2170  178.1590  143.2790 C   0  0  0  0  0  1  0  0  0  0  0  0
  188.7860  175.3560  143.2610 O   0  0  0  0  0  1  0  0  0  0  0  0
  191.3130  176.1990  143.4030 C   0  0  0  0  0  2  0  0  0  0  0  0
  187.7780  177.9480  136.9500 C   0  0  2  0  0  3  0  0  0  0  0  0
  184.6890  177.0870  137.0440 C   0  0  0  0  0  2  0  0  0  0  0  0
  188.0430  177.4190  140.6870 N   0  0  0  0  0  2  0  0  0  0  0  0
  191.5020  177.2110  142.2810 C   0  0  0  0  0  2  0  0  0  0  0  0
  187.2610  177.6190  138.3530 C   0  0  1  0  0  3  0  0  0  0  0  0
  187.7610  177.3980  134.5940 C   0  0  0  0  0  2  0  0  0  0  0  0
  190.3900  176.9990  141.2680 C   0  0  2  0  0  3  0  0  0  0  0  0
  190.4040  176.6610  144.3760 O   0  0  0  0  0  0  0  0  0  0  0  0
  185.7410  176.7040  135.9810 C   0  0  1  0  0  3  0  0  0  0  0  0
  189.6760  177.0860  138.8780 C   0  0  1  0  0  3  0  0  0  0  0  0
  188.6800  177.7970  143.0750 C   0  0  1  0  0  3  0  0  0  0  0  0
  188.4150  177.8560  139.3400 C   0  0  2  0  0  3  0  0  0  0  0  0
  192.3570  176.8940  138.2000 C   0  0  0  0  0  2  0  0  0  0  0  0
  184.9110  178.4550  137.6950 C   0  0  0  0  0  2  0  0  0  0  0  0
  191.9200  176.4820  139.4760 O   0  0  0  0  0  0  0  0  0  0  0  0
  186.0340  178.4550  138.7400 C   0  0  0  0  0  2  0  0  0  0  0  0
  186.8410  177.7660  135.7610 C   0  0  1  0  0  3  0  0  0  0  0  0
  191.2530  176.6520  137.1620 C   0  0  0  0  0  2  0  0  0  0  0  0
  188.9620  177.0710  136.6390 C   0  0  2  0  0  3  0  0  0  0  0  0
  186.2940  175.4590  136.3000 O   0  0  0  0  0  0  0  0  0  0  0  0
  185.3060  174.7940  137.0300 C   0  0  0  0  0  2  0  0  0  0  0  0
  183.6110  171.6730  136.9760 C   0  0  0  0  0  2  0  0  0  0  0  0
  184.2180  173.3170  135.3650 C   0  0  0  0  0  2  0  0  0  0  0  0
  185.1720  173.3670  136.5330 C   0  0  2  0  0  3  0  0  0  0  0  0
  183.5670  171.9720  135.4950 C   0  0  0  0  0  2  0  0  0  0  0  0
  184.6400  172.5100  137.5860 N   0  0  0  0  0  2  0  0  0  0  0  0
  1 26  1  6  0  0  0
  1 18  1  0  0  0  0
  2 27  1  0  0  0  0
  3  7  1  6  0  0  0
  3 16  1  0  0  0  0
  4 23  1  6  0  0  0
  4 15  1  0  0  0  0
  5 11  1  6  0  0  0
  5 19  1  0  0  0  0
  8 16  1  0  0  0  0
  9 13  1  0  0  0  0
 10 22  1  0  0  0  0
 12  8  1  0  0  0  0
 13 24  1  0  0  0  0
 13 20  1  0  0  0  0
 14  2  1  0  0  0  0
 14 25  1  0  0  0  0
 15  5  1  0  0  0  0
 15 12  1  0  0  0  0
 17 28  1  0  0  0  0
 17 10  1  0  0  0  0
 18 20  1  0  0  0  0
 18  4  1  0  0  0  0
 19  6  1  0  0  0  0
 19  3  1  0  0  0  0
 20 11  1  0  0  0  0
 21 23  1  0  0  0  0
 22 24  1  0  0  0  0
 25 17  1  0  0  0  0
 25  9  1  0  0  0  0
 26 21  1  0  0  0  0
 27  9  1  0  0  0  0
 27  1  1  0  0  0  0
 28 29  1  0  0  0  0
 30 34  1  0  0  0  0
 31 33  1  0  0  0  0
 31 32  1  0  0  0  0
 32 29  1  0  0  0  0
 32 34  1  0  0  0  0
 33 30  1  0  0  0  0
M  END
>  <MODEL>
5

>  <REMARK>
 VINA RESULT:      -6.9      2.321      4.279
  Name = 
  3 active torsions:
  status: ('A' for Active; 'I' for Inactive)
    1  A    between atoms: C_17  and  O_28
    2  A    between atoms: O_28  and  C_29
    3  A    between atoms: C_29  and  C_32
                            x       y       z     vdW  Elec       q    Type
                         _______ _______ _______ _____ _____    ______ ____

>  <TORSDO>
F 3

$$$$
=
 OpenBabel11122412293D

 34 40  0  0  1  0  0  0  0  0999 V2000
  189.9370  177.8330  139.4800 N   0  0  1  0  0  0  0  0  0  0  0  0
  189.9200  177.4370  136.9970 C   0  0  0  0  0  2  0  0  0  0  0  0
  186.7970  177.4050  145.1990 C   0  0  1  0  0  3  0  0  0  0  0  0
  189.8470  177.9490  141.9420 C   0  0  2  0  0  3  0  0  0  0  0  0
  187.6020  178.4570  142.9310 C   0  0  2  0  0  3  0  0  0  0  0  0
  185.2150  178.7950  143.8130 C   0  0  0  0  0  1  0  0  0  0  0  0
  186.8060  176.1250  144.6250 O   0  0  0  0  0  1  0  0  0  0  0  0
  189.0860  177.1630  145.5400 C   0  0  0  0  0  2  0  0  0  0  0  0
  187.9590  178.1050  138.1210 C   0  0  2  0  0  3  0  0  0  0  0  0
  185.0700  177.0270  137.2350 C   0  0  0  0  0  2  0  0  0  0  0  0
  186.9240  177.9080  141.7540 N   0  0  0  0  0  2  0  0  0  0  0  0
  189.6130  178.0900  144.4530 C   0  0  0  0  0  2  0  0  0  0  0  0
  186.9980  177.8560  139.2860 C   0  0  1  0  0  3  0  0  0  0  0  0
  188.7880  177.3630  135.9730 C   0  0  0  0  0  2  0  0  0  0  0  0
  188.9350  177.7130  143.1460 C   0  0  2  0  0  3  0  0  0  0  0  0
  187.8760  177.6340  146.0870 O   0  0  0  0  0  0  0  0  0  0  0  0
  186.4410  176.6380  136.6440 C   0  0  1  0  0  3  0  0  0  0  0  0
  189.0970  177.5500  140.6610 C   0  0  1  0  0  3  0  0  0  0  0  0
  186.6700  178.5270  144.1630 C   0  0  1  0  0  3  0  0  0  0  0  0
  187.7240  178.2590  140.5800 C   0  0  2  0  0  3  0  0  0  0  0  0
  191.8520  177.5030  140.9700 C   0  0  0  0  0  2  0  0  0  0  0  0
  184.9940  178.4580  137.7780 C   0  0  0  0  0  2  0  0  0  0  0  0
  191.0140  177.1660  142.0530 O   0  0  0  0  0  0  0  0  0  0  0  0
  185.6810  178.6280  139.1400 C   0  0  0  0  0  2  0  0  0  0  0  0
  187.5040  177.7570  136.7070 C   0  0  1  0  0  3  0  0  0  0  0  0
  191.1910  177.0940  139.6470 C   0  0  0  0  0  2  0  0  0  0  0  0
  189.2120  177.2970  138.3270 C   0  0  2  0  0  3  0  0  0  0  0  0
  186.8990  175.4680  137.2610 O   0  0  0  0  0  0  0  0  0  0  0  0
  185.8190  174.5840  137.2180 C   0  0  0  0  0  2  0  0  0  0  0  0
  186.5630  171.5550  135.5190 C   0  0  0  0  0  2  0  0  0  0  0  0
  187.7820  173.1240  136.8300 C   0  0  0  0  0  2  0  0  0  0  0  0
  186.3250  173.1530  137.2180 C   0  0  2  0  0  3  0  0  0  0  0  0
  187.9310  171.8180  136.1070 C   0  0  0  0  0  2  0  0  0  0  0  0
  185.5840  172.3520  136.2520 N   0  0  0  0  0  2  0  0  0  0  0  0
  1 26  1  1  0  0  0
  1 18  1  0  0  0  0
  2 27  1  0  0  0  0
  3  7  1  6  0  0  0
  3 16  1  0  0  0  0
  4 23  1  1  0  0  0
  4 15  1  0  0  0  0
  5 11  1  6  0  0  0
  5 15  1  0  0  0  0
  5 19  1  0  0  0  0
  6 19  1  0  0  0  0
  8 16  1  0  0  0  0
  9 27  1  0  0  0  0
  9 13  1  0  0  0  0
 10 22  1  0  0  0  0
 12  8  1  0  0  0  0
 13 20  1  0  0  0  0
 14 25  1  0  0  0  0
 14  2  1  0  0  0  0
 15 12  1  0  0  0  0
 17 25  1  0  0  0  0
 17 10  1  0  0  0  0
 17 28  1  0  0  0  0
 18  4  1  0  0  0  0
 19  3  1  0  0  0  0
 20 18  1  0  0  0  0
 20 11  1  0  0  0  0
 21 23  1  0  0  0  0
 22 24  1  0  0  0  0
 24 13  1  0  0  0  0
 25  9  1  0  0  0  0
 26 21  1  0  0  0  0
 27  1  1  0  0  0  0
 29 28  1  0  0  0  0
 30 33  1  0  0  0  0
 30 34  1  0  0  0  0
 31 32  1  0  0  0  0
 32 29  1  0  0  0  0
 33 31  1  0  0  0  0
 34 32  1  0  0  0  0
M  END
>  <MODEL>
6

>  <REMARK>
 VINA RESULT:      -6.8      1.992      3.416
  Name = 
  3 active torsions:
  status: ('A' for Active; 'I' for Inactive)
    1  A    between atoms: C_17  and  O_28
    2  A    between atoms: O_28  and  C_29
    3  A    between atoms: C_29  and  C_32
                            x       y       z     vdW  Elec       q    Type
                         _______ _______ _______ _____ _____    ______ ____

>  <TORSDO>
F 3

$$$$
=
 OpenBabel11122412293D

 34 40  0  0  1  0  0  0  0  0999 V2000
  185.8640  178.7310  140.0010 N   0  0  1  0  0  0  0  0  0  0  0  0
  184.2810  178.6690  138.0480 C   0  0  0  0  0  2  0  0  0  0  0  0
  187.0110  177.2850  146.2730 C   0  0  1  0  0  3  0  0  0  0  0  0
  187.3440  178.5100  141.9610 C   0  0  2  0  0  3  0  0  0  0  0  0
  186.2310  178.6930  144.1980 C   0  0  2  0  0  3  0  0  0  0  0  0
  184.9370  178.7110  146.4150 C   0  0  0  0  0  1  0  0  0  0  0  0
  186.6330  176.0980  145.6290 O   0  0  0  0  0  1  0  0  0  0  0  0
  189.0000  177.1920  145.0690 C   0  0  0  0  0  2  0  0  0  0  0  0
  183.4760  179.0160  140.2360 C   0  0  2  0  0  3  0  0  0  0  0  0
  180.6530  177.8280  141.1920 C   0  0  0  0  0  2  0  0  0  0  0  0
  184.9530  178.2510  143.6340 N   0  0  0  0  0  2  0  0  0  0  0  0
  188.7440  178.2950  144.0520 C   0  0  0  0  0  2  0  0  0  0  0  0
  183.4580  178.5350  141.6890 C   0  0  1  0  0  3  0  0  0  0  0  0
  182.7560  178.6380  137.9570 C   0  0  0  0  0  2  0  0  0  0  0  0
  187.3880  178.0410  143.4150 C   0  0  2  0  0  3  0  0  0  0  0  0
  188.4130  177.4830  146.3160 O   0  0  0  0  0  0  0  0  0  0  0  0
  181.3400  177.6360  139.8230 C   0  0  1  0  0  3  0  0  0  0  0  0
  185.9480  178.2240  141.3850 C   0  0  1  0  0  3  0  0  0  0  0  0
  186.2830  178.5210  145.7340 C   0  0  1  0  0  3  0  0  0  0  0  0
  184.8440  178.8210  142.2900 C   0  0  2  0  0  3  0  0  0  0  0  0
  188.2820  178.3660  139.8970 C   0  0  0  0  0  2  0  0  0  0  0  0
  180.9630  179.1630  141.8770 C   0  0  0  0  0  2  0  0  0  0  0  0
  188.3060  177.8190  141.1960 O   0  0  0  0  0  0  0  0  0  0  0  0
  182.3570  179.2060  142.5190 C   0  0  0  0  0  2  0  0  0  0  0  0
  182.2270  178.8220  139.3820 C   0  0  1  0  0  3  0  0  0  0  0  0
  186.9290  178.0840  139.2310 C   0  0  0  0  0  2  0  0  0  0  0  0
  184.5650  178.2940  139.4870 C   0  0  2  0  0  3  0  0  0  0  0  0
  182.0610  176.4370  139.8270 O   0  0  0  0  0  0  0  0  0  0  0  0
  181.1840  175.4800  139.3120 C   0  0  0  0  0  2  0  0  0  0  0  0
  182.4300  175.6670  135.9910 C   0  0  0  0  0  2  0  0  0  0  0  0
  183.2950  175.0030  138.1070 C   0  0  0  0  0  2  0  0  0  0  0  0
  181.7970  174.8270  138.0870 C   0  0  2  0  0  3  0  0  0  0  0  0
  183.6620  175.0940  136.6550 C   0  0  0  0  0  2  0  0  0  0  0  0
  181.2860  175.4470  136.8710 N   0  0  0  0  0  2  0  0  0  0  0  0
  1 26  1  6  0  0  0
  1 18  1  0  0  0  0
  2 27  1  0  0  0  0
  3  7  1  6  0  0  0
  3 16  1  0  0  0  0
  4 23  1  6  0  0  0
  4 15  1  0  0  0  0
  5 11  1  6  0  0  0
  5 19  1  0  0  0  0
  8 16  1  0  0  0  0
  9 13  1  0  0  0  0
 10 22  1  0  0  0  0
 12  8  1  0  0  0  0
 13 20  1  0  0  0  0
 13 24  1  0  0  0  0
 14  2  1  0  0  0  0
 14 25  1  0  0  0  0
 15 12  1  0  0  0  0
 15  5  1  0  0  0  0
 17 28  1  0  0  0  0
 17 10  1  0  0  0  0
 18  4  1  0  0  0  0
 18 20  1  0  0  0  0
 19  3  1  0  0  0  0
 19  6  1  0  0  0  0
 20 11  1  0  0  0  0
 21 23  1  0  0  0  0
 22 24  1  0  0  0  0
 25 17  1  0  0  0  0
 25  9  1  0  0  0  0
 26 21  1  0  0  0  0
 27  1  1  0  0  0  0
 27  9  1  0  0  0  0
 29 28  1  0  0  0  0
 30 33  1  0  0  0  0
 30 34  1  0  0  0  0
 32 31  1  0  0  0  0
 32 29  1  0  0  0  0
 33 31  1  0  0  0  0
 34 32  1  0  0  0  0
M  END
>  <MODEL>
7

>  <REMARK>
 VINA RESULT:      -6.6      2.971      6.053
  Name = 
  3 active torsions:
  status: ('A' for Active; 'I' for Inactive)
    1  A    between atoms: C_17  and  O_28
    2  A    between atoms: O_28  and  C_29
    3  A    between atoms: C_29  and  C_32
                            x       y       z     vdW  Elec       q    Type
                         _______ _______ _______ _____ _____    ______ ____

>  <TORSDO>
F 3

$$$$
=
 OpenBabel11122412293D

 34 40  0  0  1  0  0  0  0  0999 V2000
  184.0080  179.2070  139.6060 N   0  0  1  0  0  0  0  0  0  0  0  0
  181.6600  179.3770  138.7200 C   0  0  0  0  0  2  0  0  0  0  0  0
  188.0890  176.7840  144.1010 C   0  0  1  0  0  3  0  0  0  0  0  0
  186.2610  178.7510  140.4960 C   0  0  2  0  0  3  0  0  0  0  0  0
  186.4190  178.4730  142.9820 C   0  0  2  0  0  3  0  0  0  0  0  0
  186.4050  178.0240  145.5090 C   0  0  0  0  0  1  0  0  0  0  0  0
  187.4050  175.7020  143.5260 O   0  0  0  0  0  1  0  0  0  0  0  0
  189.2080  177.0300  142.0760 C   0  0  0  0  0  2  0  0  0  0  0  0
  182.0650  179.2890  141.0400 C   0  0  2  0  0  3  0  0  0  0  0  0
  180.0630  177.7710  143.0340 C   0  0  0  0  0  2  0  0  0  0  0  0
  185.0180  178.0510  143.0550 N   0  0  0  0  0  2  0  0  0  0  0  0
  188.5110  178.2730  141.5400 C   0  0  0  0  0  2  0  0  0  0  0  0
  182.7610  178.5650  142.1960 C   0  0  1  0  0  3  0  0  0  0  0  0
  180.2930  179.2620  139.3930 C   0  0  0  0  0  2  0  0  0  0  0  0
  187.0120  178.0430  141.6250 C   0  0  2  0  0  3  0  0  0  0  0  0
  189.3310  177.0630  143.4790 O   0  0  0  0  0  0  0  0  0  0  0  0
  179.9690  177.8630  141.4960 C   0  0  1  0  0  3  0  0  0  0  0  0
  184.7570  178.4760  140.6470 C   0  0  1  0  0  3  0  0  0  0  0  0
  187.2260  178.0430  144.2290 C   0  0  1  0  0  3  0  0  0  0  0  0
  184.2690  178.8340  142.0710 C   0  0  2  0  0  3  0  0  0  0  0  0
  186.0400  179.0260  138.2520 C   0  0  0  0  0  2  0  0  0  0  0  0
  180.7120  178.9850  143.7060 C   0  0  0  0  0  2  0  0  0  0  0  0
  186.6930  178.2660  139.2440 O   0  0  0  0  0  0  0  0  0  0  0  0
  182.2400  179.0100  143.5680 C   0  0  0  0  0  2  0  0  0  0  0  0
  180.5520  179.1630  140.8990 C   0  0  1  0  0  3  0  0  0  0  0  0
  184.5270  178.7730  138.3060 C   0  0  0  0  0  2  0  0  0  0  0  0
  182.6130  178.7810  139.7330 C   0  0  2  0  0  3  0  0  0  0  0  0
  180.5610  176.7310  140.9250 O   0  0  0  0  0  0  0  0  0  0  0  0
  179.5110  175.8340  140.7180 C   0  0  0  0  0  2  0  0  0  0  0  0
  181.2510  174.6400  137.8610 C   0  0  0  0  0  2  0  0  0  0  0  0
  179.4860  173.8430  139.2440 C   0  0  0  0  0  2  0  0  0  0  0  0
  179.5240  175.3500  139.2800 C   0  0  2  0  0  3  0  0  0  0  0  0
  180.2760  173.4960  138.0170 C   0  0  0  0  0  2  0  0  0  0  0  0
  180.7420  175.7870  138.6080 N   0  0  0  0  0  2  0  0  0  0  0  0
  1 26  1  6  0  0  0
  1 27  1  0  0  0  0
  1 18  1  0  0  0  0
  2 14  1  0  0  0  0
  2 27  1  0  0  0  0
  3  7  1  6  0  0  0
  3 19  1  0  0  0  0
  4 23  1  6  0  0  0
  4 18  1  0  0  0  0
  4 15  1  0  0  0  0
  5 11  1  1  0  0  0
  5 19  1  0  0  0  0
  8 16  1  0  0  0  0
  9 13  1  0  0  0  0
 10 22  1  0  0  0  0
 12 15  1  0  0  0  0
 12  8  1  0  0  0  0
 13 24  1  0  0  0  0
 14 25  1  0  0  0  0
 15  5  1  0  0  0  0
 16  3  1  0  0  0  0
 17 10  1  0  0  0  0
 18 20  1  0  0  0  0
 19  6  1  0  0  0  0
 20 13  1  0  0  0  0
 20 11  1  0  0  0  0
 21 26  1  0  0  0  0
 21 23  1  0  0  0  0
 24 22  1  0  0  0  0
 25  9  1  0  0  0  0
 25 17  1  0  0  0  0
 27  9  1  0  0  0  0
 28 17  1  0  0  0  0
 29 28  1  0  0  0  0
 30 33  1  0  0  0  0
 30 34  1  0  0  0  0
 31 32  1  0  0  0  0
 32 29  1  0  0  0  0
 33 31  1  0  0  0  0
 34 32  1  0  0  0  0
M  END
>  <MODEL>
8

>  <REMARK>
 VINA RESULT:      -6.5      3.491      7.241
  Name = 
  3 active torsions:
  status: ('A' for Active; 'I' for Inactive)
    1  A    between atoms: C_17  and  O_28
    2  A    between atoms: O_28  and  C_29
    3  A    between atoms: C_29  and  C_32
                            x       y       z     vdW  Elec       q    Type
                         _______ _______ _______ _____ _____    ______ ____

>  <TORSDO>
F 3

$$$$
=
 OpenBabel11122412293D

 34 40  0  0  1  0  0  0  0  0999 V2000
  189.7470  175.1450  136.7410 N   0  0  1  0  0  0  0  0  0  0  0  0
  188.3650  176.7750  138.0670 C   0  0  0  0  0  2  0  0  0  0  0  0
  194.9840  171.2420  136.4560 C   0  0  1  0  0  3  0  0  0  0  0  0
  191.1060  173.3800  135.6840 C   0  0  2  0  0  3  0  0  0  0  0  0
  193.5580  173.4320  136.1990 C   0  0  2  0  0  3  0  0  0  0  0  0
  196.0090  173.4890  136.9600 C   0  0  0  0  0  1  0  0  0  0  0  0
  194.2480  170.8780  137.5930 O   0  0  0  0  0  1  0  0  0  0  0  0
  193.2630  170.3420  135.1730 C   0  0  0  0  0  2  0  0  0  0  0  0
  190.7150  176.7640  138.2500 C   0  0  2  0  0  3  0  0  0  0  0  0
  192.1820  177.3830  141.0350 C   0  0  0  0  0  2  0  0  0  0  0  0
  193.3090  174.1240  137.4660 N   0  0  0  0  0  2  0  0  0  0  0  0
  192.6130  171.6240  134.6710 C   0  0  0  0  0  2  0  0  0  0  0  0
  191.9810  175.9370  138.4900 C   0  0  1  0  0  3  0  0  0  0  0  0
  188.7150  177.7450  139.1950 C   0  0  0  0  0  2  0  0  0  0  0  0
  192.3580  172.5210  135.8700 C   0  0  2  0  0  3  0  0  0  0  0  0
  194.6600  170.4820  135.3050 O   0  0  0  0  0  0  0  0  0  0  0  0
  190.6640  177.2920  140.7710 C   0  0  1  0  0  3  0  0  0  0  0  0
  190.9130  174.2590  136.9290 C   0  0  1  0  0  3  0  0  0  0  0  0
  194.9440  172.7460  136.1690 C   0  0  1  0  0  3  0  0  0  0  0  0
  192.2000  175.0550  137.2500 C   0  0  2  0  0  3  0  0  0  0  0  0
  188.8750  173.4050  135.2560 C   0  0  0  0  0  2  0  0  0  0  0  0
  193.0070  177.8780  139.8430 C   0  0  0  0  0  2  0  0  0  0  0  0
  189.9710  172.5590  135.5210 O   0  0  0  0  0  0  0  0  0  0  0  0
  193.2120  176.8090  138.7620 C   0  0  0  0  0  2  0  0  0  0  0  0
  190.2390  177.7110  139.3460 C   0  0  1  0  0  3  0  0  0  0  0  0
  188.5860  174.2910  136.4740 C   0  0  0  0  0  2  0  0  0  0  0  0
  189.5520  175.8370  138.0160 C   0  0  2  0  0  3  0  0  0  0  0  0
  190.2140  176.0030  141.0770 O   0  0  0  0  0  0  0  0  0  0  0  0
  190.1810  175.9470  142.4720 C   0  0  0  0  0  2  0  0  0  0  0  0
  187.4570  176.9410  144.5230 C   0  0  0  0  0  2  0  0  0  0  0  0
  189.7540  177.5320  144.3280 C   0  0  0  0  0  2  0  0  0  0  0  0
  189.2430  177.0140  143.0060 C   0  0  2  0  0  3  0  0  0  0  0  0
  188.5040  177.8780  145.0820 C   0  0  0  0  0  2  0  0  0  0  0  0
  187.9130  176.4600  143.2230 N   0  0  0  0  0  2  0  0  0  0  0  0
  1 26  1  1  0  0  0
  1 18  1  0  0  0  0
  1 27  1  0  0  0  0
  2 14  1  0  0  0  0
  3  7  1  1  0  0  0
  4 23  1  1  0  0  0
  4 15  1  0  0  0  0
  4 18  1  0  0  0  0
  5 11  1  1  0  0  0
  8 16  1  0  0  0  0
  9 13  1  0  0  0  0
  9 25  1  0  0  0  0
 12  8  1  0  0  0  0
 12 15  1  0  0  0  0
 13 24  1  0  0  0  0
 14 25  1  0  0  0  0
 15  5  1  0  0  0  0
 16  3  1  0  0  0  0
 17 10  1  0  0  0  0
 17 28  1  0  0  0  0
 18 20  1  0  0  0  0
 19  5  1  0  0  0  0
 19  3  1  0  0  0  0
 19  6  1  0  0  0  0
 20 11  1  0  0  0  0
 20 13  1  0  0  0  0
 21 23  1  0  0  0  0
 21 26  1  0  0  0  0
 22 10  1  0  0  0  0
 24 22  1  0  0  0  0
 25 17  1  0  0  0  0
 27  2  1  0  0  0  0
 27  9  1  0  0  0  0
 28 29  1  0  0  0  0
 29 32  1  0  0  0  0
 30 33  1  0  0  0  0
 31 33  1  0  0  0  0
 32 34  1  0  0  0  0
 32 31  1  0  0  0  0
 34 30  1  0  0  0  0
M  END
>  <MODEL>
9

>  <REMARK>
 VINA RESULT:      -6.4      3.548      8.802
  Name = 
  3 active torsions:
  status: ('A' for Active; 'I' for Inactive)
    1  A    between atoms: C_17  and  O_28
    2  A    between atoms: O_28  and  C_29
    3  A    between atoms: C_29  and  C_32
                            x       y       z     vdW  Elec       q    Type
                         _______ _______ _______ _____ _____    ______ ____

>  <TORSDO>
F 3

$$$$
