=
 OpenBabel11122411283D

 37 42  0  0  1  0  0  0  0  0999 V2000
  186.4300  177.5490  137.2630 C   0  0  0  0  0  0  0  0  0  0  0  0
  188.7720  178.1760  140.6660 C   0  0  0  0  0  0  0  0  0  0  0  0
  189.4630  175.6040  141.9970 C   0  0  0  0  0  1  0  0  0  0  0  0
  186.6150  178.4190  139.6590 C   0  0  0  0  0  0  0  0  0  0  0  0
  190.0640  177.4790  140.3790 C   0  0  1  0  0  3  0  0  0  0  0  0
  187.9390  178.0200  139.6110 C   0  0  0  0  0  0  0  0  0  0  0  0
  190.5270  176.6050  141.5490 C   0  0  1  0  0  3  0  0  0  0  0  0
  186.1550  179.0020  140.8040 N   0  0  0  0  0  0  0  0  0  0  0  0
  188.4860  177.2260  138.5900 N   0  0  0  0  0  0  0  0  0  0  0  0
  186.9220  178.7540  136.4800 C   0  0  0  0  0  1  0  0  0  0  0  0
  189.1250  178.6820  143.1170 C   0  0  0  0  0  2  0  0  0  0  0  0
  186.9690  179.1700  141.8950 C   0  0  0  0  0  3  0  0  0  0  0  0
  187.6210  176.6190  137.5830 C   0  0  0  0  0  2  0  0  0  0  0  0
  188.3120  178.7480  141.8570 C   0  0  0  0  0  0  0  0  0  0  0  0
  189.7730  176.7050  139.0560 C   0  0  1  0  0  3  0  0  0  0  0  0
  185.6900  178.0260  138.5370 C   0  0  0  0  0  2  0  0  0  0  0  0
  191.0570  177.4880  142.7050 C   0  0  1  0  0  3  0  0  0  0  0  0
  185.4490  176.7900  136.3950 C   0  0  0  0  0  1  0  0  0  0  0  0
  190.5020  178.7860  142.8420 O   0  0  0  0  0  0  0  0  0  0  0  0
  192.3020  176.7850  138.4400 C   0  0  0  0  0  2  0  0  0  0  0  0
  193.0490  175.7960  137.6690 N   0  0  0  0  0  0  0  0  0  0  0  0
  191.5800  174.0600  136.8630 C   0  0  0  0  0  0  0  0  0  0  0  0
  192.4960  174.4840  137.9680 C   0  0  0  0  0  2  0  0  0  0  0  0
  190.3580  174.8510  136.4880 C   0  0  1  0  0  3  0  0  0  0  0  0
  189.2300  174.3930  137.1680 O   0  0  0  0  0  1  0  0  0  0  0  0
  190.4990  176.3760  136.5840 C   0  0  0  0  0  2  0  0  0  0  0  0
  191.8130  173.0180  136.2730 O   0  0  0  0  0  0  0  0  0  0  0  0
  190.8410  176.9300  137.9770 C   0  0  1  0  0  3  0  0  0  0  0  0
  194.9240  174.3800  138.2840 C   0  0  0  0  0  1  0  0  0  0  0  0
  194.4080  175.8010  138.1820 C   0  0  0  0  0  2  0  0  0  0  0  0
  191.1850  177.4240  145.2320 C   0  0  0  0  0  3  0  0  0  0  0  0
  191.4120  176.8060  143.9940 C   0  0  0  0  0  0  0  0  0  0  0  0
  191.9550  175.5170  143.9540 C   0  0  0  0  0  3  0  0  0  0  0  0
  192.8050  173.6060  145.0960 F   0  0  0  0  0  0  0  0  0  0  0  0
  192.0550  175.4740  146.3730 C   0  0  0  0  0  3  0  0  0  0  0  0
  192.2780  174.8530  145.1410 C   0  0  0  0  0  0  0  0  0  0  0  0
  191.5080  176.7600  146.4180 C   0  0  0  0  0  3  0  0  0  0  0  0
  1 13  1  0  0  0  0
  1 16  1  0  0  0  0
  2 14  1  0  0  0  0
  4  8  2  0  0  0  0
  5  2  1  1  0  0  0
  5  7  1  0  0  0  0
  6  4  1  0  0  0  0
  6  2  2  0  0  0  0
  7  3  1  1  0  0  0
  7 17  1  0  0  0  0
  8 12  1  0  0  0  0
  9  6  1  0  0  0  0
 10  1  1  0  0  0  0
 13  9  1  0  0  0  0
 14 12  2  0  0  0  0
 14 11  1  0  0  0  0
 15  9  1  6  0  0  0
 15  5  1  0  0  0  0
 16  4  1  0  0  0  0
 17 19  1  0  0  0  0
 17 32  1  1  0  0  0
 18  1  1  0  0  0  0
 19 11  1  0  0  0  0
 21 23  1  0  0  0  0
 21 30  1  0  0  0  0
 21 20  1  0  0  0  0
 22 23  1  0  0  0  0
 24 26  1  0  0  0  0
 24 22  1  0  0  0  0
 24 25  1  1  0  0  0
 27 22  2  0  0  0  0
 28 26  1  6  0  0  0
 28 20  1  0  0  0  0
 28 15  1  0  0  0  0
 30 29  1  0  0  0  0
 31 37  1  0  0  0  0
 32 31  2  0  0  0  0
 33 32  1  0  0  0  0
 33 36  2  0  0  0  0
 34 36  1  0  0  0  0
 35 37  2  0  0  0  0
 36 35  1  0  0  0  0
M  END
>  <MODEL>
1

>  <REMARK>
 VINA RESULT:      -5.5      0.000      0.000
  Name = 
  3 active torsions:
  status: ('A' for Active; 'I' for Inactive)
    1  A    between atoms: N_4  and  C_37
    2  A    between atoms: C_21  and  C_27
    3  A    between atoms: C_23  and  C_30
                            x       y       z     vdW  Elec       q    Type
                         _______ _______ _______ _____ _____    ______ ____

>  <TORSDO>
F 3

$$$$
=
 OpenBabel11122411283D

 37 42  0  0  1  0  0  0  0  0999 V2000
  180.1380  172.0650  135.7040 C   0  0  0  0  0  0  0  0  0  0  0  0
  184.0690  173.0810  136.6910 C   0  0  0  0  0  0  0  0  0  0  0  0
  185.0320  175.3890  135.0760 C   0  0  0  0  0  1  0  0  0  0  0  0
  182.6240  171.4710  135.6690 C   0  0  0  0  0  0  0  0  0  0  0  0
  183.9870  174.4800  137.2140 C   0  0  1  0  0  3  0  0  0  0  0  0
  182.8310  172.6660  136.3360 C   0  0  0  0  0  0  0  0  0  0  0  0
  185.0540  175.3940  136.6040 C   0  0  1  0  0  3  0  0  0  0  0  0
  183.7080  170.6920  135.3830 N   0  0  0  0  0  0  0  0  0  0  0  0
  181.8490  173.6540  136.5070 N   0  0  0  0  0  0  0  0  0  0  0  0
  179.7370  171.5430  137.0740 C   0  0  0  0  0  1  0  0  0  0  0  0
  186.5820  172.8660  136.5160 C   0  0  0  0  0  2  0  0  0  0  0  0
  184.9780  171.0840  135.7210 C   0  0  0  0  0  3  0  0  0  0  0  0
  180.5660  173.5450  135.8200 C   0  0  0  0  0  2  0  0  0  0  0  0
  185.1950  172.3090  136.3830 C   0  0  0  0  0  0  0  0  0  0  0  0
  182.5130  174.8940  136.9110 C   0  0  1  0  0  3  0  0  0  0  0  0
  181.2560  171.1690  135.1160 C   0  0  0  0  0  2  0  0  0  0  0  0
  186.4470  175.0680  137.1950 C   0  0  1  0  0  3  0  0  0  0  0  0
  178.9310  171.9840  134.7950 C   0  0  0  0  0  1  0  0  0  0  0  0
  186.6790  173.7350  137.6200 O   0  0  0  0  0  0  0  0  0  0  0  0
  182.7010  176.0040  139.2590 C   0  0  0  0  0  2  0  0  0  0  0  0
  182.4660  177.4080  139.5870 N   0  0  0  0  0  0  0  0  0  0  0  0
  181.7090  178.6200  137.6450 C   0  0  0  0  0  0  0  0  0  0  0  0
  182.8990  178.2110  138.4540 C   0  0  0  0  0  2  0  0  0  0  0  0
  180.7930  177.6150  137.0020 C   0  0  1  0  0  3  0  0  0  0  0  0
  181.1870  177.3360  135.6940 O   0  0  0  0  0  1  0  0  0  0  0  0
  180.5460  176.3330  137.8070 C   0  0  0  0  0  2  0  0  0  0  0  0
  181.4970  179.8090  137.4690 O   0  0  0  0  0  0  0  0  0  0  0  0
  181.7920  175.4920  138.1270 C   0  0  1  0  0  3  0  0  0  0  0  0
  184.4280  178.6940  140.2200 C   0  0  0  0  0  1  0  0  0  0  0  0
  183.3520  177.7360  140.6910 C   0  0  0  0  0  2  0  0  0  0  0  0
  188.4420  175.1360  135.6400 C   0  0  0  0  0  3  0  0  0  0  0  0
  187.6340  175.7650  136.5980 C   0  0  0  0  0  0  0  0  0  0  0  0
  187.9210  177.0770  136.9900 C   0  0  0  0  0  3  0  0  0  0  0  0
  189.2850  179.0240  136.8200 F   0  0  0  0  0  0  0  0  0  0  0  0
  189.8170  177.1230  135.4850 C   0  0  0  0  0  3  0  0  0  0  0  0
  189.0110  177.7540  136.4360 C   0  0  0  0  0  0  0  0  0  0  0  0
  189.5320  175.8130  135.0860 C   0  0  0  0  0  3  0  0  0  0  0  0
  1 13  1  0  0  0  0
  1 10  1  0  0  0  0
  4  6  1  0  0  0  0
  5  2  1  6  0  0  0
  6  9  1  0  0  0  0
  6  2  2  0  0  0  0
  7  3  1  6  0  0  0
  7 17  1  0  0  0  0
  7  5  1  0  0  0  0
  8  4  2  0  0  0  0
  8 12  1  0  0  0  0
 11 19  1  0  0  0  0
 12 14  2  0  0  0  0
 13  9  1  0  0  0  0
 14 11  1  0  0  0  0
 14  2  1  0  0  0  0
 15  9  1  1  0  0  0
 15  5  1  0  0  0  0
 15 28  1  0  0  0  0
 16  4  1  0  0  0  0
 16  1  1  0  0  0  0
 17 32  1  6  0  0  0
 17 19  1  0  0  0  0
 18  1  1  0  0  0  0
 20 21  1  0  0  0  0
 21 30  1  0  0  0  0
 22 23  1  0  0  0  0
 23 21  1  0  0  0  0
 24 25  1  6  0  0  0
 24 22  1  0  0  0  0
 24 26  1  0  0  0  0
 27 22  2  0  0  0  0
 28 26  1  6  0  0  0
 28 20  1  0  0  0  0
 29 30  1  0  0  0  0
 31 32  1  0  0  0  0
 32 33  2  0  0  0  0
 35 36  2  0  0  0  0
 36 34  1  0  0  0  0
 36 33  1  0  0  0  0
 37 35  1  0  0  0  0
 37 31  2  0  0  0  0
M  END
>  <MODEL>
2

>  <REMARK>
 VINA RESULT:      -5.3      5.764      9.471
  Name = 
  3 active torsions:
  status: ('A' for Active; 'I' for Inactive)
    1  A    between atoms: N_4  and  C_37
    2  A    between atoms: C_21  and  C_27
    3  A    between atoms: C_23  and  C_30
                            x       y       z     vdW  Elec       q    Type
                         _______ _______ _______ _____ _____    ______ ____

>  <TORSDO>
F 3

$$$$
=
 OpenBabel11122411283D

 37 42  0  0  1  0  0  0  0  0999 V2000
  188.1260  178.0550  137.6660 C   0  0  0  0  0  0  0  0  0  0  0  0
  184.8190  176.0610  136.0720 C   0  0  0  0  0  0  0  0  0  0  0  0
  183.5230  174.3110  138.1020 C   0  0  0  0  0  1  0  0  0  0  0  0
  187.2010  176.2800  136.0760 C   0  0  0  0  0  0  0  0  0  0  0  0
  183.6530  176.5410  136.8770 C   0  0  1  0  0  3  0  0  0  0  0  0
  185.9470  176.6540  136.5250 C   0  0  0  0  0  0  0  0  0  0  0  0
  182.7540  175.3920  137.3440 C   0  0  1  0  0  3  0  0  0  0  0  0
  187.2850  175.2940  135.1360 N   0  0  0  0  0  0  0  0  0  0  0  0
  185.7220  177.4940  137.6280 N   0  0  0  0  0  0  0  0  0  0  0  0
  188.0230  179.2990  136.8000 C   0  0  0  0  0  1  0  0  0  0  0  0
  183.6900  174.1810  134.8160 C   0  0  0  0  0  2  0  0  0  0  0  0
  186.1630  174.6660  134.6590 C   0  0  0  0  0  3  0  0  0  0  0  0
  186.8310  177.8910  138.4910 C   0  0  0  0  0  2  0  0  0  0  0  0
  184.8860  175.0310  135.1270 C   0  0  0  0  0  0  0  0  0  0  0  0
  184.3190  177.3630  138.0240 C   0  0  1  0  0  3  0  0  0  0  0  0
  188.4210  176.8250  136.7720 C   0  0  0  0  0  2  0  0  0  0  0  0
  181.9300  174.8350  136.1580 C   0  0  1  0  0  3  0  0  0  0  0  0
  189.2840  178.2410  138.6230 C   0  0  0  0  0  1  0  0  0  0  0  0
  182.5010  174.9330  134.8640 O   0  0  0  0  0  0  0  0  0  0  0  0
  182.2920  178.9460  137.6190 C   0  0  0  0  0  2  0  0  0  0  0  0
  181.3200  179.3980  138.6110 N   0  0  0  0  0  0  0  0  0  0  0  0
  181.9080  178.5920  140.8070 C   0  0  0  0  0  0  0  0  0  0  0  0
  181.1190  178.3180  139.5650 C   0  0  0  0  0  2  0  0  0  0  0  0
  183.4040  178.7380  140.7890 C   0  0  1  0  0  3  0  0  0  0  0  0
  184.0340  177.5200  141.0400 O   0  0  0  0  0  1  0  0  0  0  0  0
  183.9890  179.4360  139.5540 C   0  0  0  0  0  2  0  0  0  0  0  0
  181.3200  178.6610  141.8740 O   0  0  0  0  0  0  0  0  0  0  0  0
  183.7030  178.7580  138.2040 C   0  0  1  0  0  3  0  0  0  0  0  0
  179.8290  178.4180  136.9620 C   0  0  0  0  0  1  0  0  0  0  0  0
  180.0580  179.5760  137.9130 C   0  0  0  0  0  2  0  0  0  0  0  0
  179.9920  173.6310  137.2530 C   0  0  0  0  0  3  0  0  0  0  0  0
  181.1070  173.6040  136.4020 C   0  0  0  0  0  0  0  0  0  0  0  0
  181.4470  172.4170  135.7450 C   0  0  0  0  0  3  0  0  0  0  0  0
  181.0210  170.1140  135.3050 F   0  0  0  0  0  0  0  0  0  0  0  0
  179.5780  171.2900  136.7950 C   0  0  0  0  0  3  0  0  0  0  0  0
  180.6860  171.2610  135.9420 C   0  0  0  0  0  0  0  0  0  0  0  0
  179.2310  172.4750  137.4500 C   0  0  0  0  0  3  0  0  0  0  0  0
  1 13  1  0  0  0  0
  1 18  1  0  0  0  0
  2  6  1  0  0  0  0
  4  6  2  0  0  0  0
  4 16  1  0  0  0  0
  5  2  1  6  0  0  0
  5  7  1  0  0  0  0
  5 15  1  0  0  0  0
  6  9  1  0  0  0  0
  7  3  1  6  0  0  0
  8  4  1  0  0  0  0
  9 13  1  0  0  0  0
 10  1  1  0  0  0  0
 11 19  1  0  0  0  0
 11 14  1  0  0  0  0
 12 14  1  0  0  0  0
 12  8  2  0  0  0  0
 14  2  2  0  0  0  0
 15  9  1  6  0  0  0
 15 28  1  0  0  0  0
 16  1  1  0  0  0  0
 17 32  1  1  0  0  0
 17  7  1  0  0  0  0
 19 17  1  0  0  0  0
 20 21  1  0  0  0  0
 21 23  1  0  0  0  0
 22 27  2  0  0  0  0
 23 22  1  0  0  0  0
 24 22  1  0  0  0  0
 24 25  1  6  0  0  0
 26 24  1  0  0  0  0
 28 20  1  1  0  0  0
 28 26  1  0  0  0  0
 29 30  1  0  0  0  0
 30 21  1  0  0  0  0
 31 37  1  0  0  0  0
 32 31  2  0  0  0  0
 33 36  2  0  0  0  0
 33 32  1  0  0  0  0
 34 36  1  0  0  0  0
 35 37  2  0  0  0  0
 36 35  1  0  0  0  0
M  END
>  <MODEL>
3

>  <REMARK>
 VINA RESULT:      -5.2      5.447     10.276
  Name = 
  3 active torsions:
  status: ('A' for Active; 'I' for Inactive)
    1  A    between atoms: N_4  and  C_37
    2  A    between atoms: C_21  and  C_27
    3  A    between atoms: C_23  and  C_30
                            x       y       z     vdW  Elec       q    Type
                         _______ _______ _______ _____ _____    ______ ____

>  <TORSDO>
F 3

$$$$
=
 OpenBabel11122411283D

 37 42  0  0  1  0  0  0  0  0999 V2000
  188.7800  176.9210  136.9320 C   0  0  0  0  0  0  0  0  0  0  0  0
  189.6200  177.9710  140.8870 C   0  0  0  0  0  0  0  0  0  0  0  0
  190.2140  175.5700  142.5450 C   0  0  0  0  0  1  0  0  0  0  0  0
  187.9530  177.8180  139.1770 C   0  0  0  0  0  0  0  0  0  0  0  0
  191.0260  177.5170  141.1170 C   0  0  1  0  0  3  0  0  0  0  0  0
  189.2550  177.6640  139.6210 C   0  0  0  0  0  0  0  0  0  0  0  0
  191.1830  176.7450  142.4310 C   0  0  1  0  0  3  0  0  0  0  0  0
  187.0260  178.3120  140.0490 N   0  0  0  0  0  0  0  0  0  0  0  0
  190.2530  176.9790  138.9110 N   0  0  0  0  0  0  0  0  0  0  0  0
  189.3080  178.1930  136.2900 C   0  0  0  0  0  1  0  0  0  0  0  0
  188.9890  178.5410  143.2680 C   0  0  0  0  0  2  0  0  0  0  0  0
  187.3590  178.6280  141.3410 C   0  0  0  0  0  3  0  0  0  0  0  0
  189.9170  176.2220  137.7090 C   0  0  0  0  0  2  0  0  0  0  0  0
  188.6780  178.4540  141.8020 C   0  0  0  0  0  0  0  0  0  0  0  0
  191.3580  176.6990  139.8300 C   0  0  1  0  0  3  0  0  0  0  0  0
  187.5660  177.2610  137.8330 C   0  0  0  0  0  2  0  0  0  0  0  0
  191.1130  177.7130  143.6370 C   0  0  1  0  0  3  0  0  0  0  0  0
  188.3130  175.9950  135.8290 C   0  0  0  0  0  1  0  0  0  0  0  0
  190.3360  178.8900  143.4840 O   0  0  0  0  0  0  0  0  0  0  0  0
  193.9110  177.1320  140.1110 C   0  0  0  0  0  2  0  0  0  0  0  0
  195.0020  176.2840  139.6380 N   0  0  0  0  0  0  0  0  0  0  0  0
  194.1420  174.4140  138.3800 C   0  0  0  0  0  0  0  0  0  0  0  0
  194.5650  174.8990  139.7310 C   0  0  0  0  0  2  0  0  0  0  0  0
  193.0210  175.0590  137.6120 C   0  0  1  0  0  3  0  0  0  0  0  0
  191.8040  174.4290  137.8680 O   0  0  0  0  0  1  0  0  0  0  0  0
  192.9120  176.5830  137.7520 C   0  0  0  0  0  2  0  0  0  0  0  0
  194.6990  173.4390  137.9040 O   0  0  0  0  0  0  0  0  0  0  0  0
  192.6860  177.1100  139.1780 C   0  0  1  0  0  3  0  0  0  0  0  0
  197.0300  175.2500  140.4860 C   0  0  0  0  0  1  0  0  0  0  0  0
  196.0950  176.4380  140.5830 C   0  0  0  0  0  2  0  0  0  0  0  0
  192.0560  176.1660  145.4030 C   0  0  0  0  0  3  0  0  0  0  0  0
  191.0960  177.1100  145.0110 C   0  0  0  0  0  0  0  0  0  0  0  0
  190.1180  177.5210  145.9230 C   0  0  0  0  0  3  0  0  0  0  0  0
  189.1410  177.3870  148.0920 F   0  0  0  0  0  0  0  0  0  0  0  0
  191.0460  176.0420  147.6000 C   0  0  0  0  0  3  0  0  0  0  0  0
  190.0910  176.9870  147.2140 C   0  0  0  0  0  0  0  0  0  0  0  0
  192.0290  175.6320  146.6940 C   0  0  0  0  0  3  0  0  0  0  0  0
  1 13  1  0  0  0  0
  1 16  1  0  0  0  0
  2 14  1  0  0  0  0
  4  6  1  0  0  0  0
  4  8  2  0  0  0  0
  5  2  1  6  0  0  0
  5  7  1  0  0  0  0
  6  2  2  0  0  0  0
  7  3  1  1  0  0  0
  7 17  1  0  0  0  0
  8 12  1  0  0  0  0
  9  6  1  0  0  0  0
 10  1  1  0  0  0  0
 11 19  1  0  0  0  0
 12 14  2  0  0  0  0
 13  9  1  0  0  0  0
 14 11  1  0  0  0  0
 15  9  1  6  0  0  0
 15  5  1  0  0  0  0
 16  4  1  0  0  0  0
 17 32  1  1  0  0  0
 18  1  1  0  0  0  0
 19 17  1  0  0  0  0
 21 23  1  0  0  0  0
 21 20  1  0  0  0  0
 21 30  1  0  0  0  0
 22 23  1  0  0  0  0
 24 26  1  0  0  0  0
 24 25  1  1  0  0  0
 24 22  1  0  0  0  0
 27 22  2  0  0  0  0
 28 26  1  6  0  0  0
 28 15  1  0  0  0  0
 28 20  1  0  0  0  0
 29 30  1  0  0  0  0
 31 37  1  0  0  0  0
 32 31  2  0  0  0  0
 32 33  1  0  0  0  0
 33 36  2  0  0  0  0
 36 35  1  0  0  0  0
 36 34  1  0  0  0  0
 37 35  2  0  0  0  0
M  END
>  <MODEL>
4

>  <REMARK>
 VINA RESULT:      -4.8      1.846      2.371
  Name = 
  3 active torsions:
  status: ('A' for Active; 'I' for Inactive)
    1  A    between atoms: N_4  and  C_37
    2  A    between atoms: C_21  and  C_27
    3  A    between atoms: C_23  and  C_30
                            x       y       z     vdW  Elec       q    Type
                         _______ _______ _______ _____ _____    ______ ____

>  <TORSDO>
F 3

$$$$
=
 OpenBabel11122411283D

 37 42  0  0  1  0  0  0  0  0999 V2000
  179.7510  176.2590  135.7280 C   0  0  0  0  0  0  0  0  0  0  0  0
  181.9200  178.3210  138.6440 C   0  0  0  0  0  0  0  0  0  0  0  0
  183.1090  176.4540  140.6350 C   0  0  0  0  0  1  0  0  0  0  0  0
  179.7590  177.8340  137.7410 C   0  0  0  0  0  0  0  0  0  0  0  0
  183.3250  177.8280  138.5000 C   0  0  1  0  0  3  0  0  0  0  0  0
  181.1360  177.6970  137.7350 C   0  0  0  0  0  0  0  0  0  0  0  0
  183.9530  177.4550  139.8470 C   0  0  1  0  0  3  0  0  0  0  0  0
  179.1920  178.6390  138.6860 N   0  0  0  0  0  0  0  0  0  0  0  0
  181.8300  176.7500  136.9650 N   0  0  0  0  0  0  0  0  0  0  0  0
  179.9930  177.2410  134.5940 C   0  0  0  0  0  1  0  0  0  0  0  0
  182.1660  179.6040  140.8070 C   0  0  0  0  0  2  0  0  0  0  0  0
  179.9560  179.2820  139.6270 C   0  0  0  0  0  3  0  0  0  0  0  0
  181.1030  175.7140  136.2380 C   0  0  0  0  0  2  0  0  0  0  0  0
  181.3560  179.1290  139.6360 C   0  0  0  0  0  0  0  0  0  0  0  0
  183.1940  176.6480  137.4870 C   0  0  1  0  0  3  0  0  0  0  0  0
  178.9310  176.9520  136.8450 C   0  0  0  0  0  2  0  0  0  0  0  0
  184.2970  178.7300  140.6540 C   0  0  1  0  0  3  0  0  0  0  0  0
  178.9400  175.1020  135.1860 C   0  0  0  0  0  1  0  0  0  0  0  0
  183.4940  179.8790  140.4310 O   0  0  0  0  0  0  0  0  0  0  0  0
  185.3410  177.7480  136.5050 C   0  0  0  0  0  2  0  0  0  0  0  0
  186.6640  177.1400  136.3900 N   0  0  0  0  0  0  0  0  0  0  0  0
  186.6090  174.8400  137.1150 C   0  0  0  0  0  0  0  0  0  0  0  0
  186.8510  176.2570  137.5310 C   0  0  0  0  0  2  0  0  0  0  0  0
  185.2880  174.3830  136.5610 C   0  0  1  0  0  3  0  0  0  0  0  0
  184.4600  173.8920  137.5700 O   0  0  0  0  0  1  0  0  0  0  0  0
  184.5570  175.3930  135.6670 C   0  0  0  0  0  2  0  0  0  0  0  0
  187.5010  174.0220  137.2650 O   0  0  0  0  0  0  0  0  0  0  0  0
  184.1960  176.7330  136.3270 C   0  0  1  0  0  3  0  0  0  0  0  0
  188.2130  178.2010  137.9320 C   0  0  0  0  0  1  0  0  0  0  0  0
  187.6330  178.2130  136.5320 C   0  0  0  0  0  2  0  0  0  0  0  0
  186.0900  178.1320  142.3360 C   0  0  0  0  0  3  0  0  0  0  0  0
  184.7800  178.5510  142.0630 C   0  0  0  0  0  0  0  0  0  0  0  0
  183.9100  178.8340  143.1220 C   0  0  0  0  0  3  0  0  0  0  0  0
  183.4950  178.9650  145.4650 F   0  0  0  0  0  0  0  0  0  0  0  0
  185.6470  178.2690  144.7120 C   0  0  0  0  0  3  0  0  0  0  0  0
  184.3410  178.6920  144.4440 C   0  0  0  0  0  0  0  0  0  0  0  0
  186.5210  177.9900  143.6580 C   0  0  0  0  0  3  0  0  0  0  0  0
  1 13  1  0  0  0  0
  1 16  1  0  0  0  0
  2 14  1  0  0  0  0
  4  8  2  0  0  0  0
  5  2  1  1  0  0  0
  5  7  1  0  0  0  0
  6  4  1  0  0  0  0
  6  2  2  0  0  0  0
  7  3  1  1  0  0  0
  7 17  1  0  0  0  0
  8 12  1  0  0  0  0
  9  6  1  0  0  0  0
 10  1  1  0  0  0  0
 12 14  2  0  0  0  0
 13  9  1  0  0  0  0
 14 11  1  0  0  0  0
 15  9  1  6  0  0  0
 15  5  1  0  0  0  0
 16  4  1  0  0  0  0
 17 32  1  1  0  0  0
 18  1  1  0  0  0  0
 19 17  1  0  0  0  0
 19 11  1  0  0  0  0
 21 20  1  0  0  0  0
 21 30  1  0  0  0  0
 21 23  1  0  0  0  0
 22 27  2  0  0  0  0
 22 23  1  0  0  0  0
 24 22  1  0  0  0  0
 24 25  1  1  0  0  0
 26 24  1  0  0  0  0
 28 26  1  1  0  0  0
 28 20  1  0  0  0  0
 28 15  1  0  0  0  0
 30 29  1  0  0  0  0
 31 37  1  0  0  0  0
 32 31  2  0  0  0  0
 32 33  1  0  0  0  0
 33 36  2  0  0  0  0
 36 35  1  0  0  0  0
 36 34  1  0  0  0  0
 37 35  2  0  0  0  0
M  END
>  <MODEL>
5

>  <REMARK>
 VINA RESULT:      -4.8      4.678      7.010
  Name = 
  3 active torsions:
  status: ('A' for Active; 'I' for Inactive)
    1  A    between atoms: N_4  and  C_37
    2  A    between atoms: C_21  and  C_27
    3  A    between atoms: C_23  and  C_30
                            x       y       z     vdW  Elec       q    Type
                         _______ _______ _______ _____ _____    ______ ____

>  <TORSDO>
F 3

$$$$
=
 OpenBabel11122411283D

 37 42  0  0  1  0  0  0  0  0999 V2000
  188.2530  177.7770  137.0370 C   0  0  0  0  0  0  0  0  0  0  0  0
  184.7980  178.0420  139.3720 C   0  0  0  0  0  0  0  0  0  0  0  0
  183.1540  180.4060  138.6130 C   0  0  0  0  0  1  0  0  0  0  0  0
  187.1830  178.2200  139.3150 C   0  0  0  0  0  0  0  0  0  0  0  0
  183.6660  177.9190  138.4020 C   0  0  1  0  0  3  0  0  0  0  0  0
  185.9700  177.9730  138.6980 C   0  0  0  0  0  0  0  0  0  0  0  0
  182.5900  178.9860  138.6230 C   0  0  1  0  0  3  0  0  0  0  0  0
  187.1840  178.5240  140.6460 N   0  0  0  0  0  0  0  0  0  0  0  0
  185.8010  177.8580  137.3100 N   0  0  0  0  0  0  0  0  0  0  0  0
  188.3760  176.2620  137.0670 C   0  0  0  0  0  1  0  0  0  0  0  0
  183.4930  178.7260  141.4250 C   0  0  0  0  0  2  0  0  0  0  0  0
  186.0150  178.6090  141.3590 C   0  0  0  0  0  3  0  0  0  0  0  0
  186.9010  178.1730  136.4040 C   0  0  0  0  0  2  0  0  0  0  0  0
  184.7760  178.3770  140.7300 C   0  0  0  0  0  0  0  0  0  0  0  0
  184.3720  177.9750  137.0110 C   0  0  1  0  0  3  0  0  0  0  0  0
  188.4240  178.3380  138.4710 C   0  0  0  0  0  2  0  0  0  0  0  0
  181.7660  178.6660  139.8940 C   0  0  1  0  0  3  0  0  0  0  0  0
  189.3680  178.3240  136.1710 C   0  0  0  0  0  1  0  0  0  0  0  0
  182.4210  177.9580  140.9340 O   0  0  0  0  0  0  0  0  0  0  0  0
  183.6030  175.5010  136.7530 C   0  0  0  0  0  2  0  0  0  0  0  0
  182.2590  175.0280  136.4340 N   0  0  0  0  0  0  0  0  0  0  0  0
  180.7830  176.8880  136.0100 C   0  0  0  0  0  0  0  0  0  0  0  0
  181.3060  175.9430  137.0450 C   0  0  0  0  0  2  0  0  0  0  0  0
  181.6840  177.8180  135.2450 C   0  0  1  0  0  3  0  0  0  0  0  0
  181.7790  179.0600  135.8710 O   0  0  0  0  0  1  0  0  0  0  0  0
  183.0660  177.2560  134.8850 C   0  0  0  0  0  2  0  0  0  0  0  0
  179.5810  176.9320  135.8070 O   0  0  0  0  0  0  0  0  0  0  0  0
  183.9480  176.8370  136.0720 C   0  0  1  0  0  3  0  0  0  0  0  0
  183.3830  173.3590  137.7950 C   0  0  0  0  0  1  0  0  0  0  0  0
  182.0920  173.7490  137.1020 C   0  0  0  0  0  2  0  0  0  0  0  0
  180.2300  179.6570  141.6440 C   0  0  0  0  0  3  0  0  0  0  0  0
  180.7660  179.6890  140.3480 C   0  0  0  0  0  0  0  0  0  0  0  0
  180.3850  180.7060  139.4670 C   0  0  0  0  0  3  0  0  0  0  0  0
  179.1010  182.6620  139.0140 F   0  0  0  0  0  0  0  0  0  0  0  0
  178.9310  181.6430  141.1620 C   0  0  0  0  0  3  0  0  0  0  0  0
  179.4680  181.6810  139.8720 C   0  0  0  0  0  0  0  0  0  0  0  0
  179.3130  180.6320  142.0490 C   0  0  0  0  0  3  0  0  0  0  0  0
  1 10  1  0  0  0  0
  1 16  1  0  0  0  0
  2 14  1  0  0  0  0
  4  8  2  0  0  0  0
  5  7  1  0  0  0  0
  5  2  1  1  0  0  0
  6  4  1  0  0  0  0
  6  2  2  0  0  0  0
  7  3  1  1  0  0  0
  7 17  1  0  0  0  0
  8 12  1  0  0  0  0
  9  6  1  0  0  0  0
 13  1  1  0  0  0  0
 13  9  1  0  0  0  0
 14 12  2  0  0  0  0
 14 11  1  0  0  0  0
 15  9  1  1  0  0  0
 15  5  1  0  0  0  0
 16  4  1  0  0  0  0
 17 32  1  1  0  0  0
 17 19  1  0  0  0  0
 18  1  1  0  0  0  0
 19 11  1  0  0  0  0
 21 20  1  0  0  0  0
 21 23  1  0  0  0  0
 21 30  1  0  0  0  0
 22 23  1  0  0  0  0
 24 25  1  1  0  0  0
 24 22  1  0  0  0  0
 26 24  1  0  0  0  0
 27 22  2  0  0  0  0
 28 26  1  1  0  0  0
 28 20  1  0  0  0  0
 28 15  1  0  0  0  0
 30 29  1  0  0  0  0
 31 37  1  0  0  0  0
 32 31  2  0  0  0  0
 33 36  2  0  0  0  0
 33 32  1  0  0  0  0
 34 36  1  0  0  0  0
 35 37  2  0  0  0  0
 36 35  1  0  0  0  0
M  END
>  <MODEL>
6

>  <REMARK>
 VINA RESULT:      -4.5      5.773      9.190
  Name = 
  3 active torsions:
  status: ('A' for Active; 'I' for Inactive)
    1  A    between atoms: N_4  and  C_37
    2  A    between atoms: C_21  and  C_27
    3  A    between atoms: C_23  and  C_30
                            x       y       z     vdW  Elec       q    Type
                         _______ _______ _______ _____ _____    ______ ____

>  <TORSDO>
F 3

$$$$
=
 OpenBabel11122411283D

 37 42  0  0  1  0  0  0  0  0999 V2000
  188.0780  177.9830  142.5350 C   0  0  0  0  0  0  0  0  0  0  0  0
  184.1990  178.2340  141.0030 C   0  0  0  0  0  0  0  0  0  0  0  0
  183.9310  180.5030  139.0940 C   0  0  0  0  0  1  0  0  0  0  0  0
  185.6030  178.4910  142.9230 C   0  0  0  0  0  0  0  0  0  0  0  0
  184.3530  178.0280  139.5290 C   0  0  1  0  0  3  0  0  0  0  0  0
  185.4180  178.1750  141.5880 C   0  0  0  0  0  0  0  0  0  0  0  0
  183.5780  179.0670  138.7110 C   0  0  1  0  0  3  0  0  0  0  0  0
  184.5140  178.8540  143.6610 N   0  0  0  0  0  0  0  0  0  0  0  0
  186.4620  177.9930  140.6690 N   0  0  0  0  0  0  0  0  0  0  0  0
  188.0970  176.4770  142.7350 C   0  0  0  0  0  1  0  0  0  0  0  0
  181.7800  178.9640  141.0550 C   0  0  0  0  0  2  0  0  0  0  0  0
  183.2650  178.9310  143.0980 C   0  0  0  0  0  3  0  0  0  0  0  0
  187.8390  178.3040  141.0440 C   0  0  0  0  0  2  0  0  0  0  0  0
  183.0750  178.6290  141.7360 C   0  0  0  0  0  0  0  0  0  0  0  0
  185.8990  178.0470  139.3190 C   0  0  1  0  0  3  0  0  0  0  0  0
  187.0050  178.6140  143.4580 C   0  0  0  0  0  2  0  0  0  0  0  0
  182.0580  178.7760  138.7720 C   0  0  1  0  0  3  0  0  0  0  0  0
  189.4330  178.5290  142.9330 C   0  0  0  0  0  1  0  0  0  0  0  0
  181.5620  178.1370  139.9370 O   0  0  0  0  0  0  0  0  0  0  0  0
  185.3720  176.1690  137.5930 C   0  0  0  0  0  2  0  0  0  0  0  0
  185.7780  176.1270  136.1910 N   0  0  0  0  0  0  0  0  0  0  0  0
  187.1820  178.0140  135.6550 C   0  0  0  0  0  0  0  0  0  0  0  0
  185.7800  177.4910  135.6850 C   0  0  0  0  0  2  0  0  0  0  0  0
  188.0210  178.1250  136.8980 C   0  0  1  0  0  3  0  0  0  0  0  0
  187.9020  179.3880  137.4770 O   0  0  0  0  0  1  0  0  0  0  0  0
  187.8310  177.0060  137.9300 C   0  0  0  0  0  2  0  0  0  0  0  0
  187.6440  178.3970  134.5940 O   0  0  0  0  0  0  0  0  0  0  0  0
  186.4110  176.8540  138.4990 C   0  0  1  0  0  3  0  0  0  0  0  0
  183.3750  175.9650  135.8670 C   0  0  0  0  0  1  0  0  0  0  0  0
  184.7330  175.4190  135.4720 C   0  0  0  0  0  2  0  0  0  0  0  0
  180.2520  180.5410  138.9350 C   0  0  0  0  0  3  0  0  0  0  0  0
  181.1340  179.7830  138.1510 C   0  0  0  0  0  0  0  0  0  0  0  0
  181.1760  179.9830  136.7670 C   0  0  0  0  0  3  0  0  0  0  0  0
  180.3810  181.1160  134.8270 F   0  0  0  0  0  0  0  0  0  0  0  0
  179.4560  181.6780  136.9510 C   0  0  0  0  0  3  0  0  0  0  0  0
  180.3380  180.9270  136.1680 C   0  0  0  0  0  0  0  0  0  0  0  0
  179.4140  181.4850  138.3350 C   0  0  0  0  0  3  0  0  0  0  0  0
  1 10  1  0  0  0  0
  1 18  1  0  0  0  0
  1 16  1  0  0  0  0
  2  6  2  0  0  0  0
  2 14  1  0  0  0  0
  4 16  1  0  0  0  0
  4  8  2  0  0  0  0
  5  2  1  1  0  0  0
  6  4  1  0  0  0  0
  7 17  1  0  0  0  0
  7  3  1  1  0  0  0
  7  5  1  0  0  0  0
  9 13  1  0  0  0  0
  9  6  1  0  0  0  0
 11 14  1  0  0  0  0
 12  8  1  0  0  0  0
 13  1  1  0  0  0  0
 14 12  2  0  0  0  0
 15  5  1  0  0  0  0
 15  9  1  1  0  0  0
 17 32  1  1  0  0  0
 17 19  1  0  0  0  0
 19 11  1  0  0  0  0
 21 20  1  0  0  0  0
 22 23  1  0  0  0  0
 22 24  1  0  0  0  0
 23 21  1  0  0  0  0
 24 25  1  1  0  0  0
 24 26  1  0  0  0  0
 26 28  1  0  0  0  0
 27 22  2  0  0  0  0
 28 20  1  6  0  0  0
 28 15  1  0  0  0  0
 30 29  1  0  0  0  0
 30 21  1  0  0  0  0
 32 31  2  0  0  0  0
 33 32  1  0  0  0  0
 34 36  1  0  0  0  0
 35 37  2  0  0  0  0
 36 33  2  0  0  0  0
 36 35  1  0  0  0  0
 37 31  1  0  0  0  0
M  END
>  <MODEL>
7

>  <REMARK>
 VINA RESULT:      -4.1      4.773      8.810
  Name = 
  3 active torsions:
  status: ('A' for Active; 'I' for Inactive)
    1  A    between atoms: N_4  and  C_37
    2  A    between atoms: C_21  and  C_27
    3  A    between atoms: C_23  and  C_30
                            x       y       z     vdW  Elec       q    Type
                         _______ _______ _______ _____ _____    ______ ____

>  <TORSDO>
F 3

$$$$
=
 OpenBabel11122411283D

 37 42  0  0  1  0  0  0  0  0999 V2000
  193.5960  176.2320  135.7930 C   0  0  0  0  0  0  0  0  0  0  0  0
  191.0590  176.3640  139.1100 C   0  0  0  0  0  0  0  0  0  0  0  0
  189.0280  178.5250  138.8380 C   0  0  0  0  0  1  0  0  0  0  0  0
  193.2700  176.7370  138.2770 C   0  0  0  0  0  0  0  0  0  0  0  0
  189.6950  176.0810  138.5650 C   0  0  1  0  0  3  0  0  0  0  0  0
  191.9550  176.3480  138.0960 C   0  0  0  0  0  0  0  0  0  0  0  0
  188.6430  177.0660  139.0830 C   0  0  1  0  0  3  0  0  0  0  0  0
  193.6650  177.1300  139.5240 N   0  0  0  0  0  0  0  0  0  0  0  0
  191.3640  176.1260  136.8430 N   0  0  0  0  0  0  0  0  0  0  0  0
  193.8750  174.7390  135.8370 C   0  0  0  0  0  1  0  0  0  0  0  0
  190.4150  177.0730  141.4490 C   0  0  0  0  0  2  0  0  0  0  0  0
  192.7820  177.1650  140.5730 C   0  0  0  0  0  3  0  0  0  0  0  0
  192.0800  176.4700  135.6180 C   0  0  0  0  0  2  0  0  0  0  0  0
  191.4370  176.7870  140.3890 C   0  0  0  0  0  0  0  0  0  0  0  0
  189.9110  176.1020  137.0190 C   0  0  1  0  0  3  0  0  0  0  0  0
  194.1580  176.9020  137.0720 C   0  0  0  0  0  2  0  0  0  0  0  0
  188.3050  176.7650  140.5630 C   0  0  1  0  0  3  0  0  0  0  0  0
  194.3150  176.8120  134.5940 C   0  0  0  0  0  1  0  0  0  0  0  0
  189.3250  176.1860  141.3610 O   0  0  0  0  0  0  0  0  0  0  0  0
  188.5020  173.9190  137.1950 C   0  0  0  0  0  2  0  0  0  0  0  0
  187.1470  173.7070  136.6950 N   0  0  0  0  0  0  0  0  0  0  0  0
  186.3670  175.6520  135.5010 C   0  0  0  0  0  0  0  0  0  0  0  0
  186.4200  174.9600  136.8260 C   0  0  0  0  0  2  0  0  0  0  0  0
  187.6100  176.0720  134.7660 C   0  0  1  0  0  3  0  0  0  0  0  0
  187.9640  177.3840  135.0780 O   0  0  0  0  0  1  0  0  0  0  0  0
  188.8060  175.1170  134.8860 C   0  0  0  0  0  2  0  0  0  0  0  0
  185.2780  175.9180  135.0190 O   0  0  0  0  0  0  0  0  0  0  0  0
  189.3270  174.8720  136.3100 C   0  0  1  0  0  3  0  0  0  0  0  0
  185.0090  172.7810  137.3830 C   0  0  0  0  0  1  0  0  0  0  0  0
  186.5100  172.7610  137.5940 C   0  0  0  0  0  2  0  0  0  0  0  0
  186.5470  178.5860  140.5730 C   0  0  0  0  0  3  0  0  0  0  0  0
  187.4040  177.7290  141.2790 C   0  0  0  0  0  0  0  0  0  0  0  0
  187.4040  177.7490  142.6780 C   0  0  0  0  0  3  0  0  0  0  0  0
  186.5670  178.6420  144.7220 F   0  0  0  0  0  0  0  0  0  0  0  0
  185.7120  179.4820  142.6620 C   0  0  0  0  0  3  0  0  0  0  0  0
  186.5610  178.6250  143.3680 C   0  0  0  0  0  0  0  0  0  0  0  0
  185.7040  179.4610  141.2640 C   0  0  0  0  0  3  0  0  0  0  0  0
  1 10  1  0  0  0  0
  1 16  1  0  0  0  0
  2 14  1  0  0  0  0
  4  8  2  0  0  0  0
  5  7  1  0  0  0  0
  5  2  1  1  0  0  0
  6  4  1  0  0  0  0
  6  2  2  0  0  0  0
  7  3  1  1  0  0  0
  7 17  1  0  0  0  0
  8 12  1  0  0  0  0
  9  6  1  0  0  0  0
 13  1  1  0  0  0  0
 13  9  1  0  0  0  0
 14 12  2  0  0  0  0
 14 11  1  0  0  0  0
 15  9  1  1  0  0  0
 15  5  1  0  0  0  0
 16  4  1  0  0  0  0
 17 32  1  1  0  0  0
 17 19  1  0  0  0  0
 18  1  1  0  0  0  0
 19 11  1  0  0  0  0
 21 23  1  0  0  0  0
 21 20  1  0  0  0  0
 21 30  1  0  0  0  0
 22 23  1  0  0  0  0
 24 26  1  0  0  0  0
 24 25  1  1  0  0  0
 24 22  1  0  0  0  0
 27 22  2  0  0  0  0
 28 26  1  6  0  0  0
 28 15  1  0  0  0  0
 28 20  1  0  0  0  0
 29 30  1  0  0  0  0
 31 37  2  0  0  0  0
 31 32  1  0  0  0  0
 32 33  2  0  0  0  0
 33 36  1  0  0  0  0
 35 36  2  0  0  0  0
 36 34  1  0  0  0  0
 37 35  1  0  0  0  0
M  END
>  <MODEL>
8

>  <REMARK>
 VINA RESULT:      -4.0      3.164      6.001
  Name = 
  3 active torsions:
  status: ('A' for Active; 'I' for Inactive)
    1  A    between atoms: N_4  and  C_37
    2  A    between atoms: C_21  and  C_27
    3  A    between atoms: C_23  and  C_30
                            x       y       z     vdW  Elec       q    Type
                         _______ _______ _______ _____ _____    ______ ____

>  <TORSDO>
F 3

$$$$
=
 OpenBabel11122411283D

 37 42  0  0  1  0  0  0  0  0999 V2000
  184.3280  179.0760  144.3900 C   0  0  0  0  0  0  0  0  0  0  0  0
  184.9740  178.5000  140.3030 C   0  0  0  0  0  0  0  0  0  0  0  0
  183.8870  175.8830  139.3900 C   0  0  0  0  0  1  0  0  0  0  0  0
  185.9650  178.6530  142.4750 C   0  0  0  0  0  0  0  0  0  0  0  0
  183.6060  178.3950  139.7070 C   0  0  1  0  0  3  0  0  0  0  0  0
  184.8630  178.6830  141.6390 C   0  0  0  0  0  0  0  0  0  0  0  0
  183.4770  177.2070  138.7480 C   0  0  1  0  0  3  0  0  0  0  0  0
  187.1950  178.4480  141.9180 N   0  0  0  0  0  0  0  0  0  0  0  0
  183.5330  178.6730  142.0880 N   0  0  0  0  0  0  0  0  0  0  0  0
  184.2170  180.5910  144.3450 C   0  0  0  0  0  1  0  0  0  0  0  0
  186.3390  177.7900  138.2980 C   0  0  0  0  0  2  0  0  0  0  0  0
  187.3440  178.2520  140.5690 C   0  0  0  0  0  3  0  0  0  0  0  0
  183.2320  178.4500  143.4990 C   0  0  0  0  0  2  0  0  0  0  0  0
  186.2220  178.2640  139.7170 C   0  0  0  0  0  0  0  0  0  0  0  0
  182.6700  178.3380  140.9540 C   0  0  1  0  0  3  0  0  0  0  0  0
  185.7550  178.6480  143.9650 C   0  0  0  0  0  2  0  0  0  0  0  0
  184.2230  177.4990  137.4240 C   0  0  1  0  0  3  0  0  0  0  0  0
  184.0980  178.6280  145.8180 C   0  0  0  0  0  1  0  0  0  0  0  0
  185.3450  178.3650  137.4840 O   0  0  0  0  0  0  0  0  0  0  0  0
  181.7000  180.5230  139.9220 C   0  0  0  0  0  2  0  0  0  0  0  0
  180.6420  180.6250  138.9200 N   0  0  0  0  0  0  0  0  0  0  0  0
  179.7460  178.4470  138.4030 C   0  0  0  0  0  0  0  0  0  0  0  0
  180.7580  179.4820  138.0280 C   0  0  0  0  0  2  0  0  0  0  0  0
  179.7270  177.8000  139.7610 C   0  0  1  0  0  3  0  0  0  0  0  0
  180.4690  176.6190  139.7690 O   0  0  0  0  0  1  0  0  0  0  0  0
  180.1000  178.7130  140.9360 C   0  0  0  0  0  2  0  0  0  0  0  0
  178.9330  178.0880  137.5680 O   0  0  0  0  0  0  0  0  0  0  0  0
  181.5050  179.3350  140.8820 C   0  0  1  0  0  3  0  0  0  0  0  0
  180.0380  181.8300  136.8980 C   0  0  0  0  0  1  0  0  0  0  0  0
  180.9300  181.8060  138.1230 C   0  0  0  0  0  2  0  0  0  0  0  0
  185.5770  175.9280  135.9730 C   0  0  0  0  0  3  0  0  0  0  0  0
  184.3300  176.3830  136.4260 C   0  0  0  0  0  0  0  0  0  0  0  0
  183.1610  175.7690  135.9630 C   0  0  0  0  0  3  0  0  0  0  0  0
  182.1000  174.1270  134.6010 F   0  0  0  0  0  0  0  0  0  0  0  0
  184.4790  174.2690  134.5940 C   0  0  0  0  0  3  0  0  0  0  0  0
  183.2350  174.7160  135.0480 C   0  0  0  0  0  0  0  0  0  0  0  0
  185.6510  174.8750  135.0580 C   0  0  0  0  0  3  0  0  0  0  0  0
  1 18  1  0  0  0  0
  2  6  1  0  0  0  0
  4 16  1  0  0  0  0
  5  2  1  1  0  0  0
  5 15  1  0  0  0  0
  6  9  1  0  0  0  0
  6  4  2  0  0  0  0
  7  3  1  1  0  0  0
  7  5  1  0  0  0  0
  8  4  1  0  0  0  0
  9 13  1  0  0  0  0
 10  1  1  0  0  0  0
 11 14  1  0  0  0  0
 12  8  2  0  0  0  0
 13  1  1  0  0  0  0
 14  2  2  0  0  0  0
 14 12  1  0  0  0  0
 15  9  1  1  0  0  0
 16  1  1  0  0  0  0
 17 32  1  1  0  0  0
 17 19  1  0  0  0  0
 17  7  1  0  0  0  0
 19 11  1  0  0  0  0
 21 20  1  0  0  0  0
 22 24  1  0  0  0  0
 23 22  1  0  0  0  0
 23 21  1  0  0  0  0
 24 25  1  6  0  0  0
 24 26  1  0  0  0  0
 27 22  2  0  0  0  0
 28 20  1  6  0  0  0
 28 26  1  0  0  0  0
 28 15  1  0  0  0  0
 29 30  1  0  0  0  0
 30 21  1  0  0  0  0
 31 32  1  0  0  0  0
 33 32  2  0  0  0  0
 34 36  1  0  0  0  0
 35 36  2  0  0  0  0
 35 37  1  0  0  0  0
 36 33  1  0  0  0  0
 37 31  2  0  0  0  0
M  END
>  <MODEL>
9

>  <REMARK>
 VINA RESULT:      -3.6      5.540      9.970
  Name = 
  3 active torsions:
  status: ('A' for Active; 'I' for Inactive)
    1  A    between atoms: N_4  and  C_37
    2  A    between atoms: C_21  and  C_27
    3  A    between atoms: C_23  and  C_30
                            x       y       z     vdW  Elec       q    Type
                         _______ _______ _______ _____ _____    ______ ____

>  <TORSDO>
F 3

$$$$
