=
 OpenBabel11122411333D

 37 43  0  0  1  0  0  0  0  0999 V2000
  183.0120  178.2330  141.2840 C   0  0  0  0  0  2  0  0  0  0  0  0
  180.6610  181.9970  137.6650 S   0  0  0  0  0  0  0  0  0  0  0  0
  182.6830  178.1670  137.6030 C   0  0  2  0  0  3  0  0  0  0  0  0
  182.4340  178.3880  142.7130 C   0  0  1  0  0  3  0  0  0  0  0  0
  186.0850  178.2820  139.2630 C   0  0  0  0  0  2  0  0  0  0  0  0
  180.6520  179.4120  136.9100 C   0  0  0  0  0  0  0  0  0  0  0  0
  183.5940  178.1290  138.6760 N   0  0  1  0  0  0  0  0  0  0  0  0
  184.8790  178.7510  143.5130 C   0  0  2  0  0  3  0  0  0  0  0  0
  181.7070  179.2450  137.7900 C   0  0  0  0  0  0  0  0  0  0  0  0
  184.9910  177.6010  138.3830 C   0  0  1  0  0  3  0  0  0  0  0  0
  180.4410  178.1960  135.9400 C   0  0  0  0  0  3  0  0  0  0  0  0
  183.3910  178.9340  143.7570 C   0  0  0  0  0  2  0  0  0  0  0  0
  182.0890  180.1830  138.9030 C   0  0  2  0  0  3  0  0  0  0  0  0
  179.6820  182.3780  138.7700 O   0  0  0  0  0  0  0  0  0  0  0  0
  183.2470  175.9030  136.7280 C   0  0  0  0  0  2  0  0  0  0  0  0
  181.2830  177.1190  135.9030 C   0  0  0  0  0  3  0  0  0  0  0  0
  182.2480  181.5580  138.3440 C   0  0  0  0  0  2  0  0  0  0  0  0
  185.6160  179.5870  142.4450 C   0  0  0  0  0  2  0  0  0  0  0  0
  185.7640  178.1420  140.6140 O   0  0  0  0  0  0  0  0  0  0  0  0
  182.2500  176.9830  136.9190 N   0  0  0  0  0  0  0  0  0  0  0  0
  183.4790  179.4940  139.2070 C   0  0  1  0  0  3  0  0  0  0  0  0
  180.0770  180.6340  136.7450 N   0  0  0  0  0  2  0  0  0  0  0  0
  185.3470  177.4460  136.8710 C   0  0  2  0  0  3  0  0  0  0  0  0
  180.8030  183.0770  136.6820 O   0  0  0  0  0  0  0  0  0  0  0  0
  185.3030  179.3780  140.9840 C   0  0  1  0  0  3  0  0  0  0  0  0
  185.5630  177.6360  144.0830 O   0  0  0  0  0  1  0  0  0  0  0  0
  183.7970  179.4900  140.7070 C   0  0  2  0  0  3  0  0  0  0  0  0
  184.5460  176.3860  136.0910 C   0  0  0  0  0  2  0  0  0  0  0  0
  187.6360  178.1730  136.0630 C   0  0  0  0  0  3  0  0  0  0  0  0
  186.8010  177.1670  136.6160 C   0  0  0  0  0  0  0  0  0  0  0  0
  187.3120  175.8660  136.8560 C   0  0  0  0  0  3  0  0  0  0  0  0
  189.1200  174.2380  136.8440 N   0  0  0  0  0  1  0  0  0  0  0  0
  189.4550  176.5850  136.0860 C   0  0  0  0  0  3  0  0  0  0  0  0
  188.6200  175.5720  136.5830 C   0  0  0  0  0  0  0  0  0  0  0  0
  188.9640  177.8780  135.8050 C   0  0  0  0  0  3  0  0  0  0  0  0
  180.5880  178.6290  143.8970 C   0  0  0  0  0  1  0  0  0  0  0  0
  181.2340  179.1000  142.7420 O   0  0  0  0  0  0  0  0  0  0  0  0
  1  4  1  0  0  0  0
  2 17  1  0  0  0  0
  2 14  2  0  0  0  0
  3  9  1  1  0  0  0
  3  7  1  0  0  0  0
  4 37  1  6  0  0  0
  4 12  1  0  0  0  0
  5 19  1  0  0  0  0
  6  9  2  0  0  0  0
  7 21  1  0  0  0  0
  8 12  1  0  0  0  0
  8 26  1  0  0  0  0
  9 13  1  0  0  0  0
 10  7  1  0  0  0  0
 10  5  1  0  0  0  0
 11  6  1  0  0  0  0
 13 21  1  0  0  0  0
 15 20  1  0  0  0  0
 16 11  2  0  0  0  0
 16 20  1  0  0  0  0
 17 13  1  0  0  0  0
 18  8  1  0  0  0  0
 19 25  1  0  0  0  0
 20  3  1  0  0  0  0
 21 27  1  0  0  0  0
 22  6  1  0  0  0  0
 22  2  1  0  0  0  0
 23 10  1  0  0  0  0
 24  2  2  0  0  0  0
 25 18  1  0  0  0  0
 27 25  1  0  0  0  0
 27  1  1  0  0  0  0
 28 15  1  0  0  0  0
 28 23  1  0  0  0  0
 29 30  1  0  0  0  0
 30 31  2  0  0  0  0
 30 23  1  0  0  0  0
 33 34  2  0  0  0  0
 34 32  1  0  0  0  0
 34 31  1  0  0  0  0
 35 29  2  0  0  0  0
 35 33  1  0  0  0  0
 37 36  1  0  0  0  0
M  END
>  <MODEL>
1

>  <REMARK>
 VINA RESULT:      -6.1      0.000      0.000
  Name = 
  2 active torsions:
  status: ('A' for Active; 'I' for Inactive)
    1  A    between atoms: C_4  and  O_37
    2  A    between atoms: C_23  and  C_30
                            x       y       z     vdW  Elec       q    Type
                         _______ _______ _______ _____ _____    ______ ____

>  <TORSDO>
F 2

$$$$
=
 OpenBabel11122411333D

 37 43  0  0  1  0  0  0  0  0999 V2000
  180.9230  181.1310  138.1840 C   0  0  0  0  0  2  0  0  0  0  0  0
  180.0330  178.5220  143.2040 S   0  0  0  0  0  0  0  0  0  0  0  0
  183.0630  178.8250  140.1240 C   0  0  2  0  0  3  0  0  0  0  0  0
  180.0420  182.3980  138.0430 C   0  0  1  0  0  3  0  0  0  0  0  0
  181.7650  177.8740  136.6960 C   0  0  0  0  0  2  0  0  0  0  0  0
  182.5880  179.0620  142.5480 C   0  0  0  0  0  0  0  0  0  0  0  0
  182.4220  179.0300  138.8880 N   0  0  1  0  0  0  0  0  0  0  0  0
  179.0980  181.3290  135.8700 C   0  0  2  0  0  3  0  0  0  0  0  0
  182.1490  179.1010  141.2360 C   0  0  0  0  0  0  0  0  0  0  0  0
  182.9080  178.2040  137.7060 C   0  0  1  0  0  3  0  0  0  0  0  0
  184.1510  179.0180  142.6880 C   0  0  0  0  0  3  0  0  0  0  0  0
  178.9310  182.3170  137.0130 C   0  0  0  0  0  2  0  0  0  0  0  0
  180.7210  179.2540  140.7850 C   0  0  2  0  0  3  0  0  0  0  0  0
  179.1790  179.7160  143.6200 O   0  0  0  0  0  0  0  0  0  0  0  0
  185.3750  178.8070  139.1940 C   0  0  0  0  0  2  0  0  0  0  0  0
  184.9920  178.9250  141.6140 C   0  0  0  0  0  3  0  0  0  0  0  0
  179.8870  178.2140  141.4560 C   0  0  0  0  0  2  0  0  0  0  0  0
  178.9470  179.8110  136.1070 C   0  0  0  0  0  2  0  0  0  0  0  0
  181.1500  179.0520  136.2710 O   0  0  0  0  0  0  0  0  0  0  0  0
  184.4580  179.0970  140.3210 N   0  0  0  0  0  0  0  0  0  0  0  0
  181.0080  178.9080  139.2690 C   0  0  1  0  0  3  0  0  0  0  0  0
  181.7190  178.7970  143.5610 N   0  0  0  0  0  2  0  0  0  0  0  0
  183.8530  177.0140  138.0620 C   0  0  2  0  0  3  0  0  0  0  0  0
  179.6810  177.3210  143.9700 O   0  0  0  0  0  0  0  0  0  0  0  0
  179.9620  179.0800  136.9500 C   0  0  1  0  0  3  0  0  0  0  0  0
  179.6430  181.7640  134.6260 O   0  0  0  0  0  1  0  0  0  0  0  0
  180.1460  179.7500  138.3200 C   0  0  2  0  0  3  0  0  0  0  0  0
  185.2280  177.3920  138.6450 C   0  0  0  0  0  2  0  0  0  0  0  0
  185.0180  176.4370  135.8870 C   0  0  0  0  0  3  0  0  0  0  0  0
  184.1080  176.0780  136.9160 C   0  0  0  0  0  0  0  0  0  0  0  0
  183.3700  174.8690  136.8280 C   0  0  0  0  0  3  0  0  0  0  0  0
  182.7870  172.7920  135.7030 N   0  0  0  0  0  1  0  0  0  0  0  0
  184.4870  174.3580  134.7790 C   0  0  0  0  0  3  0  0  0  0  0  0
  183.5470  174.0240  135.7660 C   0  0  0  0  0  0  0  0  0  0  0  0
  185.2080  175.5710  134.8240 C   0  0  0  0  0  3  0  0  0  0  0  0
  178.9360  184.0790  138.9460 C   0  0  0  0  0  1  0  0  0  0  0  0
  179.5360  182.8490  139.2620 O   0  0  0  0  0  0  0  0  0  0  0  0
  1 27  1  0  0  0  0
  2 22  1  0  0  0  0
  2 14  2  0  0  0  0
  2 24  2  0  0  0  0
  3 20  1  0  0  0  0
  3  9  1  1  0  0  0
  4  1  1  0  0  0  0
  4 37  1  1  0  0  0
  5 10  1  0  0  0  0
  6 11  1  0  0  0  0
  6 22  1  0  0  0  0
  7 21  1  0  0  0  0
  7  3  1  0  0  0  0
  8 18  1  0  0  0  0
  8 12  1  0  0  0  0
  9  6  2  0  0  0  0
 10 23  1  0  0  0  0
 10  7  1  0  0  0  0
 12  4  1  0  0  0  0
 13  9  1  0  0  0  0
 13 17  1  0  0  0  0
 15 20  1  0  0  0  0
 16 11  2  0  0  0  0
 17  2  1  0  0  0  0
 18 25  1  0  0  0  0
 19  5  1  0  0  0  0
 19 25  1  0  0  0  0
 20 16  1  0  0  0  0
 21 13  1  0  0  0  0
 23 28  1  0  0  0  0
 25 27  1  0  0  0  0
 26  8  1  0  0  0  0
 27 21  1  0  0  0  0
 28 15  1  0  0  0  0
 29 30  1  0  0  0  0
 30 23  1  0  0  0  0
 31 30  2  0  0  0  0
 32 34  1  0  0  0  0
 33 35  1  0  0  0  0
 33 34  2  0  0  0  0
 34 31  1  0  0  0  0
 35 29  2  0  0  0  0
 36 37  1  0  0  0  0
M  END
>  <MODEL>
2

>  <REMARK>
 VINA RESULT:      -5.7      2.858      5.972
  Name = 
  2 active torsions:
  status: ('A' for Active; 'I' for Inactive)
    1  A    between atoms: C_4  and  O_37
    2  A    between atoms: C_23  and  C_30
                            x       y       z     vdW  Elec       q    Type
                         _______ _______ _______ _____ _____    ______ ____

>  <TORSDO>
F 2

$$$$
=
 OpenBabel11122411333D

 37 43  0  0  1  0  0  0  0  0999 V2000
  182.5880  178.3180  141.3220 C   0  0  0  0  0  2  0  0  0  0  0  0
  179.9800  182.0990  137.9020 S   0  0  0  0  0  0  0  0  0  0  0  0
  181.4660  178.0310  137.8120 C   0  0  2  0  0  3  0  0  0  0  0  0
  182.3560  178.6550  142.8160 C   0  0  1  0  0  3  0  0  0  0  0  0
  185.1340  177.7930  138.7200 C   0  0  0  0  0  2  0  0  0  0  0  0
  179.4970  179.4920  137.4290 C   0  0  0  0  0  0  0  0  0  0  0  0
  182.5750  177.9440  138.6740 N   0  0  1  0  0  0  0  0  0  0  0  0
  184.9420  178.7320  143.0570 C   0  0  2  0  0  3  0  0  0  0  0  0
  180.6890  179.2440  138.0860 C   0  0  0  0  0  0  0  0  0  0  0  0
  183.8020  177.2080  138.1550 C   0  0  1  0  0  3  0  0  0  0  0  0
  178.9370  178.2500  136.6500 C   0  0  0  0  0  3  0  0  0  0  0  0
  183.5750  179.1370  143.5810 C   0  0  0  0  0  2  0  0  0  0  0  0
  181.4130  180.1990  138.9970 C   0  0  2  0  0  3  0  0  0  0  0  0
  179.3170  182.6910  139.1410 O   0  0  0  0  0  0  0  0  0  0  0  0
  181.5500  175.6530  137.0720 C   0  0  0  0  0  2  0  0  0  0  0  0
  179.6150  177.0670  136.5490 C   0  0  0  0  0  3  0  0  0  0  0  0
  181.6120  181.4940  138.2820 C   0  0  0  0  0  2  0  0  0  0  0  0
  185.5250  179.3780  141.7820 C   0  0  0  0  0  2  0  0  0  0  0  0
  185.0990  177.7980  140.1150 O   0  0  0  0  0  0  0  0  0  0  0  0
  180.7550  176.8720  137.3540 N   0  0  0  0  0  0  0  0  0  0  0  0
  182.7430  179.3470  139.0770 C   0  0  1  0  0  3  0  0  0  0  0  0
  179.0510  180.7670  137.2630 N   0  0  0  0  0  2  0  0  0  0  0  0
  183.8020  176.8960  136.6260 C   0  0  2  0  0  3  0  0  0  0  0  0
  180.0350  183.0740  136.8070 O   0  0  0  0  0  0  0  0  0  0  0  0
  184.8810  179.1080  140.4450 C   0  0  1  0  0  3  0  0  0  0  0  0
  185.5940  177.5780  143.5840 O   0  0  0  0  0  1  0  0  0  0  0  0
  183.3750  179.4080  140.4730 C   0  0  2  0  0  3  0  0  0  0  0  0
  182.7290  175.9030  136.1380 C   0  0  0  0  0  2  0  0  0  0  0  0
  185.4670  175.0290  136.2250 C   0  0  0  0  0  3  0  0  0  0  0  0
  185.1220  176.4000  136.1070 C   0  0  0  0  0  0  0  0  0  0  0  0
  186.0520  177.3290  135.5750 C   0  0  0  0  0  3  0  0  0  0  0  0
  188.2110  177.8780  134.5950 N   0  0  0  0  0  1  0  0  0  0  0  0
  187.5980  175.5460  135.2120 C   0  0  0  0  0  3  0  0  0  0  0  0
  187.2810  176.9110  135.1430 C   0  0  0  0  0  0  0  0  0  0  0  0
  186.7050  174.6050  135.7700 C   0  0  0  0  0  3  0  0  0  0  0  0
  180.2860  178.7120  143.5770 C   0  0  0  0  0  1  0  0  0  0  0  0
  181.2850  179.5260  143.0190 O   0  0  0  0  0  0  0  0  0  0  0  0
  1  4  1  0  0  0  0
  2 17  1  0  0  0  0
  2 14  2  0  0  0  0
  3  9  1  1  0  0  0
  3  7  1  0  0  0  0
  4 37  1  6  0  0  0
  4 12  1  0  0  0  0
  5 19  1  0  0  0  0
  6  9  2  0  0  0  0
  7 21  1  0  0  0  0
  8 12  1  0  0  0  0
  8 26  1  0  0  0  0
  9 13  1  0  0  0  0
 10  7  1  0  0  0  0
 10  5  1  0  0  0  0
 11  6  1  0  0  0  0
 13 21  1  0  0  0  0
 15 20  1  0  0  0  0
 16 11  2  0  0  0  0
 16 20  1  0  0  0  0
 17 13  1  0  0  0  0
 18  8  1  0  0  0  0
 19 25  1  0  0  0  0
 20  3  1  0  0  0  0
 21 27  1  0  0  0  0
 22  6  1  0  0  0  0
 22  2  1  0  0  0  0
 23 10  1  0  0  0  0
 24  2  2  0  0  0  0
 25 27  1  0  0  0  0
 25 18  1  0  0  0  0
 27  1  1  0  0  0  0
 28 23  1  0  0  0  0
 28 15  1  0  0  0  0
 30 29  1  0  0  0  0
 30 23  1  0  0  0  0
 31 30  2  0  0  0  0
 32 34  1  0  0  0  0
 33 35  1  0  0  0  0
 34 33  2  0  0  0  0
 34 31  1  0  0  0  0
 35 29  2  0  0  0  0
 37 36  1  0  0  0  0
M  END
>  <MODEL>
3

>  <REMARK>
 VINA RESULT:      -5.5      1.313      1.672
  Name = 
  2 active torsions:
  status: ('A' for Active; 'I' for Inactive)
    1  A    between atoms: C_4  and  O_37
    2  A    between atoms: C_23  and  C_30
                            x       y       z     vdW  Elec       q    Type
                         _______ _______ _______ _____ _____    ______ ____

>  <TORSDO>
F 2

$$$$
=
 OpenBabel11122411333D

 37 43  0  0  1  0  0  0  0  0999 V2000
  184.0110  175.0800  137.5800 C   0  0  0  0  0  2  0  0  0  0  0  0
  188.7370  178.3070  137.3620 S   0  0  0  0  0  0  0  0  0  0  0  0
  184.9280  178.1520  139.4190 C   0  0  2  0  0  3  0  0  0  0  0  0
  184.2900  173.6370  137.0880 C   0  0  1  0  0  3  0  0  0  0  0  0
  181.9820  178.1000  137.0410 C   0  0  0  0  0  2  0  0  0  0  0  0
  187.3910  178.2730  139.6940 C   0  0  0  0  0  0  0  0  0  0  0  0
  183.9810  177.5690  138.5560 N   0  0  1  0  0  0  0  0  0  0  0  0
  182.4080  174.0190  135.3380 C   0  0  2  0  0  3  0  0  0  0  0  0
  186.2910  177.8830  138.9510 C   0  0  0  0  0  0  0  0  0  0  0  0
  182.6220  178.2480  138.4560 C   0  0  1  0  0  3  0  0  0  0  0  0
  187.0380  178.7120  141.1590 C   0  0  0  0  0  3  0  0  0  0  0  0
  183.6490  173.2560  135.7660 C   0  0  0  0  0  2  0  0  0  0  0  0
  186.3210  177.3140  137.5580 C   0  0  2  0  0  3  0  0  0  0  0  0
  189.5260  177.0470  137.0220 O   0  0  0  0  0  0  0  0  0  0  0  0
  183.3370  178.5400  141.2970 C   0  0  0  0  0  2  0  0  0  0  0  0
  185.7540  178.7960  141.6220 C   0  0  0  0  0  3  0  0  0  0  0  0
  187.0950  178.2350  136.6750 C   0  0  0  0  0  2  0  0  0  0  0  0
  182.5080  175.4750  134.8330 C   0  0  0  0  0  2  0  0  0  0  0  0
  181.9010  176.7510  136.6940 O   0  0  0  0  0  0  0  0  0  0  0  0
  184.7170  178.2600  140.8340 N   0  0  0  0  0  0  0  0  0  0  0  0
  184.7610  177.4230  137.3210 C   0  0  1  0  0  3  0  0  0  0  0  0
  188.5860  178.5130  139.0880 N   0  0  0  0  0  2  0  0  0  0  0  0
  182.5350  179.6730  139.0870 C   0  0  2  0  0  3  0  0  0  0  0  0
  189.4340  179.5140  136.9020 O   0  0  0  0  0  0  0  0  0  0  0  0
  182.9110  176.5720  135.7870 C   0  0  1  0  0  3  0  0  0  0  0  0
  181.1130  173.4980  135.6310 O   0  0  0  0  0  1  0  0  0  0  0  0
  184.2240  176.2370  136.5110 C   0  0  2  0  0  3  0  0  0  0  0  0
  182.7050  179.7490  140.6160 C   0  0  0  0  0  2  0  0  0  0  0  0
  180.0940  180.1960  139.5220 C   0  0  0  0  0  3  0  0  0  0  0  0
  181.2680  180.4080  138.7520 C   0  0  0  0  0  0  0  0  0  0  0  0
  181.2340  181.2510  137.6120 C   0  0  0  0  0  3  0  0  0  0  0  0
  180.0710  182.7530  136.0920 N   0  0  0  0  0  1  0  0  0  0  0  0
  178.9340  181.7210  138.0510 C   0  0  0  0  0  3  0  0  0  0  0  0
  180.0780  181.8910  137.2560 C   0  0  0  0  0  0  0  0  0  0  0  0
  178.9310  180.8600  139.1700 C   0  0  0  0  0  3  0  0  0  0  0  0
  185.7450  172.2860  136.1260 C   0  0  0  0  0  1  0  0  0  0  0  0
  185.6490  173.3180  137.0730 O   0  0  0  0  0  0  0  0  0  0  0  0
  2 22  1  0  0  0  0
  3  9  1  1  0  0  0
  3 20  1  0  0  0  0
  4 37  1  6  0  0  0
  4  1  1  0  0  0  0
  5 10  1  0  0  0  0
  6 11  1  0  0  0  0
  7  3  1  0  0  0  0
  8 26  1  0  0  0  0
  8 12  1  0  0  0  0
  9  6  2  0  0  0  0
 10  7  1  0  0  0  0
 10 23  1  0  0  0  0
 11 16  2  0  0  0  0
 12  4  1  0  0  0  0
 13  9  1  0  0  0  0
 14  2  2  0  0  0  0
 17  2  1  0  0  0  0
 17 13  1  0  0  0  0
 18  8  1  0  0  0  0
 18 25  1  0  0  0  0
 19  5  1  0  0  0  0
 20 15  1  0  0  0  0
 20 16  1  0  0  0  0
 21 13  1  0  0  0  0
 21  7  1  0  0  0  0
 22  6  1  0  0  0  0
 23 28  1  0  0  0  0
 24  2  2  0  0  0  0
 25 27  1  0  0  0  0
 25 19  1  0  0  0  0
 27 21  1  0  0  0  0
 27  1  1  0  0  0  0
 28 15  1  0  0  0  0
 30 23  1  0  0  0  0
 30 29  2  0  0  0  0
 31 30  1  0  0  0  0
 32 34  1  0  0  0  0
 33 35  2  0  0  0  0
 34 31  2  0  0  0  0
 34 33  1  0  0  0  0
 35 29  1  0  0  0  0
 36 37  1  0  0  0  0
M  END
>  <MODEL>
4

>  <REMARK>
 VINA RESULT:      -5.4      3.333      7.872
  Name = 
  2 active torsions:
  status: ('A' for Active; 'I' for Inactive)
    1  A    between atoms: C_4  and  O_37
    2  A    between atoms: C_23  and  C_30
                            x       y       z     vdW  Elec       q    Type
                         _______ _______ _______ _____ _____    ______ ____

>  <TORSDO>
F 2

$$$$
=
 OpenBabel11122411333D

 37 43  0  0  1  0  0  0  0  0999 V2000
  186.0270  178.5540  136.9680 C   0  0  0  0  0  2  0  0  0  0  0  0
  182.9810  173.7400  136.3910 S   0  0  0  0  0  0  0  0  0  0  0  0
  182.8530  177.4990  138.5390 C   0  0  2  0  0  3  0  0  0  0  0  0
  186.9390  178.7960  135.7390 C   0  0  1  0  0  3  0  0  0  0  0  0
  185.9600  178.1020  140.6180 C   0  0  0  0  0  2  0  0  0  0  0  0
  181.6180  175.9760  137.0180 C   0  0  0  0  0  0  0  0  0  0  0  0
  184.1750  177.9140  138.7870 N   0  0  1  0  0  0  0  0  0  0  0  0
  188.9340  178.8460  137.4030 C   0  0  2  0  0  3  0  0  0  0  0  0
  182.8190  176.4660  137.5000 C   0  0  0  0  0  0  0  0  0  0  0  0
  184.4940  178.4180  140.1880 C   0  0  1  0  0  3  0  0  0  0  0  0
  180.3730  176.8320  137.4440 C   0  0  0  0  0  3  0  0  0  0  0  0
  188.4300  178.6480  135.9840 C   0  0  0  0  0  2  0  0  0  0  0  0
  184.1880  175.9280  137.1760 C   0  0  2  0  0  3  0  0  0  0  0  0
  183.4920  173.6440  134.9570 O   0  0  0  0  0  0  0  0  0  0  0  0
  181.7750  179.4300  139.6870 C   0  0  0  0  0  2  0  0  0  0  0  0
  180.4600  177.9000  138.2930 C   0  0  0  0  0  3  0  0  0  0  0  0
  184.2110  174.4630  137.4570 C   0  0  0  0  0  2  0  0  0  0  0  0
  188.6820  177.7780  138.4890 C   0  0  0  0  0  2  0  0  0  0  0  0
  186.8540  178.6170  139.6780 O   0  0  0  0  0  0  0  0  0  0  0  0
  181.7360  178.3950  138.6280 N   0  0  0  0  0  0  0  0  0  0  0  0
  184.9410  176.7650  138.2870 C   0  0  1  0  0  3  0  0  0  0  0  0
  181.5440  174.7260  136.4850 N   0  0  0  0  0  2  0  0  0  0  0  0
  183.4020  178.1380  141.2670 C   0  0  2  0  0  3  0  0  0  0  0  0
  182.5660  172.4270  136.8990 O   0  0  0  0  0  0  0  0  0  0  0  0
  187.2760  177.5210  138.9740 C   0  0  1  0  0  3  0  0  0  0  0  0
  189.4230  180.1200  137.8150 O   0  0  0  0  0  1  0  0  0  0  0  0
  186.3190  177.2360  137.8080 C   0  0  2  0  0  3  0  0  0  0  0  0
  182.0570  178.8640  141.0750 C   0  0  0  0  0  2  0  0  0  0  0  0
  182.9940  179.1000  143.5760 C   0  0  0  0  0  3  0  0  0  0  0  0
  183.8520  178.4200  142.6720 C   0  0  0  0  0  0  0  0  0  0  0  0
  185.1720  178.0750  143.0620 C   0  0  0  0  0  3  0  0  0  0  0  0
  186.9730  177.9980  144.6970 N   0  0  0  0  0  1  0  0  0  0  0  0
  184.7530  178.9920  145.2270 C   0  0  0  0  0  3  0  0  0  0  0  0
  185.6240  178.3680  144.3200 C   0  0  0  0  0  0  0  0  0  0  0  0
  183.4480  179.3790  144.8540 C   0  0  0  0  0  3  0  0  0  0  0  0
  187.4790  176.9890  134.5940 C   0  0  0  0  0  1  0  0  0  0  0  0
  186.5590  178.0500  134.6220 O   0  0  0  0  0  0  0  0  0  0  0  0
  1 27  1  0  0  0  0
  2 22  1  0  0  0  0
  2 24  2  0  0  0  0
  2 17  1  0  0  0  0
  3  9  1  6  0  0  0
  3 20  1  0  0  0  0
  3  7  1  0  0  0  0
  4 37  1  6  0  0  0
  4 12  1  0  0  0  0
  4  1  1  0  0  0  0
  6 11  1  0  0  0  0
  6  9  2  0  0  0  0
  7 10  1  0  0  0  0
  8 26  1  0  0  0  0
  8 18  1  0  0  0  0
 10  5  1  0  0  0  0
 10 23  1  0  0  0  0
 11 16  2  0  0  0  0
 12  8  1  0  0  0  0
 13 17  1  0  0  0  0
 13  9  1  0  0  0  0
 13 21  1  0  0  0  0
 14  2  2  0  0  0  0
 15 28  1  0  0  0  0
 16 20  1  0  0  0  0
 18 25  1  0  0  0  0
 19  5  1  0  0  0  0
 20 15  1  0  0  0  0
 21  7  1  0  0  0  0
 22  6  1  0  0  0  0
 23 30  1  0  0  0  0
 25 19  1  0  0  0  0
 27 21  1  0  0  0  0
 27 25  1  0  0  0  0
 28 23  1  0  0  0  0
 29 35  1  0  0  0  0
 30 31  1  0  0  0  0
 30 29  2  0  0  0  0
 31 34  2  0  0  0  0
 34 32  1  0  0  0  0
 34 33  1  0  0  0  0
 35 33  2  0  0  0  0
 36 37  1  0  0  0  0
M  END
>  <MODEL>
5

>  <REMARK>
 VINA RESULT:      -5.1      3.279      6.784
  Name = 
  2 active torsions:
  status: ('A' for Active; 'I' for Inactive)
    1  A    between atoms: C_4  and  O_37
    2  A    between atoms: C_23  and  C_30
                            x       y       z     vdW  Elec       q    Type
                         _______ _______ _______ _____ _____    ______ ____

>  <TORSDO>
F 2

$$$$
=
 OpenBabel11122411333D

 37 43  0  0  1  0  0  0  0  0999 V2000
  185.9940  177.0930  135.8490 C   0  0  0  0  0  2  0  0  0  0  0  0
  183.9660  171.7790  136.5150 S   0  0  0  0  0  0  0  0  0  0  0  0
  182.5280  175.8480  136.1590 C   0  0  2  0  0  3  0  0  0  0  0  0
  187.4070  177.0820  135.2140 C   0  0  1  0  0  3  0  0  0  0  0  0
  184.0160  178.1600  138.7620 C   0  0  0  0  0  2  0  0  0  0  0  0
  182.3690  173.5430  135.2550 C   0  0  0  0  0  0  0  0  0  0  0  0
  183.4920  176.7110  136.7130 N   0  0  1  0  0  0  0  0  0  0  0  0
  188.2040  178.4090  137.3010 C   0  0  2  0  0  3  0  0  0  0  0  0
  183.1040  174.5270  135.8930 C   0  0  0  0  0  0  0  0  0  0  0  0
  182.9910  177.8100  137.6390 C   0  0  1  0  0  3  0  0  0  0  0  0
  181.0480  174.0720  134.5940 C   0  0  0  0  0  3  0  0  0  0  0  0
  188.5430  177.5090  136.1240 C   0  0  0  0  0  2  0  0  0  0  0  0
  184.4590  174.3510  136.5240 C   0  0  2  0  0  3  0  0  0  0  0  0
  185.1660  171.2710  135.7220 O   0  0  0  0  0  0  0  0  0  0  0  0
  180.9090  177.6480  135.5640 C   0  0  0  0  0  2  0  0  0  0  0  0
  180.6160  175.3630  134.7230 C   0  0  0  0  0  3  0  0  0  0  0  0
  184.4020  173.2100  137.4830 C   0  0  0  0  0  2  0  0  0  0  0  0
  187.4660  177.8510  138.5360 C   0  0  0  0  0  2  0  0  0  0  0  0
  185.2470  178.4970  138.1950 O   0  0  0  0  0  0  0  0  0  0  0  0
  181.4910  176.3150  135.2820 N   0  0  0  0  0  0  0  0  0  0  0  0
  184.4630  175.7520  137.2570 C   0  0  1  0  0  3  0  0  0  0  0  0
  182.6530  172.2270  135.4580 N   0  0  0  0  0  2  0  0  0  0  0  0
  181.5080  177.6720  138.1050 C   0  0  2  0  0  3  0  0  0  0  0  0
  183.4110  170.7260  137.3740 O   0  0  0  0  0  0  0  0  0  0  0  0
  186.0330  177.3970  138.4100 C   0  0  1  0  0  3  0  0  0  0  0  0
  188.3340  179.8240  137.1770 O   0  0  0  0  0  1  0  0  0  0  0  0
  185.8590  176.3860  137.2670 C   0  0  2  0  0  3  0  0  0  0  0  0
  180.4370  177.8090  137.0050 C   0  0  0  0  0  2  0  0  0  0  0  0
  181.2710  178.2390  140.5630 C   0  0  0  0  0  3  0  0  0  0  0  0
  181.1260  178.6220  139.2040 C   0  0  0  0  0  0  0  0  0  0  0  0
  180.5430  179.8720  138.8710 C   0  0  0  0  0  3  0  0  0  0  0  0
  179.5550  182.0070  139.4890 N   0  0  0  0  0  1  0  0  0  0  0  0
  180.3340  180.3730  141.1970 C   0  0  0  0  0  3  0  0  0  0  0  0
  180.1400  180.7330  139.8540 C   0  0  0  0  0  0  0  0  0  0  0  0
  180.8790  179.1210  141.5560 C   0  0  0  0  0  3  0  0  0  0  0  0
  188.9770  175.5350  135.1160 C   0  0  0  0  0  1  0  0  0  0  0  0
  187.7170  175.8710  134.5940 O   0  0  0  0  0  0  0  0  0  0  0  0
  1 27  1  0  0  0  0
  2 24  2  0  0  0  0
  2 17  1  0  0  0  0
  3  9  1  6  0  0  0
  3  7  1  0  0  0  0
  4 37  1  1  0  0  0
  4  1  1  0  0  0  0
  4 12  1  0  0  0  0
  6 22  1  0  0  0  0
  6  9  2  0  0  0  0
  7 21  1  0  0  0  0
  7 10  1  0  0  0  0
  8 18  1  0  0  0  0
  9 13  1  0  0  0  0
 10 23  1  0  0  0  0
 10  5  1  0  0  0  0
 11 16  2  0  0  0  0
 11  6  1  0  0  0  0
 12  8  1  0  0  0  0
 13 21  1  0  0  0  0
 13 17  1  0  0  0  0
 14  2  2  0  0  0  0
 15 28  1  0  0  0  0
 16 20  1  0  0  0  0
 19 25  1  0  0  0  0
 19  5  1  0  0  0  0
 20 15  1  0  0  0  0
 20  3  1  0  0  0  0
 21 27  1  0  0  0  0
 22  2  1  0  0  0  0
 23 30  1  0  0  0  0
 25 18  1  0  0  0  0
 26  8  1  0  0  0  0
 27 25  1  0  0  0  0
 28 23  1  0  0  0  0
 29 35  1  0  0  0  0
 30 29  2  0  0  0  0
 31 30  1  0  0  0  0
 31 34  2  0  0  0  0
 32 34  1  0  0  0  0
 33 35  2  0  0  0  0
 34 33  1  0  0  0  0
 37 36  1  0  0  0  0
M  END
>  <MODEL>
6

>  <REMARK>
 VINA RESULT:      -4.9      3.524      7.607
  Name = 
  2 active torsions:
  status: ('A' for Active; 'I' for Inactive)
    1  A    between atoms: C_4  and  O_37
    2  A    between atoms: C_23  and  C_30
                            x       y       z     vdW  Elec       q    Type
                         _______ _______ _______ _____ _____    ______ ____

>  <TORSDO>
F 2

$$$$
=
 OpenBabel11122411333D

 37 43  0  0  1  0  0  0  0  0999 V2000
  182.4430  179.3890  137.7130 C   0  0  0  0  0  2  0  0  0  0  0  0
  184.8610  178.7030  142.8580 S   0  0  0  0  0  0  0  0  0  0  0  0
  185.5770  177.7000  138.7060 C   0  0  2  0  0  3  0  0  0  0  0  0
  181.4800  180.6030  137.6990 C   0  0  1  0  0  3  0  0  0  0  0  0
  182.7170  175.7640  137.1540 C   0  0  0  0  0  2  0  0  0  0  0  0
  186.5150  178.7760  140.7350 C   0  0  0  0  0  0  0  0  0  0  0  0
  184.3330  177.5310  138.0690 N   0  0  1  0  0  0  0  0  0  0  0  0
  179.6280  178.9490  136.9340 C   0  0  2  0  0  3  0  0  0  0  0  0
  185.4170  178.4090  139.9790 C   0  0  0  0  0  0  0  0  0  0  0  0
  184.1760  176.3180  137.1630 C   0  0  1  0  0  3  0  0  0  0  0  0
  187.8790  178.6530  139.9660 C   0  0  0  0  0  3  0  0  0  0  0  0
  180.0040  180.2730  137.5770 C   0  0  0  0  0  2  0  0  0  0  0  0
  183.9750  178.5190  140.4000 C   0  0  2  0  0  3  0  0  0  0  0  0
  184.2420  180.0320  143.2750 O   0  0  0  0  0  0  0  0  0  0  0  0
  186.9510  177.1790  136.6930 C   0  0  0  0  0  2  0  0  0  0  0  0
  187.9770  178.1340  138.7050 C   0  0  0  0  0  3  0  0  0  0  0  0
  183.8020  177.8380  141.7160 C   0  0  0  0  0  2  0  0  0  0  0  0
  179.8320  177.6170  137.6870 C   0  0  0  0  0  2  0  0  0  0  0  0
  181.8240  176.7770  136.8020 O   0  0  0  0  0  0  0  0  0  0  0  0
  186.7940  177.9060  137.9740 N   0  0  0  0  0  0  0  0  0  0  0  0
  183.4050  177.6610  139.2000 C   0  0  1  0  0  3  0  0  0  0  0  0
  186.4050  178.9400  142.0810 N   0  0  0  0  0  2  0  0  0  0  0  0
  185.3010  175.2430  137.2780 C   0  0  2  0  0  3  0  0  0  0  0  0
  185.1550  177.8620  144.0240 O   0  0  0  0  0  0  0  0  0  0  0  0
  181.2280  177.1300  137.9840 C   0  0  1  0  0  3  0  0  0  0  0  0
  179.3220  178.8930  135.5420 O   0  0  0  0  0  1  0  0  0  0  0  0
  182.0600  178.2030  138.7010 C   0  0  2  0  0  3  0  0  0  0  0  0
  186.7050  175.6790  136.8150 C   0  0  0  0  0  2  0  0  0  0  0  0
  185.4510  173.7430  135.2410 C   0  0  0  0  0  3  0  0  0  0  0  0
  184.9880  173.9580  136.5650 C   0  0  0  0  0  0  0  0  0  0  0  0
  184.1560  172.9980  137.1970 C   0  0  0  0  0  3  0  0  0  0  0  0
  182.9700  170.8730  137.2180 N   0  0  0  0  0  1  0  0  0  0  0  0
  184.3180  171.6100  135.2600 C   0  0  0  0  0  3  0  0  0  0  0  0
  183.8140  171.8420  136.5490 C   0  0  0  0  0  0  0  0  0  0  0  0
  185.1180  172.5640  134.5950 C   0  0  0  0  0  3  0  0  0  0  0  0
  180.4170  181.6290  139.3370 C   0  0  0  0  0  1  0  0  0  0  0  0
  181.6910  181.4780  138.7650 O   0  0  0  0  0  0  0  0  0  0  0  0
  1 27  1  0  0  0  0
  2 14  2  0  0  0  0
  2 24  2  0  0  0  0
  3  9  1  1  0  0  0
  4  1  1  0  0  0  0
  4 37  1  1  0  0  0
  5 10  1  0  0  0  0
  6 22  1  0  0  0  0
  7  3  1  0  0  0  0
  7 21  1  0  0  0  0
  8 12  1  0  0  0  0
  8 18  1  0  0  0  0
  9 13  1  0  0  0  0
  9  6  2  0  0  0  0
 10 23  1  0  0  0  0
 10  7  1  0  0  0  0
 11  6  1  0  0  0  0
 12  4  1  0  0  0  0
 13 17  1  0  0  0  0
 15 28  1  0  0  0  0
 15 20  1  0  0  0  0
 16 11  2  0  0  0  0
 17  2  1  0  0  0  0
 18 25  1  0  0  0  0
 19  5  1  0  0  0  0
 19 25  1  0  0  0  0
 20 16  1  0  0  0  0
 20  3  1  0  0  0  0
 21 13  1  0  0  0  0
 22  2  1  0  0  0  0
 25 27  1  0  0  0  0
 26  8  1  0  0  0  0
 27 21  1  0  0  0  0
 28 23  1  0  0  0  0
 29 30  1  0  0  0  0
 30 31  2  0  0  0  0
 30 23  1  0  0  0  0
 33 34  2  0  0  0  0
 34 31  1  0  0  0  0
 34 32  1  0  0  0  0
 35 29  2  0  0  0  0
 35 33  1  0  0  0  0
 37 36  1  0  0  0  0
M  END
>  <MODEL>
7

>  <REMARK>
 VINA RESULT:      -4.9      2.904      5.919
  Name = 
  2 active torsions:
  status: ('A' for Active; 'I' for Inactive)
    1  A    between atoms: C_4  and  O_37
    2  A    between atoms: C_23  and  C_30
                            x       y       z     vdW  Elec       q    Type
                         _______ _______ _______ _____ _____    ______ ____

>  <TORSDO>
F 2

$$$$
=
 OpenBabel11122411333D

 37 43  0  0  1  0  0  0  0  0999 V2000
  186.5340  177.8400  136.4070 C   0  0  0  0  0  2  0  0  0  0  0  0
  184.5750  172.4820  135.9040 S   0  0  0  0  0  0  0  0  0  0  0  0
  183.1530  176.4430  136.9300 C   0  0  2  0  0  3  0  0  0  0  0  0
  187.8200  178.0520  135.5670 C   0  0  1  0  0  3  0  0  0  0  0  0
  185.0910  177.9990  139.7860 C   0  0  0  0  0  2  0  0  0  0  0  0
  182.8130  174.4700  135.4640 C   0  0  0  0  0  0  0  0  0  0  0  0
  184.2090  177.1510  137.5330 N   0  0  1  0  0  0  0  0  0  0  0  0
  188.9760  178.7800  137.7780 C   0  0  2  0  0  3  0  0  0  0  0  0
  183.6580  175.2660  136.2170 C   0  0  0  0  0  0  0  0  0  0  0  0
  183.8860  177.9370  138.7970 C   0  0  1  0  0  3  0  0  0  0  0  0
  181.4060  175.1160  135.2030 C   0  0  0  0  0  3  0  0  0  0  0  0
  189.0990  178.2510  136.3590 C   0  0  0  0  0  2  0  0  0  0  0  0
  185.0980  174.9690  136.5420 C   0  0  2  0  0  3  0  0  0  0  0  0
  185.6170  172.2530  134.8140 O   0  0  0  0  0  0  0  0  0  0  0  0
  181.4830  178.2810  137.1330 C   0  0  0  0  0  2  0  0  0  0  0  0
  181.0200  176.3060  135.7540 C   0  0  0  0  0  3  0  0  0  0  0  0
  185.1880  173.6060  137.1430 C   0  0  0  0  0  2  0  0  0  0  0  0
  188.4490  177.8800  138.9160 C   0  0  0  0  0  2  0  0  0  0  0  0
  186.2130  178.5200  139.1390 O   0  0  0  0  0  0  0  0  0  0  0  0
  181.9910  177.0970  136.4010 N   0  0  0  0  0  0  0  0  0  0  0  0
  185.2450  176.1140  137.6220 C   0  0  1  0  0  3  0  0  0  0  0  0
  183.1090  173.1600  135.2450 N   0  0  0  0  0  2  0  0  0  0  0  0
  182.5010  177.6260  139.4460 C   0  0  2  0  0  3  0  0  0  0  0  0
  184.1580  171.2170  136.5190 O   0  0  0  0  0  0  0  0  0  0  0  0
  187.0090  177.4300  138.9080 C   0  0  1  0  0  3  0  0  0  0  0  0
  189.1030  180.1780  138.0300 O   0  0  0  0  0  1  0  0  0  0  0  0
  186.6310  176.7670  137.5760 C   0  0  2  0  0  3  0  0  0  0  0  0
  181.2620  178.0240  138.6200 C   0  0  0  0  0  2  0  0  0  0  0  0
  181.0930  178.8330  141.1720 C   0  0  0  0  0  3  0  0  0  0  0  0
  182.3240  178.2240  140.8120 C   0  0  0  0  0  0  0  0  0  0  0  0
  183.4230  178.2480  141.7080 C   0  0  0  0  0  3  0  0  0  0  0  0
  184.4370  178.8370  143.8400 N   0  0  0  0  0  1  0  0  0  0  0  0
  182.0680  179.3860  143.3120 C   0  0  0  0  0  3  0  0  0  0  0  0
  183.3020  178.8330  142.9390 C   0  0  0  0  0  0  0  0  0  0  0  0
  180.9680  179.4080  142.4260 C   0  0  0  0  0  3  0  0  0  0  0  0
  189.2520  176.5070  134.9110 C   0  0  0  0  0  1  0  0  0  0  0  0
  188.0040  177.0680  134.5940 O   0  0  0  0  0  0  0  0  0  0  0  0
  1 27  1  0  0  0  0
  2 24  2  0  0  0  0
  2 17  1  0  0  0  0
  3  9  1  6  0  0  0
  3  7  1  0  0  0  0
  4 37  1  6  0  0  0
  4 12  1  0  0  0  0
  4  1  1  0  0  0  0
  6  9  2  0  0  0  0
  7 21  1  0  0  0  0
  7 10  1  0  0  0  0
  8 26  1  0  0  0  0
  8 18  1  0  0  0  0
  9 13  1  0  0  0  0
 10 23  1  0  0  0  0
 10  5  1  0  0  0  0
 11  6  1  0  0  0  0
 11 16  2  0  0  0  0
 12  8  1  0  0  0  0
 13 17  1  0  0  0  0
 13 21  1  0  0  0  0
 14  2  2  0  0  0  0
 15 28  1  0  0  0  0
 16 20  1  0  0  0  0
 19  5  1  0  0  0  0
 20  3  1  0  0  0  0
 20 15  1  0  0  0  0
 22  6  1  0  0  0  0
 22  2  1  0  0  0  0
 23 30  1  0  0  0  0
 25 18  1  0  0  0  0
 25 19  1  0  0  0  0
 27 21  1  0  0  0  0
 27 25  1  0  0  0  0
 28 23  1  0  0  0  0
 29 35  1  0  0  0  0
 30 29  2  0  0  0  0
 30 31  1  0  0  0  0
 31 34  2  0  0  0  0
 34 33  1  0  0  0  0
 34 32  1  0  0  0  0
 35 33  2  0  0  0  0
 37 36  1  0  0  0  0
M  END
>  <MODEL>
8

>  <REMARK>
 VINA RESULT:      -4.7      3.376      7.220
  Name = 
  2 active torsions:
  status: ('A' for Active; 'I' for Inactive)
    1  A    between atoms: C_4  and  O_37
    2  A    between atoms: C_23  and  C_30
                            x       y       z     vdW  Elec       q    Type
                         _______ _______ _______ _____ _____    ______ ____

>  <TORSDO>
F 2

$$$$
=
 OpenBabel11122411333D

 37 43  0  0  1  0  0  0  0  0999 V2000
  189.8950  176.1720  141.1540 C   0  0  0  0  0  2  0  0  0  0  0  0
  186.8800  178.7460  137.0220 S   0  0  0  0  0  0  0  0  0  0  0  0
  189.7480  175.5380  137.5160 C   0  0  2  0  0  3  0  0  0  0  0  0
  189.2370  176.3740  142.5420 C   0  0  1  0  0  3  0  0  0  0  0  0
  192.9530  176.6840  139.1750 C   0  0  0  0  0  2  0  0  0  0  0  0
  187.5120  176.1570  136.6360 C   0  0  0  0  0  0  0  0  0  0  0  0
  190.5960  175.8620  138.5920 N   0  0  1  0  0  0  0  0  0  0  0  0
  191.4920  177.4150  143.3060 C   0  0  2  0  0  3  0  0  0  0  0  0
  188.5380  176.3650  137.5410 C   0  0  0  0  0  0  0  0  0  0  0  0
  192.0890  175.6500  138.3890 C   0  0  1  0  0  3  0  0  0  0  0  0
  187.6350  174.8070  135.8450 C   0  0  0  0  0  3  0  0  0  0  0  0
  189.9930  177.2680  143.5080 C   0  0  0  0  0  2  0  0  0  0  0  0
  188.6410  177.5080  138.5150 C   0  0  2  0  0  3  0  0  0  0  0  0
  185.7930  179.0260  138.0540 O   0  0  0  0  0  0  0  0  0  0  0  0
  190.8660  173.3780  136.9720 C   0  0  0  0  0  2  0  0  0  0  0  0
  188.7080  173.9680  135.9660 C   0  0  0  0  0  3  0  0  0  0  0  0
  188.4960  178.7930  137.7700 C   0  0  0  0  0  2  0  0  0  0  0  0
  192.0560  178.2520  142.1380 C   0  0  0  0  0  2  0  0  0  0  0  0
  192.6170  176.6540  140.5300 O   0  0  0  0  0  0  0  0  0  0  0  0
  189.6350  174.2030  137.0000 N   0  0  0  0  0  0  0  0  0  0  0  0
  190.1400  177.2180  138.9260 C   0  0  1  0  0  3  0  0  0  0  0  0
  186.6730  177.1720  136.2960 N   0  0  0  0  0  2  0  0  0  0  0  0
  192.5360  175.3830  136.9170 C   0  0  2  0  0  3  0  0  0  0  0  0
  186.8060  179.6870  135.8980 O   0  0  0  0  0  0  0  0  0  0  0  0
  191.8630  177.7810  140.7180 C   0  0  1  0  0  3  0  0  0  0  0  0
  192.3940  176.5830  144.0330 O   0  0  0  0  0  1  0  0  0  0  0  0
  190.3860  177.4910  140.4140 C   0  0  2  0  0  3  0  0  0  0  0  0
  192.0410  174.0670  136.2860 C   0  0  0  0  0  2  0  0  0  0  0  0
  194.5910  176.3170  135.7660 C   0  0  0  0  0  3  0  0  0  0  0  0
  194.0240  175.4290  136.7170 C   0  0  0  0  0  0  0  0  0  0  0  0
  194.8490  174.5190  137.4270 C   0  0  0  0  0  3  0  0  0  0  0  0
  197.0240  173.5720  137.9680 N   0  0  0  0  0  1  0  0  0  0  0  0
  196.7640  175.4210  136.3230 C   0  0  0  0  0  3  0  0  0  0  0  0
  196.2020  174.5050  137.2250 C   0  0  0  0  0  0  0  0  0  0  0  0
  195.9630  176.3130  135.5770 C   0  0  0  0  0  3  0  0  0  0  0  0
  187.5550  177.0710  143.7880 C   0  0  0  0  0  1  0  0  0  0  0  0
  187.9030  176.7760  142.4600 O   0  0  0  0  0  0  0  0  0  0  0  0
  1  4  1  0  0  0  0
  2 17  1  0  0  0  0
  2 14  2  0  0  0  0
  3  9  1  1  0  0  0
  3  7  1  0  0  0  0
  4 37  1  6  0  0  0
  4 12  1  0  0  0  0
  5 19  1  0  0  0  0
  6  9  2  0  0  0  0
  7 21  1  0  0  0  0
  8 12  1  0  0  0  0
  8 26  1  0  0  0  0
  9 13  1  0  0  0  0
 10  7  1  0  0  0  0
 10  5  1  0  0  0  0
 11 16  2  0  0  0  0
 11  6  1  0  0  0  0
 13 21  1  0  0  0  0
 15 20  1  0  0  0  0
 16 20  1  0  0  0  0
 17 13  1  0  0  0  0
 18  8  1  0  0  0  0
 19 25  1  0  0  0  0
 20  3  1  0  0  0  0
 21 27  1  0  0  0  0
 22  6  1  0  0  0  0
 22  2  1  0  0  0  0
 23 10  1  0  0  0  0
 24  2  2  0  0  0  0
 25 18  1  0  0  0  0
 27 25  1  0  0  0  0
 27  1  1  0  0  0  0
 28 23  1  0  0  0  0
 28 15  1  0  0  0  0
 29 30  1  0  0  0  0
 30 23  1  0  0  0  0
 30 31  2  0  0  0  0
 33 34  2  0  0  0  0
 34 31  1  0  0  0  0
 34 32  1  0  0  0  0
 35 29  2  0  0  0  0
 35 33  1  0  0  0  0
 37 36  1  0  0  0  0
M  END
>  <MODEL>
9

>  <REMARK>
 VINA RESULT:      -4.6      4.944      7.304
  Name = 
  2 active torsions:
  status: ('A' for Active; 'I' for Inactive)
    1  A    between atoms: C_4  and  O_37
    2  A    between atoms: C_23  and  C_30
                            x       y       z     vdW  Elec       q    Type
                         _______ _______ _______ _____ _____    ______ ____

>  <TORSDO>
F 2

$$$$
