=
 OpenBabel11122410453D

 32 37  0  0  1  0  0  0  0  0999 V2000
  181.1140  178.7690  139.7960 C   0  0  0  0  0  2  0  0  0  0  0  0
  186.0110  178.5750  142.7600 C   0  0  1  0  0  3  0  0  0  0  0  0
  189.8810  177.6780  139.8370 C   0  0  0  0  0  2  0  0  0  0  0  0
  190.6140  177.8780  141.1650 C   0  0  0  0  0  2  0  0  0  0  0  0
  186.4320  178.4360  145.2980 N   0  0  0  0  0  0  0  0  0  0  0  0
  187.2390  177.9210  146.3570 C   0  0  0  0  0  0  0  0  0  0  0  0
  183.7890  178.1620  141.6310 N   0  0  2  0  0  0  0  0  0  0  0  0
  185.8090  178.8590  140.3280 C   0  0  0  0  0  2  0  0  0  0  0  0
  189.0610  176.8040  147.2540 N   0  0  0  0  0  0  0  0  0  0  0  0
  183.5840  178.9930  139.2850 C   0  0  0  0  0  2  0  0  0  0  0  0
  188.3610  177.5760  140.0190 C   0  0  0  0  0  2  0  0  0  0  0  0
  186.4860  178.0250  141.4200 C   0  0  1  0  0  3  0  0  0  0  0  0
  187.9480  178.0690  141.3380 N   0  0  1  0  0  0  0  0  0  0  0  0
  188.0080  177.4280  143.7330 C   0  0  0  0  0  0  0  0  0  0  0  0
  188.3080  177.4260  148.3450 C   0  0  0  0  0  2  0  0  0  0  0  0
  181.4620  177.8480  140.9680 C   0  0  0  0  0  2  0  0  0  0  0  0
  184.3190  179.1100  140.6210 C   0  0  1  0  0  3  0  0  0  0  0  0
  187.1400  178.1230  147.6640 C   0  0  0  0  0  3  0  0  0  0  0  0
  182.4090  178.5030  141.9620 C   0  0  0  0  0  2  0  0  0  0  0  0
  182.2430  179.7060  139.3490 C   0  0  1  0  0  3  0  0  0  0  0  0
  190.0130  177.0020  142.2630 C   0  0  0  0  0  2  0  0  0  0  0  0
  188.4750  177.1100  142.3300 C   0  0  2  0  0  3  0  0  0  0  0  0
  188.7870  176.9340  144.8520 N   0  0  0  0  0  0  0  0  0  0  0  0
  184.5140  178.2690  142.9120 C   0  0  0  0  0  2  0  0  0  0  0  0
  185.3570  179.3780  145.5860 C   0  0  0  0  0  1  0  0  0  0  0  0
  190.4470  176.3830  147.3430 C   0  0  0  0  0  1  0  0  0  0  0  0
  186.8300  178.0930  143.9410 C   0  0  0  0  0  0  0  0  0  0  0  0
  188.3900  177.1560  146.0650 C   0  0  0  0  0  0  0  0  0  0  0  0
  181.9300  180.2650  138.0430 N   0  0  0  0  0  2  0  0  0  0  0  0
  181.0910  181.4100  137.8750 C   0  0  0  0  0  0  0  0  0  0  0  0
  180.6050  182.0030  138.8740 O   0  0  0  0  0  0  0  0  0  0  0  0
  180.7970  181.9110  136.5080 C   0  0  0  0  0  1  0  0  0  0  0  0
  1 16  1  0  0  0  0
  2 24  1  1  0  0  0
  2 27  1  0  0  0  0
  3 11  1  0  0  0  0
  3  4  1  0  0  0  0
  4 21  1  0  0  0  0
  5 25  1  0  0  0  0
  5  6  1  0  0  0  0
  6 18  2  0  0  0  0
  7 19  1  1  0  0  0
  7 24  1  0  0  0  0
  8 17  1  0  0  0  0
  9 26  1  0  0  0  0
  9 15  1  0  0  0  0
 10 20  1  0  0  0  0
 12  8  1  6  0  0  0
 12  2  1  0  0  0  0
 13 11  1  6  0  0  0
 13 12  1  0  0  0  0
 13 22  1  0  0  0  0
 14 27  2  0  0  0  0
 14 23  1  0  0  0  0
 16 19  1  0  0  0  0
 17 10  1  6  0  0  0
 17  7  1  0  0  0  0
 18 15  1  0  0  0  0
 20 29  1  6  0  0  0
 20  1  1  0  0  0  0
 22 21  1  1  0  0  0
 22 14  1  0  0  0  0
 23 28  2  0  0  0  0
 27  5  1  0  0  0  0
 28  6  1  0  0  0  0
 28  9  1  0  0  0  0
 30 29  1  0  0  0  0
 30 31  2  0  0  0  0
 32 30  1  0  0  0  0
M  END
>  <MODEL>
1

>  <REMARK>
 VINA RESULT:      -9.2      0.000      0.000
  Name = 
  1 active torsions:
  status: ('A' for Active; 'I' for Inactive)
    1  A    between atoms: C_20  and  N_29
                            x       y       z     vdW  Elec       q    Type
                         _______ _______ _______ _____ _____    ______ ____

>  <TORSDO>
F 1

$$$$
=
 OpenBabel11122410453D

 32 37  0  0  1  0  0  0  0  0999 V2000
  188.1630  178.7520  136.6290 C   0  0  0  0  0  2  0  0  0  0  0  0
  187.5580  177.6240  142.2110 C   0  0  1  0  0  3  0  0  0  0  0  0
  183.1760  179.1180  143.9120 C   0  0  0  0  0  2  0  0  0  0  0  0
  183.7190  178.4510  145.1770 C   0  0  0  0  0  2  0  0  0  0  0  0
  189.2930  176.9130  143.9780 N   0  0  0  0  0  0  0  0  0  0  0  0
  189.7380  177.0010  145.3310 C   0  0  0  0  0  0  0  0  0  0  0  0
  188.1060  178.5400  139.9220 N   0  0  2  0  0  0  0  0  0  0  0  0
  185.7420  178.1480  140.6420 C   0  0  0  0  0  2  0  0  0  0  0  0
  189.5770  177.6330  147.5550 N   0  0  0  0  0  0  0  0  0  0  0  0
  186.2410  178.5210  138.2610 C   0  0  0  0  0  2  0  0  0  0  0  0
  184.2490  179.2700  142.8260 C   0  0  0  0  0  2  0  0  0  0  0  0
  186.3570  178.5370  141.9900 C   0  0  1  0  0  3  0  0  0  0  0  0
  185.4090  178.4130  143.1000 N   0  0  1  0  0  0  0  0  0  0  0  0
  187.3580  178.2480  144.6240 C   0  0  0  0  0  0  0  0  0  0  0  0
  190.7370  176.7540  147.4000 C   0  0  0  0  0  2  0  0  0  0  0  0
  189.0570  179.2220  137.7800 C   0  0  0  0  0  2  0  0  0  0  0  0
  186.8070  177.9280  139.5530 C   0  0  1  0  0  3  0  0  0  0  0  0
  190.7620  176.4000  145.9210 C   0  0  0  0  0  3  0  0  0  0  0  0
  189.1150  178.2150  138.9190 C   0  0  0  0  0  2  0  0  0  0  0  0
  186.9420  177.9260  137.0500 C   0  0  1  0  0  3  0  0  0  0  0  0
  185.1130  178.9720  145.5200 C   0  0  0  0  0  2  0  0  0  0  0  0
  186.0630  178.9620  144.3030 C   0  0  2  0  0  3  0  0  0  0  0  0
  187.8610  178.2990  145.9830 N   0  0  0  0  0  0  0  0  0  0  0  0
  188.6370  177.9760  141.1770 C   0  0  0  0  0  2  0  0  0  0  0  0
  189.9590  176.0110  143.0440 C   0  0  0  0  0  1  0  0  0  0  0  0
  188.9060  177.9000  148.8150 C   0  0  0  0  0  1  0  0  0  0  0  0
  188.0820  177.6410  143.6340 C   0  0  0  0  0  0  0  0  0  0  0  0
  188.9870  177.7310  146.2790 C   0  0  0  0  0  0  0  0  0  0  0  0
  186.0020  177.8390  135.9430 N   0  0  0  0  0  2  0  0  0  0  0  0
  185.1250  176.7250  135.7620 C   0  0  0  0  0  0  0  0  0  0  0  0
  185.1160  175.7730  136.5860 O   0  0  0  0  0  0  0  0  0  0  0  0
  184.2080  176.6940  134.5940 C   0  0  0  0  0  1  0  0  0  0  0  0
  1 20  1  0  0  0  0
  1 16  1  0  0  0  0
  2 24  1  6  0  0  0
  2 27  1  0  0  0  0
  3  4  1  0  0  0  0
  4 21  1  0  0  0  0
  5  6  1  0  0  0  0
  6 18  2  0  0  0  0
  6 28  1  0  0  0  0
  7 19  1  6  0  0  0
  7 24  1  0  0  0  0
  9 26  1  0  0  0  0
 11  3  1  0  0  0  0
 12  8  1  6  0  0  0
 12  2  1  0  0  0  0
 12 13  1  0  0  0  0
 13 11  1  6  0  0  0
 13 22  1  0  0  0  0
 14 23  1  0  0  0  0
 15  9  1  0  0  0  0
 16 19  1  0  0  0  0
 17 10  1  6  0  0  0
 17  7  1  0  0  0  0
 17  8  1  0  0  0  0
 18 15  1  0  0  0  0
 20 29  1  6  0  0  0
 20 10  1  0  0  0  0
 22 14  1  0  0  0  0
 22 21  1  1  0  0  0
 23 28  2  0  0  0  0
 25  5  1  0  0  0  0
 27  5  1  0  0  0  0
 27 14  2  0  0  0  0
 28  9  1  0  0  0  0
 30 29  1  0  0  0  0
 30 31  2  0  0  0  0
 32 30  1  0  0  0  0
M  END
>  <MODEL>
2

>  <REMARK>
 VINA RESULT:      -8.8      2.891      4.915
  Name = 
  1 active torsions:
  status: ('A' for Active; 'I' for Inactive)
    1  A    between atoms: C_20  and  N_29
                            x       y       z     vdW  Elec       q    Type
                         _______ _______ _______ _____ _____    ______ ____

>  <TORSDO>
F 1

$$$$
=
 OpenBabel11122410453D

 32 37  0  0  1  0  0  0  0  0999 V2000
  192.6100  174.7710  136.0780 C   0  0  0  0  0  2  0  0  0  0  0  0
  189.4550  177.5830  139.9440 C   0  0  1  0  0  3  0  0  0  0  0  0
  191.7610  177.9130  144.2910 C   0  0  0  0  0  2  0  0  0  0  0  0
  190.5140  178.7400  144.6080 C   0  0  0  0  0  2  0  0  0  0  0  0
  186.9710  178.2650  139.9070 N   0  0  0  0  0  0  0  0  0  0  0  0
  185.7630  178.4510  140.6460 C   0  0  0  0  0  0  0  0  0  0  0  0
  190.5320  175.9310  138.3650 N   0  0  2  0  0  0  0  0  0  0  0  0
  191.8690  177.1510  140.0930 C   0  0  0  0  0  2  0  0  0  0  0  0
  184.4760  178.5570  142.5700 N   0  0  0  0  0  0  0  0  0  0  0  0
  193.0270  175.9850  138.2600 C   0  0  0  0  0  2  0  0  0  0  0  0
  191.6420  177.1650  142.9570 C   0  0  0  0  0  2  0  0  0  0  0  0
  190.5430  177.0130  140.8480 C   0  0  1  0  0  3  0  0  0  0  0  0
  190.5530  177.7090  142.1370 N   0  0  1  0  0  0  0  0  0  0  0  0
  188.0760  177.7620  142.0220 C   0  0  0  0  0  0  0  0  0  0  0  0
  183.6620  178.9980  141.4360 C   0  0  0  0  0  2  0  0  0  0  0  0
  191.1990  174.4260  136.5640 C   0  0  0  0  0  2  0  0  0  0  0  0
  191.7470  176.7450  138.6130 C   0  0  1  0  0  3  0  0  0  0  0  0
  184.5830  178.8900  140.2300 C   0  0  0  0  0  3  0  0  0  0  0  0
  190.3940  175.6610  136.9370 C   0  0  0  0  0  2  0  0  0  0  0  0
  193.2510  175.9870  136.7570 C   0  0  1  0  0  3  0  0  0  0  0  0
  189.2410  177.9760  144.2500 C   0  0  0  0  0  2  0  0  0  0  0  0
  189.2940  177.3720  142.8300 C   0  0  2  0  0  3  0  0  0  0  0  0
  186.8190  177.9670  142.7160 N   0  0  0  0  0  0  0  0  0  0  0  0
  189.3030  176.6640  138.7230 C   0  0  0  0  0  2  0  0  0  0  0  0
  187.0350  178.6380  138.4990 C   0  0  0  0  0  1  0  0  0  0  0  0
  184.1890  178.8610  143.9600 C   0  0  0  0  0  1  0  0  0  0  0  0
  188.1400  177.8330  140.6560 C   0  0  0  0  0  0  0  0  0  0  0  0
  185.7510  178.2620  142.0460 C   0  0  0  0  0  0  0  0  0  0  0  0
  194.6800  176.0080  136.4820 N   0  0  0  0  0  2  0  0  0  0  0  0
  195.2410  176.7130  135.3730 C   0  0  0  0  0  0  0  0  0  0  0  0
  194.5070  177.3760  134.5940 O   0  0  0  0  0  0  0  0  0  0  0  0
  196.7080  176.6690  135.1410 C   0  0  0  0  0  1  0  0  0  0  0  0
  1 16  1  0  0  0  0
  1 20  1  0  0  0  0
  2 24  1  6  0  0  0
  2 27  1  0  0  0  0
  2 12  1  0  0  0  0
  3  4  1  0  0  0  0
  5  6  1  0  0  0  0
  5 27  1  0  0  0  0
  6 28  1  0  0  0  0
  7 19  1  6  0  0  0
  7 17  1  0  0  0  0
  7 24  1  0  0  0  0
  9 26  1  0  0  0  0
 11  3  1  0  0  0  0
 12  8  1  6  0  0  0
 12 13  1  0  0  0  0
 13 22  1  0  0  0  0
 13 11  1  1  0  0  0
 14 23  1  0  0  0  0
 14 22  1  0  0  0  0
 15  9  1  0  0  0  0
 16 19  1  0  0  0  0
 17 10  1  1  0  0  0
 17  8  1  0  0  0  0
 18  6  2  0  0  0  0
 18 15  1  0  0  0  0
 20 29  1  1  0  0  0
 20 10  1  0  0  0  0
 21  4  1  0  0  0  0
 22 21  1  1  0  0  0
 25  5  1  0  0  0  0
 27 14  2  0  0  0  0
 28  9  1  0  0  0  0
 28 23  2  0  0  0  0
 30 29  1  0  0  0  0
 31 30  2  0  0  0  0
 32 30  1  0  0  0  0
M  END
>  <MODEL>
3

>  <REMARK>
 VINA RESULT:      -8.8      4.370      8.431
  Name = 
  1 active torsions:
  status: ('A' for Active; 'I' for Inactive)
    1  A    between atoms: C_20  and  N_29
                            x       y       z     vdW  Elec       q    Type
                         _______ _______ _______ _____ _____    ______ ____

>  <TORSDO>
F 1

$$$$
=
 OpenBabel11122410453D

 32 37  0  0  1  0  0  0  0  0999 V2000
  190.8120  175.6250  136.5400 C   0  0  0  0  0  2  0  0  0  0  0  0
  188.8080  177.6450  141.5100 C   0  0  1  0  0  3  0  0  0  0  0  0
  191.8490  176.6230  145.2570 C   0  0  0  0  0  2  0  0  0  0  0  0
  190.8070  177.4590  146.0030 C   0  0  0  0  0  2  0  0  0  0  0  0
  186.4790  178.5520  142.1370 N   0  0  0  0  0  0  0  0  0  0  0  0
  185.4560  178.6600  143.1260 C   0  0  0  0  0  0  0  0  0  0  0  0
  189.3480  176.3570  139.4060 N   0  0  2  0  0  0  0  0  0  0  0  0
  191.1230  176.9560  141.0640 C   0  0  0  0  0  2  0  0  0  0  0  0
  184.5470  178.3940  145.2420 N   0  0  0  0  0  0  0  0  0  0  0  0
  191.7690  176.1920  138.8150 C   0  0  0  0  0  2  0  0  0  0  0  0
  191.3960  176.2580  143.8370 C   0  0  0  0  0  2  0  0  0  0  0  0
  189.9410  176.7590  142.0180 C   0  0  1  0  0  3  0  0  0  0  0  0
  190.2720  177.0970  143.4040 N   0  0  1  0  0  0  0  0  0  0  0  0
  187.8470  177.4190  143.8070 C   0  0  0  0  0  0  0  0  0  0  0  0
  183.6230  179.1880  144.4300 C   0  0  0  0  0  2  0  0  0  0  0  0
  189.4720  175.3060  137.2060 C   0  0  0  0  0  2  0  0  0  0  0  0
  190.6920  176.9570  139.5860 C   0  0  1  0  0  3  0  0  0  0  0  0
  184.2980  179.3030  143.0720 C   0  0  0  0  0  3  0  0  0  0  0  0
  188.9290  176.4760  138.0120 C   0  0  0  0  0  2  0  0  0  0  0  0
  191.7300  176.5580  137.3400 C   0  0  1  0  0  3  0  0  0  0  0  0
  189.3950  176.9400  145.7410 C   0  0  0  0  0  2  0  0  0  0  0  0
  189.1160  176.7180  144.2390 C   0  0  2  0  0  3  0  0  0  0  0  0
  186.7710  177.5610  144.7690 N   0  0  0  0  0  0  0  0  0  0  0  0
  188.3170  177.0890  140.1660 C   0  0  0  0  0  2  0  0  0  0  0  0
  186.3540  179.2670  140.8710 C   0  0  0  0  0  1  0  0  0  0  0  0
  184.5500  178.3570  146.6930 C   0  0  0  0  0  1  0  0  0  0  0  0
  187.6850  177.8310  142.5120 C   0  0  0  0  0  0  0  0  0  0  0  0
  185.6570  178.1200  144.4170 C   0  0  0  0  0  0  0  0  0  0  0  0
  193.0780  176.5090  136.7940 N   0  0  0  0  0  2  0  0  0  0  0  0
  193.8670  175.3180  136.7950 C   0  0  0  0  0  0  0  0  0  0  0  0
  193.4050  174.2410  137.2550 O   0  0  0  0  0  0  0  0  0  0  0  0
  195.2450  175.3510  136.2420 C   0  0  0  0  0  1  0  0  0  0  0  0
  1 16  1  0  0  0  0
  1 20  1  0  0  0  0
  2 24  1  6  0  0  0
  2 12  1  0  0  0  0
  2 27  1  0  0  0  0
  3  4  1  0  0  0  0
  5 27  1  0  0  0  0
  5  6  1  0  0  0  0
  6 28  1  0  0  0  0
  7 19  1  6  0  0  0
  7 17  1  0  0  0  0
  7 24  1  0  0  0  0
  9 26  1  0  0  0  0
 11  3  1  0  0  0  0
 12  8  1  6  0  0  0
 12 13  1  0  0  0  0
 13 11  1  1  0  0  0
 13 22  1  0  0  0  0
 14 22  1  0  0  0  0
 14 23  1  0  0  0  0
 15  9  1  0  0  0  0
 16 19  1  0  0  0  0
 17 10  1  6  0  0  0
 17  8  1  0  0  0  0
 18  6  2  0  0  0  0
 18 15  1  0  0  0  0
 20 29  1  6  0  0  0
 20 10  1  0  0  0  0
 21  4  1  0  0  0  0
 22 21  1  1  0  0  0
 25  5  1  0  0  0  0
 27 14  2  0  0  0  0
 28 23  2  0  0  0  0
 28  9  1  0  0  0  0
 29 30  1  0  0  0  0
 30 31  2  0  0  0  0
 32 30  1  0  0  0  0
M  END
>  <MODEL>
4

>  <REMARK>
 VINA RESULT:      -8.0      3.976      7.373
  Name = 
  1 active torsions:
  status: ('A' for Active; 'I' for Inactive)
    1  A    between atoms: C_20  and  N_29
                            x       y       z     vdW  Elec       q    Type
                         _______ _______ _______ _____ _____    ______ ____

>  <TORSDO>
F 1

$$$$
=
 OpenBabel11122410453D

 32 37  0  0  1  0  0  0  0  0999 V2000
  187.2420  178.5910  147.8370 C   0  0  0  0  0  2  0  0  0  0  0  0
  184.3270  178.2530  142.9180 C   0  0  1  0  0  3  0  0  0  0  0  0
  187.3410  178.0550  139.0190 C   0  0  0  0  0  2  0  0  0  0  0  0
  185.9990  177.8920  138.3040 C   0  0  0  0  0  2  0  0  0  0  0  0
  181.8270  178.6280  142.4190 N   0  0  0  0  0  0  0  0  0  0  0  0
  180.8420  179.1150  141.5080 C   0  0  0  0  0  0  0  0  0  0  0  0
  185.4990  178.9220  145.0540 N   0  0  2  0  0  0  0  0  0  0  0  0
  186.7030  177.7100  143.2250 C   0  0  0  0  0  2  0  0  0  0  0  0
  180.0940  179.9820  139.4930 N   0  0  0  0  0  0  0  0  0  0  0  0
  187.7210  177.8570  145.4610 C   0  0  0  0  0  2  0  0  0  0  0  0
  187.1730  178.4560  140.4900 C   0  0  0  0  0  2  0  0  0  0  0  0
  185.7260  178.5360  142.3820 C   0  0  1  0  0  3  0  0  0  0  0  0
  185.8020  178.2160  140.9550 N   0  0  1  0  0  0  0  0  0  0  0  0
  183.5070  179.1270  140.7240 C   0  0  0  0  0  0  0  0  0  0  0  0
  178.9330  179.6500  140.3210 C   0  0  0  0  0  2  0  0  0  0  0  0
  186.1960  179.5720  147.3000 C   0  0  0  0  0  2  0  0  0  0  0  0
  186.3810  177.7750  144.7290 C   0  0  1  0  0  3  0  0  0  0  0  0
  179.5200  179.0990  141.6120 C   0  0  0  0  0  3  0  0  0  0  0  0
  185.1280  178.8840  146.4650 C   0  0  0  0  0  2  0  0  0  0  0  0
  187.5660  177.4150  146.9080 C   0  0  1  0  0  3  0  0  0  0  0  0
  185.0200  178.9930  138.7090 C   0  0  0  0  0  2  0  0  0  0  0  0
  184.9400  179.1770  140.2400 C   0  0  2  0  0  3  0  0  0  0  0  0
  182.4600  179.6070  139.8420 N   0  0  0  0  0  0  0  0  0  0  0  0
  184.2150  178.8450  144.3310 C   0  0  0  0  0  2  0  0  0  0  0  0
  181.4220  177.9430  143.6410 C   0  0  0  0  0  1  0  0  0  0  0  0
  180.0590  180.1510  138.0520 C   0  0  0  0  0  1  0  0  0  0  0  0
  183.2170  178.7210  141.9980 C   0  0  0  0  0  0  0  0  0  0  0  0
  181.2290  179.6140  140.2440 C   0  0  0  0  0  0  0  0  0  0  0  0
  188.7910  176.7640  147.3470 N   0  0  0  0  0  2  0  0  0  0  0  0
  190.0740  177.0880  146.8060 C   0  0  0  0  0  0  0  0  0  0  0  0
  190.1940  177.9840  145.9300 O   0  0  0  0  0  0  0  0  0  0  0  0
  191.2780  176.3640  147.2880 C   0  0  0  0  0  1  0  0  0  0  0  0
  2 24  1  1  0  0  0
  3 11  1  0  0  0  0
  4 21  1  0  0  0  0
  4  3  1  0  0  0  0
  5 25  1  0  0  0  0
  6 18  2  0  0  0  0
  6  5  1  0  0  0  0
  7 24  1  6  0  0  0
  7 19  1  0  0  0  0
  9 28  1  0  0  0  0
  9 15  1  0  0  0  0
 10 20  1  0  0  0  0
 12  2  1  0  0  0  0
 12  8  1  1  0  0  0
 13 11  1  6  0  0  0
 13 12  1  0  0  0  0
 14 27  2  0  0  0  0
 15 18  1  0  0  0  0
 16  1  1  0  0  0  0
 17  8  1  6  0  0  0
 17  7  1  0  0  0  0
 17 10  1  0  0  0  0
 19 16  1  0  0  0  0
 20 29  1  1  0  0  0
 20  1  1  0  0  0  0
 22 21  1  6  0  0  0
 22 14  1  0  0  0  0
 22 13  1  0  0  0  0
 23 28  2  0  0  0  0
 23 14  1  0  0  0  0
 26  9  1  0  0  0  0
 27  5  1  0  0  0  0
 27  2  1  0  0  0  0
 28  6  1  0  0  0  0
 30 32  1  0  0  0  0
 30 29  1  0  0  0  0
 31 30  2  0  0  0  0
M  END
>  <MODEL>
5

>  <REMARK>
 VINA RESULT:      -7.8      2.776      8.266
  Name = 
  1 active torsions:
  status: ('A' for Active; 'I' for Inactive)
    1  A    between atoms: C_20  and  N_29
                            x       y       z     vdW  Elec       q    Type
                         _______ _______ _______ _____ _____    ______ ____

>  <TORSDO>
F 1

$$$$
=
 OpenBabel11122410453D

 32 37  0  0  1  0  0  0  0  0999 V2000
  193.8580  176.9130  138.7990 C   0  0  0  0  0  2  0  0  0  0  0  0
  188.5350  177.1900  140.8950 C   0  0  1  0  0  3  0  0  0  0  0  0
  185.2250  178.1160  137.3580 C   0  0  0  0  0  2  0  0  0  0  0  0
  184.2770  177.9350  138.5440 C   0  0  0  0  0  2  0  0  0  0  0  0
  187.6950  177.3510  143.3250 N   0  0  0  0  0  0  0  0  0  0  0  0
  186.7290  177.8840  144.2310 C   0  0  0  0  0  0  0  0  0  0  0  0
  190.9210  177.5670  140.1540 N   0  0  2  0  0  0  0  0  0  0  0  0
  189.1400  176.8870  138.5330 C   0  0  0  0  0  2  0  0  0  0  0  0
  184.7970  179.0300  144.8040 N   0  0  0  0  0  0  0  0  0  0  0  0
  191.5070  176.7170  137.8800 C   0  0  0  0  0  2  0  0  0  0  0  0
  186.6940  178.2000  137.7930 C   0  0  0  0  0  2  0  0  0  0  0  0
  188.3000  177.7370  139.4910 C   0  0  1  0  0  3  0  0  0  0  0  0
  186.8720  177.7110  139.1650 N   0  0  1  0  0  0  0  0  0  0  0  0
  186.4190  178.3680  141.5130 C   0  0  0  0  0  0  0  0  0  0  0  0
  185.3480  178.4060  146.0080 C   0  0  0  0  0  2  0  0  0  0  0  0
  193.3310  177.8470  139.8920 C   0  0  0  0  0  2  0  0  0  0  0  0
  190.5560  176.6180  139.0740 C   0  0  1  0  0  3  0  0  0  0  0  0
  186.6040  177.6900  145.5370 C   0  0  0  0  0  3  0  0  0  0  0  0
  192.2210  177.2110  140.7140 C   0  0  0  0  0  2  0  0  0  0  0  0
  192.8080  175.9880  138.1730 C   0  0  1  0  0  3  0  0  0  0  0  0
  184.6960  178.8100  139.7240 C   0  0  0  0  0  2  0  0  0  0  0  0
  186.1990  178.6830  140.0500 C   0  0  2  0  0  3  0  0  0  0  0  0
  185.4700  178.8810  142.4830 N   0  0  0  0  0  0  0  0  0  0  0  0
  189.9890  177.4770  141.2950 C   0  0  0  0  0  2  0  0  0  0  0  0
  188.6940  176.3980  143.7950 C   0  0  0  0  0  1  0  0  0  0  0  0
  183.4220  179.4700  144.6560 C   0  0  0  0  0  1  0  0  0  0  0  0
  187.5360  177.6900  141.9190 C   0  0  0  0  0  0  0  0  0  0  0  0
  185.6540  178.6620  143.7460 C   0  0  0  0  0  0  0  0  0  0  0  0
  193.3290  175.4150  136.9400 N   0  0  0  0  0  2  0  0  0  0  0  0
  194.0750  174.1970  136.9110 C   0  0  0  0  0  0  0  0  0  0  0  0
  194.2910  173.5490  137.9690 O   0  0  0  0  0  0  0  0  0  0  0  0
  194.5950  173.6860  135.6170 C   0  0  0  0  0  1  0  0  0  0  0  0
  1 16  1  0  0  0  0
  2 24  1  1  0  0  0
  2 27  1  0  0  0  0
  3 11  1  0  0  0  0
  3  4  1  0  0  0  0
  4 21  1  0  0  0  0
  5 25  1  0  0  0  0
  5  6  1  0  0  0  0
  6 18  2  0  0  0  0
  7 19  1  1  0  0  0
  7 24  1  0  0  0  0
  8 17  1  0  0  0  0
  9 15  1  0  0  0  0
 10 20  1  0  0  0  0
 12  8  1  6  0  0  0
 12  2  1  0  0  0  0
 13 11  1  6  0  0  0
 13 12  1  0  0  0  0
 13 22  1  0  0  0  0
 14 27  2  0  0  0  0
 14 23  1  0  0  0  0
 16 19  1  0  0  0  0
 17 10  1  6  0  0  0
 17  7  1  0  0  0  0
 18 15  1  0  0  0  0
 20 29  1  6  0  0  0
 20  1  1  0  0  0  0
 22 21  1  1  0  0  0
 22 14  1  0  0  0  0
 23 28  2  0  0  0  0
 26  9  1  0  0  0  0
 27  5  1  0  0  0  0
 28  6  1  0  0  0  0
 28  9  1  0  0  0  0
 30 29  1  0  0  0  0
 30 31  2  0  0  0  0
 32 30  1  0  0  0  0
M  END
>  <MODEL>
6

>  <REMARK>
 VINA RESULT:      -7.2      4.046      7.925
  Name = 
  1 active torsions:
  status: ('A' for Active; 'I' for Inactive)
    1  A    between atoms: C_20  and  N_29
                            x       y       z     vdW  Elec       q    Type
                         _______ _______ _______ _____ _____    ______ ____

>  <TORSDO>
F 1

$$$$
=
 OpenBabel11122410453D

 32 37  0  0  1  0  0  0  0  0999 V2000
  191.9450  175.4060  144.9730 C   0  0  0  0  0  2  0  0  0  0  0  0
  187.5020  177.9730  142.4290 C   0  0  1  0  0  3  0  0  0  0  0  0
  183.9310  179.0630  145.6520 C   0  0  0  0  0  2  0  0  0  0  0  0
  183.3310  179.6930  144.3940 C   0  0  0  0  0  2  0  0  0  0  0  0
  186.9110  178.2220  139.9330 N   0  0  0  0  0  0  0  0  0  0  0  0
  185.8890  178.2670  138.9370 C   0  0  0  0  0  0  0  0  0  0  0  0
  189.2400  176.3950  143.3600 N   0  0  2  0  0  0  0  0  0  0  0  0
  187.9750  177.9670  144.8390 C   0  0  0  0  0  2  0  0  0  0  0  0
  183.7000  178.3220  138.1780 N   0  0  0  0  0  0  0  0  0  0  0  0
  189.9990  176.8570  145.6940 C   0  0  0  0  0  2  0  0  0  0  0  0
  185.1550  178.1920  145.3410 C   0  0  0  0  0  2  0  0  0  0  0  0
  186.8940  177.6750  143.7950 C   0  0  1  0  0  3  0  0  0  0  0  0
  185.6820  178.4720  144.0000 N   0  0  1  0  0  0  0  0  0  0  0  0
  185.1430  178.0980  141.6080 C   0  0  0  0  0  0  0  0  0  0  0  0
  184.5970  178.5200  137.0390 C   0  0  0  0  0  2  0  0  0  0  0  0
  191.0920  174.8720  143.8190 C   0  0  0  0  0  2  0  0  0  0  0  0
  189.3530  177.4190  144.4260 C   0  0  1  0  0  3  0  0  0  0  0  0
  185.9970  178.4630  137.6300 C   0  0  0  0  0  3  0  0  0  0  0  0
  190.5700  175.9820  142.9200 C   0  0  0  0  0  2  0  0  0  0  0  0
  191.5080  176.7670  145.5280 C   0  0  1  0  0  3  0  0  0  0  0  0
  183.3110  178.6980  143.2350 C   0  0  0  0  0  2  0  0  0  0  0  0
  184.6690  177.9900  143.0410 C   0  0  2  0  0  3  0  0  0  0  0  0
  184.1520  178.1490  140.5510 N   0  0  0  0  0  0  0  0  0  0  0  0
  188.6010  176.9390  142.1470 C   0  0  0  0  0  2  0  0  0  0  0  0
  188.3010  178.4780  139.5710 C   0  0  0  0  0  1  0  0  0  0  0  0
  182.2970  178.6930  138.1990 C   0  0  0  0  0  1  0  0  0  0  0  0
  186.4790  178.0590  141.3130 C   0  0  0  0  0  0  0  0  0  0  0  0
  184.5290  178.2010  139.3130 C   0  0  0  0  0  0  0  0  0  0  0  0
  192.1500  177.0030  146.8130 N   0  0  0  0  0  2  0  0  0  0  0  0
  192.2820  175.9860  147.8070 C   0  0  0  0  0  0  0  0  0  0  0  0
  191.8620  174.8180  147.5930 O   0  0  0  0  0  0  0  0  0  0  0  0
  192.9280  176.3080  149.1050 C   0  0  0  0  0  1  0  0  0  0  0  0
  1 20  1  0  0  0  0
  2 24  1  6  0  0  0
  2 12  1  0  0  0  0
  4  3  1  0  0  0  0
  5 27  1  0  0  0  0
  6 28  1  0  0  0  0
  6  5  1  0  0  0  0
  7 24  1  6  0  0  0
  7 17  1  0  0  0  0
  9 26  1  0  0  0  0
  9 28  1  0  0  0  0
 11  3  1  0  0  0  0
 12 13  1  0  0  0  0
 12  8  1  1  0  0  0
 13 11  1  1  0  0  0
 14 22  1  0  0  0  0
 15 18  1  0  0  0  0
 15  9  1  0  0  0  0
 16  1  1  0  0  0  0
 17  8  1  1  0  0  0
 17 10  1  0  0  0  0
 18  6  2  0  0  0  0
 19  7  1  0  0  0  0
 19 16  1  0  0  0  0
 20 10  1  0  0  0  0
 20 29  1  1  0  0  0
 21  4  1  0  0  0  0
 22 21  1  6  0  0  0
 22 13  1  0  0  0  0
 23 14  1  0  0  0  0
 25  5  1  0  0  0  0
 27 14  2  0  0  0  0
 27  2  1  0  0  0  0
 28 23  2  0  0  0  0
 29 30  1  0  0  0  0
 30 32  1  0  0  0  0
 31 30  2  0  0  0  0
M  END
>  <MODEL>
7

>  <REMARK>
 VINA RESULT:      -6.4      3.416      9.270
  Name = 
  1 active torsions:
  status: ('A' for Active; 'I' for Inactive)
    1  A    between atoms: C_20  and  N_29
                            x       y       z     vdW  Elec       q    Type
                         _______ _______ _______ _____ _____    ______ ____

>  <TORSDO>
F 1

$$$$
