=
 OpenBabel11122411243D

 37 43  0  0  1  0  0  0  0  0999 V2000
  181.4810  176.3000  138.8620 C   0  0  0  0  0  2  0  0  0  0  0  0
  184.0790  179.1180  143.0530 C   0  0  0  0  0  0  0  0  0  0  0  0
  180.8480  178.8600  140.7290 C   0  0  1  0  0  3  0  0  0  0  0  0
  181.5190  174.8300  138.4280 C   0  0  2  0  0  3  0  0  0  0  0  0
  181.6690  179.0920  136.9280 C   0  0  0  0  0  2  0  0  0  0  0  0
  181.6960  178.3160  143.1320 C   0  0  2  0  0  3  0  0  0  0  0  0
  181.7060  179.1680  139.5110 C   0  0  2  0  0  3  0  0  0  0  0  0
  182.2460  175.4740  136.0080 C   0  0  2  0  0  3  0  0  0  0  0  0
  181.7470  178.0130  141.6180 C   0  0  2  0  0  3  0  0  0  0  0  0
  180.8650  179.2080  138.2170 C   0  0  1  0  0  3  0  0  0  0  0  0
  180.2700  178.6750  143.5560 C   0  0  0  0  0  2  0  0  0  0  0  0
  182.4060  174.5270  137.2100 C   0  0  0  0  0  2  0  0  0  0  0  0
  183.1320  178.0230  140.9650 C   0  0  2  0  0  3  0  0  0  0  0  0
  184.5340  177.9050  143.5410 F   0  0  0  0  0  0  0  0  0  0  0  0
  179.5660  181.1140  140.5890 C   0  0  0  0  0  2  0  0  0  0  0  0
  179.6490  179.8260  142.7420 C   0  0  0  0  0  2  0  0  0  0  0  0
  184.0620  179.1040  141.5310 C   0  0  0  0  0  2  0  0  0  0  0  0
  182.6020  176.9550  136.2720 C   0  0  1  0  0  3  0  0  0  0  0  0
  181.3930  177.7890  136.3400 N   0  0  0  0  0  2  0  0  0  0  0  0
  180.3920  180.1420  141.4410 C   0  0  1  0  0  3  0  0  0  0  0  0
  182.9090  178.3010  139.5490 N   0  0  1  0  0  0  0  0  0  0  0  0
  182.6760  179.4060  143.5660 C   0  0  0  0  0  2  0  0  0  0  0  0
  179.9120  180.4170  138.1570 C   0  0  1  0  0  3  0  0  0  0  0  0
  184.9270  180.1210  143.4820 F   0  0  0  0  0  0  0  0  0  0  0  0
  183.5470  177.1100  137.4840 C   0  0  0  0  0  2  0  0  0  0  0  0
  180.9930  175.3250  135.4100 O   0  0  0  0  0  1  0  0  0  0  0  0
  182.8570  177.0000  138.8520 C   0  0  2  0  0  3  0  0  0  0  0  0
  178.9310  180.5080  139.3340 C   0  0  0  0  0  2  0  0  0  0  0  0
  181.6960  182.1410  138.5050 C   0  0  0  0  0  3  0  0  0  0  0  0
  180.5560  181.7320  137.8040 C   0  0  0  0  0  0  0  0  0  0  0  0
  180.0500  182.5430  136.7770 C   0  0  0  0  0  3  0  0  0  0  0  0
  180.1300  184.6080  135.3740 C   0  0  0  0  0  1  0  0  0  0  0  0
  181.8090  184.1580  137.1690 C   0  0  0  0  0  3  0  0  0  0  0  0
  180.6740  183.7530  136.4620 C   0  0  0  0  0  0  0  0  0  0  0  0
  182.3200  183.3510  138.1910 C   0  0  0  0  0  3  0  0  0  0  0  0
  179.2610  175.4120  138.5960 C   0  0  0  0  0  1  0  0  0  0  0  0
  180.1680  174.3510  138.1930 N   0  0  0  0  0  2  0  0  0  0  0  0
  2 24  1  0  0  0  0
  2 14  1  0  0  0  0
  2 22  1  0  0  0  0
  3 20  1  0  0  0  0
  3  9  1  0  0  0  0
  4  1  1  0  0  0  0
  5 10  1  0  0  0  0
  6 11  1  0  0  0  0
  6 22  1  0  0  0  0
  7 21  1  0  0  0  0
  7  3  1  0  0  0  0
  8 18  1  0  0  0  0
  8 12  1  0  0  0  0
  9  6  1  0  0  0  0
 10  7  1  0  0  0  0
 12  4  1  0  0  0  0
 13 17  1  0  0  0  0
 13  9  1  0  0  0  0
 15 20  1  0  0  0  0
 16 11  1  0  0  0  0
 17  2  1  0  0  0  0
 18 19  1  0  0  0  0
 18 25  1  0  0  0  0
 19  5  1  0  0  0  0
 20 16  1  0  0  0  0
 21 13  1  0  0  0  0
 23 10  1  0  0  0  0
 23 28  1  0  0  0  0
 25 27  1  0  0  0  0
 26  8  1  0  0  0  0
 27  1  1  0  0  0  0
 27 21  1  0  0  0  0
 28 15  1  0  0  0  0
 30 23  1  0  0  0  0
 30 29  2  0  0  0  0
 31 30  1  0  0  0  0
 32 34  1  0  0  0  0
 33 35  2  0  0  0  0
 34 31  2  0  0  0  0
 34 33  1  0  0  0  0
 35 29  1  0  0  0  0
 37  4  1  0  0  0  0
 37 36  1  0  0  0  0
M  END
>  <MODEL>
1

>  <REMARK>
 VINA RESULT:      -6.8      0.000      0.000
  Name = 
  2 active torsions:
  status: ('A' for Active; 'I' for Inactive)
    1  A    between atoms: C_4  and  N_37
    2  A    between atoms: C_23  and  C_30
                            x       y       z     vdW  Elec       q    Type
                         _______ _______ _______ _____ _____    ______ ____

>  <TORSDO>
F 2

$$$$
=
 OpenBabel11122411243D

 37 43  0  0  1  0  0  0  0  0999 V2000
  181.1560  181.4050  138.5360 C   0  0  0  0  0  2  0  0  0  0  0  0
  180.1140  178.2850  143.1650 C   0  0  0  0  0  0  0  0  0  0  0  0
  182.5800  178.9670  140.1060 C   0  0  1  0  0  3  0  0  0  0  0  0
  180.8130  182.8540  138.1690 C   0  0  2  0  0  3  0  0  0  0  0  0
  180.8540  178.6030  136.6330 C   0  0  0  0  0  2  0  0  0  0  0  0
  182.3090  179.4050  142.6600 C   0  0  2  0  0  3  0  0  0  0  0  0
  181.4880  178.5370  139.1370 C   0  0  2  0  0  3  0  0  0  0  0  0
  179.5830  182.1020  135.9950 C   0  0  2  0  0  3  0  0  0  0  0  0
  181.8330  179.6890  141.2180 C   0  0  2  0  0  3  0  0  0  0  0  0
  181.9680  178.6050  137.6710 C   0  0  1  0  0  3  0  0  0  0  0  0
  183.8310  179.2450  142.6970 C   0  0  0  0  0  2  0  0  0  0  0  0
  179.6120  183.0270  137.2250 C   0  0  0  0  0  2  0  0  0  0  0  0
  180.3420  179.4860  140.9380 C   0  0  2  0  0  3  0  0  0  0  0  0
  179.6420  179.4280  143.7880 F   0  0  0  0  0  0  0  0  0  0  0  0
  184.0720  176.9080  139.5790 C   0  0  0  0  0  2  0  0  0  0  0  0
  184.3710  178.1850  141.7200 C   0  0  0  0  0  2  0  0  0  0  0  0
  179.7400  178.2920  141.6900 C   0  0  0  0  0  2  0  0  0  0  0  0
  179.5080  180.5880  136.2970 C   0  0  1  0  0  3  0  0  0  0  0  0
  180.7940  179.9280  136.0320 N   0  0  0  0  0  2  0  0  0  0  0  0
  183.3690  177.7630  140.6400 C   0  0  1  0  0  3  0  0  0  0  0  0
  180.2300  179.2330  139.5040 N   0  0  1  0  0  0  0  0  0  0  0  0
  181.6270  178.1930  143.2970 C   0  0  0  0  0  2  0  0  0  0  0  0
  183.0260  177.5370  137.3360 C   0  0  1  0  0  3  0  0  0  0  0  0
  179.5450  177.1780  143.7670 F   0  0  0  0  0  0  0  0  0  0  0  0
  178.9330  180.3130  137.7040 C   0  0  0  0  0  2  0  0  0  0  0  0
  180.6110  182.4180  135.1030 O   0  0  0  0  0  1  0  0  0  0  0  0
  179.9280  180.5250  138.8550 C   0  0  2  0  0  3  0  0  0  0  0  0
  184.2780  177.5870  138.2220 C   0  0  0  0  0  2  0  0  0  0  0  0
  183.0820  175.3360  136.1400 C   0  0  0  0  0  3  0  0  0  0  0  0
  182.4940  176.1440  137.1200 C   0  0  0  0  0  0  0  0  0  0  0  0
  181.4390  175.6360  137.8930 C   0  0  0  0  0  3  0  0  0  0  0  0
  179.8530  173.8050  138.5000 C   0  0  0  0  0  1  0  0  0  0  0  0
  181.5610  173.5350  136.6970 C   0  0  0  0  0  3  0  0  0  0  0  0
  180.9730  174.3350  137.6790 C   0  0  0  0  0  0  0  0  0  0  0  0
  182.6160  174.0360  135.9270 C   0  0  0  0  0  3  0  0  0  0  0  0
  181.6300  184.9040  137.3980 C   0  0  0  0  0  1  0  0  0  0  0  0
  181.9830  183.5110  137.6120 N   0  0  0  0  0  2  0  0  0  0  0  0
  1 27  1  0  0  0  0
  2 22  1  0  0  0  0
  2 24  1  0  0  0  0
  2 14  1  0  0  0  0
  3 20  1  0  0  0  0
  3  9  1  0  0  0  0
  4  1  1  0  0  0  0
  5 10  1  0  0  0  0
  6 11  1  0  0  0  0
  6 22  1  0  0  0  0
  7 21  1  0  0  0  0
  7  3  1  0  0  0  0
  8 18  1  0  0  0  0
  8 12  1  0  0  0  0
  9  6  1  0  0  0  0
 10  7  1  0  0  0  0
 12  4  1  0  0  0  0
 13  9  1  0  0  0  0
 13 17  1  0  0  0  0
 15 20  1  0  0  0  0
 16 11  1  0  0  0  0
 17  2  1  0  0  0  0
 18 25  1  0  0  0  0
 19 18  1  0  0  0  0
 19  5  1  0  0  0  0
 20 16  1  0  0  0  0
 21 13  1  0  0  0  0
 23 10  1  0  0  0  0
 23 28  1  0  0  0  0
 25 27  1  0  0  0  0
 26  8  1  0  0  0  0
 27 21  1  0  0  0  0
 28 15  1  0  0  0  0
 29 30  1  0  0  0  0
 30 23  1  0  0  0  0
 30 31  2  0  0  0  0
 33 34  2  0  0  0  0
 34 31  1  0  0  0  0
 34 32  1  0  0  0  0
 35 29  2  0  0  0  0
 35 33  1  0  0  0  0
 36 37  1  0  0  0  0
 37  4  1  0  0  0  0
M  END
>  <MODEL>
2

>  <REMARK>
 VINA RESULT:      -4.8      2.248      6.114
  Name = 
  2 active torsions:
  status: ('A' for Active; 'I' for Inactive)
    1  A    between atoms: C_4  and  N_37
    2  A    between atoms: C_23  and  C_30
                            x       y       z     vdW  Elec       q    Type
                         _______ _______ _______ _____ _____    ______ ____

>  <TORSDO>
F 2

$$$$
=
 OpenBabel11122411243D

 37 43  0  0  1  0  0  0  0  0999 V2000
  182.9700  179.2970  138.1990 C   0  0  0  0  0  2  0  0  0  0  0  0
  188.4070  177.7740  138.8130 C   0  0  0  0  0  0  0  0  0  0  0  0
  185.1710  177.6670  136.4850 C   0  0  1  0  0  3  0  0  0  0  0  0
  182.1720  180.5020  138.7100 C   0  0  2  0  0  3  0  0  0  0  0  0
  182.0950  176.0100  138.2070 C   0  0  0  0  0  2  0  0  0  0  0  0
  187.4560  178.8870  136.7670 C   0  0  2  0  0  3  0  0  0  0  0  0
  184.4500  176.8340  137.5330 C   0  0  2  0  0  3  0  0  0  0  0  0
  180.4230  178.9580  139.8760 C   0  0  2  0  0  3  0  0  0  0  0  0
  186.0260  178.6320  137.2930 C   0  0  2  0  0  3  0  0  0  0  0  0
  183.0190  176.4680  137.0850 C   0  0  1  0  0  3  0  0  0  0  0  0
  187.4660  178.9060  135.2370 C   0  0  0  0  0  2  0  0  0  0  0  0
  181.2850  180.2310  139.9360 C   0  0  0  0  0  2  0  0  0  0  0  0
  185.9020  178.1970  138.7550 C   0  0  2  0  0  3  0  0  0  0  0  0
  188.6490  179.0020  139.4040 F   0  0  0  0  0  0  0  0  0  0  0  0
  185.2640  175.7150  134.7750 C   0  0  0  0  0  2  0  0  0  0  0  0
  186.8580  177.6460  134.5940 C   0  0  0  0  0  2  0  0  0  0  0  0
  187.0300  177.2590  139.2070 C   0  0  0  0  0  2  0  0  0  0  0  0
  181.2030  177.6270  139.7750 C   0  0  1  0  0  3  0  0  0  0  0  0
  181.1010  177.0520  138.4260 N   0  0  0  0  0  2  0  0  0  0  0  0
  186.0260  176.7930  135.5560 C   0  0  1  0  0  3  0  0  0  0  0  0
  184.6350  177.4780  138.8570 N   0  0  1  0  0  0  0  0  0  0  0  0
  188.4840  177.8870  137.2980 C   0  0  0  0  0  2  0  0  0  0  0  0
  182.9940  175.4630  135.9180 C   0  0  1  0  0  3  0  0  0  0  0  0
  189.3620  176.8730  139.2440 F   0  0  0  0  0  0  0  0  0  0  0  0
  182.6500  177.7700  140.2940 C   0  0  0  0  0  2  0  0  0  0  0  0
  179.4270  179.0680  138.9040 O   0  0  0  0  0  1  0  0  0  0  0  0
  183.6190  178.4480  139.3140 C   0  0  2  0  0  3  0  0  0  0  0  0
  183.7520  175.9300  134.6670 C   0  0  0  0  0  2  0  0  0  0  0  0
  184.3520  173.7390  137.1250 C   0  0  0  0  0  3  0  0  0  0  0  0
  183.2680  174.0290  136.2900 C   0  0  0  0  0  0  0  0  0  0  0  0
  182.4490  172.9850  135.8340 C   0  0  0  0  0  3  0  0  0  0  0  0
  181.8480  170.5640  135.7150 C   0  0  0  0  0  1  0  0  0  0  0  0
  183.8050  171.3810  137.0350 C   0  0  0  0  0  3  0  0  0  0  0  0
  182.7190  171.6650  136.2040 C   0  0  0  0  0  0  0  0  0  0  0  0
  184.6220  172.4190  137.4960 C   0  0  0  0  0  3  0  0  0  0  0  0
  181.1010  182.4440  137.9690 C   0  0  0  0  0  1  0  0  0  0  0  0
  181.3740  181.0580  137.6300 N   0  0  0  0  0  2  0  0  0  0  0  0
  1  4  1  0  0  0  0
  1 27  1  0  0  0  0
  2 17  1  0  0  0  0
  2 24  1  0  0  0  0
  2 14  1  0  0  0  0
  3  9  1  0  0  0  0
  3  7  1  0  0  0  0
  4 12  1  0  0  0  0
  5 19  1  0  0  0  0
  6  9  1  0  0  0  0
  6 22  1  0  0  0  0
  7 21  1  0  0  0  0
  8 12  1  0  0  0  0
  9 13  1  0  0  0  0
 10  7  1  0  0  0  0
 10  5  1  0  0  0  0
 11  6  1  0  0  0  0
 13 21  1  0  0  0  0
 13 17  1  0  0  0  0
 15 20  1  0  0  0  0
 16 11  1  0  0  0  0
 16 20  1  0  0  0  0
 18  8  1  0  0  0  0
 18 25  1  0  0  0  0
 19 18  1  0  0  0  0
 20  3  1  0  0  0  0
 21 27  1  0  0  0  0
 22  2  1  0  0  0  0
 23 30  1  0  0  0  0
 23 10  1  0  0  0  0
 26  8  1  0  0  0  0
 27 25  1  0  0  0  0
 28 15  1  0  0  0  0
 28 23  1  0  0  0  0
 29 35  1  0  0  0  0
 30 29  2  0  0  0  0
 31 34  2  0  0  0  0
 31 30  1  0  0  0  0
 32 34  1  0  0  0  0
 33 35  2  0  0  0  0
 34 33  1  0  0  0  0
 37 36  1  0  0  0  0
 37  4  1  0  0  0  0
M  END
>  <MODEL>
3

>  <REMARK>
 VINA RESULT:      -4.3      3.190      7.553
  Name = 
  2 active torsions:
  status: ('A' for Active; 'I' for Inactive)
    1  A    between atoms: C_4  and  N_37
    2  A    between atoms: C_23  and  C_30
                            x       y       z     vdW  Elec       q    Type
                         _______ _______ _______ _____ _____    ______ ____

>  <TORSDO>
F 2

$$$$
=
 OpenBabel11122411243D

 37 43  0  0  1  0  0  0  0  0999 V2000
  184.2550  177.0050  136.9820 C   0  0  0  0  0  2  0  0  0  0  0  0
  179.8780  173.8810  138.8080 C   0  0  0  0  0  0  0  0  0  0  0  0
  181.0320  177.1180  136.7850 C   0  0  1  0  0  3  0  0  0  0  0  0
  185.6930  176.6410  136.5930 C   0  0  2  0  0  3  0  0  0  0  0  0
  183.1670  179.5810  138.9190 C   0  0  0  0  0  2  0  0  0  0  0  0
  180.1750  174.6820  136.4410 C   0  0  2  0  0  3  0  0  0  0  0  0
  181.6040  177.7080  138.0650 C   0  0  2  0  0  3  0  0  0  0  0  0
  186.6800  178.3270  138.3200 C   0  0  2  0  0  3  0  0  0  0  0  0
  181.3070  175.6260  136.9030 C   0  0  2  0  0  3  0  0  0  0  0  0
  182.2210  179.1030  137.8250 C   0  0  1  0  0  3  0  0  0  0  0  0
  179.4590  175.2650  135.2210 C   0  0  0  0  0  2  0  0  0  0  0  0
  186.7590  176.9400  137.6590 C   0  0  0  0  0  2  0  0  0  0  0  0
  181.8550  175.3990  138.3140 C   0  0  2  0  0  3  0  0  0  0  0  0
  180.6250  172.7440  138.5470 F   0  0  0  0  0  0  0  0  0  0  0  0
  179.1440  178.8940  136.6270 C   0  0  0  0  0  2  0  0  0  0  0  0
  178.9320  176.6960  135.4320 C   0  0  0  0  0  2  0  0  0  0  0  0
  180.7750  174.9960  139.3270 C   0  0  0  0  0  2  0  0  0  0  0  0
  185.3820  178.6200  139.1080 C   0  0  1  0  0  3  0  0  0  0  0  0
  184.5210  179.5650  138.3830 N   0  0  0  0  0  2  0  0  0  0  0  0
  179.5310  177.4100  136.6470 C   0  0  1  0  0  3  0  0  0  0  0  0
  182.4300  176.6730  138.7350 N   0  0  1  0  0  0  0  0  0  0  0  0
  179.1710  174.3540  137.5470 C   0  0  0  0  0  2  0  0  0  0  0  0
  181.1660  180.1800  137.5100 C   0  0  1  0  0  3  0  0  0  0  0  0
  178.9310  173.5840  139.7680 F   0  0  0  0  0  0  0  0  0  0  0  0
  184.6710  177.3200  139.5420 C   0  0  0  0  0  2  0  0  0  0  0  0
  186.9900  179.3390  137.4080 O   0  0  0  0  0  1  0  0  0  0  0  0
  183.8740  176.6230  138.4290 C   0  0  2  0  0  3  0  0  0  0  0  0
  180.2820  179.8630  136.2950 C   0  0  0  0  0  2  0  0  0  0  0  0
  179.7080  181.9130  138.5810 C   0  0  0  0  0  3  0  0  0  0  0  0
  180.3980  180.7010  138.6970 C   0  0  0  0  0  0  0  0  0  0  0  0
  180.3440  179.9880  139.9040 C   0  0  0  0  0  3  0  0  0  0  0  0
  179.5630  179.7280  142.2620 C   0  0  0  0  0  1  0  0  0  0  0  0
  178.9310  181.7010  140.8650 C   0  0  0  0  0  3  0  0  0  0  0  0
  179.6140  180.4880  140.9860 C   0  0  0  0  0  0  0  0  0  0  0  0
  178.9780  182.4130  139.6630 C   0  0  0  0  0  3  0  0  0  0  0  0
  187.3190  176.7380  134.9160 C   0  0  0  0  0  1  0  0  0  0  0  0
  186.0440  177.2890  135.3410 N   0  0  0  0  0  2  0  0  0  0  0  0
  1 27  1  0  0  0  0
  2 17  1  0  0  0  0
  2 24  1  0  0  0  0
  3  9  1  0  0  0  0
  3  7  1  0  0  0  0
  4  1  1  0  0  0  0
  4 12  1  0  0  0  0
  6  9  1  0  0  0  0
  6 22  1  0  0  0  0
  7 21  1  0  0  0  0
  8 18  1  0  0  0  0
  9 13  1  0  0  0  0
 10  7  1  0  0  0  0
 10  5  1  0  0  0  0
 11 16  1  0  0  0  0
 11  6  1  0  0  0  0
 12  8  1  0  0  0  0
 13 21  1  0  0  0  0
 13 17  1  0  0  0  0
 14  2  1  0  0  0  0
 15 20  1  0  0  0  0
 16 20  1  0  0  0  0
 18 25  1  0  0  0  0
 19  5  1  0  0  0  0
 19 18  1  0  0  0  0
 20  3  1  0  0  0  0
 22  2  1  0  0  0  0
 23 10  1  0  0  0  0
 23 30  1  0  0  0  0
 26  8  1  0  0  0  0
 27 21  1  0  0  0  0
 27 25  1  0  0  0  0
 28 15  1  0  0  0  0
 28 23  1  0  0  0  0
 29 30  2  0  0  0  0
 29 35  1  0  0  0  0
 30 31  1  0  0  0  0
 31 34  2  0  0  0  0
 33 34  1  0  0  0  0
 34 32  1  0  0  0  0
 35 33  2  0  0  0  0
 36 37  1  0  0  0  0
 37  4  1  0  0  0  0
M  END
>  <MODEL>
4

>  <REMARK>
 VINA RESULT:      -4.2      3.183      5.626
  Name = 
  2 active torsions:
  status: ('A' for Active; 'I' for Inactive)
    1  A    between atoms: C_4  and  N_37
    2  A    between atoms: C_23  and  C_30
                            x       y       z     vdW  Elec       q    Type
                         _______ _______ _______ _____ _____    ______ ____

>  <TORSDO>
F 2

$$$$
=
 OpenBabel11122411243D

 37 43  0  0  1  0  0  0  0  0999 V2000
  181.8390  181.2120  138.1490 C   0  0  0  0  0  2  0  0  0  0  0  0
  184.4830  178.4440  142.3430 C   0  0  0  0  0  0  0  0  0  0  0  0
  183.6910  178.5800  138.4380 C   0  0  1  0  0  3  0  0  0  0  0  0
  181.4900  182.6910  137.9470 C   0  0  2  0  0  3  0  0  0  0  0  0
  179.8800  178.4780  137.6390 C   0  0  0  0  0  2  0  0  0  0  0  0
  185.5610  179.1150  140.1720 C   0  0  2  0  0  3  0  0  0  0  0  0
  182.2180  178.3460  138.7330 C   0  0  2  0  0  3  0  0  0  0  0  0
  178.9590  182.1420  137.6460 C   0  0  2  0  0  3  0  0  0  0  0  0
  184.1720  179.4550  139.5870 C   0  0  2  0  0  3  0  0  0  0  0  0
  181.3780  178.2910  137.4380 C   0  0  1  0  0  3  0  0  0  0  0  0
  186.5130  178.6700  139.0600 C   0  0  0  0  0  2  0  0  0  0  0  0
  180.0300  183.0690  138.2450 C   0  0  0  0  0  2  0  0  0  0  0  0
  183.0110  179.5330  140.5830 C   0  0  2  0  0  3  0  0  0  0  0  0
  184.7940  179.6680  142.9100 F   0  0  0  0  0  0  0  0  0  0  0  0
  183.9900  176.2650  137.3000 C   0  0  0  0  0  2  0  0  0  0  0  0
  185.9750  177.5070  138.2070 C   0  0  0  0  0  2  0  0  0  0  0  0
  183.1020  178.4910  141.7050 C   0  0  0  0  0  2  0  0  0  0  0  0
  178.9920  180.6760  138.1370 C   0  0  1  0  0  3  0  0  0  0  0  0
  179.5110  179.7780  137.0950 N   0  0  0  0  0  2  0  0  0  0  0  0
  184.4720  177.2600  138.3630 C   0  0  1  0  0  3  0  0  0  0  0  0
  181.7980  179.2760  139.8110 N   0  0  1  0  0  0  0  0  0  0  0  0
  185.5110  178.0690  141.2860 C   0  0  0  0  0  2  0  0  0  0  0  0
  181.6600  177.0340  136.5930 C   0  0  1  0  0  3  0  0  0  0  0  0
  184.4860  177.4780  143.3320 F   0  0  0  0  0  0  0  0  0  0  0  0
  179.7050  180.5450  139.5000 C   0  0  0  0  0  2  0  0  0  0  0  0
  178.9310  182.2380  136.2520 O   0  0  0  0  0  1  0  0  0  0  0  0
  181.2390  180.5880  139.4270 C   0  0  2  0  0  3  0  0  0  0  0  0
  183.1300  176.8650  136.1840 C   0  0  0  0  0  2  0  0  0  0  0  0
  180.7900  174.7210  136.1840 C   0  0  0  0  0  3  0  0  0  0  0  0
  181.0200  175.7640  137.0880 C   0  0  0  0  0  0  0  0  0  0  0  0
  180.6700  175.5980  138.4370 C   0  0  0  0  0  3  0  0  0  0  0  0
  179.7170  174.2370  140.3020 C   0  0  0  0  0  1  0  0  0  0  0  0
  179.8570  173.3680  137.9630 C   0  0  0  0  0  3  0  0  0  0  0  0
  180.0870  174.4040  138.8720 C   0  0  0  0  0  0  0  0  0  0  0  0
  180.2080  173.5270  136.6190 C   0  0  0  0  0  3  0  0  0  0  0  0
  181.3510  184.4560  136.4200 C   0  0  0  0  0  1  0  0  0  0  0  0
  181.8460  183.1020  136.6000 N   0  0  0  0  0  2  0  0  0  0  0  0
  1 27  1  0  0  0  0
  2 14  1  0  0  0  0
  2 24  1  0  0  0  0
  3  7  1  0  0  0  0
  3  9  1  0  0  0  0
  4  1  1  0  0  0  0
  4 12  1  0  0  0  0
  6 22  1  0  0  0  0
  7 21  1  0  0  0  0
  8 18  1  0  0  0  0
  8 12  1  0  0  0  0
  9  6  1  0  0  0  0
  9 13  1  0  0  0  0
 10  5  1  0  0  0  0
 10  7  1  0  0  0  0
 11  6  1  0  0  0  0
 13 17  1  0  0  0  0
 15 20  1  0  0  0  0
 16 20  1  0  0  0  0
 16 11  1  0  0  0  0
 17  2  1  0  0  0  0
 18 25  1  0  0  0  0
 19  5  1  0  0  0  0
 19 18  1  0  0  0  0
 20  3  1  0  0  0  0
 21 13  1  0  0  0  0
 22  2  1  0  0  0  0
 23 30  1  0  0  0  0
 23 10  1  0  0  0  0
 26  8  1  0  0  0  0
 27 25  1  0  0  0  0
 27 21  1  0  0  0  0
 28 23  1  0  0  0  0
 28 15  1  0  0  0  0
 29 35  2  0  0  0  0
 29 30  1  0  0  0  0
 30 31  2  0  0  0  0
 31 34  1  0  0  0  0
 33 34  2  0  0  0  0
 34 32  1  0  0  0  0
 35 33  1  0  0  0  0
 36 37  1  0  0  0  0
 37  4  1  0  0  0  0
M  END
>  <MODEL>
5

>  <REMARK>
 VINA RESULT:      -4.2      2.161      6.357
  Name = 
  2 active torsions:
  status: ('A' for Active; 'I' for Inactive)
    1  A    between atoms: C_4  and  N_37
    2  A    between atoms: C_23  and  C_30
                            x       y       z     vdW  Elec       q    Type
                         _______ _______ _______ _____ _____    ______ ____

>  <TORSDO>
F 2

$$$$
=
 OpenBabel11122411243D

 37 43  0  0  1  0  0  0  0  0999 V2000
  184.7550  177.9270  138.2700 C   0  0  0  0  0  2  0  0  0  0  0  0
  180.0690  180.8560  136.9620 C   0  0  0  0  0  0  0  0  0  0  0  0
  181.6220  177.8380  139.0560 C   0  0  1  0  0  3  0  0  0  0  0  0
  186.2320  178.3270  138.3550 C   0  0  2  0  0  3  0  0  0  0  0  0
  183.3800  175.1690  136.8290 C   0  0  0  0  0  2  0  0  0  0  0  0
  180.7990  180.2980  139.3040 C   0  0  2  0  0  3  0  0  0  0  0  0
  181.9640  177.1210  137.7590 C   0  0  2  0  0  3  0  0  0  0  0  0
  186.9210  176.4730  136.6560 C   0  0  2  0  0  3  0  0  0  0  0  0
  181.8460  179.3110  138.7420 C   0  0  2  0  0  3  0  0  0  0  0  0
  182.6380  175.7570  138.0230 C   0  0  1  0  0  3  0  0  0  0  0  0
  180.3240  179.8430  140.6860 C   0  0  0  0  0  2  0  0  0  0  0  0
  187.0940  177.9200  137.1500 C   0  0  0  0  0  2  0  0  0  0  0  0
  182.1270  179.3930  137.2400 C   0  0  2  0  0  3  0  0  0  0  0  0
  180.8300  182.0120  136.9690 F   0  0  0  0  0  0  0  0  0  0  0  0
  179.8230  176.0900  139.7290 C   0  0  0  0  0  2  0  0  0  0  0  0
  179.7920  178.3980  140.7170 C   0  0  0  0  0  2  0  0  0  0  0  0
  180.8760  179.6930  136.4040 C   0  0  0  0  0  2  0  0  0  0  0  0
  185.5090  176.1030  136.1480 C   0  0  1  0  0  3  0  0  0  0  0  0
  184.8080  175.2370  137.1070 N   0  0  0  0  0  2  0  0  0  0  0  0
  180.1750  177.5640  139.4910 C   0  0  1  0  0  3  0  0  0  0  0  0
  182.6390  178.0820  136.8520 N   0  0  1  0  0  0  0  0  0  0  0  0
  179.6070  180.5130  138.3700 C   0  0  0  0  0  2  0  0  0  0  0  0
  181.6750  174.7190  138.6280 C   0  0  1  0  0  3  0  0  0  0  0  0
  178.9590  181.0550  136.1630 F   0  0  0  0  0  0  0  0  0  0  0  0
  184.7090  177.3540  135.7220 C   0  0  0  0  0  2  0  0  0  0  0  0
  187.4080  175.5580  137.5930 O   0  0  0  0  0  1  0  0  0  0  0  0
  184.1130  178.1610  136.8850 C   0  0  2  0  0  3  0  0  0  0  0  0
  181.0190  175.1580  139.9450 C   0  0  0  0  0  2  0  0  0  0  0  0
  179.9070  174.9020  136.8630 C   0  0  0  0  0  3  0  0  0  0  0  0
  180.7150  174.0810  137.6580 C   0  0  0  0  0  0  0  0  0  0  0  0
  180.6290  172.6870  137.5220 C   0  0  0  0  0  3  0  0  0  0  0  0
  179.6520  170.6450  136.4680 C   0  0  0  0  0  1  0  0  0  0  0  0
  178.9310  172.9470  135.8170 C   0  0  0  0  0  3  0  0  0  0  0  0
  179.7380  172.1230  136.6050 C   0  0  0  0  0  0  0  0  0  0  0  0
  179.0160  174.3370  135.9470 C   0  0  0  0  0  3  0  0  0  0  0  0
  188.1960  178.2540  139.6230 C   0  0  0  0  0  1  0  0  0  0  0  0
  186.8130  177.8080  139.5820 N   0  0  0  0  0  2  0  0  0  0  0  0
  1  4  1  0  0  0  0
  2 14  1  0  0  0  0
  2 22  1  0  0  0  0
  3 20  1  0  0  0  0
  4 37  1  0  0  0  0
  5 19  1  0  0  0  0
  5 10  1  0  0  0  0
  6 11  1  0  0  0  0
  7 10  1  0  0  0  0
  7  3  1  0  0  0  0
  8 12  1  0  0  0  0
  8 26  1  0  0  0  0
  9  3  1  0  0  0  0
  9  6  1  0  0  0  0
 10 23  1  0  0  0  0
 11 16  1  0  0  0  0
 12  4  1  0  0  0  0
 13  9  1  0  0  0  0
 15 28  1  0  0  0  0
 17  2  1  0  0  0  0
 17 13  1  0  0  0  0
 18  8  1  0  0  0  0
 18 19  1  0  0  0  0
 20 15  1  0  0  0  0
 20 16  1  0  0  0  0
 21 27  1  0  0  0  0
 21 13  1  0  0  0  0
 21  7  1  0  0  0  0
 22  6  1  0  0  0  0
 23 28  1  0  0  0  0
 24  2  1  0  0  0  0
 25 18  1  0  0  0  0
 25 27  1  0  0  0  0
 27  1  1  0  0  0  0
 29 30  1  0  0  0  0
 30 23  1  0  0  0  0
 31 30  2  0  0  0  0
 32 34  1  0  0  0  0
 33 35  1  0  0  0  0
 33 34  2  0  0  0  0
 34 31  1  0  0  0  0
 35 29  2  0  0  0  0
 37 36  1  0  0  0  0
M  END
>  <MODEL>
6

>  <REMARK>
 VINA RESULT:      -4.1      3.296      6.642
  Name = 
  2 active torsions:
  status: ('A' for Active; 'I' for Inactive)
    1  A    between atoms: C_4  and  N_37
    2  A    between atoms: C_23  and  C_30
                            x       y       z     vdW  Elec       q    Type
                         _______ _______ _______ _____ _____    ______ ____

>  <TORSDO>
F 2

$$$$
