=
 OpenBabel11122411333D

 37 43  0  0  1  0  0  0  0  0999 V2000
  183.0710  178.2530  141.1430 C   0  0  0  0  0  2  0  0  0  0  0  0
  180.4570  181.9480  137.8990 S   0  0  0  0  0  0  0  0  0  0  0  0
  182.6200  178.1970  137.6250 C   0  0  0  0  0  0  0  0  0  0  0  0
  182.4660  178.4760  142.5350 C   0  0  1  0  0  3  0  0  0  0  0  0
  186.2110  178.1720  139.0370 C   0  0  0  0  0  2  0  0  0  0  0  0
  180.5900  179.3510  137.0290 C   0  0  0  0  0  0  0  0  0  0  0  0
  183.8150  178.4040  138.3660 N   0  0  0  0  0  0  0  0  0  0  0  0
  184.8320  178.8440  143.3070 C   0  0  0  0  0  0  0  0  0  0  0  0
  181.7410  179.2210  137.8050 C   0  0  0  0  0  0  0  0  0  0  0  0
  185.0500  177.6140  138.2010 C   0  0  1  0  0  3  0  0  0  0  0  0
  180.2880  178.3330  136.1100 C   0  0  0  0  0  3  0  0  0  0  0  0
  183.3930  179.1700  143.5390 C   0  0  0  0  0  2  0  0  0  0  0  0
  182.2290  180.1630  138.8430 C   0  0  2  0  0  3  0  0  0  0  0  0
  179.6540  182.2240  139.1390 O   0  0  0  0  0  0  0  0  0  0  0  0
  183.2820  176.0170  136.5580 C   0  0  0  0  0  2  0  0  0  0  0  0
  181.1610  177.2350  135.9650 C   0  0  0  0  0  3  0  0  0  0  0  0
  182.1550  181.5990  138.3430 C   0  0  0  0  0  2  0  0  0  0  0  0
  185.6140  179.6820  142.3390 C   0  0  0  0  0  2  0  0  0  0  0  0
  185.9080  178.1270  140.5250 C   0  0  0  0  0  2  0  0  0  0  0  0
  182.3500  177.1690  136.7140 C   0  0  0  0  0  0  0  0  0  0  0  0
  183.6690  179.6720  139.1120 C   0  0  1  0  0  3  0  0  0  0  0  0
  179.8180  180.5530  137.0830 N   0  0  0  0  0  2  0  0  0  0  0  0
  185.4060  177.5030  136.6940 C   0  0  2  0  0  3  0  0  0  0  0  0
  180.4130  183.1380  136.9840 O   0  0  0  0  0  0  0  0  0  0  0  0
  185.3060  179.3940  140.9310 N   0  0  1  0  0  0  0  0  0  0  0  0
  185.3450  177.8780  143.8460 O   0  0  0  0  0  0  0  0  0  0  0  0
  183.8670  179.4650  140.6170 C   0  0  2  0  0  3  0  0  0  0  0  0
  184.6040  176.4380  135.9220 C   0  0  0  0  0  2  0  0  0  0  0  0
  187.6990  178.4270  136.1500 C   0  0  0  0  0  3  0  0  0  0  0  0
  186.8690  177.3230  136.4010 C   0  0  0  0  0  0  0  0  0  0  0  0
  187.4060  176.0310  136.3690 C   0  0  0  0  0  3  0  0  0  0  0  0
  189.2910  174.5580  136.0600 O   0  0  0  0  0  1  0  0  0  0  0  0
  189.5870  176.9430  135.8420 C   0  0  0  0  0  3  0  0  0  0  0  0
  188.7630  175.8410  136.0900 C   0  0  0  0  0  0  0  0  0  0  0  0
  189.0550  178.2350  135.8710 C   0  0  0  0  0  3  0  0  0  0  0  0
  180.4340  178.3900  141.6600 C   0  0  0  0  0  1  0  0  0  0  0  0
  181.2760  179.1990  142.4250 O   0  0  0  0  0  0  0  0  0  0  0  0
  1  4  1  0  0  0  0
  2 17  1  0  0  0  0
  2 14  2  0  0  0  0
  3  9  1  0  0  0  0
  3  7  1  0  0  0  0
  4 37  1  6  0  0  0
  4 12  1  0  0  0  0
  5 19  1  0  0  0  0
  6 22  1  0  0  0  0
  6  9  2  0  0  0  0
  8 12  1  0  0  0  0
  8 26  2  0  0  0  0
  9 13  1  0  0  0  0
 10  7  1  0  0  0  0
 10  5  1  1  0  0  0
 11  6  1  0  0  0  0
 13 17  1  6  0  0  0
 13 21  1  0  0  0  0
 15 20  1  0  0  0  0
 16 11  2  0  0  0  0
 16 20  1  0  0  0  0
 18  8  1  0  0  0  0
 20  3  2  0  0  0  0
 21  7  1  6  0  0  0
 21 27  1  0  0  0  0
 22  2  1  0  0  0  0
 23 30  1  1  0  0  0
 23 10  1  0  0  0  0
 24  2  2  0  0  0  0
 25 19  1  1  0  0  0
 25 18  1  0  0  0  0
 27 25  1  0  0  0  0
 27  1  1  6  0  0  0
 28 15  1  0  0  0  0
 28 23  1  0  0  0  0
 29 30  1  0  0  0  0
 31 30  2  0  0  0  0
 32 34  1  0  0  0  0
 33 35  1  0  0  0  0
 33 34  2  0  0  0  0
 34 31  1  0  0  0  0
 35 29  2  0  0  0  0
 36 37  1  0  0  0  0
M  END
>  <MODEL>
1

>  <REMARK>
 VINA RESULT:      -6.3      0.000      0.000
  Name = 
  2 active torsions:
  status: ('A' for Active; 'I' for Inactive)
    1  A    between atoms: C_4  and  O_37
    2  A    between atoms: C_23  and  C_30
                            x       y       z     vdW  Elec       q    Type
                         _______ _______ _______ _____ _____    ______ ____

>  <TORSDO>
F 2

$$$$
=
 OpenBabel11122411333D

 37 43  0  0  1  0  0  0  0  0999 V2000
  181.1010  180.8300  137.9120 C   0  0  0  0  0  2  0  0  0  0  0  0
  180.2090  178.6110  142.9420 S   0  0  0  0  0  0  0  0  0  0  0  0
  183.2460  178.7710  139.8470 C   0  0  0  0  0  0  0  0  0  0  0  0
  180.1430  182.0270  137.8500 C   0  0  1  0  0  3  0  0  0  0  0  0
  182.1920  177.5690  136.3350 C   0  0  0  0  0  2  0  0  0  0  0  0
  182.8050  179.0870  142.1950 C   0  0  0  0  0  0  0  0  0  0  0  0
  182.5620  178.4580  138.6410 N   0  0  0  0  0  0  0  0  0  0  0  0
  179.2320  180.9610  135.7610 C   0  0  0  0  0  0  0  0  0  0  0  0
  182.3750  178.9710  140.8730 C   0  0  0  0  0  0  0  0  0  0  0  0
  183.2120  177.9520  137.4170 C   0  0  1  0  0  3  0  0  0  0  0  0
  184.1860  179.0990  142.4470 C   0  0  0  0  0  3  0  0  0  0  0  0
  178.9310  181.8380  136.9320 C   0  0  0  0  0  2  0  0  0  0  0  0
  180.9720  178.9600  140.3890 C   0  0  2  0  0  3  0  0  0  0  0  0
  179.3120  179.8020  143.1270 O   0  0  0  0  0  0  0  0  0  0  0  0
  185.5860  178.6140  138.9350 C   0  0  0  0  0  2  0  0  0  0  0  0
  185.0970  178.9580  141.3800 C   0  0  0  0  0  3  0  0  0  0  0  0
  180.1140  178.0420  141.2470 C   0  0  0  0  0  2  0  0  0  0  0  0
  179.0740  179.4760  135.9120 C   0  0  0  0  0  2  0  0  0  0  0  0
  181.3740  178.7670  135.8820 C   0  0  0  0  0  2  0  0  0  0  0  0
  184.6290  178.7740  140.0650 C   0  0  0  0  0  0  0  0  0  0  0  0
  181.1120  178.4900  138.9240 C   0  0  1  0  0  3  0  0  0  0  0  0
  181.8570  179.0600  143.2650 N   0  0  0  0  0  2  0  0  0  0  0  0
  184.1640  176.7780  137.7730 C   0  0  2  0  0  3  0  0  0  0  0  0
  179.7920  177.5040  143.8660 O   0  0  0  0  0  0  0  0  0  0  0  0
  180.1540  178.8460  136.6830 N   0  0  1  0  0  0  0  0  0  0  0  0
  179.6590  181.4360  134.7230 O   0  0  0  0  0  0  0  0  0  0  0  0
  180.3800  179.4700  138.0000 C   0  0  2  0  0  3  0  0  0  0  0  0
  185.5300  177.2100  138.3390 C   0  0  0  0  0  2  0  0  0  0  0  0
  185.3920  175.9700  135.7140 C   0  0  0  0  0  3  0  0  0  0  0  0
  184.3820  175.7830  136.6700 C   0  0  0  0  0  0  0  0  0  0  0  0
  183.5560  174.6560  136.5920 C   0  0  0  0  0  3  0  0  0  0  0  0
  182.9150  172.6050  135.4950 O   0  0  0  0  0  1  0  0  0  0  0  0
  184.7440  173.9110  134.6180 C   0  0  0  0  0  3  0  0  0  0  0  0
  183.7370  173.7210  135.5680 C   0  0  0  0  0  0  0  0  0  0  0  0
  185.5720  175.0350  134.6900 C   0  0  0  0  0  3  0  0  0  0  0  0
  178.9730  183.5270  138.9810 C   0  0  0  0  0  1  0  0  0  0  0  0
  179.7070  182.3510  139.1370 O   0  0  0  0  0  0  0  0  0  0  0  0
  2 14  2  0  0  0  0
  2 22  1  0  0  0  0
  2 24  2  0  0  0  0
  3 20  2  0  0  0  0
  3  9  1  0  0  0  0
  4  1  1  0  0  0  0
  4 37  1  1  0  0  0
  6 11  1  0  0  0  0
  6 22  1  0  0  0  0
  7  3  1  0  0  0  0
  8 18  1  0  0  0  0
  8 12  1  0  0  0  0
  9  6  2  0  0  0  0
 10  5  1  6  0  0  0
 10 23  1  0  0  0  0
 10  7  1  0  0  0  0
 12  4  1  0  0  0  0
 13  9  1  0  0  0  0
 13 17  1  1  0  0  0
 15 20  1  0  0  0  0
 16 11  2  0  0  0  0
 17  2  1  0  0  0  0
 18 25  1  0  0  0  0
 19  5  1  0  0  0  0
 20 16  1  0  0  0  0
 21  7  1  6  0  0  0
 21 13  1  0  0  0  0
 23 30  1  6  0  0  0
 23 28  1  0  0  0  0
 25 19  1  6  0  0  0
 25 27  1  0  0  0  0
 26  8  2  0  0  0  0
 27  1  1  6  0  0  0
 27 21  1  0  0  0  0
 28 15  1  0  0  0  0
 29 30  1  0  0  0  0
 31 30  2  0  0  0  0
 32 34  1  0  0  0  0
 33 35  1  0  0  0  0
 33 34  2  0  0  0  0
 34 31  1  0  0  0  0
 35 29  2  0  0  0  0
 36 37  1  0  0  0  0
M  END
>  <MODEL>
2

>  <REMARK>
 VINA RESULT:      -5.7      2.540      5.744
  Name = 
  2 active torsions:
  status: ('A' for Active; 'I' for Inactive)
    1  A    between atoms: C_4  and  O_37
    2  A    between atoms: C_23  and  C_30
                            x       y       z     vdW  Elec       q    Type
                         _______ _______ _______ _____ _____    ______ ____

>  <TORSDO>
F 2

$$$$
=
 OpenBabel11122411333D

 37 43  0  0  1  0  0  0  0  0999 V2000
  184.2790  177.2640  138.3460 C   0  0  0  0  0  2  0  0  0  0  0  0
  180.1750  181.0270  138.2450 S   0  0  0  0  0  0  0  0  0  0  0  0
  180.8280  176.8090  139.0270 C   0  0  0  0  0  0  0  0  0  0  0  0
  185.5520  178.0960  138.5440 C   0  0  1  0  0  3  0  0  0  0  0  0
  182.4440  174.7610  136.1830 C   0  0  0  0  0  2  0  0  0  0  0  0
  179.8740  178.8490  139.8850 C   0  0  0  0  0  0  0  0  0  0  0  0
  181.5860  176.3410  137.9190 N   0  0  0  0  0  0  0  0  0  0  0  0
  186.3830  176.9990  136.4380 C   0  0  0  0  0  0  0  0  0  0  0  0
  180.7340  178.1670  139.0240 C   0  0  0  0  0  0  0  0  0  0  0  0
  181.6680  174.9290  137.4980 C   0  0  1  0  0  3  0  0  0  0  0  0
  179.1690  178.1080  140.8460 C   0  0  0  0  0  3  0  0  0  0  0  0
  186.4480  178.2130  137.3060 C   0  0  0  0  0  2  0  0  0  0  0  0
  181.5820  178.7560  137.9590 C   0  0  2  0  0  3  0  0  0  0  0  0
  181.2760  181.9950  138.5740 O   0  0  0  0  0  0  0  0  0  0  0  0
  180.2820  174.5590  140.0110 C   0  0  0  0  0  2  0  0  0  0  0  0
  179.3120  176.7060  140.8980 C   0  0  0  0  0  3  0  0  0  0  0  0
  180.7920  179.7640  137.1370 C   0  0  0  0  0  2  0  0  0  0  0  0
  185.3150  176.9200  135.3870 C   0  0  0  0  0  2  0  0  0  0  0  0
  183.8860  175.2200  136.3160 C   0  0  0  0  0  2  0  0  0  0  0  0
  180.1340  176.0410  139.9690 C   0  0  0  0  0  0  0  0  0  0  0  0
  182.0410  177.5200  137.1530 C   0  0  1  0  0  3  0  0  0  0  0  0
  179.6270  180.2450  139.6970 N   0  0  0  0  0  2  0  0  0  0  0  0
  180.2440  174.3160  137.4270 C   0  0  2  0  0  3  0  0  0  0  0  0
  179.0320  181.7510  137.5940 O   0  0  0  0  0  0  0  0  0  0  0  0
  183.9810  176.6250  135.9270 N   0  0  1  0  0  0  0  0  0  0  0  0
  187.1430  176.0630  136.6210 O   0  0  0  0  0  0  0  0  0  0  0  0
  183.5660  177.5410  137.0060 C   0  0  2  0  0  3  0  0  0  0  0  0
  179.6590  173.8920  138.7880 C   0  0  0  0  0  2  0  0  0  0  0  0
  179.0730  173.1910  135.4860 C   0  0  0  0  0  3  0  0  0  0  0  0
  180.0910  173.1830  136.4530 C   0  0  0  0  0  0  0  0  0  0  0  0
  180.9730  172.0990  136.5200 C   0  0  0  0  0  3  0  0  0  0  0  0
  181.7200  169.9570  135.6980 O   0  0  0  0  0  1  0  0  0  0  0  0
  179.8280  171.0420  134.6650 C   0  0  0  0  0  3  0  0  0  0  0  0
  180.8420  171.0300  135.6280 C   0  0  0  0  0  0  0  0  0  0  0  0
  178.9440  172.1220  134.5940 C   0  0  0  0  0  3  0  0  0  0  0  0
  184.5700  179.1650  140.2150 C   0  0  0  0  0  1  0  0  0  0  0  0
  185.2170  179.3740  138.9970 O   0  0  0  0  0  0  0  0  0  0  0  0
  1  4  1  0  0  0  0
  2 14  2  0  0  0  0
  2 22  1  0  0  0  0
  3 20  1  0  0  0  0
  4 37  1  6  0  0  0
  5 19  1  0  0  0  0
  6 11  2  0  0  0  0
  7  3  1  0  0  0  0
  8 26  2  0  0  0  0
  8 12  1  0  0  0  0
  9  3  2  0  0  0  0
  9  6  1  0  0  0  0
 10  5  1  6  0  0  0
 10  7  1  0  0  0  0
 11 16  1  0  0  0  0
 12  4  1  0  0  0  0
 13 17  1  6  0  0  0
 13  9  1  0  0  0  0
 17  2  1  0  0  0  0
 18  8  1  0  0  0  0
 20 15  1  0  0  0  0
 20 16  2  0  0  0  0
 21  7  1  1  0  0  0
 21 13  1  0  0  0  0
 22  6  1  0  0  0  0
 23 30  1  6  0  0  0
 23 10  1  0  0  0  0
 23 28  1  0  0  0  0
 24  2  2  0  0  0  0
 25 18  1  1  0  0  0
 25 19  1  0  0  0  0
 25 27  1  0  0  0  0
 27 21  1  0  0  0  0
 27  1  1  1  0  0  0
 28 15  1  0  0  0  0
 29 30  1  0  0  0  0
 30 31  2  0  0  0  0
 33 34  2  0  0  0  0
 34 32  1  0  0  0  0
 34 31  1  0  0  0  0
 35 33  1  0  0  0  0
 35 29  2  0  0  0  0
 37 36  1  0  0  0  0
M  END
>  <MODEL>
3

>  <REMARK>
 VINA RESULT:      -5.5      3.307      5.990
  Name = 
  2 active torsions:
  status: ('A' for Active; 'I' for Inactive)
    1  A    between atoms: C_4  and  O_37
    2  A    between atoms: C_23  and  C_30
                            x       y       z     vdW  Elec       q    Type
                         _______ _______ _______ _____ _____    ______ ____

>  <TORSDO>
F 2

$$$$
=
 OpenBabel11122411333D

 37 43  0  0  1  0  0  0  0  0999 V2000
  185.4770  177.2210  135.8780 C   0  0  0  0  0  2  0  0  0  0  0  0
  183.8430  171.9060  136.2070 S   0  0  0  0  0  0  0  0  0  0  0  0
  182.1900  175.9180  136.1770 C   0  0  0  0  0  0  0  0  0  0  0  0
  186.8540  177.1530  135.2050 C   0  0  1  0  0  3  0  0  0  0  0  0
  183.4840  178.3340  138.8940 C   0  0  0  0  0  2  0  0  0  0  0  0
  182.0710  173.7280  135.1780 C   0  0  0  0  0  0  0  0  0  0  0  0
  182.9530  176.6390  137.1360 N   0  0  0  0  0  0  0  0  0  0  0  0
  187.7010  178.3960  137.2210 C   0  0  0  0  0  0  0  0  0  0  0  0
  182.7410  174.6990  135.9230 C   0  0  0  0  0  0  0  0  0  0  0  0
  182.5030  177.8750  137.8050 C   0  0  1  0  0  3  0  0  0  0  0  0
  180.8400  174.0690  134.5940 C   0  0  0  0  0  3  0  0  0  0  0  0
  188.0410  177.4320  136.1330 C   0  0  0  0  0  2  0  0  0  0  0  0
  184.0520  174.5560  136.6010 C   0  0  2  0  0  3  0  0  0  0  0  0
  185.0990  171.6430  135.4250 O   0  0  0  0  0  0  0  0  0  0  0  0
  180.3880  177.6410  135.8430 C   0  0  0  0  0  2  0  0  0  0  0  0
  180.2950  175.3530  134.7990 C   0  0  0  0  0  3  0  0  0  0  0  0
  184.1230  173.2420  137.3660 C   0  0  0  0  0  2  0  0  0  0  0  0
  187.1110  177.8670  138.4950 C   0  0  0  0  0  2  0  0  0  0  0  0
  184.8490  178.6700  138.3190 C   0  0  0  0  0  2  0  0  0  0  0  0
  180.9640  176.2860  135.6140 C   0  0  0  0  0  0  0  0  0  0  0  0
  184.1160  175.8060  137.5050 C   0  0  1  0  0  3  0  0  0  0  0  0
  182.5700  172.3890  135.1280 N   0  0  0  0  0  2  0  0  0  0  0  0
  181.0620  177.6840  138.3500 C   0  0  2  0  0  3  0  0  0  0  0  0
  183.4360  170.6700  136.9560 O   0  0  0  0  0  0  0  0  0  0  0  0
  185.6990  177.4830  138.3730 N   0  0  1  0  0  0  0  0  0  0  0  0
  187.8410  179.5960  137.0540 O   0  0  0  0  0  0  0  0  0  0  0  0
  185.4370  176.5460  137.2650 C   0  0  2  0  0  3  0  0  0  0  0  0
  179.9510  177.8340  137.2920 C   0  0  0  0  0  2  0  0  0  0  0  0
  180.9040  178.0470  140.8490 C   0  0  0  0  0  3  0  0  0  0  0  0
  180.7190  178.5290  139.5440 C   0  0  0  0  0  0  0  0  0  0  0  0
  180.1990  179.8130  139.3470 C   0  0  0  0  0  3  0  0  0  0  0  0
  179.3510  181.8850  140.2450 O   0  0  0  0  0  1  0  0  0  0  0  0
  180.0530  180.1290  141.7440 C   0  0  0  0  0  3  0  0  0  0  0  0
  179.8670  180.6120  140.4450 C   0  0  0  0  0  0  0  0  0  0  0  0
  180.5710  178.8470  141.9460 C   0  0  0  0  0  3  0  0  0  0  0  0
  188.3570  175.5730  134.8240 C   0  0  0  0  0  1  0  0  0  0  0  0
  187.0220  175.9080  134.5950 O   0  0  0  0  0  0  0  0  0  0  0  0
  2 24  2  0  0  0  0
  2 17  1  0  0  0  0
  3  7  1  0  0  0  0
  4 37  1  1  0  0  0
  4  1  1  0  0  0  0
  4 12  1  0  0  0  0
  6  9  2  0  0  0  0
  7 10  1  0  0  0  0
  8 18  1  0  0  0  0
  9  3  1  0  0  0  0
  9 13  1  0  0  0  0
 10 23  1  0  0  0  0
 10  5  1  1  0  0  0
 11 16  2  0  0  0  0
 11  6  1  0  0  0  0
 12  8  1  0  0  0  0
 13 17  1  1  0  0  0
 13 21  1  0  0  0  0
 14  2  2  0  0  0  0
 15 28  1  0  0  0  0
 16 20  1  0  0  0  0
 19  5  1  0  0  0  0
 20 15  1  0  0  0  0
 20  3  2  0  0  0  0
 21  7  1  6  0  0  0
 22  6  1  0  0  0  0
 22  2  1  0  0  0  0
 23 30  1  1  0  0  0
 25 19  1  6  0  0  0
 25 18  1  0  0  0  0
 26  8  2  0  0  0  0
 27  1  1  6  0  0  0
 27 21  1  0  0  0  0
 27 25  1  0  0  0  0
 28 23  1  0  0  0  0
 29 35  1  0  0  0  0
 30 29  2  0  0  0  0
 31 30  1  0  0  0  0
 31 34  2  0  0  0  0
 32 34  1  0  0  0  0
 33 35  2  0  0  0  0
 34 33  1  0  0  0  0
 37 36  1  0  0  0  0
M  END
>  <MODEL>
4

>  <REMARK>
 VINA RESULT:      -5.4      3.167      7.576
  Name = 
  2 active torsions:
  status: ('A' for Active; 'I' for Inactive)
    1  A    between atoms: C_4  and  O_37
    2  A    between atoms: C_23  and  C_30
                            x       y       z     vdW  Elec       q    Type
                         _______ _______ _______ _____ _____    ______ ____

>  <TORSDO>
F 2

$$$$
=
 OpenBabel11122411333D

 37 43  0  0  1  0  0  0  0  0999 V2000
  183.6680  175.1980  137.7170 C   0  0  0  0  0  2  0  0  0  0  0  0
  188.2990  178.1300  138.7040 S   0  0  0  0  0  0  0  0  0  0  0  0
  184.0130  178.3280  139.3510 C   0  0  0  0  0  0  0  0  0  0  0  0
  184.1630  173.7580  137.5320 C   0  0  1  0  0  3  0  0  0  0  0  0
  181.7850  178.1110  136.2080 C   0  0  0  0  0  2  0  0  0  0  0  0
  186.1760  178.4820  140.4040 C   0  0  0  0  0  0  0  0  0  0  0  0
  183.4340  178.0450  138.0840 N   0  0  0  0  0  0  0  0  0  0  0  0
  183.0070  173.8370  135.3000 C   0  0  0  0  0  0  0  0  0  0  0  0
  185.3530  178.0870  139.3490 C   0  0  0  0  0  0  0  0  0  0  0  0
  182.0660  178.4270  137.6850 C   0  0  1  0  0  3  0  0  0  0  0  0
  185.5760  179.0500  141.5390 C   0  0  0  0  0  3  0  0  0  0  0  0
  184.1250  173.2410  136.0900 C   0  0  0  0  0  2  0  0  0  0  0  0
  185.7760  177.4520  138.0770 C   0  0  2  0  0  3  0  0  0  0  0  0
  188.9600  176.7810  138.6900 O   0  0  0  0  0  0  0  0  0  0  0  0
  181.9110  179.1070  140.4930 C   0  0  0  0  0  2  0  0  0  0  0  0
  184.1800  179.2420  141.5750 C   0  0  0  0  0  3  0  0  0  0  0  0
  186.9830  178.1700  137.4910 C   0  0  0  0  0  2  0  0  0  0  0  0
  183.2370  175.1410  134.5940 C   0  0  0  0  0  2  0  0  0  0  0  0
  181.8810  176.6230  135.9200 C   0  0  0  0  0  2  0  0  0  0  0  0
  183.3860  178.8970  140.4650 C   0  0  0  0  0  0  0  0  0  0  0  0
  184.5090  177.5490  137.1990 C   0  0  1  0  0  3  0  0  0  0  0  0
  187.5980  178.4250  140.2670 N   0  0  0  0  0  2  0  0  0  0  0  0
  181.8140  179.9190  138.0290 C   0  0  2  0  0  3  0  0  0  0  0  0
  189.3060  179.1980  138.3870 O   0  0  0  0  0  0  0  0  0  0  0  0
  183.2410  176.3030  135.4940 N   0  0  1  0  0  0  0  0  0  0  0  0
  181.9090  173.3060  135.2790 O   0  0  0  0  0  0  0  0  0  0  0  0
  184.1740  176.1660  136.6280 C   0  0  2  0  0  3  0  0  0  0  0  0
  181.4740  180.1870  139.5080 C   0  0  0  0  0  2  0  0  0  0  0  0
  179.8630  179.8710  136.4180 C   0  0  0  0  0  3  0  0  0  0  0  0
  180.8000  180.6070  137.1600 C   0  0  0  0  0  0  0  0  0  0  0  0
  180.8000  182.0040  137.0840 C   0  0  0  0  0  3  0  0  0  0  0  0
  179.8730  184.0500  136.2030 O   0  0  0  0  0  1  0  0  0  0  0  0
  178.9380  181.9270  135.5380 C   0  0  0  0  0  3  0  0  0  0  0  0
  179.8700  182.6640  136.2750 C   0  0  0  0  0  0  0  0  0  0  0  0
  178.9340  180.5310  135.6090 C   0  0  0  0  0  3  0  0  0  0  0  0
  186.1890  173.0350  137.0100 C   0  0  0  0  0  1  0  0  0  0  0  0
  185.4600  173.6350  138.0370 O   0  0  0  0  0  0  0  0  0  0  0  0
  2 22  1  0  0  0  0
  3 20  1  0  0  0  0
  4  1  1  0  0  0  0
  4 37  1  6  0  0  0
  6 11  2  0  0  0  0
  7  3  1  0  0  0  0
  8 12  1  0  0  0  0
  9  3  2  0  0  0  0
  9  6  1  0  0  0  0
 10  5  1  6  0  0  0
 10 23  1  0  0  0  0
 10  7  1  0  0  0  0
 11 16  1  0  0  0  0
 12  4  1  0  0  0  0
 13 17  1  6  0  0  0
 13  9  1  0  0  0  0
 14  2  2  0  0  0  0
 17  2  1  0  0  0  0
 18  8  1  0  0  0  0
 19  5  1  0  0  0  0
 20 15  1  0  0  0  0
 20 16  2  0  0  0  0
 21 13  1  0  0  0  0
 21  7  1  1  0  0  0
 22  6  1  0  0  0  0
 23 30  1  6  0  0  0
 23 28  1  0  0  0  0
 24  2  2  0  0  0  0
 25 18  1  1  0  0  0
 25 19  1  0  0  0  0
 25 27  1  0  0  0  0
 26  8  2  0  0  0  0
 27 21  1  0  0  0  0
 27  1  1  1  0  0  0
 28 15  1  0  0  0  0
 29 30  1  0  0  0  0
 31 30  2  0  0  0  0
 32 34  1  0  0  0  0
 33 35  1  0  0  0  0
 33 34  2  0  0  0  0
 34 31  1  0  0  0  0
 35 29  2  0  0  0  0
 36 37  1  0  0  0  0
M  END
>  <MODEL>
5

>  <REMARK>
 VINA RESULT:      -5.4      2.892      7.691
  Name = 
  2 active torsions:
  status: ('A' for Active; 'I' for Inactive)
    1  A    between atoms: C_4  and  O_37
    2  A    between atoms: C_23  and  C_30
                            x       y       z     vdW  Elec       q    Type
                         _______ _______ _______ _____ _____    ______ ____

>  <TORSDO>
F 2

$$$$
=
 OpenBabel11122411333D

 37 43  0  0  1  0  0  0  0  0999 V2000
  190.4150  176.9690  136.8640 C   0  0  0  0  0  2  0  0  0  0  0  0
  186.0500  173.5990  136.0830 S   0  0  0  0  0  0  0  0  0  0  0  0
  187.1940  177.1210  138.3450 C   0  0  0  0  0  0  0  0  0  0  0  0
  191.2650  176.7870  135.6010 C   0  0  1  0  0  3  0  0  0  0  0  0
  190.2770  176.7680  140.6390 C   0  0  0  0  0  2  0  0  0  0  0  0
  185.5500  176.1830  136.8540 C   0  0  0  0  0  0  0  0  0  0  0  0
  188.4370  176.7850  138.9490 N   0  0  0  0  0  0  0  0  0  0  0  0
  193.1370  176.1750  137.1670 C   0  0  0  0  0  0  0  0  0  0  0  0
  186.8210  176.1860  137.4280 C   0  0  0  0  0  0  0  0  0  0  0  0
  188.9950  177.4510  140.1410 C   0  0  1  0  0  3  0  0  0  0  0  0
  184.6770  177.2390  137.1620 C   0  0  0  0  0  3  0  0  0  0  0  0
  192.5590  175.9900  135.8020 C   0  0  0  0  0  2  0  0  0  0  0  0
  187.8960  175.1860  137.2210 C   0  0  2  0  0  3  0  0  0  0  0  0
  186.6650  173.3870  134.7280 O   0  0  0  0  0  0  0  0  0  0  0  0
  186.7760  179.2390  139.6360 C   0  0  0  0  0  2  0  0  0  0  0  0
  185.0820  178.2470  138.0610 C   0  0  0  0  0  3  0  0  0  0  0  0
  187.3410  173.7720  137.3110 C   0  0  0  0  0  2  0  0  0  0  0  0
  192.6700  175.2780  138.2750 C   0  0  0  0  0  2  0  0  0  0  0  0
  191.3850  176.8220  139.6010 C   0  0  0  0  0  2  0  0  0  0  0  0
  186.3460  178.1830  138.6770 C   0  0  0  0  0  0  0  0  0  0  0  0
  188.9110  175.5280  138.3340 C   0  0  1  0  0  3  0  0  0  0  0  0
  185.1130  175.0630  136.0800 N   0  0  0  0  0  2  0  0  0  0  0  0
  187.9090  177.5480  141.2470 C   0  0  2  0  0  3  0  0  0  0  0  0
  185.1740  172.4330  136.4380 O   0  0  0  0  0  0  0  0  0  0  0  0
  191.3320  175.6150  138.7790 N   0  0  1  0  0  0  0  0  0  0  0  0
  193.9260  177.0770  137.3900 O   0  0  0  0  0  0  0  0  0  0  0  0
  190.3070  175.6920  137.7220 C   0  0  2  0  0  3  0  0  0  0  0  0
  186.9020  178.6980  141.0570 C   0  0  0  0  0  2  0  0  0  0  0  0
  187.7040  177.0430  143.7180 C   0  0  0  0  0  3  0  0  0  0  0  0
  188.4390  177.5860  142.6520 C   0  0  0  0  0  0  0  0  0  0  0  0
  189.6810  178.1810  142.8990 C   0  0  0  0  0  3  0  0  0  0  0  0
  191.4200  178.8260  144.4410 O   0  0  0  0  0  1  0  0  0  0  0  0
  189.4540  177.6920  145.2600 C   0  0  0  0  0  3  0  0  0  0  0  0
  190.1880  178.2340  144.2010 C   0  0  0  0  0  0  0  0  0  0  0  0
  188.2130  177.0960  145.0190 C   0  0  0  0  0  3  0  0  0  0  0  0
  189.2920  176.8840  134.6030 C   0  0  0  0  0  1  0  0  0  0  0  0
  190.5010  176.1880  134.5970 O   0  0  0  0  0  0  0  0  0  0  0  0
  2 24  2  0  0  0  0
  2 17  1  0  0  0  0
  3 20  1  0  0  0  0
  3  7  1  0  0  0  0
  4 37  1  6  0  0  0
  4 12  1  0  0  0  0
  4  1  1  0  0  0  0
  6 11  2  0  0  0  0
  6  9  1  0  0  0  0
  7 10  1  0  0  0  0
  8 26  2  0  0  0  0
  8 18  1  0  0  0  0
  9  3  2  0  0  0  0
 10  5  1  1  0  0  0
 10 23  1  0  0  0  0
 11 16  1  0  0  0  0
 12  8  1  0  0  0  0
 13 17  1  1  0  0  0
 13  9  1  0  0  0  0
 13 21  1  0  0  0  0
 14  2  2  0  0  0  0
 15 28  1  0  0  0  0
 16 20  2  0  0  0  0
 19  5  1  0  0  0  0
 20 15  1  0  0  0  0
 21  7  1  6  0  0  0
 22  2  1  0  0  0  0
 22  6  1  0  0  0  0
 23 30  1  1  0  0  0
 25 18  1  6  0  0  0
 25 19  1  0  0  0  0
 27  1  1  1  0  0  0
 27 21  1  0  0  0  0
 27 25  1  0  0  0  0
 28 23  1  0  0  0  0
 29 35  1  0  0  0  0
 30 31  1  0  0  0  0
 30 29  2  0  0  0  0
 31 34  2  0  0  0  0
 34 32  1  0  0  0  0
 34 33  1  0  0  0  0
 35 33  2  0  0  0  0
 37 36  1  0  0  0  0
M  END
>  <MODEL>
6

>  <REMARK>
 VINA RESULT:      -5.2      4.850      8.322
  Name = 
  2 active torsions:
  status: ('A' for Active; 'I' for Inactive)
    1  A    between atoms: C_4  and  O_37
    2  A    between atoms: C_23  and  C_30
                            x       y       z     vdW  Elec       q    Type
                         _______ _______ _______ _____ _____    ______ ____

>  <TORSDO>
F 2

$$$$
=
 OpenBabel11122411333D

 37 43  0  0  1  0  0  0  0  0999 V2000
  183.8180  174.3920  137.5960 C   0  0  0  0  0  2  0  0  0  0  0  0
  188.3250  176.9300  135.5310 S   0  0  0  0  0  0  0  0  0  0  0  0
  185.1440  177.5800  138.4090 C   0  0  0  0  0  0  0  0  0  0  0  0
  184.0670  172.9020  137.3300 C   0  0  1  0  0  3  0  0  0  0  0  0
  181.5330  177.3590  137.0660 C   0  0  0  0  0  2  0  0  0  0  0  0
  187.5290  177.6000  138.0680 C   0  0  0  0  0  0  0  0  0  0  0  0
  183.9450  177.2660  137.7130 N   0  0  0  0  0  0  0  0  0  0  0  0
  181.8650  172.9350  136.1150 C   0  0  0  0  0  0  0  0  0  0  0  0
  186.2420  177.2130  137.6940 C   0  0  0  0  0  0  0  0  0  0  0  0
  182.6040  177.7480  138.0960 C   0  0  1  0  0  3  0  0  0  0  0  0
  187.6900  178.3000  139.2750 C   0  0  0  0  0  3  0  0  0  0  0  0
  183.2090  172.2910  136.2170 C   0  0  0  0  0  2  0  0  0  0  0  0
  185.8560  176.4530  136.4800 C   0  0  2  0  0  3  0  0  0  0  0  0
  188.8100  175.5260  135.3040 O   0  0  0  0  0  0  0  0  0  0  0  0
  184.0720  178.6330  140.4270 C   0  0  0  0  0  2  0  0  0  0  0  0
  186.5610  178.6270  140.0540 C   0  0  0  0  0  3  0  0  0  0  0  0
  186.5580  177.0110  135.2500 C   0  0  0  0  0  2  0  0  0  0  0  0
  181.7140  174.1580  135.2600 C   0  0  0  0  0  2  0  0  0  0  0  0
  181.3910  175.8510  136.9400 C   0  0  0  0  0  2  0  0  0  0  0  0
  185.2690  178.2820  139.6130 C   0  0  0  0  0  0  0  0  0  0  0  0
  184.3200  176.6090  136.4430 C   0  0  1  0  0  3  0  0  0  0  0  0
  188.6280  177.3990  137.1760 N   0  0  0  0  0  2  0  0  0  0  0  0
  182.6470  179.2780  138.3540 C   0  0  2  0  0  3  0  0  0  0  0  0
  189.0240  177.8730  134.5940 O   0  0  0  0  0  0  0  0  0  0  0  0
  182.2670  175.3740  135.8720 N   0  0  1  0  0  0  0  0  0  0  0  0
  180.9230  172.5110  136.7620 O   0  0  0  0  0  0  0  0  0  0  0  0
  183.6680  175.2290  136.3100 C   0  0  2  0  0  3  0  0  0  0  0  0
  183.2020  179.6790  139.7340 C   0  0  0  0  0  2  0  0  0  0  0  0
  180.3080  179.9370  139.0570 C   0  0  0  0  0  3  0  0  0  0  0  0
  181.3500  179.9970  138.1190 C   0  0  0  0  0  0  0  0  0  0  0  0
  181.1780  180.7290  136.9390 C   0  0  0  0  0  3  0  0  0  0  0  0
  179.8090  182.1240  135.5250 O   0  0  0  0  0  1  0  0  0  0  0  0
  178.9390  181.3380  137.6340 C   0  0  0  0  0  3  0  0  0  0  0  0
  179.9750  181.3990  136.6970 C   0  0  0  0  0  0  0  0  0  0  0  0
  179.1050  180.6080  138.8140 C   0  0  0  0  0  3  0  0  0  0  0  0
  185.4230  171.8310  135.9470 C   0  0  0  0  0  1  0  0  0  0  0  0
  185.4180  172.6910  137.0450 O   0  0  0  0  0  0  0  0  0  0  0  0
  2 22  1  0  0  0  0
  3 20  1  0  0  0  0
  4 37  1  6  0  0  0
  4  1  1  0  0  0  0
  6 11  2  0  0  0  0
  7 10  1  0  0  0  0
  7  3  1  0  0  0  0
  8 12  1  0  0  0  0
  8 26  2  0  0  0  0
  9  6  1  0  0  0  0
  9  3  2  0  0  0  0
 10  5  1  6  0  0  0
 10 23  1  0  0  0  0
 11 16  1  0  0  0  0
 12  4  1  0  0  0  0
 13 17  1  6  0  0  0
 13  9  1  0  0  0  0
 14  2  2  0  0  0  0
 17  2  1  0  0  0  0
 18  8  1  0  0  0  0
 19  5  1  0  0  0  0
 20 16  2  0  0  0  0
 20 15  1  0  0  0  0
 21 13  1  0  0  0  0
 21  7  1  1  0  0  0
 22  6  1  0  0  0  0
 23 30  1  1  0  0  0
 23 28  1  0  0  0  0
 24  2  2  0  0  0  0
 25 18  1  1  0  0  0
 25 27  1  0  0  0  0
 25 19  1  0  0  0  0
 27 21  1  0  0  0  0
 27  1  1  1  0  0  0
 28 15  1  0  0  0  0
 30 29  2  0  0  0  0
 31 30  1  0  0  0  0
 32 34  1  0  0  0  0
 33 35  2  0  0  0  0
 34 31  2  0  0  0  0
 34 33  1  0  0  0  0
 35 29  1  0  0  0  0
 36 37  1  0  0  0  0
M  END
>  <MODEL>
7

>  <REMARK>
 VINA RESULT:      -5.1      3.228      7.900
  Name = 
  2 active torsions:
  status: ('A' for Active; 'I' for Inactive)
    1  A    between atoms: C_4  and  O_37
    2  A    between atoms: C_23  and  C_30
                            x       y       z     vdW  Elec       q    Type
                         _______ _______ _______ _____ _____    ______ ____

>  <TORSDO>
F 2

$$$$
=
 OpenBabel11122411333D

 37 43  0  0  1  0  0  0  0  0999 V2000
  186.1150  178.3000  136.7840 C   0  0  0  0  0  2  0  0  0  0  0  0
  183.2360  173.6120  135.9160 S   0  0  0  0  0  0  0  0  0  0  0  0
  182.8860  177.4220  137.9630 C   0  0  0  0  0  0  0  0  0  0  0  0
  187.1110  178.3550  135.6190 C   0  0  1  0  0  3  0  0  0  0  0  0
  185.6390  178.2540  140.5360 C   0  0  0  0  0  2  0  0  0  0  0  0
  181.8220  175.9070  136.4200 C   0  0  0  0  0  0  0  0  0  0  0  0
  184.0950  177.5590  138.6980 N   0  0  0  0  0  0  0  0  0  0  0  0
  188.8960  178.4950  137.3860 C   0  0  0  0  0  0  0  0  0  0  0  0
  182.9480  176.3710  137.1000 C   0  0  0  0  0  0  0  0  0  0  0  0
  184.2650  178.4340  139.8740 C   0  0  1  0  0  3  0  0  0  0  0  0
  180.6190  176.6180  136.5620 C   0  0  0  0  0  3  0  0  0  0  0  0
  188.5650  178.0560  135.9970 C   0  0  0  0  0  2  0  0  0  0  0  0
  184.3110  175.7870  137.0710 C   0  0  2  0  0  3  0  0  0  0  0  0
  184.0310  173.5540  134.6420 O   0  0  0  0  0  0  0  0  0  0  0  0
  181.6470  179.3340  139.0300 C   0  0  0  0  0  2  0  0  0  0  0  0
  180.5640  177.7470  137.4050 C   0  0  0  0  0  3  0  0  0  0  0  0
  184.2530  174.2750  137.2320 C   0  0  0  0  0  2  0  0  0  0  0  0
  188.6360  177.5490  138.5210 C   0  0  0  0  0  2  0  0  0  0  0  0
  186.7720  178.6290  139.5970 C   0  0  0  0  0  2  0  0  0  0  0  0
  181.7020  178.1480  138.1300 C   0  0  0  0  0  0  0  0  0  0  0  0
  185.0260  176.5090  138.2350 C   0  0  1  0  0  3  0  0  0  0  0  0
  181.8710  174.6680  135.7090 N   0  0  0  0  0  2  0  0  0  0  0  0
  183.0950  178.2110  140.8700 C   0  0  2  0  0  3  0  0  0  0  0  0
  182.7650  172.2370  136.2910 O   0  0  0  0  0  0  0  0  0  0  0  0
  187.2150  177.4360  138.8780 N   0  0  1  0  0  0  0  0  0  0  0  0
  189.3090  179.6220  137.5990 O   0  0  0  0  0  0  0  0  0  0  0  0
  186.3450  177.1070  137.7340 C   0  0  2  0  0  3  0  0  0  0  0  0
  181.7890  178.9390  140.4970 C   0  0  0  0  0  2  0  0  0  0  0  0
  182.4570  179.0140  143.1830 C   0  0  0  0  0  3  0  0  0  0  0  0
  183.4240  178.4970  142.3070 C   0  0  0  0  0  0  0  0  0  0  0  0
  184.7210  178.2520  142.7740 C   0  0  0  0  0  3  0  0  0  0  0  0
  186.3360  178.2730  144.5650 O   0  0  0  0  0  1  0  0  0  0  0  0
  184.0830  179.0330  144.9760 C   0  0  0  0  0  3  0  0  0  0  0  0
  185.0500  178.5190  144.1070 C   0  0  0  0  0  0  0  0  0  0  0  0
  182.7870  179.2800  144.5150 C   0  0  0  0  0  3  0  0  0  0  0  0
  187.6680  176.4730  134.5940 C   0  0  0  0  0  1  0  0  0  0  0  0
  186.7040  177.4820  134.6070 O   0  0  0  0  0  0  0  0  0  0  0  0
  2 24  2  0  0  0  0
  2 17  1  0  0  0  0
  3 20  1  0  0  0  0
  3  7  1  0  0  0  0
  4 37  1  6  0  0  0
  4 12  1  0  0  0  0
  4  1  1  0  0  0  0
  6 11  2  0  0  0  0
  6  9  1  0  0  0  0
  7 10  1  0  0  0  0
  8 26  2  0  0  0  0
  8 18  1  0  0  0  0
  9  3  2  0  0  0  0
 10  5  1  1  0  0  0
 10 23  1  0  0  0  0
 11 16  1  0  0  0  0
 12  8  1  0  0  0  0
 13  9  1  0  0  0  0
 13 17  1  1  0  0  0
 13 21  1  0  0  0  0
 14  2  2  0  0  0  0
 15 28  1  0  0  0  0
 16 20  2  0  0  0  0
 19  5  1  0  0  0  0
 20 15  1  0  0  0  0
 21  7  1  6  0  0  0
 22  2  1  0  0  0  0
 22  6  1  0  0  0  0
 23 30  1  1  0  0  0
 25 18  1  6  0  0  0
 25 19  1  0  0  0  0
 27  1  1  1  0  0  0
 27 21  1  0  0  0  0
 27 25  1  0  0  0  0
 28 23  1  0  0  0  0
 29 35  1  0  0  0  0
 30 31  1  0  0  0  0
 30 29  2  0  0  0  0
 31 34  2  0  0  0  0
 34 32  1  0  0  0  0
 34 33  1  0  0  0  0
 35 33  2  0  0  0  0
 36 37  1  0  0  0  0
M  END
>  <MODEL>
8

>  <REMARK>
 VINA RESULT:      -5.0      3.229      6.827
  Name = 
  2 active torsions:
  status: ('A' for Active; 'I' for Inactive)
    1  A    between atoms: C_4  and  O_37
    2  A    between atoms: C_23  and  C_30
                            x       y       z     vdW  Elec       q    Type
                         _______ _______ _______ _____ _____    ______ ____

>  <TORSDO>
F 2

$$$$
=
 OpenBabel11122411333D

 37 43  0  0  1  0  0  0  0  0999 V2000
  186.4130  177.6770  136.3240 C   0  0  0  0  0  2  0  0  0  0  0  0
  184.4990  172.4810  135.7210 S   0  0  0  0  0  0  0  0  0  0  0  0
  183.1120  176.4570  136.7700 C   0  0  0  0  0  0  0  0  0  0  0  0
  187.6910  177.7110  135.4760 C   0  0  1  0  0  3  0  0  0  0  0  0
  184.8760  178.1680  139.7450 C   0  0  0  0  0  2  0  0  0  0  0  0
  182.7330  174.5470  135.3500 C   0  0  0  0  0  0  0  0  0  0  0  0
  184.0290  176.9220  137.7510 N   0  0  0  0  0  0  0  0  0  0  0  0
  188.8540  178.4490  137.5810 C   0  0  0  0  0  0  0  0  0  0  0  0
  183.5490  175.3050  136.1900 C   0  0  0  0  0  0  0  0  0  0  0  0
  183.7430  177.9940  138.7230 C   0  0  1  0  0  3  0  0  0  0  0  0
  181.4650  175.0510  135.0210 C   0  0  0  0  0  3  0  0  0  0  0  0
  188.9980  177.7360  136.2760 C   0  0  0  0  0  2  0  0  0  0  0  0
  184.9220  174.9710  136.6420 C   0  0  2  0  0  3  0  0  0  0  0  0
  185.6310  172.3530  134.7410 O   0  0  0  0  0  0  0  0  0  0  0  0
  181.3950  178.2740  137.0540 C   0  0  0  0  0  2  0  0  0  0  0  0
  181.0310  176.2760  135.5670 C   0  0  0  0  0  3  0  0  0  0  0  0
  185.0010  173.5190  137.0910 C   0  0  0  0  0  2  0  0  0  0  0  0
  188.3920  177.6730  138.7790 C   0  0  0  0  0  2  0  0  0  0  0  0
  186.1800  178.5740  139.0790 C   0  0  0  0  0  2  0  0  0  0  0  0
  181.8520  176.9830  136.4660 C   0  0  0  0  0  0  0  0  0  0  0  0
  185.1740  175.9870  137.7760 C   0  0  1  0  0  3  0  0  0  0  0  0
  183.1370  173.2350  134.9490 N   0  0  0  0  0  2  0  0  0  0  0  0
  182.3700  177.7390  139.4000 C   0  0  2  0  0  3  0  0  0  0  0  0
  184.1090  171.1260  136.2350 O   0  0  0  0  0  0  0  0  0  0  0  0
  186.9530  177.3750  138.7660 N   0  0  1  0  0  0  0  0  0  0  0  0
  189.0490  179.6500  137.6570 O   0  0  0  0  0  0  0  0  0  0  0  0
  186.5000  176.7150  137.5270 C   0  0  2  0  0  3  0  0  0  0  0  0
  181.1510  178.1570  138.5560 C   0  0  0  0  0  2  0  0  0  0  0  0
  183.2840  178.2420  141.7060 C   0  0  0  0  0  3  0  0  0  0  0  0
  182.2300  178.3110  140.7820 C   0  0  0  0  0  0  0  0  0  0  0  0
  181.0220  178.9140  141.1530 C   0  0  0  0  0  3  0  0  0  0  0  0
  179.6690  180.0430  142.8010 O   0  0  0  0  0  1  0  0  0  0  0  0
  181.9210  179.3750  143.3550 C   0  0  0  0  0  3  0  0  0  0  0  0
  180.8680  179.4460  142.4380 C   0  0  0  0  0  0  0  0  0  0  0  0
  183.1290  178.7730  142.9900 C   0  0  0  0  0  3  0  0  0  0  0  0
  188.8610  175.9150  134.9210 C   0  0  0  0  0  1  0  0  0  0  0  0
  187.7050  176.6260  134.5960 O   0  0  0  0  0  0  0  0  0  0  0  0
  2 24  2  0  0  0  0
  2 17  1  0  0  0  0
  3  7  1  0  0  0  0
  4 37  1  6  0  0  0
  4 12  1  0  0  0  0
  4  1  1  0  0  0  0
  6  9  1  0  0  0  0
  7 10  1  0  0  0  0
  8 26  2  0  0  0  0
  8 18  1  0  0  0  0
  9 13  1  0  0  0  0
  9  3  2  0  0  0  0
 10 23  1  0  0  0  0
 10  5  1  1  0  0  0
 11  6  2  0  0  0  0
 11 16  1  0  0  0  0
 12  8  1  0  0  0  0
 13 17  1  1  0  0  0
 13 21  1  0  0  0  0
 14  2  2  0  0  0  0
 15 28  1  0  0  0  0
 16 20  2  0  0  0  0
 19  5  1  0  0  0  0
 20  3  1  0  0  0  0
 20 15  1  0  0  0  0
 21  7  1  6  0  0  0
 22  6  1  0  0  0  0
 22  2  1  0  0  0  0
 23 30  1  1  0  0  0
 25 18  1  6  0  0  0
 25 19  1  0  0  0  0
 27  1  1  6  0  0  0
 27 21  1  0  0  0  0
 27 25  1  0  0  0  0
 28 23  1  0  0  0  0
 29 35  1  0  0  0  0
 30 31  1  0  0  0  0
 30 29  2  0  0  0  0
 31 34  2  0  0  0  0
 34 32  1  0  0  0  0
 34 33  1  0  0  0  0
 35 33  2  0  0  0  0
 37 36  1  0  0  0  0
M  END
>  <MODEL>
9

>  <REMARK>
 VINA RESULT:      -4.8      2.982      7.351
  Name = 
  2 active torsions:
  status: ('A' for Active; 'I' for Inactive)
    1  A    between atoms: C_4  and  O_37
    2  A    between atoms: C_23  and  C_30
                            x       y       z     vdW  Elec       q    Type
                         _______ _______ _______ _____ _____    ______ ____

>  <TORSDO>
F 2

$$$$
