=
 OpenBabel11122411563D

 28 32  0  0  1  0  0  0  0  0999 V2000
  180.2080  179.6580  138.9220 C   0  0  0  0  0  0  0  0  0  0  0  0
  182.8660  175.5820  137.4140 F   0  0  0  0  0  0  0  0  0  0  0  0
  183.5380  179.2250  142.6340 O   0  0  0  0  0  0  0  0  0  0  0  0
  181.8820  181.7930  138.4610 C   0  0  0  0  0  3  0  0  0  0  0  0
  184.7550  178.5180  140.6740 C   0  0  1  0  0  3  0  0  0  0  0  0
  179.1220  178.2870  139.3190 S   0  0  0  0  0  0  0  0  0  0  0  0
  181.9930  176.7290  135.5510 C   0  0  0  0  0  1  0  0  0  0  0  0
  183.1150  176.6510  136.5670 C   0  0  1  0  0  0  0  0  0  0  0  0
  185.5800  176.3410  136.7990 C   0  0  1  0  0  3  0  0  0  0  0  0
  183.1800  177.9860  137.3490 C   0  0  2  0  0  3  0  0  0  0  0  0
  180.7920  180.0920  141.7780 O   0  0  0  0  0  1  0  0  0  0  0  0
  182.7550  177.4390  139.6830 C   0  0  1  0  0  3  0  0  0  0  0  0
  185.7570  177.7120  137.4330 C   0  0  0  0  0  2  0  0  0  0  0  0
  184.4180  176.3880  135.8200 C   0  0  0  0  0  2  0  0  0  0  0  0
  180.2210  178.8250  141.9120 C   0  0  2  0  0  3  0  0  0  0  0  0
  181.5580  179.4450  138.5930 C   0  0  0  0  0  0  0  0  0  0  0  0
  183.5400  178.6750  141.5000 C   0  0  0  0  0  0  0  0  0  0  0  0
  186.8460  175.9620  136.0620 C   0  0  0  0  0  1  0  0  0  0  0  0
  181.2220  177.6870  141.7000 C   0  0  0  0  0  2  0  0  0  0  0  0
  182.3630  180.5250  138.3880 N   0  0  0  0  0  0  0  0  0  0  0  0
  179.7270  180.9290  138.9690 N   0  0  0  0  0  0  0  0  0  0  0  0
  180.5320  181.9990  138.7460 C   0  0  0  0  0  3  0  0  0  0  0  0
  178.9310  178.7000  141.0970 C   0  0  0  0  0  2  0  0  0  0  0  0
  184.2740  177.6060  139.5230 C   0  0  1  0  0  3  0  0  0  0  0  0
  182.3820  178.1050  140.9190 N   0  0  0  0  0  0  0  0  0  0  0  0
  184.4830  178.1930  138.1320 C   0  0  2  0  0  3  0  0  0  0  0  0
  185.1690  179.7740  140.2180 O   0  0  0  0  0  1  0  0  0  0  0  0
  182.1000  178.0420  138.4270 C   0  0  1  0  0  3  0  0  0  0  0  0
  1 21  1  0  0  0  0
  1  6  1  0  0  0  0
  4 22  1  0  0  0  0
  5 27  1  6  0  0  0
  5 17  1  0  0  0  0
  6 23  1  0  0  0  0
  8  7  1  6  0  0  0
  8 10  1  0  0  0  0
  8  2  1  0  0  0  0
  9 18  1  6  0  0  0
  9 13  1  0  0  0  0
 10 26  1  0  0  0  0
 10 28  1  0  0  0  0
 11 15  1  0  0  0  0
 12 25  1  0  0  0  0
 13 26  1  0  0  0  0
 14  8  1  0  0  0  0
 14  9  1  0  0  0  0
 16  1  2  0  0  0  0
 17  3  2  0  0  0  0
 19 15  1  0  0  0  0
 20  4  2  0  0  0  0
 20 16  1  0  0  0  0
 22 21  2  0  0  0  0
 23 15  1  0  0  0  0
 24 12  1  0  0  0  0
 24  5  1  0  0  0  0
 25 17  1  0  0  0  0
 25 19  1  0  0  0  0
 26 24  1  0  0  0  0
 28 16  1  0  0  0  0
 28 12  1  0  0  0  0
M  END
>  <MODEL>
1

>  <REMARK>
 VINA RESULT:      -4.9      0.000      0.000
  Name = 
  0 active torsions:
  status: ('A' for Active; 'I' for Inactive)
                            x       y       z     vdW  Elec       q    Type
                         _______ _______ _______ _____ _____    ______ ____

>  <TORSDO>
F 0

$$$$
=
 OpenBabel11122411563D

 28 32  0  0  1  0  0  0  0  0999 V2000
  190.9840  177.7330  145.2470 C   0  0  0  0  0  0  0  0  0  0  0  0
  186.0370  176.5890  145.6590 F   0  0  0  0  0  0  0  0  0  0  0  0
  189.9090  176.3090  140.5700 O   0  0  0  0  0  0  0  0  0  0  0  0
  191.0380  180.1210  143.8790 C   0  0  0  0  0  3  0  0  0  0  0  0
  187.8890  177.3890  141.3300 C   0  0  1  0  0  3  0  0  0  0  0  0
  190.9960  176.1360  146.0620 S   0  0  0  0  0  0  0  0  0  0  0  0
  186.6310  178.2470  147.2250 C   0  0  0  0  0  1  0  0  0  0  0  0
  186.2210  177.9570  145.7940 C   0  0  1  0  0  0  0  0  0  0  0  0
  184.4620  178.4250  144.0880 C   0  0  1  0  0  3  0  0  0  0  0  0
  187.3250  178.4740  144.8400 C   0  0  2  0  0  3  0  0  0  0  0  0
  191.9700  176.5260  142.7450 O   0  0  0  0  0  1  0  0  0  0  0  0
  188.1640  176.5290  143.6380 C   0  0  1  0  0  3  0  0  0  0  0  0
  185.4560  179.0940  143.1530 C   0  0  0  0  0  2  0  0  0  0  0  0
  184.8930  178.6560  145.5280 C   0  0  0  0  0  2  0  0  0  0  0  0
  191.6020  175.3350  143.3760 C   0  0  2  0  0  3  0  0  0  0  0  0
  189.8170  178.2330  144.6430 C   0  0  0  0  0  0  0  0  0  0  0  0
  189.1220  176.5940  141.5120 C   0  0  0  0  0  0  0  0  0  0  0  0
  183.0880  179.0220  143.8710 C   0  0  0  0  0  1  0  0  0  0  0  0
  190.1270  174.9770  143.1740 C   0  0  0  0  0  2  0  0  0  0  0  0
  189.8830  179.4100  143.9590 N   0  0  0  0  0  0  0  0  0  0  0  0
  192.1310  178.4620  145.1840 N   0  0  0  0  0  0  0  0  0  0  0  0
  192.1830  179.6430  144.5150 C   0  0  0  0  0  3  0  0  0  0  0  0
  192.0720  175.2990  144.8320 C   0  0  0  0  0  2  0  0  0  0  0  0
  187.1890  177.2590  142.7010 C   0  0  1  0  0  3  0  0  0  0  0  0
  189.3130  176.1410  142.8390 N   0  0  0  0  0  0  0  0  0  0  0  0
  186.8850  178.5920  143.3750 C   0  0  2  0  0  3  0  0  0  0  0  0
  188.2310  178.7120  141.0310 O   0  0  0  0  0  1  0  0  0  0  0  0
  188.5010  177.5000  144.7840 C   0  0  1  0  0  3  0  0  0  0  0  0
  1  6  1  0  0  0  0
  2  8  1  0  0  0  0
  3 17  2  0  0  0  0
  4 20  2  0  0  0  0
  4 22  1  0  0  0  0
  5 27  1  1  0  0  0
  5 17  1  0  0  0  0
  5 24  1  0  0  0  0
  8  7  1  1  0  0  0
  9 18  1  1  0  0  0
  9 14  1  0  0  0  0
 10  8  1  0  0  0  0
 11 15  1  0  0  0  0
 12 28  1  0  0  0  0
 13 26  1  0  0  0  0
 13  9  1  0  0  0  0
 14  8  1  0  0  0  0
 15 23  1  0  0  0  0
 16 28  1  0  0  0  0
 16  1  2  0  0  0  0
 17 25  1  0  0  0  0
 19 15  1  0  0  0  0
 20 16  1  0  0  0  0
 21  1  1  0  0  0  0
 22 21  2  0  0  0  0
 23  6  1  0  0  0  0
 24 26  1  0  0  0  0
 24 12  1  0  0  0  0
 25 19  1  0  0  0  0
 25 12  1  0  0  0  0
 26 10  1  0  0  0  0
 28 10  1  0  0  0  0
M  END
>  <MODEL>
2

>  <REMARK>
 VINA RESULT:      -4.7      6.760      9.706
  Name = 
  0 active torsions:
  status: ('A' for Active; 'I' for Inactive)
                            x       y       z     vdW  Elec       q    Type
                         _______ _______ _______ _____ _____    ______ ____

>  <TORSDO>
F 0

$$$$
=
 OpenBabel11122411563D

 28 32  0  0  1  0  0  0  0  0999 V2000
  183.3920  177.1030  136.1430 C   0  0  0  0  0  0  0  0  0  0  0  0
  183.8060  177.1280  141.2210 F   0  0  0  0  0  0  0  0  0  0  0  0
  179.8040  173.8630  137.4400 O   0  0  0  0  0  0  0  0  0  0  0  0
  181.0970  178.5290  135.6220 C   0  0  0  0  0  3  0  0  0  0  0  0
  179.7890  175.4920  139.2190 C   0  0  1  0  0  3  0  0  0  0  0  0
  184.8440  176.0940  136.4440 S   0  0  0  0  0  0  0  0  0  0  0  0
  184.4900  179.1990  140.3300 C   0  0  0  0  0  1  0  0  0  0  0  0
  183.3180  178.3480  140.7780 C   0  0  1  0  0  0  0  0  0  0  0  0
  181.4270  178.2520  142.4020 C   0  0  1  0  0  3  0  0  0  0  0  0
  182.3430  178.1670  139.5880 C   0  0  2  0  0  3  0  0  0  0  0  0
  181.8260  174.7210  135.3920 O   0  0  0  0  0  1  0  0  0  0  0  0
  182.2500  175.7770  139.1310 C   0  0  1  0  0  3  0  0  0  0  0  0
  180.3890  178.2310  141.2910 C   0  0  0  0  0  2  0  0  0  0  0  0
  182.6360  179.0530  141.9450 C   0  0  0  0  0  2  0  0  0  0  0  0
  182.8930  174.0430  135.9860 C   0  0  2  0  0  3  0  0  0  0  0  0
  182.5180  177.4500  137.1880 C   0  0  0  0  0  0  0  0  0  0  0  0
  180.4310  174.6810  138.1640 C   0  0  0  0  0  0  0  0  0  0  0  0
  180.8300  178.8990  143.6340 C   0  0  0  0  0  1  0  0  0  0  0  0
  182.7360  173.8850  137.5010 C   0  0  0  0  0  2  0  0  0  0  0  0
  181.3820  178.1410  136.8920 N   0  0  0  0  0  0  0  0  0  0  0  0
  183.1130  177.5150  134.8780 N   0  0  0  0  0  0  0  0  0  0  0  0
  181.9880  178.2190  134.5940 C   0  0  0  0  0  3  0  0  0  0  0  0
  184.2420  174.6140  135.5410 C   0  0  0  0  0  2  0  0  0  0  0  0
  180.9940  176.1360  139.9410 C   0  0  1  0  0  3  0  0  0  0  0  0
  181.8300  174.8760  138.0730 N   0  0  0  0  0  0  0  0  0  0  0  0
  180.9520  177.6600  139.9880 C   0  0  2  0  0  3  0  0  0  0  0  0
  178.9540  176.4440  138.6270 O   0  0  0  0  0  1  0  0  0  0  0  0
  182.8520  177.1000  138.6220 C   0  0  1  0  0  3  0  0  0  0  0  0
  1  6  1  0  0  0  0
  1 16  1  0  0  0  0
  3 17  2  0  0  0  0
  4 20  1  0  0  0  0
  5 27  1  6  0  0  0
  5 24  1  0  0  0  0
  8  7  1  6  0  0  0
  8  2  1  0  0  0  0
  8 14  1  0  0  0  0
  9 18  1  1  0  0  0
 10 26  1  0  0  0  0
 10  8  1  0  0  0  0
 11 15  1  0  0  0  0
 12 24  1  0  0  0  0
 13  9  1  0  0  0  0
 14  9  1  0  0  0  0
 15 19  1  0  0  0  0
 16 28  1  0  0  0  0
 17  5  1  0  0  0  0
 19 25  1  0  0  0  0
 20 16  2  0  0  0  0
 21  1  2  0  0  0  0
 22 21  1  0  0  0  0
 22  4  2  0  0  0  0
 23 15  1  0  0  0  0
 23  6  1  0  0  0  0
 24 26  1  0  0  0  0
 25 17  1  0  0  0  0
 25 12  1  0  0  0  0
 26 13  1  0  0  0  0
 28 12  1  0  0  0  0
 28 10  1  0  0  0  0
M  END
>  <MODEL>
3

>  <REMARK>
 VINA RESULT:      -4.6      3.446      5.970
  Name = 
  0 active torsions:
  status: ('A' for Active; 'I' for Inactive)
                            x       y       z     vdW  Elec       q    Type
                         _______ _______ _______ _____ _____    ______ ____

>  <TORSDO>
F 0

$$$$
=
 OpenBabel11122411563D

 28 32  0  0  1  0  0  0  0  0999 V2000
  180.2660  174.8850  137.1580 C   0  0  0  0  0  0  0  0  0  0  0  0
  184.5190  172.1870  137.9250 F   0  0  0  0  0  0  0  0  0  0  0  0
  183.5770  178.5150  138.1150 O   0  0  0  0  0  0  0  0  0  0  0  0
  180.6060  176.0370  134.6820 C   0  0  0  0  0  3  0  0  0  0  0  0
  184.8640  176.8470  136.9380 C   0  0  1  0  0  3  0  0  0  0  0  0
  180.0440  174.2260  138.8110 S   0  0  0  0  0  0  0  0  0  0  0  0
  183.0770  171.0480  136.4510 C   0  0  0  0  0  1  0  0  0  0  0  0
  184.1450  172.1140  136.5920 C   0  0  1  0  0  0  0  0  0  0  0  0
  186.4380  172.7530  135.8490 C   0  0  1  0  0  3  0  0  0  0  0  0
  183.5750  173.4650  136.0920 C   0  0  2  0  0  3  0  0  0  0  0  0
  180.7220  177.5890  138.2400 O   0  0  0  0  0  1  0  0  0  0  0  0
  183.6240  174.9810  137.9980 C   0  0  1  0  0  3  0  0  0  0  0  0
  185.9400  174.0290  135.1910 C   0  0  0  0  0  2  0  0  0  0  0  0
  185.3550  171.6900  135.7680 C   0  0  0  0  0  2  0  0  0  0  0  0
  180.8750  176.8960  139.4430 C   0  0  2  0  0  3  0  0  0  0  0  0
  181.5180  174.8400  136.5190 C   0  0  0  0  0  0  0  0  0  0  0  0
  183.7880  177.3030  137.8430 C   0  0  0  0  0  0  0  0  0  0  0  0
  187.6770  172.2670  135.1270 C   0  0  0  0  0  1  0  0  0  0  0  0
  182.2990  176.3770  139.6630 C   0  0  0  0  0  2  0  0  0  0  0  0
  181.6550  175.4360  135.3010 N   0  0  0  0  0  0  0  0  0  0  0  0
  179.2150  175.4680  136.5220 N   0  0  0  0  0  0  0  0  0  0  0  0
  179.3560  176.0430  135.3010 C   0  0  0  0  0  3  0  0  0  0  0  0
  179.7780  175.8450  139.6320 C   0  0  0  0  0  2  0  0  0  0  0  0
  184.8400  175.3130  137.1190 C   0  0  1  0  0  3  0  0  0  0  0  0
  183.0420  176.2440  138.4130 N   0  0  0  0  0  0  0  0  0  0  0  0
  184.6410  174.5350  135.8230 C   0  0  2  0  0  3  0  0  0  0  0  0
  184.5620  177.2330  135.6280 O   0  0  0  0  0  1  0  0  0  0  0  0
  182.6810  174.1070  137.1510 C   0  0  1  0  0  3  0  0  0  0  0  0
  1  6  1  0  0  0  0
  4 20  2  0  0  0  0
  4 22  1  0  0  0  0
  5 27  1  6  0  0  0
  5 24  1  0  0  0  0
  5 17  1  0  0  0  0
  6 23  1  0  0  0  0
  8  7  1  6  0  0  0
  8  2  1  0  0  0  0
  9 18  1  6  0  0  0
 10  8  1  0  0  0  0
 10 28  1  0  0  0  0
 11 15  1  0  0  0  0
 12 25  1  0  0  0  0
 13 26  1  0  0  0  0
 13  9  1  0  0  0  0
 14  9  1  0  0  0  0
 14  8  1  0  0  0  0
 15 23  1  0  0  0  0
 15 19  1  0  0  0  0
 16 28  1  0  0  0  0
 16  1  2  0  0  0  0
 17  3  2  0  0  0  0
 17 25  1  0  0  0  0
 20 16  1  0  0  0  0
 21  1  1  0  0  0  0
 22 21  2  0  0  0  0
 24 12  1  0  0  0  0
 25 19  1  0  0  0  0
 26 10  1  0  0  0  0
 26 24  1  0  0  0  0
 28 12  1  0  0  0  0
M  END
>  <MODEL>
4

>  <REMARK>
 VINA RESULT:      -4.5      3.477      4.621
  Name = 
  0 active torsions:
  status: ('A' for Active; 'I' for Inactive)
                            x       y       z     vdW  Elec       q    Type
                         _______ _______ _______ _____ _____    ______ ____

>  <TORSDO>
F 0

$$$$
=
 OpenBabel11122411563D

 28 32  0  0  1  0  0  0  0  0999 V2000
  195.1950  175.2490  137.1810 C   0  0  0  0  0  0  0  0  0  0  0  0
  191.0540  175.6780  140.1180 F   0  0  0  0  0  0  0  0  0  0  0  0
  191.8680  172.5490  134.5940 O   0  0  0  0  0  0  0  0  0  0  0  0
  194.6850  176.8660  135.0130 C   0  0  0  0  0  3  0  0  0  0  0  0
  190.5500  174.3210  135.5660 C   0  0  1  0  0  3  0  0  0  0  0  0
  195.5280  174.1170  138.5320 S   0  0  0  0  0  0  0  0  0  0  0  0
  192.4320  177.5750  140.3560 C   0  0  0  0  0  1  0  0  0  0  0  0
  191.3510  176.9000  139.5340 C   0  0  1  0  0  0  0  0  0  0  0  0
  189.0040  177.1560  138.7290 C   0  0  1  0  0  3  0  0  0  0  0  0
  191.8600  176.7230  138.0830 C   0  0  2  0  0  3  0  0  0  0  0  0
  194.7440  172.9960  135.3340 O   0  0  0  0  0  1  0  0  0  0  0  0
  191.8910  174.3260  137.6510 C   0  0  1  0  0  3  0  0  0  0  0  0
  189.4360  177.1500  137.2710 C   0  0  0  0  0  2  0  0  0  0  0  0
  190.1040  177.7760  139.5760 C   0  0  0  0  0  2  0  0  0  0  0  0
  194.6770  172.2610  136.5190 C   0  0  2  0  0  3  0  0  0  0  0  0
  193.9090  175.7810  136.9770 C   0  0  0  0  0  0  0  0  0  0  0  0
  191.6680  173.3550  135.5420 C   0  0  0  0  0  0  0  0  0  0  0  0
  187.7370  177.9710  138.8740 C   0  0  0  0  0  1  0  0  0  0  0  0
  193.2810  172.2550  137.1460 C   0  0  0  0  0  2  0  0  0  0  0  0
  193.6880  176.5640  135.8840 N   0  0  0  0  0  0  0  0  0  0  0  0
  196.1940  175.5750  136.3180 N   0  0  0  0  0  0  0  0  0  0  0  0
  195.9690  176.3710  135.2410 C   0  0  0  0  0  3  0  0  0  0  0  0
  195.8070  172.6380  137.4810 C   0  0  0  0  0  2  0  0  0  0  0  0
  190.6180  174.8910  137.0010 C   0  0  1  0  0  3  0  0  0  0  0  0
  192.4690  173.3860  136.7080 N   0  0  0  0  0  0  0  0  0  0  0  0
  190.7580  176.4080  137.0640 C   0  0  2  0  0  3  0  0  0  0  0  0
  190.7670  175.3030  134.5940 O   0  0  0  0  0  1  0  0  0  0  0  0
  192.8020  175.5240  137.9760 C   0  0  1  0  0  3  0  0  0  0  0  0
  1  6  1  0  0  0  0
  3 17  2  0  0  0  0
  4 22  2  0  0  0  0
  4 20  1  0  0  0  0
  5 27  1  6  0  0  0
  5 24  1  0  0  0  0
  8 14  1  0  0  0  0
  8  2  1  0  0  0  0
  8  7  1  1  0  0  0
  9 18  1  6  0  0  0
  9 14  1  0  0  0  0
 10  8  1  0  0  0  0
 11 15  1  0  0  0  0
 12 28  1  0  0  0  0
 13  9  1  0  0  0  0
 15 19  1  0  0  0  0
 15 23  1  0  0  0  0
 16  1  1  0  0  0  0
 16 28  1  0  0  0  0
 17  5  1  0  0  0  0
 17 25  1  0  0  0  0
 20 16  2  0  0  0  0
 21  1  2  0  0  0  0
 22 21  1  0  0  0  0
 23  6  1  0  0  0  0
 24 26  1  0  0  0  0
 24 12  1  0  0  0  0
 25 19  1  0  0  0  0
 25 12  1  0  0  0  0
 26 13  1  0  0  0  0
 26 10  1  0  0  0  0
 28 10  1  0  0  0  0
M  END
>  <MODEL>
5

>  <REMARK>
 VINA RESULT:      -4.5      8.570     12.129
  Name = 
  0 active torsions:
  status: ('A' for Active; 'I' for Inactive)
                            x       y       z     vdW  Elec       q    Type
                         _______ _______ _______ _____ _____    ______ ____

>  <TORSDO>
F 0

$$$$
=
 OpenBabel11122411563D

 28 32  0  0  1  0  0  0  0  0999 V2000
  180.3990  176.8650  136.7160 C   0  0  0  0  0  0  0  0  0  0  0  0
  185.0110  174.9060  137.6350 F   0  0  0  0  0  0  0  0  0  0  0  0
  181.5810  179.1090  141.0310 O   0  0  0  0  0  0  0  0  0  0  0  0
  180.8850  179.4530  135.9170 C   0  0  0  0  0  3  0  0  0  0  0  0
  183.6920  178.9100  139.8800 C   0  0  1  0  0  3  0  0  0  0  0  0
  180.0340  175.2140  137.3160 S   0  0  0  0  0  0  0  0  0  0  0  0
  184.5970  174.9820  135.3170 C   0  0  0  0  0  1  0  0  0  0  0  0
  185.0650  175.7510  136.5370 C   0  0  1  0  0  0  0  0  0  0  0  0
  187.0120  176.9780  137.4980 C   0  0  1  0  0  3  0  0  0  0  0  0
  184.1520  176.9870  136.7330 C   0  0  2  0  0  3  0  0  0  0  0  0
  179.4210  178.0520  139.2300 O   0  0  0  0  0  1  0  0  0  0  0  0
  183.0800  176.7160  138.9020 C   0  0  1  0  0  3  0  0  0  0  0  0
  186.2340  178.2810  137.5780 C   0  0  0  0  0  2  0  0  0  0  0  0
  186.5130  176.1670  136.3120 C   0  0  0  0  0  2  0  0  0  0  0  0
  179.5180  176.7370  139.6900 C   0  0  2  0  0  3  0  0  0  0  0  0
  181.6820  177.4220  136.8550 C   0  0  0  0  0  0  0  0  0  0  0  0
  182.3270  178.4730  140.2390 C   0  0  0  0  0  0  0  0  0  0  0  0
  188.4840  177.2830  137.3170 C   0  0  0  0  0  1  0  0  0  0  0  0
  180.9160  176.3770  140.1980 C   0  0  0  0  0  2  0  0  0  0  0  0
  181.8830  178.7120  136.4650 N   0  0  0  0  0  0  0  0  0  0  0  0
  179.4100  177.6030  136.1450 N   0  0  0  0  0  0  0  0  0  0  0  0
  179.6250  178.8830  135.7430 C   0  0  0  0  0  3  0  0  0  0  0  0
  178.9310  175.7440  138.6830 C   0  0  0  0  0  2  0  0  0  0  0  0
  184.2430  177.7030  139.0880 C   0  0  1  0  0  3  0  0  0  0  0  0
  181.9500  177.2450  139.6440 N   0  0  0  0  0  0  0  0  0  0  0  0
  184.7250  178.0460  137.6830 C   0  0  2  0  0  3  0  0  0  0  0  0
  183.6180  180.0680  139.1000 O   0  0  0  0  0  1  0  0  0  0  0  0
  182.8300  176.5930  137.3880 C   0  0  1  0  0  3  0  0  0  0  0  0
  1 16  1  0  0  0  0
  1  6  1  0  0  0  0
  4 20  1  0  0  0  0
  5 27  1  6  0  0  0
  5 17  1  0  0  0  0
  6 23  1  0  0  0  0
  8  7  1  6  0  0  0
  8 10  1  0  0  0  0
  8  2  1  0  0  0  0
  9 18  1  6  0  0  0
  9 13  1  0  0  0  0
 10 28  1  0  0  0  0
 10 26  1  0  0  0  0
 11 15  1  0  0  0  0
 12 24  1  0  0  0  0
 12 25  1  0  0  0  0
 13 26  1  0  0  0  0
 14  8  1  0  0  0  0
 14  9  1  0  0  0  0
 15 19  1  0  0  0  0
 16 28  1  0  0  0  0
 17  3  2  0  0  0  0
 20 16  2  0  0  0  0
 21  1  2  0  0  0  0
 22  4  2  0  0  0  0
 22 21  1  0  0  0  0
 23 15  1  0  0  0  0
 24  5  1  0  0  0  0
 25 19  1  0  0  0  0
 25 17  1  0  0  0  0
 26 24  1  0  0  0  0
 28 12  1  0  0  0  0
M  END
>  <MODEL>
6

>  <REMARK>
 VINA RESULT:      -4.5      2.193      2.627
  Name = 
  0 active torsions:
  status: ('A' for Active; 'I' for Inactive)
                            x       y       z     vdW  Elec       q    Type
                         _______ _______ _______ _____ _____    ______ ____

>  <TORSDO>
F 0

$$$$
=
 OpenBabel11122411563D

 28 32  0  0  1  0  0  0  0  0999 V2000
  180.9560  176.1980  136.7020 C   0  0  0  0  0  0  0  0  0  0  0  0
  181.1730  181.2610  136.1850 F   0  0  0  0  0  0  0  0  0  0  0  0
  183.4790  177.5020  140.8230 O   0  0  0  0  0  0  0  0  0  0  0  0
  179.0960  175.7770  138.6860 C   0  0  0  0  0  3  0  0  0  0  0  0
  181.9340  179.3240  140.4840 C   0  0  1  0  0  3  0  0  0  0  0  0
  182.2360  176.4320  135.4680 S   0  0  0  0  0  0  0  0  0  0  0  0
  179.2460  180.4080  135.1300 C   0  0  0  0  0  1  0  0  0  0  0  0
  179.8670  180.8650  136.4350 C   0  0  1  0  0  0  0  0  0  0  0  0
  179.6470  182.5360  138.2740 C   0  0  1  0  0  3  0  0  0  0  0  0
  179.8180  179.6970  137.4510 C   0  0  2  0  0  3  0  0  0  0  0  0
  182.9630  175.4240  138.7160 O   0  0  0  0  0  1  0  0  0  0  0  0
  182.1290  179.1780  138.0170 C   0  0  1  0  0  3  0  0  0  0  0  0
  179.4310  181.4530  139.3190 C   0  0  0  0  0  2  0  0  0  0  0  0
  179.0810  182.0680  136.9420 C   0  0  0  0  0  2  0  0  0  0  0  0
  183.8540  175.9710  137.7900 C   0  0  2  0  0  3  0  0  0  0  0  0
  180.4790  177.2750  137.4700 C   0  0  0  0  0  0  0  0  0  0  0  0
  182.8210  178.2310  140.0340 C   0  0  0  0  0  0  0  0  0  0  0  0
  178.9360  183.8000  138.7070 C   0  0  0  0  0  1  0  0  0  0  0  0
  184.0270  177.4840  137.9430 C   0  0  0  0  0  2  0  0  0  0  0  0
  179.5720  177.0280  138.4560 N   0  0  0  0  0  0  0  0  0  0  0  0
  180.4580  174.9510  136.9220 N   0  0  0  0  0  0  0  0  0  0  0  0
  179.5390  174.7170  137.8950 C   0  0  0  0  0  3  0  0  0  0  0  0
  183.5420  175.5050  136.3650 C   0  0  0  0  0  2  0  0  0  0  0  0
  181.5590  180.0310  139.1620 C   0  0  1  0  0  3  0  0  0  0  0  0
  182.8980  178.1080  138.6260 N   0  0  0  0  0  0  0  0  0  0  0  0
  180.0590  180.1200  138.9060 C   0  0  2  0  0  3  0  0  0  0  0  0
  180.8200  178.7810  141.1300 O   0  0  0  0  0  1  0  0  0  0  0  0
  180.9330  178.6890  137.1800 C   0  0  1  0  0  3  0  0  0  0  0  0
  1 21  2  0  0  0  0
  1 16  1  0  0  0  0
  2  8  1  0  0  0  0
  5 27  1  6  0  0  0
  6 23  1  0  0  0  0
  6  1  1  0  0  0  0
  8  7  1  6  0  0  0
  8 14  1  0  0  0  0
  8 10  1  0  0  0  0
  9 18  1  1  0  0  0
  9 13  1  0  0  0  0
 10 26  1  0  0  0  0
 12 25  1  0  0  0  0
 12 24  1  0  0  0  0
 14  9  1  0  0  0  0
 15 19  1  0  0  0  0
 15 11  1  0  0  0  0
 16 20  2  0  0  0  0
 17  5  1  0  0  0  0
 17  3  2  0  0  0  0
 19 25  1  0  0  0  0
 20  4  1  0  0  0  0
 21 22  1  0  0  0  0
 22  4  2  0  0  0  0
 23 15  1  0  0  0  0
 24  5  1  0  0  0  0
 25 17  1  0  0  0  0
 26 24  1  0  0  0  0
 26 13  1  0  0  0  0
 28 10  1  0  0  0  0
 28 16  1  0  0  0  0
 28 12  1  0  0  0  0
M  END
>  <MODEL>
7

>  <REMARK>
 VINA RESULT:      -4.4      2.923      5.604
  Name = 
  0 active torsions:
  status: ('A' for Active; 'I' for Inactive)
                            x       y       z     vdW  Elec       q    Type
                         _______ _______ _______ _____ _____    ______ ____

>  <TORSDO>
F 0

$$$$
=
 OpenBabel11122411563D

 28 32  0  0  1  0  0  0  0  0999 V2000
  181.4090  179.3540  136.9160 C   0  0  0  0  0  0  0  0  0  0  0  0
  185.5040  176.7530  138.4730 F   0  0  0  0  0  0  0  0  0  0  0  0
  179.9590  177.8660  141.4700 O   0  0  0  0  0  0  0  0  0  0  0  0
  181.4840  181.7000  138.3520 C   0  0  0  0  0  3  0  0  0  0  0  0
  182.3290  178.2530  141.7100 C   0  0  1  0  0  3  0  0  0  0  0  0
  181.2750  177.8020  136.0260 S   0  0  0  0  0  0  0  0  0  0  0  0
  186.1320  178.4460  136.9590 C   0  0  0  0  0  1  0  0  0  0  0  0
  185.8010  178.1050  138.3990 C   0  0  1  0  0  0  0  0  0  0  0  0
  186.7340  178.0910  140.7120 C   0  0  1  0  0  3  0  0  0  0  0  0
  184.6010  178.9710  138.8580 C   0  0  2  0  0  3  0  0  0  0  0  0
  179.1620  178.6040  138.6690 O   0  0  0  0  0  1  0  0  0  0  0  0
  182.8100  177.4210  139.4250 C   0  0  1  0  0  3  0  0  0  0  0  0
  185.6820  179.0670  141.2120 C   0  0  0  0  0  2  0  0  0  0  0  0
  187.0340  178.3810  139.2500 C   0  0  0  0  0  2  0  0  0  0  0  0
  179.3960  177.3330  138.1410 C   0  0  2  0  0  3  0  0  0  0  0  0
  182.3050  179.5020  137.9890 C   0  0  0  0  0  0  0  0  0  0  0  0
  181.1140  177.8600  140.9650 C   0  0  0  0  0  0  0  0  0  0  0  0
  187.9980  178.2530  141.5290 C   0  0  0  0  0  1  0  0  0  0  0  0
  180.4760  176.5550  138.8980 C   0  0  0  0  0  2  0  0  0  0  0  0
  182.3040  180.6710  138.6890 N   0  0  0  0  0  0  0  0  0  0  0  0
  180.6090  180.3960  136.5680 N   0  0  0  0  0  0  0  0  0  0  0  0
  180.6270  181.5650  137.2600 C   0  0  0  0  0  3  0  0  0  0  0  0
  179.5910  177.3810  136.6230 C   0  0  0  0  0  2  0  0  0  0  0  0
  183.4680  177.8610  140.7430 C   0  0  1  0  0  3  0  0  0  0  0  0
  181.3740  177.4320  139.6420 N   0  0  0  0  0  0  0  0  0  0  0  0
  184.4000  179.0110  140.3780 C   0  0  2  0  0  3  0  0  0  0  0  0
  182.2940  179.6280  141.9600 O   0  0  0  0  0  1  0  0  0  0  0  0
  183.2840  178.4010  138.3360 C   0  0  1  0  0  3  0  0  0  0  0  0
  1 16  1  0  0  0  0
  4 20  1  0  0  0  0
  5 27  1  6  0  0  0
  6 23  1  0  0  0  0
  6  1  1  0  0  0  0
  8  7  1  6  0  0  0
  8  2  1  0  0  0  0
  8 10  1  0  0  0  0
  8 14  1  0  0  0  0
  9 13  1  0  0  0  0
  9 18  1  1  0  0  0
 10 26  1  0  0  0  0
 12 25  1  0  0  0  0
 12 24  1  0  0  0  0
 14  9  1  0  0  0  0
 15 11  1  0  0  0  0
 15 19  1  0  0  0  0
 16 28  1  0  0  0  0
 16 20  2  0  0  0  0
 17  3  2  0  0  0  0
 17  5  1  0  0  0  0
 19 25  1  0  0  0  0
 21  1  2  0  0  0  0
 21 22  1  0  0  0  0
 22  4  2  0  0  0  0
 23 15  1  0  0  0  0
 24  5  1  0  0  0  0
 25 17  1  0  0  0  0
 26 24  1  0  0  0  0
 26 13  1  0  0  0  0
 28 10  1  0  0  0  0
 28 12  1  0  0  0  0
M  END
>  <MODEL>
8

>  <REMARK>
 VINA RESULT:      -4.3      2.010      3.237
  Name = 
  0 active torsions:
  status: ('A' for Active; 'I' for Inactive)
                            x       y       z     vdW  Elec       q    Type
                         _______ _______ _______ _____ _____    ______ ____

>  <TORSDO>
F 0

$$$$
=
 OpenBabel11122411563D

 28 32  0  0  1  0  0  0  0  0999 V2000
  179.8650  178.9780  137.2000 C   0  0  0  0  0  0  0  0  0  0  0  0
  180.8520  174.2600  138.8480 F   0  0  0  0  0  0  0  0  0  0  0  0
  184.5780  179.4640  138.8140 O   0  0  0  0  0  0  0  0  0  0  0  0
  181.2720  179.2050  134.8450 C   0  0  0  0  0  3  0  0  0  0  0  0
  184.4900  177.2180  137.9380 C   0  0  1  0  0  3  0  0  0  0  0  0
  179.0050  178.9020  138.7720 S   0  0  0  0  0  0  0  0  0  0  0  0
  179.2630  174.2080  137.1080 C   0  0  0  0  0  1  0  0  0  0  0  0
  180.7350  174.2650  137.4660 C   0  0  1  0  0  0  0  0  0  0  0  0
  182.8990  173.0490  137.2160 C   0  0  1  0  0  3  0  0  0  0  0  0
  181.3520  175.5470  136.8540 C   0  0  2  0  0  3  0  0  0  0  0  0
  181.9110  180.7640  138.3440 O   0  0  0  0  0  1  0  0  0  0  0  0
  182.1630  176.8820  138.7220 C   0  0  1  0  0  3  0  0  0  0  0  0
  183.5360  174.2060  136.4630 C   0  0  0  0  0  2  0  0  0  0  0  0
  181.4090  173.0140  136.9140 C   0  0  0  0  0  2  0  0  0  0  0  0
  181.3580  180.3420  139.5550 C   0  0  2  0  0  3  0  0  0  0  0  0
  180.8050  177.9980  136.8360 C   0  0  0  0  0  0  0  0  0  0  0  0
  183.9200  178.4120  138.5960 C   0  0  0  0  0  0  0  0  0  0  0  0
  183.5350  171.7500  136.7700 C   0  0  0  0  0  1  0  0  0  0  0  0
  181.9620  179.0320  140.0680 C   0  0  0  0  0  2  0  0  0  0  0  0
  181.4960  178.1510  135.6720 N   0  0  0  0  0  0  0  0  0  0  0  0
  179.6270  180.0180  136.3560 N   0  0  0  0  0  0  0  0  0  0  0  0
  180.3080  180.1530  135.1890 C   0  0  0  0  0  3  0  0  0  0  0  0
  179.8280  180.3650  139.5140 C   0  0  0  0  0  2  0  0  0  0  0  0
  183.3770  176.1610  138.1150 C   0  0  1  0  0  3  0  0  0  0  0  0
  182.5740  178.2460  139.0020 N   0  0  0  0  0  0  0  0  0  0  0  0
  182.8850  175.5470  136.8090 C   0  0  2  0  0  3  0  0  0  0  0  0
  184.7400  177.5050  136.5930 O   0  0  0  0  0  1  0  0  0  0  0  0
  181.0170  176.7740  137.7000 C   0  0  1  0  0  3  0  0  0  0  0  0
  1  6  1  0  0  0  0
  4 22  2  0  0  0  0
  4 20  1  0  0  0  0
  5 27  1  6  0  0  0
  5 24  1  0  0  0  0
  5 17  1  0  0  0  0
  6 23  1  0  0  0  0
  8  7  1  6  0  0  0
  8  2  1  0  0  0  0
  9 18  1  6  0  0  0
 10  8  1  0  0  0  0
 10 28  1  0  0  0  0
 11 15  1  0  0  0  0
 12 25  1  0  0  0  0
 13 26  1  0  0  0  0
 13  9  1  0  0  0  0
 14  9  1  0  0  0  0
 14  8  1  0  0  0  0
 15 19  1  0  0  0  0
 16  1  1  0  0  0  0
 16 28  1  0  0  0  0
 17  3  2  0  0  0  0
 17 25  1  0  0  0  0
 20 16  2  0  0  0  0
 21  1  2  0  0  0  0
 22 21  1  0  0  0  0
 23 15  1  0  0  0  0
 24 12  1  0  0  0  0
 25 19  1  0  0  0  0
 26 10  1  0  0  0  0
 26 24  1  0  0  0  0
 28 12  1  0  0  0  0
M  END
>  <MODEL>
9

>  <REMARK>
 VINA RESULT:      -4.2      2.686      3.335
  Name = 
  0 active torsions:
  status: ('A' for Active; 'I' for Inactive)
                            x       y       z     vdW  Elec       q    Type
                         _______ _______ _______ _____ _____    ______ ____

>  <TORSDO>
F 0

$$$$
