=
 OpenBabel11122412303D

 34 42  0  0  1  0  0  0  0  0999 V2000
  189.3520  177.3010  141.2040 C   0  0  2  0  0  3  0  0  0  0  0  0
  190.4420  177.4410  138.9520 C   0  0  0  0  0  2  0  0  0  0  0  0
  184.8390  178.8710  145.9740 C   0  0  2  0  0  3  0  0  0  0  0  0
  188.0310  177.0120  143.3110 C   0  0  1  0  0  3  0  0  0  0  0  0
  186.0450  178.6930  143.6950 C   0  0  2  0  0  3  0  0  0  0  0  0
  184.0290  179.9510  144.0010 O   0  0  0  0  0  1  0  0  0  0  0  0
  186.1460  179.4590  146.4870 C   0  0  0  0  0  2  0  0  0  0  0  0
  186.8810  177.1900  145.6690 C   0  0  1  0  0  3  0  0  0  0  0  0
  188.3180  178.4590  139.2060 C   0  0  2  0  0  3  0  0  0  0  0  0
  186.0160  177.7130  137.2510 C   0  0  0  0  0  2  0  0  0  0  0  0
  185.8210  178.4820  142.2040 C   0  0  0  0  0  2  0  0  0  0  0  0
  186.1460  176.4690  144.7040 O   0  0  0  0  0  0  0  0  0  0  0  0
  187.0140  178.1850  139.9870 C   0  0  1  0  0  3  0  0  0  0  0  0
  189.5900  176.8170  138.0280 O   0  0  0  0  0  0  0  0  0  0  0  0
  186.9130  177.5490  144.2220 C   0  0  2  0  0  0  0  0  0  0  0  0
  185.9080  177.9590  146.5890 C   0  0  2  0  0  3  0  0  0  0  0  0
  187.2490  176.8400  137.4550 C   0  0  2  0  0  3  0  0  0  0  0  0
  188.3640  177.9820  142.1620 C   0  0  2  0  0  3  0  0  0  0  0  0
  184.7190  178.8200  144.4420 C   0  0  2  0  0  3  0  0  0  0  0  0
  187.1450  178.6300  141.4460 C   0  0  2  0  0  3  0  0  0  0  0  0
  190.3550  176.0710  143.1380 C   0  0  0  0  0  2  0  0  0  0  0  0
  185.2990  177.9210  138.5790 C   0  0  0  0  0  2  0  0  0  0  0  0
  189.3190  176.6890  144.0760 C   0  0  0  0  0  2  0  0  0  0  0  0
  185.9670  178.8730  139.3590 O   0  0  0  0  0  0  0  0  0  0  0  0
  188.4720  177.6600  137.9040 C   0  0  1  0  0  3  0  0  0  0  0  0
  190.6460  177.0020  141.9610 C   0  0  0  0  0  2  0  0  0  0  0  0
  189.6000  178.1760  139.9710 C   0  0  1  0  0  3  0  0  0  0  0  0
  187.5430  176.1800  136.2600 O   0  0  0  0  0  0  0  0  0  0  0  0
  186.3220  175.6370  135.8420 C   0  0  0  0  0  2  0  0  0  0  0  0
  185.0490  171.7890  135.8680 S   0  0  0  0  0  0  0  0  0  0  0  0
  184.9700  174.0920  137.2840 C   0  0  0  0  0  2  0  0  0  0  0  0
  186.1550  174.2120  136.3550 C   0  0  1  0  0  3  0  0  0  0  0  0
  184.7140  172.6130  137.4550 C   0  0  0  0  0  2  0  0  0  0  0  0
  185.9420  173.2350  135.2190 C   0  0  0  0  0  2  0  0  0  0  0  0
  1 26  1  1  0  0  0
  1 18  1  0  0  0  0
  2 27  1  0  0  0  0
  3  7  1  6  0  0  0
  3 16  1  0  0  0  0
  4 23  1  1  0  0  0
  4 15  1  0  0  0  0
  5 11  1  6  0  0  0
  5 15  1  0  0  0  0
  5 19  1  0  0  0  0
  6 19  1  0  0  0  0
  7 16  1  0  0  0  0
  8 12  1  6  0  0  0
  8 16  1  0  0  0  0
  9 27  1  0  0  0  0
  9 13  1  0  0  0  0
 10 17  1  0  0  0  0
 10 22  1  0  0  0  0
 13 20  1  0  0  0  0
 14  2  1  0  0  0  0
 15 12  1  0  0  0  0
 15  8  1  0  0  0  0
 17 25  1  0  0  0  0
 18  4  1  0  0  0  0
 19  3  1  0  0  0  0
 20 18  1  0  0  0  0
 20 11  1  0  0  0  0
 21 23  1  0  0  0  0
 22 24  1  0  0  0  0
 24 13  1  0  0  0  0
 25 14  1  0  0  0  0
 25  9  1  0  0  0  0
 26 21  1  0  0  0  0
 27  1  1  0  0  0  0
 28 17  1  0  0  0  0
 29 28  1  0  0  0  0
 29 32  1  0  0  0  0
 30 33  1  0  0  0  0
 31 33  1  0  0  0  0
 32 31  1  0  0  0  0
 34 30  1  0  0  0  0
 34 32  1  0  0  0  0
M  END
>  <MODEL>
1

>  <REMARK>
 VINA RESULT:      -8.7      0.000      0.000
  Name = 
  3 active torsions:
  status: ('A' for Active; 'I' for Inactive)
    1  A    between atoms: C_17  and  O_28
    2  A    between atoms: O_28  and  C_29
    3  A    between atoms: C_29  and  C_32
                            x       y       z     vdW  Elec       q    Type
                         _______ _______ _______ _____ _____    ______ ____

>  <TORSDO>
F 3

$$$$
=
 OpenBabel11122412303D

 34 42  0  0  1  0  0  0  0  0999 V2000
  189.2630  177.3930  141.0590 C   0  0  2  0  0  3  0  0  0  0  0  0
  190.3070  177.5560  138.7870 C   0  0  0  0  0  2  0  0  0  0  0  0
  184.7830  178.8330  145.9010 C   0  0  2  0  0  3  0  0  0  0  0  0
  187.9920  177.0720  143.1920 C   0  0  1  0  0  3  0  0  0  0  0  0
  185.9530  178.6830  143.6020 C   0  0  2  0  0  3  0  0  0  0  0  0
  183.8990  179.8680  143.9350 O   0  0  0  0  0  1  0  0  0  0  0  0
  186.0760  179.4710  146.3860 C   0  0  0  0  0  2  0  0  0  0  0  0
  186.8780  177.2250  145.5700 C   0  0  1  0  0  3  0  0  0  0  0  0
  188.1530  178.4980  139.0730 C   0  0  2  0  0  3  0  0  0  0  0  0
  185.8440  177.6560  137.1650 C   0  0  0  0  0  2  0  0  0  0  0  0
  185.7100  178.4530  142.1160 C   0  0  0  0  0  2  0  0  0  0  0  0
  186.1530  176.4710  144.6230 O   0  0  0  0  0  0  0  0  0  0  0  0
  186.8730  178.1830  139.8800 C   0  0  1  0  0  3  0  0  0  0  0  0
  189.4620  176.8960  137.8830 O   0  0  0  0  0  0  0  0  0  0  0  0
  186.8720  177.5750  144.1190 C   0  0  2  0  0  0  0  0  0  0  0  0
  185.8950  177.9640  146.5020 C   0  0  2  0  0  3  0  0  0  0  0  0
  187.1120  176.8300  137.3530 C   0  0  2  0  0  3  0  0  0  0  0  0
  188.2680  178.0440  142.0310 C   0  0  2  0  0  3  0  0  0  0  0  0
  184.6370  178.7670  144.3710 C   0  0  2  0  0  3  0  0  0  0  0  0
  187.0140  178.6430  141.3340 C   0  0  2  0  0  3  0  0  0  0  0  0
  190.3450  176.2140  142.9830 C   0  0  0  0  0  2  0  0  0  0  0  0
  185.1440  177.8470  138.5050 C   0  0  0  0  0  2  0  0  0  0  0  0
  189.3040  176.8010  143.9360 C   0  0  0  0  0  2  0  0  0  0  0  0
  185.7920  178.8280  139.2660 O   0  0  0  0  0  0  0  0  0  0  0  0
  188.3120  177.6970  137.7740 C   0  0  1  0  0  3  0  0  0  0  0  0
  190.5810  177.1460  141.7940 C   0  0  0  0  0  2  0  0  0  0  0  0
  189.4570  178.2670  139.8170 C   0  0  1  0  0  3  0  0  0  0  0  0
  187.4070  176.1720  136.1560 O   0  0  0  0  0  0  0  0  0  0  0  0
  187.3690  174.8100  136.4780 C   0  0  0  0  0  2  0  0  0  0  0  0
  191.1620  173.4170  136.1620 S   0  0  0  0  0  0  0  0  0  0  0  0
  189.3220  174.9540  134.9090 C   0  0  0  0  0  2  0  0  0  0  0  0
  188.5520  174.0720  135.8630 C   0  0  1  0  0  3  0  0  0  0  0  0
  190.6250  174.2410  134.6310 C   0  0  0  0  0  2  0  0  0  0  0  0
  189.5200  173.5970  136.9250 C   0  0  0  0  0  2  0  0  0  0  0  0
  1 26  1  1  0  0  0
  1 18  1  0  0  0  0
  2 27  1  0  0  0  0
  3  7  1  6  0  0  0
  3 16  1  0  0  0  0
  4 23  1  1  0  0  0
  4 15  1  0  0  0  0
  5 11  1  6  0  0  0
  5 15  1  0  0  0  0
  5 19  1  0  0  0  0
  6 19  1  0  0  0  0
  7 16  1  0  0  0  0
  8 12  1  6  0  0  0
  8 16  1  0  0  0  0
  9 27  1  0  0  0  0
  9 13  1  0  0  0  0
 10 17  1  0  0  0  0
 10 22  1  0  0  0  0
 13 20  1  0  0  0  0
 14  2  1  0  0  0  0
 15 12  1  0  0  0  0
 15  8  1  0  0  0  0
 17 25  1  0  0  0  0
 18  4  1  0  0  0  0
 19  3  1  0  0  0  0
 20 18  1  0  0  0  0
 20 11  1  0  0  0  0
 21 23  1  0  0  0  0
 22 24  1  0  0  0  0
 24 13  1  0  0  0  0
 25 14  1  0  0  0  0
 25  9  1  0  0  0  0
 26 21  1  0  0  0  0
 27  1  1  0  0  0  0
 28 29  1  0  0  0  0
 28 17  1  0  0  0  0
 30 34  1  0  0  0  0
 31 32  1  0  0  0  0
 32 29  1  0  0  0  0
 32 34  1  0  0  0  0
 33 31  1  0  0  0  0
 33 30  1  0  0  0  0
M  END
>  <MODEL>
2

>  <REMARK>
 VINA RESULT:      -8.6      1.655      1.999
  Name = 
  3 active torsions:
  status: ('A' for Active; 'I' for Inactive)
    1  A    between atoms: C_17  and  O_28
    2  A    between atoms: O_28  and  C_29
    3  A    between atoms: C_29  and  C_32
                            x       y       z     vdW  Elec       q    Type
                         _______ _______ _______ _____ _____    ______ ____

>  <TORSDO>
F 3

$$$$
=
 OpenBabel11122412303D

 34 42  0  0  1  0  0  0  0  0999 V2000
  188.9270  176.6520  137.1970 C   0  0  2  0  0  3  0  0  0  0  0  0
  187.3610  178.3070  138.2400 C   0  0  0  0  0  2  0  0  0  0  0  0
  194.9050  173.7930  135.9030 C   0  0  2  0  0  3  0  0  0  0  0  0
  190.5130  174.8700  136.4380 C   0  0  1  0  0  3  0  0  0  0  0  0
  193.0610  175.2570  136.9660 C   0  0  2  0  0  3  0  0  0  0  0  0
  195.3490  175.3440  137.6670 O   0  0  0  0  0  1  0  0  0  0  0  0
  194.5210  174.4670  134.5940 C   0  0  0  0  0  2  0  0  0  0  0  0
  192.3500  173.3850  135.2790 C   0  0  1  0  0  3  0  0  0  0  0  0
  189.5660  178.1940  139.0980 C   0  0  2  0  0  3  0  0  0  0  0  0
  190.0060  177.7700  142.1480 C   0  0  0  0  0  2  0  0  0  0  0  0
  192.5170  175.7720  138.2930 C   0  0  0  0  0  2  0  0  0  0  0  0
  192.0740  173.0480  136.6210 O   0  0  0  0  0  0  0  0  0  0  0  0
  190.6350  177.1060  139.3430 C   0  0  1  0  0  3  0  0  0  0  0  0
  187.2420  177.9810  139.5990 O   0  0  0  0  0  0  0  0  0  0  0  0
  191.9760  174.4150  136.2920 C   0  0  2  0  0  0  0  0  0  0  0  0
  193.8490  173.1590  134.9890 C   0  0  2  0  0  3  0  0  0  0  0  0
  188.6960  177.4360  141.4420 C   0  0  2  0  0  3  0  0  0  0  0  0
  190.4000  176.3320  136.9060 C   0  0  2  0  0  3  0  0  0  0  0  0
  194.3670  174.4910  137.1630 C   0  0  2  0  0  3  0  0  0  0  0  0
  191.3700  176.7560  138.0460 C   0  0  2  0  0  3  0  0  0  0  0  0
  188.2420  175.0740  135.3800 C   0  0  0  0  0  2  0  0  0  0  0  0
  191.1520  176.9920  141.5130 C   0  0  0  0  0  2  0  0  0  0  0  0
  189.7050  174.6980  135.1470 C   0  0  0  0  0  2  0  0  0  0  0  0
  191.5390  177.5800  140.3030 O   0  0  0  0  0  0  0  0  0  0  0  0
  188.4830  178.2920  140.1810 C   0  0  1  0  0  3  0  0  0  0  0  0
  188.1250  176.5050  135.9040 C   0  0  0  0  0  2  0  0  0  0  0  0
  188.7860  178.0520  137.8020 C   0  0  1  0  0  3  0  0  0  0  0  0
  187.6360  177.6380  142.3290 O   0  0  0  0  0  0  0  0  0  0  0  0
  187.8930  176.7710  143.3970 C   0  0  0  0  0  2  0  0  0  0  0  0
  185.3410  178.8980  145.7200 S   0  0  0  0  0  0  0  0  0  0  0  0
  187.7180  177.6090  145.7560 C   0  0  0  0  0  2  0  0  0  0  0  0
  186.9620  177.0600  144.5690 C   0  0  1  0  0  3  0  0  0  0  0  0
  186.6780  178.1550  146.7060 C   0  0  0  0  0  2  0  0  0  0  0  0
  185.9020  178.0740  144.1980 C   0  0  0  0  0  2  0  0  0  0  0  0
  1 26  1  6  0  0  0
  1 27  1  0  0  0  0
  2 14  1  0  0  0  0
  3  7  1  6  0  0  0
  3 19  1  0  0  0  0
  4 23  1  6  0  0  0
  4 18  1  0  0  0  0
  5 19  1  0  0  0  0
  5 11  1  1  0  0  0
  7 16  1  0  0  0  0
  8 15  1  0  0  0  0
  8 12  1  1  0  0  0
  9 13  1  0  0  0  0
  9 25  1  0  0  0  0
 13 24  1  0  0  0  0
 14 25  1  0  0  0  0
 15  4  1  0  0  0  0
 15 12  1  0  0  0  0
 15  5  1  0  0  0  0
 16  8  1  0  0  0  0
 16  3  1  0  0  0  0
 17 10  1  0  0  0  0
 17 28  1  0  0  0  0
 18  1  1  0  0  0  0
 18 20  1  0  0  0  0
 19  6  1  0  0  0  0
 20 11  1  0  0  0  0
 20 13  1  0  0  0  0
 21 26  1  0  0  0  0
 22 10  1  0  0  0  0
 23 21  1  0  0  0  0
 24 22  1  0  0  0  0
 25 17  1  0  0  0  0
 27  2  1  0  0  0  0
 27  9  1  0  0  0  0
 28 29  1  0  0  0  0
 29 32  1  0  0  0  0
 30 33  1  0  0  0  0
 31 33  1  0  0  0  0
 32 31  1  0  0  0  0
 34 32  1  0  0  0  0
 34 30  1  0  0  0  0
M  END
>  <MODEL>
3

>  <REMARK>
 VINA RESULT:      -8.4      3.885      8.967
  Name = 
  3 active torsions:
  status: ('A' for Active; 'I' for Inactive)
    1  A    between atoms: C_17  and  O_28
    2  A    between atoms: O_28  and  C_29
    3  A    between atoms: C_29  and  C_32
                            x       y       z     vdW  Elec       q    Type
                         _______ _______ _______ _____ _____    ______ ____

>  <TORSDO>
F 3

$$$$
=
 OpenBabel11122412303D

 34 42  0  0  1  0  0  0  0  0999 V2000
  190.6720  177.2160  142.0620 C   0  0  2  0  0  3  0  0  0  0  0  0
  192.4190  177.2060  140.2660 C   0  0  0  0  0  2  0  0  0  0  0  0
  184.6950  178.6840  144.8370 C   0  0  2  0  0  3  0  0  0  0  0  0
  188.7730  177.0210  143.6810 C   0  0  1  0  0  3  0  0  0  0  0  0
  186.5950  178.3810  143.1120 C   0  0  2  0  0  3  0  0  0  0  0  0
  184.4630  179.3110  142.5410 O   0  0  0  0  0  1  0  0  0  0  0  0
  185.6850  179.5530  145.5990 C   0  0  0  0  0  2  0  0  0  0  0  0
  186.8980  177.3450  145.4970 C   0  0  1  0  0  3  0  0  0  0  0  0
  190.2300  177.8780  139.6600 C   0  0  2  0  0  3  0  0  0  0  0  0
  188.7990  176.4770  137.2800 C   0  0  0  0  0  2  0  0  0  0  0  0
  186.8990  177.9190  141.6930 C   0  0  0  0  0  2  0  0  0  0  0  0
  186.6090  176.3780  144.5130 O   0  0  0  0  0  0  0  0  0  0  0  0
  188.7810  177.5060  140.0460 C   0  0  1  0  0  3  0  0  0  0  0  0
  191.9950  176.3200  139.2650 O   0  0  0  0  0  0  0  0  0  0  0  0
  187.3650  177.4890  144.0870 C   0  0  2  0  0  0  0  0  0  0  0  0
  185.5970  178.0650  145.9110 C   0  0  2  0  0  3  0  0  0  0  0  0
  189.9870  175.8640  138.0140 C   0  0  2  0  0  3  0  0  0  0  0  0
  189.3540  177.8530  142.5240 C   0  0  2  0  0  3  0  0  0  0  0  0
  185.0920  178.3900  143.3800 C   0  0  2  0  0  3  0  0  0  0  0  0
  188.3730  178.1750  141.3610 C   0  0  2  0  0  3  0  0  0  0  0  0
  191.1150  176.4690  144.4090 C   0  0  0  0  0  2  0  0  0  0  0  0
  187.6670  176.7530  138.2610 C   0  0  0  0  0  2  0  0  0  0  0  0
  189.7650  177.0340  144.8500 C   0  0  0  0  0  2  0  0  0  0  0  0
  187.9290  177.9080  139.0090 O   0  0  0  0  0  0  0  0  0  0  0  0
  190.8930  176.9350  138.6470 C   0  0  1  0  0  3  0  0  0  0  0  0
  191.6710  177.2530  143.2200 C   0  0  0  0  0  2  0  0  0  0  0  0
  191.2120  177.9300  140.8190 C   0  0  1  0  0  3  0  0  0  0  0  0
  190.7290  175.0940  137.1150 O   0  0  0  0  0  0  0  0  0  0  0  0
  191.1140  175.9890  136.1100 C   0  0  0  0  0  2  0  0  0  0  0  0
  194.5440  173.8740  135.6780 S   0  0  0  0  0  0  0  0  0  0  0  0
  193.5950  176.3630  136.1450 C   0  0  0  0  0  2  0  0  0  0  0  0
  192.4590  175.5930  135.5140 C   0  0  1  0  0  3  0  0  0  0  0  0
  194.8670  175.6640  135.7240 C   0  0  0  0  0  2  0  0  0  0  0  0
  192.7420  174.1200  135.7140 C   0  0  0  0  0  2  0  0  0  0  0  0
  1 18  1  0  0  0  0
  1 26  1  1  0  0  0
  2 27  1  0  0  0  0
  3  7  1  6  0  0  0
  3 16  1  0  0  0  0
  4 15  1  0  0  0  0
  4 23  1  1  0  0  0
  5 11  1  6  0  0  0
  5 19  1  0  0  0  0
  5 15  1  0  0  0  0
  6 19  1  0  0  0  0
  7 16  1  0  0  0  0
  8 12  1  6  0  0  0
  8 16  1  0  0  0  0
  9 13  1  0  0  0  0
  9 27  1  0  0  0  0
 10 17  1  0  0  0  0
 10 22  1  0  0  0  0
 13 20  1  0  0  0  0
 14  2  1  0  0  0  0
 15 12  1  0  0  0  0
 15  8  1  0  0  0  0
 17 25  1  0  0  0  0
 18  4  1  0  0  0  0
 19  3  1  0  0  0  0
 20 11  1  0  0  0  0
 20 18  1  0  0  0  0
 21 23  1  0  0  0  0
 22 24  1  0  0  0  0
 24 13  1  0  0  0  0
 25 14  1  0  0  0  0
 25  9  1  0  0  0  0
 26 21  1  0  0  0  0
 27  1  1  0  0  0  0
 28 17  1  0  0  0  0
 29 28  1  0  0  0  0
 30 34  1  0  0  0  0
 30 33  1  0  0  0  0
 32 34  1  0  0  0  0
 32 29  1  0  0  0  0
 32 31  1  0  0  0  0
 33 31  1  0  0  0  0
M  END
>  <MODEL>
4

>  <REMARK>
 VINA RESULT:      -8.2      2.731      3.831
  Name = 
  3 active torsions:
  status: ('A' for Active; 'I' for Inactive)
    1  A    between atoms: C_17  and  O_28
    2  A    between atoms: O_28  and  C_29
    3  A    between atoms: C_29  and  C_32
                            x       y       z     vdW  Elec       q    Type
                         _______ _______ _______ _____ _____    ______ ____

>  <TORSDO>
F 3

$$$$
=
 OpenBabel11122412303D

 34 42  0  0  1  0  0  0  0  0999 V2000
  187.1460  178.0360  140.4890 C   0  0  2  0  0  3  0  0  0  0  0  0
  186.9230  178.2730  138.0040 C   0  0  0  0  0  2  0  0  0  0  0  0
  185.2360  178.6530  146.9350 C   0  0  2  0  0  3  0  0  0  0  0  0
  187.1550  177.5730  142.9490 C   0  0  1  0  0  3  0  0  0  0  0  0
  185.1920  178.6210  144.3510 C   0  0  2  0  0  3  0  0  0  0  0  0
  183.2950  179.2490  145.6720 O   0  0  0  0  0  1  0  0  0  0  0  0
  186.3780  179.6470  146.7860 C   0  0  0  0  0  2  0  0  0  0  0  0
  187.2830  177.6300  145.5760 C   0  0  1  0  0  3  0  0  0  0  0  0
  184.9860  178.6380  139.3180 C   0  0  2  0  0  3  0  0  0  0  0  0
  182.3820  177.0600  138.6800 C   0  0  0  0  0  2  0  0  0  0  0  0
  184.3580  178.2100  143.1450 C   0  0  0  0  0  2  0  0  0  0  0  0
  186.4360  176.6350  145.0440 O   0  0  0  0  0  0  0  0  0  0  0  0
  184.3700  178.0670  140.6150 C   0  0  1  0  0  3  0  0  0  0  0  0
  185.9690  177.3400  137.5720 O   0  0  0  0  0  0  0  0  0  0  0  0
  186.5070  177.8410  144.3190 C   0  0  2  0  0  0  0  0  0  0  0  0
  186.6880  178.1610  146.8980 C   0  0  2  0  0  3  0  0  0  0  0  0
  183.7610  176.6150  138.2070 C   0  0  2  0  0  3  0  0  0  0  0  0
  186.5840  178.4820  141.8460 C   0  0  2  0  0  3  0  0  0  0  0  0
  184.4180  178.4210  145.6530 C   0  0  2  0  0  3  0  0  0  0  0  0
  185.0400  178.6690  141.8520 C   0  0  2  0  0  3  0  0  0  0  0  0
  189.2730  177.3490  141.6140 C   0  0  0  0  0  2  0  0  0  0  0  0
  182.3640  177.1730  140.2000 C   0  0  0  0  0  2  0  0  0  0  0  0
  188.6810  177.7200  142.9730 C   0  0  0  0  0  2  0  0  0  0  0  0
  182.9980  178.3510  140.6160 O   0  0  0  0  0  0  0  0  0  0  0  0
  184.7330  177.7990  138.0580 C   0  0  1  0  0  3  0  0  0  0  0  0
  188.6660  178.2060  140.5040 C   0  0  0  0  0  2  0  0  0  0  0  0
  186.4940  178.8210  139.3470 C   0  0  1  0  0  3  0  0  0  0  0  0
  183.6310  175.9590  136.9810 O   0  0  0  0  0  0  0  0  0  0  0  0
  183.3750  174.6240  137.3140 C   0  0  0  0  0  2  0  0  0  0  0  0
  186.8980  172.6600  136.9060 S   0  0  0  0  0  0  0  0  0  0  0  0
  185.2610  174.4240  135.6710 C   0  0  0  0  0  2  0  0  0  0  0  0
  184.4060  173.6970  136.6820 C   0  0  1  0  0  3  0  0  0  0  0  0
  186.4290  173.5140  135.3690 C   0  0  0  0  0  2  0  0  0  0  0  0
  185.3340  173.1080  137.7220 C   0  0  0  0  0  2  0  0  0  0  0  0
  1 26  1  1  0  0  0
  1 18  1  0  0  0  0
  2 27  1  0  0  0  0
  3  7  1  6  0  0  0
  4 23  1  1  0  0  0
  4 15  1  0  0  0  0
  5 11  1  6  0  0  0
  5 19  1  0  0  0  0
  7 16  1  0  0  0  0
  8 12  1  1  0  0  0
  8 16  1  0  0  0  0
  9 27  1  0  0  0  0
  9 13  1  0  0  0  0
 10 22  1  0  0  0  0
 13 24  1  0  0  0  0
 13 20  1  0  0  0  0
 14  2  1  0  0  0  0
 14 25  1  0  0  0  0
 15  5  1  0  0  0  0
 15 12  1  0  0  0  0
 15  8  1  0  0  0  0
 16  3  1  0  0  0  0
 17 10  1  0  0  0  0
 18 20  1  0  0  0  0
 18  4  1  0  0  0  0
 19  6  1  0  0  0  0
 19  3  1  0  0  0  0
 20 11  1  0  0  0  0
 21 23  1  0  0  0  0
 22 24  1  0  0  0  0
 25 17  1  0  0  0  0
 25  9  1  0  0  0  0
 26 21  1  0  0  0  0
 27  1  1  0  0  0  0
 28 29  1  0  0  0  0
 28 17  1  0  0  0  0
 30 34  1  0  0  0  0
 31 32  1  0  0  0  0
 32 29  1  0  0  0  0
 32 34  1  0  0  0  0
 33 31  1  0  0  0  0
 33 30  1  0  0  0  0
M  END
>  <MODEL>
5

>  <REMARK>
 VINA RESULT:      -8.0      1.649      2.537
  Name = 
  3 active torsions:
  status: ('A' for Active; 'I' for Inactive)
    1  A    between atoms: C_17  and  O_28
    2  A    between atoms: O_28  and  C_29
    3  A    between atoms: C_29  and  C_32
                            x       y       z     vdW  Elec       q    Type
                         _______ _______ _______ _____ _____    ______ ____

>  <TORSDO>
F 3

$$$$
=
 OpenBabel11122412303D

 34 42  0  0  1  0  0  0  0  0999 V2000
  182.5030  178.6110  143.4390 C   0  0  2  0  0  3  0  0  0  0  0  0
  184.1700  179.0030  145.2680 C   0  0  0  0  0  2  0  0  0  0  0  0
  179.9900  179.0680  137.1900 C   0  0  2  0  0  3  0  0  0  0  0  0
  181.0440  178.0180  141.4930 C   0  0  1  0  0  3  0  0  0  0  0  0
  181.6080  179.1800  139.2010 C   0  0  2  0  0  3  0  0  0  0  0  0
  182.2160  179.9240  137.0070 O   0  0  0  0  0  1  0  0  0  0  0  0
  179.0750  179.9500  138.0260 C   0  0  0  0  0  2  0  0  0  0  0  0
  179.3320  177.9200  139.4980 C   0  0  1  0  0  3  0  0  0  0  0  0
  184.8440  179.4880  143.0500 C   0  0  2  0  0  3  0  0  0  0  0  0
  187.4510  178.2170  141.9260 C   0  0  0  0  0  2  0  0  0  0  0  0
  183.0450  178.9210  139.6340 C   0  0  0  0  0  2  0  0  0  0  0  0
  180.4320  177.0450  139.3790 O   0  0  0  0  0  0  0  0  0  0  0  0
  184.5980  178.9140  141.6370 C   0  0  1  0  0  3  0  0  0  0  0  0
  185.2870  178.1950  145.0070 O   0  0  0  0  0  0  0  0  0  0  0  0
  180.6840  178.2750  140.0190 C   0  0  2  0  0  0  0  0  0  0  0  0
  178.9310  178.4360  138.1000 C   0  0  2  0  0  3  0  0  0  0  0  0
  186.7100  177.6610  143.1370 C   0  0  2  0  0  3  0  0  0  0  0  0
  182.0640  179.0380  142.0310 C   0  0  2  0  0  3  0  0  0  0  0  0
  181.4410  178.9900  137.6960 C   0  0  2  0  0  3  0  0  0  0  0  0
  183.2490  179.3780  141.0830 C   0  0  2  0  0  3  0  0  0  0  0  0
  180.2260  177.6540  143.8420 C   0  0  0  0  0  2  0  0  0  0  0  0
  186.5230  178.2490  140.7170 C   0  0  0  0  0  2  0  0  0  0  0  0
  179.8180  178.0100  142.4120 C   0  0  0  0  0  2  0  0  0  0  0  0
  185.6400  179.3330  140.8000 O   0  0  0  0  0  0  0  0  0  0  0  0
  185.9060  178.7480  143.8740 C   0  0  1  0  0  3  0  0  0  0  0  0
  181.2850  178.6270  144.3620 C   0  0  0  0  0  2  0  0  0  0  0  0
  183.6240  179.5180  143.9550 C   0  0  1  0  0  3  0  0  0  0  0  0
  187.6340  177.0880  144.0130 O   0  0  0  0  0  0  0  0  0  0  0  0
  188.8030  177.8390  143.8420 C   0  0  0  0  0  2  0  0  0  0  0  0
  191.2920  176.7240  146.8400 S   0  0  0  0  0  0  0  0  0  0  0  0
  188.7470  177.4820  146.3250 C   0  0  0  0  0  2  0  0  0  0  0  0
  189.5720  177.9580  145.1520 C   0  0  1  0  0  3  0  0  0  0  0  0
  189.7030  177.3360  147.4850 C   0  0  0  0  0  2  0  0  0  0  0  0
  190.8420  177.1350  145.1260 C   0  0  0  0  0  2  0  0  0  0  0  0
  1 27  1  0  0  0  0
  1 26  1  1  0  0  0
  3 19  1  0  0  0  0
  3  7  1  1  0  0  0
  3 16  1  0  0  0  0
  4 18  1  0  0  0  0
  4 23  1  1  0  0  0
  5 11  1  1  0  0  0
  5 15  1  0  0  0  0
  6 19  1  0  0  0  0
  7 16  1  0  0  0  0
  8 12  1  6  0  0  0
  8 15  1  0  0  0  0
  9 25  1  0  0  0  0
  9 27  1  0  0  0  0
 10 17  1  0  0  0  0
 11 20  1  0  0  0  0
 12 15  1  0  0  0  0
 13  9  1  0  0  0  0
 14  2  1  0  0  0  0
 15  4  1  0  0  0  0
 16  8  1  0  0  0  0
 17 25  1  0  0  0  0
 17 28  1  0  0  0  0
 18  1  1  0  0  0  0
 19  5  1  0  0  0  0
 20 13  1  0  0  0  0
 20 18  1  0  0  0  0
 21 26  1  0  0  0  0
 22 24  1  0  0  0  0
 22 10  1  0  0  0  0
 23 21  1  0  0  0  0
 24 13  1  0  0  0  0
 25 14  1  0  0  0  0
 27  2  1  0  0  0  0
 29 28  1  0  0  0  0
 29 32  1  0  0  0  0
 30 33  1  0  0  0  0
 31 33  1  0  0  0  0
 32 31  1  0  0  0  0
 34 32  1  0  0  0  0
 34 30  1  0  0  0  0
M  END
>  <MODEL>
6

>  <REMARK>
 VINA RESULT:      -7.7      4.232      8.307
  Name = 
  3 active torsions:
  status: ('A' for Active; 'I' for Inactive)
    1  A    between atoms: C_17  and  O_28
    2  A    between atoms: O_28  and  C_29
    3  A    between atoms: C_29  and  C_32
                            x       y       z     vdW  Elec       q    Type
                         _______ _______ _______ _____ _____    ______ ____

>  <TORSDO>
F 3

$$$$
=
 OpenBabel11122412303D

 34 42  0  0  1  0  0  0  0  0999 V2000
  180.7840  177.2050  141.0440 C   0  0  2  0  0  3  0  0  0  0  0  0
  180.3490  178.5940  143.0840 C   0  0  0  0  0  2  0  0  0  0  0  0
  183.6580  175.6730  135.1300 C   0  0  2  0  0  3  0  0  0  0  0  0
  181.4930  175.7490  139.1350 C   0  0  1  0  0  3  0  0  0  0  0  0
  183.1460  176.8170  137.3900 C   0  0  2  0  0  3  0  0  0  0  0  0
  184.8860  177.5650  135.9240 O   0  0  0  0  0  1  0  0  0  0  0  0
  182.2160  176.0010  134.7720 C   0  0  0  0  0  2  0  0  0  0  0  0
  181.9300  174.5680  136.8260 C   0  0  1  0  0  3  0  0  0  0  0  0
  182.2260  179.1590  141.7550 C   0  0  2  0  0  3  0  0  0  0  0  0
  185.0320  179.3820  143.0790 C   0  0  0  0  0  2  0  0  0  0  0  0
  183.7900  177.4070  138.6380 C   0  0  0  0  0  2  0  0  0  0  0  0
  182.9600  174.4110  137.7770 O   0  0  0  0  0  0  0  0  0  0  0  0
  183.2830  178.4150  140.9080 C   0  0  1  0  0  3  0  0  0  0  0  0
  181.4720  178.4880  143.9180 O   0  0  0  0  0  0  0  0  0  0  0  0
  182.2670  175.6380  137.8100 C   0  0  2  0  0  0  0  0  0  0  0  0
  182.5430  174.6590  135.4120 C   0  0  2  0  0  3  0  0  0  0  0  0
  183.8690  178.6300  143.7160 C   0  0  2  0  0  3  0  0  0  0  0  0
  181.4090  177.2000  139.6420 C   0  0  2  0  0  3  0  0  0  0  0  0
  184.2000  176.4290  136.3550 C   0  0  2  0  0  3  0  0  0  0  0  0
  182.7180  178.0330  139.5370 C   0  0  2  0  0  3  0  0  0  0  0  0
  179.3950  175.2210  140.4150 C   0  0  0  0  0  2  0  0  0  0  0  0
  185.3350  178.8030  141.7020 C   0  0  0  0  0  2  0  0  0  0  0  0
  180.0760  175.1700  139.0480 C   0  0  0  0  0  2  0  0  0  0  0  0
  184.3990  179.2480  140.7610 O   0  0  0  0  0  0  0  0  0  0  0  0
  182.5040  179.1810  143.2630 C   0  0  1  0  0  3  0  0  0  0  0  0
  179.3610  176.6520  140.9530 C   0  0  0  0  0  2  0  0  0  0  0  0
  180.8120  178.6140  141.6440 C   0  0  1  0  0  3  0  0  0  0  0  0
  183.9730  178.7240  145.1060 O   0  0  0  0  0  0  0  0  0  0  0  0
  185.2650  179.2110  145.3360 C   0  0  0  0  0  2  0  0  0  0  0  0
  187.9030  177.9220  148.1310 S   0  0  0  0  0  0  0  0  0  0  0  0
  187.4060  177.9100  145.4720 C   0  0  0  0  0  2  0  0  0  0  0  0
  186.0870  178.2130  146.1430 C   0  0  1  0  0  3  0  0  0  0  0  0
  188.2500  177.1930  146.5000 C   0  0  0  0  0  2  0  0  0  0  0  0
  186.3930  178.7400  147.5280 C   0  0  0  0  0  2  0  0  0  0  0  0
  1 26  1  6  0  0  0
  1 27  1  0  0  0  0
  2 14  1  0  0  0  0
  3  7  1  6  0  0  0
  3 16  1  0  0  0  0
  3 19  1  0  0  0  0
  4 23  1  6  0  0  0
  4 18  1  0  0  0  0
  5 15  1  0  0  0  0
  5 11  1  1  0  0  0
  6 19  1  0  0  0  0
  7 16  1  0  0  0  0
  8 12  1  1  0  0  0
  8 15  1  0  0  0  0
  9 25  1  0  0  0  0
 10 17  1  0  0  0  0
 11 20  1  0  0  0  0
 12 15  1  0  0  0  0
 13  9  1  0  0  0  0
 15  4  1  0  0  0  0
 16  8  1  0  0  0  0
 17 28  1  0  0  0  0
 18  1  1  0  0  0  0
 19  5  1  0  0  0  0
 20 18  1  0  0  0  0
 20 13  1  0  0  0  0
 21 26  1  0  0  0  0
 22 10  1  0  0  0  0
 23 21  1  0  0  0  0
 24 13  1  0  0  0  0
 24 22  1  0  0  0  0
 25 17  1  0  0  0  0
 25 14  1  0  0  0  0
 27  9  1  0  0  0  0
 27  2  1  0  0  0  0
 28 29  1  0  0  0  0
 29 32  1  0  0  0  0
 31 32  1  0  0  0  0
 31 33  1  0  0  0  0
 32 34  1  0  0  0  0
 33 30  1  0  0  0  0
 34 30  1  0  0  0  0
M  END
>  <MODEL>
7

>  <REMARK>
 VINA RESULT:      -7.5      4.137      9.246
  Name = 
  3 active torsions:
  status: ('A' for Active; 'I' for Inactive)
    1  A    between atoms: C_17  and  O_28
    2  A    between atoms: O_28  and  C_29
    3  A    between atoms: C_29  and  C_32
                            x       y       z     vdW  Elec       q    Type
                         _______ _______ _______ _____ _____    ______ ____

>  <TORSDO>
F 3

$$$$
=
 OpenBabel11122412303D

 34 42  0  0  1  0  0  0  0  0999 V2000
  183.6570  178.1940  141.2200 C   0  0  2  0  0  3  0  0  0  0  0  0
  184.4960  179.1640  143.3730 C   0  0  0  0  0  2  0  0  0  0  0  0
  183.7430  176.9050  134.5940 C   0  0  2  0  0  3  0  0  0  0  0  0
  183.0520  177.0210  139.0930 C   0  0  1  0  0  3  0  0  0  0  0  0
  184.4640  177.6440  136.9620 C   0  0  2  0  0  3  0  0  0  0  0  0
  185.8760  177.8890  135.0430 O   0  0  0  0  0  1  0  0  0  0  0  0
  182.5850  177.8750  134.7710 C   0  0  0  0  0  2  0  0  0  0  0  0
  182.2380  176.2910  136.7010 C   0  0  1  0  0  3  0  0  0  0  0  0
  185.9750  179.1610  141.5230 C   0  0  2  0  0  3  0  0  0  0  0  0
  188.8020  177.8980  141.8210 C   0  0  0  0  0  2  0  0  0  0  0  0
  185.6220  177.6270  137.9520 C   0  0  0  0  0  2  0  0  0  0  0  0
  183.2910  175.5160  137.2300 O   0  0  0  0  0  0  0  0  0  0  0  0
  186.2860  178.2430  140.3190 C   0  0  1  0  0  3  0  0  0  0  0  0
  185.6190  178.4210  143.7640 O   0  0  0  0  0  0  0  0  0  0  0  0
  183.2890  176.8820  137.5790 C   0  0  2  0  0  0  0  0  0  0  0  0
  182.4090  176.4170  135.1710 C   0  0  2  0  0  3  0  0  0  0  0  0
  187.6470  177.5850  142.7670 C   0  0  2  0  0  3  0  0  0  0  0  0
  183.7970  178.2280  139.6920 C   0  0  2  0  0  3  0  0  0  0  0  0
  184.8870  177.0820  135.6070 C   0  0  2  0  0  3  0  0  0  0  0  0
  185.2580  178.4360  139.2020 C   0  0  2  0  0  3  0  0  0  0  0  0
  181.3910  177.1600  140.9740 C   0  0  0  0  0  2  0  0  0  0  0  0
  188.4100  177.5540  140.3900 C   0  0  0  0  0  2  0  0  0  0  0  0
  181.5670  177.1230  139.4560 C   0  0  0  0  0  2  0  0  0  0  0  0
  187.5740  178.5410  139.8550 O   0  0  0  0  0  0  0  0  0  0  0  0
  186.6320  178.7400  142.8440 C   0  0  1  0  0  3  0  0  0  0  0  0
  182.1770  178.3210  141.5830 C   0  0  0  0  0  2  0  0  0  0  0  0
  184.5010  179.2970  141.8660 C   0  0  1  0  0  3  0  0  0  0  0  0
  188.1590  177.3260  144.0400 O   0  0  0  0  0  0  0  0  0  0  0  0
  189.4520  177.8620  144.0230 C   0  0  0  0  0  2  0  0  0  0  0  0
  191.4460  176.3780  147.2250 S   0  0  0  0  0  0  0  0  0  0  0  0
  189.0660  177.4100  146.4610 C   0  0  0  0  0  2  0  0  0  0  0  0
  190.0660  177.8480  145.4170 C   0  0  1  0  0  3  0  0  0  0  0  0
  189.8580  177.1210  147.7140 C   0  0  0  0  0  2  0  0  0  0  0  0
  191.2450  176.9030  145.4940 C   0  0  0  0  0  2  0  0  0  0  0  0
  1 26  1  6  0  0  0
  1 27  1  0  0  0  0
  2 14  1  0  0  0  0
  3  7  1  1  0  0  0
  3 16  1  0  0  0  0
  3 19  1  0  0  0  0
  4 23  1  6  0  0  0
  4 18  1  0  0  0  0
  5 15  1  0  0  0  0
  5 11  1  1  0  0  0
  6 19  1  0  0  0  0
  7 16  1  0  0  0  0
  8 12  1  6  0  0  0
  8 15  1  0  0  0  0
  9 27  1  0  0  0  0
  9 25  1  0  0  0  0
 10 17  1  0  0  0  0
 11 20  1  0  0  0  0
 12 15  1  0  0  0  0
 13  9  1  0  0  0  0
 15  4  1  0  0  0  0
 16  8  1  0  0  0  0
 17 25  1  0  0  0  0
 17 28  1  0  0  0  0
 18  1  1  0  0  0  0
 19  5  1  0  0  0  0
 20 18  1  0  0  0  0
 20 13  1  0  0  0  0
 21 26  1  0  0  0  0
 22 10  1  0  0  0  0
 23 21  1  0  0  0  0
 24 13  1  0  0  0  0
 24 22  1  0  0  0  0
 25 14  1  0  0  0  0
 27  2  1  0  0  0  0
 29 28  1  0  0  0  0
 29 32  1  0  0  0  0
 30 33  1  0  0  0  0
 31 33  1  0  0  0  0
 32 34  1  0  0  0  0
 32 31  1  0  0  0  0
 34 30  1  0  0  0  0
M  END
>  <MODEL>
8

>  <REMARK>
 VINA RESULT:      -7.4      3.456      8.329
  Name = 
  3 active torsions:
  status: ('A' for Active; 'I' for Inactive)
    1  A    between atoms: C_17  and  O_28
    2  A    between atoms: O_28  and  C_29
    3  A    between atoms: C_29  and  C_32
                            x       y       z     vdW  Elec       q    Type
                         _______ _______ _______ _____ _____    ______ ____

>  <TORSDO>
F 3

$$$$
=
 OpenBabel11122412303D

 34 42  0  0  1  0  0  0  0  0999 V2000
  188.3200  177.7190  138.9330 C   0  0  2  0  0  3  0  0  0  0  0  0
  187.2770  178.4240  136.7660 C   0  0  0  0  0  2  0  0  0  0  0  0
  188.9980  177.4440  145.6440 C   0  0  2  0  0  3  0  0  0  0  0  0
  189.1150  176.8300  141.1340 C   0  0  1  0  0  3  0  0  0  0  0  0
  188.0300  177.8790  143.2880 C   0  0  2  0  0  3  0  0  0  0  0  0
  186.8930  178.5240  145.2960 O   0  0  0  0  0  1  0  0  0  0  0  0
  190.1840  178.2770  145.1820 C   0  0  0  0  0  2  0  0  0  0  0  0
  190.1800  176.4000  143.5000 C   0  0  1  0  0  3  0  0  0  0  0  0
  186.0490  178.8190  138.7530 C   0  0  2  0  0  3  0  0  0  0  0  0
  183.1320  177.7640  138.9880 C   0  0  0  0  0  2  0  0  0  0  0  0
  186.7560  177.8110  142.4550 C   0  0  0  0  0  2  0  0  0  0  0  0
  189.0200  175.6450  143.2260 O   0  0  0  0  0  0  0  0  0  0  0  0
  185.8360  178.1200  140.1140 C   0  0  1  0  0  3  0  0  0  0  0  0
  186.0670  177.7270  136.6300 O   0  0  0  0  0  0  0  0  0  0  0  0
  189.0650  176.9390  142.6680 C   0  0  2  0  0  0  0  0  0  0  0  0
  190.2130  176.7660  145.0000 C   0  0  2  0  0  3  0  0  0  0  0  0
  184.1340  177.2200  137.9760 C   0  0  2  0  0  3  0  0  0  0  0  0
  188.3790  177.9920  140.4420 C   0  0  2  0  0  3  0  0  0  0  0  0
  187.7480  177.5620  144.7550 C   0  0  2  0  0  3  0  0  0  0  0  0
  187.0090  178.3910  141.0600 C   0  0  2  0  0  3  0  0  0  0  0  0
  190.5280  176.5500  139.0740 C   0  0  0  0  0  2  0  0  0  0  0  0
  183.6800  177.6070  140.4010 C   0  0  0  0  0  2  0  0  0  0  0  0
  190.5450  176.7530  140.5890 C   0  0  0  0  0  2  0  0  0  0  0  0
  184.6400  178.5900  140.6720 O   0  0  0  0  0  0  0  0  0  0  0  0
  185.2030  178.2620  137.6000 C   0  0  1  0  0  3  0  0  0  0  0  0
  189.7470  177.6680  138.3840 C   0  0  0  0  0  2  0  0  0  0  0  0
  187.4720  178.7800  138.2230 C   0  0  1  0  0  3  0  0  0  0  0  0
  183.4490  176.8170  136.8280 O   0  0  0  0  0  0  0  0  0  0  0  0
  183.2820  175.4350  136.9760 C   0  0  0  0  0  2  0  0  0  0  0  0
  186.2030  173.0630  135.4690 S   0  0  0  0  0  0  0  0  0  0  0  0
  184.5560  173.3640  137.5940 C   0  0  0  0  0  2  0  0  0  0  0  0
  184.6230  174.7150  136.9220 C   0  0  1  0  0  3  0  0  0  0  0  0
  185.8120  172.6270  137.1930 C   0  0  0  0  0  2  0  0  0  0  0  0
  185.0740  174.4900  135.4940 C   0  0  0  0  0  2  0  0  0  0  0  0
  1 26  1  6  0  0  0
  1 18  1  0  0  0  0
  2 27  1  0  0  0  0
  3  7  1  6  0  0  0
  4 23  1  6  0  0  0
  4 15  1  0  0  0  0
  5 11  1  6  0  0  0
  5 19  1  0  0  0  0
  8 12  1  1  0  0  0
  8 16  1  0  0  0  0
  9 13  1  0  0  0  0
 10 22  1  0  0  0  0
 13 24  1  0  0  0  0
 13 20  1  0  0  0  0
 14  2  1  0  0  0  0
 14 25  1  0  0  0  0
 15 12  1  0  0  0  0
 15  5  1  0  0  0  0
 15  8  1  0  0  0  0
 16  7  1  0  0  0  0
 16  3  1  0  0  0  0
 17 10  1  0  0  0  0
 18 20  1  0  0  0  0
 18  4  1  0  0  0  0
 19  6  1  0  0  0  0
 19  3  1  0  0  0  0
 20 11  1  0  0  0  0
 21 23  1  0  0  0  0
 22 24  1  0  0  0  0
 25 17  1  0  0  0  0
 25  9  1  0  0  0  0
 26 21  1  0  0  0  0
 27  9  1  0  0  0  0
 27  1  1  0  0  0  0
 28 29  1  0  0  0  0
 28 17  1  0  0  0  0
 30 34  1  0  0  0  0
 30 33  1  0  0  0  0
 32 29  1  0  0  0  0
 32 31  1  0  0  0  0
 33 31  1  0  0  0  0
 34 32  1  0  0  0  0
M  END
>  <MODEL>
9

>  <REMARK>
 VINA RESULT:      -7.4      1.820      3.027
  Name = 
  3 active torsions:
  status: ('A' for Active; 'I' for Inactive)
    1  A    between atoms: C_17  and  O_28
    2  A    between atoms: O_28  and  C_29
    3  A    between atoms: C_29  and  C_32
                            x       y       z     vdW  Elec       q    Type
                         _______ _______ _______ _____ _____    ______ ____

>  <TORSDO>
F 3

$$$$
