=
 OpenBabel11122410483D

 32 37  0  0  1  0  0  0  0  0999 V2000
  184.8580  178.5930  141.5010 C   0  0  0  0  0  0  0  0  0  0  0  0
  186.1690  178.2250  146.2920 C   0  0  0  0  0  3  0  0  0  0  0  0
  184.8840  178.3840  146.5990 C   0  0  0  0  0  3  0  0  0  0  0  0
  182.3640  178.8570  140.9690 C   0  0  0  0  0  0  0  0  0  0  0  0
  180.9830  179.1940  141.4620 C   0  0  1  0  0  3  0  0  0  0  0  0
  186.5560  178.4210  139.7700 N   0  0  0  0  0  0  0  0  0  0  0  0
  187.2850  178.2900  142.0450 C   0  0  0  0  0  3  0  0  0  0  0  0
  179.6420  178.9640  143.2180 N   0  0  0  0  0  0  0  0  0  0  0  0
  186.6530  178.2380  144.8690 C   0  0  0  0  0  3  0  0  0  0  0  0
  185.8750  178.4320  142.4740 C   0  0  0  0  0  0  0  0  0  0  0  0
  185.5510  178.4200  143.8420 C   0  0  0  0  0  0  0  0  0  0  0  0
  183.2040  178.7760  143.2760 C   0  0  0  0  0  0  0  0  0  0  0  0
  179.1950  178.0500  142.2690 N   0  0  0  0  0  2  0  0  0  0  0  0
  187.6030  178.2660  140.7490 C   0  0  0  0  0  0  0  0  0  0  0  0
  179.9690  178.1160  141.2450 C   0  0  0  0  0  2  0  0  0  0  0  0
  183.8800  178.5750  145.5440 C   0  0  0  0  0  3  0  0  0  0  0  0
  184.2060  178.5870  144.2430 C   0  0  2  0  0  3  0  0  0  0  0  0
  181.8390  178.9340  143.6770 N   0  0  0  0  0  2  0  0  0  0  0  0
  185.1960  178.6000  140.2010 C   0  0  0  0  0  3  0  0  0  0  0  0
  182.5190  178.6690  139.7320 O   0  0  0  0  0  0  0  0  0  0  0  0
  178.9680  179.1690  144.4890 C   0  0  0  0  0  1  0  0  0  0  0  0
  183.5100  178.7540  141.9110 C   0  0  0  0  0  0  0  0  0  0  0  0
  180.8610  179.5740  142.8870 N   0  0  1  0  0  0  0  0  0  0  0  0
  189.8520  177.4710  141.3110 C   0  0  0  0  0  2  0  0  0  0  0  0
  189.0480  178.2130  140.3390 C   0  0  1  0  0  3  0  0  0  0  0  0
  189.4400  176.8200  140.0620 N   0  0  0  0  0  0  0  0  0  0  0  0
  190.5830  176.8810  139.1680 C   0  0  0  0  0  2  0  0  0  0  0  0
  190.4460  175.8490  138.1050 C   0  0  0  0  0  0  0  0  0  0  0  0
  191.0860  174.7690  138.1900 O   0  0  0  0  0  1  0  0  0  0  0  0
  189.5820  176.0610  137.0400 O   0  0  0  0  0  0  0  0  0  0  0  0
  185.7970  177.8880  137.7780 C   0  0  0  0  0  1  0  0  0  0  0  0
  186.8490  178.5250  138.4480 O   0  0  0  0  0  0  0  0  0  0  0  0
  1 22  1  0  0  0  0
  1 10  1  0  0  0  0
  2  3  1  0  0  0  0
  4  5  1  0  0  0  0
  4 22  1  0  0  0  0
  5 15  1  1  0  0  0
  5 23  1  0  0  0  0
  6 19  1  0  0  0  0
  6 14  1  0  0  0  0
  7 10  1  0  0  0  0
  8 21  1  0  0  0  0
  9  2  2  0  0  0  0
 10 11  2  0  0  0  0
 11 17  1  0  0  0  0
 11  9  1  0  0  0  0
 12 18  1  0  0  0  0
 12 17  1  0  0  0  0
 13  8  1  0  0  0  0
 14  7  2  0  0  0  0
 15 13  1  0  0  0  0
 16  3  2  0  0  0  0
 17 16  1  1  0  0  0
 19  1  2  0  0  0  0
 20  4  2  0  0  0  0
 22 12  2  0  0  0  0
 23  8  1  0  0  0  0
 23 18  1  1  0  0  0
 25 14  1  1  0  0  0
 25 24  1  0  0  0  0
 26 25  1  0  0  0  0
 26 24  1  0  0  0  0
 27 26  1  0  0  0  0
 28 29  1  0  0  0  0
 28 27  1  0  0  0  0
 30 28  2  0  0  0  0
 31 32  1  0  0  0  0
 32  6  1  0  0  0  0
M  END
>  <MODEL>
1

>  <REMARK>
 VINA RESULT:      -9.8      0.000      0.000
  Name = 
  4 active torsions:
  status: ('A' for Active; 'I' for Inactive)
    1  A    between atoms: N_7  and  O_19
    2  A    between atoms: C_10  and  C_17
    3  A    between atoms: N_20  and  C_29
    4  A    between atoms: C_29  and  C_30
                            x       y       z     vdW  Elec       q    Type
                         _______ _______ _______ _____ _____    ______ ____

>  <TORSDO>
F 4

$$$$
=
 OpenBabel11122410483D

 32 37  0  0  1  0  0  0  0  0999 V2000
  187.0460  178.1970  142.0740 C   0  0  0  0  0  0  0  0  0  0  0  0
  183.9570  178.7270  145.9450 C   0  0  0  0  0  3  0  0  0  0  0  0
  184.9630  178.3500  146.7300 C   0  0  0  0  0  3  0  0  0  0  0  0
  189.4680  177.5220  142.5710 C   0  0  0  0  0  0  0  0  0  0  0  0
  190.4580  176.9510  143.5500 C   0  0  1  0  0  3  0  0  0  0  0  0
  186.2530  178.6710  139.8250 N   0  0  0  0  0  0  0  0  0  0  0  0
  184.6840  178.8980  141.6170 C   0  0  0  0  0  3  0  0  0  0  0  0
  190.9790  176.9310  145.7090 N   0  0  0  0  0  0  0  0  0  0  0  0
  184.1020  178.8110  144.4520 C   0  0  0  0  0  2  0  0  0  0  0  0
  185.7560  178.5160  142.5650 C   0  0  0  0  0  0  0  0  0  0  0  0
  185.4870  178.4580  143.9440 C   0  0  0  0  0  0  0  0  0  0  0  0
  187.7790  177.7180  144.3440 C   0  0  0  0  0  0  0  0  0  0  0  0
  191.9080  177.7680  145.0960 N   0  0  0  0  0  2  0  0  0  0  0  0
  184.9330  178.9900  140.3090 C   0  0  0  0  0  0  0  0  0  0  0  0
  191.6210  177.8450  143.8450 C   0  0  0  0  0  2  0  0  0  0  0  0
  186.2710  178.0050  146.1560 C   0  0  0  0  0  3  0  0  0  0  0  0
  186.5080  178.0620  144.8380 C   0  0  0  0  0  0  0  0  0  0  0  0
  188.8190  177.3270  145.2460 N   0  0  0  0  0  2  0  0  0  0  0  0
  187.2730  178.2610  140.7510 C   0  0  0  0  0  3  0  0  0  0  0  0
  189.8640  177.7470  141.3950 O   0  0  0  0  0  0  0  0  0  0  0  0
  191.0350  176.6020  147.1230 C   0  0  0  0  0  1  0  0  0  0  0  0
  188.0670  177.8060  142.9780 C   0  0  0  0  0  0  0  0  0  0  0  0
  189.9270  176.5400  144.8680 N   0  0  1  0  0  0  0  0  0  0  0  0
  183.0920  178.0720  138.9760 C   0  0  0  0  0  2  0  0  0  0  0  0
  183.8080  179.2900  139.3580 C   0  0  1  0  0  3  0  0  0  0  0  0
  182.5170  178.9660  139.9880 N   0  0  0  0  0  0  0  0  0  0  0  0
  181.5130  179.7660  139.3110 C   0  0  0  0  0  2  0  0  0  0  0  0
  180.2810  179.8380  140.1430 C   0  0  0  0  0  0  0  0  0  0  0  0
  179.4780  178.8690  140.1640 O   0  0  0  0  0  0  0  0  0  0  0  0
  180.0380  180.9570  140.9270 O   0  0  0  0  0  1  0  0  0  0  0  0
  187.6830  177.8710  138.3620 C   0  0  0  0  0  1  0  0  0  0  0  0
  186.5160  178.6330  138.4930 O   0  0  0  0  0  0  0  0  0  0  0  0
  1 10  1  0  0  0  0
  1 22  1  0  0  0  0
  2  3  2  0  0  0  0
  4 22  1  0  0  0  0
  4  5  1  0  0  0  0
  5 15  1  1  0  0  0
  5 23  1  0  0  0  0
  6 14  1  0  0  0  0
  6 19  1  0  0  0  0
  7 10  1  0  0  0  0
  8 21  1  0  0  0  0
  9  2  1  0  0  0  0
 10 11  2  0  0  0  0
 11  9  1  0  0  0  0
 11 17  1  0  0  0  0
 12 17  1  0  0  0  0
 12 18  1  0  0  0  0
 13  8  1  0  0  0  0
 14  7  2  0  0  0  0
 15 13  1  0  0  0  0
 16  3  1  0  0  0  0
 17 16  2  0  0  0  0
 19  1  2  0  0  0  0
 20  4  2  0  0  0  0
 22 12  2  0  0  0  0
 23 18  1  1  0  0  0
 23  8  1  0  0  0  0
 24 25  1  0  0  0  0
 24 26  1  0  0  0  0
 25 26  1  0  0  0  0
 25 14  1  1  0  0  0
 27 26  1  0  0  0  0
 27 28  1  0  0  0  0
 28 29  2  0  0  0  0
 28 30  1  0  0  0  0
 31 32  1  0  0  0  0
 32  6  1  0  0  0  0
M  END
>  <MODEL>
2

>  <REMARK>
 VINA RESULT:      -9.7      2.725      7.298
  Name = 
  4 active torsions:
  status: ('A' for Active; 'I' for Inactive)
    1  A    between atoms: N_7  and  O_19
    2  A    between atoms: C_10  and  C_17
    3  A    between atoms: N_20  and  C_29
    4  A    between atoms: C_29  and  C_30
                            x       y       z     vdW  Elec       q    Type
                         _______ _______ _______ _____ _____    ______ ____

>  <TORSDO>
F 4

$$$$
=
 OpenBabel11122410483D

 32 37  0  0  1  0  0  0  0  0999 V2000
  187.1690  178.1460  141.5930 C   0  0  0  0  0  0  0  0  0  0  0  0
  184.8000  178.4230  145.9660 C   0  0  0  0  0  3  0  0  0  0  0  0
  183.7100  178.7760  145.2910 C   0  0  0  0  0  3  0  0  0  0  0  0
  185.8030  178.6020  139.4720 C   0  0  0  0  0  0  0  0  0  0  0  0
  184.5540  179.1710  138.8570 C   0  0  1  0  0  3  0  0  0  0  0  0
  189.5120  177.5000  141.5300 N   0  0  0  0  0  0  0  0  0  0  0  0
  188.4710  177.6620  143.6780 C   0  0  0  0  0  3  0  0  0  0  0  0
  182.3700  179.3880  139.2010 N   0  0  0  0  0  0  0  0  0  0  0  0
  186.1070  178.1470  145.2760 C   0  0  0  0  0  3  0  0  0  0  0  0
  187.2050  178.0320  143.0040 C   0  0  0  0  0  0  0  0  0  0  0  0
  186.0500  178.2820  143.7660 C   0  0  0  0  0  0  0  0  0  0  0  0
  184.8300  178.8060  141.7180 C   0  0  0  0  0  0  0  0  0  0  0  0
  182.5120  178.3870  138.2440 N   0  0  0  0  0  2  0  0  0  0  0  0
  189.5660  177.3890  142.9660 C   0  0  0  0  0  0  0  0  0  0  0  0
  183.7670  178.1960  138.0410 C   0  0  0  0  0  2  0  0  0  0  0  0
  183.7430  178.9040  143.8280 C   0  0  0  0  0  3  0  0  0  0  0  0
  184.8550  178.6650  143.1170 C   0  0  2  0  0  3  0  0  0  0  0  0
  183.6190  179.1830  141.0550 N   0  0  0  0  0  2  0  0  0  0  0  0
  188.2880  177.9010  140.8910 C   0  0  0  0  0  3  0  0  0  0  0  0
  186.7110  178.1970  138.6960 O   0  0  0  0  0  0  0  0  0  0  0  0
  181.0730  179.8740  139.6410 C   0  0  0  0  0  1  0  0  0  0  0  0
  185.9640  178.5250  140.9480 C   0  0  0  0  0  0  0  0  0  0  0  0
  183.5810  179.7920  139.7830 N   0  0  1  0  0  0  0  0  0  0  0  0
  191.4620  178.3310  144.2030 C   0  0  0  0  0  2  0  0  0  0  0  0
  190.8620  177.1050  143.6740 C   0  0  1  0  0  3  0  0  0  0  0  0
  190.7340  177.4310  145.1050 N   0  0  0  0  0  0  0  0  0  0  0  0
  191.7360  176.6440  145.8000 C   0  0  0  0  0  2  0  0  0  0  0  0
  191.4660  176.6630  147.2630 C   0  0  0  0  0  0  0  0  0  0  0  0
  192.3870  176.3970  148.0780 O   0  0  0  0  0  1  0  0  0  0  0  0
  190.2080  177.0150  147.7320 O   0  0  0  0  0  0  0  0  0  0  0  0
  190.2120  177.4830  139.4470 C   0  0  0  0  0  1  0  0  0  0  0  0
  190.6320  177.3510  140.7760 O   0  0  0  0  0  0  0  0  0  0  0  0
  1 10  1  0  0  0  0
  3  2  1  0  0  0  0
  4 22  1  0  0  0  0
  5 15  1  1  0  0  0
  5  4  1  0  0  0  0
  5 23  1  0  0  0  0
  6 14  1  0  0  0  0
  8 21  1  0  0  0  0
  8 23  1  0  0  0  0
  9  2  2  0  0  0  0
 10  7  1  0  0  0  0
 10 11  2  0  0  0  0
 11  9  1  0  0  0  0
 12 17  1  0  0  0  0
 13  8  1  0  0  0  0
 14  7  2  0  0  0  0
 15 13  1  0  0  0  0
 16  3  2  0  0  0  0
 17 11  1  0  0  0  0
 17 16  1  1  0  0  0
 18 12  1  0  0  0  0
 19  6  1  0  0  0  0
 19  1  2  0  0  0  0
 20  4  2  0  0  0  0
 22  1  1  0  0  0  0
 22 12  2  0  0  0  0
 23 18  1  1  0  0  0
 24 26  1  0  0  0  0
 25 14  1  6  0  0  0
 25 24  1  0  0  0  0
 25 26  1  0  0  0  0
 26 27  1  0  0  0  0
 27 28  1  0  0  0  0
 28 30  2  0  0  0  0
 28 29  1  0  0  0  0
 31 32  1  0  0  0  0
 32  6  1  0  0  0  0
M  END
>  <MODEL>
3

>  <REMARK>
 VINA RESULT:      -9.7      3.526      4.673
  Name = 
  4 active torsions:
  status: ('A' for Active; 'I' for Inactive)
    1  A    between atoms: N_7  and  O_19
    2  A    between atoms: C_10  and  C_17
    3  A    between atoms: N_20  and  C_29
    4  A    between atoms: C_29  and  C_30
                            x       y       z     vdW  Elec       q    Type
                         _______ _______ _______ _____ _____    ______ ____

>  <TORSDO>
F 4

$$$$
=
 OpenBabel11122410483D

 32 37  0  0  1  0  0  0  0  0999 V2000
  187.5430  178.1460  142.6310 C   0  0  0  0  0  0  0  0  0  0  0  0
  183.2930  178.7840  145.1500 C   0  0  0  0  0  3  0  0  0  0  0  0
  182.6750  178.8790  143.9760 C   0  0  0  0  0  3  0  0  0  0  0  0
  187.4070  178.0800  140.0710 C   0  0  0  0  0  0  0  0  0  0  0  0
  186.6140  178.3750  138.8280 C   0  0  1  0  0  3  0  0  0  0  0  0
  189.6240  177.8150  143.8420 N   0  0  0  0  0  0  0  0  0  0  0  0
  187.6420  178.1710  145.1340 C   0  0  0  0  0  3  0  0  0  0  0  0
  184.5450  178.3500  138.0190 N   0  0  0  0  0  0  0  0  0  0  0  0
  184.7790  178.5800  145.2510 C   0  0  0  0  0  3  0  0  0  0  0  0
  186.8710  178.2600  143.8730 C   0  0  0  0  0  0  0  0  0  0  0  0
  185.4810  178.4690  143.9110 C   0  0  0  0  0  0  0  0  0  0  0  0
  185.4330  178.5000  141.4710 C   0  0  0  0  0  0  0  0  0  0  0  0
  185.1850  177.2400  137.4750 N   0  0  0  0  0  2  0  0  0  0  0  0
  188.9560  177.9380  145.1130 C   0  0  0  0  0  0  0  0  0  0  0  0
  186.3790  177.1880  137.9490 C   0  0  0  0  0  2  0  0  0  0  0  0
  183.4320  178.7800  142.7200 C   0  0  0  0  0  3  0  0  0  0  0  0
  184.7590  178.5840  142.7020 C   0  0  2  0  0  3  0  0  0  0  0  0
  184.7040  178.6050  140.2440 N   0  0  0  0  0  2  0  0  0  0  0  0
  188.8710  177.9460  142.6240 C   0  0  0  0  0  3  0  0  0  0  0  0
  188.5960  177.6840  139.9320 O   0  0  0  0  0  0  0  0  0  0  0  0
  183.1850  178.7220  137.6670 C   0  0  0  0  0  1  0  0  0  0  0  0
  186.8100  178.2560  141.4210 C   0  0  0  0  0  0  0  0  0  0  0  0
  185.2850  178.9970  139.0200 N   0  0  1  0  0  0  0  0  0  0  0  0
  188.9780  177.3040  147.4810 C   0  0  0  0  0  2  0  0  0  0  0  0
  189.7320  177.9420  146.4010 C   0  0  1  0  0  3  0  0  0  0  0  0
  190.0460  176.5600  146.8030 N   0  0  0  0  0  0  0  0  0  0  0  0
  191.2120  176.6340  147.6640 C   0  0  0  0  0  2  0  0  0  0  0  0
  192.3040  175.7900  147.1070 C   0  0  0  0  0  0  0  0  0  0  0  0
  193.3360  175.5650  147.7890 O   0  0  0  0  0  1  0  0  0  0  0  0
  192.1660  175.2190  145.8500 O   0  0  0  0  0  0  0  0  0  0  0  0
  191.2380  177.0520  142.5610 C   0  0  0  0  0  1  0  0  0  0  0  0
  190.9760  177.7020  143.7730 O   0  0  0  0  0  0  0  0  0  0  0  0
  1 10  1  0  0  0  0
  2  9  2  0  0  0  0
  3  2  1  0  0  0  0
  4 22  1  0  0  0  0
  5 15  1  1  0  0  0
  5 23  1  0  0  0  0
  5  4  1  0  0  0  0
  6 14  1  0  0  0  0
  8 23  1  0  0  0  0
 10 11  2  0  0  0  0
 10  7  1  0  0  0  0
 11  9  1  0  0  0  0
 12 17  1  0  0  0  0
 13 15  1  0  0  0  0
 13  8  1  0  0  0  0
 14  7  2  0  0  0  0
 16  3  2  0  0  0  0
 17 16  1  1  0  0  0
 17 11  1  0  0  0  0
 18 12  1  0  0  0  0
 19  1  2  0  0  0  0
 19  6  1  0  0  0  0
 20  4  2  0  0  0  0
 21  8  1  0  0  0  0
 22 12  2  0  0  0  0
 22  1  1  0  0  0  0
 23 18  1  1  0  0  0
 25 14  1  6  0  0  0
 25 26  1  0  0  0  0
 25 24  1  0  0  0  0
 26 24  1  0  0  0  0
 26 27  1  0  0  0  0
 28 27  1  0  0  0  0
 28 29  1  0  0  0  0
 30 28  2  0  0  0  0
 31 32  1  0  0  0  0
 32  6  1  0  0  0  0
M  END
>  <MODEL>
4

>  <REMARK>
 VINA RESULT:      -9.3      3.585      5.845
  Name = 
  4 active torsions:
  status: ('A' for Active; 'I' for Inactive)
    1  A    between atoms: N_7  and  O_19
    2  A    between atoms: C_10  and  C_17
    3  A    between atoms: N_20  and  C_29
    4  A    between atoms: C_29  and  C_30
                            x       y       z     vdW  Elec       q    Type
                         _______ _______ _______ _____ _____    ______ ____

>  <TORSDO>
F 4

$$$$
=
 OpenBabel11122410483D

 32 37  0  0  1  0  0  0  0  0999 V2000
  188.5020  178.0910  141.3310 C   0  0  0  0  0  0  0  0  0  0  0  0
  183.5810  178.6660  141.8440 C   0  0  0  0  0  3  0  0  0  0  0  0
  183.5030  178.7110  140.5170 C   0  0  0  0  0  3  0  0  0  0  0  0
  189.4390  177.9540  138.9490 C   0  0  0  0  0  0  0  0  0  0  0  0
  189.2270  178.1920  137.4790 C   0  0  1  0  0  3  0  0  0  0  0  0
  189.9000  177.8550  143.3060 N   0  0  0  0  0  0  0  0  0  0  0  0
  187.5550  178.1840  143.6500 C   0  0  0  0  0  3  0  0  0  0  0  0
  187.6790  178.0830  135.8890 N   0  0  0  0  0  0  0  0  0  0  0  0
  184.8940  178.5090  142.5580 C   0  0  0  0  0  3  0  0  0  0  0  0
  187.3750  178.2170  142.1800 C   0  0  0  0  0  0  0  0  0  0  0  0
  186.0900  178.3850  141.6330 C   0  0  0  0  0  0  0  0  0  0  0  0
  187.0560  178.3500  139.3920 C   0  0  0  0  0  0  0  0  0  0  0  0
  188.5050  176.9800  135.6990 N   0  0  0  0  0  2  0  0  0  0  0  0
  188.7640  177.9910  144.1820 C   0  0  0  0  0  0  0  0  0  0  0  0
  189.3970  176.9760  136.6250 C   0  0  0  0  0  2  0  0  0  0  0  0
  184.7130  178.6030  139.6910 C   0  0  0  0  0  3  0  0  0  0  0  0
  185.9310  178.4460  140.2300 C   0  0  2  0  0  3  0  0  0  0  0  0
  186.8990  178.4010  137.9700 N   0  0  0  0  0  2  0  0  0  0  0  0
  189.7170  177.9310  141.8810 C   0  0  0  0  0  3  0  0  0  0  0  0
  190.5850  177.5900  139.3280 O   0  0  0  0  0  0  0  0  0  0  0  0
  186.5810  178.4040  134.9940 C   0  0  0  0  0  1  0  0  0  0  0  0
  188.3330  178.1470  139.9240 C   0  0  0  0  0  0  0  0  0  0  0  0
  187.9280  178.7780  137.0820 N   0  0  1  0  0  0  0  0  0  0  0  0
  187.8490  177.3590  146.3670 C   0  0  0  0  0  2  0  0  0  0  0  0
  188.9370  178.0520  145.6740 C   0  0  1  0  0  3  0  0  0  0  0  0
  189.1500  176.6970  146.2110 N   0  0  0  0  0  0  0  0  0  0  0  0
  189.8480  176.8570  147.4740 C   0  0  0  0  0  2  0  0  0  0  0  0
  191.2450  176.3600  147.3420 C   0  0  0  0  0  0  0  0  0  0  0  0
  192.1250  177.0870  146.8130 O   0  0  0  0  0  0  0  0  0  0  0  0
  191.5860  175.1100  147.8400 O   0  0  0  0  0  1  0  0  0  0  0  0
  191.6210  176.5000  143.4770 C   0  0  0  0  0  1  0  0  0  0  0  0
  191.1610  177.7800  143.8060 O   0  0  0  0  0  0  0  0  0  0  0  0
  1 19  2  0  0  0  0
  1 10  1  0  0  0  0
  2  9  2  0  0  0  0
  3  2  1  0  0  0  0
  4 20  2  0  0  0  0
  4 22  1  0  0  0  0
  5 15  1  6  0  0  0
  5  4  1  0  0  0  0
  6 32  1  0  0  0  0
  6 14  1  0  0  0  0
  7 14  2  0  0  0  0
  8 23  1  0  0  0  0
 10  7  1  0  0  0  0
 11 10  2  0  0  0  0
 11  9  1  0  0  0  0
 12 22  2  0  0  0  0
 12 17  1  0  0  0  0
 13  8  1  0  0  0  0
 13 15  1  0  0  0  0
 16  3  2  0  0  0  0
 17 16  1  1  0  0  0
 17 11  1  0  0  0  0
 18 12  1  0  0  0  0
 19  6  1  0  0  0  0
 21  8  1  0  0  0  0
 22  1  1  0  0  0  0
 23  5  1  0  0  0  0
 23 18  1  1  0  0  0
 25 14  1  6  0  0  0
 25 26  1  0  0  0  0
 25 24  1  0  0  0  0
 26 24  1  0  0  0  0
 26 27  1  0  0  0  0
 28 27  1  0  0  0  0
 28 30  1  0  0  0  0
 29 28  2  0  0  0  0
 31 32  1  0  0  0  0
M  END
>  <MODEL>
5

>  <REMARK>
 VINA RESULT:      -8.6      3.931      7.289
  Name = 
  4 active torsions:
  status: ('A' for Active; 'I' for Inactive)
    1  A    between atoms: N_7  and  O_19
    2  A    between atoms: C_10  and  C_17
    3  A    between atoms: N_20  and  C_29
    4  A    between atoms: C_29  and  C_30
                            x       y       z     vdW  Elec       q    Type
                         _______ _______ _______ _____ _____    ______ ____

>  <TORSDO>
F 4

$$$$
=
 OpenBabel11122410483D

 32 37  0  0  1  0  0  0  0  0999 V2000
  188.5320  177.9630  140.5830 C   0  0  0  0  0  0  0  0  0  0  0  0
  190.8100  176.6870  144.8260 C   0  0  0  0  0  3  0  0  0  0  0  0
  189.6830  176.9990  145.4600 C   0  0  0  0  0  3  0  0  0  0  0  0
  186.0780  178.6930  140.7260 C   0  0  0  0  0  0  0  0  0  0  0  0
  184.9360  179.1660  141.5820 C   0  0  1  0  0  3  0  0  0  0  0  0
  189.7260  177.7860  138.4730 N   0  0  0  0  0  0  0  0  0  0  0  0
  190.9180  177.2060  140.4660 C   0  0  0  0  0  3  0  0  0  0  0  0
  184.0130  178.8920  143.5850 N   0  0  0  0  0  0  0  0  0  0  0  0
  190.9500  176.8350  143.3360 C   0  0  0  0  0  2  0  0  0  0  0  0
  189.6950  177.5020  141.2480 C   0  0  0  0  0  0  0  0  0  0  0  0
  189.6970  177.3380  142.6440 C   0  0  0  0  0  0  0  0  0  0  0  0
  187.3920  178.1390  142.7260 C   0  0  0  0  0  0  0  0  0  0  0  0
  183.1960  178.2110  142.6870 N   0  0  0  0  0  2  0  0  0  0  0  0
  190.9210  177.3240  139.1360 C   0  0  0  0  0  0  0  0  0  0  0  0
  183.7150  178.3050  141.5140 C   0  0  0  0  0  2  0  0  0  0  0  0
  188.5180  177.4990  144.7170 C   0  0  0  0  0  3  0  0  0  0  0  0
  188.5350  177.6530  143.3850 C   0  0  0  0  0  0  0  0  0  0  0  0
  186.2110  178.4490  143.4710 N   0  0  0  0  0  2  0  0  0  0  0  0
  188.5590  178.1110  139.2490 C   0  0  0  0  0  3  0  0  0  0  0  0
  185.9090  178.6680  139.4770 O   0  0  0  0  0  0  0  0  0  0  0  0
  183.6980  179.0090  144.9980 C   0  0  0  0  0  1  0  0  0  0  0  0
  187.3690  178.2720  141.3340 C   0  0  0  0  0  0  0  0  0  0  0  0
  185.2170  179.3450  143.0240 N   0  0  1  0  0  0  0  0  0  0  0  0
  193.2170  176.4700  139.2090 C   0  0  0  0  0  2  0  0  0  0  0  0
  192.1970  177.1060  138.3730 C   0  0  1  0  0  3  0  0  0  0  0  0
  192.4630  175.6630  138.2420 N   0  0  0  0  0  0  0  0  0  0  0  0
  193.3200  175.5030  137.0810 C   0  0  0  0  0  2  0  0  0  0  0  0
  194.5010  174.6720  137.4380 C   0  0  0  0  0  0  0  0  0  0  0  0
  195.6630  175.1230  137.2670 O   0  0  0  0  0  0  0  0  0  0  0  0
  194.3210  173.4140  137.9970 O   0  0  0  0  0  1  0  0  0  0  0  0
  188.7560  179.0310  136.9450 C   0  0  0  0  0  1  0  0  0  0  0  0
  189.7240  178.0380  137.1390 O   0  0  0  0  0  0  0  0  0  0  0  0
  1 10  1  0  0  0  0
  1 22  1  0  0  0  0
  2  3  2  0  0  0  0
  4 22  1  0  0  0  0
  4  5  1  0  0  0  0
  5 15  1  1  0  0  0
  5 23  1  0  0  0  0
  6 14  1  0  0  0  0
  6 19  1  0  0  0  0
  7 10  1  0  0  0  0
  8 21  1  0  0  0  0
  9  2  1  0  0  0  0
 10 11  2  0  0  0  0
 11  9  1  0  0  0  0
 11 17  1  0  0  0  0
 12 17  1  0  0  0  0
 12 18  1  0  0  0  0
 13  8  1  0  0  0  0
 14  7  2  0  0  0  0
 15 13  1  0  0  0  0
 16  3  1  0  0  0  0
 17 16  2  0  0  0  0
 19  1  2  0  0  0  0
 20  4  2  0  0  0  0
 22 12  2  0  0  0  0
 23 18  1  1  0  0  0
 23  8  1  0  0  0  0
 25 14  1  1  0  0  0
 25 24  1  0  0  0  0
 26 25  1  0  0  0  0
 26 24  1  0  0  0  0
 27 28  1  0  0  0  0
 27 26  1  0  0  0  0
 28 30  1  0  0  0  0
 29 28  2  0  0  0  0
 31 32  1  0  0  0  0
 32  6  1  0  0  0  0
M  END
>  <MODEL>
6

>  <REMARK>
 VINA RESULT:      -8.5      2.423      4.193
  Name = 
  4 active torsions:
  status: ('A' for Active; 'I' for Inactive)
    1  A    between atoms: N_7  and  O_19
    2  A    between atoms: C_10  and  C_17
    3  A    between atoms: N_20  and  C_29
    4  A    between atoms: C_29  and  C_30
                            x       y       z     vdW  Elec       q    Type
                         _______ _______ _______ _____ _____    ______ ____

>  <TORSDO>
F 4

$$$$
=
 OpenBabel11122410483D

 32 37  0  0  1  0  0  0  0  0999 V2000
  186.5660  178.2240  143.2810 C   0  0  0  0  0  0  0  0  0  0  0  0
  190.1250  177.4980  139.8720 C   0  0  0  0  0  3  0  0  0  0  0  0
  190.9620  177.2550  140.8770 C   0  0  0  0  0  3  0  0  0  0  0  0
  187.1930  177.8810  145.7430 C   0  0  0  0  0  0  0  0  0  0  0  0
  188.2770  177.7530  146.7780 C   0  0  1  0  0  3  0  0  0  0  0  0
  184.3100  178.7850  142.5680 N   0  0  0  0  0  0  0  0  0  0  0  0
  185.9680  178.5100  140.8640 C   0  0  0  0  0  3  0  0  0  0  0  0
  190.3050  176.9040  147.0980 N   0  0  0  0  0  0  0  0  0  0  0  0
  188.6840  177.8590  140.1070 C   0  0  0  0  0  2  0  0  0  0  0  0
  186.9590  178.1980  141.9200 C   0  0  0  0  0  0  0  0  0  0  0  0
  188.2850  177.8900  141.5700 C   0  0  0  0  0  0  0  0  0  0  0  0
  188.8450  177.6790  143.9370 C   0  0  0  0  0  0  0  0  0  0  0  0
  189.4230  176.0590  147.7650 N   0  0  0  0  0  2  0  0  0  0  0  0
  184.6970  178.7710  141.1800 C   0  0  0  0  0  0  0  0  0  0  0  0
  188.2270  176.4870  147.5730 C   0  0  0  0  0  2  0  0  0  0  0  0
  190.5000  177.3250  142.2700 C   0  0  0  0  0  3  0  0  0  0  0  0
  189.2310  177.6230  142.5860 C   0  0  0  0  0  0  0  0  0  0  0  0
  189.7970  177.4000  144.9680 N   0  0  0  0  0  2  0  0  0  0  0  0
  185.2920  178.5210  143.5860 C   0  0  0  0  0  3  0  0  0  0  0  0
  185.9980  177.9330  146.1440 O   0  0  0  0  0  0  0  0  0  0  0  0
  191.7460  176.7220  147.1360 C   0  0  0  0  0  1  0  0  0  0  0  0
  187.5200  177.9490  144.2940 C   0  0  0  0  0  0  0  0  0  0  0  0
  189.6720  177.8640  146.2950 N   0  0  1  0  0  0  0  0  0  0  0  0
  183.9830  178.4420  138.8580 C   0  0  0  0  0  2  0  0  0  0  0  0
  183.7320  179.1740  140.1010 C   0  0  1  0  0  3  0  0  0  0  0  0
  182.8810  178.0280  139.7340 N   0  0  0  0  0  0  0  0  0  0  0  0
  181.6680  178.5800  139.1600 C   0  0  0  0  0  2  0  0  0  0  0  0
  180.4800  178.0310  139.8700 C   0  0  0  0  0  0  0  0  0  0  0  0
  179.4160  177.8070  139.2370 O   0  0  0  0  0  0  0  0  0  0  0  0
  180.5590  177.7290  141.2220 O   0  0  0  0  0  1  0  0  0  0  0  0
  182.9800  178.9060  144.3130 C   0  0  0  0  0  1  0  0  0  0  0  0
  183.0610  179.1640  142.9390 O   0  0  0  0  0  0  0  0  0  0  0  0
  1 19  2  0  0  0  0
  1 22  1  0  0  0  0
  2  9  1  0  0  0  0
  2  3  2  0  0  0  0
  3 16  1  0  0  0  0
  4 20  2  0  0  0  0
  4  5  1  0  0  0  0
  5 15  1  6  0  0  0
  6 32  1  0  0  0  0
  6 19  1  0  0  0  0
  7 14  2  0  0  0  0
  7 10  1  0  0  0  0
  8 21  1  0  0  0  0
  8 13  1  0  0  0  0
  9 11  1  0  0  0  0
 10  1  1  0  0  0  0
 11 10  2  0  0  0  0
 11 17  1  0  0  0  0
 12 22  2  0  0  0  0
 12 18  1  0  0  0  0
 14  6  1  0  0  0  0
 15 13  1  0  0  0  0
 16 17  2  0  0  0  0
 17 12  1  0  0  0  0
 22  4  1  0  0  0  0
 23 18  1  6  0  0  0
 23  5  1  0  0  0  0
 23  8  1  0  0  0  0
 24 26  1  0  0  0  0
 24 25  1  0  0  0  0
 25 14  1  1  0  0  0
 26 25  1  0  0  0  0
 27 26  1  0  0  0  0
 27 28  1  0  0  0  0
 28 30  1  0  0  0  0
 29 28  2  0  0  0  0
 32 31  1  0  0  0  0
M  END
>  <MODEL>
7

>  <REMARK>
 VINA RESULT:      -8.3      3.475      7.697
  Name = 
  4 active torsions:
  status: ('A' for Active; 'I' for Inactive)
    1  A    between atoms: N_7  and  O_19
    2  A    between atoms: C_10  and  C_17
    3  A    between atoms: N_20  and  C_29
    4  A    between atoms: C_29  and  C_30
                            x       y       z     vdW  Elec       q    Type
                         _______ _______ _______ _____ _____    ______ ____

>  <TORSDO>
F 4

$$$$
=
 OpenBabel11122410483D

 32 37  0  0  1  0  0  0  0  0999 V2000
  188.7250  177.6280  142.8310 C   0  0  0  0  0  0  0  0  0  0  0  0
  183.9400  179.0030  142.9840 C   0  0  0  0  0  3  0  0  0  0  0  0
  184.0000  178.8670  144.3060 C   0  0  0  0  0  3  0  0  0  0  0  0
  189.9030  177.1790  145.0640 C   0  0  0  0  0  0  0  0  0  0  0  0
  189.7820  176.9030  146.5380 C   0  0  1  0  0  3  0  0  0  0  0  0
  189.8760  177.5020  140.6940 N   0  0  0  0  0  0  0  0  0  0  0  0
  187.5630  178.1160  140.6660 C   0  0  0  0  0  3  0  0  0  0  0  0
  188.5840  177.4380  148.3300 N   0  0  0  0  0  0  0  0  0  0  0  0
  185.1230  178.7180  142.1020 C   0  0  0  0  0  2  0  0  0  0  0  0
  187.5500  178.0170  142.1430 C   0  0  0  0  0  0  0  0  0  0  0  0
  186.3700  178.2950  142.8560 C   0  0  0  0  0  0  0  0  0  0  0  0
  187.5190  177.7540  144.9410 C   0  0  0  0  0  0  0  0  0  0  0  0
  189.7880  178.1250  148.4510 N   0  0  0  0  0  2  0  0  0  0  0  0
  188.6850  177.8870  139.9790 C   0  0  0  0  0  0  0  0  0  0  0  0
  190.5020  177.8790  147.4110 C   0  0  0  0  0  2  0  0  0  0  0  0
  185.2420  178.4330  144.9590 C   0  0  0  0  0  3  0  0  0  0  0  0
  186.3580  178.1680  144.2630 C   0  0  0  0  0  0  0  0  0  0  0  0
  187.5140  177.6340  146.3660 N   0  0  0  0  0  2  0  0  0  0  0  0
  189.8380  177.3690  142.1250 C   0  0  0  0  0  3  0  0  0  0  0  0
  191.0510  177.1170  144.5450 O   0  0  0  0  0  0  0  0  0  0  0  0
  187.5550  177.4730  149.3550 C   0  0  0  0  0  1  0  0  0  0  0  0
  188.7070  177.5090  144.2450 C   0  0  0  0  0  0  0  0  0  0  0  0
  188.4100  176.8150  147.0860 N   0  0  1  0  0  0  0  0  0  0  0  0
  188.3690  176.5750  137.9330 C   0  0  0  0  0  2  0  0  0  0  0  0
  188.6520  177.9050  138.4760 C   0  0  1  0  0  3  0  0  0  0  0  0
  187.2980  177.5770  137.9990 N   0  0  0  0  0  0  0  0  0  0  0  0
  187.1790  178.1430  136.6680 C   0  0  0  0  0  2  0  0  0  0  0  0
  186.0440  177.5030  135.9480 C   0  0  0  0  0  0  0  0  0  0  0  0
  186.0540  177.4340  134.6920 O   0  0  0  0  0  0  0  0  0  0  0  0
  184.9940  176.9450  136.6640 O   0  0  0  0  0  1  0  0  0  0  0  0
  192.0670  177.5030  140.8620 C   0  0  0  0  0  1  0  0  0  0  0  0
  191.0030  177.1420  140.0270 O   0  0  0  0  0  0  0  0  0  0  0  0
  1 22  1  0  0  0  0
  2  3  2  0  0  0  0
  3 16  1  0  0  0  0
  4  5  1  0  0  0  0
  5 23  1  0  0  0  0
  5 15  1  1  0  0  0
  6 19  1  0  0  0  0
  7 10  1  0  0  0  0
  8 13  1  0  0  0  0
  8 21  1  0  0  0  0
  9 11  1  0  0  0  0
  9  2  1  0  0  0  0
 10  1  1  0  0  0  0
 10 11  2  0  0  0  0
 11 17  1  0  0  0  0
 12 18  1  0  0  0  0
 14  7  2  0  0  0  0
 14  6  1  0  0  0  0
 15 13  1  0  0  0  0
 17 12  1  0  0  0  0
 17 16  2  0  0  0  0
 19  1  2  0  0  0  0
 20  4  2  0  0  0  0
 22 12  2  0  0  0  0
 22  4  1  0  0  0  0
 23 18  1  6  0  0  0
 23  8  1  0  0  0  0
 24 26  1  0  0  0  0
 24 25  1  0  0  0  0
 25 14  1  1  0  0  0
 26 25  1  0  0  0  0
 27 26  1  0  0  0  0
 28 30  1  0  0  0  0
 28 27  1  0  0  0  0
 29 28  2  0  0  0  0
 32  6  1  0  0  0  0
 32 31  1  0  0  0  0
M  END
>  <MODEL>
8

>  <REMARK>
 VINA RESULT:      -8.3      3.584      6.344
  Name = 
  4 active torsions:
  status: ('A' for Active; 'I' for Inactive)
    1  A    between atoms: N_7  and  O_19
    2  A    between atoms: C_10  and  C_17
    3  A    between atoms: N_20  and  C_29
    4  A    between atoms: C_29  and  C_30
                            x       y       z     vdW  Elec       q    Type
                         _______ _______ _______ _____ _____    ______ ____

>  <TORSDO>
F 4

$$$$
=
 OpenBabel11122410483D

 32 37  0  0  1  0  0  0  0  0999 V2000
  187.3940  178.0490  141.7590 C   0  0  0  0  0  0  0  0  0  0  0  0
  183.6540  178.9240  144.9310 C   0  0  0  0  0  3  0  0  0  0  0  0
  184.5070  178.6760  145.9200 C   0  0  0  0  0  3  0  0  0  0  0  0
  189.6960  177.5200  142.7550 C   0  0  0  0  0  0  0  0  0  0  0  0
  190.5020  177.1020  143.9550 C   0  0  1  0  0  3  0  0  0  0  0  0
  187.0120  178.2300  139.3650 N   0  0  0  0  0  0  0  0  0  0  0  0
  185.1440  178.6120  140.8110 C   0  0  0  0  0  3  0  0  0  0  0  0
  190.6270  177.3530  146.1590 N   0  0  0  0  0  0  0  0  0  0  0  0
  184.0640  178.8380  143.4870 C   0  0  0  0  0  2  0  0  0  0  0  0
  186.0330  178.3800  141.9720 C   0  0  0  0  0  0  0  0  0  0  0  0
  185.5220  178.4750  143.2790 C   0  0  0  0  0  0  0  0  0  0  0  0
  187.7140  177.8650  144.1640 C   0  0  0  0  0  0  0  0  0  0  0  0
  191.6400  178.1430  145.6220 N   0  0  0  0  0  2  0  0  0  0  0  0
  185.6230  178.5590  139.5660 C   0  0  0  0  0  0  0  0  0  0  0  0
  191.5810  178.0630  144.3410 C   0  0  0  0  0  2  0  0  0  0  0  0
  185.9020  178.3110  145.6330 C   0  0  0  0  0  3  0  0  0  0  0  0
  186.3710  178.2210  144.3800 C   0  0  0  0  0  0  0  0  0  0  0  0
  188.5800  177.6180  145.2760 N   0  0  0  0  0  2  0  0  0  0  0  0
  187.8550  177.9660  140.5000 C   0  0  0  0  0  3  0  0  0  0  0  0
  190.2940  177.6190  141.6490 O   0  0  0  0  0  0  0  0  0  0  0  0
  190.4320  177.1940  147.5900 C   0  0  0  0  0  1  0  0  0  0  0  0
  188.2410  177.8020  142.8700 C   0  0  0  0  0  0  0  0  0  0  0  0
  189.7480  176.8300  145.1990 N   0  0  1  0  0  0  0  0  0  0  0  0
  184.9250  177.6810  137.3860 C   0  0  0  0  0  2  0  0  0  0  0  0
  184.6840  178.7070  138.4020 C   0  0  1  0  0  3  0  0  0  0  0  0
  183.8000  177.5320  138.3160 N   0  0  0  0  0  0  0  0  0  0  0  0
  182.6120  177.9580  137.5980 C   0  0  0  0  0  2  0  0  0  0  0  0
  181.7350  176.7850  137.3350 C   0  0  0  0  0  0  0  0  0  0  0  0
  180.9540  176.7920  136.3480 O   0  0  0  0  0  0  0  0  0  0  0  0
  181.8070  175.6670  138.1540 O   0  0  0  0  0  1  0  0  0  0  0  0
  188.9030  178.0510  138.2600 C   0  0  0  0  0  1  0  0  0  0  0  0
  187.5100  178.0450  138.1160 O   0  0  0  0  0  0  0  0  0  0  0  0
  1 10  1  0  0  0  0
  1 22  1  0  0  0  0
  2  3  2  0  0  0  0
  4 22  1  0  0  0  0
  4  5  1  0  0  0  0
  5 15  1  1  0  0  0
  5 23  1  0  0  0  0
  6 14  1  0  0  0  0
  6 19  1  0  0  0  0
  7 10  1  0  0  0  0
  8 21  1  0  0  0  0
  9  2  1  0  0  0  0
 10 11  2  0  0  0  0
 11  9  1  0  0  0  0
 11 17  1  0  0  0  0
 12 17  1  0  0  0  0
 12 18  1  0  0  0  0
 13  8  1  0  0  0  0
 14  7  2  0  0  0  0
 15 13  1  0  0  0  0
 16  3  1  0  0  0  0
 17 16  2  0  0  0  0
 19  1  2  0  0  0  0
 20  4  2  0  0  0  0
 22 12  2  0  0  0  0
 23 18  1  6  0  0  0
 23  8  1  0  0  0  0
 24 26  1  0  0  0  0
 24 25  1  0  0  0  0
 25 14  1  1  0  0  0
 26 25  1  0  0  0  0
 27 26  1  0  0  0  0
 28 27  1  0  0  0  0
 28 30  1  0  0  0  0
 29 28  2  0  0  0  0
 32 31  1  0  0  0  0
 32  6  1  0  0  0  0
M  END
>  <MODEL>
9

>  <REMARK>
 VINA RESULT:      -8.2      3.007      6.801
  Name = 
  4 active torsions:
  status: ('A' for Active; 'I' for Inactive)
    1  A    between atoms: N_7  and  O_19
    2  A    between atoms: C_10  and  C_17
    3  A    between atoms: N_20  and  C_29
    4  A    between atoms: C_29  and  C_30
                            x       y       z     vdW  Elec       q    Type
                         _______ _______ _______ _____ _____    ______ ____

>  <TORSDO>
F 4

$$$$
