=
 OpenBabel11122412003D

 28 32  0  0  1  0  0  0  0  0999 V2000
  190.1330  177.3480  144.4120 C   0  0  0  0  0  0  0  0  0  0  0  0
  188.3290  179.3110  142.1590 F   0  0  0  0  0  0  0  0  0  0  0  0
  184.8040  177.3260  147.0740 O   0  0  0  0  0  0  0  0  0  0  0  0
  190.7730  174.9020  143.1880 C   0  0  0  0  0  3  0  0  0  0  0  0
  184.6710  178.2560  144.8360 C   0  0  2  0  0  3  0  0  0  0  0  0
  189.8760  178.6290  145.1410 C   0  0  0  0  0  2  0  0  0  0  0  0
  189.1070  177.5600  140.7820 C   0  0  0  0  0  1  0  0  0  0  0  0
  187.8970  178.2420  141.3930 C   0  0  1  0  0  0  0  0  0  0  0  0
  185.6780  178.9950  140.4800 C   0  0  0  0  0  0  0  0  0  0  0  0
  187.0870  177.2310  142.2490 C   0  0  2  0  0  3  0  0  0  0  0  0
  188.4970  178.5090  148.7160 C   0  0  0  0  0  1  0  0  0  0  0  0
  187.1310  178.1290  144.5200 C   0  0  1  0  0  3  0  0  0  0  0  0
  185.0490  178.5290  141.5130 N   0  0  0  0  0  0  0  0  0  0  0  0
  187.0720  178.7520  140.3080 N   0  0  0  0  0  2  0  0  0  0  0  0
  188.4360  178.4370  147.2050 C   0  0  2  0  0  3  0  0  0  0  0  0
  189.1180  176.5990  143.7560 C   0  0  0  0  0  0  0  0  0  0  0  0
  185.3760  177.7060  146.0180 C   0  0  0  0  0  0  0  0  0  0  0  0
  184.9570  179.6940  139.4730 N   0  0  0  0  0  1  0  0  0  0  0  0
  187.6950  177.2450  146.8120 N   0  0  0  0  0  2  0  0  0  0  0  0
  189.4590  175.3730  143.1640 C   0  0  0  0  0  3  0  0  0  0  0  0
  191.4490  176.8630  144.4210 C   0  0  0  0  0  3  0  0  0  0  0  0
  191.7690  175.6510  143.8110 C   0  0  0  0  0  3  0  0  0  0  0  0
  189.8520  178.3920  146.6480 C   0  0  0  0  0  2  0  0  0  0  0  0
  185.8150  178.5810  143.8610 C   0  0  1  0  0  3  0  0  0  0  0  0
  186.7700  177.6250  145.8270 N   0  0  0  0  0  0  0  0  0  0  0  0
  185.6850  177.7600  142.5850 C   0  0  2  0  0  3  0  0  0  0  0  0
  183.9530  179.5400  145.2100 C   0  0  0  0  0  1  0  0  0  0  0  0
  187.6600  177.0030  143.6480 C   0  0  2  0  0  3  0  0  0  0  0  0
  1 21  1  0  0  0  0
  1  6  1  0  0  0  0
  4 22  1  0  0  0  0
  5 27  1  1  0  0  0
  5 17  1  0  0  0  0
  6 23  1  0  0  0  0
  8  7  1  6  0  0  0
  8  2  1  0  0  0  0
  8 10  1  0  0  0  0
  9 13  2  0  0  0  0
 10 26  1  0  0  0  0
 10 28  1  0  0  0  0
 12 25  1  0  0  0  0
 13 26  1  0  0  0  0
 14  9  1  0  0  0  0
 14  8  1  0  0  0  0
 15 11  1  0  0  0  0
 16  1  2  0  0  0  0
 17  3  2  0  0  0  0
 18  9  1  0  0  0  0
 19 15  1  0  0  0  0
 20  4  2  0  0  0  0
 20 16  1  0  0  0  0
 22 21  2  0  0  0  0
 23 15  1  0  0  0  0
 24 12  1  0  0  0  0
 24  5  1  0  0  0  0
 25 17  1  0  0  0  0
 25 19  1  0  0  0  0
 26 24  1  0  0  0  0
 28 16  1  0  0  0  0
 28 12  1  0  0  0  0
M  END
>  <MODEL>
1

>  <REMARK>
 VINA RESULT:      -6.6      0.000      0.000
  Name = 
  0 active torsions:
  status: ('A' for Active; 'I' for Inactive)
                            x       y       z     vdW  Elec       q    Type
                         _______ _______ _______ _____ _____    ______ ____

>  <TORSDO>
F 0

$$$$
=
 OpenBabel11122412003D

 28 32  0  0  1  0  0  0  0  0999 V2000
  181.7220  178.8630  140.3540 C   0  0  0  0  0  0  0  0  0  0  0  0
  181.5220  175.9320  138.4690 F   0  0  0  0  0  0  0  0  0  0  0  0
  187.1330  178.8760  137.8640 O   0  0  0  0  0  0  0  0  0  0  0  0
  179.9890  180.7800  139.2540 C   0  0  0  0  0  3  0  0  0  0  0  0
  185.6990  177.1980  136.8550 C   0  0  2  0  0  3  0  0  0  0  0  0
  182.6460  177.9050  141.0370 C   0  0  0  0  0  2  0  0  0  0  0  0
  179.7010  177.1830  137.6400 C   0  0  0  0  0  1  0  0  0  0  0  0
  181.0490  176.5590  137.3290 C   0  0  1  0  0  0  0  0  0  0  0  0
  181.9160  175.1420  135.4410 C   0  0  0  0  0  0  0  0  0  0  0  0
  182.0410  177.6460  136.8350 C   0  0  2  0  0  3  0  0  0  0  0  0
  186.1860  179.0470  141.9640 C   0  0  0  0  0  1  0  0  0  0  0  0
  183.8610  177.6450  138.4640 C   0  0  1  0  0  3  0  0  0  0  0  0
  183.0160  175.8250  135.3800 N   0  0  0  0  0  0  0  0  0  0  0  0
  180.8520  175.5550  136.2950 N   0  0  0  0  0  2  0  0  0  0  0  0
  185.0840  178.5600  141.0480 C   0  0  2  0  0  3  0  0  0  0  0  0
  181.7590  179.1310  138.9580 C   0  0  0  0  0  0  0  0  0  0  0  0
  186.0390  178.2530  137.8390 C   0  0  0  0  0  0  0  0  0  0  0  0
  181.7420  174.0100  134.5970 N   0  0  0  0  0  1  0  0  0  0  0  0
  185.0670  179.3780  139.8420 N   0  0  0  0  0  2  0  0  0  0  0  0
  180.8930  180.1030  138.4340 C   0  0  0  0  0  3  0  0  0  0  0  0
  180.8030  179.5480  141.1620 C   0  0  0  0  0  3  0  0  0  0  0  0
  179.9400  180.4980  140.6170 C   0  0  0  0  0  3  0  0  0  0  0  0
  183.7490  178.6580  141.7750 C   0  0  0  0  0  2  0  0  0  0  0  0
  184.2890  176.7570  137.2810 C   0  0  1  0  0  3  0  0  0  0  0  0
  184.9870  178.5100  138.7410 N   0  0  0  0  0  0  0  0  0  0  0  0
  183.2810  177.0290  136.1720 C   0  0  2  0  0  3  0  0  0  0  0  0
  186.6540  176.0270  136.9980 C   0  0  0  0  0  1  0  0  0  0  0  0
  182.6820  178.4590  137.9600 C   0  0  2  0  0  3  0  0  0  0  0  0
  1  6  1  0  0  0  0
  1 21  1  0  0  0  0
  4 22  1  0  0  0  0
  5 27  1  1  0  0  0
  5 24  1  0  0  0  0
  5 17  1  0  0  0  0
  6 23  1  0  0  0  0
  8  7  1  1  0  0  0
  8  2  1  0  0  0  0
  9 14  1  0  0  0  0
 10  8  1  0  0  0  0
 10 28  1  0  0  0  0
 12 25  1  0  0  0  0
 13  9  2  0  0  0  0
 13 26  1  0  0  0  0
 14  8  1  0  0  0  0
 15 23  1  0  0  0  0
 15 11  1  0  0  0  0
 16  1  2  0  0  0  0
 17  3  2  0  0  0  0
 17 25  1  0  0  0  0
 18  9  1  0  0  0  0
 19 15  1  0  0  0  0
 20 16  1  0  0  0  0
 20  4  2  0  0  0  0
 22 21  2  0  0  0  0
 24 12  1  0  0  0  0
 25 19  1  0  0  0  0
 26 10  1  0  0  0  0
 26 24  1  0  0  0  0
 28 12  1  0  0  0  0
 28 16  1  0  0  0  0
M  END
>  <MODEL>
2

>  <REMARK>
 VINA RESULT:      -6.4      5.254      8.763
  Name = 
  0 active torsions:
  status: ('A' for Active; 'I' for Inactive)
                            x       y       z     vdW  Elec       q    Type
                         _______ _______ _______ _____ _____    ______ ____

>  <TORSDO>
F 0

$$$$
=
 OpenBabel11122412003D

 28 32  0  0  1  0  0  0  0  0999 V2000
  180.3610  178.5330  139.6280 C   0  0  0  0  0  0  0  0  0  0  0  0
  183.3470  176.9270  138.7960 F   0  0  0  0  0  0  0  0  0  0  0  0
  183.6700  180.0030  144.3590 O   0  0  0  0  0  0  0  0  0  0  0  0
  179.9470  180.6720  137.8550 C   0  0  0  0  0  3  0  0  0  0  0  0
  185.0210  178.9950  142.6130 C   0  0  2  0  0  3  0  0  0  0  0  0
  180.4700  177.4000  140.5990 C   0  0  0  0  0  2  0  0  0  0  0  0
  183.0140  178.3500  136.9430 C   0  0  0  0  0  1  0  0  0  0  0  0
  183.8870  178.0190  138.1390 C   0  0  1  0  0  0  0  0  0  0  0  0
  186.3690  177.7670  138.4640 C   0  0  0  0  0  0  0  0  0  0  0  0
  183.9900  179.2460  139.0840 C   0  0  2  0  0  3  0  0  0  0  0  0
  179.9280  178.0690  144.3340 C   0  0  0  0  0  1  0  0  0  0  0  0
  183.0340  178.5070  141.2070 C   0  0  1  0  0  3  0  0  0  0  0  0
  186.3300  178.4340  139.5750 N   0  0  0  0  0  0  0  0  0  0  0  0
  185.2070  177.6570  137.6450 N   0  0  0  0  0  2  0  0  0  0  0  0
  180.6890  178.0600  143.0250 C   0  0  2  0  0  3  0  0  0  0  0  0
  181.4100  179.4630  139.3840 C   0  0  0  0  0  0  0  0  0  0  0  0
  183.7510  179.4320  143.2390 C   0  0  0  0  0  0  0  0  0  0  0  0
  187.5970  177.2010  138.0230 N   0  0  0  0  0  1  0  0  0  0  0  0
  181.2940  179.3690  142.8140 N   0  0  0  0  0  2  0  0  0  0  0  0
  181.1740  180.5310  138.5060 C   0  0  0  0  0  3  0  0  0  0  0  0
  179.1370  178.6870  138.9620 C   0  0  0  0  0  3  0  0  0  0  0  0
  178.9310  179.7460  138.0790 C   0  0  0  0  0  3  0  0  0  0  0  0
  179.7280  177.7280  141.8910 C   0  0  0  0  0  2  0  0  0  0  0  0
  184.5620  178.3450  141.2980 C   0  0  1  0  0  3  0  0  0  0  0  0
  182.6290  179.1630  142.4300 N   0  0  0  0  0  0  0  0  0  0  0  0
  185.1320  179.0930  140.0990 C   0  0  2  0  0  3  0  0  0  0  0  0
  185.6950  177.9480  143.4800 C   0  0  0  0  0  1  0  0  0  0  0  0
  182.7890  179.4160  140.0140 C   0  0  2  0  0  3  0  0  0  0  0  0
  1  6  1  0  0  0  0
  4 22  2  0  0  0  0
  4 20  1  0  0  0  0
  5 17  1  0  0  0  0
  5 27  1  1  0  0  0
  6 23  1  0  0  0  0
  8  7  1  6  0  0  0
  8  2  1  0  0  0  0
  8 10  1  0  0  0  0
  9 13  2  0  0  0  0
 10 28  1  0  0  0  0
 10 26  1  0  0  0  0
 12 24  1  0  0  0  0
 12 25  1  0  0  0  0
 13 26  1  0  0  0  0
 14  8  1  0  0  0  0
 14  9  1  0  0  0  0
 15 11  1  0  0  0  0
 16  1  1  0  0  0  0
 16 28  1  0  0  0  0
 17  3  2  0  0  0  0
 18  9  1  0  0  0  0
 19 15  1  0  0  0  0
 20 16  2  0  0  0  0
 21  1  2  0  0  0  0
 22 21  1  0  0  0  0
 23 15  1  0  0  0  0
 24  5  1  0  0  0  0
 25 19  1  0  0  0  0
 25 17  1  0  0  0  0
 26 24  1  0  0  0  0
 28 12  1  0  0  0  0
M  END
>  <MODEL>
3

>  <REMARK>
 VINA RESULT:      -6.2      4.131      7.825
  Name = 
  0 active torsions:
  status: ('A' for Active; 'I' for Inactive)
                            x       y       z     vdW  Elec       q    Type
                         _______ _______ _______ _____ _____    ______ ____

>  <TORSDO>
F 0

$$$$
=
 OpenBabel11122412003D

 28 32  0  0  1  0  0  0  0  0999 V2000
  186.0500  177.9080  143.9210 C   0  0  0  0  0  0  0  0  0  0  0  0
  183.7970  176.9800  141.4210 F   0  0  0  0  0  0  0  0  0  0  0  0
  189.4190  178.8600  139.1010 O   0  0  0  0  0  0  0  0  0  0  0  0
  185.1500  180.2760  145.1310 C   0  0  0  0  0  3  0  0  0  0  0  0
  187.1040  178.4500  138.4950 C   0  0  2  0  0  3  0  0  0  0  0  0
  186.5970  176.6290  143.3680 C   0  0  0  0  0  2  0  0  0  0  0  0
  182.6180  178.6860  142.5460 C   0  0  0  0  0  1  0  0  0  0  0  0
  183.2810  178.2530  141.2520 C   0  0  1  0  0  0  0  0  0  0  0  0
  182.5870  178.3210  138.8350 C   0  0  0  0  0  0  0  0  0  0  0  0
  184.3930  179.2610  140.8560 C   0  0  2  0  0  3  0  0  0  0  0  0
  190.3060  176.4260  142.4210 C   0  0  0  0  0  1  0  0  0  0  0  0
  186.4630  177.9640  140.8450 C   0  0  1  0  0  3  0  0  0  0  0  0
  183.7610  178.7310  138.4680 N   0  0  0  0  0  0  0  0  0  0  0  0
  182.2580  178.2050  140.2180 N   0  0  0  0  0  2  0  0  0  0  0  0
  188.8500  176.8020  142.2440 C   0  0  2  0  0  3  0  0  0  0  0  0
  185.6740  179.0160  143.1120 C   0  0  0  0  0  0  0  0  0  0  0  0
  188.2450  178.5510  139.4360 C   0  0  0  0  0  0  0  0  0  0  0  0
  181.5960  178.0510  137.8510 N   0  0  0  0  0  1  0  0  0  0  0  0
  188.7620  178.2030  141.8510 N   0  0  0  0  0  2  0  0  0  0  0  0
  185.2410  180.1930  143.7410 C   0  0  0  0  0  3  0  0  0  0  0  0
  185.9480  178.0070  145.3150 C   0  0  0  0  0  3  0  0  0  0  0  0
  185.4980  179.1800  145.9180 C   0  0  0  0  0  3  0  0  0  0  0  0
  188.1100  176.5680  143.5540 C   0  0  0  0  0  2  0  0  0  0  0  0
  185.9370  178.0220  139.3990 C   0  0  1  0  0  3  0  0  0  0  0  0
  187.8710  178.2860  140.7690 N   0  0  0  0  0  0  0  0  0  0  0  0
  184.8390  179.0780  139.3980 C   0  0  2  0  0  3  0  0  0  0  0  0
  187.3700  177.3630  137.4710 C   0  0  0  0  0  1  0  0  0  0  0  0
  185.7140  179.0510  141.5970 C   0  0  2  0  0  3  0  0  0  0  0  0
  1 21  1  0  0  0  0
  3 17  2  0  0  0  0
  4 22  1  0  0  0  0
  5 27  1  6  0  0  0
  5 24  1  0  0  0  0
  5 17  1  0  0  0  0
  6 23  1  0  0  0  0
  6  1  1  0  0  0  0
  8  2  1  0  0  0  0
  8  7  1  1  0  0  0
  9 14  1  0  0  0  0
 10  8  1  0  0  0  0
 10 28  1  0  0  0  0
 12 28  1  0  0  0  0
 13  9  2  0  0  0  0
 13 26  1  0  0  0  0
 14  8  1  0  0  0  0
 15 11  1  0  0  0  0
 15 23  1  0  0  0  0
 16 20  1  0  0  0  0
 16  1  2  0  0  0  0
 17 25  1  0  0  0  0
 18  9  1  0  0  0  0
 19 15  1  0  0  0  0
 20  4  2  0  0  0  0
 21 22  2  0  0  0  0
 24 12  1  0  0  0  0
 25 12  1  0  0  0  0
 25 19  1  0  0  0  0
 26 24  1  0  0  0  0
 26 10  1  0  0  0  0
 28 16  1  0  0  0  0
M  END
>  <MODEL>
4

>  <REMARK>
 VINA RESULT:      -5.6      3.080      5.620
  Name = 
  0 active torsions:
  status: ('A' for Active; 'I' for Inactive)
                            x       y       z     vdW  Elec       q    Type
                         _______ _______ _______ _____ _____    ______ ____

>  <TORSDO>
F 0

$$$$
=
 OpenBabel11122412003D

 28 32  0  0  1  0  0  0  0  0999 V2000
  181.4850  176.0020  136.9120 C   0  0  0  0  0  0  0  0  0  0  0  0
  184.8740  175.9240  137.7420 F   0  0  0  0  0  0  0  0  0  0  0  0
  181.3590  179.0610  142.0220 O   0  0  0  0  0  0  0  0  0  0  0  0
  181.1340  177.6180  134.6420 C   0  0  0  0  0  3  0  0  0  0  0  0
  183.6350  178.7130  141.2550 C   0  0  2  0  0  3  0  0  0  0  0  0
  181.5670  175.0960  138.1000 C   0  0  0  0  0  2  0  0  0  0  0  0
  184.9060  176.9410  135.6130 C   0  0  0  0  0  1  0  0  0  0  0  0
  185.1790  177.1100  137.0960 C   0  0  1  0  0  0  0  0  0  0  0  0
  187.1030  178.0530  138.4140 C   0  0  0  0  0  0  0  0  0  0  0  0
  184.3440  178.2890  137.6640 C   0  0  2  0  0  3  0  0  0  0  0  0
  179.1500  175.6150  141.0290 C   0  0  0  0  0  1  0  0  0  0  0  0
  182.8940  177.2920  139.3580 C   0  0  1  0  0  3  0  0  0  0  0  0
  186.2990  178.6780  139.2150 N   0  0  0  0  0  0  0  0  0  0  0  0
  186.6000  177.3770  137.2630 N   0  0  0  0  0  2  0  0  0  0  0  0
  180.3630  175.8970  140.1680 C   0  0  2  0  0  3  0  0  0  0  0  0
  182.0680  177.2990  136.8700 C   0  0  0  0  0  0  0  0  0  0  0  0
  182.1640  178.5400  141.2050 C   0  0  0  0  0  0  0  0  0  0  0  0
  188.5060  178.1000  138.6440 N   0  0  0  0  0  1  0  0  0  0  0  0
  180.4290  177.3250  139.8870 N   0  0  0  0  0  2  0  0  0  0  0  0
  181.8660  178.0920  135.7310 C   0  0  0  0  0  3  0  0  0  0  0  0
  180.7570  175.5390  135.8060 C   0  0  0  0  0  3  0  0  0  0  0  0
  180.5850  176.3380  134.6770 C   0  0  0  0  0  3  0  0  0  0  0  0
  180.2520  175.1040  138.8730 C   0  0  0  0  0  2  0  0  0  0  0  0
  184.1320  177.8610  140.0750 C   0  0  1  0  0  3  0  0  0  0  0  0
  181.7500  177.7440  140.1190 N   0  0  0  0  0  0  0  0  0  0  0  0
  184.8450  178.7300  139.0470 C   0  0  2  0  0  3  0  0  0  0  0  0
  184.1820  178.1400  142.5500 C   0  0  0  0  0  1  0  0  0  0  0  0
  182.8920  177.9260  137.9780 C   0  0  2  0  0  3  0  0  0  0  0  0
  1  6  1  0  0  0  0
  4 22  2  0  0  0  0
  4 20  1  0  0  0  0
  5 27  1  1  0  0  0
  6 23  1  0  0  0  0
  8  7  1  6  0  0  0
  8 14  1  0  0  0  0
  8 10  1  0  0  0  0
  8  2  1  0  0  0  0
  9 18  1  0  0  0  0
  9 13  2  0  0  0  0
 10 28  1  0  0  0  0
 10 26  1  0  0  0  0
 12 24  1  0  0  0  0
 12 25  1  0  0  0  0
 14  9  1  0  0  0  0
 15 11  1  0  0  0  0
 16  1  1  0  0  0  0
 16 28  1  0  0  0  0
 17  5  1  0  0  0  0
 17  3  2  0  0  0  0
 19 25  1  0  0  0  0
 19 15  1  0  0  0  0
 20 16  2  0  0  0  0
 21  1  2  0  0  0  0
 22 21  1  0  0  0  0
 23 15  1  0  0  0  0
 24  5  1  0  0  0  0
 25 17  1  0  0  0  0
 26 13  1  0  0  0  0
 26 24  1  0  0  0  0
 28 12  1  0  0  0  0
M  END
>  <MODEL>
5

>  <REMARK>
 VINA RESULT:      -5.6      5.151      8.596
  Name = 
  0 active torsions:
  status: ('A' for Active; 'I' for Inactive)
                            x       y       z     vdW  Elec       q    Type
                         _______ _______ _______ _____ _____    ______ ____

>  <TORSDO>
F 0

$$$$
=
 OpenBabel11122412003D

 28 32  0  0  1  0  0  0  0  0999 V2000
  187.8230  176.3900  136.5960 C   0  0  0  0  0  0  0  0  0  0  0  0
  189.0800  175.8720  139.8110 F   0  0  0  0  0  0  0  0  0  0  0  0
  184.0080  179.7180  139.7360 O   0  0  0  0  0  0  0  0  0  0  0  0
  189.6700  177.9100  135.1240 C   0  0  0  0  0  3  0  0  0  0  0  0
  185.8860  179.0030  141.0980 C   0  0  2  0  0  3  0  0  0  0  0  0
  186.7910  175.5500  137.2800 C   0  0  0  0  0  2  0  0  0  0  0  0
  190.9540  176.7520  138.6800 C   0  0  0  0  0  1  0  0  0  0  0  0
  189.9310  176.9640  139.7800 C   0  0  1  0  0  0  0  0  0  0  0  0
  190.0860  177.6920  142.1830 C   0  0  0  0  0  0  0  0  0  0  0  0
  189.1460  178.2800  139.5380 C   0  0  2  0  0  3  0  0  0  0  0  0
  183.1020  176.5750  137.0830 C   0  0  0  0  0  1  0  0  0  0  0  0
  186.8150  177.5990  139.2710 C   0  0  1  0  0  3  0  0  0  0  0  0
  189.0580  178.4710  142.0540 N   0  0  0  0  0  0  0  0  0  0  0  0
  190.6430  177.0330  141.0480 N   0  0  0  0  0  2  0  0  0  0  0  0
  184.5300  176.6310  137.5830 C   0  0  2  0  0  3  0  0  0  0  0  0
  188.3570  177.5850  137.1520 C   0  0  0  0  0  0  0  0  0  0  0  0
  185.0630  179.0410  139.8660 C   0  0  0  0  0  0  0  0  0  0  0  0
  190.7080  177.5500  143.4540 N   0  0  0  0  0  1  0  0  0  0  0  0
  184.9800  178.0170  137.5930 N   0  0  0  0  0  2  0  0  0  0  0  0
  189.2680  178.3350  136.3910 C   0  0  0  0  0  3  0  0  0  0  0  0
  188.2420  175.9750  135.3240 C   0  0  0  0  0  3  0  0  0  0  0  0
  189.1620  176.7260  134.5940 C   0  0  0  0  0  3  0  0  0  0  0  0
  185.4130  175.7900  136.6700 C   0  0  0  0  0  2  0  0  0  0  0  0
  187.0160  178.0240  140.7380 C   0  0  1  0  0  3  0  0  0  0  0  0
  185.6020  178.2530  138.8300 N   0  0  0  0  0  0  0  0  0  0  0  0
  188.3690  178.7220  140.7860 C   0  0  2  0  0  3  0  0  0  0  0  0
  185.0760  178.4310  142.2460 C   0  0  0  0  0  1  0  0  0  0  0  0
  188.0140  178.1490  138.5180 C   0  0  2  0  0  3  0  0  0  0  0  0
  1 16  1  0  0  0  0
  1  6  1  0  0  0  0
  3 17  2  0  0  0  0
  4 20  1  0  0  0  0
  5 27  1  1  0  0  0
  8  7  1  6  0  0  0
  8  2  1  0  0  0  0
  8 14  1  0  0  0  0
  9 18  1  0  0  0  0
 10  8  1  0  0  0  0
 10 26  1  0  0  0  0
 11 15  1  0  0  0  0
 12 24  1  0  0  0  0
 13  9  2  0  0  0  0
 14  9  1  0  0  0  0
 15 19  1  0  0  0  0
 16 28  1  0  0  0  0
 17  5  1  0  0  0  0
 19 25  1  0  0  0  0
 20 16  2  0  0  0  0
 21  1  2  0  0  0  0
 22  4  2  0  0  0  0
 22 21  1  0  0  0  0
 23  6  1  0  0  0  0
 23 15  1  0  0  0  0
 24 26  1  0  0  0  0
 24  5  1  0  0  0  0
 25 12  1  0  0  0  0
 25 17  1  0  0  0  0
 26 13  1  0  0  0  0
 28 12  1  0  0  0  0
 28 10  1  0  0  0  0
M  END
>  <MODEL>
6

>  <REMARK>
 VINA RESULT:      -5.6      3.811      7.127
  Name = 
  0 active torsions:
  status: ('A' for Active; 'I' for Inactive)
                            x       y       z     vdW  Elec       q    Type
                         _______ _______ _______ _____ _____    ______ ____

>  <TORSDO>
F 0

$$$$
=
 OpenBabel11122412003D

 28 32  0  0  1  0  0  0  0  0999 V2000
  190.7020  176.9070  144.9390 C   0  0  0  0  0  0  0  0  0  0  0  0
  190.5200  178.8420  142.0390 F   0  0  0  0  0  0  0  0  0  0  0  0
  184.7930  177.5030  144.4740 O   0  0  0  0  0  0  0  0  0  0  0  0
  191.6150  174.3370  144.2690 C   0  0  0  0  0  3  0  0  0  0  0  0
  185.9210  178.2780  142.4690 C   0  0  2  0  0  3  0  0  0  0  0  0
  190.2450  178.2530  145.4050 C   0  0  0  0  0  2  0  0  0  0  0  0
  191.7020  176.9400  141.2950 C   0  0  0  0  0  1  0  0  0  0  0  0
  190.4300  177.7580  141.1820 C   0  0  1  0  0  0  0  0  0  0  0  0
  189.0820  178.6190  139.2400 C   0  0  0  0  0  0  0  0  0  0  0  0
  189.1950  176.8790  141.5180 C   0  0  2  0  0  3  0  0  0  0  0  0
  187.2310  178.5010  147.7600 C   0  0  0  0  0  1  0  0  0  0  0  0
  188.1680  177.9310  143.4690 C   0  0  1  0  0  3  0  0  0  0  0  0
  187.9690  178.2800  139.8120 N   0  0  0  0  0  0  0  0  0  0  0  0
  190.3340  178.2530  139.8170 N   0  0  0  0  0  2  0  0  0  0  0  0
  187.9420  178.3260  146.4350 C   0  0  2  0  0  3  0  0  0  0  0  0
  190.0910  176.1960  143.8680 C   0  0  0  0  0  0  0  0  0  0  0  0
  185.8610  177.7590  143.8560 C   0  0  0  0  0  0  0  0  0  0  0  0
  189.0550  179.2990  137.9920 N   0  0  0  0  0  1  0  0  0  0  0  0
  187.3850  177.1720  145.7410 N   0  0  0  0  0  2  0  0  0  0  0  0
  190.5560  174.9080  143.5630 C   0  0  0  0  0  3  0  0  0  0  0  0
  191.7690  176.3200  145.6340 C   0  0  0  0  0  3  0  0  0  0  0  0
  192.2250  175.0460  145.3010 C   0  0  0  0  0  3  0  0  0  0  0  0
  189.4310  178.1280  146.6890 C   0  0  0  0  0  2  0  0  0  0  0  0
  187.4290  178.4390  142.2170 C   0  0  1  0  0  3  0  0  0  0  0  0
  187.1390  177.5530  144.4120 N   0  0  0  0  0  0  0  0  0  0  0  0
  187.8830  177.5410  141.0730 C   0  0  2  0  0  3  0  0  0  0  0  0
  185.2530  179.6380  142.3940 C   0  0  0  0  0  1  0  0  0  0  0  0
  188.9450  176.7070  143.0170 C   0  0  2  0  0  3  0  0  0  0  0  0
  1  6  1  0  0  0  0
  1 21  1  0  0  0  0
  4 22  1  0  0  0  0
  5 27  1  1  0  0  0
  5 17  1  0  0  0  0
  6 23  1  0  0  0  0
  8  7  1  1  0  0  0
  8 10  1  0  0  0  0
  8  2  1  0  0  0  0
  9 13  2  0  0  0  0
  9 14  1  0  0  0  0
 10 28  1  0  0  0  0
 12 25  1  0  0  0  0
 13 26  1  0  0  0  0
 14  8  1  0  0  0  0
 15 23  1  0  0  0  0
 15 11  1  0  0  0  0
 16  1  2  0  0  0  0
 17 25  1  0  0  0  0
 17  3  2  0  0  0  0
 18  9  1  0  0  0  0
 19 15  1  0  0  0  0
 20 16  1  0  0  0  0
 20  4  2  0  0  0  0
 22 21  2  0  0  0  0
 24  5  1  0  0  0  0
 24 12  1  0  0  0  0
 25 19  1  0  0  0  0
 26 10  1  0  0  0  0
 26 24  1  0  0  0  0
 28 12  1  0  0  0  0
 28 16  1  0  0  0  0
M  END
>  <MODEL>
7

>  <REMARK>
 VINA RESULT:      -5.5      1.642      2.254
  Name = 
  0 active torsions:
  status: ('A' for Active; 'I' for Inactive)
                            x       y       z     vdW  Elec       q    Type
                         _______ _______ _______ _____ _____    ______ ____

>  <TORSDO>
F 0

$$$$
=
 OpenBabel11122412003D

 28 32  0  0  1  0  0  0  0  0999 V2000
  189.6100  174.8200  136.2310 C   0  0  0  0  0  0  0  0  0  0  0  0
  187.8800  176.4350  138.7970 F   0  0  0  0  0  0  0  0  0  0  0  0
  184.0080  173.5770  134.6310 O   0  0  0  0  0  0  0  0  0  0  0  0
  190.8300  176.7480  134.5940 C   0  0  0  0  0  3  0  0  0  0  0  0
  184.0740  175.2360  136.4020 C   0  0  2  0  0  3  0  0  0  0  0  0
  189.0310  173.7150  137.0580 C   0  0  0  0  0  2  0  0  0  0  0  0
  189.1440  178.1960  137.8640 C   0  0  0  0  0  1  0  0  0  0  0  0
  187.7570  177.6350  138.1170 C   0  0  1  0  0  0  0  0  0  0  0  0
  185.6140  178.6220  138.9900 C   0  0  0  0  0  0  0  0  0  0  0  0
  187.0020  177.4430  136.7740 C   0  0  2  0  0  3  0  0  0  0  0  0
  187.1490  170.8600  135.3260 C   0  0  0  0  0  1  0  0  0  0  0  0
  186.5400  175.0480  136.6320 C   0  0  1  0  0  3  0  0  0  0  0  0
  184.9180  178.0160  138.0800 N   0  0  0  0  0  0  0  0  0  0  0  0
  187.0390  178.5760  138.9630 N   0  0  0  0  0  2  0  0  0  0  0  0
  187.3380  172.2510  135.8920 C   0  0  2  0  0  3  0  0  0  0  0  0
  188.8480  175.9180  135.7440 C   0  0  0  0  0  0  0  0  0  0  0  0
  184.6670  174.2490  135.4680 C   0  0  0  0  0  0  0  0  0  0  0  0
  184.9540  179.3960  139.9840 N   0  0  0  0  0  1  0  0  0  0  0  0
  186.8770  173.2310  134.9170 N   0  0  0  0  0  2  0  0  0  0  0  0
  189.4770  176.8600  134.9160 C   0  0  0  0  0  3  0  0  0  0  0  0
  190.9690  174.7250  135.9030 C   0  0  0  0  0  3  0  0  0  0  0  0
  191.5780  175.6840  135.0930 C   0  0  0  0  0  3  0  0  0  0  0  0
  188.8120  172.4670  136.2080 C   0  0  0  0  0  2  0  0  0  0  0  0
  185.2870  175.7350  137.2040 C   0  0  1  0  0  3  0  0  0  0  0  0
  186.0670  174.1570  135.5950 N   0  0  0  0  0  0  0  0  0  0  0  0
  185.4970  177.2290  136.9890 C   0  0  2  0  0  3  0  0  0  0  0  0
  183.1040  174.5440  137.3410 C   0  0  0  0  0  1  0  0  0  0  0  0
  187.3780  176.1620  136.0280 C   0  0  2  0  0  3  0  0  0  0  0  0
  1  6  1  0  0  0  0
  3 17  2  0  0  0  0
  4 20  2  0  0  0  0
  4 22  1  0  0  0  0
  5 24  1  0  0  0  0
  5 27  1  1  0  0  0
  8  7  1  6  0  0  0
  8  2  1  0  0  0  0
  8 14  1  0  0  0  0
  9 18  1  0  0  0  0
 10 26  1  0  0  0  0
 10  8  1  0  0  0  0
 11 15  1  0  0  0  0
 12 24  1  0  0  0  0
 13  9  2  0  0  0  0
 14  9  1  0  0  0  0
 15 23  1  0  0  0  0
 16 28  1  0  0  0  0
 16  1  2  0  0  0  0
 17 25  1  0  0  0  0
 17  5  1  0  0  0  0
 19 25  1  0  0  0  0
 19 15  1  0  0  0  0
 20 16  1  0  0  0  0
 21  1  1  0  0  0  0
 22 21  2  0  0  0  0
 23  6  1  0  0  0  0
 25 12  1  0  0  0  0
 26 24  1  0  0  0  0
 26 13  1  0  0  0  0
 28 12  1  0  0  0  0
 28 10  1  0  0  0  0
M  END
>  <MODEL>
8

>  <REMARK>
 VINA RESULT:      -5.5      6.325      8.702
  Name = 
  0 active torsions:
  status: ('A' for Active; 'I' for Inactive)
                            x       y       z     vdW  Elec       q    Type
                         _______ _______ _______ _____ _____    ______ ____

>  <TORSDO>
F 0

$$$$
=
 OpenBabel11122412003D

 28 32  0  0  1  0  0  0  0  0999 V2000
  182.1230  177.7510  139.6970 C   0  0  0  0  0  0  0  0  0  0  0  0
  182.8980  174.7070  138.1740 F   0  0  0  0  0  0  0  0  0  0  0  0
  187.5780  178.9890  137.6510 O   0  0  0  0  0  0  0  0  0  0  0  0
  180.0790  179.0100  138.2410 C   0  0  0  0  0  3  0  0  0  0  0  0
  186.7480  176.8960  136.7450 C   0  0  2  0  0  3  0  0  0  0  0  0
  183.1860  177.1500  140.5620 C   0  0  0  0  0  2  0  0  0  0  0  0
  180.9130  175.3310  137.0600 C   0  0  0  0  0  1  0  0  0  0  0  0
  182.4020  175.0700  136.9330 C   0  0  1  0  0  0  0  0  0  0  0  0
  183.8070  173.7640  135.3040 C   0  0  0  0  0  0  0  0  0  0  0  0
  183.1240  176.3310  136.3880 C   0  0  2  0  0  3  0  0  0  0  0  0
  186.1860  179.2930  141.6130 C   0  0  0  0  0  1  0  0  0  0  0  0
  184.6960  176.9820  138.1410 C   0  0  1  0  0  3  0  0  0  0  0  0
  184.6900  174.7120  135.2460 N   0  0  0  0  0  0  0  0  0  0  0  0
  182.5860  173.9540  136.0170 N   0  0  0  0  0  2  0  0  0  0  0  0
  185.3530  178.4390  140.6810 C   0  0  2  0  0  3  0  0  0  0  0  0
  182.2380  177.8820  138.2860 C   0  0  0  0  0  0  0  0  0  0  0  0
  186.6930  178.0930  137.6170 C   0  0  0  0  0  0  0  0  0  0  0  0
  184.0250  172.5520  134.5940 N   0  0  0  0  0  1  0  0  0  0  0  0
  185.2530  179.1010  139.3860 N   0  0  0  0  0  2  0  0  0  0  0  0
  181.2100  178.5280  137.5820 C   0  0  0  0  0  3  0  0  0  0  0  0
  180.9760  178.2360  140.3420 C   0  0  0  0  0  3  0  0  0  0  0  0
  179.9590  178.8580  139.6210 C   0  0  0  0  0  3  0  0  0  0  0  0
  183.9690  178.2410  141.2860 C   0  0  0  0  0  2  0  0  0  0  0  0
  185.4650  176.1330  137.1120 C   0  0  1  0  0  3  0  0  0  0  0  0
  185.5210  178.1420  138.3970 N   0  0  0  0  0  0  0  0  0  0  0  0
  184.5460  176.0130  135.9030 C   0  0  2  0  0  3  0  0  0  0  0  0
  187.9540  176.0470  137.1040 C   0  0  0  0  0  1  0  0  0  0  0  0
  183.4060  177.3930  137.4510 C   0  0  2  0  0  3  0  0  0  0  0  0
  1 21  1  0  0  0  0
  1  6  1  0  0  0  0
  4 22  1  0  0  0  0
  5 27  1  1  0  0  0
  5 24  1  0  0  0  0
  5 17  1  0  0  0  0
  6 23  1  0  0  0  0
  8  7  1  1  0  0  0
  8  2  1  0  0  0  0
  9 14  1  0  0  0  0
 10  8  1  0  0  0  0
 10 28  1  0  0  0  0
 12 25  1  0  0  0  0
 13  9  2  0  0  0  0
 13 26  1  0  0  0  0
 14  8  1  0  0  0  0
 15 23  1  0  0  0  0
 15 11  1  0  0  0  0
 16  1  2  0  0  0  0
 17  3  2  0  0  0  0
 17 25  1  0  0  0  0
 18  9  1  0  0  0  0
 19 15  1  0  0  0  0
 20  4  2  0  0  0  0
 20 16  1  0  0  0  0
 22 21  2  0  0  0  0
 24 12  1  0  0  0  0
 25 19  1  0  0  0  0
 26 10  1  0  0  0  0
 26 24  1  0  0  0  0
 28 12  1  0  0  0  0
 28 16  1  0  0  0  0
M  END
>  <MODEL>
9

>  <REMARK>
 VINA RESULT:      -5.5      5.372      8.747
  Name = 
  0 active torsions:
  status: ('A' for Active; 'I' for Inactive)
                            x       y       z     vdW  Elec       q    Type
                         _______ _______ _______ _____ _____    ______ ____

>  <TORSDO>
F 0

$$$$
