=
 OpenBabel11122411053D

 31 35  0  0  1  0  0  0  0  0999 V2000
  190.1390  176.0020  142.8410 C   0  0  0  0  0  0  0  0  0  0  0  0
  186.5600  177.1510  143.4370 C   0  0  2  0  0  3  0  0  0  0  0  0
  186.5640  177.8940  144.7680 C   0  0  0  0  0  0  0  0  0  0  0  0
  187.5840  178.2870  146.9460 C   0  0  0  0  0  0  0  0  0  0  0  0
  187.9330  177.0220  142.8150 C   0  0  0  0  0  0  0  0  0  0  0  0
  190.5250  176.7960  141.7600 C   0  0  0  0  0  3  0  0  0  0  0  0
  187.6030  177.6790  145.6890 C   0  0  0  0  0  3  0  0  0  0  0  0
  186.0910  179.0040  141.7880 C   0  0  2  0  0  3  0  0  0  0  0  0
  191.0170  175.1260  143.3850 F   0  0  0  0  0  0  0  0  0  0  0  0
  184.3210  178.9880  144.2340 C   0  0  0  0  0  2  0  0  0  0  0  0
  188.7020  178.0570  147.8980 C   0  0  0  0  0  1  0  0  0  0  0  0
  187.3480  178.6900  140.9800 C   0  0  0  0  0  2  0  0  0  0  0  0
  185.5430  177.7240  142.4330 C   0  0  2  0  0  3  0  0  0  0  0  0
  188.8480  176.1120  143.3630 C   0  0  0  0  0  3  0  0  0  0  0  0
  186.5140  179.1040  147.3090 C   0  0  0  0  0  3  0  0  0  0  0  0
  188.3250  177.8180  141.7150 C   0  0  0  0  0  0  0  0  0  0  0  0
  189.6160  177.6930  141.1940 C   0  0  0  0  0  3  0  0  0  0  0  0
  184.1970  177.9470  143.1260 C   0  0  0  0  0  2  0  0  0  0  0  0
  185.4630  178.6950  145.1610 C   0  0  0  0  0  0  0  0  0  0  0  0
  185.4590  179.3080  146.4180 C   0  0  0  0  0  3  0  0  0  0  0  0
  184.6980  177.6490  139.6910 O   0  0  0  0  0  0  0  0  0  0  0  0
  184.4290  178.8660  139.8790 C   0  0  0  0  0  0  0  0  0  0  0  0
  185.0900  179.5990  140.9130 N   0  0  0  0  0  2  0  0  0  0  0  0
  181.0310  178.0700  139.5800 C   0  0  0  0  0  0  0  0  0  0  0  0
  182.3200  180.2250  139.7630 C   0  0  0  0  0  2  0  0  0  0  0  0
  183.8740  177.8790  137.0950 C   0  0  0  0  0  1  0  0  0  0  0  0
  180.0390  177.3570  139.8810 O   0  0  0  0  0  0  0  0  0  0  0  0
  181.4130  179.2160  140.4720 C   0  0  0  0  0  2  0  0  0  0  0  0
  182.8280  178.6340  137.8970 C   0  0  2  0  0  3  0  0  0  0  0  0
  183.4410  179.5440  138.9730 C   0  0  2  0  0  3  0  0  0  0  0  0
  181.8440  177.7140  138.4590 N   0  0  0  0  0  2  0  0  0  0  0  0
  1 14  1  0  0  0  0
  1  9  1  0  0  0  0
  2  5  1  6  0  0  0
  2  3  1  0  0  0  0
  3 19  2  0  0  0  0
  3  7  1  0  0  0  0
  4 15  1  0  0  0  0
  4 11  1  0  0  0  0
  5 14  2  0  0  0  0
  6  1  2  0  0  0  0
  7  4  2  0  0  0  0
  8 23  1  6  0  0  0
  8 13  1  0  0  0  0
 10 19  1  0  0  0  0
 12 16  1  0  0  0  0
 12  8  1  0  0  0  0
 13 18  1  1  0  0  0
 13  2  1  0  0  0  0
 16  5  1  0  0  0  0
 17 16  2  0  0  0  0
 17  6  1  0  0  0  0
 18 10  1  0  0  0  0
 19 20  1  0  0  0  0
 20 15  2  0  0  0  0
 21 22  2  0  0  0  0
 22 23  1  0  0  0  0
 24 27  2  0  0  0  0
 24 28  1  0  0  0  0
 25 28  1  0  0  0  0
 29 26  1  1  0  0  0
 29 31  1  0  0  0  0
 29 30  1  0  0  0  0
 30 25  1  0  0  0  0
 30 22  1  1  0  0  0
 31 24  1  0  0  0  0
M  END
>  <MODEL>
1

>  <REMARK>
 VINA RESULT:      -9.6      0.000      0.000
  Name = 
  2 active torsions:
  status: ('A' for Active; 'I' for Inactive)
    1  A    between atoms: C_5  and  C_30
    2  A    between atoms: C_10  and  N_16
                            x       y       z     vdW  Elec       q    Type
                         _______ _______ _______ _____ _____    ______ ____

>  <TORSDO>
F 2

$$$$
=
 OpenBabel11122411053D

 31 35  0  0  1  0  0  0  0  0999 V2000
  191.1530  176.3340  143.6960 C   0  0  0  0  0  0  0  0  0  0  0  0
  187.4150  177.0410  143.7910 C   0  0  2  0  0  3  0  0  0  0  0  0
  187.1540  177.7920  145.0920 C   0  0  0  0  0  0  0  0  0  0  0  0
  187.8220  178.3260  147.3730 C   0  0  0  0  0  0  0  0  0  0  0  0
  188.8640  177.0750  143.3570 C   0  0  0  0  0  0  0  0  0  0  0  0
  191.5800  177.1600  142.6540 C   0  0  0  0  0  3  0  0  0  0  0  0
  188.0800  177.7140  146.1460 C   0  0  0  0  0  3  0  0  0  0  0  0
  186.9490  178.8070  142.0490 C   0  0  2  0  0  3  0  0  0  0  0  0
  192.0510  175.5780  144.3710 F   0  0  0  0  0  0  0  0  0  0  0  0
  184.8860  178.5970  144.2430 C   0  0  0  0  0  2  0  0  0  0  0  0
  188.8240  178.2450  148.4680 C   0  0  0  0  0  1  0  0  0  0  0  0
  188.3300  178.6420  141.4190 C   0  0  0  0  0  2  0  0  0  0  0  0
  186.4780  177.4750  142.6500 C   0  0  2  0  0  3  0  0  0  0  0  0
  189.8010  176.2900  144.0420 C   0  0  0  0  0  3  0  0  0  0  0  0
  186.6230  179.0100  147.5740 C   0  0  0  0  0  3  0  0  0  0  0  0
  189.2990  177.9040  142.2970 C   0  0  0  0  0  0  0  0  0  0  0  0
  190.6540  177.9330  141.9510 C   0  0  0  0  0  3  0  0  0  0  0  0
  185.0360  177.5380  143.1550 C   0  0  0  0  0  2  0  0  0  0  0  0
  185.9220  178.4550  145.3180 C   0  0  0  0  0  0  0  0  0  0  0  0
  185.6780  179.0740  146.5480 C   0  0  0  0  0  3  0  0  0  0  0  0
  186.6160  177.6670  139.4480 O   0  0  0  0  0  0  0  0  0  0  0  0
  185.8910  178.6530  139.7500 C   0  0  0  0  0  0  0  0  0  0  0  0
  186.0080  179.2660  141.0360 N   0  0  0  0  0  2  0  0  0  0  0  0
  182.6370  177.5040  139.1490 C   0  0  0  0  0  0  0  0  0  0  0  0
  183.6800  179.7840  139.3750 C   0  0  0  0  0  2  0  0  0  0  0  0
  185.7230  177.5370  136.9650 C   0  0  0  0  0  1  0  0  0  0  0  0
  181.6950  176.7020  139.3770 O   0  0  0  0  0  0  0  0  0  0  0  0
  182.8100  178.7080  140.0290 C   0  0  0  0  0  2  0  0  0  0  0  0
  184.5310  178.2020  137.6310 C   0  0  2  0  0  3  0  0  0  0  0  0
  184.9370  179.2010  138.7260 C   0  0  2  0  0  3  0  0  0  0  0  0
  183.5920  177.2020  138.1270 N   0  0  0  0  0  2  0  0  0  0  0  0
  1 14  1  0  0  0  0
  1  9  1  0  0  0  0
  2  5  1  6  0  0  0
  2  3  1  0  0  0  0
  3 19  2  0  0  0  0
  3  7  1  0  0  0  0
  4 15  1  0  0  0  0
  4 11  1  0  0  0  0
  5 14  2  0  0  0  0
  6  1  2  0  0  0  0
  7  4  2  0  0  0  0
  8 23  1  6  0  0  0
  8 13  1  0  0  0  0
 10 19  1  0  0  0  0
 12  8  1  0  0  0  0
 12 16  1  0  0  0  0
 13 18  1  1  0  0  0
 13  2  1  0  0  0  0
 16  5  1  0  0  0  0
 17 16  2  0  0  0  0
 17  6  1  0  0  0  0
 18 10  1  0  0  0  0
 19 20  1  0  0  0  0
 20 15  2  0  0  0  0
 21 22  2  0  0  0  0
 22 23  1  0  0  0  0
 24 27  2  0  0  0  0
 24 28  1  0  0  0  0
 25 28  1  0  0  0  0
 29 26  1  1  0  0  0
 29 31  1  0  0  0  0
 29 30  1  0  0  0  0
 30 25  1  0  0  0  0
 30 22  1  1  0  0  0
 31 24  1  0  0  0  0
M  END
>  <MODEL>
2

>  <REMARK>
 VINA RESULT:      -9.3      1.176      1.264
  Name = 
  2 active torsions:
  status: ('A' for Active; 'I' for Inactive)
    1  A    between atoms: C_5  and  C_30
    2  A    between atoms: C_10  and  N_16
                            x       y       z     vdW  Elec       q    Type
                         _______ _______ _______ _____ _____    ______ ____

>  <TORSDO>
F 2

$$$$
=
 OpenBabel11122411053D

 31 35  0  0  1  0  0  0  0  0999 V2000
  191.3130  176.5710  144.8720 C   0  0  0  0  0  0  0  0  0  0  0  0
  187.6790  177.0120  143.8340 C   0  0  2  0  0  3  0  0  0  0  0  0
  187.0030  177.7900  144.9580 C   0  0  0  0  0  0  0  0  0  0  0  0
  186.9380  178.4550  147.3010 C   0  0  0  0  0  0  0  0  0  0  0  0
  189.1870  177.1340  143.8390 C   0  0  0  0  0  0  0  0  0  0  0  0
  191.9800  177.3860  143.9550 C   0  0  0  0  0  3  0  0  0  0  0  0
  187.5810  177.8170  146.2380 C   0  0  0  0  0  3  0  0  0  0  0  0
  187.6460  178.6760  141.9340 C   0  0  2  0  0  3  0  0  0  0  0  0
  192.0140  175.9060  145.8210 F   0  0  0  0  0  0  0  0  0  0  0  0
  185.0440  178.4000  143.4410 C   0  0  0  0  0  2  0  0  0  0  0  0
  187.5750  178.4850  148.6430 C   0  0  0  0  0  1  0  0  0  0  0  0
  189.1590  178.5870  141.7450 C   0  0  0  0  0  2  0  0  0  0  0  0
  187.0960  177.3370  142.4460 C   0  0  2  0  0  3  0  0  0  0  0  0
  189.9240  176.4430  144.8110 C   0  0  0  0  0  3  0  0  0  0  0  0
  185.6960  179.0580  147.1040 C   0  0  0  0  0  3  0  0  0  0  0  0
  189.8660  177.9520  142.9070 C   0  0  0  0  0  0  0  0  0  0  0  0
  191.2590  178.0650  142.9710 C   0  0  0  0  0  3  0  0  0  0  0  0
  185.5680  177.3150  142.5050 C   0  0  0  0  0  2  0  0  0  0  0  0
  185.7240  178.3720  144.7770 C   0  0  0  0  0  0  0  0  0  0  0  0
  185.0930  179.0170  145.8450 C   0  0  0  0  0  3  0  0  0  0  0  0
  188.0020  177.2900  139.4600 O   0  0  0  0  0  0  0  0  0  0  0  0
  187.2420  178.2940  139.4610 C   0  0  0  0  0  0  0  0  0  0  0  0
  187.0210  179.0290  140.6670 N   0  0  0  0  0  2  0  0  0  0  0  0
  186.3750  176.2130  136.7810 C   0  0  0  0  0  0  0  0  0  0  0  0
  185.2260  178.1090  137.9740 C   0  0  0  0  0  2  0  0  0  0  0  0
  188.8760  179.0340  137.0510 C   0  0  0  0  0  1  0  0  0  0  0  0
  186.3410  175.0790  136.2360 O   0  0  0  0  0  0  0  0  0  0  0  0
  185.2990  176.5950  137.7550 C   0  0  0  0  0  2  0  0  0  0  0  0
  187.4650  178.4860  136.9200 C   0  0  2  0  0  3  0  0  0  0  0  0
  186.6090  178.7350  138.1710 C   0  0  2  0  0  3  0  0  0  0  0  0
  187.4920  177.0750  136.5500 N   0  0  0  0  0  2  0  0  0  0  0  0
  1  9  1  0  0  0  0
  2  5  1  6  0  0  0
  2  3  1  0  0  0  0
  3  7  1  0  0  0  0
  4 11  1  0  0  0  0
  5 14  2  0  0  0  0
  6  1  2  0  0  0  0
  7  4  2  0  0  0  0
  8 23  1  6  0  0  0
  8 13  1  0  0  0  0
 10 19  1  0  0  0  0
 12  8  1  0  0  0  0
 12 16  1  0  0  0  0
 13 18  1  1  0  0  0
 13  2  1  0  0  0  0
 14  1  1  0  0  0  0
 15  4  1  0  0  0  0
 16 17  2  0  0  0  0
 16  5  1  0  0  0  0
 17  6  1  0  0  0  0
 18 10  1  0  0  0  0
 19  3  2  0  0  0  0
 19 20  1  0  0  0  0
 20 15  2  0  0  0  0
 21 22  2  0  0  0  0
 22 23  1  0  0  0  0
 24 28  1  0  0  0  0
 25 30  1  0  0  0  0
 27 24  2  0  0  0  0
 28 25  1  0  0  0  0
 29 26  1  1  0  0  0
 29 30  1  0  0  0  0
 30 22  1  1  0  0  0
 31 24  1  0  0  0  0
 31 29  1  0  0  0  0
M  END
>  <MODEL>
3

>  <REMARK>
 VINA RESULT:      -8.8      2.638      3.208
  Name = 
  2 active torsions:
  status: ('A' for Active; 'I' for Inactive)
    1  A    between atoms: C_5  and  C_30
    2  A    between atoms: C_10  and  N_16
                            x       y       z     vdW  Elec       q    Type
                         _______ _______ _______ _____ _____    ______ ____

>  <TORSDO>
F 2

$$$$
=
 OpenBabel11122411053D

 31 35  0  0  1  0  0  0  0  0999 V2000
  189.6570  176.4750  142.3570 C   0  0  0  0  0  0  0  0  0  0  0  0
  186.2880  177.2420  143.9510 C   0  0  2  0  0  3  0  0  0  0  0  0
  186.5880  177.9010  145.2930 C   0  0  0  0  0  0  0  0  0  0  0  0
  188.1160  178.2540  147.1580 C   0  0  0  0  0  0  0  0  0  0  0  0
  187.4530  177.2820  142.9860 C   0  0  0  0  0  0  0  0  0  0  0  0
  189.6820  177.3670  141.2820 C   0  0  0  0  0  3  0  0  0  0  0  0
  187.8470  177.7280  145.8930 C   0  0  0  0  0  3  0  0  0  0  0  0
  185.2610  179.1410  142.6400 C   0  0  2  0  0  3  0  0  0  0  0  0
  190.7110  175.6540  142.5800 F   0  0  0  0  0  0  0  0  0  0  0  0
  184.2090  178.8090  145.4500 C   0  0  0  0  0  2  0  0  0  0  0  0
  189.4600  178.0730  147.7660 C   0  0  0  0  0  1  0  0  0  0  0  0
  186.2790  178.9960  141.5110 C   0  0  0  0  0  2  0  0  0  0  0  0
  185.0010  177.7770  143.2960 C   0  0  2  0  0  3  0  0  0  0  0  0
  188.5460  176.4300  143.2020 C   0  0  0  0  0  3  0  0  0  0  0  0
  187.1220  178.9430  147.8530 C   0  0  0  0  0  3  0  0  0  0  0  0
  187.4780  178.1770  141.8930 C   0  0  0  0  0  0  0  0  0  0  0  0
  188.5920  178.2070  141.0470 C   0  0  0  0  0  3  0  0  0  0  0  0
  183.8740  177.8300  144.3290 C   0  0  0  0  0  2  0  0  0  0  0  0
  185.5740  178.5690  146.0230 C   0  0  0  0  0  0  0  0  0  0  0  0
  185.8570  179.1000  147.2840 C   0  0  0  0  0  3  0  0  0  0  0  0
  183.4560  177.7810  140.8890 O   0  0  0  0  0  0  0  0  0  0  0  0
  183.1620  178.9580  141.2310 C   0  0  0  0  0  0  0  0  0  0  0  0
  184.0230  179.6900  142.1060 N   0  0  0  0  0  2  0  0  0  0  0  0
  179.9750  177.5090  141.1310 C   0  0  0  0  0  0  0  0  0  0  0  0
  180.8480  179.7890  141.7440 C   0  0  0  0  0  2  0  0  0  0  0  0
  182.3250  178.5790  138.3700 C   0  0  0  0  0  1  0  0  0  0  0  0
  179.2020  176.5390  141.3400 O   0  0  0  0  0  0  0  0  0  0  0  0
  180.2840  178.4590  142.2510 C   0  0  0  0  0  2  0  0  0  0  0  0
  181.3120  178.8580  139.4670 C   0  0  2  0  0  3  0  0  0  0  0  0
  181.9210  179.5940  140.6700 C   0  0  2  0  0  3  0  0  0  0  0  0
  180.6320  177.6310  139.8660 N   0  0  0  0  0  2  0  0  0  0  0  0
  1  9  1  0  0  0  0
  1 14  1  0  0  0  0
  2  5  1  6  0  0  0
  2  3  1  0  0  0  0
  3  7  2  0  0  0  0
  3 19  1  0  0  0  0
  4 11  1  0  0  0  0
  4 15  2  0  0  0  0
  5 14  2  0  0  0  0
  6  1  2  0  0  0  0
  7  4  1  0  0  0  0
  8 23  1  6  0  0  0
  8 13  1  0  0  0  0
 10 19  1  0  0  0  0
 12 16  1  0  0  0  0
 12  8  1  0  0  0  0
 13  2  1  0  0  0  0
 13 18  1  1  0  0  0
 16  5  1  0  0  0  0
 17  6  1  0  0  0  0
 17 16  2  0  0  0  0
 18 10  1  0  0  0  0
 19 20  2  0  0  0  0
 20 15  1  0  0  0  0
 21 22  2  0  0  0  0
 22 23  1  0  0  0  0
 24 27  2  0  0  0  0
 24 28  1  0  0  0  0
 25 28  1  0  0  0  0
 29 26  1  6  0  0  0
 29 31  1  0  0  0  0
 29 30  1  0  0  0  0
 30 22  1  1  0  0  0
 30 25  1  0  0  0  0
 31 24  1  0  0  0  0
M  END
>  <MODEL>
4

>  <REMARK>
 VINA RESULT:      -8.6      1.156      1.420
  Name = 
  2 active torsions:
  status: ('A' for Active; 'I' for Inactive)
    1  A    between atoms: C_5  and  C_30
    2  A    between atoms: C_10  and  N_16
                            x       y       z     vdW  Elec       q    Type
                         _______ _______ _______ _____ _____    ______ ____

>  <TORSDO>
F 2

$$$$
=
 OpenBabel11122411053D

 31 35  0  0  1  0  0  0  0  0999 V2000
  193.4010  175.3220  135.7820 C   0  0  0  0  0  0  0  0  0  0  0  0
  190.1330  176.8920  136.9400 C   0  0  2  0  0  3  0  0  0  0  0  0
  189.0580  175.8260  136.7590 C   0  0  0  0  0  0  0  0  0  0  0  0
  188.2750  173.8090  135.6400 C   0  0  0  0  0  0  0  0  0  0  0  0
  191.5380  176.3300  136.9730 C   0  0  0  0  0  0  0  0  0  0  0  0
  194.1080  175.2010  136.9800 C   0  0  0  0  0  3  0  0  0  0  0  0
  189.2760  174.7510  135.8820 C   0  0  0  0  0  3  0  0  0  0  0  0
  190.2610  177.1050  139.4530 C   0  0  2  0  0  3  0  0  0  0  0  0
  193.9540  174.8900  134.6240 F   0  0  0  0  0  0  0  0  0  0  0  0
  187.4670  177.0820  138.3100 C   0  0  0  0  0  2  0  0  0  0  0  0
  188.5330  172.6700  134.7210 C   0  0  0  0  0  1  0  0  0  0  0  0
  191.7600  176.8140  139.4650 C   0  0  0  0  0  2  0  0  0  0  0  0
  189.8700  177.8110  138.1470 C   0  0  2  0  0  3  0  0  0  0  0  0
  192.1240  175.8870  135.7790 C   0  0  0  0  0  3  0  0  0  0  0  0
  187.0300  173.9400  136.2560 C   0  0  0  0  0  3  0  0  0  0  0  0
  192.2600  176.2140  138.1830 C   0  0  0  0  0  0  0  0  0  0  0  0
  193.5420  175.6540  138.1740 C   0  0  0  0  0  3  0  0  0  0  0  0
  188.4110  178.2690  138.1430 C   0  0  0  0  0  2  0  0  0  0  0  0
  187.7790  175.9720  137.3500 C   0  0  0  0  0  0  0  0  0  0  0  0
  186.7860  175.0170  137.1090 C   0  0  0  0  0  3  0  0  0  0  0  0
  190.1410  176.2250  142.1700 O   0  0  0  0  0  0  0  0  0  0  0  0
  189.8760  177.4340  141.9360 C   0  0  0  0  0  0  0  0  0  0  0  0
  189.9210  177.9360  140.5990 N   0  0  0  0  0  2  0  0  0  0  0  0
  191.1730  177.3380  145.1890 C   0  0  0  0  0  0  0  0  0  0  0  0
  190.6350  179.1870  143.5670 C   0  0  0  0  0  2  0  0  0  0  0  0
  187.6960  176.6760  143.8600 C   0  0  0  0  0  1  0  0  0  0  0  0
  191.9250  176.8250  146.0570 O   0  0  0  0  0  0  0  0  0  0  0  0
  191.7320  178.3530  144.2350 C   0  0  0  0  0  2  0  0  0  0  0  0
  188.8350  177.5940  144.2670 C   0  0  2  0  0  3  0  0  0  0  0  0
  189.4690  178.3270  143.0750 C   0  0  2  0  0  3  0  0  0  0  0  0
  189.8280  176.8680  145.0510 N   0  0  0  0  0  2  0  0  0  0  0  0
  1  6  1  0  0  0  0
  2  3  1  1  0  0  0
  2  5  1  0  0  0  0
  2 13  1  0  0  0  0
  3 19  1  0  0  0  0
  4  7  1  0  0  0  0
  4 15  2  0  0  0  0
  5 16  2  0  0  0  0
  6 17  2  0  0  0  0
  7  3  2  0  0  0  0
  8 12  1  0  0  0  0
  8 23  1  1  0  0  0
  9  1  1  0  0  0  0
 11  4  1  0  0  0  0
 13 18  1  1  0  0  0
 13  8  1  0  0  0  0
 14  1  2  0  0  0  0
 14  5  1  0  0  0  0
 15 20  1  0  0  0  0
 16 12  1  0  0  0  0
 17 16  1  0  0  0  0
 18 10  1  0  0  0  0
 19 10  1  0  0  0  0
 20 19  2  0  0  0  0
 22 21  2  0  0  0  0
 23 22  1  0  0  0  0
 24 27  2  0  0  0  0
 25 28  1  0  0  0  0
 28 24  1  0  0  0  0
 29 26  1  6  0  0  0
 29 31  1  0  0  0  0
 30 22  1  6  0  0  0
 30 25  1  0  0  0  0
 30 29  1  0  0  0  0
 31 24  1  0  0  0  0
M  END
>  <MODEL>
5

>  <REMARK>
 VINA RESULT:      -8.6      5.030      8.763
  Name = 
  2 active torsions:
  status: ('A' for Active; 'I' for Inactive)
    1  A    between atoms: C_5  and  C_30
    2  A    between atoms: C_10  and  N_16
                            x       y       z     vdW  Elec       q    Type
                         _______ _______ _______ _____ _____    ______ ____

>  <TORSDO>
F 2

$$$$
=
 OpenBabel11122411053D

 31 35  0  0  1  0  0  0  0  0999 V2000
  190.6140  176.7640  146.1400 C   0  0  0  0  0  0  0  0  0  0  0  0
  187.8270  177.1320  143.5740 C   0  0  2  0  0  3  0  0  0  0  0  0
  186.7590  178.0050  144.2240 C   0  0  0  0  0  0  0  0  0  0  0  0
  185.6980  178.8640  146.2410 C   0  0  0  0  0  0  0  0  0  0  0  0
  189.1830  177.2480  144.2370 C   0  0  0  0  0  0  0  0  0  0  0  0
  191.6490  177.4960  145.5550 C   0  0  0  0  0  3  0  0  0  0  0  0
  186.7150  178.1370  145.6220 C   0  0  0  0  0  3  0  0  0  0  0  0
  188.7010  178.6300  141.7390 C   0  0  2  0  0  3  0  0  0  0  0  0
  190.7970  176.1780  147.3480 F   0  0  0  0  0  0  0  0  0  0  0  0
  185.6930  178.4930  141.9570 C   0  0  0  0  0  2  0  0  0  0  0  0
  185.6800  179.0050  147.7200 C   0  0  0  0  0  1  0  0  0  0  0  0
  190.1380  178.5190  142.2450 C   0  0  0  0  0  2  0  0  0  0  0  0
  187.9290  177.3410  142.0520 C   0  0  2  0  0  3  0  0  0  0  0  0
  189.3890  176.6380  145.4820 C   0  0  0  0  0  3  0  0  0  0  0  0
  184.6940  179.4540  145.4730 C   0  0  0  0  0  3  0  0  0  0  0  0
  190.2360  177.9810  143.6430 C   0  0  0  0  0  0  0  0  0  0  0  0
  191.4620  178.0930  144.3070 C   0  0  0  0  0  3  0  0  0  0  0  0
  186.5310  177.3310  141.4320 C   0  0  0  0  0  2  0  0  0  0  0  0
  185.7140  178.5750  143.4550 C   0  0  0  0  0  0  0  0  0  0  0  0
  184.7050  179.3100  144.0840 C   0  0  0  0  0  3  0  0  0  0  0  0
  189.7050  176.8410  139.7490 O   0  0  0  0  0  0  0  0  0  0  0  0
  189.2320  177.9410  139.3580 C   0  0  0  0  0  0  0  0  0  0  0  0
  188.7120  178.8780  140.3040 N   0  0  0  0  0  2  0  0  0  0  0  0
  187.5760  176.1850  136.8190 C   0  0  0  0  0  0  0  0  0  0  0  0
  187.8720  178.6260  137.3600 C   0  0  0  0  0  2  0  0  0  0  0  0
  191.2550  176.7370  137.4910 C   0  0  0  0  0  1  0  0  0  0  0  0
  186.8580  175.2270  136.4350 O   0  0  0  0  0  0  0  0  0  0  0  0
  186.9240  177.4240  137.3630 C   0  0  0  0  0  2  0  0  0  0  0  0
  189.8880  177.1850  137.0040 C   0  0  2  0  0  3  0  0  0  0  0  0
  189.2630  178.2720  137.8930 C   0  0  2  0  0  3  0  0  0  0  0  0
  188.9990  176.0400  136.8370 N   0  0  0  0  0  2  0  0  0  0  0  0
  1  9  1  0  0  0  0
  2  3  1  1  0  0  0
  2  5  1  0  0  0  0
  3  7  1  0  0  0  0
  4 11  1  0  0  0  0
  5 14  1  0  0  0  0
  6  1  1  0  0  0  0
  7  4  2  0  0  0  0
  8 23  1  6  0  0  0
  8 13  1  0  0  0  0
  8 12  1  0  0  0  0
 10 19  1  0  0  0  0
 12 16  1  0  0  0  0
 13 18  1  1  0  0  0
 13  2  1  0  0  0  0
 14  1  2  0  0  0  0
 15  4  1  0  0  0  0
 16  5  2  0  0  0  0
 16 17  1  0  0  0  0
 17  6  2  0  0  0  0
 18 10  1  0  0  0  0
 19 20  1  0  0  0  0
 19  3  2  0  0  0  0
 20 15  2  0  0  0  0
 22 21  2  0  0  0  0
 22 23  1  0  0  0  0
 24 31  1  0  0  0  0
 24 28  1  0  0  0  0
 25 28  1  0  0  0  0
 25 30  1  0  0  0  0
 27 24  2  0  0  0  0
 29 26  1  1  0  0  0
 29 30  1  0  0  0  0
 30 22  1  1  0  0  0
 31 29  1  0  0  0  0
M  END
>  <MODEL>
6

>  <REMARK>
 VINA RESULT:      -8.2      3.211      4.439
  Name = 
  2 active torsions:
  status: ('A' for Active; 'I' for Inactive)
    1  A    between atoms: C_5  and  C_30
    2  A    between atoms: C_10  and  N_16
                            x       y       z     vdW  Elec       q    Type
                         _______ _______ _______ _____ _____    ______ ____

>  <TORSDO>
F 2

$$$$
=
 OpenBabel11122411053D

 31 35  0  0  1  0  0  0  0  0999 V2000
  188.8470  178.1580  142.4760 C   0  0  0  0  0  0  0  0  0  0  0  0
  186.0340  178.9970  140.0530 C   0  0  2  0  0  3  0  0  0  0  0  0
  186.1820  178.0380  138.8770 C   0  0  0  0  0  0  0  0  0  0  0  0
  187.5930  176.5860  137.5220 C   0  0  0  0  0  0  0  0  0  0  0  0
  186.7530  178.5330  141.3020 C   0  0  0  0  0  0  0  0  0  0  0  0
  188.1500  177.6100  143.5550 C   0  0  0  0  0  3  0  0  0  0  0  0
  187.4120  177.4030  138.6390 C   0  0  0  0  0  3  0  0  0  0  0  0
  183.8810  178.2150  141.1160 C   0  0  2  0  0  3  0  0  0  0  0  0
  190.1980  178.2400  142.5140 F   0  0  0  0  0  0  0  0  0  0  0  0
  183.7940  178.5120  138.1130 C   0  0  0  0  0  2  0  0  0  0  0  0
  188.8970  175.9110  137.2990 C   0  0  0  0  0  1  0  0  0  0  0  0
  184.5500  178.0120  142.4740 C   0  0  0  0  0  2  0  0  0  0  0  0
  184.5680  179.3570  140.3530 C   0  0  2  0  0  3  0  0  0  0  0  0
  188.1510  178.6200  141.3570 C   0  0  0  0  0  3  0  0  0  0  0  0
  186.5500  176.4070  136.6120 C   0  0  0  0  0  3  0  0  0  0  0  0
  186.0500  177.9860  142.4000 C   0  0  0  0  0  0  0  0  0  0  0  0
  186.7560  177.5350  143.5190 C   0  0  0  0  0  3  0  0  0  0  0  0
  183.8430  179.7120  139.0540 C   0  0  0  0  0  2  0  0  0  0  0  0
  185.1420  177.8820  137.9280 C   0  0  0  0  0  0  0  0  0  0  0  0
  185.3290  177.0520  136.8170 C   0  0  0  0  0  3  0  0  0  0  0  0
  181.6960  176.6400  140.1600 O   0  0  0  0  0  0  0  0  0  0  0  0
  181.4220  177.6860  140.8060 C   0  0  0  0  0  0  0  0  0  0  0  0
  182.4700  178.5150  141.3130 N   0  0  0  0  0  2  0  0  0  0  0  0
  179.9760  180.7440  139.8970 C   0  0  0  0  0  0  0  0  0  0  0  0
  179.2830  178.3350  139.6610 C   0  0  0  0  0  2  0  0  0  0  0  0
  180.4630  179.1110  143.2710 C   0  0  0  0  0  1  0  0  0  0  0  0
  180.0700  181.9080  139.4300 O   0  0  0  0  0  0  0  0  0  0  0  0
  179.8230  179.5830  138.9570 C   0  0  0  0  0  2  0  0  0  0  0  0
  179.7590  179.2680  141.9350 C   0  0  2  0  0  3  0  0  0  0  0  0
  179.9820  178.0720  140.9970 C   0  0  2  0  0  3  0  0  0  0  0  0
  180.1250  180.5310  141.3030 N   0  0  0  0  0  2  0  0  0  0  0  0
  1  9  1  0  0  0  0
  1  6  1  0  0  0  0
  2  3  1  6  0  0  0
  2 13  1  0  0  0  0
  2  5  1  0  0  0  0
  4  7  2  0  0  0  0
  5 14  1  0  0  0  0
  5 16  2  0  0  0  0
  7  3  1  0  0  0  0
  8 23  1  1  0  0  0
  8 12  1  0  0  0  0
 10 18  1  0  0  0  0
 11  4  1  0  0  0  0
 13 18  1  6  0  0  0
 13  8  1  0  0  0  0
 14  1  2  0  0  0  0
 15 20  2  0  0  0  0
 15  4  1  0  0  0  0
 16 12  1  0  0  0  0
 16 17  1  0  0  0  0
 17  6  2  0  0  0  0
 19 10  1  0  0  0  0
 19  3  2  0  0  0  0
 20 19  1  0  0  0  0
 21 22  2  0  0  0  0
 22 23  1  0  0  0  0
 24 31  1  0  0  0  0
 25 30  1  0  0  0  0
 27 24  2  0  0  0  0
 28 25  1  0  0  0  0
 28 24  1  0  0  0  0
 29 26  1  1  0  0  0
 30 22  1  6  0  0  0
 30 29  1  0  0  0  0
 31 29  1  0  0  0  0
M  END
>  <MODEL>
7

>  <REMARK>
 VINA RESULT:      -8.1      2.308      5.440
  Name = 
  2 active torsions:
  status: ('A' for Active; 'I' for Inactive)
    1  A    between atoms: C_5  and  C_30
    2  A    between atoms: C_10  and  N_16
                            x       y       z     vdW  Elec       q    Type
                         _______ _______ _______ _____ _____    ______ ____

>  <TORSDO>
F 2

$$$$
=
 OpenBabel11122411053D

 31 35  0  0  1  0  0  0  0  0999 V2000
  188.9500  178.0640  143.6340 C   0  0  0  0  0  0  0  0  0  0  0  0
  186.6930  179.0050  140.7190 C   0  0  2  0  0  3  0  0  0  0  0  0
  187.1030  178.1130  139.5530 C   0  0  0  0  0  0  0  0  0  0  0  0
  188.7970  176.7490  138.4540 C   0  0  0  0  0  0  0  0  0  0  0  0
  187.1420  178.4810  142.0660 C   0  0  0  0  0  0  0  0  0  0  0  0
  188.0540  177.4520  144.5130 C   0  0  0  0  0  3  0  0  0  0  0  0
  188.3690  177.5030  139.5480 C   0  0  0  0  0  3  0  0  0  0  0  0
  184.3810  178.1470  141.2630 C   0  0  2  0  0  3  0  0  0  0  0  0
  190.2620  178.1560  143.9600 F   0  0  0  0  0  0  0  0  0  0  0  0
  184.9200  178.6040  138.3270 C   0  0  0  0  0  2  0  0  0  0  0  0
  190.1330  176.0990  138.4770 C   0  0  0  0  0  1  0  0  0  0  0  0
  184.7540  177.8780  142.7190 C   0  0  0  0  0  2  0  0  0  0  0  0
  185.1890  179.3350  140.7200 C   0  0  2  0  0  3  0  0  0  0  0  0
  188.4950  178.5790  142.4180 C   0  0  0  0  0  3  0  0  0  0  0  0
  187.9720  176.6090  137.3370 C   0  0  0  0  0  3  0  0  0  0  0  0
  186.2360  177.8690  142.9610 C   0  0  0  0  0  0  0  0  0  0  0  0
  186.7000  177.3650  144.1800 C   0  0  0  0  0  3  0  0  0  0  0  0
  184.7460  179.7520  139.3170 C   0  0  0  0  0  2  0  0  0  0  0  0
  186.2890  177.9970  138.3990 C   0  0  0  0  0  0  0  0  0  0  0  0
  186.7230  177.2310  137.3130 C   0  0  0  0  0  3  0  0  0  0  0  0
  182.4790  176.6080  139.7850 O   0  0  0  0  0  0  0  0  0  0  0  0
  182.0530  177.6140  140.4130 C   0  0  0  0  0  0  0  0  0  0  0  0
  182.9540  178.4230  141.1730 N   0  0  0  0  0  2  0  0  0  0  0  0
  179.9080  178.2530  143.1070 C   0  0  0  0  0  0  0  0  0  0  0  0
  180.3180  179.3670  140.8870 C   0  0  0  0  0  2  0  0  0  0  0  0
  179.8830  175.5370  140.4780 C   0  0  0  0  0  1  0  0  0  0  0  0
  179.6880  178.3200  144.3440 O   0  0  0  0  0  0  0  0  0  0  0  0
  180.5270  179.4250  142.4030 C   0  0  0  0  0  2  0  0  0  0  0  0
  179.6410  176.9580  140.9550 C   0  0  2  0  0  3  0  0  0  0  0  0
  180.5980  177.9750  140.3150 C   0  0  2  0  0  3  0  0  0  0  0  0
  179.6700  177.0250  142.4130 N   0  0  0  0  0  2  0  0  0  0  0  0
  1  9  1  0  0  0  0
  1  6  1  0  0  0  0
  2  3  1  6  0  0  0
  2 13  1  0  0  0  0
  2  5  1  0  0  0  0
  4 11  1  0  0  0  0
  4  7  2  0  0  0  0
  5 14  1  0  0  0  0
  5 16  2  0  0  0  0
  7  3  1  0  0  0  0
  8 23  1  1  0  0  0
  8 12  1  0  0  0  0
 10 19  1  0  0  0  0
 10 18  1  0  0  0  0
 12 16  1  0  0  0  0
 13 18  1  6  0  0  0
 13  8  1  0  0  0  0
 14  1  2  0  0  0  0
 15  4  1  0  0  0  0
 16 17  1  0  0  0  0
 17  6  2  0  0  0  0
 19  3  2  0  0  0  0
 20 15  2  0  0  0  0
 20 19  1  0  0  0  0
 21 22  2  0  0  0  0
 22 23  1  0  0  0  0
 24 27  2  0  0  0  0
 25 28  1  0  0  0  0
 28 24  1  0  0  0  0
 29 26  1  1  0  0  0
 29 31  1  0  0  0  0
 30 22  1  1  0  0  0
 30 25  1  0  0  0  0
 30 29  1  0  0  0  0
 31 24  1  0  0  0  0
M  END
>  <MODEL>
8

>  <REMARK>
 VINA RESULT:      -7.9      2.358      5.022
  Name = 
  2 active torsions:
  status: ('A' for Active; 'I' for Inactive)
    1  A    between atoms: C_5  and  C_30
    2  A    between atoms: C_10  and  N_16
                            x       y       z     vdW  Elec       q    Type
                         _______ _______ _______ _____ _____    ______ ____

>  <TORSDO>
F 2

$$$$
=
 OpenBabel11122411053D

 31 35  0  0  1  0  0  0  0  0999 V2000
  185.0480  178.8640  144.5500 C   0  0  0  0  0  0  0  0  0  0  0  0
  188.8030  178.6830  143.9560 C   0  0  2  0  0  3  0  0  0  0  0  0
  189.3640  177.7660  145.0370 C   0  0  0  0  0  0  0  0  0  0  0  0
  189.1590  176.7630  147.2480 C   0  0  0  0  0  0  0  0  0  0  0  0
  187.3140  178.5200  143.7410 C   0  0  0  0  0  0  0  0  0  0  0  0
  184.5440  178.1760  143.4440 C   0  0  0  0  0  3  0  0  0  0  0  0
  188.6290  177.5330  146.2110 C   0  0  0  0  0  3  0  0  0  0  0  0
  189.1580  177.3210  141.8590 C   0  0  2  0  0  3  0  0  0  0  0  0
  184.2010  179.3620  145.4820 F   0  0  0  0  0  0  0  0  0  0  0  0
  191.5290  177.4430  143.7240 C   0  0  0  0  0  2  0  0  0  0  0  0
  188.3570  176.5160  148.4740 C   0  0  0  0  0  1  0  0  0  0  0  0
  187.6800  177.3960  141.4830 C   0  0  0  0  0  2  0  0  0  0  0  0
  189.5730  178.5840  142.6260 C   0  0  2  0  0  3  0  0  0  0  0  0
  186.4260  179.0380  144.6950 C   0  0  0  0  0  3  0  0  0  0  0  0
  190.4430  176.2300  147.1350 C   0  0  0  0  0  3  0  0  0  0  0  0
  186.7990  177.8310  142.6190 C   0  0  0  0  0  0  0  0  0  0  0  0
  185.4170  177.6710  142.4790 C   0  0  0  0  0  3  0  0  0  0  0  0
  191.0790  178.6400  142.8920 C   0  0  0  0  0  2  0  0  0  0  0  0
  190.6820  177.2530  144.9480 C   0  0  0  0  0  0  0  0  0  0  0  0
  191.2000  176.4740  145.9870 C   0  0  0  0  0  3  0  0  0  0  0  0
  188.7360  178.7320  139.4090 O   0  0  0  0  0  0  0  0  0  0  0  0
  189.6920  177.9120  139.4530 C   0  0  0  0  0  0  0  0  0  0  0  0
  189.9570  177.1780  140.6500 N   0  0  0  0  0  2  0  0  0  0  0  0
  189.9390  174.9100  137.6650 C   0  0  0  0  0  0  0  0  0  0  0  0
  189.6510  177.3250  137.0110 C   0  0  0  0  0  2  0  0  0  0  0  0
  192.5170  176.8980  139.5870 C   0  0  0  0  0  1  0  0  0  0  0  0
  189.6570  173.6930  137.5170 O   0  0  0  0  0  0  0  0  0  0  0  0
  188.9840  175.9550  137.1630 C   0  0  0  0  0  2  0  0  0  0  0  0
  191.6340  176.6410  138.3780 C   0  0  2  0  0  3  0  0  0  0  0  0
  190.5190  177.6860  138.2190 C   0  0  2  0  0  3  0  0  0  0  0  0
  191.1060  175.2810  138.4030 N   0  0  0  0  0  2  0  0  0  0  0  0
  1 14  1  0  0  0  0
  1  9  1  0  0  0  0
  2  5  1  6  0  0  0
  2  3  1  0  0  0  0
  3  7  1  0  0  0  0
  4 11  1  0  0  0  0
  5 14  2  0  0  0  0
  6  1  2  0  0  0  0
  7  4  2  0  0  0  0
  8 23  1  6  0  0  0
  8 13  1  0  0  0  0
 10 19  1  0  0  0  0
 12  8  1  0  0  0  0
 12 16  1  0  0  0  0
 13 18  1  1  0  0  0
 13  2  1  0  0  0  0
 15  4  1  0  0  0  0
 16  5  1  0  0  0  0
 17 16  2  0  0  0  0
 17  6  1  0  0  0  0
 18 10  1  0  0  0  0
 19  3  2  0  0  0  0
 19 20  1  0  0  0  0
 20 15  2  0  0  0  0
 21 22  2  0  0  0  0
 22 23  1  0  0  0  0
 24 31  1  0  0  0  0
 25 28  1  0  0  0  0
 25 30  1  0  0  0  0
 27 24  2  0  0  0  0
 28 24  1  0  0  0  0
 29 31  1  0  0  0  0
 29 26  1  1  0  0  0
 30 29  1  0  0  0  0
 30 22  1  1  0  0  0
M  END
>  <MODEL>
9

>  <REMARK>
 VINA RESULT:      -7.7      3.852      6.169
  Name = 
  2 active torsions:
  status: ('A' for Active; 'I' for Inactive)
    1  A    between atoms: C_5  and  C_30
    2  A    between atoms: C_10  and  N_16
                            x       y       z     vdW  Elec       q    Type
                         _______ _______ _______ _____ _____    ______ ____

>  <TORSDO>
F 2

$$$$
