=
 OpenBabel11122410283D

 30 35  0  0  1  0  0  0  0  0999 V2000
  185.9580  178.4800  141.9400 C   0  0  0  0  0  0  0  0  0  0  0  0
  183.4650  178.9100  141.9260 C   0  0  0  0  0  0  0  0  0  0  0  0
  185.8910  177.9070  145.9680 N   0  0  0  0  0  0  0  0  0  0  0  0
  187.1220  178.0910  142.6610 C   0  0  0  0  0  0  0  0  0  0  0  0
  186.1390  178.8980  140.5060 C   0  0  0  0  0  2  0  0  0  0  0  0
  189.4260  177.7100  139.8480 O   0  0  0  0  0  0  0  0  0  0  0  0
  190.0460  178.0610  143.7200 C   0  0  1  0  0  3  0  0  0  0  0  0
  188.3500  177.8410  140.4930 C   0  0  0  0  0  0  0  0  0  0  0  0
  189.3550  177.7060  144.9380 N   0  0  0  0  0  0  0  0  0  0  0  0
  187.1920  177.6920  146.2410 C   0  0  0  0  0  0  0  0  0  0  0  0
  187.0520  177.9480  139.7570 C   0  0  2  0  0  3  0  0  0  0  0  0
  188.3540  177.8010  141.9340 N   0  0  0  0  0  0  0  0  0  0  0  0
  182.2740  179.0010  142.6530 C   0  0  0  0  0  3  0  0  0  0  0  0
  190.2580  177.3480  146.0150 C   0  0  0  0  0  2  0  0  0  0  0  0
  191.5160  177.7830  143.9800 C   0  0  0  0  0  2  0  0  0  0  0  0
  183.3400  179.1250  140.4550 C   0  0  0  0  0  1  0  0  0  0  0  0
  185.7880  178.0700  144.6570 N   0  0  0  0  0  0  0  0  0  0  0  0
  182.2540  178.7840  144.0270 C   0  0  0  0  0  3  0  0  0  0  0  0
  184.6890  178.5910  142.5910 C   0  0  0  0  0  0  0  0  0  0  0  0
  186.9900  177.9550  144.0610 C   0  0  0  0  0  0  0  0  0  0  0  0
  187.7120  177.5210  147.6250 C   0  0  0  0  0  1  0  0  0  0  0  0
  187.9270  177.7290  145.0620 C   0  0  0  0  0  0  0  0  0  0  0  0
  191.6560  177.6030  145.4840 C   0  0  0  0  0  2  0  0  0  0  0  0
  189.3610  175.7440  142.8580 C   0  0  0  0  0  1  0  0  0  0  0  0
  183.4310  178.4660  144.6940 C   0  0  0  0  0  3  0  0  0  0  0  0
  184.6400  178.3610  143.9940 C   0  0  0  0  0  0  0  0  0  0  0  0
  189.5500  177.2270  142.5490 C   0  0  2  0  0  3  0  0  0  0  0  0
  187.2550  178.4300  138.4610 O   0  0  0  0  0  0  0  0  0  0  0  0
  186.0510  176.8210  137.1920 C   0  0  0  0  0  1  0  0  0  0  0  0
  186.0450  178.2070  137.8010 C   0  0  0  0  0  2  0  0  0  0  0  0
  1 19  1  0  0  0  0
  1  4  2  0  0  0  0
  2 19  2  0  0  0  0
  2 13  1  0  0  0  0
  3 10  2  0  0  0  0
  4 20  1  0  0  0  0
  5  1  1  0  0  0  0
  6  8  2  0  0  0  0
  7 15  1  1  0  0  0
  7  9  1  0  0  0  0
  8 12  1  0  0  0  0
  9 22  1  0  0  0  0
  9 14  1  0  0  0  0
 10 21  1  0  0  0  0
 11 28  1  6  0  0  0
 11  8  1  0  0  0  0
 11  5  1  0  0  0  0
 12 27  1  0  0  0  0
 12  4  1  0  0  0  0
 13 18  2  0  0  0  0
 15 23  1  0  0  0  0
 16  2  1  0  0  0  0
 17  3  1  0  0  0  0
 18 25  1  0  0  0  0
 19 26  1  0  0  0  0
 20 17  1  0  0  0  0
 20 22  2  0  0  0  0
 22 10  1  0  0  0  0
 23 14  1  0  0  0  0
 26 17  1  0  0  0  0
 26 25  2  0  0  0  0
 27 24  1  1  0  0  0
 27  7  1  0  0  0  0
 29 30  1  0  0  0  0
 30 28  1  0  0  0  0
M  END
>  <MODEL>
1

>  <REMARK>
 VINA RESULT:      -9.9      0.000      0.000
  Name = 
  2 active torsions:
  status: ('A' for Active; 'I' for Inactive)
    1  A    between atoms: C_11  and  O_28
    2  A    between atoms: O_28  and  C_30
                            x       y       z     vdW  Elec       q    Type
                         _______ _______ _______ _____ _____    ______ ____

>  <TORSDO>
F 2

$$$$
=
 OpenBabel11122410283D

 30 35  0  0  1  0  0  0  0  0999 V2000
  187.0190  177.8000  144.5440 C   0  0  0  0  0  0  0  0  0  0  0  0
  184.7070  178.4250  145.3600 C   0  0  0  0  0  0  0  0  0  0  0  0
  185.9880  178.7580  140.7260 N   0  0  0  0  0  0  0  0  0  0  0  0
  187.9620  177.7530  143.4790 C   0  0  0  0  0  0  0  0  0  0  0  0
  187.4310  177.2010  145.8610 C   0  0  0  0  0  2  0  0  0  0  0  0
  190.9430  176.8720  145.4040 O   0  0  0  0  0  0  0  0  0  0  0  0
  190.1610  176.6960  141.5500 C   0  0  1  0  0  3  0  0  0  0  0  0
  189.7710  177.2580  145.1370 C   0  0  0  0  0  0  0  0  0  0  0  0
  189.3500  177.4240  140.6010 N   0  0  0  0  0  0  0  0  0  0  0  0
  187.1100  178.4510  140.0490 C   0  0  0  0  0  0  0  0  0  0  0  0
  188.8360  177.6150  146.2490 C   0  0  2  0  0  3  0  0  0  0  0  0
  189.3570  177.4400  143.7680 N   0  0  0  0  0  0  0  0  0  0  0  0
  183.4300  178.9020  145.0510 C   0  0  0  0  0  3  0  0  0  0  0  0
  189.9490  177.4910  139.2820 C   0  0  0  0  0  2  0  0  0  0  0  0
  191.4580  176.3760  140.8280 C   0  0  0  0  0  2  0  0  0  0  0  0
  184.9530  178.1310  146.8020 C   0  0  0  0  0  1  0  0  0  0  0  0
  186.2260  178.5190  142.0070 N   0  0  0  0  0  0  0  0  0  0  0  0
  183.0900  179.2470  143.7470 C   0  0  0  0  0  3  0  0  0  0  0  0
  185.6890  178.2840  144.3320 C   0  0  0  0  0  0  0  0  0  0  0  0
  187.4840  178.0720  142.1890 C   0  0  0  0  0  0  0  0  0  0  0  0
  187.2100  178.5360  138.5660 C   0  0  0  0  0  1  0  0  0  0  0  0
  188.0800  177.9980  140.9350 C   0  0  0  0  0  0  0  0  0  0  0  0
  191.2000  176.6350  139.3520 C   0  0  0  0  0  2  0  0  0  0  0  0
  190.8030  178.9900  142.5010 C   0  0  0  0  0  1  0  0  0  0  0  0
  184.0310  179.1240  142.7310 C   0  0  0  0  0  3  0  0  0  0  0  0
  185.3210  178.6550  143.0090 C   0  0  0  0  0  0  0  0  0  0  0  0
  190.4370  177.5360  142.7870 C   0  0  2  0  0  3  0  0  0  0  0  0
  189.2000  176.9630  147.4310 O   0  0  0  0  0  0  0  0  0  0  0  0
  187.9660  178.1690  149.0650 C   0  0  0  0  0  1  0  0  0  0  0  0
  189.3040  177.9780  148.3830 C   0  0  0  0  0  2  0  0  0  0  0  0
  1  5  1  0  0  0  0
  2 16  1  0  0  0  0
  3 17  1  0  0  0  0
  4 12  1  0  0  0  0
  4  1  2  0  0  0  0
  5 11  1  0  0  0  0
  7 15  1  6  0  0  0
  7 27  1  0  0  0  0
  8  6  2  0  0  0  0
  8 11  1  0  0  0  0
  9 22  1  0  0  0  0
  9  7  1  0  0  0  0
 10  3  2  0  0  0  0
 10 22  1  0  0  0  0
 11 28  1  1  0  0  0
 12  8  1  0  0  0  0
 13  2  1  0  0  0  0
 14 23  1  0  0  0  0
 14  9  1  0  0  0  0
 17 20  1  0  0  0  0
 17 26  1  0  0  0  0
 18 13  2  0  0  0  0
 19  1  1  0  0  0  0
 19  2  2  0  0  0  0
 20  4  1  0  0  0  0
 21 10  1  0  0  0  0
 22 20  2  0  0  0  0
 23 15  1  0  0  0  0
 25 26  2  0  0  0  0
 25 18  1  0  0  0  0
 26 19  1  0  0  0  0
 27 24  1  6  0  0  0
 27 12  1  0  0  0  0
 28 30  1  0  0  0  0
 30 29  1  0  0  0  0
M  END
>  <MODEL>
2

>  <REMARK>
 VINA RESULT:      -9.2      2.361      5.466
  Name = 
  2 active torsions:
  status: ('A' for Active; 'I' for Inactive)
    1  A    between atoms: C_11  and  O_28
    2  A    between atoms: O_28  and  C_30
                            x       y       z     vdW  Elec       q    Type
                         _______ _______ _______ _____ _____    ______ ____

>  <TORSDO>
F 2

$$$$
=
 OpenBabel11122410283D

 30 35  0  0  1  0  0  0  0  0999 V2000
  187.4530  177.5910  143.1300 C   0  0  0  0  0  0  0  0  0  0  0  0
  186.2700  178.0280  145.3220 C   0  0  0  0  0  0  0  0  0  0  0  0
  184.2950  179.1110  141.0620 N   0  0  0  0  0  0  0  0  0  0  0  0
  187.4820  177.7320  141.7130 C   0  0  0  0  0  0  0  0  0  0  0  0
  188.5620  176.8020  143.7690 C   0  0  0  0  0  2  0  0  0  0  0  0
  190.9150  176.6290  141.1080 O   0  0  0  0  0  0  0  0  0  0  0  0
  187.8280  177.0410  138.7000 C   0  0  1  0  0  3  0  0  0  0  0  0
  189.8840  177.0250  141.7180 C   0  0  0  0  0  0  0  0  0  0  0  0
  186.6620  177.8900  138.6110 N   0  0  0  0  0  0  0  0  0  0  0  0
  184.6880  178.9400  139.7860 C   0  0  0  0  0  0  0  0  0  0  0  0
  189.9170  177.1820  143.2060 C   0  0  2  0  0  3  0  0  0  0  0  0
  188.7040  177.4090  140.9840 N   0  0  0  0  0  0  0  0  0  0  0  0
  185.1390  178.5170  145.9810 C   0  0  0  0  0  3  0  0  0  0  0  0
  186.2760  178.1760  137.2430 C   0  0  0  0  0  2  0  0  0  0  0  0
  188.3250  176.8670  137.2760 C   0  0  0  0  0  2  0  0  0  0  0  0
  187.3590  177.5160  146.2050 C   0  0  0  0  0  1  0  0  0  0  0  0
  185.2800  178.6790  141.8370 N   0  0  0  0  0  0  0  0  0  0  0  0
  184.0710  179.0550  145.2700 C   0  0  0  0  0  3  0  0  0  0  0  0
  186.3440  178.0710  143.8960 C   0  0  0  0  0  0  0  0  0  0  0  0
  186.3160  178.2390  141.0980 C   0  0  0  0  0  0  0  0  0  0  0  0
  183.8180  179.2580  138.6210 C   0  0  0  0  0  1  0  0  0  0  0  0
  185.9580  178.3760  139.7620 C   0  0  0  0  0  0  0  0  0  0  0  0
  187.2010  177.3490  136.3710 C   0  0  0  0  0  2  0  0  0  0  0  0
  189.1220  179.1720  139.3050 C   0  0  0  0  0  1  0  0  0  0  0  0
  184.1240  179.1140  143.8830 C   0  0  0  0  0  3  0  0  0  0  0  0
  185.2450  178.6360  143.1920 C   0  0  0  0  0  0  0  0  0  0  0  0
  188.9040  177.6830  139.5620 C   0  0  2  0  0  3  0  0  0  0  0  0
  190.8980  176.3610  143.7690 O   0  0  0  0  0  0  0  0  0  0  0  0
  191.6700  176.4180  146.0160 C   0  0  0  0  0  1  0  0  0  0  0  0
  191.5450  177.1680  144.7070 C   0  0  0  0  0  2  0  0  0  0  0  0
  1  5  1  0  0  0  0
  1 19  1  0  0  0  0
  2 13  1  0  0  0  0
  2 16  1  0  0  0  0
  3 17  1  0  0  0  0
  4  1  2  0  0  0  0
  6  8  2  0  0  0  0
  7 15  1  6  0  0  0
  7 27  1  0  0  0  0
  8 11  1  0  0  0  0
  9  7  1  0  0  0  0
  9 22  1  0  0  0  0
 10  3  2  0  0  0  0
 11 28  1  1  0  0  0
 11  5  1  0  0  0  0
 12  4  1  0  0  0  0
 12  8  1  0  0  0  0
 14  9  1  0  0  0  0
 17 26  1  0  0  0  0
 18 13  2  0  0  0  0
 19  2  2  0  0  0  0
 20  4  1  0  0  0  0
 20 17  1  0  0  0  0
 21 10  1  0  0  0  0
 22 10  1  0  0  0  0
 22 20  2  0  0  0  0
 23 14  1  0  0  0  0
 23 15  1  0  0  0  0
 25 18  1  0  0  0  0
 26 25  2  0  0  0  0
 26 19  1  0  0  0  0
 27 24  1  1  0  0  0
 27 12  1  0  0  0  0
 28 30  1  0  0  0  0
 30 29  1  0  0  0  0
M  END
>  <MODEL>
3

>  <REMARK>
 VINA RESULT:      -9.1      1.919      5.739
  Name = 
  2 active torsions:
  status: ('A' for Active; 'I' for Inactive)
    1  A    between atoms: C_11  and  O_28
    2  A    between atoms: O_28  and  C_30
                            x       y       z     vdW  Elec       q    Type
                         _______ _______ _______ _____ _____    ______ ____

>  <TORSDO>
F 2

$$$$
=
 OpenBabel11122410283D

 30 35  0  0  1  0  0  0  0  0999 V2000
  189.1430  177.0890  143.3580 C   0  0  0  0  0  0  0  0  0  0  0  0
  191.1710  176.4220  144.7150 C   0  0  0  0  0  0  0  0  0  0  0  0
  187.0380  177.8130  146.7650 N   0  0  0  0  0  0  0  0  0  0  0  0
  187.8210  177.6170  143.3250 C   0  0  0  0  0  0  0  0  0  0  0  0
  189.7390  176.6340  142.0550 C   0  0  0  0  0  2  0  0  0  0  0  0
  187.5010  178.1050  139.7160 O   0  0  0  0  0  0  0  0  0  0  0  0
  184.8180  177.9700  142.5940 C   0  0  1  0  0  3  0  0  0  0  0  0
  188.0240  177.8970  140.8450 C   0  0  0  0  0  0  0  0  0  0  0  0
  184.7560  178.3050  143.9980 N   0  0  0  0  0  0  0  0  0  0  0  0
  185.8320  178.1630  146.2790 C   0  0  0  0  0  0  0  0  0  0  0  0
  189.4940  177.6360  140.9450 C   0  0  2  0  0  3  0  0  0  0  0  0
  187.2310  177.9950  142.0450 N   0  0  0  0  0  0  0  0  0  0  0  0
  191.7480  176.2460  145.9760 C   0  0  0  0  0  3  0  0  0  0  0  0
  183.4520  178.7900  144.4050 C   0  0  0  0  0  2  0  0  0  0  0  0
  183.4860  178.3980  142.0060 C   0  0  0  0  0  2  0  0  0  0  0  0
  192.0630  176.1370  143.5530 C   0  0  0  0  0  1  0  0  0  0  0  0
  187.8290  177.5890  145.7260 N   0  0  0  0  0  0  0  0  0  0  0  0
  191.0300  176.5150  147.1370 C   0  0  0  0  0  3  0  0  0  0  0  0
  189.8240  176.8830  144.6000 C   0  0  0  0  0  0  0  0  0  0  0  0
  187.1730  177.7950  144.5670 C   0  0  0  0  0  0  0  0  0  0  0  0
  184.6560  178.4380  147.1490 C   0  0  0  0  0  1  0  0  0  0  0  0
  185.8690  178.1500  144.8890 C   0  0  0  0  0  0  0  0  0  0  0  0
  182.5600  178.6500  143.1860 C   0  0  0  0  0  2  0  0  0  0  0  0
  186.0970  180.1740  142.3000 C   0  0  0  0  0  1  0  0  0  0  0  0
  189.7200  176.9700  147.0490 C   0  0  0  0  0  3  0  0  0  0  0  0
  189.1150  177.1630  145.8000 C   0  0  0  0  0  0  0  0  0  0  0  0
  185.9600  178.7050  141.9090 C   0  0  2  0  0  3  0  0  0  0  0  0
  189.9900  177.1250  139.7430 O   0  0  0  0  0  0  0  0  0  0  0  0
  192.0300  176.5300  138.6790 C   0  0  0  0  0  1  0  0  0  0  0  0
  191.3780  177.2190  139.8590 C   0  0  0  0  0  2  0  0  0  0  0  0
  1 19  1  0  0  0  0
  2 13  1  0  0  0  0
  4  1  2  0  0  0  0
  4 20  1  0  0  0  0
  5  1  1  0  0  0  0
  6  8  2  0  0  0  0
  7 15  1  6  0  0  0
  7  9  1  0  0  0  0
  8 11  1  0  0  0  0
  8 12  1  0  0  0  0
  9 14  1  0  0  0  0
  9 22  1  0  0  0  0
 10  3  2  0  0  0  0
 10 21  1  0  0  0  0
 11 28  1  6  0  0  0
 11  5  1  0  0  0  0
 12  4  1  0  0  0  0
 13 18  2  0  0  0  0
 15 23  1  0  0  0  0
 16  2  1  0  0  0  0
 17 26  1  0  0  0  0
 17  3  1  0  0  0  0
 19  2  2  0  0  0  0
 19 26  1  0  0  0  0
 20 22  2  0  0  0  0
 20 17  1  0  0  0  0
 22 10  1  0  0  0  0
 23 14  1  0  0  0  0
 25 18  1  0  0  0  0
 26 25  2  0  0  0  0
 27 12  1  0  0  0  0
 27 24  1  1  0  0  0
 27  7  1  0  0  0  0
 28 30  1  0  0  0  0
 29 30  1  0  0  0  0
M  END
>  <MODEL>
4

>  <REMARK>
 VINA RESULT:      -9.1      1.577      5.584
  Name = 
  2 active torsions:
  status: ('A' for Active; 'I' for Inactive)
    1  A    between atoms: C_11  and  O_28
    2  A    between atoms: O_28  and  C_30
                            x       y       z     vdW  Elec       q    Type
                         _______ _______ _______ _____ _____    ______ ____

>  <TORSDO>
F 2

$$$$
=
 OpenBabel11122410283D

 30 35  0  0  1  0  0  0  0  0999 V2000
  186.1130  178.1610  142.5760 C   0  0  0  0  0  0  0  0  0  0  0  0
  186.8560  178.1640  144.9940 C   0  0  0  0  0  0  0  0  0  0  0  0
  182.2590  178.8210  143.7040 N   0  0  0  0  0  0  0  0  0  0  0  0
  185.0760  178.3600  141.6210 C   0  0  0  0  0  0  0  0  0  0  0  0
  187.4450  177.6880  142.0630 C   0  0  0  0  0  2  0  0  0  0  0  0
  187.0940  178.2820  138.5730 O   0  0  0  0  0  0  0  0  0  0  0  0
  183.2200  177.9120  139.1660 C   0  0  1  0  0  3  0  0  0  0  0  0
  186.7900  178.3510  139.7970 C   0  0  0  0  0  0  0  0  0  0  0  0
  182.2430  178.4050  140.1080 N   0  0  0  0  0  0  0  0  0  0  0  0
  181.6180  178.8160  142.5200 C   0  0  0  0  0  0  0  0  0  0  0  0
  187.8720  178.4520  140.8250 C   0  0  2  0  0  3  0  0  0  0  0  0
  185.4090  178.4200  140.2020 N   0  0  0  0  0  0  0  0  0  0  0  0
  186.5050  178.2930  146.3410 C   0  0  0  0  0  3  0  0  0  0  0  0
  180.9420  178.6260  139.5080 C   0  0  0  0  0  2  0  0  0  0  0  0
  182.5400  177.9400  137.8090 C   0  0  0  0  0  2  0  0  0  0  0  0
  188.3060  177.9420  144.7240 C   0  0  0  0  0  1  0  0  0  0  0  0
  183.5490  178.6510  143.4510 N   0  0  0  0  0  0  0  0  0  0  0  0
  185.1890  178.5390  146.7200 C   0  0  0  0  0  3  0  0  0  0  0  0
  185.8580  178.2820  143.9790 C   0  0  0  0  0  0  0  0  0  0  0  0
  183.7700  178.5460  142.1260 C   0  0  0  0  0  0  0  0  0  0  0  0
  180.1380  178.9250  142.4010 C   0  0  0  0  0  1  0  0  0  0  0  0
  182.5350  178.6300  141.4930 C   0  0  0  0  0  0  0  0  0  0  0  0
  181.0540  178.1240  138.0810 C   0  0  0  0  0  2  0  0  0  0  0  0
  184.1740  180.2930  139.1690 C   0  0  0  0  0  1  0  0  0  0  0  0
  184.2030  178.6650  145.7490 C   0  0  0  0  0  3  0  0  0  0  0  0
  184.5220  178.5460  144.3900 C   0  0  0  0  0  0  0  0  0  0  0  0
  184.4590  178.7940  139.1540 C   0  0  2  0  0  3  0  0  0  0  0  0
  189.0680  177.9160  140.3410 O   0  0  0  0  0  0  0  0  0  0  0  0
  191.0240  177.2760  141.5310 C   0  0  0  0  0  1  0  0  0  0  0  0
  189.5310  177.0880  141.3660 C   0  0  0  0  0  2  0  0  0  0  0  0
  1 19  1  0  0  0  0
  2 13  1  0  0  0  0
  4 20  1  0  0  0  0
  4  1  2  0  0  0  0
  5  1  1  0  0  0  0
  6  8  2  0  0  0  0
  7 15  1  6  0  0  0
  7  9  1  0  0  0  0
  8 12  1  0  0  0  0
  8 11  1  0  0  0  0
  9 22  1  0  0  0  0
 10  3  2  0  0  0  0
 11 28  1  6  0  0  0
 11  5  1  0  0  0  0
 12  4  1  0  0  0  0
 13 18  2  0  0  0  0
 14  9  1  0  0  0  0
 15 23  1  0  0  0  0
 16  2  1  0  0  0  0
 17  3  1  0  0  0  0
 17 26  1  0  0  0  0
 19 26  1  0  0  0  0
 19  2  2  0  0  0  0
 20 17  1  0  0  0  0
 21 10  1  0  0  0  0
 22 20  2  0  0  0  0
 22 10  1  0  0  0  0
 23 14  1  0  0  0  0
 25 18  1  0  0  0  0
 26 25  2  0  0  0  0
 27  7  1  0  0  0  0
 27 24  1  1  0  0  0
 27 12  1  0  0  0  0
 28 30  1  0  0  0  0
 30 29  1  0  0  0  0
M  END
>  <MODEL>
5

>  <REMARK>
 VINA RESULT:      -8.9      2.110      6.077
  Name = 
  2 active torsions:
  status: ('A' for Active; 'I' for Inactive)
    1  A    between atoms: C_11  and  O_28
    2  A    between atoms: O_28  and  C_30
                            x       y       z     vdW  Elec       q    Type
                         _______ _______ _______ _____ _____    ______ ____

>  <TORSDO>
F 2

$$$$
=
 OpenBabel11122410283D

 30 35  0  0  1  0  0  0  0  0999 V2000
  188.0610  177.3220  143.0020 C   0  0  0  0  0  0  0  0  0  0  0  0
  185.9930  178.1230  144.2190 C   0  0  0  0  0  0  0  0  0  0  0  0
  186.5500  178.6360  139.4600 N   0  0  0  0  0  0  0  0  0  0  0  0
  188.8110  177.2510  141.7940 C   0  0  0  0  0  0  0  0  0  0  0  0
  188.6080  176.5970  144.2010 C   0  0  0  0  0  2  0  0  0  0  0  0
  191.9440  175.9430  143.1540 O   0  0  0  0  0  0  0  0  0  0  0  0
  190.5440  176.1080  139.4780 C   0  0  1  0  0  3  0  0  0  0  0  0
  190.7950  176.4640  143.1040 C   0  0  0  0  0  0  0  0  0  0  0  0
  189.6790  176.9770  138.7140 N   0  0  0  0  0  0  0  0  0  0  0  0
  187.5080  178.2620  138.5920 C   0  0  0  0  0  0  0  0  0  0  0  0
  190.0950  176.8380  144.3720 C   0  0  2  0  0  3  0  0  0  0  0  0
  190.1920  176.7790  141.8330 N   0  0  0  0  0  0  0  0  0  0  0  0
  184.7440  178.7470  144.1490 C   0  0  0  0  0  3  0  0  0  0  0  0
  190.0640  177.0710  137.3190 C   0  0  0  0  0  2  0  0  0  0  0  0
  191.6660  175.7070  138.5370 C   0  0  0  0  0  2  0  0  0  0  0  0
  186.4310  177.7080  145.5840 C   0  0  0  0  0  1  0  0  0  0  0  0
  186.9600  178.2870  140.6710 N   0  0  0  0  0  0  0  0  0  0  0  0
  184.2420  179.2130  142.9390 C   0  0  0  0  0  3  0  0  0  0  0  0
  186.7760  177.9520  143.0370 C   0  0  0  0  0  0  0  0  0  0  0  0
  188.1730  177.7040  140.6190 C   0  0  0  0  0  0  0  0  0  0  0  0
  187.3800  178.4360  137.1190 C   0  0  0  0  0  1  0  0  0  0  0  0
  188.5500  177.6540  139.2820 C   0  0  0  0  0  0  0  0  0  0  0  0
  191.2070  176.0900  137.1380 C   0  0  0  0  0  2  0  0  0  0  0  0
  191.5820  178.2550  140.4240 C   0  0  0  0  0  1  0  0  0  0  0  0
  184.9890  179.0630  141.7770 C   0  0  0  0  0  3  0  0  0  0  0  0
  186.2470  178.4470  141.8140 C   0  0  0  0  0  0  0  0  0  0  0  0
  191.1060  176.8300  140.6930 C   0  0  2  0  0  3  0  0  0  0  0  0
  190.5660  176.0740  145.4430 O   0  0  0  0  0  0  0  0  0  0  0  0
  189.8080  177.0660  147.4660 C   0  0  0  0  0  1  0  0  0  0  0  0
  190.9060  177.0060  146.4260 C   0  0  0  0  0  2  0  0  0  0  0  0
  1 19  1  0  0  0  0
  1  5  1  0  0  0  0
  2 16  1  0  0  0  0
  3 17  1  0  0  0  0
  4 12  1  0  0  0  0
  4  1  2  0  0  0  0
  5 11  1  0  0  0  0
  7 15  1  6  0  0  0
  7 27  1  0  0  0  0
  8  6  2  0  0  0  0
  8 11  1  0  0  0  0
  9 22  1  0  0  0  0
  9  7  1  0  0  0  0
 10 22  1  0  0  0  0
 10  3  2  0  0  0  0
 11 28  1  1  0  0  0
 12  8  1  0  0  0  0
 13  2  1  0  0  0  0
 14  9  1  0  0  0  0
 17 26  1  0  0  0  0
 18 13  2  0  0  0  0
 19  2  2  0  0  0  0
 20 17  1  0  0  0  0
 20  4  1  0  0  0  0
 21 10  1  0  0  0  0
 22 20  2  0  0  0  0
 23 14  1  0  0  0  0
 23 15  1  0  0  0  0
 25 26  2  0  0  0  0
 25 18  1  0  0  0  0
 26 19  1  0  0  0  0
 27 24  1  6  0  0  0
 27 12  1  0  0  0  0
 28 30  1  0  0  0  0
 30 29  1  0  0  0  0
M  END
>  <MODEL>
6

>  <REMARK>
 VINA RESULT:      -8.2      2.512      5.842
  Name = 
  2 active torsions:
  status: ('A' for Active; 'I' for Inactive)
    1  A    between atoms: C_11  and  O_28
    2  A    between atoms: O_28  and  C_30
                            x       y       z     vdW  Elec       q    Type
                         _______ _______ _______ _____ _____    ______ ____

>  <TORSDO>
F 2

$$$$
=
 OpenBabel11122410283D

 30 35  0  0  1  0  0  0  0  0999 V2000
  185.7030  178.4700  141.7890 C   0  0  0  0  0  0  0  0  0  0  0  0
  185.7440  178.3360  144.3150 C   0  0  0  0  0  0  0  0  0  0  0  0
  189.6000  177.3110  141.6120 N   0  0  0  0  0  0  0  0  0  0  0  0
  186.3630  178.2450  140.5480 C   0  0  0  0  0  0  0  0  0  0  0  0
  184.3490  179.1230  141.7450 C   0  0  0  0  0  2  0  0  0  0  0  0
  183.5340  178.8000  138.2980 O   0  0  0  0  0  0  0  0  0  0  0  0
  187.4170  178.7060  137.6580 C   0  0  1  0  0  3  0  0  0  0  0  0
  184.1880  178.5940  139.3590 C   0  0  0  0  0  0  0  0  0  0  0  0
  188.5660  178.0330  138.2200 N   0  0  0  0  0  0  0  0  0  0  0  0
  189.8430  177.3510  140.2890 C   0  0  0  0  0  0  0  0  0  0  0  0
  183.4700  178.5190  140.6690 C   0  0  2  0  0  3  0  0  0  0  0  0
  185.6060  178.3440  139.3040 N   0  0  0  0  0  0  0  0  0  0  0  0
  186.4710  178.0550  145.4750 C   0  0  0  0  0  3  0  0  0  0  0  0
  189.5810  177.7290  137.2300 C   0  0  0  0  0  2  0  0  0  0  0  0
  187.6400  178.7240  136.1560 C   0  0  0  0  0  2  0  0  0  0  0  0
  184.3210  178.7330  144.5260 C   0  0  0  0  0  1  0  0  0  0  0  0
  188.3280  177.6380  141.7870 N   0  0  0  0  0  0  0  0  0  0  0  0
  187.7970  177.6400  145.4080 C   0  0  0  0  0  3  0  0  0  0  0  0
  186.3590  178.2010  143.0330 C   0  0  0  0  0  0  0  0  0  0  0  0
  187.7260  177.8800  140.6060 C   0  0  0  0  0  0  0  0  0  0  0  0
  191.1880  177.0970  139.7040 C   0  0  0  0  0  1  0  0  0  0  0  0
  188.6860  177.7210  139.6140 C   0  0  0  0  0  0  0  0  0  0  0  0
  189.1010  178.3610  135.9370 C   0  0  0  0  0  2  0  0  0  0  0  0
  186.2160  176.4470  137.8450 C   0  0  0  0  0  1  0  0  0  0  0  0
  188.4130  177.4950  144.1710 C   0  0  0  0  0  3  0  0  0  0  0  0
  187.7110  177.7630  142.9890 C   0  0  0  0  0  0  0  0  0  0  0  0
  186.1330  177.9640  137.9940 C   0  0  2  0  0  3  0  0  0  0  0  0
  182.2610  179.2180  140.6130 O   0  0  0  0  0  0  0  0  0  0  0  0
  180.3530  179.6970  141.9480 C   0  0  0  0  0  1  0  0  0  0  0  0
  181.5470  178.7910  141.7340 C   0  0  0  0  0  2  0  0  0  0  0  0
  1 19  1  0  0  0  0
  2 16  1  0  0  0  0
  2 13  1  0  0  0  0
  3 17  1  0  0  0  0
  4 20  1  0  0  0  0
  4  1  2  0  0  0  0
  5  1  1  0  0  0  0
  6  8  2  0  0  0  0
  7 15  1  6  0  0  0
  7 27  1  0  0  0  0
  7  9  1  0  0  0  0
  8 11  1  0  0  0  0
  9 22  1  0  0  0  0
 10  3  2  0  0  0  0
 11 28  1  6  0  0  0
 11  5  1  0  0  0  0
 12  8  1  0  0  0  0
 12  4  1  0  0  0  0
 14  9  1  0  0  0  0
 17 26  1  0  0  0  0
 18 13  2  0  0  0  0
 19  2  2  0  0  0  0
 20 17  1  0  0  0  0
 21 10  1  0  0  0  0
 22 10  1  0  0  0  0
 22 20  2  0  0  0  0
 23 15  1  0  0  0  0
 23 14  1  0  0  0  0
 25 18  1  0  0  0  0
 26 19  1  0  0  0  0
 26 25  2  0  0  0  0
 27 24  1  1  0  0  0
 27 12  1  0  0  0  0
 28 30  1  0  0  0  0
 30 29  1  0  0  0  0
M  END
>  <MODEL>
7

>  <REMARK>
 VINA RESULT:      -8.0      2.337      5.701
  Name = 
  2 active torsions:
  status: ('A' for Active; 'I' for Inactive)
    1  A    between atoms: C_11  and  O_28
    2  A    between atoms: O_28  and  C_30
                            x       y       z     vdW  Elec       q    Type
                         _______ _______ _______ _____ _____    ______ ____

>  <TORSDO>
F 2

$$$$
=
 OpenBabel11122410283D

 30 35  0  0  1  0  0  0  0  0999 V2000
  186.6530  178.2770  141.6740 C   0  0  0  0  0  0  0  0  0  0  0  0
  187.0400  178.0260  144.1610 C   0  0  0  0  0  0  0  0  0  0  0  0
  190.3330  176.7280  140.8910 N   0  0  0  0  0  0  0  0  0  0  0  0
  187.1000  178.0410  140.3430 C   0  0  0  0  0  0  0  0  0  0  0  0
  185.3870  179.0690  141.8490 C   0  0  0  0  0  2  0  0  0  0  0  0
  184.0560  178.9890  138.5510 O   0  0  0  0  0  0  0  0  0  0  0  0
  187.7740  178.5190  137.3440 C   0  0  1  0  0  3  0  0  0  0  0  0
  184.8280  178.6680  139.4970 C   0  0  0  0  0  0  0  0  0  0  0  0
  188.9100  177.7050  137.7100 N   0  0  0  0  0  0  0  0  0  0  0  0
  190.3880  176.8010  139.5480 C   0  0  0  0  0  0  0  0  0  0  0  0
  184.3010  178.6090  140.8970 C   0  0  2  0  0  3  0  0  0  0  0  0
  186.1880  178.2740  139.2270 N   0  0  0  0  0  0  0  0  0  0  0  0
  187.8910  177.6180  145.1930 C   0  0  0  0  0  3  0  0  0  0  0  0
  189.7330  177.3420  136.5740 C   0  0  0  0  0  2  0  0  0  0  0  0
  187.7790  178.5820  135.8270 C   0  0  0  0  0  2  0  0  0  0  0  0
  185.7140  178.5590  144.5910 C   0  0  0  0  0  1  0  0  0  0  0  0
  189.1430  177.1770  141.2610 N   0  0  0  0  0  0  0  0  0  0  0  0
  189.1390  177.0700  144.9190 C   0  0  0  0  0  3  0  0  0  0  0  0
  187.4470  177.8860  142.7990 C   0  0  0  0  0  0  0  0  0  0  0  0
  188.4090  177.5340  140.1890 C   0  0  0  0  0  0  0  0  0  0  0  0
  191.5990  176.4350  138.7650 C   0  0  0  0  0  1  0  0  0  0  0  0
  189.1930  177.3200  139.0620 C   0  0  0  0  0  0  0  0  0  0  0  0
  189.1450  178.0780  135.3850 C   0  0  0  0  0  2  0  0  0  0  0  0
  186.3710  176.3920  137.6390 C   0  0  0  0  0  1  0  0  0  0  0  0
  189.5530  176.9180  143.6010 C   0  0  0  0  0  3  0  0  0  0  0  0
  188.7220  177.3110  142.5440 C   0  0  0  0  0  0  0  0  0  0  0  0
  186.4770  177.9010  137.8440 C   0  0  2  0  0  3  0  0  0  0  0  0
  183.1820  179.4320  141.0400 O   0  0  0  0  0  0  0  0  0  0  0  0
  181.9450  179.0290  143.0300 C   0  0  0  0  0  1  0  0  0  0  0  0
  182.2010  178.6100  141.5970 C   0  0  0  0  0  2  0  0  0  0  0  0
  1  5  1  0  0  0  0
  1 19  1  0  0  0  0
  2 16  1  0  0  0  0
  2 13  1  0  0  0  0
  3 17  1  0  0  0  0
  4  1  2  0  0  0  0
  6  8  2  0  0  0  0
  7 15  1  6  0  0  0
  7  9  1  0  0  0  0
  7 27  1  0  0  0  0
  8 11  1  0  0  0  0
  9 22  1  0  0  0  0
 10  3  2  0  0  0  0
 11 28  1  6  0  0  0
 11  5  1  0  0  0  0
 12  8  1  0  0  0  0
 12  4  1  0  0  0  0
 14  9  1  0  0  0  0
 17 26  1  0  0  0  0
 18 13  2  0  0  0  0
 19  2  2  0  0  0  0
 20  4  1  0  0  0  0
 20 17  1  0  0  0  0
 21 10  1  0  0  0  0
 22 10  1  0  0  0  0
 22 20  2  0  0  0  0
 23 15  1  0  0  0  0
 23 14  1  0  0  0  0
 25 18  1  0  0  0  0
 26 19  1  0  0  0  0
 26 25  2  0  0  0  0
 27 24  1  1  0  0  0
 27 12  1  0  0  0  0
 28 30  1  0  0  0  0
 30 29  1  0  0  0  0
M  END
>  <MODEL>
8

>  <REMARK>
 VINA RESULT:      -7.9      2.290      6.081
  Name = 
  2 active torsions:
  status: ('A' for Active; 'I' for Inactive)
    1  A    between atoms: C_11  and  O_28
    2  A    between atoms: O_28  and  C_30
                            x       y       z     vdW  Elec       q    Type
                         _______ _______ _______ _____ _____    ______ ____

>  <TORSDO>
F 2

$$$$
=
 OpenBabel11122410283D

 30 35  0  0  1  0  0  0  0  0999 V2000
  189.7730  177.7170  142.9210 C   0  0  0  0  0  0  0  0  0  0  0  0
  191.2290  177.4830  140.8660 C   0  0  0  0  0  0  0  0  0  0  0  0
  186.4680  178.1780  140.5930 N   0  0  0  0  0  0  0  0  0  0  0  0
  188.4700  177.8300  143.4830 C   0  0  0  0  0  0  0  0  0  0  0  0
  190.9420  177.7930  143.8640 C   0  0  0  0  0  2  0  0  0  0  0  0
  189.3320  177.3510  147.0040 O   0  0  0  0  0  0  0  0  0  0  0  0
  186.1160  178.8090  145.2650 C   0  0  1  0  0  3  0  0  0  0  0  0
  189.4340  177.3630  145.7460 C   0  0  0  0  0  0  0  0  0  0  0  0
  185.4010  178.6090  144.0250 N   0  0  0  0  0  0  0  0  0  0  0  0
  185.5040  178.3750  141.5120 C   0  0  0  0  0  0  0  0  0  0  0  0
  190.7200  176.9480  145.1030 C   0  0  2  0  0  3  0  0  0  0  0  0
  188.2950  177.6880  144.9250 N   0  0  0  0  0  0  0  0  0  0  0  0
  191.3130  177.4500  139.4710 C   0  0  0  0  0  3  0  0  0  0  0  0
  183.9680  178.7740  144.1670 C   0  0  0  0  0  2  0  0  0  0  0  0
  185.0520  178.9870  146.3330 C   0  0  0  0  0  2  0  0  0  0  0  0
  192.5150  177.2830  141.5940 C   0  0  0  0  0  1  0  0  0  0  0  0
  187.6000  177.9740  141.2500 N   0  0  0  0  0  0  0  0  0  0  0  0
  190.1760  177.5870  138.6800 C   0  0  0  0  0  3  0  0  0  0  0  0
  189.9630  177.6630  141.5040 C   0  0  0  0  0  0  0  0  0  0  0  0
  187.4000  178.0220  142.5820 C   0  0  0  0  0  0  0  0  0  0  0  0
  184.0950  178.6950  141.1540 C   0  0  0  0  0  1  0  0  0  0  0  0
  186.0540  178.2990  142.7870 C   0  0  0  0  0  0  0  0  0  0  0  0
  183.7440  179.2330  145.5960 C   0  0  0  0  0  2  0  0  0  0  0  0
  186.3310  176.2540  145.3550 C   0  0  0  0  0  1  0  0  0  0  0  0
  188.9340  177.7560  139.2800 C   0  0  0  0  0  3  0  0  0  0  0  0
  188.8150  177.7890  140.6750 C   0  0  0  0  0  0  0  0  0  0  0  0
  186.9940  177.6090  145.5870 C   0  0  2  0  0  3  0  0  0  0  0  0
  191.7930  177.1240  145.9800 O   0  0  0  0  0  0  0  0  0  0  0  0
  192.4220  175.8230  147.8680 C   0  0  0  0  0  1  0  0  0  0  0  0
  192.1450  175.8330  146.3790 C   0  0  0  0  0  2  0  0  0  0  0  0
  1  4  2  0  0  0  0
  1  5  1  0  0  0  0
  2 19  1  0  0  0  0
  2 16  1  0  0  0  0
  3 17  1  0  0  0  0
  3 10  2  0  0  0  0
  4 12  1  0  0  0  0
  5 11  1  0  0  0  0
  7 27  1  0  0  0  0
  7 15  1  1  0  0  0
  8  6  2  0  0  0  0
  9 14  1  0  0  0  0
  9  7  1  0  0  0  0
 10 22  1  0  0  0  0
 11  8  1  0  0  0  0
 11 28  1  1  0  0  0
 12 27  1  0  0  0  0
 12  8  1  0  0  0  0
 13  2  2  0  0  0  0
 14 23  1  0  0  0  0
 17 20  1  0  0  0  0
 18 25  2  0  0  0  0
 18 13  1  0  0  0  0
 19  1  1  0  0  0  0
 20 22  2  0  0  0  0
 20  4  1  0  0  0  0
 21 10  1  0  0  0  0
 22  9  1  0  0  0  0
 23 15  1  0  0  0  0
 25 26  1  0  0  0  0
 26 17  1  0  0  0  0
 26 19  2  0  0  0  0
 27 24  1  6  0  0  0
 28 30  1  0  0  0  0
 30 29  1  0  0  0  0
M  END
>  <MODEL>
9

>  <REMARK>
 VINA RESULT:      -7.7      2.518      6.731
  Name = 
  2 active torsions:
  status: ('A' for Active; 'I' for Inactive)
    1  A    between atoms: C_11  and  O_28
    2  A    between atoms: O_28  and  C_30
                            x       y       z     vdW  Elec       q    Type
                         _______ _______ _______ _____ _____    ______ ____

>  <TORSDO>
F 2

$$$$
