=
 OpenBabel11122412163D

 34 40  0  0  1  0  0  0  0  0999 V2000
  181.8490  178.7770  143.6400 C   0  0  0  0  0  0  0  0  0  0  0  0
  183.4430  179.0250  145.6540 N   0  0  0  0  0  0  0  0  0  0  0  0
  180.5900  180.8450  138.3810 C   0  0  0  0  0  2  0  0  0  0  0  0
  180.5640  178.4910  141.5990 C   0  0  0  0  0  0  0  0  0  0  0  0
  181.7390  178.1800  139.4970 C   0  0  0  0  0  0  0  0  0  0  0  0
  182.3170  179.3130  137.3630 C   0  0  0  0  0  2  0  0  0  0  0  0
  181.2210  180.3390  137.0880 C   0  0  0  0  0  2  0  0  0  0  0  0
  178.9310  178.9340  138.2840 C   0  0  0  0  0  2  0  0  0  0  0  0
  184.2710  178.7930  143.5970 C   0  0  0  0  0  0  0  0  0  0  0  0
  187.3750  178.0980  143.1460 C   0  0  0  0  0  2  0  0  0  0  0  0
  182.9250  178.2690  140.1620 N   0  0  0  0  0  0  0  0  0  0  0  0
  179.1670  178.1140  139.5510 C   0  0  0  0  0  2  0  0  0  0  0  0
  184.2780  178.5440  142.1740 N   0  0  0  0  0  0  0  0  0  0  0  0
  184.8350  178.9950  145.8730 N   0  0  0  0  0  0  0  0  0  0  0  0
  180.5170  178.2930  140.2070 C   0  0  0  0  0  0  0  0  0  0  0  0
  179.1220  180.4370  138.4770 C   0  0  0  0  0  2  0  0  0  0  0  0
  186.4340  177.8310  144.3330 C   0  0  2  0  0  3  0  0  0  0  0  0
  181.8070  178.5840  142.2480 C   0  0  0  0  0  0  0  0  0  0  0  0
  181.7800  178.0340  138.0070 C   0  0  0  0  0  2  0  0  0  0  0  0
  182.9980  178.4650  141.5040 C   0  0  0  0  0  0  0  0  0  0  0  0
  179.4430  178.7770  143.6830 C   0  0  0  0  0  3  0  0  0  0  0  0
  186.7300  178.8000  141.9470 C   0  0  0  0  0  2  0  0  0  0  0  0
  179.4200  178.5890  142.3350 N   0  0  0  0  0  0  0  0  0  0  0  0
  185.4780  178.0730  141.4780 C   0  0  0  0  0  2  0  0  0  0  0  0
  185.4310  178.9730  144.5180 C   0  0  1  0  0  3  0  0  0  0  0  0
  180.6600  178.8750  144.3630 C   0  0  0  0  0  3  0  0  0  0  0  0
  183.1670  178.8780  144.2820 C   0  0  0  0  0  0  0  0  0  0  0  0
  187.2770  177.6100  145.5810 C   0  0  0  0  0  2  0  0  0  0  0  0
  188.5480  177.0010  145.2220 N   0  0  0  0  0  2  0  0  0  0  0  0
  190.7300  176.1980  147.3840 O   0  0  0  0  0  0  0  0  0  0  0  0
  190.9250  177.3980  145.3580 C   0  0  0  0  0  2  0  0  0  0  0  0
  189.5840  177.7030  145.9620 C   0  0  2  0  0  3  0  0  0  0  0  0
  191.6680  176.6790  146.4590 C   0  0  0  0  0  2  0  0  0  0  0  0
  189.6800  177.1270  147.3560 C   0  0  0  0  0  2  0  0  0  0  0  0
  1 27  1  0  0  0  0
  1 26  1  0  0  0  0
  2 14  2  0  0  0  0
  3 16  1  0  0  0  0
  4 18  1  0  0  0  0
  4 23  2  0  0  0  0
  5 11  1  0  0  0  0
  5 15  2  0  0  0  0
  6 19  1  0  0  0  0
  7  6  1  0  0  0  0
  7  3  1  0  0  0  0
  8 16  1  0  0  0  0
  8 12  1  0  0  0  0
  9 27  2  0  0  0  0
 10 17  1  0  0  0  0
 11 20  2  0  0  0  0
 12 15  1  0  0  0  0
 13  9  1  0  0  0  0
 15  4  1  0  0  0  0
 17 25  1  0  0  0  0
 17 28  1  1  0  0  0
 18  1  2  0  0  0  0
 19  5  1  0  0  0  0
 20 13  1  0  0  0  0
 20 18  1  0  0  0  0
 21 26  2  0  0  0  0
 22 10  1  0  0  0  0
 23 21  1  0  0  0  0
 24 22  1  0  0  0  0
 24 13  1  0  0  0  0
 25  9  1  6  0  0  0
 25 14  1  0  0  0  0
 27  2  1  0  0  0  0
 29 28  1  0  0  0  0
 31 32  1  0  0  0  0
 31 33  1  0  0  0  0
 32 29  1  6  0  0  0
 32 34  1  0  0  0  0
 33 30  1  0  0  0  0
 34 30  1  0  0  0  0
M  END
>  <MODEL>
1

>  <REMARK>
 VINA RESULT:      -8.9      0.000      0.000
  Name = 
  3 active torsions:
  status: ('A' for Active; 'I' for Inactive)
    1  A    between atoms: C_17  and  C_28
    2  A    between atoms: C_28  and  N_29
    3  A    between atoms: N_29  and  C_32
                            x       y       z     vdW  Elec       q    Type
                         _______ _______ _______ _____ _____    ______ ____

>  <TORSDO>
F 3

$$$$
=
 OpenBabel11122412163D

 34 40  0  0  1  0  0  0  0  0999 V2000
  186.6990  178.3240  140.0570 C   0  0  0  0  0  0  0  0  0  0  0  0
  184.5030  179.2800  139.0970 N   0  0  0  0  0  0  0  0  0  0  0  0
  190.8280  179.1570  144.0290 C   0  0  0  0  0  2  0  0  0  0  0  0
  188.6390  177.4060  141.1940 C   0  0  0  0  0  0  0  0  0  0  0  0
  188.5550  177.0790  143.5990 C   0  0  0  0  0  0  0  0  0  0  0  0
  189.4120  177.9740  145.7510 C   0  0  0  0  0  2  0  0  0  0  0  0
  190.7590  178.6320  145.4590 C   0  0  0  0  0  2  0  0  0  0  0  0
  191.6840  176.8960  143.2730 C   0  0  0  0  0  2  0  0  0  0  0  0
  184.7100  178.9470  141.2920 C   0  0  0  0  0  0  0  0  0  0  0  0
  182.1340  179.0020  143.2100 C   0  0  0  0  0  2  0  0  0  0  0  0
  187.2840  177.5690  143.6070 N   0  0  0  0  0  0  0  0  0  0  0  0
  190.6490  176.3710  142.2800 C   0  0  0  0  0  2  0  0  0  0  0  0
  185.2970  178.4900  142.5290 N   0  0  0  0  0  0  0  0  0  0  0  0
  183.2340  179.6390  139.5940 N   0  0  0  0  0  0  0  0  0  0  0  0
  189.2720  176.9870  142.3780 C   0  0  0  0  0  0  0  0  0  0  0  0
  191.8820  178.4090  143.2160 C   0  0  0  0  0  2  0  0  0  0  0  0
  182.2800  178.6930  141.7100 C   0  0  2  0  0  3  0  0  0  0  0  0
  187.3290  177.9110  141.2450 C   0  0  0  0  0  0  0  0  0  0  0  0
  189.1760  176.7170  144.9130 C   0  0  0  0  0  2  0  0  0  0  0  0
  186.6520  177.9840  142.4780 C   0  0  0  0  0  0  0  0  0  0  0  0
  188.6790  177.7190  138.8310 C   0  0  0  0  0  3  0  0  0  0  0  0
  183.4410  179.3210  143.9410 C   0  0  0  0  0  2  0  0  0  0  0  0
  189.2750  177.3240  139.9900 N   0  0  0  0  0  0  0  0  0  0  0  0
  184.4860  178.2360  143.7220 C   0  0  0  0  0  2  0  0  0  0  0  0
  183.3670  179.5580  141.0660 C   0  0  1  0  0  3  0  0  0  0  0  0
  187.3780  178.2280  138.8420 C   0  0  0  0  0  3  0  0  0  0  0  0
  185.3320  178.8550  140.1520 C   0  0  0  0  0  0  0  0  0  0  0  0
  180.9280  178.8910  141.0400 C   0  0  0  0  0  2  0  0  0  0  0  0
  180.2970  180.1030  141.5390 N   0  0  0  0  0  2  0  0  0  0  0  0
  179.4860  182.2290  139.3250 O   0  0  0  0  0  0  0  0  0  0  0  0
  179.3870  179.8680  139.3150 C   0  0  0  0  0  2  0  0  0  0  0  0
  179.1250  180.3480  140.7140 C   0  0  2  0  0  3  0  0  0  0  0  0
  179.3170  181.1240  138.4780 C   0  0  0  0  0  2  0  0  0  0  0  0
  178.9310  181.8380  140.5510 C   0  0  0  0  0  2  0  0  0  0  0  0
  1 27  1  0  0  0  0
  1 18  1  0  0  0  0
  2 14  2  0  0  0  0
  2 27  1  0  0  0  0
  3  7  1  0  0  0  0
  4 18  2  0  0  0  0
  4 15  1  0  0  0  0
  5 11  1  0  0  0  0
  5 19  1  0  0  0  0
  7  6  1  0  0  0  0
  9 13  1  0  0  0  0
 10 22  1  0  0  0  0
 12 15  1  0  0  0  0
 12  8  1  0  0  0  0
 13 24  1  0  0  0  0
 15  5  2  0  0  0  0
 16  8  1  0  0  0  0
 16  3  1  0  0  0  0
 17 28  1  6  0  0  0
 17 10  1  0  0  0  0
 18 20  1  0  0  0  0
 19  6  1  0  0  0  0
 20 13  1  0  0  0  0
 20 11  2  0  0  0  0
 21 26  1  0  0  0  0
 21 23  2  0  0  0  0
 23  4  1  0  0  0  0
 24 22  1  0  0  0  0
 25 14  1  6  0  0  0
 25  9  1  0  0  0  0
 25 17  1  0  0  0  0
 26  1  2  0  0  0  0
 27  9  2  0  0  0  0
 28 29  1  0  0  0  0
 30 34  1  0  0  0  0
 31 32  1  0  0  0  0
 32 29  1  1  0  0  0
 33 31  1  0  0  0  0
 33 30  1  0  0  0  0
 34 32  1  0  0  0  0
M  END
>  <MODEL>
2

>  <REMARK>
 VINA RESULT:      -8.4      3.294      9.392
  Name = 
  3 active torsions:
  status: ('A' for Active; 'I' for Inactive)
    1  A    between atoms: C_17  and  C_28
    2  A    between atoms: C_28  and  N_29
    3  A    between atoms: N_29  and  C_32
                            x       y       z     vdW  Elec       q    Type
                         _______ _______ _______ _____ _____    ______ ____

>  <TORSDO>
F 3

$$$$
=
 OpenBabel11122412163D

 34 40  0  0  1  0  0  0  0  0999 V2000
  188.5110  177.2400  137.8330 C   0  0  0  0  0  0  0  0  0  0  0  0
  187.0250  178.6400  139.4110 N   0  0  0  0  0  0  0  0  0  0  0  0
  193.9280  176.5100  135.9260 C   0  0  0  0  0  2  0  0  0  0  0  0
  190.0490  175.8520  136.5650 C   0  0  0  0  0  0  0  0  0  0  0  0
  191.9630  174.8730  137.6930 C   0  0  0  0  0  0  0  0  0  0  0  0
  194.4310  175.0370  137.9120 C   0  0  0  0  0  2  0  0  0  0  0  0
  194.9610  175.6140  136.6020 C   0  0  0  0  0  2  0  0  0  0  0  0
  192.9870  174.4800  134.7390 C   0  0  0  0  0  2  0  0  0  0  0  0
  188.8850  177.6850  140.1860 C   0  0  0  0  0  0  0  0  0  0  0  0
  189.4170  177.4530  143.3450 C   0  0  0  0  0  2  0  0  0  0  0  0
  191.5640  175.4640  138.8540 N   0  0  0  0  0  0  0  0  0  0  0  0
  191.5380  174.3600  135.2070 C   0  0  0  0  0  2  0  0  0  0  0  0
  190.0570  176.8420  140.1900 N   0  0  0  0  0  0  0  0  0  0  0  0
  187.0040  178.9690  140.7820 N   0  0  0  0  0  0  0  0  0  0  0  0
  191.2070  175.0570  136.5070 C   0  0  0  0  0  0  0  0  0  0  0  0
  193.4720  175.9210  134.5940 C   0  0  0  0  0  2  0  0  0  0  0  0
  188.1120  177.5650  142.5380 C   0  0  2  0  0  3  0  0  0  0  0  0
  189.6740  176.4500  137.7800 C   0  0  0  0  0  0  0  0  0  0  0  0
  193.2440  174.0960  137.7050 C   0  0  0  0  0  2  0  0  0  0  0  0
  190.4520  176.2400  138.9350 C   0  0  0  0  0  0  0  0  0  0  0  0
  188.1470  176.8120  135.4940 C   0  0  0  0  0  3  0  0  0  0  0  0
  190.7000  177.4220  142.5090 C   0  0  0  0  0  2  0  0  0  0  0  0
  189.2750  176.0500  135.4590 N   0  0  0  0  0  0  0  0  0  0  0  0
  190.6460  176.3450  141.4360 C   0  0  0  0  0  2  0  0  0  0  0  0
  188.2910  178.4650  141.3110 C   0  0  1  0  0  3  0  0  0  0  0  0
  187.7430  177.4240  136.6840 C   0  0  0  0  0  3  0  0  0  0  0  0
  188.1570  177.8560  139.1200 C   0  0  0  0  0  0  0  0  0  0  0  0
  187.0140  178.0770  143.4600 C   0  0  0  0  0  2  0  0  0  0  0  0
  187.3980  177.8820  144.8490 N   0  0  0  0  0  2  0  0  0  0  0  0
  185.3080  179.3970  146.6960 O   0  0  0  0  0  0  0  0  0  0  0  0
  184.9870  177.9870  144.8280 C   0  0  0  0  0  2  0  0  0  0  0  0
  186.1970  177.5110  145.5780 C   0  0  2  0  0  3  0  0  0  0  0  0
  184.3460  178.9870  145.7620 C   0  0  0  0  0  2  0  0  0  0  0  0
  186.1410  178.2830  146.8760 C   0  0  0  0  0  2  0  0  0  0  0  0
  1 27  1  0  0  0  0
  2 14  2  0  0  0  0
  3  7  1  0  0  0  0
  4 18  1  0  0  0  0
  5 19  1  0  0  0  0
  5 11  2  0  0  0  0
  7  6  1  0  0  0  0
  8 12  1  0  0  0  0
  9 13  1  0  0  0  0
 11 20  1  0  0  0  0
 12 15  1  0  0  0  0
 13 24  1  0  0  0  0
 14 25  1  0  0  0  0
 15  4  2  0  0  0  0
 15  5  1  0  0  0  0
 16  8  1  0  0  0  0
 16  3  1  0  0  0  0
 17 10  1  0  0  0  0
 17 28  1  1  0  0  0
 18  1  1  0  0  0  0
 18 20  2  0  0  0  0
 19  6  1  0  0  0  0
 20 13  1  0  0  0  0
 21 26  1  0  0  0  0
 22 10  1  0  0  0  0
 23 21  2  0  0  0  0
 23  4  1  0  0  0  0
 24 22  1  0  0  0  0
 25  9  1  6  0  0  0
 25 17  1  0  0  0  0
 26  1  2  0  0  0  0
 27  2  1  0  0  0  0
 27  9  2  0  0  0  0
 28 29  1  0  0  0  0
 30 34  1  0  0  0  0
 31 32  1  0  0  0  0
 31 33  1  0  0  0  0
 32 29  1  6  0  0  0
 32 34  1  0  0  0  0
 33 30  1  0  0  0  0
M  END
>  <MODEL>
3

>  <REMARK>
 VINA RESULT:      -8.3      6.061      9.307
  Name = 
  3 active torsions:
  status: ('A' for Active; 'I' for Inactive)
    1  A    between atoms: C_17  and  C_28
    2  A    between atoms: C_28  and  N_29
    3  A    between atoms: N_29  and  C_32
                            x       y       z     vdW  Elec       q    Type
                         _______ _______ _______ _____ _____    ______ ____

>  <TORSDO>
F 3

$$$$
=
 OpenBabel11122412163D

 34 40  0  0  1  0  0  0  0  0999 V2000
  186.9410  178.2570  140.0730 C   0  0  0  0  0  0  0  0  0  0  0  0
  184.8230  179.2080  138.9480 N   0  0  0  0  0  0  0  0  0  0  0  0
  190.7870  179.1300  144.3110 C   0  0  0  0  0  2  0  0  0  0  0  0
  188.7920  177.3470  141.3560 C   0  0  0  0  0  0  0  0  0  0  0  0
  188.5380  177.0570  143.7530 C   0  0  0  0  0  0  0  0  0  0  0  0
  189.2480  177.9800  145.9470 C   0  0  0  0  0  2  0  0  0  0  0  0
  190.6150  178.6280  145.7400 C   0  0  0  0  0  2  0  0  0  0  0  0
  191.6800  176.8550  143.6500 C   0  0  0  0  0  2  0  0  0  0  0  0
  184.8730  178.9080  141.1560 C   0  0  0  0  0  0  0  0  0  0  0  0
  182.1700  179.0030  142.8880 C   0  0  0  0  0  2  0  0  0  0  0  0
  187.2720  177.5530  143.6660 N   0  0  0  0  0  0  0  0  0  0  0  0
  190.7150  176.3190  142.5940 C   0  0  0  0  0  2  0  0  0  0  0  0
  185.3710  178.4660  142.4380 N   0  0  0  0  0  0  0  0  0  0  0  0
  183.5240  179.5800  139.3490 N   0  0  0  0  0  0  0  0  0  0  0  0
  189.3370  176.9430  142.5870 C   0  0  0  0  0  0  0  0  0  0  0  0
  191.8900  178.3660  143.5850 C   0  0  0  0  0  2  0  0  0  0  0  0
  182.4190  178.6710  141.4070 C   0  0  2  0  0  3  0  0  0  0  0  0
  187.4840  177.8590  141.3080 C   0  0  0  0  0  0  0  0  0  0  0  0
  189.0640  176.7120  145.1130 C   0  0  0  0  0  2  0  0  0  0  0  0
  186.7230  177.9540  142.4890 C   0  0  0  0  0  0  0  0  0  0  0  0
  188.9980  177.6250  138.9970 C   0  0  0  0  0  3  0  0  0  0  0  0
  183.4250  179.3260  143.7040 C   0  0  0  0  0  2  0  0  0  0  0  0
  189.5090  177.2440  140.2000 N   0  0  0  0  0  0  0  0  0  0  0  0
  184.4770  178.2340  143.5750 C   0  0  0  0  0  2  0  0  0  0  0  0
  183.5530  179.5210  140.8280 C   0  0  1  0  0  3  0  0  0  0  0  0
  187.7020  178.1400  138.9100 C   0  0  0  0  0  3  0  0  0  0  0  0
  185.5740  178.7950  140.0640 C   0  0  0  0  0  0  0  0  0  0  0  0
  181.1180  178.8650  140.6410 C   0  0  0  0  0  2  0  0  0  0  0  0
  180.3860  177.6100  140.5770 N   0  0  0  0  0  2  0  0  0  0  0  0
  179.7730  175.1240  138.7000 O   0  0  0  0  0  0  0  0  0  0  0  0
  181.0740  177.0600  138.3300 C   0  0  0  0  0  2  0  0  0  0  0  0
  181.1800  176.6890  139.7810 C   0  0  2  0  0  3  0  0  0  0  0  0
  180.4080  175.8630  137.6930 C   0  0  0  0  0  2  0  0  0  0  0  0
  180.5620  175.3110  139.8440 C   0  0  0  0  0  2  0  0  0  0  0  0
  1 18  1  0  0  0  0
  2 14  2  0  0  0  0
  2 27  1  0  0  0  0
  3  7  1  0  0  0  0
  4 15  1  0  0  0  0
  5 19  1  0  0  0  0
  7  6  1  0  0  0  0
  9 13  1  0  0  0  0
 10 22  1  0  0  0  0
 11  5  1  0  0  0  0
 12  8  1  0  0  0  0
 13 20  1  0  0  0  0
 13 24  1  0  0  0  0
 15 12  1  0  0  0  0
 15  5  2  0  0  0  0
 16  8  1  0  0  0  0
 16  3  1  0  0  0  0
 17 28  1  6  0  0  0
 17 10  1  0  0  0  0
 18  4  2  0  0  0  0
 18 20  1  0  0  0  0
 19  6  1  0  0  0  0
 20 11  2  0  0  0  0
 21 23  2  0  0  0  0
 23  4  1  0  0  0  0
 24 22  1  0  0  0  0
 25 14  1  6  0  0  0
 25  9  1  0  0  0  0
 25 17  1  0  0  0  0
 26 21  1  0  0  0  0
 26  1  2  0  0  0  0
 27  1  1  0  0  0  0
 27  9  2  0  0  0  0
 29 28  1  0  0  0  0
 30 34  1  0  0  0  0
 31 32  1  0  0  0  0
 32 34  1  0  0  0  0
 32 29  1  1  0  0  0
 33 31  1  0  0  0  0
 33 30  1  0  0  0  0
M  END
>  <MODEL>
4

>  <REMARK>
 VINA RESULT:      -8.3      3.175      9.203
  Name = 
  3 active torsions:
  status: ('A' for Active; 'I' for Inactive)
    1  A    between atoms: C_17  and  C_28
    2  A    between atoms: C_28  and  N_29
    3  A    between atoms: N_29  and  C_32
                            x       y       z     vdW  Elec       q    Type
                         _______ _______ _______ _____ _____    ______ ____

>  <TORSDO>
F 3

$$$$
=
 OpenBabel11122412163D

 34 40  0  0  1  0  0  0  0  0999 V2000
  185.4700  178.5750  141.8120 C   0  0  0  0  0  0  0  0  0  0  0  0
  188.0360  178.5430  142.0850 N   0  0  0  0  0  0  0  0  0  0  0  0
  181.0810  181.2100  139.1090 C   0  0  0  0  0  2  0  0  0  0  0  0
  183.0960  178.5570  141.2980 C   0  0  0  0  0  0  0  0  0  0  0  0
  182.3910  178.3940  138.9800 C   0  0  0  0  0  0  0  0  0  0  0  0
  181.4000  179.6990  137.1130 C   0  0  0  0  0  2  0  0  0  0  0  0
  180.5500  180.8020  137.7390 C   0  0  0  0  0  2  0  0  0  0  0  0
  179.6530  179.4060  140.1670 C   0  0  0  0  0  2  0  0  0  0  0  0
  187.1290  178.4710  140.0490 C   0  0  0  0  0  0  0  0  0  0  0  0
  188.8980  177.6660  137.4920 C   0  0  0  0  0  2  0  0  0  0  0  0
  183.6990  178.3570  138.5980 N   0  0  0  0  0  0  0  0  0  0  0  0
  180.6300  178.4540  140.8560 C   0  0  0  0  0  2  0  0  0  0  0  0
  186.0980  178.3630  139.0440 N   0  0  0  0  0  0  0  0  0  0  0  0
  189.1580  178.4200  141.2410 N   0  0  0  0  0  0  0  0  0  0  0  0
  182.0560  178.4980  140.3530 C   0  0  0  0  0  0  0  0  0  0  0  0
  180.0830  180.8710  140.2130 C   0  0  0  0  0  2  0  0  0  0  0  0
  189.0560  177.3320  138.9850 C   0  0  2  0  0  3  0  0  0  0  0  0
  184.4330  178.5220  140.8640 C   0  0  0  0  0  0  0  0  0  0  0  0
  181.3470  178.3920  137.9060 C   0  0  0  0  0  2  0  0  0  0  0  0
  184.7220  178.4160  139.4890 C   0  0  0  0  0  0  0  0  0  0  0  0
  183.8240  178.6940  143.5640 C   0  0  0  0  0  3  0  0  0  0  0  0
  187.6720  178.5140  137.1400 C   0  0  0  0  0  2  0  0  0  0  0  0
  182.8320  178.6410  142.6330 N   0  0  0  0  0  0  0  0  0  0  0  0
  186.3900  177.9020  137.6840 C   0  0  0  0  0  2  0  0  0  0  0  0
  188.6100  178.5010  139.8680 C   0  0  1  0  0  3  0  0  0  0  0  0
  185.1650  178.6630  143.1710 C   0  0  0  0  0  3  0  0  0  0  0  0
  186.8540  178.5450  141.3200 C   0  0  0  0  0  0  0  0  0  0  0  0
  190.5050  176.9470  139.2460 C   0  0  0  0  0  2  0  0  0  0  0  0
  190.7700  175.6170  138.7200 N   0  0  0  0  0  2  0  0  0  0  0  0
  193.9150  176.0500  138.6890 O   0  0  0  0  0  0  0  0  0  0  0  0
  192.5570  174.4710  137.5730 C   0  0  0  0  0  2  0  0  0  0  0  0
  191.7880  175.7550  137.6930 C   0  0  2  0  0  3  0  0  0  0  0  0
  193.9650  174.8480  137.9690 C   0  0  0  0  0  2  0  0  0  0  0  0
  192.8280  176.7530  138.1490 C   0  0  0  0  0  2  0  0  0  0  0  0
  1 26  1  0  0  0  0
  3 16  1  0  0  0  0
  4 23  2  0  0  0  0
  5 15  2  0  0  0  0
  6  7  1  0  0  0  0
  6 19  1  0  0  0  0
  7  3  1  0  0  0  0
  8 16  1  0  0  0  0
  8 12  1  0  0  0  0
  9 27  2  0  0  0  0
 10 17  1  0  0  0  0
 11  5  1  0  0  0  0
 11 20  2  0  0  0  0
 13 20  1  0  0  0  0
 13  9  1  0  0  0  0
 14  2  2  0  0  0  0
 15 12  1  0  0  0  0
 15  4  1  0  0  0  0
 17 28  1  6  0  0  0
 17 25  1  0  0  0  0
 18  4  1  0  0  0  0
 18  1  2  0  0  0  0
 19  5  1  0  0  0  0
 20 18  1  0  0  0  0
 22 10  1  0  0  0  0
 22 24  1  0  0  0  0
 23 21  1  0  0  0  0
 24 13  1  0  0  0  0
 25  9  1  1  0  0  0
 25 14  1  0  0  0  0
 26 21  2  0  0  0  0
 27  1  1  0  0  0  0
 27  2  1  0  0  0  0
 29 28  1  0  0  0  0
 31 32  1  0  0  0  0
 31 33  1  0  0  0  0
 32 34  1  0  0  0  0
 32 29  1  1  0  0  0
 33 30  1  0  0  0  0
 34 30  1  0  0  0  0
M  END
>  <MODEL>
5

>  <REMARK>
 VINA RESULT:      -8.1      4.090      5.134
  Name = 
  3 active torsions:
  status: ('A' for Active; 'I' for Inactive)
    1  A    between atoms: C_17  and  C_28
    2  A    between atoms: C_28  and  N_29
    3  A    between atoms: N_29  and  C_32
                            x       y       z     vdW  Elec       q    Type
                         _______ _______ _______ _____ _____    ______ ____

>  <TORSDO>
F 3

$$$$
=
 OpenBabel11122412163D

 34 40  0  0  1  0  0  0  0  0999 V2000
  190.5750  177.2930  143.3840 C   0  0  0  0  0  0  0  0  0  0  0  0
  192.6700  177.3200  141.8780 N   0  0  0  0  0  0  0  0  0  0  0  0
  185.7040  180.1390  144.6810 C   0  0  0  0  0  2  0  0  0  0  0  0
  188.4600  177.2620  144.5780 C   0  0  0  0  0  0  0  0  0  0  0  0
  186.3900  177.4300  143.3200 C   0  0  0  0  0  0  0  0  0  0  0  0
  184.5130  178.9670  142.7900 C   0  0  0  0  0  2  0  0  0  0  0  0
  184.3720  179.9270  143.9690 C   0  0  0  0  0  2  0  0  0  0  0  0
  185.2030  178.1390  146.1510 C   0  0  0  0  0  2  0  0  0  0  0  0
  190.6430  177.5270  140.9740 C   0  0  0  0  0  0  0  0  0  0  0  0
  190.2160  177.1950  137.8070 C   0  0  0  0  0  2  0  0  0  0  0  0
  187.1130  177.5030  142.1670 N   0  0  0  0  0  0  0  0  0  0  0  0
  186.3180  177.1310  145.8750 C   0  0  0  0  0  2  0  0  0  0  0  0
  189.2000  177.5350  140.9030 N   0  0  0  0  0  0  0  0  0  0  0  0
  192.9430  177.3720  140.4960 N   0  0  0  0  0  0  0  0  0  0  0  0
  187.0550  177.3080  144.5670 C   0  0  0  0  0  0  0  0  0  0  0  0
  185.6620  179.5950  146.1070 C   0  0  0  0  0  2  0  0  0  0  0  0
  191.2960  176.6420  138.7520 C   0  0  2  0  0  3  0  0  0  0  0  0
  189.1700  177.3460  143.3680 C   0  0  0  0  0  0  0  0  0  0  0  0
  184.9010  177.5530  143.2230 C   0  0  0  0  0  2  0  0  0  0  0  0
  188.4710  177.4640  142.1510 C   0  0  0  0  0  0  0  0  0  0  0  0
  190.5110  177.0760  145.7800 C   0  0  0  0  0  3  0  0  0  0  0  0
  189.1300  178.0390  138.4810 C   0  0  0  0  0  2  0  0  0  0  0  0
  189.1510  177.1280  145.7470 N   0  0  0  0  0  0  0  0  0  0  0  0
  188.4870  177.3000  139.6460 C   0  0  0  0  0  2  0  0  0  0  0  0
  191.6320  177.6420  139.8620 C   0  0  1  0  0  3  0  0  0  0  0  0
  191.2510  177.1580  144.5970 C   0  0  0  0  0  3  0  0  0  0  0  0
  191.2820  177.3930  142.1000 C   0  0  0  0  0  0  0  0  0  0  0  0
  192.5230  176.2780  137.9280 C   0  0  0  0  0  2  0  0  0  0  0  0
  192.7420  174.8410  137.9690 N   0  0  0  0  0  2  0  0  0  0  0  0
  195.3220  173.3730  139.0940 O   0  0  0  0  0  0  0  0  0  0  0  0
  194.2100  173.1770  137.0190 C   0  0  0  0  0  2  0  0  0  0  0  0
  194.0920  174.5990  137.4870 C   0  0  2  0  0  3  0  0  0  0  0  0
  195.2330  172.5680  137.9490 C   0  0  0  0  0  2  0  0  0  0  0  0
  195.0590  174.6750  138.6460 C   0  0  0  0  0  2  0  0  0  0  0  0
  1 26  1  0  0  0  0
  2 27  1  0  0  0  0
  3 16  1  0  0  0  0
  4 23  2  0  0  0  0
  5 15  2  0  0  0  0
  6 19  1  0  0  0  0
  6  7  1  0  0  0  0
  7  3  1  0  0  0  0
  9 27  2  0  0  0  0
 10 22  1  0  0  0  0
 10 17  1  0  0  0  0
 11  5  1  0  0  0  0
 12  8  1  0  0  0  0
 13  9  1  0  0  0  0
 13 20  1  0  0  0  0
 14  2  2  0  0  0  0
 15  4  1  0  0  0  0
 15 12  1  0  0  0  0
 16  8  1  0  0  0  0
 17 28  1  6  0  0  0
 17 25  1  0  0  0  0
 18  1  2  0  0  0  0
 18  4  1  0  0  0  0
 19  5  1  0  0  0  0
 20 11  2  0  0  0  0
 20 18  1  0  0  0  0
 22 24  1  0  0  0  0
 23 21  1  0  0  0  0
 24 13  1  0  0  0  0
 25 14  1  1  0  0  0
 25  9  1  0  0  0  0
 26 21  2  0  0  0  0
 27  1  1  0  0  0  0
 28 29  1  0  0  0  0
 31 32  1  0  0  0  0
 31 33  1  0  0  0  0
 32 29  1  1  0  0  0
 32 34  1  0  0  0  0
 33 30  1  0  0  0  0
 34 30  1  0  0  0  0
M  END
>  <MODEL>
6

>  <REMARK>
 VINA RESULT:      -7.8      5.011      8.426
  Name = 
  3 active torsions:
  status: ('A' for Active; 'I' for Inactive)
    1  A    between atoms: C_17  and  C_28
    2  A    between atoms: C_28  and  N_29
    3  A    between atoms: N_29  and  C_32
                            x       y       z     vdW  Elec       q    Type
                         _______ _______ _______ _____ _____    ______ ____

>  <TORSDO>
F 3

$$$$
=
 OpenBabel11122412163D

 34 40  0  0  1  0  0  0  0  0999 V2000
  187.0660  178.2000  140.4860 C   0  0  0  0  0  0  0  0  0  0  0  0
  189.1970  177.6210  141.8200 N   0  0  0  0  0  0  0  0  0  0  0  0
  181.6070  176.5770  139.4440 C   0  0  0  0  0  2  0  0  0  0  0  0
  184.9370  178.7690  139.4640 C   0  0  0  0  0  0  0  0  0  0  0  0
  182.9700  178.9790  140.8720 C   0  0  0  0  0  0  0  0  0  0  0  0
  180.8360  177.8600  141.4750 C   0  0  0  0  0  2  0  0  0  0  0  0
  180.4060  177.0310  140.2670 C   0  0  0  0  0  2  0  0  0  0  0  0
  181.4690  178.7270  138.1130 C   0  0  0  0  0  2  0  0  0  0  0  0
  187.2390  177.8060  142.8700 C   0  0  0  0  0  0  0  0  0  0  0  0
  187.1070  178.0240  146.0720 C   0  0  0  0  0  2  0  0  0  0  0  0
  183.7320  178.6770  141.9600 N   0  0  0  0  0  0  0  0  0  0  0  0
  182.7970  179.4460  138.3470 C   0  0  0  0  0  2  0  0  0  0  0  0
  185.8390  178.1100  143.0530 N   0  0  0  0  0  0  0  0  0  0  0  0
  189.5420  177.4230  143.1730 N   0  0  0  0  0  0  0  0  0  0  0  0
  183.5600  179.0300  139.5840 C   0  0  0  0  0  0  0  0  0  0  0  0
  181.5940  177.2060  138.0530 C   0  0  0  0  0  2  0  0  0  0  0  0
  188.2190  178.3850  145.0720 C   0  0  2  0  0  3  0  0  0  0  0  0
  185.6880  178.4550  140.6100 C   0  0  0  0  0  0  0  0  0  0  0  0
  181.5000  179.1800  141.0790 C   0  0  0  0  0  2  0  0  0  0  0  0
  185.0620  178.4170  141.8710 C   0  0  0  0  0  0  0  0  0  0  0  0
  186.8930  178.5760  138.1150 C   0  0  0  0  0  3  0  0  0  0  0  0
  185.8180  177.4830  145.4470 C   0  0  0  0  0  2  0  0  0  0  0  0
  185.5610  178.8210  138.2520 N   0  0  0  0  0  0  0  0  0  0  0  0
  185.2800  178.4160  144.3720 C   0  0  0  0  0  2  0  0  0  0  0  0
  188.2490  177.4070  143.8940 C   0  0  1  0  0  3  0  0  0  0  0  0
  187.6730  178.2590  139.2310 C   0  0  0  0  0  3  0  0  0  0  0  0
  187.8160  177.8670  141.7050 C   0  0  0  0  0  0  0  0  0  0  0  0
  189.5480  178.4190  145.8140 C   0  0  0  0  0  2  0  0  0  0  0  0
  189.8750  177.0920  146.3100 N   0  0  0  0  0  2  0  0  0  0  0  0
  191.9770  175.1180  147.6380 O   0  0  0  0  0  0  0  0  0  0  0  0
  191.7820  175.9090  145.4210 C   0  0  0  0  0  2  0  0  0  0  0  0
  191.3240  176.9940  146.3530 C   0  0  2  0  0  3  0  0  0  0  0  0
  192.4320  174.8940  146.3310 C   0  0  0  0  0  2  0  0  0  0  0  0
  191.7530  176.5010  147.7150 C   0  0  0  0  0  2  0  0  0  0  0  0
  1 18  1  0  0  0  0
  1 27  1  0  0  0  0
  2 14  2  0  0  0  0
  3  7  1  0  0  0  0
  4 15  2  0  0  0  0
  4 18  1  0  0  0  0
  5 19  1  0  0  0  0
  5 11  2  0  0  0  0
  7  6  1  0  0  0  0
  8 12  1  0  0  0  0
  9 13  1  0  0  0  0
 12 15  1  0  0  0  0
 13 24  1  0  0  0  0
 14 25  1  0  0  0  0
 15  5  1  0  0  0  0
 16  8  1  0  0  0  0
 16  3  1  0  0  0  0
 17 28  1  1  0  0  0
 17 10  1  0  0  0  0
 18 20  2  0  0  0  0
 19  6  1  0  0  0  0
 20 11  1  0  0  0  0
 20 13  1  0  0  0  0
 21 23  2  0  0  0  0
 21 26  1  0  0  0  0
 22 10  1  0  0  0  0
 23  4  1  0  0  0  0
 24 22  1  0  0  0  0
 25  9  1  6  0  0  0
 25 17  1  0  0  0  0
 26  1  2  0  0  0  0
 27  2  1  0  0  0  0
 27  9  2  0  0  0  0
 28 29  1  0  0  0  0
 30 34  1  0  0  0  0
 31 33  1  0  0  0  0
 31 32  1  0  0  0  0
 32 29  1  1  0  0  0
 32 34  1  0  0  0  0
 33 30  1  0  0  0  0
M  END
>  <MODEL>
7

>  <REMARK>
 VINA RESULT:      -7.7      1.948      4.307
  Name = 
  3 active torsions:
  status: ('A' for Active; 'I' for Inactive)
    1  A    between atoms: C_17  and  C_28
    2  A    between atoms: C_28  and  N_29
    3  A    between atoms: N_29  and  C_32
                            x       y       z     vdW  Elec       q    Type
                         _______ _______ _______ _____ _____    ______ ____

>  <TORSDO>
F 3

$$$$
=
 OpenBabel11122412163D

 34 40  0  0  1  0  0  0  0  0999 V2000
  190.7780  176.8970  140.0620 C   0  0  0  0  0  0  0  0  0  0  0  0
  191.6930  176.4430  142.4310 N   0  0  0  0  0  0  0  0  0  0  0  0
  186.5350  175.5830  136.3480 C   0  0  0  0  0  2  0  0  0  0  0  0
  189.6950  177.4120  137.9500 C   0  0  0  0  0  0  0  0  0  0  0  0
  187.3700  178.1110  137.9530 C   0  0  0  0  0  0  0  0  0  0  0  0
  185.0720  177.3550  137.3900 C   0  0  0  0  0  2  0  0  0  0  0  0
  185.2010  176.3180  136.2780 C   0  0  0  0  0  2  0  0  0  0  0  0
  187.5690  177.3810  134.8950 C   0  0  0  0  0  2  0  0  0  0  0  0
  189.5620  177.0370  142.1530 C   0  0  0  0  0  0  0  0  0  0  0  0
  187.7810  177.9810  144.6540 C   0  0  0  0  0  2  0  0  0  0  0  0
  187.3510  177.9950  139.3110 N   0  0  0  0  0  0  0  0  0  0  0  0
  188.6760  178.0110  135.7380 C   0  0  0  0  0  2  0  0  0  0  0  0
  188.3780  177.4990  141.4690 N   0  0  0  0  0  0  0  0  0  0  0  0
  191.2110  176.5240  143.7530 N   0  0  0  0  0  0  0  0  0  0  0  0
  188.5550  177.8170  137.2330 C   0  0  0  0  0  0  0  0  0  0  0  0
  187.3970  175.8810  135.1240 C   0  0  0  0  0  2  0  0  0  0  0  0
  189.3010  178.0060  144.4200 C   0  0  2  0  0  3  0  0  0  0  0  0
  189.6340  177.2970  139.3490 C   0  0  0  0  0  0  0  0  0  0  0  0
  186.0940  178.4860  137.2640 C   0  0  0  0  0  2  0  0  0  0  0  0
  188.4370  177.6010  140.0260 C   0  0  0  0  0  0  0  0  0  0  0  0
  191.9830  176.7430  137.9850 C   0  0  0  0  0  3  0  0  0  0  0  0
  186.9510  177.4320  143.4900 C   0  0  0  0  0  2  0  0  0  0  0  0
  190.8670  177.1330  137.3090 N   0  0  0  0  0  0  0  0  0  0  0  0
  187.2740  178.1440  142.1840 C   0  0  0  0  0  2  0  0  0  0  0  0
  189.7610  176.7890  143.6110 C   0  0  1  0  0  3  0  0  0  0  0  0
  191.9600  176.6170  139.3760 C   0  0  0  0  0  3  0  0  0  0  0  0
  190.6730  176.7800  141.5230 C   0  0  0  0  0  0  0  0  0  0  0  0
  190.0000  178.0850  145.7690 C   0  0  0  0  0  2  0  0  0  0  0  0
  190.0350  176.7700  146.3900 N   0  0  0  0  0  2  0  0  0  0  0  0
  188.3410  178.8220  148.1210 O   0  0  0  0  0  0  0  0  0  0  0  0
  188.3760  176.4600  148.1150 C   0  0  0  0  0  2  0  0  0  0  0  0
  189.7590  176.9550  147.8050 C   0  0  2  0  0  3  0  0  0  0  0  0
  187.6390  177.6960  148.5730 C   0  0  0  0  0  2  0  0  0  0  0  0
  189.6880  178.4330  148.1120 C   0  0  0  0  0  2  0  0  0  0  0  0
  1 27  1  0  0  0  0
  2 14  2  0  0  0  0
  4 18  1  0  0  0  0
  5 11  1  0  0  0  0
  7  3  1  0  0  0  0
  7  6  1  0  0  0  0
  8 16  1  0  0  0  0
  8 12  1  0  0  0  0
 11 20  2  0  0  0  0
 12 15  1  0  0  0  0
 13  9  1  0  0  0  0
 13 24  1  0  0  0  0
 15  4  1  0  0  0  0
 15  5  2  0  0  0  0
 16  3  1  0  0  0  0
 17 10  1  0  0  0  0
 17 28  1  1  0  0  0
 18 20  1  0  0  0  0
 18  1  2  0  0  0  0
 19  6  1  0  0  0  0
 19  5  1  0  0  0  0
 20 13  1  0  0  0  0
 21 26  2  0  0  0  0
 22 10  1  0  0  0  0
 23  4  2  0  0  0  0
 23 21  1  0  0  0  0
 24 22  1  0  0  0  0
 25  9  1  6  0  0  0
 25 14  1  0  0  0  0
 25 17  1  0  0  0  0
 26  1  1  0  0  0  0
 27  9  2  0  0  0  0
 27  2  1  0  0  0  0
 28 29  1  0  0  0  0
 30 33  1  0  0  0  0
 31 33  1  0  0  0  0
 32 29  1  6  0  0  0
 32 34  1  0  0  0  0
 32 31  1  0  0  0  0
 34 30  1  0  0  0  0
M  END
>  <MODEL>
8

>  <REMARK>
 VINA RESULT:      -7.6      4.601      7.127
  Name = 
  3 active torsions:
  status: ('A' for Active; 'I' for Inactive)
    1  A    between atoms: C_17  and  C_28
    2  A    between atoms: C_28  and  N_29
    3  A    between atoms: N_29  and  C_32
                            x       y       z     vdW  Elec       q    Type
                         _______ _______ _______ _____ _____    ______ ____

>  <TORSDO>
F 3

$$$$
=
 OpenBabel11122412163D

 34 40  0  0  1  0  0  0  0  0999 V2000
  184.1760  178.6000  142.9030 C   0  0  0  0  0  0  0  0  0  0  0  0
  186.5300  178.4190  143.9440 N   0  0  0  0  0  0  0  0  0  0  0  0
  180.9530  181.5350  139.0940 C   0  0  0  0  0  2  0  0  0  0  0  0
  182.0770  178.7250  141.6890 C   0  0  0  0  0  0  0  0  0  0  0  0
  182.1090  178.6540  139.2620 C   0  0  0  0  0  0  0  0  0  0  0  0
  181.8000  180.0540  137.2340 C   0  0  0  0  0  2  0  0  0  0  0  0
  180.8500  181.1880  137.6120 C   0  0  0  0  0  2  0  0  0  0  0  0
  179.1890  179.7880  139.5950 C   0  0  0  0  0  2  0  0  0  0  0  0
  186.2890  178.4430  141.7280 C   0  0  0  0  0  0  0  0  0  0  0  0
  188.7180  177.6000  139.8030 C   0  0  0  0  0  2  0  0  0  0  0  0
  183.4680  178.5520  139.2960 N   0  0  0  0  0  0  0  0  0  0  0  0
  179.8630  178.7690  140.5120 C   0  0  0  0  0  2  0  0  0  0  0  0
  185.6130  178.4160  140.4520 N   0  0  0  0  0  0  0  0  0  0  0  0
  187.8510  178.2530  143.4790 N   0  0  0  0  0  0  0  0  0  0  0  0
  181.3740  178.7450  140.4710 C   0  0  0  0  0  0  0  0  0  0  0  0
  179.6510  181.2260  139.8270 C   0  0  0  0  0  2  0  0  0  0  0  0
  188.3960  177.2230  141.2590 C   0  0  2  0  0  3  0  0  0  0  0  0
  183.4790  178.6250  141.6820 C   0  0  0  0  0  0  0  0  0  0  0  0
  181.4460  178.7340  137.9210 C   0  0  0  0  0  2  0  0  0  0  0  0
  184.1700  178.5340  140.4590 C   0  0  0  0  0  0  0  0  0  0  0  0
  182.0800  178.7700  144.0720 C   0  0  0  0  0  3  0  0  0  0  0  0
  187.7000  178.5220  139.1260 C   0  0  0  0  0  2  0  0  0  0  0  0
  181.4190  178.7930  142.8820 N   0  0  0  0  0  0  0  0  0  0  0  0
  186.2860  177.9700  139.2300 C   0  0  0  0  0  2  0  0  0  0  0  0
  187.7540  178.3950  142.0090 C   0  0  1  0  0  3  0  0  0  0  0  0
  183.4740  178.6730  144.1060 C   0  0  0  0  0  3  0  0  0  0  0  0
  185.6420  178.5040  142.8560 C   0  0  0  0  0  0  0  0  0  0  0  0
  189.6760  176.7530  141.9340 C   0  0  0  0  0  2  0  0  0  0  0  0
  190.6890  177.7930  141.8610 N   0  0  0  0  0  2  0  0  0  0  0  0
  190.8710  178.1420  145.0120 O   0  0  0  0  0  0  0  0  0  0  0  0
  191.2750  176.2650  143.6350 C   0  0  0  0  0  2  0  0  0  0  0  0
  191.6800  177.5000  142.8830 C   0  0  2  0  0  3  0  0  0  0  0  0
  191.0530  176.7530  145.0480 C   0  0  0  0  0  2  0  0  0  0  0  0
  191.6520  178.5850  143.9340 C   0  0  0  0  0  2  0  0  0  0  0  0
  1 26  1  0  0  0  0
  3 16  1  0  0  0  0
  4 23  2  0  0  0  0
  5 11  1  0  0  0  0
  5 15  2  0  0  0  0
  6  7  1  0  0  0  0
  6 19  1  0  0  0  0
  7  3  1  0  0  0  0
  8 16  1  0  0  0  0
  8 12  1  0  0  0  0
  9 27  2  0  0  0  0
 10 17  1  0  0  0  0
 11 20  2  0  0  0  0
 13 20  1  0  0  0  0
 13  9  1  0  0  0  0
 14  2  2  0  0  0  0
 15 12  1  0  0  0  0
 15  4  1  0  0  0  0
 17 28  1  1  0  0  0
 17 25  1  0  0  0  0
 18  4  1  0  0  0  0
 18  1  2  0  0  0  0
 19  5  1  0  0  0  0
 20 18  1  0  0  0  0
 21 26  2  0  0  0  0
 22 24  1  0  0  0  0
 22 10  1  0  0  0  0
 23 21  1  0  0  0  0
 24 13  1  0  0  0  0
 25  9  1  1  0  0  0
 25 14  1  0  0  0  0
 27  1  1  0  0  0  0
 27  2  1  0  0  0  0
 29 28  1  0  0  0  0
 30 33  1  0  0  0  0
 31 33  1  0  0  0  0
 32 29  1  6  0  0  0
 32 31  1  0  0  0  0
 32 34  1  0  0  0  0
 34 30  1  0  0  0  0
M  END
>  <MODEL>
9

>  <REMARK>
 VINA RESULT:      -7.5      1.876      2.620
  Name = 
  3 active torsions:
  status: ('A' for Active; 'I' for Inactive)
    1  A    between atoms: C_17  and  C_28
    2  A    between atoms: C_28  and  N_29
    3  A    between atoms: N_29  and  C_32
                            x       y       z     vdW  Elec       q    Type
                         _______ _______ _______ _____ _____    ______ ____

>  <TORSDO>
F 3

$$$$
