=
 OpenBabel11122411353D

 37 44  0  0  1  0  0  0  0  0999 V2000
  189.1350  176.4900  142.4770 C   0  0  0  0  0  2  0  0  0  0  0  0
  188.5670  177.6340  147.2780 C   0  0  0  0  0  0  0  0  0  0  0  0
  185.4910  178.4500  144.5000 C   0  0  0  0  0  0  0  0  0  0  0  0
  190.5690  176.3460  141.9580 C   0  0  1  0  0  3  0  0  0  0  0  0
  186.2910  178.8200  140.7660 C   0  0  0  0  0  2  0  0  0  0  0  0
  186.1880  178.4530  146.8420 C   0  0  0  0  0  0  0  0  0  0  0  0
  186.1680  178.3300  143.2800 C   0  0  0  0  0  0  0  0  0  0  0  0
  189.6500  177.1860  139.7800 C   0  0  1  0  0  3  0  0  0  0  0  0
  186.4840  178.3460  145.5080 C   0  0  0  0  0  0  0  0  0  0  0  0
  185.5420  178.4200  141.9660 N   0  0  0  0  0  0  0  0  0  0  0  0
  184.9170  178.6630  147.1910 O   0  0  0  0  0  0  0  0  0  0  0  0
  190.8430  177.2040  140.7250 C   0  0  0  0  0  2  0  0  0  0  0  0
  187.7030  178.1320  144.9680 C   0  0  0  0  0  0  0  0  0  0  0  0
  188.3260  176.1360  147.3340 C   0  0  0  0  0  1  0  0  0  0  0  0
  182.9770  178.6900  143.9730 C   0  0  0  0  0  2  0  0  0  0  0  0
  183.9260  178.7620  146.2880 C   0  0  0  0  0  3  0  0  0  0  0  0
  188.9320  178.0410  145.8250 C   0  0  0  0  0  2  0  0  0  0  0  0
  188.7220  178.3820  140.0040 C   0  0  1  0  0  3  0  0  0  0  0  0
  187.5110  177.9600  140.6890 C   0  0  1  0  0  3  0  0  0  0  0  0
  184.1610  178.6740  144.8950 C   0  0  0  0  0  0  0  0  0  0  0  0
  187.5550  178.1340  143.5860 C   0  0  0  0  0  0  0  0  0  0  0  0
  187.3180  178.3760  147.8380 C   0  0  0  0  0  2  0  0  0  0  0  0
  184.1090  178.1190  141.8560 C   0  0  1  0  0  3  0  0  0  0  0  0
  189.7480  177.9510  148.1710 C   0  0  0  0  0  1  0  0  0  0  0  0
  188.5020  178.7580  141.4280 N   0  0  1  0  0  0  0  0  0  0  0  0
  190.1060  177.2010  138.4630 O   0  0  0  0  0  1  0  0  0  0  0  0
  188.7260  177.9620  142.6450 C   0  0  2  0  0  3  0  0  0  0  0  0
  183.2860  179.1760  142.5700 C   0  0  0  0  0  2  0  0  0  0  0  0
  183.6660  178.9110  139.5230 C   0  0  0  0  0  3  0  0  0  0  0  0
  183.6340  177.8630  140.4520 C   0  0  0  0  0  0  0  0  0  0  0  0
  183.1210  176.6140  140.0680 C   0  0  0  0  0  3  0  0  0  0  0  0
  182.1430  175.1460  138.3790 N   0  0  0  0  0  1  0  0  0  0  0  0
  182.7000  177.4620  137.8400 C   0  0  0  0  0  3  0  0  0  0  0  0
  182.6590  176.4150  138.7640 C   0  0  0  0  0  0  0  0  0  0  0  0
  183.2030  178.7100  138.2190 C   0  0  0  0  0  3  0  0  0  0  0  0
  191.5790  175.6750  144.0180 O   0  0  0  0  0  1  0  0  0  0  0  0
  191.5810  176.6740  143.0430 C   0  0  0  0  0  2  0  0  0  0  0  0
  1 27  1  0  0  0  0
  2 14  1  0  0  0  0
  2 22  1  0  0  0  0
  2 24  1  0  0  0  0
  3 20  1  0  0  0  0
  3  9  1  0  0  0  0
  4  1  1  0  0  0  0
  4 37  1  1  0  0  0
  5 10  1  0  0  0  0
  6 11  1  0  0  0  0
  6 22  1  0  0  0  0
  7 21  1  0  0  0  0
  7  3  2  0  0  0  0
  8 26  1  6  0  0  0
  8 18  1  0  0  0  0
  8 12  1  0  0  0  0
  9  6  2  0  0  0  0
 10  7  1  0  0  0  0
 12  4  1  0  0  0  0
 13  9  1  0  0  0  0
 13 17  1  0  0  0  0
 15 20  1  0  0  0  0
 16 11  1  0  0  0  0
 17  2  1  0  0  0  0
 18 19  1  0  0  0  0
 18 25  1  0  0  0  0
 19  5  1  0  0  0  0
 19 25  1  0  0  0  0
 20 16  2  0  0  0  0
 21 13  2  0  0  0  0
 23 10  1  0  0  0  0
 23 28  1  0  0  0  0
 25 27  1  0  0  0  0
 27 21  1  0  0  0  0
 28 15  1  0  0  0  0
 29 30  1  0  0  0  0
 30 23  1  0  0  0  0
 31 30  2  0  0  0  0
 32 34  1  0  0  0  0
 33 35  1  0  0  0  0
 33 34  2  0  0  0  0
 34 31  1  0  0  0  0
 35 29  2  0  0  0  0
 37 36  1  0  0  0  0
M  END
>  <MODEL>
1

>  <REMARK>
 VINA RESULT:     -11.1      0.000      0.000
  Name = 
  2 active torsions:
  status: ('A' for Active; 'I' for Inactive)
    1  A    between atoms: C_4  and  C_37
    2  A    between atoms: C_23  and  C_30
                            x       y       z     vdW  Elec       q    Type
                         _______ _______ _______ _____ _____    ______ ____

>  <TORSDO>
F 2

$$$$
=
 OpenBabel11122411353D

 37 44  0  0  1  0  0  0  0  0999 V2000
  188.4120  176.5030  138.6530 C   0  0  0  0  0  2  0  0  0  0  0  0
  190.4170  177.1320  143.1550 C   0  0  0  0  0  0  0  0  0  0  0  0
  186.3720  178.1270  142.4490 C   0  0  0  0  0  0  0  0  0  0  0  0
  189.3720  176.4590  137.4610 C   0  0  1  0  0  3  0  0  0  0  0  0
  185.1510  178.9020  138.8950 C   0  0  0  0  0  2  0  0  0  0  0  0
  188.1720  177.9140  144.0880 C   0  0  0  0  0  0  0  0  0  0  0  0
  186.3240  178.1540  141.0500 C   0  0  0  0  0  0  0  0  0  0  0  0
  187.4870  177.4860  136.1630 C   0  0  1  0  0  3  0  0  0  0  0  0
  187.7390  177.9530  142.7880 C   0  0  0  0  0  0  0  0  0  0  0  0
  185.1150  178.3570  140.2600 N   0  0  0  0  0  0  0  0  0  0  0  0
  187.2660  178.0450  145.0590 O   0  0  0  0  0  0  0  0  0  0  0  0
  188.9960  177.4460  136.3580 C   0  0  0  0  0  2  0  0  0  0  0  0
  188.5020  177.8350  141.6810 C   0  0  0  0  0  0  0  0  0  0  0  0
  190.2020  175.6290  143.1700 C   0  0  0  0  0  1  0  0  0  0  0  0
  183.9510  178.3380  143.3150 C   0  0  0  0  0  2  0  0  0  0  0  0
  185.9540  178.2040  144.8090 C   0  0  0  0  0  3  0  0  0  0  0  0
  189.9940  177.6970  141.7720 C   0  0  0  0  0  2  0  0  0  0  0  0
  186.8350  178.6220  136.9550 C   0  0  1  0  0  3  0  0  0  0  0  0
  186.1370  178.0940  138.1150 C   0  0  1  0  0  3  0  0  0  0  0  0
  185.4390  178.2660  143.4910 C   0  0  0  0  0  0  0  0  0  0  0  0
  187.6660  177.9730  140.5790 C   0  0  0  0  0  0  0  0  0  0  0  0
  189.6500  177.7720  144.3490 C   0  0  0  0  0  2  0  0  0  0  0  0
  183.8220  178.0230  140.8700 C   0  0  1  0  0  3  0  0  0  0  0  0
  191.8960  177.3940  143.3430 C   0  0  0  0  0  1  0  0  0  0  0  0
  187.3870  178.8440  138.3200 N   0  0  1  0  0  0  0  0  0  0  0  0
  187.2030  177.6500  134.8080 O   0  0  0  0  0  1  0  0  0  0  0  0
  188.1830  177.9360  139.1590 C   0  0  2  0  0  3  0  0  0  0  0  0
  183.5080  178.9740  142.0110 C   0  0  0  0  0  2  0  0  0  0  0  0
  181.8260  178.9840  139.7050 C   0  0  0  0  0  3  0  0  0  0  0  0
  182.6870  177.8960  139.8900 C   0  0  0  0  0  0  0  0  0  0  0  0
  182.4500  176.7000  139.1940 C   0  0  0  0  0  3  0  0  0  0  0  0
  181.1360  175.3890  137.6070 N   0  0  0  0  0  1  0  0  0  0  0  0
  180.5180  177.6940  138.1270 C   0  0  0  0  0  3  0  0  0  0  0  0
  181.3700  176.6020  138.3130 C   0  0  0  0  0  0  0  0  0  0  0  0
  180.7450  178.8850  138.8240 C   0  0  0  0  0  3  0  0  0  0  0  0
  191.2420  175.6670  138.7220 O   0  0  0  0  0  1  0  0  0  0  0  0
  190.8060  176.7070  137.9000 C   0  0  0  0  0  2  0  0  0  0  0  0
  1 27  1  0  0  0  0
  2 14  1  0  0  0  0
  2 24  1  0  0  0  0
  2 22  1  0  0  0  0
  3  9  1  0  0  0  0
  3 20  1  0  0  0  0
  4 37  1  1  0  0  0
  4  1  1  0  0  0  0
  5 10  1  0  0  0  0
  6 22  1  0  0  0  0
  6 11  1  0  0  0  0
  7  3  2  0  0  0  0
  8 26  1  6  0  0  0
  8 12  1  0  0  0  0
  8 18  1  0  0  0  0
  9  6  2  0  0  0  0
 10 23  1  0  0  0  0
 10  7  1  0  0  0  0
 12  4  1  0  0  0  0
 13 17  1  0  0  0  0
 13  9  1  0  0  0  0
 15 20  1  0  0  0  0
 16 11  1  0  0  0  0
 17  2  1  0  0  0  0
 18 19  1  0  0  0  0
 18 25  1  0  0  0  0
 19 25  1  0  0  0  0
 19  5  1  0  0  0  0
 20 16  2  0  0  0  0
 21  7  1  0  0  0  0
 21 13  2  0  0  0  0
 23 28  1  0  0  0  0
 25 27  1  0  0  0  0
 27 21  1  0  0  0  0
 28 15  1  0  0  0  0
 29 30  1  0  0  0  0
 30 23  1  0  0  0  0
 31 30  2  0  0  0  0
 32 34  1  0  0  0  0
 33 34  2  0  0  0  0
 33 35  1  0  0  0  0
 34 31  1  0  0  0  0
 35 29  2  0  0  0  0
 37 36  1  0  0  0  0
M  END
>  <MODEL>
2

>  <REMARK>
 VINA RESULT:      -9.5      2.040      3.325
  Name = 
  2 active torsions:
  status: ('A' for Active; 'I' for Inactive)
    1  A    between atoms: C_4  and  C_37
    2  A    between atoms: C_23  and  C_30
                            x       y       z     vdW  Elec       q    Type
                         _______ _______ _______ _____ _____    ______ ____

>  <TORSDO>
F 2

$$$$
=
 OpenBabel11122411353D

 37 44  0  0  1  0  0  0  0  0999 V2000
  188.5010  176.6130  142.1300 C   0  0  0  0  0  2  0  0  0  0  0  0
  187.0390  178.1650  146.6180 C   0  0  0  0  0  0  0  0  0  0  0  0
  184.4900  178.5700  143.2720 C   0  0  0  0  0  0  0  0  0  0  0  0
  190.0080  176.4920  141.8900 C   0  0  1  0  0  3  0  0  0  0  0  0
  185.9400  178.6340  139.7200 C   0  0  0  0  0  2  0  0  0  0  0  0
  184.7530  178.8230  145.6880 C   0  0  0  0  0  0  0  0  0  0  0  0
  185.3800  178.3710  142.2090 C   0  0  0  0  0  0  0  0  0  0  0  0
  189.4720  177.0820  139.5120 C   0  0  1  0  0  3  0  0  0  0  0  0
  185.2880  178.6080  144.4450 C   0  0  0  0  0  0  0  0  0  0  0  0
  185.0000  178.3090  140.8030 N   0  0  0  0  0  0  0  0  0  0  0  0
  183.4340  179.0010  145.7850 O   0  0  0  0  0  0  0  0  0  0  0  0
  190.4730  177.2450  140.6460 C   0  0  0  0  0  2  0  0  0  0  0  0
  186.5910  178.4050  144.1530 C   0  0  0  0  0  0  0  0  0  0  0  0
  186.8390  176.6680  146.7780 C   0  0  0  0  0  1  0  0  0  0  0  0
  182.1070  178.6370  142.2890 C   0  0  0  0  0  2  0  0  0  0  0  0
  182.6190  178.9680  144.7160 C   0  0  0  0  0  3  0  0  0  0  0  0
  187.6470  178.4540  145.2190 C   0  0  0  0  0  2  0  0  0  0  0  0
  188.4810  178.2470  139.4480 C   0  0  1  0  0  3  0  0  0  0  0  0
  187.1800  177.8310  139.9460 C   0  0  1  0  0  3  0  0  0  0  0  0
  183.1050  178.7640  143.4020 C   0  0  0  0  0  0  0  0  0  0  0  0
  186.6950  178.2720  142.7740 C   0  0  0  0  0  0  0  0  0  0  0  0
  185.6860  178.8930  146.8710 C   0  0  0  0  0  2  0  0  0  0  0  0
  183.6200  177.9300  140.4720 C   0  0  1  0  0  3  0  0  0  0  0  0
  188.0280  178.6200  147.6690 C   0  0  0  0  0  1  0  0  0  0  0  0
  187.9960  178.7410  140.7660 N   0  0  1  0  0  0  0  0  0  0  0  0
  190.1570  176.9980  138.3010 O   0  0  0  0  0  1  0  0  0  0  0  0
  188.0210  178.0730  142.0760 C   0  0  2  0  0  3  0  0  0  0  0  0
  182.6480  179.0060  140.9210 C   0  0  0  0  0  2  0  0  0  0  0  0
  182.8030  178.4230  138.1580 C   0  0  0  0  0  3  0  0  0  0  0  0
  183.4150  177.5230  139.0380 C   0  0  0  0  0  0  0  0  0  0  0  0
  183.7840  176.2490  138.5780 C   0  0  0  0  0  3  0  0  0  0  0  0
  183.9320  174.5970  136.7860 N   0  0  0  0  0  1  0  0  0  0  0  0
  182.9480  176.7930  136.3730 C   0  0  0  0  0  3  0  0  0  0  0  0
  183.5540  175.8880  137.2480 C   0  0  0  0  0  0  0  0  0  0  0  0
  182.5720  178.0600  136.8280 C   0  0  0  0  0  3  0  0  0  0  0  0
  192.1600  176.9910  142.8020 O   0  0  0  0  0  1  0  0  0  0  0  0
  190.7970  176.9680  143.0990 C   0  0  0  0  0  2  0  0  0  0  0  0
  2 14  1  0  0  0  0
  2 22  1  0  0  0  0
  2 24  1  0  0  0  0
  3 20  1  0  0  0  0
  3  9  1  0  0  0  0
  4  1  1  0  0  0  0
  4 37  1  1  0  0  0
  5 19  1  0  0  0  0
  5 10  1  0  0  0  0
  6 11  1  0  0  0  0
  6 22  1  0  0  0  0
  7 21  1  0  0  0  0
  7  3  2  0  0  0  0
  8 26  1  6  0  0  0
  8 12  1  0  0  0  0
  9  6  2  0  0  0  0
 10  7  1  0  0  0  0
 12  4  1  0  0  0  0
 13  9  1  0  0  0  0
 13 17  1  0  0  0  0
 15 20  1  0  0  0  0
 16 11  1  0  0  0  0
 17  2  1  0  0  0  0
 18  8  1  0  0  0  0
 18 19  1  0  0  0  0
 18 25  1  0  0  0  0
 19 25  1  0  0  0  0
 20 16  2  0  0  0  0
 21 13  2  0  0  0  0
 23 10  1  0  0  0  0
 23 28  1  0  0  0  0
 25 27  1  0  0  0  0
 27  1  1  0  0  0  0
 27 21  1  0  0  0  0
 28 15  1  0  0  0  0
 29 30  1  0  0  0  0
 30 23  1  0  0  0  0
 31 30  2  0  0  0  0
 32 34  1  0  0  0  0
 33 35  1  0  0  0  0
 33 34  2  0  0  0  0
 34 31  1  0  0  0  0
 35 29  2  0  0  0  0
 36 37  1  0  0  0  0
M  END
>  <MODEL>
3

>  <REMARK>
 VINA RESULT:      -9.2      1.151      1.505
  Name = 
  2 active torsions:
  status: ('A' for Active; 'I' for Inactive)
    1  A    between atoms: C_4  and  C_37
    2  A    between atoms: C_23  and  C_30
                            x       y       z     vdW  Elec       q    Type
                         _______ _______ _______ _____ _____    ______ ____

>  <TORSDO>
F 2

$$$$
=
 OpenBabel11122411353D

 37 44  0  0  1  0  0  0  0  0999 V2000
  184.7650  176.9700  138.1980 C   0  0  0  0  0  2  0  0  0  0  0  0
  189.2240  176.3900  136.0860 C   0  0  0  0  0  0  0  0  0  0  0  0
  188.9010  177.6280  140.1130 C   0  0  0  0  0  0  0  0  0  0  0  0
  183.5750  177.2070  137.2640 C   0  0  1  0  0  3  0  0  0  0  0  0
  185.6920  179.3080  141.3790 C   0  0  0  0  0  2  0  0  0  0  0  0
  190.3840  176.9630  138.2880 C   0  0  0  0  0  0  0  0  0  0  0  0
  187.5560  178.0100  140.1880 C   0  0  0  0  0  0  0  0  0  0  0  0
  182.6300  178.5740  139.1420 C   0  0  1  0  0  3  0  0  0  0  0  0
  189.1490  177.3410  138.7450 C   0  0  0  0  0  0  0  0  0  0  0  0
  186.8760  178.4360  141.4060 N   0  0  0  0  0  0  0  0  0  0  0  0
  191.3810  176.8670  139.1700 O   0  0  0  0  0  0  0  0  0  0  0  0
  182.7680  178.4500  137.6320 C   0  0  0  0  0  2  0  0  0  0  0  0
  188.0270  177.4890  138.0070 C   0  0  0  0  0  0  0  0  0  0  0  0
  188.8640  174.9380  136.3460 C   0  0  0  0  0  1  0  0  0  0  0  0
  189.8560  177.6710  142.5080 C   0  0  0  0  0  2  0  0  0  0  0  0
  191.2140  177.1150  140.4810 C   0  0  0  0  0  3  0  0  0  0  0  0
  188.0410  177.2970  136.5190 C   0  0  0  0  0  2  0  0  0  0  0  0
  183.7000  179.4880  139.7440 C   0  0  1  0  0  3  0  0  0  0  0  0
  184.7070  178.7000  140.4340 C   0  0  1  0  0  3  0  0  0  0  0  0
  189.9690  177.5220  141.0200 C   0  0  0  0  0  0  0  0  0  0  0  0
  187.0190  177.9220  138.8610 C   0  0  0  0  0  0  0  0  0  0  0  0
  190.5620  176.7250  136.8090 C   0  0  0  0  0  2  0  0  0  0  0  0
  187.4160  177.9890  142.6960 C   0  0  1  0  0  3  0  0  0  0  0  0
  189.4330  176.5600  134.5970 C   0  0  0  0  0  1  0  0  0  0  0  0
  185.0610  179.3440  139.1590 N   0  0  1  0  0  0  0  0  0  0  0  0
  181.3690  179.0830  139.4480 O   0  0  0  0  0  1  0  0  0  0  0  0
  185.6230  178.2340  138.3730 C   0  0  2  0  0  3  0  0  0  0  0  0
  188.7680  178.6270  142.9580 C   0  0  0  0  0  2  0  0  0  0  0  0
  186.9220  177.8610  145.1460 C   0  0  0  0  0  3  0  0  0  0  0  0
  186.4670  178.1420  143.8530 C   0  0  0  0  0  0  0  0  0  0  0  0
  185.1280  178.5170  143.6570 C   0  0  0  0  0  3  0  0  0  0  0  0
  182.9060  179.0040  144.5450 N   0  0  0  0  0  1  0  0  0  0  0  0
  184.7230  178.3470  146.0370 C   0  0  0  0  0  3  0  0  0  0  0  0
  184.2610  178.6210  144.7480 C   0  0  0  0  0  0  0  0  0  0  0  0
  186.0540  177.9660  146.2370 C   0  0  0  0  0  3  0  0  0  0  0  0
  184.4680  176.0560  135.3690 O   0  0  0  0  0  1  0  0  0  0  0  0
  184.0240  177.3010  135.8150 C   0  0  0  0  0  2  0  0  0  0  0  0
  1 27  1  0  0  0  0
  2 14  1  0  0  0  0
  2 17  1  0  0  0  0
  2 22  1  0  0  0  0
  3  7  2  0  0  0  0
  3 20  1  0  0  0  0
  4 37  1  6  0  0  0
  4 12  1  0  0  0  0
  4  1  1  0  0  0  0
  5 10  1  0  0  0  0
  6  9  2  0  0  0  0
  6 11  1  0  0  0  0
  7 10  1  0  0  0  0
  8 26  1  6  0  0  0
  8 18  1  0  0  0  0
  9  3  1  0  0  0  0
 10 23  1  0  0  0  0
 11 16  1  0  0  0  0
 12  8  1  0  0  0  0
 13  9  1  0  0  0  0
 13 21  2  0  0  0  0
 15 28  1  0  0  0  0
 16 20  2  0  0  0  0
 17 13  1  0  0  0  0
 18 19  1  0  0  0  0
 19  5  1  0  0  0  0
 20 15  1  0  0  0  0
 21  7  1  0  0  0  0
 22  6  1  0  0  0  0
 23 28  1  0  0  0  0
 23 30  1  0  0  0  0
 24  2  1  0  0  0  0
 25 18  1  0  0  0  0
 25 19  1  0  0  0  0
 27 21  1  0  0  0  0
 27 25  1  0  0  0  0
 29 35  1  0  0  0  0
 30 29  2  0  0  0  0
 31 30  1  0  0  0  0
 31 34  2  0  0  0  0
 32 34  1  0  0  0  0
 33 35  2  0  0  0  0
 34 33  1  0  0  0  0
 36 37  1  0  0  0  0
M  END
>  <MODEL>
4

>  <REMARK>
 VINA RESULT:      -8.9      2.694      7.753
  Name = 
  2 active torsions:
  status: ('A' for Active; 'I' for Inactive)
    1  A    between atoms: C_4  and  C_37
    2  A    between atoms: C_23  and  C_30
                            x       y       z     vdW  Elec       q    Type
                         _______ _______ _______ _____ _____    ______ ____

>  <TORSDO>
F 2

$$$$
=
 OpenBabel11122411353D

 37 44  0  0  1  0  0  0  0  0999 V2000
  184.1770  177.3420  139.8580 C   0  0  0  0  0  2  0  0  0  0  0  0
  187.2610  177.3930  135.9640 C   0  0  0  0  0  0  0  0  0  0  0  0
  188.7630  177.7640  139.8950 C   0  0  0  0  0  0  0  0  0  0  0  0
  182.7150  177.7150  139.5970 C   0  0  1  0  0  3  0  0  0  0  0  0
  186.5010  179.0120  142.7320 C   0  0  0  0  0  2  0  0  0  0  0  0
  189.2820  177.5500  137.5170 C   0  0  0  0  0  0  0  0  0  0  0  0
  187.6020  178.0660  140.6180 C   0  0  0  0  0  0  0  0  0  0  0  0
  182.7400  178.6270  141.9330 C   0  0  1  0  0  3  0  0  0  0  0  0
  188.3840  177.7740  138.5270 C   0  0  0  0  0  0  0  0  0  0  0  0
  187.5340  178.2040  142.0680 N   0  0  0  0  0  0  0  0  0  0  0  0
  190.5540  177.3160  137.8440 O   0  0  0  0  0  0  0  0  0  0  0  0
  182.2100  178.8210  140.5200 C   0  0  0  0  0  2  0  0  0  0  0  0
  187.0640  178.0240  138.3920 C   0  0  0  0  0  0  0  0  0  0  0  0
  186.9730  175.9050  136.0530 C   0  0  0  0  0  1  0  0  0  0  0  0
  190.6550  177.3540  141.6000 C   0  0  0  0  0  2  0  0  0  0  0  0
  190.9800  177.2830  139.1190 C   0  0  0  0  0  3  0  0  0  0  0  0
  186.4270  178.1420  137.0380 C   0  0  0  0  0  2  0  0  0  0  0  0
  184.0110  179.4420  142.1880 C   0  0  1  0  0  3  0  0  0  0  0  0
  185.1750  178.5710  142.2010 C   0  0  1  0  0  3  0  0  0  0  0  0
  190.1100  177.5180  140.2110 C   0  0  0  0  0  0  0  0  0  0  0  0
  186.5430  178.2290  139.6640 C   0  0  0  0  0  0  0  0  0  0  0  0
  188.7950  177.6280  136.0920 C   0  0  0  0  0  2  0  0  0  0  0  0
  188.5520  177.5250  142.8790 C   0  0  1  0  0  3  0  0  0  0  0  0
  186.8180  177.8740  134.5990 C   0  0  0  0  0  1  0  0  0  0  0  0
  184.9800  179.4770  141.0580 N   0  0  1  0  0  0  0  0  0  0  0  0
  181.7610  179.0090  142.8490 O   0  0  0  0  0  1  0  0  0  0  0  0
  185.0910  178.5760  139.9000 C   0  0  2  0  0  3  0  0  0  0  0  0
  189.9170  178.1510  142.6580 C   0  0  0  0  0  2  0  0  0  0  0  0
  186.8600  177.2200  144.6990 C   0  0  0  0  0  3  0  0  0  0  0  0
  188.2010  177.3970  144.3370 C   0  0  0  0  0  0  0  0  0  0  0  0
  189.1800  177.4970  145.3380 C   0  0  0  0  0  3  0  0  0  0  0  0
  189.8170  177.5030  147.6950 N   0  0  0  0  0  1  0  0  0  0  0  0
  187.4810  177.2210  147.0400 C   0  0  0  0  0  3  0  0  0  0  0  0
  188.8200  177.4050  146.6850 C   0  0  0  0  0  0  0  0  0  0  0  0
  186.5010  177.1290  146.0470 C   0  0  0  0  0  3  0  0  0  0  0  0
  182.1280  179.4650  138.0790 O   0  0  0  0  0  1  0  0  0  0  0  0
  182.5030  178.1230  138.1490 C   0  0  0  0  0  2  0  0  0  0  0  0
  1 27  1  0  0  0  0
  2 14  1  0  0  0  0
  2 22  1  0  0  0  0
  2 17  1  0  0  0  0
  3 20  1  0  0  0  0
  3  7  2  0  0  0  0
  4 37  1  6  0  0  0
  4  1  1  0  0  0  0
  4 12  1  0  0  0  0
  6 11  1  0  0  0  0
  6  9  2  0  0  0  0
  7 10  1  0  0  0  0
  8 18  1  0  0  0  0
  8 26  1  1  0  0  0
  9  3  1  0  0  0  0
 10  5  1  0  0  0  0
 10 23  1  0  0  0  0
 11 16  1  0  0  0  0
 12  8  1  0  0  0  0
 13  9  1  0  0  0  0
 13 21  2  0  0  0  0
 15 28  1  0  0  0  0
 16 20  2  0  0  0  0
 17 13  1  0  0  0  0
 18 19  1  0  0  0  0
 19  5  1  0  0  0  0
 20 15  1  0  0  0  0
 21 27  1  0  0  0  0
 21  7  1  0  0  0  0
 22  6  1  0  0  0  0
 23 30  1  0  0  0  0
 24  2  1  0  0  0  0
 25 18  1  0  0  0  0
 25 19  1  0  0  0  0
 27 25  1  0  0  0  0
 28 23  1  0  0  0  0
 29 35  1  0  0  0  0
 30 29  2  0  0  0  0
 30 31  1  0  0  0  0
 31 34  2  0  0  0  0
 34 33  1  0  0  0  0
 34 32  1  0  0  0  0
 35 33  2  0  0  0  0
 36 37  1  0  0  0  0
M  END
>  <MODEL>
5

>  <REMARK>
 VINA RESULT:      -8.9      2.755      8.335
  Name = 
  2 active torsions:
  status: ('A' for Active; 'I' for Inactive)
    1  A    between atoms: C_4  and  C_37
    2  A    between atoms: C_23  and  C_30
                            x       y       z     vdW  Elec       q    Type
                         _______ _______ _______ _____ _____    ______ ____

>  <TORSDO>
F 2

$$$$
=
 OpenBabel11122411353D

 37 44  0  0  1  0  0  0  0  0999 V2000
  183.3940  177.2920  140.4560 C   0  0  0  0  0  2  0  0  0  0  0  0
  183.8080  177.0850  135.5100 C   0  0  0  0  0  0  0  0  0  0  0  0
  187.2360  177.5710  137.9320 C   0  0  0  0  0  0  0  0  0  0  0  0
  182.0330  177.7000  141.0270 C   0  0  1  0  0  3  0  0  0  0  0  0
  186.9250  179.0060  141.4760 C   0  0  0  0  0  2  0  0  0  0  0  0
  186.3520  177.2430  135.6770 C   0  0  0  0  0  0  0  0  0  0  0  0
  186.6700  177.9390  139.1580 C   0  0  0  0  0  0  0  0  0  0  0  0
  183.3500  178.7070  142.9090 C   0  0  1  0  0  3  0  0  0  0  0  0
  186.1630  177.5370  137.0030 C   0  0  0  0  0  0  0  0  0  0  0  0
  187.4160  178.1390  140.3950 N   0  0  0  0  0  0  0  0  0  0  0  0
  187.5920  176.9820  135.2580 O   0  0  0  0  0  0  0  0  0  0  0  0
  182.1270  178.8590  142.0170 C   0  0  0  0  0  2  0  0  0  0  0  0
  184.9900  177.8220  137.6060 C   0  0  0  0  0  0  0  0  0  0  0  0
  183.6130  175.6120  135.8200 C   0  0  0  0  0  1  0  0  0  0  0  0
  189.7540  177.1720  138.3260 C   0  0  0  0  0  2  0  0  0  0  0  0
  188.6510  176.9890  136.0870 C   0  0  0  0  0  3  0  0  0  0  0  0
  183.7100  177.9030  136.8260 C   0  0  0  0  0  2  0  0  0  0  0  0
  184.5520  179.4910  142.3770 C   0  0  1  0  0  3  0  0  0  0  0  0
  185.5260  178.5860  141.7900 C   0  0  1  0  0  3  0  0  0  0  0  0
  188.5320  177.2960  137.4640 C   0  0  0  0  0  0  0  0  0  0  0  0
  185.2610  178.0960  138.9410 C   0  0  0  0  0  0  0  0  0  0  0  0
  185.1580  177.2760  134.7570 C   0  0  0  0  0  2  0  0  0  0  0  0
  188.7100  177.4620  140.5430 C   0  0  1  0  0  3  0  0  0  0  0  0
  182.6860  177.5230  134.5940 C   0  0  0  0  0  1  0  0  0  0  0  0
  184.7340  179.4490  140.9000 N   0  0  1  0  0  0  0  0  0  0  0  0
  183.0420  179.1570  144.1920 O   0  0  0  0  0  1  0  0  0  0  0  0
  184.1830  178.4980  139.9220 C   0  0  2  0  0  3  0  0  0  0  0  0
  189.7270  178.0350  139.5730 C   0  0  0  0  0  2  0  0  0  0  0  0
  188.5670  176.5920  142.8860 C   0  0  0  0  0  3  0  0  0  0  0  0
  189.2240  177.4070  141.9570 C   0  0  0  0  0  0  0  0  0  0  0  0
  190.3160  178.1860  142.3710 C   0  0  0  0  0  3  0  0  0  0  0  0
  191.8610  178.9250  144.1110 N   0  0  0  0  0  1  0  0  0  0  0  0
  190.0960  177.3160  144.6180 C   0  0  0  0  0  3  0  0  0  0  0  0
  190.7520  178.1360  143.6970 C   0  0  0  0  0  0  0  0  0  0  0  0
  189.0030  176.5430  144.2130 C   0  0  0  0  0  3  0  0  0  0  0  0
  180.7720  179.4200  139.9480 O   0  0  0  0  0  1  0  0  0  0  0  0
  181.0560  178.0550  139.9180 C   0  0  0  0  0  2  0  0  0  0  0  0
  1  4  1  0  0  0  0
  2 14  1  0  0  0  0
  2 17  1  0  0  0  0
  3  7  2  0  0  0  0
  4 37  1  6  0  0  0
  4 12  1  0  0  0  0
  5 19  1  0  0  0  0
  6  9  2  0  0  0  0
  7 10  1  0  0  0  0
  8 26  1  1  0  0  0
  9 13  1  0  0  0  0
  9  3  1  0  0  0  0
 10 23  1  0  0  0  0
 10  5  1  0  0  0  0
 11  6  1  0  0  0  0
 11 16  1  0  0  0  0
 12  8  1  0  0  0  0
 13 21  2  0  0  0  0
 15 28  1  0  0  0  0
 16 20  2  0  0  0  0
 17 13  1  0  0  0  0
 18  8  1  0  0  0  0
 19 18  1  0  0  0  0
 20  3  1  0  0  0  0
 20 15  1  0  0  0  0
 21  7  1  0  0  0  0
 21 27  1  0  0  0  0
 22  2  1  0  0  0  0
 22  6  1  0  0  0  0
 23 30  1  0  0  0  0
 24  2  1  0  0  0  0
 25 19  1  0  0  0  0
 25 18  1  0  0  0  0
 27  1  1  0  0  0  0
 27 25  1  0  0  0  0
 28 23  1  0  0  0  0
 29 35  1  0  0  0  0
 30 31  1  0  0  0  0
 30 29  2  0  0  0  0
 31 34  2  0  0  0  0
 34 32  1  0  0  0  0
 34 33  1  0  0  0  0
 35 33  2  0  0  0  0
 37 36  1  0  0  0  0
M  END
>  <MODEL>
6

>  <REMARK>
 VINA RESULT:      -8.8      2.853      8.894
  Name = 
  2 active torsions:
  status: ('A' for Active; 'I' for Inactive)
    1  A    between atoms: C_4  and  C_37
    2  A    between atoms: C_23  and  C_30
                            x       y       z     vdW  Elec       q    Type
                         _______ _______ _______ _____ _____    ______ ____

>  <TORSDO>
F 2

$$$$
=
 OpenBabel11122411353D

 37 44  0  0  1  0  0  0  0  0999 V2000
  184.3550  177.4550  140.5570 C   0  0  0  0  0  2  0  0  0  0  0  0
  187.1700  177.3790  136.4640 C   0  0  0  0  0  0  0  0  0  0  0  0
  188.9450  177.7260  140.2830 C   0  0  0  0  0  0  0  0  0  0  0  0
  182.8920  177.8750  140.3910 C   0  0  1  0  0  3  0  0  0  0  0  0
  186.9200  179.0670  143.2540 C   0  0  0  0  0  2  0  0  0  0  0  0
  189.2950  177.4800  137.8770 C   0  0  0  0  0  0  0  0  0  0  0  0
  187.8450  178.0710  141.0790 C   0  0  0  0  0  0  0  0  0  0  0  0
  183.1040  178.8010  142.7120 C   0  0  1  0  0  3  0  0  0  0  0  0
  188.4750  177.7400  138.9440 C   0  0  0  0  0  0  0  0  0  0  0  0
  187.8790  178.2210  142.5290 N   0  0  0  0  0  0  0  0  0  0  0  0
  190.5790  177.2060  138.1200 O   0  0  0  0  0  0  0  0  0  0  0  0
  182.4860  179.0030  141.3360 C   0  0  0  0  0  2  0  0  0  0  0  0
  187.1570  178.0320  138.8950 C   0  0  0  0  0  0  0  0  0  0  0  0
  186.8410  175.9010  136.5850 C   0  0  0  0  0  1  0  0  0  0  0  0
  190.9330  177.2650  141.8600 C   0  0  0  0  0  2  0  0  0  0  0  0
  191.0870  177.1670  139.3640 C   0  0  0  0  0  3  0  0  0  0  0  0
  186.4350  178.1620  137.5860 C   0  0  0  0  0  2  0  0  0  0  0  0
  184.4150  179.5750  142.8740 C   0  0  1  0  0  3  0  0  0  0  0  0
  185.5480  178.6670  142.8170 C   0  0  1  0  0  3  0  0  0  0  0  0
  190.3010  177.4380  140.5100 C   0  0  0  0  0  0  0  0  0  0  0  0
  186.7310  178.2630  140.1970 C   0  0  0  0  0  0  0  0  0  0  0  0
  188.7160  177.5640  136.4870 C   0  0  0  0  0  2  0  0  0  0  0  0
  188.9270  177.5140  143.2760 C   0  0  1  0  0  3  0  0  0  0  0  0
  186.6530  177.8650  135.1280 C   0  0  0  0  0  1  0  0  0  0  0  0
  185.3060  179.5710  141.6810 N   0  0  1  0  0  0  0  0  0  0  0  0
  182.2010  179.2210  143.6880 O   0  0  0  0  0  1  0  0  0  0  0  0
  185.3100  178.6590  140.5270 C   0  0  2  0  0  3  0  0  0  0  0  0
  190.2930  178.0930  142.9590 C   0  0  0  0  0  2  0  0  0  0  0  0
  189.6990  176.9580  145.5920 C   0  0  0  0  0  3  0  0  0  0  0  0
  188.6700  177.4080  144.7550 C   0  0  0  0  0  0  0  0  0  0  0  0
  187.4130  177.7070  145.3050 C   0  0  0  0  0  3  0  0  0  0  0  0
  185.9210  177.8780  147.2300 N   0  0  0  0  0  1  0  0  0  0  0  0
  188.2280  177.1280  147.5090 C   0  0  0  0  0  3  0  0  0  0  0  0
  187.1960  177.5700  146.6780 C   0  0  0  0  0  0  0  0  0  0  0  0
  189.4800  176.8210  146.9660 C   0  0  0  0  0  3  0  0  0  0  0  0
  182.3050  179.6430  138.8940 O   0  0  0  0  0  1  0  0  0  0  0  0
  182.5960  178.2800  138.9560 C   0  0  0  0  0  2  0  0  0  0  0  0
  2 22  1  0  0  0  0
  2 14  1  0  0  0  0
  2 17  1  0  0  0  0
  3 20  1  0  0  0  0
  3  7  2  0  0  0  0
  4 37  1  6  0  0  0
  4  1  1  0  0  0  0
  4 12  1  0  0  0  0
  6 11  1  0  0  0  0
  6  9  2  0  0  0  0
  7 10  1  0  0  0  0
  8 18  1  0  0  0  0
  8 26  1  1  0  0  0
  9  3  1  0  0  0  0
 10  5  1  0  0  0  0
 10 23  1  0  0  0  0
 11 16  1  0  0  0  0
 12  8  1  0  0  0  0
 13  9  1  0  0  0  0
 13 21  2  0  0  0  0
 15 28  1  0  0  0  0
 16 20  2  0  0  0  0
 17 13  1  0  0  0  0
 19 18  1  0  0  0  0
 19  5  1  0  0  0  0
 20 15  1  0  0  0  0
 21 27  1  0  0  0  0
 21  7  1  0  0  0  0
 22  6  1  0  0  0  0
 23 30  1  0  0  0  0
 24  2  1  0  0  0  0
 25 19  1  0  0  0  0
 25 18  1  0  0  0  0
 27  1  1  0  0  0  0
 27 25  1  0  0  0  0
 28 23  1  0  0  0  0
 29 35  1  0  0  0  0
 30 31  1  0  0  0  0
 30 29  2  0  0  0  0
 31 34  2  0  0  0  0
 34 32  1  0  0  0  0
 34 33  1  0  0  0  0
 35 33  2  0  0  0  0
 36 37  1  0  0  0  0
M  END
>  <MODEL>
7

>  <REMARK>
 VINA RESULT:      -8.4      2.508      8.194
  Name = 
  2 active torsions:
  status: ('A' for Active; 'I' for Inactive)
    1  A    between atoms: C_4  and  C_37
    2  A    between atoms: C_23  and  C_30
                            x       y       z     vdW  Elec       q    Type
                         _______ _______ _______ _____ _____    ______ ____

>  <TORSDO>
F 2

$$$$
=
 OpenBabel11122411353D

 37 44  0  0  1  0  0  0  0  0999 V2000
  188.7880  176.7450  142.1520 C   0  0  0  0  0  2  0  0  0  0  0  0
  185.6000  178.5700  145.4970 C   0  0  0  0  0  0  0  0  0  0  0  0
  184.5770  178.4540  141.3990 C   0  0  0  0  0  0  0  0  0  0  0  0
  190.2700  176.7300  142.5350 C   0  0  1  0  0  3  0  0  0  0  0  0
  187.3160  178.3160  138.7150 C   0  0  0  0  0  2  0  0  0  0  0  0
  183.8470  178.9470  143.6780 C   0  0  0  0  0  0  0  0  0  0  0  0
  185.8230  178.2350  140.7990 C   0  0  0  0  0  0  0  0  0  0  0  0
  190.7000  177.0530  140.0850 C   0  0  1  0  0  3  0  0  0  0  0  0
  184.8410  178.6660  142.7780 C   0  0  0  0  0  0  0  0  0  0  0  0
  186.0360  178.0130  139.3730 N   0  0  0  0  0  0  0  0  0  0  0  0
  182.5920  179.0220  143.2300 O   0  0  0  0  0  0  0  0  0  0  0  0
  191.1600  177.4030  141.4930 C   0  0  0  0  0  2  0  0  0  0  0  0
  186.1590  178.5470  143.0430 C   0  0  0  0  0  0  0  0  0  0  0  0
  185.4150  177.0830  145.7400 C   0  0  0  0  0  1  0  0  0  0  0  0
  182.7810  178.2310  139.5620 C   0  0  0  0  0  2  0  0  0  0  0  0
  182.2710  178.8240  141.9390 C   0  0  0  0  0  3  0  0  0  0  0  0
  186.7010  178.7810  144.4230 C   0  0  0  0  0  2  0  0  0  0  0  0
  189.7680  178.1200  139.5040 C   0  0  1  0  0  3  0  0  0  0  0  0
  188.3960  177.6440  139.4990 C   0  0  1  0  0  3  0  0  0  0  0  0
  183.2480  178.5420  140.9530 C   0  0  0  0  0  0  0  0  0  0  0  0
  186.8080  178.2980  141.8400 C   0  0  0  0  0  0  0  0  0  0  0  0
  184.2290  179.2020  145.1140 C   0  0  0  0  0  2  0  0  0  0  0  0
  184.9190  177.4910  138.5770 C   0  0  1  0  0  3  0  0  0  0  0  0
  186.0700  179.2010  146.7900 C   0  0  0  0  0  1  0  0  0  0  0  0
  188.7800  178.6900  140.4600 N   0  0  1  0  0  0  0  0  0  0  0  0
  191.8130  176.9180  139.2570 O   0  0  0  0  0  1  0  0  0  0  0  0
  188.3090  178.1480  141.7440 C   0  0  2  0  0  3  0  0  0  0  0  0
  183.8050  178.5180  138.4810 C   0  0  0  0  0  2  0  0  0  0  0  0
  185.6750  177.8290  136.2150 C   0  0  0  0  0  3  0  0  0  0  0  0
  185.3180  176.9390  137.2350 C   0  0  0  0  0  0  0  0  0  0  0  0
  185.2970  175.5600  136.9740 C   0  0  0  0  0  3  0  0  0  0  0  0
  185.6230  173.6800  135.4510 N   0  0  0  0  0  1  0  0  0  0  0  0
  186.0050  175.9710  134.6970 C   0  0  0  0  0  3  0  0  0  0  0  0
  185.6430  175.0790  135.7090 C   0  0  0  0  0  0  0  0  0  0  0  0
  186.0200  177.3460  134.9490 C   0  0  0  0  0  3  0  0  0  0  0  0
  189.4890  176.9900  144.7790 O   0  0  0  0  0  1  0  0  0  0  0  0
  190.4930  177.3780  143.8920 C   0  0  0  0  0  2  0  0  0  0  0  0
  1  4  1  0  0  0  0
  2 14  1  0  0  0  0
  2 24  1  0  0  0  0
  3  9  1  0  0  0  0
  4 37  1  1  0  0  0
  5 10  1  0  0  0  0
  5 19  1  0  0  0  0
  6 22  1  0  0  0  0
  7  3  2  0  0  0  0
  7 21  1  0  0  0  0
  8 26  1  6  0  0  0
  8 12  1  0  0  0  0
  9 13  1  0  0  0  0
  9  6  2  0  0  0  0
 10  7  1  0  0  0  0
 11  6  1  0  0  0  0
 12  4  1  0  0  0  0
 13 17  1  0  0  0  0
 15 20  1  0  0  0  0
 16 11  1  0  0  0  0
 17  2  1  0  0  0  0
 18  8  1  0  0  0  0
 18 25  1  0  0  0  0
 19 18  1  0  0  0  0
 19 25  1  0  0  0  0
 20  3  1  0  0  0  0
 20 16  2  0  0  0  0
 21 13  2  0  0  0  0
 22  2  1  0  0  0  0
 23 10  1  0  0  0  0
 25 27  1  0  0  0  0
 27 21  1  0  0  0  0
 27  1  1  0  0  0  0
 28 23  1  0  0  0  0
 28 15  1  0  0  0  0
 29 30  1  0  0  0  0
 30 23  1  0  0  0  0
 31 30  2  0  0  0  0
 32 34  1  0  0  0  0
 33 35  1  0  0  0  0
 33 34  2  0  0  0  0
 34 31  1  0  0  0  0
 35 29  2  0  0  0  0
 37 36  1  0  0  0  0
M  END
>  <MODEL>
8

>  <REMARK>
 VINA RESULT:      -8.3      2.231      3.261
  Name = 
  2 active torsions:
  status: ('A' for Active; 'I' for Inactive)
    1  A    between atoms: C_4  and  C_37
    2  A    between atoms: C_23  and  C_30
                            x       y       z     vdW  Elec       q    Type
                         _______ _______ _______ _____ _____    ______ ____

>  <TORSDO>
F 2

$$$$
