=
 OpenBabel11122410423D

 32 38  0  0  1  0  0  0  0  0999 V2000
  179.4070  178.5570  141.7470 C   0  0  1  0  0  3  0  0  0  0  0  0
  184.3500  178.4910  143.1640 C   0  0  0  0  0  0  0  0  0  0  0  0
  186.7030  178.5050  138.9200 N   0  0  0  0  0  0  0  0  0  0  0  0
  187.8880  178.2810  139.5430 C   0  0  0  0  0  3  0  0  0  0  0  0
  185.6860  178.1670  145.2840 C   0  0  0  0  0  0  0  0  0  0  0  0
  186.9470  177.9270  145.8180 C   0  0  0  0  0  0  0  0  0  0  0  0
  181.9040  179.1030  143.0670 C   0  0  1  0  0  3  0  0  0  0  0  0
  183.0520  178.9190  141.0180 C   0  0  0  0  0  2  0  0  0  0  0  0
  189.1560  177.6330  145.8740 N   0  0  0  0  0  0  0  0  0  0  0  0
  180.6920  178.7170  140.9310 C   0  0  2  0  0  3  0  0  0  0  0  0
  185.5420  178.6110  139.6200 C   0  0  0  0  0  3  0  0  0  0  0  0
  184.3400  178.5950  141.7480 C   0  0  0  0  0  0  0  0  0  0  0  0
  185.5360  178.4930  141.0200 C   0  0  0  0  0  0  0  0  0  0  0  0
  186.7900  178.1500  143.0820 C   0  0  0  0  0  0  0  0  0  0  0  0
  188.7630  177.6600  147.2320 N   0  0  0  0  0  0  0  0  0  0  0  0
  179.6830  178.1060  143.0750 O   0  0  0  0  0  0  0  0  0  0  0  0
  181.8880  178.4420  141.7540 N   0  0  2  0  0  0  0  0  0  0  0  0
  187.3570  177.8370  147.1750 N   0  0  0  0  0  0  0  0  0  0  0  0
  180.5640  178.9530  143.7880 C   0  0  0  0  0  2  0  0  0  0  0  0
  179.8990  179.9560  141.3510 C   0  0  1  0  0  3  0  0  0  0  0  0
  187.9360  178.1580  140.9310 C   0  0  0  0  0  3  0  0  0  0  0  0
  186.7570  178.2630  141.6830 C   0  0  0  0  0  0  0  0  0  0  0  0
  187.9910  177.9280  143.7030 N   0  0  0  0  0  0  0  0  0  0  0  0
  183.0270  178.5080  143.9010 C   0  0  0  0  0  2  0  0  0  0  0  0
  184.5520  178.3320  146.2430 C   0  0  0  0  0  1  0  0  0  0  0  0
  190.5400  177.6630  145.4380 C   0  0  0  0  0  1  0  0  0  0  0  0
  185.5790  178.2700  143.8540 C   0  0  0  0  0  0  0  0  0  0  0  0
  188.0300  177.8090  145.0470 C   0  0  0  0  0  0  0  0  0  0  0  0
  179.0920  180.4550  140.1690 C   0  0  0  0  0  2  0  0  0  0  0  0
  179.7880  181.6060  139.5320 C   0  0  0  0  0  0  0  0  0  0  0  0
  179.1020  182.7940  139.3090 O   0  0  0  0  0  1  0  0  0  0  0  0
  180.9860  181.4930  139.1660 O   0  0  0  0  0  0  0  0  0  0  0  0
  1 16  1  1  0  0  0
  2 27  1  0  0  0  0
  2 24  1  0  0  0  0
  3  4  2  0  0  0  0
  3 11  1  0  0  0  0
  4 21  1  0  0  0  0
  5  6  1  0  0  0  0
  5 25  1  0  0  0  0
  6 18  1  0  0  0  0
  7 19  1  1  0  0  0
  7 24  1  0  0  0  0
  8 12  1  0  0  0  0
  8 17  1  0  0  0  0
  9 15  1  0  0  0  0
 10 20  1  0  0  0  0
 10  1  1  0  0  0  0
 10 17  1  0  0  0  0
 11 13  2  0  0  0  0
 12  2  2  0  0  0  0
 13 22  1  0  0  0  0
 13 12  1  0  0  0  0
 14 23  2  0  0  0  0
 14 27  1  0  0  0  0
 16 19  1  0  0  0  0
 17  7  1  0  0  0  0
 18 15  2  0  0  0  0
 20  1  1  0  0  0  0
 21 22  2  0  0  0  0
 22 14  1  0  0  0  0
 23 28  1  0  0  0  0
 26  9  1  0  0  0  0
 27  5  2  0  0  0  0
 28  6  2  0  0  0  0
 28  9  1  0  0  0  0
 29 20  1  0  0  0  0
 30 29  1  0  0  0  0
 31 30  1  0  0  0  0
 32 30  2  0  0  0  0
M  END
>  <MODEL>
1

>  <REMARK>
 VINA RESULT:     -10.1      0.000      0.000
  Name = 
  2 active torsions:
  status: ('A' for Active; 'I' for Inactive)
    1  A    between atoms: C_20  and  C_29
    2  A    between atoms: C_29  and  C_30
                            x       y       z     vdW  Elec       q    Type
                         _______ _______ _______ _____ _____    ______ ____

>  <TORSDO>
F 2

$$$$
=
 OpenBabel11122410423D

 32 38  0  0  1  0  0  0  0  0999 V2000
  188.1960  178.6100  137.0660 C   0  0  1  0  0  3  0  0  0  0  0  0
  187.8480  177.8850  142.1450 C   0  0  0  0  0  0  0  0  0  0  0  0
  183.2120  178.9620  143.0870 N   0  0  0  0  0  0  0  0  0  0  0  0
  183.4380  178.9010  144.4240 C   0  0  0  0  0  3  0  0  0  0  0  0
  189.4080  177.4630  144.0880 C   0  0  0  0  0  0  0  0  0  0  0  0
  189.5330  177.4380  145.4730 C   0  0  0  0  0  0  0  0  0  0  0  0
  188.4180  177.5130  139.7160 C   0  0  1  0  0  3  0  0  0  0  0  0
  186.2250  178.2130  140.2130 C   0  0  0  0  0  2  0  0  0  0  0  0
  188.9220  177.5380  147.6140 N   0  0  0  0  0  0  0  0  0  0  0  0
  186.9860  178.6060  138.0030 C   0  0  2  0  0  3  0  0  0  0  0  0
  184.2060  178.7380  142.1870 C   0  0  0  0  0  3  0  0  0  0  0  0
  186.5400  178.2080  141.6960 C   0  0  0  0  0  0  0  0  0  0  0  0
  185.5070  178.4340  142.6190 C   0  0  0  0  0  0  0  0  0  0  0  0
  187.0470  178.0530  144.4710 C   0  0  0  0  0  0  0  0  0  0  0  0
  190.2770  177.1370  147.6460 N   0  0  0  0  0  0  0  0  0  0  0  0
  189.4250  178.6230  137.7970 O   0  0  0  0  0  0  0  0  0  0  0  0
  187.4040  178.5340  139.4190 N   0  0  2  0  0  0  0  0  0  0  0  0
  190.6490  177.0900  146.2770 N   0  0  0  0  0  0  0  0  0  0  0  0
  189.5590  177.5400  138.6970 C   0  0  0  0  0  2  0  0  0  0  0  0
  187.3120  177.3610  137.1770 C   0  0  1  0  0  3  0  0  0  0  0  0
  184.7120  178.6020  144.9030 C   0  0  0  0  0  3  0  0  0  0  0  0
  185.7610  178.3650  144.0030 C   0  0  0  0  0  0  0  0  0  0  0  0
  187.2660  177.9900  145.8220 N   0  0  0  0  0  0  0  0  0  0  0  0
  188.9530  177.7470  141.1190 C   0  0  0  0  0  2  0  0  0  0  0  0
  190.6140  177.1030  143.2810 C   0  0  0  0  0  1  0  0  0  0  0  0
  188.0570  177.5370  148.7790 C   0  0  0  0  0  1  0  0  0  0  0  0
  188.1210  177.7980  143.5430 C   0  0  0  0  0  0  0  0  0  0  0  0
  188.5020  177.7000  146.2790 C   0  0  0  0  0  0  0  0  0  0  0  0
  186.3820  177.2980  135.9820 C   0  0  0  0  0  2  0  0  0  0  0  0
  185.0950  176.6640  136.3770 C   0  0  0  0  0  0  0  0  0  0  0  0
  185.0960  175.5550  137.2160 O   0  0  0  0  0  1  0  0  0  0  0  0
  184.0080  177.1090  135.9270 O   0  0  0  0  0  0  0  0  0  0  0  0
  1 20  1  0  0  0  0
  1 16  1  1  0  0  0
  1 10  1  0  0  0  0
  2 27  1  0  0  0  0
  3  4  1  0  0  0  0
  4 21  2  0  0  0  0
  5  6  1  0  0  0  0
  6 18  1  0  0  0  0
  6 28  2  0  0  0  0
  7 19  1  6  0  0  0
  7 24  1  0  0  0  0
  8 12  1  0  0  0  0
  9 15  1  0  0  0  0
  9 26  1  0  0  0  0
 10 17  1  0  0  0  0
 11 13  1  0  0  0  0
 11  3  2  0  0  0  0
 12  2  2  0  0  0  0
 12 13  1  0  0  0  0
 13 22  2  0  0  0  0
 14 23  2  0  0  0  0
 16 19  1  0  0  0  0
 17  7  1  0  0  0  0
 17  8  1  0  0  0  0
 18 15  2  0  0  0  0
 20 10  1  0  0  0  0
 22 14  1  0  0  0  0
 22 21  1  0  0  0  0
 23 28  1  0  0  0  0
 24  2  1  0  0  0  0
 25  5  1  0  0  0  0
 27  5  2  0  0  0  0
 27 14  1  0  0  0  0
 28  9  1  0  0  0  0
 29 30  1  0  0  0  0
 29 20  1  0  0  0  0
 30 31  1  0  0  0  0
 32 30  2  0  0  0  0
M  END
>  <MODEL>
2

>  <REMARK>
 VINA RESULT:     -10.1      3.299      5.960
  Name = 
  2 active torsions:
  status: ('A' for Active; 'I' for Inactive)
    1  A    between atoms: C_20  and  C_29
    2  A    between atoms: C_29  and  C_30
                            x       y       z     vdW  Elec       q    Type
                         _______ _______ _______ _____ _____    ______ ____

>  <TORSDO>
F 2

$$$$
=
 OpenBabel11122410423D

 32 38  0  0  1  0  0  0  0  0999 V2000
  181.8210  178.6060  140.1100 C   0  0  1  0  0  3  0  0  0  0  0  0
  186.1200  178.1980  142.9020 C   0  0  0  0  0  0  0  0  0  0  0  0
  189.5820  177.8080  139.5250 N   0  0  0  0  0  0  0  0  0  0  0  0
  190.5120  177.5170  140.4700 C   0  0  0  0  0  3  0  0  0  0  0  0
  186.7550  177.8670  145.3260 C   0  0  0  0  0  0  0  0  0  0  0  0
  187.7820  177.5500  146.2080 C   0  0  0  0  0  0  0  0  0  0  0  0
  183.8740  179.0060  142.0850 C   0  0  1  0  0  3  0  0  0  0  0  0
  185.5390  178.6270  140.4630 C   0  0  0  0  0  2  0  0  0  0  0  0
  189.8440  177.0750  146.9090 N   0  0  0  0  0  0  0  0  0  0  0  0
  183.2950  178.6190  139.6990 C   0  0  2  0  0  3  0  0  0  0  0  0
  188.2850  178.0450  139.8550 C   0  0  0  0  0  3  0  0  0  0  0  0
  186.5270  178.2330  141.5420 C   0  0  0  0  0  0  0  0  0  0  0  0
  187.8670  177.9960  141.1950 C   0  0  0  0  0  0  0  0  0  0  0  0
  188.4390  177.6510  143.5390 C   0  0  0  0  0  0  0  0  0  0  0  0
  189.0830  177.2010  148.0930 N   0  0  0  0  0  0  0  0  0  0  0  0
  181.6610  178.1990  141.4720 O   0  0  0  0  0  0  0  0  0  0  0  0
  184.1740  178.2850  140.8400 N   0  0  2  0  0  0  0  0  0  0  0  0
  187.7750  177.4920  147.6270 N   0  0  0  0  0  0  0  0  0  0  0  0
  182.3750  179.0030  142.3900 C   0  0  0  0  0  2  0  0  0  0  0  0
  182.5350  179.9380  139.8430 C   0  0  1  0  0  3  0  0  0  0  0  0
  190.1480  177.4580  141.8140 C   0  0  0  0  0  3  0  0  0  0  0  0
  188.8190  177.6980  142.1890 C   0  0  0  0  0  0  0  0  0  0  0  0
  189.3840  177.3600  144.4870 N   0  0  0  0  0  0  0  0  0  0  0  0
  184.6490  178.3610  143.2230 C   0  0  0  0  0  2  0  0  0  0  0  0
  185.4140  178.1730  145.9100 C   0  0  0  0  0  1  0  0  0  0  0  0
  191.2910  176.9690  146.8920 C   0  0  0  0  0  1  0  0  0  0  0  0
  187.0740  177.9090  143.9240 C   0  0  0  0  0  0  0  0  0  0  0  0
  189.0240  177.3050  145.7870 C   0  0  0  0  0  0  0  0  0  0  0  0
  182.1510  180.4440  138.4670 C   0  0  0  0  0  2  0  0  0  0  0  0
  181.2570  181.6260  138.5950 C   0  0  0  0  0  0  0  0  0  0  0  0
  181.4660  182.7440  137.7970 O   0  0  0  0  0  0  0  0  0  0  0  0
  180.3320  181.6270  139.4480 O   0  0  0  0  0  1  0  0  0  0  0  0
  1 16  1  1  0  0  0
  2 24  1  0  0  0  0
  2 27  1  0  0  0  0
  3 11  2  0  0  0  0
  3  4  1  0  0  0  0
  4 21  2  0  0  0  0
  5 25  1  0  0  0  0
  5  6  1  0  0  0  0
  6 18  1  0  0  0  0
  7 19  1  1  0  0  0
  7 24  1  0  0  0  0
  8 17  1  0  0  0  0
  8 12  1  0  0  0  0
  9 15  1  0  0  0  0
 10 20  1  0  0  0  0
 10  1  1  0  0  0  0
 10 17  1  0  0  0  0
 11 13  1  0  0  0  0
 12  2  2  0  0  0  0
 13 12  1  0  0  0  0
 13 22  2  0  0  0  0
 14 27  1  0  0  0  0
 14 23  2  0  0  0  0
 16 19  1  0  0  0  0
 17  7  1  0  0  0  0
 18 15  2  0  0  0  0
 20  1  1  0  0  0  0
 21 22  1  0  0  0  0
 22 14  1  0  0  0  0
 23 28  1  0  0  0  0
 26  9  1  0  0  0  0
 27  5  2  0  0  0  0
 28  6  2  0  0  0  0
 28  9  1  0  0  0  0
 29 30  1  0  0  0  0
 29 20  1  0  0  0  0
 30 32  1  0  0  0  0
 31 30  2  0  0  0  0
M  END
>  <MODEL>
3

>  <REMARK>
 VINA RESULT:      -9.8      1.588      2.182
  Name = 
  2 active torsions:
  status: ('A' for Active; 'I' for Inactive)
    1  A    between atoms: C_20  and  C_29
    2  A    between atoms: C_29  and  C_30
                            x       y       z     vdW  Elec       q    Type
                         _______ _______ _______ _____ _____    ______ ____

>  <TORSDO>
F 2

$$$$
=
 OpenBabel11122410423D

 32 38  0  0  1  0  0  0  0  0999 V2000
  188.9970  178.2130  137.0260 C   0  0  1  0  0  3  0  0  0  0  0  0
  188.4090  177.6040  142.0980 C   0  0  0  0  0  0  0  0  0  0  0  0
  183.7850  178.8860  142.8230 N   0  0  0  0  0  0  0  0  0  0  0  0
  183.9540  178.8430  144.1690 C   0  0  0  0  0  3  0  0  0  0  0  0
  189.8680  177.1580  144.1130 C   0  0  0  0  0  0  0  0  0  0  0  0
  189.9340  177.1560  145.5020 C   0  0  0  0  0  0  0  0  0  0  0  0
  189.0640  177.1600  139.7020 C   0  0  1  0  0  3  0  0  0  0  0  0
  186.8820  177.9590  140.0940 C   0  0  0  0  0  2  0  0  0  0  0  0
  189.2390  177.3230  147.6130 N   0  0  0  0  0  0  0  0  0  0  0  0
  187.7500  178.2760  137.9110 C   0  0  2  0  0  3  0  0  0  0  0  0
  184.8060  178.6040  141.9710 C   0  0  0  0  0  3  0  0  0  0  0  0
  187.1350  177.9710  141.5880 C   0  0  0  0  0  0  0  0  0  0  0  0
  186.0750  178.2570  142.4630 C   0  0  0  0  0  0  0  0  0  0  0  0
  187.5190  177.8510  144.3840 C   0  0  0  0  0  0  0  0  0  0  0  0
  190.5740  176.8680  147.7100 N   0  0  0  0  0  0  0  0  0  0  0  0
  190.1940  178.1910  137.8090 O   0  0  0  0  0  0  0  0  0  0  0  0
  188.1050  178.2160  139.3440 N   0  0  2  0  0  0  0  0  0  0  0  0
  191.0000  176.7790  146.3590 N   0  0  0  0  0  0  0  0  0  0  0  0
  190.2460  177.1210  138.7320 C   0  0  0  0  0  2  0  0  0  0  0  0
  188.0580  177.0030  137.1230 C   0  0  1  0  0  3  0  0  0  0  0  0
  185.1930  178.5020  144.7080 C   0  0  0  0  0  3  0  0  0  0  0  0
  186.2670  178.2050  143.8570 C   0  0  0  0  0  0  0  0  0  0  0  0
  187.6790  177.8060  145.7450 N   0  0  0  0  0  0  0  0  0  0  0  0
  189.5490  177.4010  141.1220 C   0  0  0  0  0  2  0  0  0  0  0  0
  191.0900  176.7340  143.3640 C   0  0  0  0  0  1  0  0  0  0  0  0
  188.3270  177.3800  148.7400 C   0  0  0  0  0  1  0  0  0  0  0  0
  188.6190  177.5340  143.5080 C   0  0  0  0  0  0  0  0  0  0  0  0
  188.8820  177.4750  146.2590 C   0  0  0  0  0  0  0  0  0  0  0  0
  187.1770  176.9540  135.8910 C   0  0  0  0  0  2  0  0  0  0  0  0
  186.9880  175.5420  135.4610 C   0  0  0  0  0  0  0  0  0  0  0  0
  185.7750  174.9040  135.6870 O   0  0  0  0  0  1  0  0  0  0  0  0
  187.9370  174.9150  134.9220 O   0  0  0  0  0  0  0  0  0  0  0  0
  1 20  1  0  0  0  0
  1 16  1  1  0  0  0
  1 10  1  0  0  0  0
  2 27  1  0  0  0  0
  3  4  1  0  0  0  0
  4 21  2  0  0  0  0
  5  6  1  0  0  0  0
  6 28  2  0  0  0  0
  6 18  1  0  0  0  0
  7 19  1  6  0  0  0
  7 24  1  0  0  0  0
  8 12  1  0  0  0  0
  9 15  1  0  0  0  0
  9 26  1  0  0  0  0
 10 17  1  0  0  0  0
 11 13  1  0  0  0  0
 11  3  2  0  0  0  0
 12  2  2  0  0  0  0
 12 13  1  0  0  0  0
 13 22  2  0  0  0  0
 14 23  2  0  0  0  0
 16 19  1  0  0  0  0
 17  7  1  0  0  0  0
 17  8  1  0  0  0  0
 18 15  2  0  0  0  0
 20 10  1  0  0  0  0
 22 14  1  0  0  0  0
 22 21  1  0  0  0  0
 23 28  1  0  0  0  0
 24  2  1  0  0  0  0
 25  5  1  0  0  0  0
 27  5  2  0  0  0  0
 27 14  1  0  0  0  0
 28  9  1  0  0  0  0
 29 20  1  0  0  0  0
 30 31  1  0  0  0  0
 30 29  1  0  0  0  0
 32 30  2  0  0  0  0
M  END
>  <MODEL>
4

>  <REMARK>
 VINA RESULT:      -9.3      3.974      6.615
  Name = 
  2 active torsions:
  status: ('A' for Active; 'I' for Inactive)
    1  A    between atoms: C_20  and  C_29
    2  A    between atoms: C_29  and  C_30
                            x       y       z     vdW  Elec       q    Type
                         _______ _______ _______ _____ _____    ______ ____

>  <TORSDO>
F 2

$$$$
=
 OpenBabel11122410423D

 32 38  0  0  1  0  0  0  0  0999 V2000
  189.5010  178.1150  147.9120 C   0  0  1  0  0  3  0  0  0  0  0  0
  186.4020  178.1660  143.8090 C   0  0  0  0  0  0  0  0  0  0  0  0
  189.5060  177.8430  140.0930 N   0  0  0  0  0  0  0  0  0  0  0  0
  188.5090  178.0800  139.2020 C   0  0  0  0  0  3  0  0  0  0  0  0
  183.9620  178.5920  143.3100 C   0  0  0  0  0  0  0  0  0  0  0  0
  183.0220  178.8380  142.3150 C   0  0  0  0  0  0  0  0  0  0  0  0
  187.3440  177.5990  146.0800 C   0  0  1  0  0  3  0  0  0  0  0  0
  188.8480  177.6330  144.2660 C   0  0  0  0  0  2  0  0  0  0  0  0
  182.1880  179.0900  140.2640 N   0  0  0  0  0  0  0  0  0  0  0  0
  189.7900  177.8780  146.4280 C   0  0  2  0  0  3  0  0  0  0  0  0
  189.2670  177.8040  141.4300 C   0  0  0  0  0  3  0  0  0  0  0  0
  187.7200  177.9750  143.3140 C   0  0  0  0  0  0  0  0  0  0  0  0
  187.9720  178.0080  141.9330 C   0  0  0  0  0  0  0  0  0  0  0  0
  185.6160  178.4510  141.4890 C   0  0  0  0  0  0  0  0  0  0  0  0
  181.0640  179.1540  141.1180 N   0  0  0  0  0  0  0  0  0  0  0  0
  188.1870  178.6410  148.1120 O   0  0  0  0  0  0  0  0  0  0  0  0
  188.6060  178.1790  145.5960 N   0  0  2  0  0  0  0  0  0  0  0  0
  181.6150  179.0030  142.4160 N   0  0  0  0  0  0  0  0  0  0  0  0
  187.1630  177.8220  147.5820 C   0  0  0  0  0  2  0  0  0  0  0  0
  189.6230  176.6840  147.3690 C   0  0  1  0  0  3  0  0  0  0  0  0
  187.2060  178.2870  139.6500 C   0  0  0  0  0  3  0  0  0  0  0  0
  186.9250  178.2530  141.0230 C   0  0  0  0  0  0  0  0  0  0  0  0
  184.6150  178.6860  140.5830 N   0  0  0  0  0  0  0  0  0  0  0  0
  186.1920  178.2210  145.3080 C   0  0  0  0  0  2  0  0  0  0  0  0
  183.4690  178.5090  144.7190 C   0  0  0  0  0  1  0  0  0  0  0  0
  182.0940  179.0040  138.8180 C   0  0  0  0  0  1  0  0  0  0  0  0
  185.3270  178.4040  142.9010 C   0  0  0  0  0  0  0  0  0  0  0  0
  183.3560  178.8860  141.0240 C   0  0  0  0  0  0  0  0  0  0  0  0
  190.9900  176.1300  147.7190 C   0  0  0  0  0  2  0  0  0  0  0  0
  191.8390  176.0760  146.4980 C   0  0  0  0  0  0  0  0  0  0  0  0
  192.4240  174.8760  146.1130 O   0  0  0  0  0  1  0  0  0  0  0  0
  192.0560  177.1220  145.8340 O   0  0  0  0  0  0  0  0  0  0  0  0
  1 16  1  6  0  0  0
  2 24  1  0  0  0  0
  3 11  2  0  0  0  0
  4 21  2  0  0  0  0
  4  3  1  0  0  0  0
  5 25  1  0  0  0  0
  6 18  1  0  0  0  0
  6  5  2  0  0  0  0
  7 24  1  6  0  0  0
  7 19  1  0  0  0  0
  8 17  1  0  0  0  0
  9 28  1  0  0  0  0
  9 15  1  0  0  0  0
 10 20  1  0  0  0  0
 10  1  1  0  0  0  0
 11 13  1  0  0  0  0
 12  2  1  0  0  0  0
 12  8  1  0  0  0  0
 13 12  2  0  0  0  0
 14 27  1  0  0  0  0
 15 18  2  0  0  0  0
 17  7  1  0  0  0  0
 17 10  1  0  0  0  0
 19 16  1  0  0  0  0
 20 29  1  0  0  0  0
 20  1  1  0  0  0  0
 21 22  1  0  0  0  0
 22 14  2  0  0  0  0
 22 13  1  0  0  0  0
 23 28  2  0  0  0  0
 23 14  1  0  0  0  0
 26  9  1  0  0  0  0
 27  5  1  0  0  0  0
 27  2  2  0  0  0  0
 28  6  1  0  0  0  0
 30 29  1  0  0  0  0
 31 30  1  0  0  0  0
 32 30  2  0  0  0  0
M  END
>  <MODEL>
5

>  <REMARK>
 VINA RESULT:      -9.2      4.027      8.182
  Name = 
  2 active torsions:
  status: ('A' for Active; 'I' for Inactive)
    1  A    between atoms: C_20  and  C_29
    2  A    between atoms: C_29  and  C_30
                            x       y       z     vdW  Elec       q    Type
                         _______ _______ _______ _____ _____    ______ ____

>  <TORSDO>
F 2

$$$$
=
 OpenBabel11122410423D

 32 38  0  0  1  0  0  0  0  0999 V2000
  190.2330  175.5950  137.2700 C   0  0  1  0  0  3  0  0  0  0  0  0
  188.5180  177.3030  141.8060 C   0  0  0  0  0  0  0  0  0  0  0  0
  192.0550  176.0140  144.8670 N   0  0  0  0  0  0  0  0  0  0  0  0
  191.2980  176.3660  145.9370 C   0  0  0  0  0  3  0  0  0  0  0  0
  186.3810  178.2550  142.7630 C   0  0  0  0  0  0  0  0  0  0  0  0
  185.6880  178.5730  143.9260 C   0  0  0  0  0  0  0  0  0  0  0  0
  189.1040  177.2250  139.3540 C   0  0  1  0  0  3  0  0  0  0  0  0
  190.7220  176.4390  140.8750 C   0  0  0  0  0  2  0  0  0  0  0  0
  185.3070  178.8540  146.1040 N   0  0  0  0  0  0  0  0  0  0  0  0
  190.9130  175.6770  138.6380 C   0  0  2  0  0  3  0  0  0  0  0  0
  191.5910  176.1410  143.5960 C   0  0  0  0  0  3  0  0  0  0  0  0
  189.8150  176.7750  142.0420 C   0  0  0  0  0  0  0  0  0  0  0  0
  190.3030  176.6470  143.3510 C   0  0  0  0  0  0  0  0  0  0  0  0
  188.2170  177.5380  144.2420 C   0  0  0  0  0  0  0  0  0  0  0  0
  184.1580  179.3780  145.4680 N   0  0  0  0  0  0  0  0  0  0  0  0
  188.8290  175.8450  137.3670 O   0  0  0  0  0  0  0  0  0  0  0  0
  189.9550  176.0740  139.6910 N   0  0  2  0  0  0  0  0  0  0  0  0
  184.4150  179.1800  144.0870 N   0  0  0  0  0  0  0  0  0  0  0  0
  188.5170  177.0960  137.9470 C   0  0  0  0  0  2  0  0  0  0  0  0
  191.1890  176.7530  137.5870 C   0  0  1  0  0  3  0  0  0  0  0  0
  190.0140  176.8740  145.7480 C   0  0  0  0  0  3  0  0  0  0  0  0
  189.5040  177.0190  144.4500 C   0  0  0  0  0  0  0  0  0  0  0  0
  187.4600  177.8940  145.3280 N   0  0  0  0  0  0  0  0  0  0  0  0
  187.9930  177.3310  140.3860 C   0  0  0  0  0  2  0  0  0  0  0  0
  185.7130  178.5530  141.4600 C   0  0  0  0  0  1  0  0  0  0  0  0
  185.5840  179.0120  147.5200 C   0  0  0  0  0  1  0  0  0  0  0  0
  187.6980  177.6970  142.9070 C   0  0  0  0  0  0  0  0  0  0  0  0
  186.2180  178.3860  145.1370 C   0  0  0  0  0  0  0  0  0  0  0  0
  192.5330  176.4850  136.9400 C   0  0  0  0  0  2  0  0  0  0  0  0
  193.5750  176.3220  137.9900 C   0  0  0  0  0  0  0  0  0  0  0  0
  193.5940  177.1770  139.0860 O   0  0  0  0  0  1  0  0  0  0  0  0
  194.4570  175.4340  137.8700 O   0  0  0  0  0  0  0  0  0  0  0  0
  1 16  1  1  0  0  0
  1 20  1  0  0  0  0
  1 10  1  0  0  0  0
  2 12  2  0  0  0  0
  2 27  1  0  0  0  0
  3  4  1  0  0  0  0
  5 27  2  0  0  0  0
  5  6  1  0  0  0  0
  6 18  1  0  0  0  0
  6 28  2  0  0  0  0
  7 19  1  6  0  0  0
  7 17  1  0  0  0  0
  7 24  1  0  0  0  0
  8 12  1  0  0  0  0
  9 26  1  0  0  0  0
 10 17  1  0  0  0  0
 11  3  2  0  0  0  0
 12 13  1  0  0  0  0
 13 11  1  0  0  0  0
 13 22  2  0  0  0  0
 14 22  1  0  0  0  0
 14 23  2  0  0  0  0
 15  9  1  0  0  0  0
 16 19  1  0  0  0  0
 17  8  1  0  0  0  0
 18 15  2  0  0  0  0
 20 10  1  0  0  0  0
 21  4  2  0  0  0  0
 22 21  1  0  0  0  0
 24  2  1  0  0  0  0
 25  5  1  0  0  0  0
 27 14  1  0  0  0  0
 28 23  1  0  0  0  0
 28  9  1  0  0  0  0
 29 20  1  0  0  0  0
 29 30  1  0  0  0  0
 30 31  1  0  0  0  0
 32 30  2  0  0  0  0
M  END
>  <MODEL>
6

>  <REMARK>
 VINA RESULT:      -8.8      4.788      8.364
  Name = 
  2 active torsions:
  status: ('A' for Active; 'I' for Inactive)
    1  A    between atoms: C_20  and  C_29
    2  A    between atoms: C_29  and  C_30
                            x       y       z     vdW  Elec       q    Type
                         _______ _______ _______ _____ _____    ______ ____

>  <TORSDO>
F 2

$$$$
=
 OpenBabel11122410423D

 32 38  0  0  1  0  0  0  0  0999 V2000
  190.4330  178.0390  145.2550 C   0  0  1  0  0  3  0  0  0  0  0  0
  185.8100  178.2810  143.0160 C   0  0  0  0  0  0  0  0  0  0  0  0
  186.8920  178.4130  138.2880 N   0  0  0  0  0  0  0  0  0  0  0  0
  185.5990  178.6760  137.9690 C   0  0  0  0  0  3  0  0  0  0  0  0
  183.4070  178.6310  143.7140 C   0  0  0  0  0  0  0  0  0  0  0  0
  182.1160  178.9140  143.2790 C   0  0  0  0  0  0  0  0  0  0  0  0
  187.6820  177.5750  144.5530 C   0  0  1  0  0  3  0  0  0  0  0  0
  188.1990  177.8290  142.2680 C   0  0  0  0  0  2  0  0  0  0  0  0
  180.4420  179.2940  141.8580 N   0  0  0  0  0  0  0  0  0  0  0  0
  190.0180  177.9390  143.7850 C   0  0  2  0  0  3  0  0  0  0  0  0
  187.2860  178.2530  139.5790 C   0  0  0  0  0  3  0  0  0  0  0  0
  186.7600  178.1940  141.9640 C   0  0  0  0  0  0  0  0  0  0  0  0
  186.3590  178.3530  140.6280 C   0  0  0  0  0  0  0  0  0  0  0  0
  184.0560  178.7190  141.3390 C   0  0  0  0  0  0  0  0  0  0  0  0
  179.8270  179.2350  143.1290 N   0  0  0  0  0  0  0  0  0  0  0  0
  189.3490  178.4830  146.0750 O   0  0  0  0  0  0  0  0  0  0  0  0
  188.5840  178.2510  143.6090 N   0  0  2  0  0  0  0  0  0  0  0  0
  180.9080  179.0030  144.0180 N   0  0  0  0  0  0  0  0  0  0  0  0
  188.2000  177.6630  145.9890 C   0  0  0  0  0  2  0  0  0  0  0  0
  190.3010  176.6650  144.5820 C   0  0  1  0  0  3  0  0  0  0  0  0
  184.6400  178.7830  138.9740 C   0  0  0  0  0  3  0  0  0  0  0  0
  185.0120  178.6230  140.3160 C   0  0  0  0  0  0  0  0  0  0  0  0
  182.7520  178.9810  141.0080 N   0  0  0  0  0  0  0  0  0  0  0  0
  186.3020  178.2030  144.4460 C   0  0  0  0  0  2  0  0  0  0  0  0
  183.6070  178.4090  145.1780 C   0  0  0  0  0  1  0  0  0  0  0  0
  179.7030  179.3240  140.6090 C   0  0  0  0  0  1  0  0  0  0  0  0
  184.4380  178.5420  142.7170 C   0  0  0  0  0  0  0  0  0  0  0  0
  181.8290  179.0840  141.9870 C   0  0  0  0  0  0  0  0  0  0  0  0
  191.6810  176.1500  144.2230 C   0  0  0  0  0  2  0  0  0  0  0  0
  192.0750  175.0660  145.1640 C   0  0  0  0  0  0  0  0  0  0  0  0
  192.0850  175.3050  146.5330 O   0  0  0  0  0  1  0  0  0  0  0  0
  192.4300  173.9440  144.7190 O   0  0  0  0  0  0  0  0  0  0  0  0
  1 16  1  1  0  0  0
  2 24  1  0  0  0  0
  3 11  1  0  0  0  0
  4  3  2  0  0  0  0
  4 21  1  0  0  0  0
  5 25  1  0  0  0  0
  6  5  1  0  0  0  0
  6 18  1  0  0  0  0
  7 24  1  1  0  0  0
  7 19  1  0  0  0  0
  8 17  1  0  0  0  0
  9 28  1  0  0  0  0
  9 15  1  0  0  0  0
 10 20  1  0  0  0  0
 10  1  1  0  0  0  0
 11 13  2  0  0  0  0
 12  8  1  0  0  0  0
 12  2  2  0  0  0  0
 13 12  1  0  0  0  0
 14 27  1  0  0  0  0
 15 18  2  0  0  0  0
 17 10  1  0  0  0  0
 17  7  1  0  0  0  0
 19 16  1  0  0  0  0
 20  1  1  0  0  0  0
 21 22  2  0  0  0  0
 22 13  1  0  0  0  0
 22 14  1  0  0  0  0
 23 14  2  0  0  0  0
 23 28  1  0  0  0  0
 26  9  1  0  0  0  0
 27  2  1  0  0  0  0
 27  5  2  0  0  0  0
 28  6  2  0  0  0  0
 29 20  1  0  0  0  0
 29 30  1  0  0  0  0
 30 31  1  0  0  0  0
 32 30  2  0  0  0  0
M  END
>  <MODEL>
7

>  <REMARK>
 VINA RESULT:      -8.6      4.002      8.175
  Name = 
  2 active torsions:
  status: ('A' for Active; 'I' for Inactive)
    1  A    between atoms: C_20  and  C_29
    2  A    between atoms: C_29  and  C_30
                            x       y       z     vdW  Elec       q    Type
                         _______ _______ _______ _____ _____    ______ ____

>  <TORSDO>
F 2

$$$$
=
 OpenBabel11122410423D

 32 38  0  0  1  0  0  0  0  0999 V2000
  190.7330  176.4580  141.4710 C   0  0  1  0  0  3  0  0  0  0  0  0
  185.9440  178.3240  141.2870 C   0  0  0  0  0  0  0  0  0  0  0  0
  184.7100  178.6280  145.9700 N   0  0  0  0  0  0  0  0  0  0  0  0
  183.4250  178.9180  145.6420 C   0  0  0  0  0  3  0  0  0  0  0  0
  184.1720  178.7650  139.5400 C   0  0  0  0  0  0  0  0  0  0  0  0
  182.8310  179.0570  139.3170 C   0  0  0  0  0  0  0  0  0  0  0  0
  188.4040  178.0140  140.8160 C   0  0  1  0  0  3  0  0  0  0  0  0
  187.7250  177.9890  143.0730 C   0  0  0  0  0  2  0  0  0  0  0  0
  180.7130  179.5710  139.7830 N   0  0  0  0  0  0  0  0  0  0  0  0
  189.8020  176.9570  142.5790 C   0  0  2  0  0  3  0  0  0  0  0  0
  185.6520  178.4050  145.0150 C   0  0  0  0  0  3  0  0  0  0  0  0
  186.2880  178.2370  142.6620 C   0  0  0  0  0  0  0  0  0  0  0  0
  185.3210  178.4720  143.6520 C   0  0  0  0  0  0  0  0  0  0  0  0
  183.6280  178.8590  141.9420 C   0  0  0  0  0  0  0  0  0  0  0  0
  180.7940  179.6300  138.3730 N   0  0  0  0  0  0  0  0  0  0  0  0
  190.0370  176.3070  140.2310 O   0  0  0  0  0  0  0  0  0  0  0  0
  188.4450  177.2290  142.0580 N   0  0  2  0  0  0  0  0  0  0  0  0
  182.1430  179.2900  138.0970 N   0  0  0  0  0  0  0  0  0  0  0  0
  189.4080  177.4930  139.7880 C   0  0  0  0  0  2  0  0  0  0  0  0
  190.8930  177.8780  142.0320 C   0  0  1  0  0  3  0  0  0  0  0  0
  183.0450  178.9980  144.3040 C   0  0  0  0  0  3  0  0  0  0  0  0
  183.9930  178.7740  143.2940 C   0  0  0  0  0  0  0  0  0  0  0  0
  182.3300  179.1570  141.6200 N   0  0  0  0  0  0  0  0  0  0  0  0
  186.9930  177.9650  140.2540 C   0  0  0  0  0  2  0  0  0  0  0  0
  185.0590  178.6390  138.3430 C   0  0  0  0  0  1  0  0  0  0  0  0
  179.5650  180.0330  140.5420 C   0  0  0  0  0  1  0  0  0  0  0  0
  184.6060  178.6410  140.9050 C   0  0  0  0  0  0  0  0  0  0  0  0
  181.9700  179.2320  140.3210 C   0  0  0  0  0  0  0  0  0  0  0  0
  192.0560  177.9050  143.0030 C   0  0  0  0  0  2  0  0  0  0  0  0
  191.6410  178.5660  144.2700 C   0  0  0  0  0  0  0  0  0  0  0  0
  191.6800  177.8600  145.4660 O   0  0  0  0  0  1  0  0  0  0  0  0
  191.2230  179.7520  144.2540 O   0  0  0  0  0  0  0  0  0  0  0  0
  1 16  1  6  0  0  0
  1 20  1  0  0  0  0
  1 10  1  0  0  0  0
  2 12  1  0  0  0  0
  4  3  1  0  0  0  0
  5 27  1  0  0  0  0
  6  5  2  0  0  0  0
  6 28  1  0  0  0  0
  7 19  1  6  0  0  0
  7 17  1  0  0  0  0
  9 28  1  0  0  0  0
  9 26  1  0  0  0  0
 11  3  2  0  0  0  0
 12  8  1  0  0  0  0
 12 13  2  0  0  0  0
 13 11  1  0  0  0  0
 14 22  2  0  0  0  0
 15  9  1  0  0  0  0
 17 10  1  0  0  0  0
 17  8  1  0  0  0  0
 18 15  2  0  0  0  0
 18  6  1  0  0  0  0
 19 16  1  0  0  0  0
 20 10  1  0  0  0  0
 20 29  1  0  0  0  0
 21  4  2  0  0  0  0
 22 13  1  0  0  0  0
 22 21  1  0  0  0  0
 23 14  1  0  0  0  0
 24  7  1  0  0  0  0
 24  2  1  0  0  0  0
 25  5  1  0  0  0  0
 27  2  2  0  0  0  0
 27 14  1  0  0  0  0
 28 23  2  0  0  0  0
 29 30  1  0  0  0  0
 30 31  1  0  0  0  0
 32 30  2  0  0  0  0
M  END
>  <MODEL>
8

>  <REMARK>
 VINA RESULT:      -8.5      3.958      8.704
  Name = 
  2 active torsions:
  status: ('A' for Active; 'I' for Inactive)
    1  A    between atoms: C_20  and  C_29
    2  A    between atoms: C_29  and  C_30
                            x       y       z     vdW  Elec       q    Type
                         _______ _______ _______ _____ _____    ______ ____

>  <TORSDO>
F 2

$$$$
=
 OpenBabel11122410423D

 32 38  0  0  1  0  0  0  0  0999 V2000
  190.3080  176.4500  147.1380 C   0  0  1  0  0  3  0  0  0  0  0  0
  188.7270  177.7560  142.4230 C   0  0  0  0  0  0  0  0  0  0  0  0
  184.0070  178.6780  143.0700 N   0  0  0  0  0  0  0  0  0  0  0  0
  183.8130  178.7770  141.7300 C   0  0  0  0  0  3  0  0  0  0  0  0
  189.6390  177.7250  140.0660 C   0  0  0  0  0  0  0  0  0  0  0  0
  189.3280  177.8370  138.7150 C   0  0  0  0  0  0  0  0  0  0  0  0
  190.1200  177.6320  144.5220 C   0  0  1  0  0  3  0  0  0  0  0  0
  187.7940  177.8980  144.7860 C   0  0  0  0  0  2  0  0  0  0  0  0
  188.0980  178.1970  136.8920 N   0  0  0  0  0  0  0  0  0  0  0  0
  188.9770  177.0210  146.6440 C   0  0  2  0  0  3  0  0  0  0  0  0
  185.2330  178.4040  143.5900 C   0  0  0  0  0  3  0  0  0  0  0  0
  187.6090  177.9270  143.2820 C   0  0  0  0  0  0  0  0  0  0  0  0
  186.3420  178.2160  142.7510 C   0  0  0  0  0  0  0  0  0  0  0  0
  187.2480  178.1470  140.4890 C   0  0  0  0  0  0  0  0  0  0  0  0
  189.4170  178.0380  136.4090 N   0  0  0  0  0  0  0  0  0  0  0  0
  191.1350  176.0310  146.0500 O   0  0  0  0  0  0  0  0  0  0  0  0
  188.9270  177.0640  145.1670 N   0  0  2  0  0  0  0  0  0  0  0  0
  190.1810  177.7990  137.5810 N   0  0  0  0  0  0  0  0  0  0  0  0
  191.4070  177.0590  145.1180 C   0  0  0  0  0  2  0  0  0  0  0  0
  190.0140  177.9500  147.2750 C   0  0  1  0  0  3  0  0  0  0  0  0
  184.8820  178.6010  140.8540 C   0  0  0  0  0  3  0  0  0  0  0  0
  186.1600  178.3180  141.3580 C   0  0  0  0  0  0  0  0  0  0  0  0
  187.0440  178.2530  139.1380 N   0  0  0  0  0  0  0  0  0  0  0  0
  190.0520  177.3470  143.0310 C   0  0  0  0  0  2  0  0  0  0  0  0
  191.0720  177.5020  140.4270 C   0  0  0  0  0  1  0  0  0  0  0  0
  186.9920  178.6530  136.0700 C   0  0  0  0  0  1  0  0  0  0  0  0
  188.5630  177.8680  141.0090 C   0  0  0  0  0  0  0  0  0  0  0  0
  188.0850  178.0810  138.2950 C   0  0  0  0  0  0  0  0  0  0  0  0
  189.6080  178.2530  148.7040 C   0  0  0  0  0  2  0  0  0  0  0  0
  188.1240  178.2510  148.8170 C   0  0  0  0  0  0  0  0  0  0  0  0
  187.3720  179.1680  148.0940 O   0  0  0  0  0  0  0  0  0  0  0  0
  187.5530  177.4420  149.5930 O   0  0  0  0  0  1  0  0  0  0  0  0
  1 16  1  6  0  0  0
  1 20  1  0  0  0  0
  2 24  1  0  0  0  0
  2 12  1  0  0  0  0
  3 11  2  0  0  0  0
  4  3  1  0  0  0  0
  5 25  1  0  0  0  0
  5 27  1  0  0  0  0
  6  5  2  0  0  0  0
  7 24  1  6  0  0  0
  7 19  1  0  0  0  0
  7 17  1  0  0  0  0
  8 17  1  0  0  0  0
  9 28  1  0  0  0  0
 10  1  1  0  0  0  0
 10 20  1  0  0  0  0
 12  8  1  0  0  0  0
 13 12  2  0  0  0  0
 13 11  1  0  0  0  0
 14 27  1  0  0  0  0
 14 22  2  0  0  0  0
 15  9  1  0  0  0  0
 15 18  2  0  0  0  0
 17 10  1  0  0  0  0
 18  6  1  0  0  0  0
 19 16  1  0  0  0  0
 20 29  1  0  0  0  0
 21 22  1  0  0  0  0
 21  4  2  0  0  0  0
 22 13  1  0  0  0  0
 23 14  1  0  0  0  0
 26  9  1  0  0  0  0
 27  2  2  0  0  0  0
 28  6  1  0  0  0  0
 28 23  2  0  0  0  0
 29 30  1  0  0  0  0
 30 32  1  0  0  0  0
 31 30  2  0  0  0  0
M  END
>  <MODEL>
9

>  <REMARK>
 VINA RESULT:      -8.4      4.118      8.569
  Name = 
  2 active torsions:
  status: ('A' for Active; 'I' for Inactive)
    1  A    between atoms: C_20  and  C_29
    2  A    between atoms: C_29  and  C_30
                            x       y       z     vdW  Elec       q    Type
                         _______ _______ _______ _____ _____    ______ ____

>  <TORSDO>
F 2

$$$$
