=
 OpenBabel11122411193D

 31 35  0  0  1  0  0  0  0  0999 V2000
  193.4470  175.3080  135.7460 C   0  0  0  0  0  0  0  0  0  0  0  0
  190.0520  176.6880  136.7700 C   0  0  2  0  0  3  0  0  0  0  0  0
  189.0610  175.5400  136.8350 C   0  0  0  0  0  0  0  0  0  0  0  0
  191.1760  176.6680  141.9580 O   0  0  0  0  0  0  0  0  0  0  0  0
  190.2070  177.4530  141.7630 C   0  0  0  0  0  0  0  0  0  0  0  0
  188.4030  173.2550  136.3320 C   0  0  0  0  0  0  0  0  0  0  0  0
  191.4840  176.2260  136.8270 C   0  0  0  0  0  0  0  0  0  0  0  0
  194.0910  175.2230  136.9840 C   0  0  0  0  0  3  0  0  0  0  0  0
  189.3670  174.2660  136.3310 C   0  0  0  0  0  3  0  0  0  0  0  0
  190.3660  177.2980  139.2180 C   0  0  0  0  0  0  0  0  0  0  0  0
  194.1020  174.8930  134.5940 O   0  0  0  0  0  1  0  0  0  0  0  0
  187.4060  177.1080  137.7690 N   0  0  0  0  0  0  0  0  0  0  0  0
  188.7120  172.0240  135.8570 F   0  0  0  0  0  0  0  0  0  0  0  0
  191.4770  176.6170  139.2520 N   0  0  0  0  0  0  0  0  0  0  0  0
  189.7760  177.7260  137.8850 C   0  0  2  0  0  3  0  0  0  0  0  0
  189.7740  177.7740  140.4360 N   0  0  0  0  0  2  0  0  0  0  0  0
  192.1430  175.8040  135.6670 C   0  0  0  0  0  3  0  0  0  0  0  0
  187.1160  173.5150  136.8090 C   0  0  0  0  0  3  0  0  0  0  0  0
  192.1360  176.1510  138.0690 C   0  0  0  0  0  0  0  0  0  0  0  0
  193.4360  175.6440  138.1450 C   0  0  0  0  0  3  0  0  0  0  0  0
  188.3010  178.0210  138.0010 C   0  0  0  0  0  3  0  0  0  0  0  0
  187.7570  175.7980  137.3040 C   0  0  0  0  0  0  0  0  0  0  0  0
  186.7910  174.7870  137.2900 C   0  0  0  0  0  3  0  0  0  0  0  0
  190.1840  177.5400  145.7470 N   0  0  0  0  0  0  0  0  0  0  0  0
  190.4280  178.9290  143.7620 C   0  0  0  0  0  2  0  0  0  0  0  0
  187.8400  176.3520  143.2840 O   0  0  0  0  0  0  0  0  0  0  0  0
  190.9200  176.7330  146.7020 C   0  0  0  0  0  1  0  0  0  0  0  0
  191.1580  178.0970  144.8140 C   0  0  0  0  0  2  0  0  0  0  0  0
  188.8140  176.9960  143.7530 C   0  0  0  0  0  0  0  0  0  0  0  0
  189.4840  178.0580  142.9250 C   0  0  2  0  0  3  0  0  0  0  0  0
  189.3320  176.6640  145.0460 N   0  0  0  0  0  2  0  0  0  0  0  0
  1  8  1  0  0  0  0
  2  7  1  1  0  0  0
  2  3  1  0  0  0  0
  2 15  1  0  0  0  0
  3 22  1  0  0  0  0
  5  4  2  0  0  0  0
  6 18  2  0  0  0  0
  7 19  2  0  0  0  0
  8 20  2  0  0  0  0
  9  6  1  0  0  0  0
  9  3  2  0  0  0  0
 10 14  2  0  0  0  0
 10 16  1  0  0  0  0
 11  1  1  0  0  0  0
 12 21  2  0  0  0  0
 13  6  1  0  0  0  0
 15 21  1  1  0  0  0
 15 10  1  0  0  0  0
 16  5  1  0  0  0  0
 17  1  2  0  0  0  0
 17  7  1  0  0  0  0
 18 23  1  0  0  0  0
 19 20  1  0  0  0  0
 19 14  1  0  0  0  0
 22 12  1  0  0  0  0
 23 22  2  0  0  0  0
 24 27  1  0  0  0  0
 25 28  1  0  0  0  0
 26 29  2  0  0  0  0
 28 24  1  0  0  0  0
 29 31  1  0  0  0  0
 30  5  1  6  0  0  0
 30 29  1  0  0  0  0
 30 25  1  0  0  0  0
 31 24  1  0  0  0  0
M  END
>  <MODEL>
1

>  <REMARK>
 VINA RESULT:      -8.2      0.000      0.000
  Name = 
  1 active torsions:
  status: ('A' for Active; 'I' for Inactive)
    1  A    between atoms: C_5  and  C_30
                            x       y       z     vdW  Elec       q    Type
                         _______ _______ _______ _____ _____    ______ ____

>  <TORSDO>
F 1

$$$$
=
 OpenBabel11122411193D

 31 35  0  0  1  0  0  0  0  0999 V2000
  181.2170  178.6540  143.0900 C   0  0  0  0  0  0  0  0  0  0  0  0
  181.4190  178.1270  139.3260 C   0  0  2  0  0  3  0  0  0  0  0  0
  181.0960  179.4380  138.6340 C   0  0  0  0  0  0  0  0  0  0  0  0
  186.6870  178.7450  139.1300 O   0  0  0  0  0  0  0  0  0  0  0  0
  186.3180  178.1380  138.0870 C   0  0  0  0  0  0  0  0  0  0  0  0
  180.2040  181.6990  138.6510 C   0  0  0  0  0  0  0  0  0  0  0  0
  181.8130  178.3100  140.7680 C   0  0  0  0  0  0  0  0  0  0  0  0
  182.5680  178.8070  143.4160 C   0  0  0  0  0  3  0  0  0  0  0  0
  180.5670  180.5360  139.3330 C   0  0  0  0  0  3  0  0  0  0  0  0
  183.9090  177.8590  138.8910 C   0  0  0  0  0  0  0  0  0  0  0  0
  180.2500  178.7500  144.0810 O   0  0  0  0  0  1  0  0  0  0  0  0
  181.7010  178.3820  136.4930 N   0  0  0  0  0  0  0  0  0  0  0  0
  179.7090  182.7580  139.3350 F   0  0  0  0  0  0  0  0  0  0  0  0
  184.1730  178.3120  140.0840 N   0  0  0  0  0  0  0  0  0  0  0  0
  182.5170  177.3480  138.5610 C   0  0  2  0  0  3  0  0  0  0  0  0
  184.9630  177.7020  137.9290 N   0  0  0  0  0  2  0  0  0  0  0  0
  180.8380  178.4110  141.7660 C   0  0  0  0  0  3  0  0  0  0  0  0
  180.3390  181.7680  137.2620 C   0  0  0  0  0  3  0  0  0  0  0  0
  183.1710  178.4520  141.0980 C   0  0  0  0  0  0  0  0  0  0  0  0
  183.5450  178.7070  142.4200 C   0  0  0  0  0  3  0  0  0  0  0  0
  182.2580  177.3630  137.0750 C   0  0  0  0  0  3  0  0  0  0  0  0
  181.2180  179.5110  137.2320 C   0  0  0  0  0  0  0  0  0  0  0  0
  180.8400  180.6730  136.5520 C   0  0  0  0  0  3  0  0  0  0  0  0
  189.7850  176.3230  137.3380 N   0  0  0  0  0  0  0  0  0  0  0  0
  187.4290  176.3670  136.7260 C   0  0  0  0  0  2  0  0  0  0  0  0
  188.7320  179.7670  137.2830 O   0  0  0  0  0  0  0  0  0  0  0  0
  190.7410  175.7240  138.2500 C   0  0  0  0  0  1  0  0  0  0  0  0
  188.4810  175.7410  137.6380 C   0  0  0  0  0  2  0  0  0  0  0  0
  188.6230  178.5130  137.2800 C   0  0  0  0  0  0  0  0  0  0  0  0
  187.2950  177.8720  136.9860 C   0  0  2  0  0  3  0  0  0  0  0  0
  189.7480  177.7000  137.6340 N   0  0  0  0  0  2  0  0  0  0  0  0
  1  8  1  0  0  0  0
  1 11  1  0  0  0  0
  2  3  1  6  0  0  0
  2  7  1  0  0  0  0
  3  9  1  0  0  0  0
  5  4  2  0  0  0  0
  6  9  2  0  0  0  0
  6 13  1  0  0  0  0
  7 19  2  0  0  0  0
  7 17  1  0  0  0  0
 10 14  2  0  0  0  0
 12 21  2  0  0  0  0
 12 22  1  0  0  0  0
 14 19  1  0  0  0  0
 15 21  1  6  0  0  0
 15 10  1  0  0  0  0
 15  2  1  0  0  0  0
 16  5  1  0  0  0  0
 16 10  1  0  0  0  0
 17  1  2  0  0  0  0
 18  6  1  0  0  0  0
 19 20  1  0  0  0  0
 20  8  2  0  0  0  0
 22  3  2  0  0  0  0
 23 22  1  0  0  0  0
 23 18  2  0  0  0  0
 24 31  1  0  0  0  0
 24 28  1  0  0  0  0
 24 27  1  0  0  0  0
 25 30  1  0  0  0  0
 25 28  1  0  0  0  0
 29 26  2  0  0  0  0
 29 31  1  0  0  0  0
 30 29  1  0  0  0  0
 30  5  1  1  0  0  0
M  END
>  <MODEL>
2

>  <REMARK>
 VINA RESULT:      -7.6      6.277      9.619
  Name = 
  1 active torsions:
  status: ('A' for Active; 'I' for Inactive)
    1  A    between atoms: C_5  and  C_30
                            x       y       z     vdW  Elec       q    Type
                         _______ _______ _______ _____ _____    ______ ____

>  <TORSDO>
F 1

$$$$
=
 OpenBabel11122411193D

 31 35  0  0  1  0  0  0  0  0999 V2000
  192.3320  176.7290  138.5980 C   0  0  0  0  0  0  0  0  0  0  0  0
  188.9630  177.0940  136.8660 C   0  0  2  0  0  3  0  0  0  0  0  0
  188.3540  175.7150  136.6920 C   0  0  0  0  0  0  0  0  0  0  0  0
  186.3470  178.2320  141.3430 O   0  0  0  0  0  0  0  0  0  0  0  0
  185.6550  178.6270  140.3650 C   0  0  0  0  0  0  0  0  0  0  0  0
  188.5280  173.2910  136.6710 C   0  0  0  0  0  0  0  0  0  0  0  0
  190.0430  177.1280  137.9150 C   0  0  0  0  0  0  0  0  0  0  0  0
  191.9950  177.0450  139.9180 C   0  0  0  0  0  3  0  0  0  0  0  0
  189.0940  174.5430  136.9200 C   0  0  0  0  0  3  0  0  0  0  0  0
  187.4830  178.1420  138.6480 C   0  0  0  0  0  0  0  0  0  0  0  0
  193.6360  176.3720  138.2820 O   0  0  0  0  0  1  0  0  0  0  0  0
  186.2980  176.7970  135.8750 N   0  0  0  0  0  0  0  0  0  0  0  0
  189.2430  172.1650  136.9080 F   0  0  0  0  0  0  0  0  0  0  0  0
  188.3730  177.8640  139.5600 N   0  0  0  0  0  0  0  0  0  0  0  0
  187.8740  178.1490  137.1800 C   0  0  2  0  0  3  0  0  0  0  0  0
  186.1730  178.5850  139.0300 N   0  0  0  0  0  2  0  0  0  0  0  0
  191.3560  176.7640  137.5980 C   0  0  0  0  0  3  0  0  0  0  0  0
  187.2290  173.1980  136.1650 C   0  0  0  0  0  3  0  0  0  0  0  0
  189.7070  177.4570  139.2390 C   0  0  0  0  0  0  0  0  0  0  0  0
  190.6830  177.4080  140.2390 C   0  0  0  0  0  3  0  0  0  0  0  0
  186.6720  177.9730  136.2860 C   0  0  0  0  0  3  0  0  0  0  0  0
  187.0490  175.6130  136.1710 C   0  0  0  0  0  0  0  0  0  0  0  0
  186.4920  174.3580  135.9100 C   0  0  0  0  0  3  0  0  0  0  0  0
  181.8730  178.0310  139.2590 N   0  0  0  0  0  0  0  0  0  0  0  0
  183.3690  178.0510  141.1800 C   0  0  0  0  0  2  0  0  0  0  0  0
  184.1760  180.7660  138.8270 O   0  0  0  0  0  0  0  0  0  0  0  0
  181.3290  177.1830  138.2150 C   0  0  0  0  0  1  0  0  0  0  0  0
  182.7400  177.1940  140.0840 C   0  0  0  0  0  2  0  0  0  0  0  0
  183.6970  179.7100  139.3160 C   0  0  0  0  0  0  0  0  0  0  0  0
  184.2670  179.1420  140.5860 C   0  0  2  0  0  3  0  0  0  0  0  0
  182.6590  179.0100  138.6210 N   0  0  0  0  0  2  0  0  0  0  0  0
  1  8  1  0  0  0  0
  2  3  1  1  0  0  0
  2 15  1  0  0  0  0
  2  7  1  0  0  0  0
  3  9  1  0  0  0  0
  5  4  2  0  0  0  0
  6 13  1  0  0  0  0
  6  9  2  0  0  0  0
  7 19  2  0  0  0  0
  8 20  2  0  0  0  0
 10 16  1  0  0  0  0
 10 14  2  0  0  0  0
 11  1  1  0  0  0  0
 12 22  1  0  0  0  0
 12 21  2  0  0  0  0
 15 21  1  6  0  0  0
 15 10  1  0  0  0  0
 16  5  1  0  0  0  0
 17  7  1  0  0  0  0
 17  1  2  0  0  0  0
 18  6  1  0  0  0  0
 19 14  1  0  0  0  0
 19 20  1  0  0  0  0
 22  3  2  0  0  0  0
 23 18  2  0  0  0  0
 23 22  1  0  0  0  0
 24 28  1  0  0  0  0
 26 29  2  0  0  0  0
 27 24  1  0  0  0  0
 28 25  1  0  0  0  0
 29 30  1  0  0  0  0
 30  5  1  6  0  0  0
 30 25  1  0  0  0  0
 31 24  1  0  0  0  0
 31 29  1  0  0  0  0
M  END
>  <MODEL>
3

>  <REMARK>
 VINA RESULT:      -7.4      3.303      5.221
  Name = 
  1 active torsions:
  status: ('A' for Active; 'I' for Inactive)
    1  A    between atoms: C_5  and  C_30
                            x       y       z     vdW  Elec       q    Type
                         _______ _______ _______ _____ _____    ______ ____

>  <TORSDO>
F 1

$$$$
=
 OpenBabel11122411193D

 31 35  0  0  1  0  0  0  0  0999 V2000
  179.7670  178.8710  141.9000 C   0  0  0  0  0  0  0  0  0  0  0  0
  183.2510  179.1230  140.3900 C   0  0  2  0  0  3  0  0  0  0  0  0
  184.2680  178.7450  141.4500 C   0  0  0  0  0  0  0  0  0  0  0  0
  183.0520  174.3120  138.1540 O   0  0  0  0  0  0  0  0  0  0  0  0
  183.9500  174.9840  137.5760 C   0  0  0  0  0  0  0  0  0  0  0  0
  184.8890  178.3310  143.7640 C   0  0  0  0  0  0  0  0  0  0  0  0
  181.8640  178.6330  140.7110 C   0  0  0  0  0  0  0  0  0  0  0  0
  179.3510  177.6250  141.4200 C   0  0  0  0  0  3  0  0  0  0  0  0
  183.9130  178.5980  142.8010 C   0  0  0  0  0  3  0  0  0  0  0  0
  183.3530  177.1530  138.7860 C   0  0  0  0  0  0  0  0  0  0  0  0
  178.9320  179.6070  142.7300 O   0  0  0  0  0  1  0  0  0  0  0  0
  186.0180  178.8620  139.7210 N   0  0  0  0  0  0  0  0  0  0  0  0
  184.5350  178.1770  145.0620 F   0  0  0  0  0  0  0  0  0  0  0  0
  182.2840  176.6450  139.3310 N   0  0  0  0  0  0  0  0  0  0  0  0
  183.6890  178.6200  138.9920 C   0  0  2  0  0  3  0  0  0  0  0  0
  184.1360  176.3730  137.8700 N   0  0  0  0  0  2  0  0  0  0  0  0
  181.0240  179.3730  141.5510 C   0  0  0  0  0  3  0  0  0  0  0  0
  186.2320  178.2350  143.3910 C   0  0  0  0  0  3  0  0  0  0  0  0
  181.4410  177.3870  140.2200 C   0  0  0  0  0  0  0  0  0  0  0  0
  180.1880  176.8830  140.5800 C   0  0  0  0  0  3  0  0  0  0  0  0
  185.1530  178.8930  138.7510 C   0  0  0  0  0  3  0  0  0  0  0  0
  185.6260  178.6590  141.0850 C   0  0  0  0  0  0  0  0  0  0  0  0
  186.6010  178.4040  142.0540 C   0  0  0  0  0  3  0  0  0  0  0  0
  187.4880  175.4010  135.7900 N   0  0  0  0  0  0  0  0  0  0  0  0
  186.1800  173.9240  137.2160 C   0  0  0  0  0  2  0  0  0  0  0  0
  184.0920  175.4500  134.5940 O   0  0  0  0  0  0  0  0  0  0  0  0
  188.4170  176.5170  135.8080 C   0  0  0  0  0  1  0  0  0  0  0  0
  187.1850  175.0730  137.1800 C   0  0  0  0  0  2  0  0  0  0  0  0
  185.0510  175.2170  135.3750 C   0  0  0  0  0  0  0  0  0  0  0  0
  184.8490  174.3310  136.5730 C   0  0  2  0  0  3  0  0  0  0  0  0
  186.3130  175.8600  135.1650 N   0  0  0  0  0  2  0  0  0  0  0  0
  1 11  1  0  0  0  0
  2  7  1  1  0  0  0
  2  3  1  0  0  0  0
  3  9  1  0  0  0  0
  5 16  1  0  0  0  0
  5  4  2  0  0  0  0
  6 13  1  0  0  0  0
  7 17  2  0  0  0  0
  8  1  2  0  0  0  0
  9  6  2  0  0  0  0
 10 15  1  0  0  0  0
 10 14  2  0  0  0  0
 12 22  1  0  0  0  0
 14 19  1  0  0  0  0
 15 21  1  1  0  0  0
 15  2  1  0  0  0  0
 16 10  1  0  0  0  0
 17  1  1  0  0  0  0
 18  6  1  0  0  0  0
 19 20  2  0  0  0  0
 19  7  1  0  0  0  0
 20  8  1  0  0  0  0
 21 12  2  0  0  0  0
 22  3  2  0  0  0  0
 22 23  1  0  0  0  0
 23 18  2  0  0  0  0
 24 27  1  0  0  0  0
 24 28  1  0  0  0  0
 26 29  2  0  0  0  0
 28 25  1  0  0  0  0
 29 30  1  0  0  0  0
 30 25  1  0  0  0  0
 30  5  1  1  0  0  0
 31 29  1  0  0  0  0
 31 24  1  0  0  0  0
M  END
>  <MODEL>
4

>  <REMARK>
 VINA RESULT:      -7.4      5.803     10.013
  Name = 
  1 active torsions:
  status: ('A' for Active; 'I' for Inactive)
    1  A    between atoms: C_5  and  C_30
                            x       y       z     vdW  Elec       q    Type
                         _______ _______ _______ _____ _____    ______ ____

>  <TORSDO>
F 1

$$$$
=
 OpenBabel11122411193D

 31 35  0  0  1  0  0  0  0  0999 V2000
  179.7390  178.9440  141.9260 C   0  0  0  0  0  0  0  0  0  0  0  0
  183.2030  179.1400  140.3610 C   0  0  2  0  0  3  0  0  0  0  0  0
  184.2300  178.7400  141.4030 C   0  0  0  0  0  0  0  0  0  0  0  0
  182.8830  174.3420  138.1120 O   0  0  0  0  0  0  0  0  0  0  0  0
  183.7830  175.0000  137.5210 C   0  0  0  0  0  0  0  0  0  0  0  0
  184.8810  178.3060  143.7050 C   0  0  0  0  0  0  0  0  0  0  0  0
  181.8120  178.6740  140.7030 C   0  0  0  0  0  0  0  0  0  0  0  0
  179.2940  177.7070  141.4480 C   0  0  0  0  0  3  0  0  0  0  0  0
  183.8940  178.5950  142.7590 C   0  0  0  0  0  3  0  0  0  0  0  0
  183.2440  177.1750  138.7480 C   0  0  0  0  0  0  0  0  0  0  0  0
  178.9310  179.6920  142.7720 O   0  0  0  0  0  1  0  0  0  0  0  0
  185.9540  178.8330  139.6460 N   0  0  0  0  0  0  0  0  0  0  0  0
  184.5450  178.1540  145.0080 F   0  0  0  0  0  0  0  0  0  0  0  0
  182.1750  176.6840  139.3090 N   0  0  0  0  0  0  0  0  0  0  0  0
  183.6100  178.6350  138.9540 C   0  0  2  0  0  3  0  0  0  0  0  0
  183.9980  176.3850  137.8170 N   0  0  0  0  0  2  0  0  0  0  0  0
  180.9990  179.4250  141.5580 C   0  0  0  0  0  3  0  0  0  0  0  0
  186.2160  178.1890  143.3100 C   0  0  0  0  0  3  0  0  0  0  0  0
  181.3600  177.4370  140.2140 C   0  0  0  0  0  0  0  0  0  0  0  0
  180.1050  176.9540  140.5930 C   0  0  0  0  0  3  0  0  0  0  0  0
  185.0740  178.8830  138.6910 C   0  0  0  0  0  3  0  0  0  0  0  0
  185.5800  178.6310  141.0150 C   0  0  0  0  0  0  0  0  0  0  0  0
  186.5670  178.3560  141.9680 C   0  0  0  0  0  3  0  0  0  0  0  0
  184.0180  171.7440  135.2360 N   0  0  0  0  0  0  0  0  0  0  0  0
  183.9120  174.1760  135.1700 C   0  0  0  0  0  2  0  0  0  0  0  0
  186.0060  173.0010  137.9630 O   0  0  0  0  0  0  0  0  0  0  0  0
  183.2060  170.5420  135.2380 C   0  0  0  0  0  1  0  0  0  0  0  0
  183.1050  172.8790  135.1400 C   0  0  0  0  0  2  0  0  0  0  0  0
  185.1780  173.0230  137.0160 C   0  0  0  0  0  0  0  0  0  0  0  0
  184.6540  174.3350  136.5020 C   0  0  2  0  0  3  0  0  0  0  0  0
  184.6760  171.7930  136.4800 N   0  0  0  0  0  2  0  0  0  0  0  0
  1 11  1  0  0  0  0
  2  7  1  1  0  0  0
  2  3  1  0  0  0  0
  3  9  1  0  0  0  0
  5 16  1  0  0  0  0
  5  4  2  0  0  0  0
  6 13  1  0  0  0  0
  7 17  2  0  0  0  0
  8  1  2  0  0  0  0
  9  6  2  0  0  0  0
 10 15  1  0  0  0  0
 10 14  2  0  0  0  0
 12 22  1  0  0  0  0
 14 19  1  0  0  0  0
 15 21  1  1  0  0  0
 15  2  1  0  0  0  0
 16 10  1  0  0  0  0
 17  1  1  0  0  0  0
 18  6  1  0  0  0  0
 19 20  2  0  0  0  0
 19  7  1  0  0  0  0
 20  8  1  0  0  0  0
 21 12  2  0  0  0  0
 22  3  2  0  0  0  0
 22 23  1  0  0  0  0
 23 18  2  0  0  0  0
 24 27  1  0  0  0  0
 24 31  1  0  0  0  0
 25 30  1  0  0  0  0
 28 25  1  0  0  0  0
 28 24  1  0  0  0  0
 29 26  2  0  0  0  0
 30 29  1  0  0  0  0
 30  5  1  1  0  0  0
 31 29  1  0  0  0  0
M  END
>  <MODEL>
5

>  <REMARK>
 VINA RESULT:      -7.3      6.083     10.489
  Name = 
  1 active torsions:
  status: ('A' for Active; 'I' for Inactive)
    1  A    between atoms: C_5  and  C_30
                            x       y       z     vdW  Elec       q    Type
                         _______ _______ _______ _____ _____    ______ ____

>  <TORSDO>
F 1

$$$$
=
 OpenBabel11122411193D

 31 35  0  0  1  0  0  0  0  0999 V2000
  188.7580  177.7220  137.9650 C   0  0  0  0  0  0  0  0  0  0  0  0
  185.3430  176.7640  136.5850 C   0  0  2  0  0  3  0  0  0  0  0  0
  185.1300  175.2780  136.8040 C   0  0  0  0  0  0  0  0  0  0  0  0
  182.7230  178.2900  140.9420 O   0  0  0  0  0  0  0  0  0  0  0  0
  181.9040  178.2350  139.9830 C   0  0  0  0  0  0  0  0  0  0  0  0
  185.9630  173.0550  137.3250 C   0  0  0  0  0  0  0  0  0  0  0  0
  186.4190  177.3370  137.4700 C   0  0  0  0  0  0  0  0  0  0  0  0
  188.4080  178.2650  139.2050 C   0  0  0  0  0  3  0  0  0  0  0  0
  186.1730  174.4310  137.2130 C   0  0  0  0  0  3  0  0  0  0  0  0
  183.7150  177.8140  138.2310 C   0  0  0  0  0  0  0  0  0  0  0  0
  190.0940  177.6430  137.5960 O   0  0  0  0  0  1  0  0  0  0  0  0
  182.8200  175.5560  135.9950 N   0  0  0  0  0  0  0  0  0  0  0  0
  186.9710  172.2470  137.7340 F   0  0  0  0  0  0  0  0  0  0  0  0
  184.6870  178.0130  139.0760 N   0  0  0  0  0  0  0  0  0  0  0  0
  184.0210  177.5500  136.7660 C   0  0  2  0  0  3  0  0  0  0  0  0
  182.3520  177.9900  138.6450 N   0  0  0  0  0  2  0  0  0  0  0  0
  187.7650  177.2530  137.0990 C   0  0  0  0  0  3  0  0  0  0  0  0
  184.7180  172.5080  137.0030 C   0  0  0  0  0  3  0  0  0  0  0  0
  186.0670  177.8930  138.7100 C   0  0  0  0  0  0  0  0  0  0  0  0
  187.0620  178.3500  139.5780 C   0  0  0  0  0  3  0  0  0  0  0  0
  182.8750  176.8520  136.0780 C   0  0  0  0  0  3  0  0  0  0  0  0
  183.8810  174.7170  136.4700 C   0  0  0  0  0  0  0  0  0  0  0  0
  183.6800  173.3370  136.5710 C   0  0  0  0  0  3  0  0  0  0  0  0
  179.2680  178.8140  142.9140 N   0  0  0  0  0  0  0  0  0  0  0  0
  180.1590  179.7830  140.8660 C   0  0  0  0  0  2  0  0  0  0  0  0
  179.8250  176.1260  140.5830 O   0  0  0  0  0  0  0  0  0  0  0  0
  179.4470  178.7640  144.3530 C   0  0  0  0  0  1  0  0  0  0  0  0
  180.2810  179.7230  142.3870 C   0  0  0  0  0  2  0  0  0  0  0  0
  179.8930  177.2880  141.0630 C   0  0  0  0  0  0  0  0  0  0  0  0
  180.4400  178.4160  140.2330 C   0  0  2  0  0  3  0  0  0  0  0  0
  179.5220  177.5170  142.4270 N   0  0  0  0  0  2  0  0  0  0  0  0
  1  8  1  0  0  0  0
  2 15  1  0  0  0  0
  2  3  1  1  0  0  0
  2  7  1  0  0  0  0
  3  9  1  0  0  0  0
  5  4  2  0  0  0  0
  6 13  1  0  0  0  0
  7 19  2  0  0  0  0
  8 20  2  0  0  0  0
  9  6  2  0  0  0  0
 10 16  1  0  0  0  0
 10 14  2  0  0  0  0
 11  1  1  0  0  0  0
 12 21  2  0  0  0  0
 12 22  1  0  0  0  0
 15 21  1  1  0  0  0
 15 10  1  0  0  0  0
 16  5  1  0  0  0  0
 17  7  1  0  0  0  0
 17  1  2  0  0  0  0
 18  6  1  0  0  0  0
 19 14  1  0  0  0  0
 19 20  1  0  0  0  0
 22 23  1  0  0  0  0
 22  3  2  0  0  0  0
 23 18  2  0  0  0  0
 24 27  1  0  0  0  0
 25 28  1  0  0  0  0
 26 29  2  0  0  0  0
 28 24  1  0  0  0  0
 29 31  1  0  0  0  0
 30  5  1  1  0  0  0
 30 25  1  0  0  0  0
 30 29  1  0  0  0  0
 31 24  1  0  0  0  0
M  END
>  <MODEL>
6

>  <REMARK>
 VINA RESULT:      -6.4      5.435      7.205
  Name = 
  1 active torsions:
  status: ('A' for Active; 'I' for Inactive)
    1  A    between atoms: C_5  and  C_30
                            x       y       z     vdW  Elec       q    Type
                         _______ _______ _______ _____ _____    ______ ____

>  <TORSDO>
F 1

$$$$
=
 OpenBabel11122411193D

 31 35  0  0  1  0  0  0  0  0999 V2000
  191.0180  177.5020  140.7020 C   0  0  0  0  0  0  0  0  0  0  0  0
  189.0030  177.8090  137.4880 C   0  0  2  0  0  3  0  0  0  0  0  0
  188.8270  176.4250  136.8910 C   0  0  0  0  0  0  0  0  0  0  0  0
  184.3150  177.8780  139.9770 O   0  0  0  0  0  0  0  0  0  0  0  0
  184.1600  178.3620  138.8220 C   0  0  0  0  0  0  0  0  0  0  0  0
  189.4180  174.0720  136.7430 C   0  0  0  0  0  0  0  0  0  0  0  0
  189.3700  177.7720  138.9480 C   0  0  0  0  0  0  0  0  0  0  0  0
  190.0050  177.5490  141.6640 C   0  0  0  0  0  3  0  0  0  0  0  0
  189.5430  175.3140  137.3680 C   0  0  0  0  0  3  0  0  0  0  0  0
  186.6610  178.3730  138.3010 C   0  0  0  0  0  0  0  0  0  0  0  0
  192.3410  177.3430  141.0950 O   0  0  0  0  0  1  0  0  0  0  0  0
  187.3200  177.4120  135.2120 N   0  0  0  0  0  0  0  0  0  0  0  0
  190.1010  173.0030  137.2180 F   0  0  0  0  0  0  0  0  0  0  0  0
  186.9940  178.0360  139.5150 N   0  0  0  0  0  0  0  0  0  0  0  0
  187.7380  178.6750  137.2720 C   0  0  2  0  0  3  0  0  0  0  0  0
  185.2850  178.6050  137.9680 N   0  0  0  0  0  2  0  0  0  0  0  0
  190.7020  177.6080  139.3450 C   0  0  0  0  0  3  0  0  0  0  0  0
  188.6010  173.9330  135.6180 C   0  0  0  0  0  3  0  0  0  0  0  0
  188.3540  177.8310  139.9160 C   0  0  0  0  0  0  0  0  0  0  0  0
  188.6730  177.7130  141.2720 C   0  0  0  0  0  3  0  0  0  0  0  0
  187.2150  178.5310  135.8640 C   0  0  0  0  0  3  0  0  0  0  0  0
  188.0140  176.2790  135.7500 C   0  0  0  0  0  0  0  0  0  0  0  0
  187.9030  175.0360  135.1190 C   0  0  0  0  0  3  0  0  0  0  0  0
  180.3500  178.5210  139.9760 N   0  0  0  0  0  0  0  0  0  0  0  0
  182.1830  179.8580  139.0950 C   0  0  0  0  0  2  0  0  0  0  0  0
  182.1280  176.5000  137.5840 O   0  0  0  0  0  0  0  0  0  0  0  0
  179.7270  178.0630  141.2050 C   0  0  0  0  0  1  0  0  0  0  0  0
  181.4690  179.3780  140.3560 C   0  0  0  0  0  2  0  0  0  0  0  0
  181.9040  177.4680  138.3560 C   0  0  0  0  0  0  0  0  0  0  0  0
  182.7880  178.6830  138.3180 C   0  0  2  0  0  3  0  0  0  0  0  0
  180.8530  177.3780  139.3240 N   0  0  0  0  0  2  0  0  0  0  0  0
  1 11  1  0  0  0  0
  1  8  1  0  0  0  0
  2  3  1  1  0  0  0
  2  7  1  0  0  0  0
  3  9  1  0  0  0  0
  5  4  2  0  0  0  0
  6 13  1  0  0  0  0
  6  9  2  0  0  0  0
  7 17  1  0  0  0  0
  7 19  2  0  0  0  0
 10 14  2  0  0  0  0
 12 22  1  0  0  0  0
 12 21  2  0  0  0  0
 14 19  1  0  0  0  0
 15 21  1  6  0  0  0
 15  2  1  0  0  0  0
 15 10  1  0  0  0  0
 16 10  1  0  0  0  0
 16  5  1  0  0  0  0
 17  1  2  0  0  0  0
 18  6  1  0  0  0  0
 19 20  1  0  0  0  0
 20  8  2  0  0  0  0
 22  3  2  0  0  0  0
 23 18  2  0  0  0  0
 23 22  1  0  0  0  0
 24 28  1  0  0  0  0
 24 27  1  0  0  0  0
 25 28  1  0  0  0  0
 26 29  2  0  0  0  0
 29 31  1  0  0  0  0
 30 29  1  0  0  0  0
 30  5  1  1  0  0  0
 30 25  1  0  0  0  0
 31 24  1  0  0  0  0
M  END
>  <MODEL>
7

>  <REMARK>
 VINA RESULT:      -6.4      4.020      6.306
  Name = 
  1 active torsions:
  status: ('A' for Active; 'I' for Inactive)
    1  A    between atoms: C_5  and  C_30
                            x       y       z     vdW  Elec       q    Type
                         _______ _______ _______ _____ _____    ______ ____

>  <TORSDO>
F 1

$$$$
=
 OpenBabel11122411193D

 31 35  0  0  1  0  0  0  0  0999 V2000
  192.5290  176.5080  138.2640 C   0  0  0  0  0  0  0  0  0  0  0  0
  188.9100  177.2290  137.3300 C   0  0  2  0  0  3  0  0  0  0  0  0
  188.1660  175.9120  137.2190 C   0  0  0  0  0  0  0  0  0  0  0  0
  187.4140  178.2260  142.3240 O   0  0  0  0  0  0  0  0  0  0  0  0
  186.5640  178.7370  141.5440 C   0  0  0  0  0  0  0  0  0  0  0  0
  188.1290  173.4880  137.0300 C   0  0  0  0  0  0  0  0  0  0  0  0
  190.1880  177.1130  138.1190 C   0  0  0  0  0  0  0  0  0  0  0  0
  192.5090  176.7530  139.6400 C   0  0  0  0  0  3  0  0  0  0  0  0
  188.8370  174.6780  137.2170 C   0  0  0  0  0  3  0  0  0  0  0  0
  187.9370  178.2480  139.4460 C   0  0  0  0  0  0  0  0  0  0  0  0
  193.7010  176.0850  137.6520 O   0  0  0  0  0  1  0  0  0  0  0  0
  186.0800  177.1890  136.9300 N   0  0  0  0  0  0  0  0  0  0  0  0
  188.7820  172.3020  137.0440 F   0  0  0  0  0  0  0  0  0  0  0  0
  188.9740  177.8450  140.1250 N   0  0  0  0  0  0  0  0  0  0  0  0
  188.0050  178.3320  137.9310 C   0  0  2  0  0  3  0  0  0  0  0  0
  186.7800  178.7540  140.1280 N   0  0  0  0  0  2  0  0  0  0  0  0
  191.3690  176.6820  137.5040 C   0  0  0  0  0  3  0  0  0  0  0  0
  186.7480  173.5220  136.8150 C   0  0  0  0  0  3  0  0  0  0  0  0
  190.1710  177.3700  139.5000 C   0  0  0  0  0  0  0  0  0  0  0  0
  191.3300  177.1830  140.2580 C   0  0  0  0  0  3  0  0  0  0  0  0
  186.6300  178.3030  137.3120 C   0  0  0  0  0  3  0  0  0  0  0  0
  186.7760  175.9380  136.9900 C   0  0  0  0  0  0  0  0  0  0  0  0
  186.0730  174.7450  136.7890 C   0  0  0  0  0  3  0  0  0  0  0  0
  184.3870  178.9680  144.8740 N   0  0  0  0  0  0  0  0  0  0  0  0
  185.6060  180.2970  143.2390 C   0  0  0  0  0  2  0  0  0  0  0  0
  183.7990  177.5220  141.6280 O   0  0  0  0  0  0  0  0  0  0  0  0
  184.5230  178.2530  146.1290 C   0  0  0  0  0  1  0  0  0  0  0  0
  185.6870  179.5610  144.5740 C   0  0  0  0  0  2  0  0  0  0  0  0
  184.3370  178.2530  142.5000 C   0  0  0  0  0  0  0  0  0  0  0  0
  185.3030  179.3300  142.0900 C   0  0  2  0  0  3  0  0  0  0  0  0
  184.0870  178.0070  143.8890 N   0  0  0  0  0  2  0  0  0  0  0  0
  1  8  1  0  0  0  0
  2  3  1  1  0  0  0
  2 15  1  0  0  0  0
  2  7  1  0  0  0  0
  5  4  2  0  0  0  0
  6 13  1  0  0  0  0
  6  9  2  0  0  0  0
  7 19  2  0  0  0  0
  8 20  2  0  0  0  0
  9  3  1  0  0  0  0
 10 14  2  0  0  0  0
 10 16  1  0  0  0  0
 11  1  1  0  0  0  0
 12 22  1  0  0  0  0
 12 21  2  0  0  0  0
 15 21  1  6  0  0  0
 15 10  1  0  0  0  0
 16  5  1  0  0  0  0
 17  7  1  0  0  0  0
 17  1  2  0  0  0  0
 18  6  1  0  0  0  0
 19 14  1  0  0  0  0
 19 20  1  0  0  0  0
 22  3  2  0  0  0  0
 23 18  2  0  0  0  0
 23 22  1  0  0  0  0
 24 27  1  0  0  0  0
 25 28  1  0  0  0  0
 26 29  2  0  0  0  0
 28 24  1  0  0  0  0
 29 31  1  0  0  0  0
 30  5  1  1  0  0  0
 30 29  1  0  0  0  0
 30 25  1  0  0  0  0
 31 24  1  0  0  0  0
M  END
>  <MODEL>
8

>  <REMARK>
 VINA RESULT:      -6.3      2.806      3.433
  Name = 
  1 active torsions:
  status: ('A' for Active; 'I' for Inactive)
    1  A    between atoms: C_5  and  C_30
                            x       y       z     vdW  Elec       q    Type
                         _______ _______ _______ _____ _____    ______ ____

>  <TORSDO>
F 1

$$$$
=
 OpenBabel11122411193D

 31 35  0  0  1  0  0  0  0  0999 V2000
  181.3850  171.6680  136.3760 C   0  0  0  0  0  0  0  0  0  0  0  0
  181.6860  175.4600  136.5080 C   0  0  2  0  0  3  0  0  0  0  0  0
  181.2980  175.9300  137.8980 C   0  0  0  0  0  0  0  0  0  0  0  0
  186.9100  175.4020  137.4420 O   0  0  0  0  0  0  0  0  0  0  0  0
  186.5970  176.5420  137.0030 C   0  0  0  0  0  0  0  0  0  0  0  0
  180.2730  175.5570  140.0700 C   0  0  0  0  0  0  0  0  0  0  0  0
  182.0430  173.9980  136.4650 C   0  0  0  0  0  0  0  0  0  0  0  0
  182.7190  171.2830  136.5470 C   0  0  0  0  0  3  0  0  0  0  0  0
  180.6920  175.0710  138.8300 C   0  0  0  0  0  3  0  0  0  0  0  0
  184.1950  175.8650  136.4580 C   0  0  0  0  0  0  0  0  0  0  0  0
  180.3960  170.7020  136.2490 O   0  0  0  0  0  1  0  0  0  0  0  0
  182.0030  178.2010  137.2570 N   0  0  0  0  0  0  0  0  0  0  0  0
  179.7030  174.7180  140.9680 F   0  0  0  0  0  0  0  0  0  0  0  0
  184.4100  174.6050  136.7150 N   0  0  0  0  0  0  0  0  0  0  0  0
  182.8420  176.3140  135.9330 C   0  0  2  0  0  3  0  0  0  0  0  0
  185.2730  176.8090  136.5250 N   0  0  0  0  0  2  0  0  0  0  0  0
  181.0460  173.0240  136.3410 C   0  0  0  0  0  3  0  0  0  0  0  0
  180.4280  176.9100  140.3810 C   0  0  0  0  0  3  0  0  0  0  0  0
  183.3830  173.6110  136.6240 C   0  0  0  0  0  0  0  0  0  0  0  0
  183.7170  172.2540  136.6710 C   0  0  0  0  0  3  0  0  0  0  0  0
  182.6090  177.7830  136.1850 C   0  0  0  0  0  3  0  0  0  0  0  0
  181.4410  177.2950  138.2140 C   0  0  0  0  0  0  0  0  0  0  0  0
  181.0070  177.7800  139.4530 C   0  0  0  0  0  3  0  0  0  0  0  0
  190.4020  177.3290  137.8880 N   0  0  0  0  0  0  0  0  0  0  0  0
  188.7860  177.2890  136.0670 C   0  0  0  0  0  2  0  0  0  0  0  0
  187.2610  178.5240  139.1840 O   0  0  0  0  0  0  0  0  0  0  0  0
  191.3810  176.5240  138.5940 C   0  0  0  0  0  1  0  0  0  0  0  0
  189.8520  176.4970  136.8220 C   0  0  0  0  0  2  0  0  0  0  0  0
  188.0610  177.9850  138.3750 C   0  0  0  0  0  0  0  0  0  0  0  0
  187.6080  177.6450  136.9820 C   0  0  2  0  0  3  0  0  0  0  0  0
  189.3770  177.6250  138.8080 N   0  0  0  0  0  2  0  0  0  0  0  0
  1  8  1  0  0  0  0
  2  7  1  1  0  0  0
  2  3  1  0  0  0  0
  3 22  2  0  0  0  0
  3  9  1  0  0  0  0
  5  4  2  0  0  0  0
  6 18  1  0  0  0  0
  6 13  1  0  0  0  0
  7 19  2  0  0  0  0
  8 20  2  0  0  0  0
  9  6  2  0  0  0  0
 10 16  1  0  0  0  0
 10 14  2  0  0  0  0
 11  1  1  0  0  0  0
 12 22  1  0  0  0  0
 15 21  1  1  0  0  0
 15 10  1  0  0  0  0
 15  2  1  0  0  0  0
 16  5  1  0  0  0  0
 17  1  2  0  0  0  0
 17  7  1  0  0  0  0
 19 20  1  0  0  0  0
 19 14  1  0  0  0  0
 21 12  2  0  0  0  0
 22 23  1  0  0  0  0
 23 18  2  0  0  0  0
 24 27  1  0  0  0  0
 24 31  1  0  0  0  0
 25 28  1  0  0  0  0
 25 30  1  0  0  0  0
 28 24  1  0  0  0  0
 29 31  1  0  0  0  0
 29 26  2  0  0  0  0
 30  5  1  1  0  0  0
 30 29  1  0  0  0  0
M  END
>  <MODEL>
9

>  <REMARK>
 VINA RESULT:      -6.0      5.289      8.498
  Name = 
  1 active torsions:
  status: ('A' for Active; 'I' for Inactive)
    1  A    between atoms: C_5  and  C_30
                            x       y       z     vdW  Elec       q    Type
                         _______ _______ _______ _____ _____    ______ ____

>  <TORSDO>
F 1

$$$$
