=
 OpenBabel11122411583D

 28 32  0  0  1  0  0  0  0  0999 V2000
  186.8120  173.8940  136.9880 C   0  0  0  0  0  0  0  0  0  0  0  0
  188.7860  176.7510  138.9260 O   0  0  0  0  0  0  0  0  0  0  0  0
  182.9270  176.4230  139.7570 N   0  0  0  0  0  1  0  0  0  0  0  0
  188.6590  174.7790  135.0800 C   0  0  0  0  0  3  0  0  0  0  0  0
  182.9620  177.7820  137.7420 C   0  0  1  0  0  3  0  0  0  0  0  0
  185.8520  173.4580  137.9020 O   0  0  0  0  0  0  0  0  0  0  0  0
  188.8850  179.0580  138.0770 O   0  0  0  0  0  0  0  0  0  0  0  0
  187.9940  178.0010  138.6660 S   0  0  0  0  0  0  0  0  0  0  0  0
  185.9000  178.6800  140.2900 C   0  0  0  0  0  0  0  0  0  0  0  0
  186.6500  177.6780  137.5460 C   0  0  2  0  0  3  0  0  0  0  0  0
  183.9150  172.9930  135.3250 O   0  0  0  0  0  0  0  0  0  0  0  0
  184.7400  176.3280  136.9680 C   0  0  2  0  0  3  0  0  0  0  0  0
  185.0870  178.5930  139.2790 N   0  0  0  0  0  0  0  0  0  0  0  0
  187.3130  178.5780  140.1350 N   0  0  0  0  0  2  0  0  0  0  0  0
  183.9280  173.3950  136.4760 C   0  0  0  0  0  0  0  0  0  0  0  0
  187.0040  175.2720  136.7910 C   0  0  0  0  0  0  0  0  0  0  0  0
  182.7930  176.3860  138.3110 C   0  0  1  0  0  3  0  0  0  0  0  0
  185.3370  178.8350  141.6560 C   0  0  0  0  0  1  0  0  0  0  0  0
  183.1090  174.6010  136.8360 C   0  0  0  0  0  2  0  0  0  0  0  0
  187.9210  175.7060  135.8200 C   0  0  0  0  0  3  0  0  0  0  0  0
  187.5470  172.9680  136.2370 C   0  0  0  0  0  3  0  0  0  0  0  0
  188.4740  173.4110  135.2900 C   0  0  0  0  0  3  0  0  0  0  0  0
  184.7480  172.6590  137.4960 C   0  0  0  0  0  2  0  0  0  0  0  0
  184.3160  177.7850  137.0680 C   0  0  2  0  0  3  0  0  0  0  0  0
  183.8130  175.5020  137.7480 N   0  0  1  0  0  0  0  0  0  0  0  0
  185.4210  178.5220  137.8440 C   0  0  2  0  0  3  0  0  0  0  0  0
  181.8850  178.0390  136.7080 C   0  0  0  0  0  1  0  0  0  0  0  0
  186.1450  176.2460  137.5590 C   0  0  1  0  0  3  0  0  0  0  0  0
  1  6  1  0  0  0  0
  4 22  2  0  0  0  0
  4 20  1  0  0  0  0
  5 27  1  6  0  0  0
  5 17  1  0  0  0  0
  7  8  2  0  0  0  0
  8  2  2  0  0  0  0
  8 14  1  0  0  0  0
  9 18  1  0  0  0  0
 10 28  1  0  0  0  0
 10 26  1  0  0  0  0
 10  8  1  1  0  0  0
 11 15  2  0  0  0  0
 12 24  1  0  0  0  0
 12 28  1  0  0  0  0
 12 25  1  0  0  0  0
 13  9  2  0  0  0  0
 14  9  1  0  0  0  0
 15 19  1  0  0  0  0
 15 23  1  0  0  0  0
 16  1  1  0  0  0  0
 16 28  1  0  0  0  0
 17  3  1  0  0  0  0
 19 25  1  0  0  0  0
 20 16  2  0  0  0  0
 21  1  2  0  0  0  0
 22 21  1  0  0  0  0
 23  6  1  0  0  0  0
 24  5  1  0  0  0  0
 24 26  1  0  0  0  0
 25 17  1  0  0  0  0
 26 13  1  0  0  0  0
M  END
>  <MODEL>
1

>  <REMARK>
 VINA RESULT:      -6.2      0.000      0.000
  Name = 
  0 active torsions:
  status: ('A' for Active; 'I' for Inactive)
                            x       y       z     vdW  Elec       q    Type
                         _______ _______ _______ _____ _____    ______ ____

>  <TORSDO>
F 0

$$$$
=
 OpenBabel11122411583D

 28 32  0  0  1  0  0  0  0  0999 V2000
  182.1330  177.7500  140.3380 C   0  0  0  0  0  0  0  0  0  0  0  0
  180.0680  174.5080  139.3180 O   0  0  0  0  0  0  0  0  0  0  0  0
  185.6270  174.9550  137.3150 N   0  0  0  0  0  1  0  0  0  0  0  0
  179.5800  178.7760  139.8200 C   0  0  0  0  0  3  0  0  0  0  0  0
  184.4820  176.2150  135.5800 C   0  0  1  0  0  3  0  0  0  0  0  0
  183.4270  177.2770  140.5630 O   0  0  0  0  0  0  0  0  0  0  0  0
  178.9310  174.3300  137.1440 O   0  0  0  0  0  0  0  0  0  0  0  0
  180.2640  174.3860  137.8330 S   0  0  0  0  0  0  0  0  0  0  0  0
  182.4190  173.0350  136.8270 C   0  0  0  0  0  0  0  0  0  0  0  0
  181.1940  175.7650  137.2020 C   0  0  2  0  0  3  0  0  0  0  0  0
  184.4510  180.1300  139.3700 O   0  0  0  0  0  0  0  0  0  0  0  0
  183.1450  177.1700  137.3610 C   0  0  2  0  0  3  0  0  0  0  0  0
  182.8370  174.1250  136.2550 N   0  0  0  0  0  0  0  0  0  0  0  0
  181.1540  172.9580  137.4780 N   0  0  0  0  0  2  0  0  0  0  0  0
  184.6820  178.9320  139.3700 C   0  0  0  0  0  0  0  0  0  0  0  0
  181.4390  177.3410  139.1860 C   0  0  0  0  0  0  0  0  0  0  0  0
  185.2850  176.2930  136.8660 C   0  0  1  0  0  3  0  0  0  0  0  0
  183.3120  171.8480  136.8520 C   0  0  0  0  0  1  0  0  0  0  0  0
  185.1200  178.2750  138.0920 C   0  0  0  0  0  2  0  0  0  0  0  0
  180.1650  177.8740  138.9280 C   0  0  0  0  0  3  0  0  0  0  0  0
  181.5470  178.6620  141.2250 C   0  0  0  0  0  3  0  0  0  0  0  0
  180.2700  179.1670  140.9690 C   0  0  0  0  0  3  0  0  0  0  0  0
  184.5370  178.1620  140.6500 C   0  0  0  0  0  2  0  0  0  0  0  0
  183.0650  176.5740  135.9640 C   0  0  2  0  0  3  0  0  0  0  0  0
  184.4950  176.9680  137.8950 N   0  0  1  0  0  0  0  0  0  0  0  0
  182.0950  175.3820  136.0390 C   0  0  2  0  0  3  0  0  0  0  0  0
  185.0110  177.2370  134.5940 C   0  0  0  0  0  1  0  0  0  0  0  0
  182.1230  176.4170  138.2100 C   0  0  1  0  0  3  0  0  0  0  0  0
  1  6  1  0  0  0  0
  1 21  1  0  0  0  0
  4 22  1  0  0  0  0
  5 27  1  6  0  0  0
  5 24  1  0  0  0  0
  5 17  1  0  0  0  0
  6 23  1  0  0  0  0
  7  8  2  0  0  0  0
  8  2  2  0  0  0  0
  9 18  1  0  0  0  0
  9 14  1  0  0  0  0
 10  8  1  1  0  0  0
 10 28  1  0  0  0  0
 12 25  1  0  0  0  0
 12 28  1  0  0  0  0
 13  9  2  0  0  0  0
 14  8  1  0  0  0  0
 15 11  2  0  0  0  0
 15 23  1  0  0  0  0
 16  1  2  0  0  0  0
 17  3  1  0  0  0  0
 17 25  1  0  0  0  0
 19 15  1  0  0  0  0
 20 16  1  0  0  0  0
 20  4  2  0  0  0  0
 22 21  2  0  0  0  0
 24 26  1  0  0  0  0
 24 12  1  0  0  0  0
 25 19  1  0  0  0  0
 26 13  1  0  0  0  0
 26 10  1  0  0  0  0
 28 16  1  0  0  0  0
M  END
>  <MODEL>
2

>  <REMARK>
 VINA RESULT:      -5.5      3.331      6.961
  Name = 
  0 active torsions:
  status: ('A' for Active; 'I' for Inactive)
                            x       y       z     vdW  Elec       q    Type
                         _______ _______ _______ _____ _____    ______ ____

>  <TORSDO>
F 0

$$$$
=
 OpenBabel11122411583D

 28 32  0  0  1  0  0  0  0  0999 V2000
  182.3900  179.3140  142.7360 C   0  0  0  0  0  0  0  0  0  0  0  0
  184.5900  179.7530  139.4520 O   0  0  0  0  0  0  0  0  0  0  0  0
  178.9500  178.0660  138.7640 N   0  0  0  0  0  1  0  0  0  0  0  0
  184.8650  178.2530  143.4990 C   0  0  0  0  0  3  0  0  0  0  0  0
  179.9680  175.8910  139.1410 C   0  0  1  0  0  3  0  0  0  0  0  0
  181.1310  179.7980  142.3740 O   0  0  0  0  0  0  0  0  0  0  0  0
  185.6610  177.8330  138.3480 O   0  0  0  0  0  0  0  0  0  0  0  0
  184.3500  178.4950  138.6650 S   0  0  0  0  0  0  0  0  0  0  0  0
  182.2380  178.3220  136.9360 C   0  0  0  0  0  0  0  0  0  0  0  0
  183.3280  177.3620  139.5790 C   0  0  2  0  0  3  0  0  0  0  0  0
  179.9170  177.5050  144.3440 O   0  0  0  0  0  0  0  0  0  0  0  0
  181.3110  176.9760  140.8400 C   0  0  2  0  0  3  0  0  0  0  0  0
  181.7440  177.3440  137.6360 N   0  0  0  0  0  0  0  0  0  0  0  0
  183.5270  178.8690  137.2030 N   0  0  0  0  0  2  0  0  0  0  0  0
  179.7510  178.0570  143.2690 C   0  0  0  0  0  0  0  0  0  0  0  0
  183.0660  178.4340  141.8730 C   0  0  0  0  0  0  0  0  0  0  0  0
  179.2060  177.0450  139.7650 C   0  0  1  0  0  3  0  0  0  0  0  0
  181.4120  178.9270  135.8600 C   0  0  0  0  0  1  0  0  0  0  0  0
  179.3050  177.2380  142.0910 C   0  0  0  0  0  2  0  0  0  0  0  0
  184.3000  177.8950  142.2720 C   0  0  0  0  0  3  0  0  0  0  0  0
  182.9550  179.6630  143.9690 C   0  0  0  0  0  3  0  0  0  0  0  0
  184.1940  179.1390  144.3450 C   0  0  0  0  0  3  0  0  0  0  0  0
  179.9790  179.5370  143.1660 C   0  0  0  0  0  2  0  0  0  0  0  0
  181.3760  175.9950  139.6800 C   0  0  2  0  0  3  0  0  0  0  0  0
  179.9920  177.6160  140.8570 N   0  0  1  0  0  0  0  0  0  0  0  0
  182.4100  176.5460  138.6830 C   0  0  2  0  0  3  0  0  0  0  0  0
  179.3520  174.5800  139.5880 C   0  0  0  0  0  1  0  0  0  0  0  0
  182.4000  178.0170  140.5860 C   0  0  1  0  0  3  0  0  0  0  0  0
  1 21  1  0  0  0  0
  3 17  1  0  0  0  0
  4 22  1  0  0  0  0
  5 27  1  1  0  0  0
  5 24  1  0  0  0  0
  5 17  1  0  0  0  0
  6  1  1  0  0  0  0
  6 23  1  0  0  0  0
  7  8  2  0  0  0  0
  8  2  2  0  0  0  0
  9 14  1  0  0  0  0
  9 13  2  0  0  0  0
 10  8  1  6  0  0  0
 10 28  1  0  0  0  0
 12 25  1  0  0  0  0
 13 26  1  0  0  0  0
 14  8  1  0  0  0  0
 15 11  2  0  0  0  0
 16 20  1  0  0  0  0
 16  1  2  0  0  0  0
 17 25  1  0  0  0  0
 18  9  1  0  0  0  0
 19 15  1  0  0  0  0
 20  4  2  0  0  0  0
 21 22  2  0  0  0  0
 23 15  1  0  0  0  0
 24 12  1  0  0  0  0
 25 19  1  0  0  0  0
 26 10  1  0  0  0  0
 26 24  1  0  0  0  0
 28 12  1  0  0  0  0
 28 16  1  0  0  0  0
M  END
>  <MODEL>
3

>  <REMARK>
 VINA RESULT:      -5.4      4.209      6.960
  Name = 
  0 active torsions:
  status: ('A' for Active; 'I' for Inactive)
                            x       y       z     vdW  Elec       q    Type
                         _______ _______ _______ _____ _____    ______ ____

>  <TORSDO>
F 0

$$$$
=
 OpenBabel11122411583D

 28 32  0  0  1  0  0  0  0  0999 V2000
  186.3390  176.7650  135.9030 C   0  0  0  0  0  0  0  0  0  0  0  0
  182.5840  176.8420  134.5950 O   0  0  0  0  0  0  0  0  0  0  0  0
  184.0400  180.5740  138.9640 N   0  0  0  0  0  1  0  0  0  0  0  0
  185.7640  174.0550  135.5040 C   0  0  0  0  0  3  0  0  0  0  0  0
  183.5250  178.6010  140.2880 C   0  0  1  0  0  3  0  0  0  0  0  0
  186.6440  178.1050  136.1520 O   0  0  0  0  0  0  0  0  0  0  0  0
  180.7850  175.6340  135.7590 O   0  0  0  0  0  0  0  0  0  0  0  0
  181.7480  176.7840  135.8430 S   0  0  0  0  0  0  0  0  0  0  0  0
  181.0780  179.0790  137.1720 C   0  0  0  0  0  0  0  0  0  0  0  0
  182.7730  176.5870  137.2830 C   0  0  2  0  0  3  0  0  0  0  0  0
  188.4640  177.0110  138.6230 O   0  0  0  0  0  0  0  0  0  0  0  0
  184.6700  177.3300  138.5700 C   0  0  2  0  0  3  0  0  0  0  0  0
  181.7190  178.6590  138.2220 N   0  0  0  0  0  0  0  0  0  0  0  0
  180.8740  178.2520  136.0290 N   0  0  0  0  0  2  0  0  0  0  0  0
  187.6880  177.8940  138.2980 C   0  0  0  0  0  0  0  0  0  0  0  0
  185.1210  176.2370  136.3630 C   0  0  0  0  0  0  0  0  0  0  0  0
  184.6220  179.4340  139.6500 C   0  0  1  0  0  3  0  0  0  0  0  0
  180.5910  180.4820  137.1380 C   0  0  0  0  0  1  0  0  0  0  0  0
  186.6770  178.3790  139.2970 C   0  0  0  0  0  2  0  0  0  0  0  0
  184.8490  174.8730  136.1710 C   0  0  0  0  0  3  0  0  0  0  0  0
  187.2580  175.9410  135.2420 C   0  0  0  0  0  3  0  0  0  0  0  0
  186.9670  174.5900  135.0370 C   0  0  0  0  0  3  0  0  0  0  0  0
  187.7830  178.4770  136.9180 C   0  0  0  0  0  2  0  0  0  0  0  0
  183.4260  177.3480  139.4470 C   0  0  2  0  0  3  0  0  0  0  0  0
  185.3660  178.6150  138.6950 N   0  0  1  0  0  0  0  0  0  0  0  0
  182.2120  177.2980  138.5050 C   0  0  2  0  0  3  0  0  0  0  0  0
  183.9310  178.2300  141.6990 C   0  0  0  0  0  1  0  0  0  0  0  0
  184.1830  177.1300  137.1360 C   0  0  1  0  0  3  0  0  0  0  0  0
  1  6  1  0  0  0  0
  1 16  1  0  0  0  0
  2  8  2  0  0  0  0
  3 17  1  0  0  0  0
  4 20  1  0  0  0  0
  5 27  1  1  0  0  0
  6 23  1  0  0  0  0
  7  8  2  0  0  0  0
  8 14  1  0  0  0  0
  9 13  2  0  0  0  0
 10  8  1  6  0  0  0
 10 26  1  0  0  0  0
 12 25  1  0  0  0  0
 12 24  1  0  0  0  0
 13 26  1  0  0  0  0
 14  9  1  0  0  0  0
 15 11  2  0  0  0  0
 15 19  1  0  0  0  0
 16 28  1  0  0  0  0
 17  5  1  0  0  0  0
 18  9  1  0  0  0  0
 20 16  2  0  0  0  0
 21  1  2  0  0  0  0
 22 21  1  0  0  0  0
 22  4  2  0  0  0  0
 23 15  1  0  0  0  0
 24  5  1  0  0  0  0
 25 19  1  0  0  0  0
 25 17  1  0  0  0  0
 26 24  1  0  0  0  0
 28 10  1  0  0  0  0
 28 12  1  0  0  0  0
M  END
>  <MODEL>
4

>  <REMARK>
 VINA RESULT:      -5.3      2.484      4.997
  Name = 
  0 active torsions:
  status: ('A' for Active; 'I' for Inactive)
                            x       y       z     vdW  Elec       q    Type
                         _______ _______ _______ _____ _____    ______ ____

>  <TORSDO>
F 0

$$$$
=
 OpenBabel11122411583D

 28 32  0  0  1  0  0  0  0  0999 V2000
  183.6740  175.9370  136.1470 C   0  0  0  0  0  0  0  0  0  0  0  0
  179.8540  176.5440  137.0760 O   0  0  0  0  0  0  0  0  0  0  0  0
  183.8100  180.4980  139.0350 N   0  0  0  0  0  1  0  0  0  0  0  0
  182.7570  173.3570  136.7270 C   0  0  0  0  0  3  0  0  0  0  0  0
  183.9730  178.8610  140.8240 C   0  0  1  0  0  3  0  0  0  0  0  0
  184.1730  177.2160  135.8920 O   0  0  0  0  0  0  0  0  0  0  0  0
  178.9310  175.8710  139.2550 O   0  0  0  0  0  0  0  0  0  0  0  0
  179.8630  176.8180  138.5530 S   0  0  0  0  0  0  0  0  0  0  0  0
  180.2440  179.3590  139.4900 C   0  0  0  0  0  0  0  0  0  0  0  0
  181.5010  176.6310  139.2220 C   0  0  2  0  0  3  0  0  0  0  0  0
  186.9720  176.1490  137.1720 O   0  0  0  0  0  0  0  0  0  0  0  0
  183.8460  177.1720  139.0910 C   0  0  2  0  0  3  0  0  0  0  0  0
  181.3290  178.9750  140.0950 N   0  0  0  0  0  0  0  0  0  0  0  0
  179.3670  178.4370  138.8500 N   0  0  0  0  0  2  0  0  0  0  0  0
  186.2210  177.1100  137.1290 C   0  0  0  0  0  0  0  0  0  0  0  0
  182.8870  175.7190  137.2910 C   0  0  0  0  0  0  0  0  0  0  0  0
  184.5830  179.3750  139.5340 C   0  0  1  0  0  3  0  0  0  0  0  0
  179.9380  180.8110  139.4140 C   0  0  0  0  0  1  0  0  0  0  0  0
  185.9910  177.9110  138.3780 C   0  0  0  0  0  2  0  0  0  0  0  0
  182.4450  174.4170  137.5810 C   0  0  0  0  0  3  0  0  0  0  0  0
  183.9920  174.8700  135.2980 C   0  0  0  0  0  3  0  0  0  0  0  0
  183.5270  173.5840  135.5850 C   0  0  0  0  0  3  0  0  0  0  0  0
  185.5710  177.4680  135.8240 C   0  0  0  0  0  2  0  0  0  0  0  0
  183.3170  177.5460  140.4680 C   0  0  2  0  0  3  0  0  0  0  0  0
  184.5920  178.3060  138.5370 N   0  0  1  0  0  0  0  0  0  0  0  0
  181.7840  177.5970  140.3620 C   0  0  2  0  0  3  0  0  0  0  0  0
  185.0710  178.6180  141.8400 C   0  0  0  0  0  1  0  0  0  0  0  0
  182.6220  176.8710  138.2270 C   0  0  1  0  0  3  0  0  0  0  0  0
  1 16  1  0  0  0  0
  2  8  2  0  0  0  0
  3 17  1  0  0  0  0
  4 20  1  0  0  0  0
  5 27  1  1  0  0  0
  6  1  1  0  0  0  0
  8 14  1  0  0  0  0
  8  7  2  0  0  0  0
  9 13  2  0  0  0  0
 10  8  1  6  0  0  0
 10 26  1  0  0  0  0
 12 24  1  0  0  0  0
 13 26  1  0  0  0  0
 14  9  1  0  0  0  0
 15 11  2  0  0  0  0
 15 19  1  0  0  0  0
 16 20  2  0  0  0  0
 16 28  1  0  0  0  0
 17  5  1  0  0  0  0
 18  9  1  0  0  0  0
 19 25  1  0  0  0  0
 21 22  1  0  0  0  0
 21  1  2  0  0  0  0
 22  4  2  0  0  0  0
 23  6  1  0  0  0  0
 23 15  1  0  0  0  0
 24  5  1  0  0  0  0
 25 12  1  0  0  0  0
 25 17  1  0  0  0  0
 26 24  1  0  0  0  0
 28 12  1  0  0  0  0
 28 10  1  0  0  0  0
M  END
>  <MODEL>
5

>  <REMARK>
 VINA RESULT:      -5.2      3.138      5.489
  Name = 
  0 active torsions:
  status: ('A' for Active; 'I' for Inactive)
                            x       y       z     vdW  Elec       q    Type
                         _______ _______ _______ _____ _____    ______ ____

>  <TORSDO>
F 0

$$$$
=
 OpenBabel11122411583D

 28 32  0  0  1  0  0  0  0  0999 V2000
  185.7310  175.4230  136.4160 C   0  0  0  0  0  0  0  0  0  0  0  0
  182.3620  173.4940  135.5540 O   0  0  0  0  0  0  0  0  0  0  0  0
  181.9080  179.1120  137.3850 N   0  0  0  0  0  1  0  0  0  0  0  0
  186.1970  172.8640  137.4500 C   0  0  0  0  0  3  0  0  0  0  0  0
  181.9780  178.0000  139.5450 C   0  0  1  0  0  3  0  0  0  0  0  0
  185.5140  176.7210  135.9480 O   0  0  0  0  0  0  0  0  0  0  0  0
  180.9870  172.4480  137.3060 O   0  0  0  0  0  0  0  0  0  0  0  0
  181.4660  173.7510  136.7330 S   0  0  0  0  0  0  0  0  0  0  0  0
  179.8850  175.9820  136.8110 C   0  0  0  0  0  0  0  0  0  0  0  0
  182.3270  174.6650  137.9940 C   0  0  2  0  0  3  0  0  0  0  0  0
  187.3130  177.7080  138.4770 O   0  0  0  0  0  0  0  0  0  0  0  0
  183.6820  176.5670  138.5870 C   0  0  2  0  0  3  0  0  0  0  0  0
  180.5110  176.3900  137.8750 N   0  0  0  0  0  0  0  0  0  0  0  0
  180.1150  174.6950  136.2440 N   0  0  0  0  0  2  0  0  0  0  0  0
  186.3170  177.9730  137.8250 C   0  0  0  0  0  0  0  0  0  0  0  0
  184.7340  174.7870  137.1750 C   0  0  0  0  0  0  0  0  0  0  0  0
  182.7740  178.7490  138.4920 C   0  0  1  0  0  3  0  0  0  0  0  0
  178.9410  176.9070  136.1320 C   0  0  0  0  0  1  0  0  0  0  0  0
  185.0950  178.4790  138.5360 C   0  0  0  0  0  2  0  0  0  0  0  0
  184.9840  173.5090  137.7020 C   0  0  0  0  0  3  0  0  0  0  0  0
  186.9500  174.7780  136.1730 C   0  0  0  0  0  3  0  0  0  0  0  0
  187.1790  173.4980  136.6840 C   0  0  0  0  0  3  0  0  0  0  0  0
  186.3550  177.8000  136.3350 C   0  0  0  0  0  2  0  0  0  0  0  0
  182.4220  176.5580  139.4410 C   0  0  2  0  0  3  0  0  0  0  0  0
  183.8610  177.9010  138.0060 N   0  0  1  0  0  0  0  0  0  0  0  0
  181.4180  175.6210  138.7490 C   0  0  2  0  0  3  0  0  0  0  0  0
  182.3280  178.5370  140.9180 C   0  0  0  0  0  1  0  0  0  0  0  0
  183.4610  175.5350  137.4830 C   0  0  1  0  0  3  0  0  0  0  0  0
  1 16  1  0  0  0  0
  2  8  2  0  0  0  0
  3 17  1  0  0  0  0
  4 20  1  0  0  0  0
  5 27  1  1  0  0  0
  6 23  1  0  0  0  0
  6  1  1  0  0  0  0
  8  7  2  0  0  0  0
  9 13  2  0  0  0  0
 10  8  1  6  0  0  0
 10 26  1  0  0  0  0
 12 24  1  0  0  0  0
 13 26  1  0  0  0  0
 14  8  1  0  0  0  0
 14  9  1  0  0  0  0
 15 11  2  0  0  0  0
 15 19  1  0  0  0  0
 16 28  1  0  0  0  0
 16 20  2  0  0  0  0
 17  5  1  0  0  0  0
 18  9  1  0  0  0  0
 21  1  2  0  0  0  0
 21 22  1  0  0  0  0
 22  4  2  0  0  0  0
 23 15  1  0  0  0  0
 24  5  1  0  0  0  0
 25 17  1  0  0  0  0
 25 19  1  0  0  0  0
 25 12  1  0  0  0  0
 26 24  1  0  0  0  0
 28 10  1  0  0  0  0
 28 12  1  0  0  0  0
M  END
>  <MODEL>
6

>  <REMARK>
 VINA RESULT:      -5.2      2.630      5.298
  Name = 
  0 active torsions:
  status: ('A' for Active; 'I' for Inactive)
                            x       y       z     vdW  Elec       q    Type
                         _______ _______ _______ _____ _____    ______ ____

>  <TORSDO>
F 0

$$$$
=
 OpenBabel11122411583D

 28 32  0  0  1  0  0  0  0  0999 V2000
  184.5100  173.1450  136.9970 C   0  0  0  0  0  0  0  0  0  0  0  0
  188.3070  172.0320  137.3920 O   0  0  0  0  0  0  0  0  0  0  0  0
  187.0530  177.7840  138.0780 N   0  0  0  0  0  1  0  0  0  0  0  0
  184.8170  171.2470  134.9630 C   0  0  0  0  0  3  0  0  0  0  0  0
  187.2990  177.7210  135.6600 C   0  0  1  0  0  3  0  0  0  0  0  0
  184.3350  174.1250  137.9760 O   0  0  0  0  0  0  0  0  0  0  0  0
  189.9160  172.2480  135.5430 O   0  0  0  0  0  0  0  0  0  0  0  0
  189.0760  173.0000  136.5360 S   0  0  0  0  0  0  0  0  0  0  0  0
  189.9210  175.3900  137.5620 C   0  0  0  0  0  0  0  0  0  0  0  0
  187.9720  174.0890  135.6640 C   0  0  2  0  0  3  0  0  0  0  0  0
  182.3020  175.5600  135.8740 O   0  0  0  0  0  0  0  0  0  0  0  0
  186.1070  175.6120  135.7410 C   0  0  2  0  0  3  0  0  0  0  0  0
  189.1930  176.0230  136.6900 N   0  0  0  0  0  0  0  0  0  0  0  0
  190.0890  173.9750  137.5240 N   0  0  0  0  0  2  0  0  0  0  0  0
  183.1800  175.7840  136.6900 C   0  0  0  0  0  0  0  0  0  0  0  0
  185.6440  173.1890  136.1690 C   0  0  0  0  0  0  0  0  0  0  0  0
  186.3250  177.7040  136.8240 C   0  0  1  0  0  3  0  0  0  0  0  0
  190.5520  176.1580  138.6660 C   0  0  0  0  0  1  0  0  0  0  0  0
  184.1900  176.8570  136.3980 C   0  0  0  0  0  2  0  0  0  0  0  0
  185.7810  172.2420  135.1420 C   0  0  0  0  0  3  0  0  0  0  0  0
  183.5400  172.1520  136.8090 C   0  0  0  0  0  3  0  0  0  0  0  0
  183.6980  171.2010  135.7980 C   0  0  0  0  0  3  0  0  0  0  0  0
  183.2080  174.9920  137.9650 C   0  0  0  0  0  2  0  0  0  0  0  0
  187.3040  176.3110  135.1140 C   0  0  2  0  0  3  0  0  0  0  0  0
  185.5440  176.4690  136.7890 N   0  0  1  0  0  0  0  0  0  0  0  0
  188.5480  175.4830  135.4780 C   0  0  2  0  0  3  0  0  0  0  0  0
  186.7930  178.6720  134.5940 C   0  0  0  0  0  1  0  0  0  0  0  0
  186.6340  174.3130  136.3460 C   0  0  1  0  0  3  0  0  0  0  0  0
  1  6  1  0  0  0  0
  4 20  2  0  0  0  0
  4 22  1  0  0  0  0
  5 27  1  6  0  0  0
  5 17  1  0  0  0  0
  7  8  2  0  0  0  0
  8  2  2  0  0  0  0
  8 14  1  0  0  0  0
  9 18  1  0  0  0  0
 10 28  1  0  0  0  0
 10  8  1  1  0  0  0
 11 15  2  0  0  0  0
 12 28  1  0  0  0  0
 12 25  1  0  0  0  0
 13  9  2  0  0  0  0
 14  9  1  0  0  0  0
 15 23  1  0  0  0  0
 16 28  1  0  0  0  0
 16  1  2  0  0  0  0
 17  3  1  0  0  0  0
 19 15  1  0  0  0  0
 19 25  1  0  0  0  0
 20 16  1  0  0  0  0
 21  1  1  0  0  0  0
 22 21  2  0  0  0  0
 23  6  1  0  0  0  0
 24 26  1  0  0  0  0
 24  5  1  0  0  0  0
 24 12  1  0  0  0  0
 25 17  1  0  0  0  0
 26 10  1  0  0  0  0
 26 13  1  0  0  0  0
M  END
>  <MODEL>
7

>  <REMARK>
 VINA RESULT:      -5.1      2.749      4.432
  Name = 
  0 active torsions:
  status: ('A' for Active; 'I' for Inactive)
                            x       y       z     vdW  Elec       q    Type
                         _______ _______ _______ _____ _____    ______ ____

>  <TORSDO>
F 0

$$$$
=
 OpenBabel11122411583D

 28 32  0  0  1  0  0  0  0  0999 V2000
  186.5120  177.5520  143.0340 C   0  0  0  0  0  0  0  0  0  0  0  0
  183.1350  177.0090  141.0060 O   0  0  0  0  0  0  0  0  0  0  0  0
  188.2310  175.9550  138.1710 N   0  0  0  0  0  1  0  0  0  0  0  0
  184.9310  179.7060  143.8690 C   0  0  0  0  0  3  0  0  0  0  0  0
  188.0590  178.3500  137.7920 C   0  0  1  0  0  3  0  0  0  0  0  0
  187.3410  176.5130  142.6070 O   0  0  0  0  0  0  0  0  0  0  0  0
  182.2460  178.7300  139.4900 O   0  0  0  0  0  0  0  0  0  0  0  0
  183.3510  177.7360  139.7090 S   0  0  0  0  0  0  0  0  0  0  0  0
  184.5420  176.4750  137.5930 C   0  0  0  0  0  0  0  0  0  0  0  0
  184.9130  178.5880  139.7140 C   0  0  2  0  0  3  0  0  0  0  0  0
  189.8020  178.6200  142.9470 O   0  0  0  0  0  0  0  0  0  0  0  0
  187.2920  178.5090  140.0860 C   0  0  2  0  0  3  0  0  0  0  0  0
  185.5130  177.3390  137.6250 N   0  0  0  0  0  0  0  0  0  0  0  0
  183.3800  176.6130  138.4070 N   0  0  0  0  0  2  0  0  0  0  0  0
  189.3660  177.7350  142.2300 C   0  0  0  0  0  0  0  0  0  0  0  0
  185.7970  178.3010  142.0840 C   0  0  0  0  0  0  0  0  0  0  0  0
  188.6810  177.2540  138.6390 C   0  0  1  0  0  3  0  0  0  0  0  0
  184.6700  175.2770  136.7250 C   0  0  0  0  0  1  0  0  0  0  0  0
  189.4900  177.8780  140.7400 C   0  0  0  0  0  2  0  0  0  0  0  0
  185.0200  179.3890  142.5120 C   0  0  0  0  0  3  0  0  0  0  0  0
  186.4280  177.8780  144.3940 C   0  0  0  0  0  3  0  0  0  0  0  0
  185.6320  178.9480  144.8100 C   0  0  0  0  0  3  0  0  0  0  0  0
  188.7400  176.5260  142.8630 C   0  0  0  0  0  2  0  0  0  0  0  0
  187.0180  179.0030  138.6730 C   0  0  2  0  0  3  0  0  0  0  0  0
  188.2880  177.4340  140.0360 N   0  0  1  0  0  0  0  0  0  0  0  0
  185.5640  178.6280  138.3410 C   0  0  2  0  0  3  0  0  0  0  0  0
  189.1210  179.3680  137.4270 C   0  0  0  0  0  1  0  0  0  0  0  0
  185.9650  177.9750  140.6210 C   0  0  1  0  0  3  0  0  0  0  0  0
  1 21  1  0  0  0  0
  3 17  1  0  0  0  0
  4 22  1  0  0  0  0
  5 27  1  1  0  0  0
  5 17  1  0  0  0  0
  5 24  1  0  0  0  0
  6 23  1  0  0  0  0
  6  1  1  0  0  0  0
  7  8  2  0  0  0  0
  8  2  2  0  0  0  0
  9 13  2  0  0  0  0
  9 14  1  0  0  0  0
 10  8  1  6  0  0  0
 10 28  1  0  0  0  0
 12 28  1  0  0  0  0
 13 26  1  0  0  0  0
 14  8  1  0  0  0  0
 15 23  1  0  0  0  0
 15 11  2  0  0  0  0
 16 20  1  0  0  0  0
 16  1  2  0  0  0  0
 17 25  1  0  0  0  0
 18  9  1  0  0  0  0
 19 15  1  0  0  0  0
 20  4  2  0  0  0  0
 21 22  2  0  0  0  0
 24 12  1  0  0  0  0
 25 12  1  0  0  0  0
 25 19  1  0  0  0  0
 26 24  1  0  0  0  0
 26 10  1  0  0  0  0
 28 16  1  0  0  0  0
M  END
>  <MODEL>
8

>  <REMARK>
 VINA RESULT:      -4.9      3.104      6.739
  Name = 
  0 active torsions:
  status: ('A' for Active; 'I' for Inactive)
                            x       y       z     vdW  Elec       q    Type
                         _______ _______ _______ _____ _____    ______ ____

>  <TORSDO>
F 0

$$$$
=
 OpenBabel11122411583D

 28 32  0  0  1  0  0  0  0  0999 V2000
  184.1720  174.8720  137.4510 C   0  0  0  0  0  0  0  0  0  0  0  0
  184.2400  177.9330  139.9890 O   0  0  0  0  0  0  0  0  0  0  0  0
  178.9750  176.2870  137.8250 N   0  0  0  0  0  1  0  0  0  0  0  0
  186.4650  176.2770  136.6720 C   0  0  0  0  0  3  0  0  0  0  0  0
  179.6880  177.7700  136.0350 C   0  0  1  0  0  3  0  0  0  0  0  0
  183.0130  174.1710  137.7890 O   0  0  0  0  0  0  0  0  0  0  0  0
  184.2230  180.2640  139.2040 O   0  0  0  0  0  0  0  0  0  0  0  0
  183.4200  178.9990  139.3180 S   0  0  0  0  0  0  0  0  0  0  0  0
  180.7090  179.0860  139.6620 C   0  0  0  0  0  0  0  0  0  0  0  0
  182.9120  178.4790  137.6950 C   0  0  2  0  0  3  0  0  0  0  0  0
  182.7520  173.4950  134.6120 O   0  0  0  0  0  0  0  0  0  0  0  0
  181.8910  176.7960  136.3050 C   0  0  2  0  0  3  0  0  0  0  0  0
  180.5400  178.9010  138.3870 N   0  0  0  0  0  0  0  0  0  0  0  0
  181.9970  179.3030  140.2320 N   0  0  0  0  0  2  0  0  0  0  0  0
  182.1080  173.8030  135.6010 C   0  0  0  0  0  0  0  0  0  0  0  0
  184.1200  176.2700  137.3170 C   0  0  0  0  0  0  0  0  0  0  0  0
  179.5800  176.3310  136.5050 C   0  0  1  0  0  3  0  0  0  0  0  0
  179.5290  179.0120  140.5630 C   0  0  0  0  0  1  0  0  0  0  0  0
  180.9710  174.7730  135.4570 C   0  0  0  0  0  2  0  0  0  0  0  0
  185.2720  176.9630  136.9100 C   0  0  0  0  0  3  0  0  0  0  0  0
  185.3680  174.1860  137.2030 C   0  0  0  0  0  3  0  0  0  0  0  0
  186.5130  174.8890  136.8210 C   0  0  0  0  0  3  0  0  0  0  0  0
  182.4630  173.1860  136.9230 C   0  0  0  0  0  2  0  0  0  0  0  0
  181.1570  178.1160  136.1210 C   0  0  2  0  0  3  0  0  0  0  0  0
  180.9130  175.7330  136.5590 N   0  0  1  0  0  0  0  0  0  0  0  0
  181.5420  179.0130  137.3100 C   0  0  2  0  0  3  0  0  0  0  0  0
  179.2310  177.8650  134.5940 C   0  0  0  0  0  1  0  0  0  0  0  0
  182.8020  176.9750  137.5180 C   0  0  1  0  0  3  0  0  0  0  0  0
  1  6  1  0  0  0  0
  4 22  2  0  0  0  0
  4 20  1  0  0  0  0
  5 27  1  6  0  0  0
  5 24  1  0  0  0  0
  5 17  1  0  0  0  0
  7  8  2  0  0  0  0
  8  2  2  0  0  0  0
  8 14  1  0  0  0  0
  9 14  1  0  0  0  0
  9 18  1  0  0  0  0
 10  8  1  1  0  0  0
 11 15  2  0  0  0  0
 12 25  1  0  0  0  0
 12 28  1  0  0  0  0
 13  9  2  0  0  0  0
 15 23  1  0  0  0  0
 16  1  1  0  0  0  0
 16 28  1  0  0  0  0
 17 25  1  0  0  0  0
 17  3  1  0  0  0  0
 19 15  1  0  0  0  0
 19 25  1  0  0  0  0
 20 16  2  0  0  0  0
 21  1  2  0  0  0  0
 22 21  1  0  0  0  0
 23  6  1  0  0  0  0
 24 12  1  0  0  0  0
 24 26  1  0  0  0  0
 26 10  1  0  0  0  0
 26 13  1  0  0  0  0
 28 10  1  0  0  0  0
M  END
>  <MODEL>
9

>  <REMARK>
 VINA RESULT:      -4.4      2.804      3.744
  Name = 
  0 active torsions:
  status: ('A' for Active; 'I' for Inactive)
                            x       y       z     vdW  Elec       q    Type
                         _______ _______ _______ _____ _____    ______ ____

>  <TORSDO>
F 0

$$$$
