=
 OpenBabel11122410553D

 31 35  0  0  1  0  0  0  0  0999 V2000
  189.0570  177.1630  141.7180 C   0  0  0  0  0  0  0  0  0  0  0  0
  185.9010  177.9980  143.6070 C   0  0  2  0  0  3  0  0  0  0  0  0
  186.3910  178.0710  145.0470 C   0  0  0  0  0  0  0  0  0  0  0  0
  188.0020  177.5140  146.7850 C   0  0  0  0  0  0  0  0  0  0  0  0
  186.9690  177.9950  142.5210 C   0  0  0  0  0  0  0  0  0  0  0  0
  188.8600  177.7770  140.4820 C   0  0  0  0  0  3  0  0  0  0  0  0
  187.6040  177.4900  145.4470 C   0  0  0  0  0  3  0  0  0  0  0  0
  184.3200  179.0310  141.9150 C   0  0  2  0  0  3  0  0  0  0  0  0
  190.2920  176.3780  141.9690 C   0  0  0  0  0  1  0  0  0  0  0  0
  184.3050  179.1750  145.6910 O   0  0  0  0  0  0  0  0  0  0  0  0
  189.3000  176.9110  147.1840 C   0  0  0  0  0  1  0  0  0  0  0  0
  185.4690  179.3780  140.9710 C   0  0  0  0  0  2  0  0  0  0  0  0
  184.8500  179.0890  143.3470 C   0  0  1  0  0  3  0  0  0  0  0  0
  188.1130  177.2730  142.6890 N   0  0  0  0  0  0  0  0  0  0  0  0
  187.1810  178.1020  147.7470 C   0  0  0  0  0  3  0  0  0  0  0  0
  186.7190  178.5880  141.2580 C   0  0  0  0  0  0  0  0  0  0  0  0
  187.6850  178.4900  140.2560 C   0  0  0  0  0  3  0  0  0  0  0  0
  183.7450  179.0200  144.3900 C   0  0  0  0  0  2  0  0  0  0  0  0
  185.5480  178.6280  146.0360 C   0  0  0  0  0  0  0  0  0  0  0  0
  185.9550  178.6560  147.3730 C   0  0  0  0  0  3  0  0  0  0  0  0
  183.7960  177.7070  141.5850 N   0  0  0  0  0  2  0  0  0  0  0  0
  183.5640  176.8960  139.4180 O   0  0  0  0  0  1  0  0  0  0  0  0
  183.0420  177.8060  140.3440 C   0  0  1  0  0  3  0  0  0  0  0  0
  180.0520  179.1260  138.5840 C   0  0  1  0  0  3  0  0  0  0  0  0
  180.9180  176.7310  139.4300 C   0  0  0  0  0  2  0  0  0  0  0  0
  181.1900  179.2930  142.0080 O   0  0  0  0  0  1  0  0  0  0  0  0
  179.9480  180.2160  137.5390 C   0  0  0  0  0  1  0  0  0  0  0  0
  180.9510  177.7050  137.8810 S   0  0  0  0  0  0  0  0  0  0  0  0
  180.7250  178.6930  140.8870 N   0  0  0  0  0  0  0  0  0  0  0  0
  181.5470  177.5040  140.5940 C   0  0  2  0  0  3  0  0  0  0  0  0
  180.7950  179.6630  139.7980 C   0  0  0  0  0  2  0  0  0  0  0  0
  1  9  1  0  0  0  0
  1 14  1  0  0  0  0
  2  5  1  6  0  0  0
  2  3  1  0  0  0  0
  3  7  2  0  0  0  0
  3 19  1  0  0  0  0
  4 11  1  0  0  0  0
  4 15  2  0  0  0  0
  5 14  2  0  0  0  0
  6  1  2  0  0  0  0
  7  4  1  0  0  0  0
  8 21  1  6  0  0  0
  8 13  1  0  0  0  0
 10 19  1  0  0  0  0
 12 16  1  0  0  0  0
 12  8  1  0  0  0  0
 13  2  1  0  0  0  0
 13 18  1  1  0  0  0
 16  5  1  0  0  0  0
 17  6  1  0  0  0  0
 17 16  2  0  0  0  0
 18 10  1  0  0  0  0
 19 20  2  0  0  0  0
 20 15  1  0  0  0  0
 23 22  1  6  0  0  0
 23 21  1  0  0  0  0
 24 27  1  6  0  0  0
 24 31  1  0  0  0  0
 25 30  1  0  0  0  0
 28 24  1  0  0  0  0
 28 25  1  0  0  0  0
 29 26  1  0  0  0  0
 30 23  1  6  0  0  0
 30 29  1  0  0  0  0
 31 29  1  0  0  0  0
M  END
>  <MODEL>
1

>  <REMARK>
 VINA RESULT:      -9.8      0.000      0.000
  Name = 
  3 active torsions:
  status: ('A' for Active; 'I' for Inactive)
    1  A    between atoms: C_5  and  N_16
    2  A    between atoms: C_5  and  C_30
    3  A    between atoms: C_10  and  N_16
                            x       y       z     vdW  Elec       q    Type
                         _______ _______ _______ _____ _____    ______ ____

>  <TORSDO>
F 3

$$$$
=
 OpenBabel11122410553D

 31 35  0  0  1  0  0  0  0  0999 V2000
  189.1810  177.0810  141.8440 C   0  0  0  0  0  0  0  0  0  0  0  0
  185.9270  177.9730  143.5280 C   0  0  2  0  0  3  0  0  0  0  0  0
  186.3350  178.0860  144.9900 C   0  0  0  0  0  0  0  0  0  0  0  0
  187.8450  177.5790  146.8310 C   0  0  0  0  0  0  0  0  0  0  0  0
  187.0540  177.9370  142.5040 C   0  0  0  0  0  0  0  0  0  0  0  0
  189.0560  177.6590  140.5820 C   0  0  0  0  0  3  0  0  0  0  0  0
  187.5230  177.5160  145.4740 C   0  0  0  0  0  3  0  0  0  0  0  0
  184.4460  178.9580  141.7210 C   0  0  2  0  0  3  0  0  0  0  0  0
  190.3980  176.3020  142.1860 C   0  0  0  0  0  1  0  0  0  0  0  0
  184.2190  179.2100  145.4850 O   0  0  0  0  0  0  0  0  0  0  0  0
  189.1170  176.9860  147.3200 C   0  0  0  0  0  1  0  0  0  0  0  0
  185.6460  179.2770  140.8330 C   0  0  0  0  0  2  0  0  0  0  0  0
  184.8940  179.0570  143.1790 C   0  0  1  0  0  3  0  0  0  0  0  0
  188.1850  177.2190  142.7570 N   0  0  0  0  0  0  0  0  0  0  0  0
  186.9720  178.1940  147.7290 C   0  0  0  0  0  3  0  0  0  0  0  0
  186.8760  178.4940  141.2130 C   0  0  0  0  0  0  0  0  0  0  0  0
  187.8970  178.3670  140.2700 C   0  0  0  0  0  3  0  0  0  0  0  0
  183.7330  179.0190  144.1590 C   0  0  0  0  0  2  0  0  0  0  0  0
  185.4390  178.6730  145.9150 C   0  0  0  0  0  0  0  0  0  0  0  0
  185.7710  178.7380  147.2710 C   0  0  0  0  0  3  0  0  0  0  0  0
  183.9380  177.6260  141.4000 N   0  0  0  0  0  2  0  0  0  0  0  0
  182.0840  178.9650  140.9780 O   0  0  0  0  0  1  0  0  0  0  0  0
  182.7200  177.7730  140.6150 C   0  0  1  0  0  3  0  0  0  0  0  0
  180.4200  177.5780  137.7090 C   0  0  1  0  0  3  0  0  0  0  0  0
  182.5390  179.0620  138.4230 C   0  0  0  0  0  2  0  0  0  0  0  0
  183.1320  175.4940  138.8700 O   0  0  0  0  0  1  0  0  0  0  0  0
  178.9320  177.3050  137.6700 C   0  0  0  0  0  1  0  0  0  0  0  0
  180.7150  179.1870  138.5120 S   0  0  0  0  0  0  0  0  0  0  0  0
  182.5610  176.6120  138.3630 N   0  0  0  0  0  0  0  0  0  0  0  0
  183.0480  177.7880  139.1050 C   0  0  2  0  0  3  0  0  0  0  0  0
  181.1130  176.4710  138.4900 C   0  0  0  0  0  2  0  0  0  0  0  0
  1  9  1  0  0  0  0
  1 14  1  0  0  0  0
  2  5  1  6  0  0  0
  2  3  1  0  0  0  0
  3  7  2  0  0  0  0
  3 19  1  0  0  0  0
  4 11  1  0  0  0  0
  4 15  2  0  0  0  0
  5 14  2  0  0  0  0
  6  1  2  0  0  0  0
  7  4  1  0  0  0  0
  8 21  1  6  0  0  0
  8 13  1  0  0  0  0
 10 19  1  0  0  0  0
 12 16  1  0  0  0  0
 12  8  1  0  0  0  0
 13  2  1  0  0  0  0
 13 18  1  1  0  0  0
 16  5  1  0  0  0  0
 17  6  1  0  0  0  0
 17 16  2  0  0  0  0
 18 10  1  0  0  0  0
 19 20  2  0  0  0  0
 20 15  1  0  0  0  0
 23 22  1  1  0  0  0
 23 21  1  0  0  0  0
 24 27  1  1  0  0  0
 24 31  1  0  0  0  0
 24 28  1  0  0  0  0
 25 28  1  0  0  0  0
 25 30  1  0  0  0  0
 29 31  1  0  0  0  0
 29 26  1  0  0  0  0
 29 30  1  0  0  0  0
 30 23  1  1  0  0  0
M  END
>  <MODEL>
2

>  <REMARK>
 VINA RESULT:      -9.6      1.108      1.733
  Name = 
  3 active torsions:
  status: ('A' for Active; 'I' for Inactive)
    1  A    between atoms: C_5  and  N_16
    2  A    between atoms: C_5  and  C_30
    3  A    between atoms: C_10  and  N_16
                            x       y       z     vdW  Elec       q    Type
                         _______ _______ _______ _____ _____    ______ ____

>  <TORSDO>
F 3

$$$$
=
 OpenBabel11122410553D

 31 35  0  0  1  0  0  0  0  0999 V2000
  189.9080  177.2260  145.1250 C   0  0  0  0  0  0  0  0  0  0  0  0
  188.4920  177.4760  141.6390 C   0  0  2  0  0  3  0  0  0  0  0  0
  187.1240  178.0960  141.8840 C   0  0  0  0  0  0  0  0  0  0  0  0
  185.2340  178.5910  143.3370 C   0  0  0  0  0  0  0  0  0  0  0  0
  189.4820  177.5210  142.7960 C   0  0  0  0  0  0  0  0  0  0  0  0
  191.2780  177.3780  144.9240 C   0  0  0  0  0  3  0  0  0  0  0  0
  186.5170  178.0730  143.1500 C   0  0  0  0  0  3  0  0  0  0  0  0
  190.4810  177.4340  140.0670 C   0  0  2  0  0  3  0  0  0  0  0  0
  189.3800  176.9840  146.4920 C   0  0  0  0  0  1  0  0  0  0  0  0
  186.9310  178.5950  139.4970 O   0  0  0  0  0  0  0  0  0  0  0  0
  184.6170  178.5750  144.6890 C   0  0  0  0  0  1  0  0  0  0  0  0
  191.4380  177.8620  141.1770 C   0  0  0  0  0  2  0  0  0  0  0  0
  189.1140  178.0520  140.3560 C   0  0  1  0  0  3  0  0  0  0  0  0
  189.0550  177.2850  144.0690 N   0  0  0  0  0  0  0  0  0  0  0  0
  184.5290  179.1200  142.2550 C   0  0  0  0  0  3  0  0  0  0  0  0
  190.8740  177.6310  142.5540 C   0  0  0  0  0  0  0  0  0  0  0  0
  191.7580  177.5810  143.6330 C   0  0  0  0  0  3  0  0  0  0  0  0
  188.1460  177.9170  139.1910 C   0  0  0  0  0  2  0  0  0  0  0  0
  186.3850  178.5980  140.7880 C   0  0  0  0  0  0  0  0  0  0  0  0
  185.1040  179.1220  140.9830 C   0  0  0  0  0  3  0  0  0  0  0  0
  190.4160  175.9750  140.0100 N   0  0  0  0  0  2  0  0  0  0  0  0
  189.8020  174.9630  138.0080 O   0  0  0  0  0  1  0  0  0  0  0  0
  190.8720  175.5440  138.6970 C   0  0  1  0  0  3  0  0  0  0  0  0
  192.6320  175.5750  135.4290 C   0  0  1  0  0  3  0  0  0  0  0  0
  190.6530  176.9660  136.5910 C   0  0  0  0  0  2  0  0  0  0  0  0
  193.5640  176.6220  138.7570 O   0  0  0  0  0  1  0  0  0  0  0  0
  193.1410  174.4200  134.5940 C   0  0  0  0  0  1  0  0  0  0  0  0
  190.8100  175.5320  135.4650 S   0  0  0  0  0  0  0  0  0  0  0  0
  192.8680  176.6640  137.5970 N   0  0  0  0  0  0  0  0  0  0  0  0
  191.4270  176.7430  137.8950 C   0  0  2  0  0  3  0  0  0  0  0  0
  193.1840  175.4560  136.8410 C   0  0  0  0  0  2  0  0  0  0  0  0
  1  9  1  0  0  0  0
  2  3  1  1  0  0  0
  2  5  1  0  0  0  0
  3  7  1  0  0  0  0
  4 11  1  0  0  0  0
  5 14  1  0  0  0  0
  6  1  1  0  0  0  0
  7  4  2  0  0  0  0
  8 21  1  1  0  0  0
  8 13  1  0  0  0  0
  8 12  1  0  0  0  0
 10 19  1  0  0  0  0
 12 16  1  0  0  0  0
 13 18  1  6  0  0  0
 13  2  1  0  0  0  0
 14  1  2  0  0  0  0
 15  4  1  0  0  0  0
 16  5  2  0  0  0  0
 16 17  1  0  0  0  0
 17  6  2  0  0  0  0
 18 10  1  0  0  0  0
 19 20  1  0  0  0  0
 19  3  2  0  0  0  0
 20 15  2  0  0  0  0
 23 22  1  6  0  0  0
 23 21  1  0  0  0  0
 24 27  1  6  0  0  0
 24 28  1  0  0  0  0
 24 31  1  0  0  0  0
 25 30  1  0  0  0  0
 28 25  1  0  0  0  0
 29 30  1  0  0  0  0
 29 26  1  0  0  0  0
 30 23  1  6  0  0  0
 31 29  1  0  0  0  0
M  END
>  <MODEL>
3

>  <REMARK>
 VINA RESULT:      -8.8      4.248      7.826
  Name = 
  3 active torsions:
  status: ('A' for Active; 'I' for Inactive)
    1  A    between atoms: C_5  and  N_16
    2  A    between atoms: C_5  and  C_30
    3  A    between atoms: C_10  and  N_16
                            x       y       z     vdW  Elec       q    Type
                         _______ _______ _______ _____ _____    ______ ____

>  <TORSDO>
F 3

$$$$
=
 OpenBabel11122410553D

 31 35  0  0  1  0  0  0  0  0999 V2000
  190.0420  177.2250  145.2790 C   0  0  0  0  0  0  0  0  0  0  0  0
  187.4580  177.8680  142.6090 C   0  0  2  0  0  3  0  0  0  0  0  0
  186.2610  178.3460  143.4190 C   0  0  0  0  0  0  0  0  0  0  0  0
  185.0170  178.4920  145.5070 C   0  0  0  0  0  0  0  0  0  0  0  0
  188.7980  177.8190  143.3320 C   0  0  0  0  0  0  0  0  0  0  0  0
  191.2450  177.5030  144.6320 C   0  0  0  0  0  3  0  0  0  0  0  0
  186.1530  178.1000  144.7970 C   0  0  0  0  0  3  0  0  0  0  0  0
  188.7440  178.1950  140.4490 C   0  0  2  0  0  3  0  0  0  0  0  0
  190.0480  176.7530  146.6870 C   0  0  0  0  0  1  0  0  0  0  0  0
  185.2100  179.1670  141.3680 O   0  0  0  0  0  0  0  0  0  0  0  0
  184.9310  178.2380  146.9690 C   0  0  0  0  0  1  0  0  0  0  0  0
  190.0310  178.5280  141.2000 C   0  0  0  0  0  2  0  0  0  0  0  0
  187.5640  178.6650  141.2980 C   0  0  1  0  0  3  0  0  0  0  0  0
  188.8640  177.3730  144.6180 N   0  0  0  0  0  0  0  0  0  0  0  0
  183.9610  179.1180  144.8440 C   0  0  0  0  0  3  0  0  0  0  0  0
  190.0060  178.0620  142.6320 C   0  0  0  0  0  0  0  0  0  0  0  0
  191.2220  177.9220  143.3040 C   0  0  0  0  0  3  0  0  0  0  0  0
  186.2430  178.6280  140.5470 C   0  0  0  0  0  2  0  0  0  0  0  0
  185.1680  178.9460  142.7510 C   0  0  0  0  0  0  0  0  0  0  0  0
  184.0360  179.3430  143.4690 C   0  0  0  0  0  3  0  0  0  0  0  0
  188.6850  176.7590  140.1870 N   0  0  0  0  0  2  0  0  0  0  0  0
  187.5010  176.8580  138.1880 O   0  0  0  0  0  1  0  0  0  0  0  0
  188.7450  176.5490  138.7470 C   0  0  1  0  0  3  0  0  0  0  0  0
  190.6810  176.0270  135.6240 C   0  0  1  0  0  3  0  0  0  0  0  0
  189.3820  178.0610  136.7960 C   0  0  0  0  0  2  0  0  0  0  0  0
  191.6160  176.3330  139.0990 O   0  0  0  0  0  1  0  0  0  0  0  0
  190.7300  174.8240  134.7060 C   0  0  0  0  0  1  0  0  0  0  0  0
  189.0250  176.7830  135.5360 S   0  0  0  0  0  0  0  0  0  0  0  0
  191.1330  176.7540  137.9070 N   0  0  0  0  0  0  0  0  0  0  0  0
  189.8420  177.4360  138.1160 C   0  0  2  0  0  3  0  0  0  0  0  0
  190.9760  175.5830  137.0490 C   0  0  0  0  0  2  0  0  0  0  0  0
  1  9  1  0  0  0  0
  2  5  1  1  0  0  0
  2  3  1  0  0  0  0
  3  7  1  0  0  0  0
  4 11  1  0  0  0  0
  5 14  1  0  0  0  0
  6  1  1  0  0  0  0
  7  4  2  0  0  0  0
  8 21  1  1  0  0  0
  8 12  1  0  0  0  0
  8 13  1  0  0  0  0
 10 19  1  0  0  0  0
 12 16  1  0  0  0  0
 13 18  1  6  0  0  0
 13  2  1  0  0  0  0
 14  1  2  0  0  0  0
 15  4  1  0  0  0  0
 16 17  1  0  0  0  0
 16  5  2  0  0  0  0
 17  6  2  0  0  0  0
 18 10  1  0  0  0  0
 19  3  2  0  0  0  0
 19 20  1  0  0  0  0
 20 15  2  0  0  0  0
 23 22  1  6  0  0  0
 23 21  1  0  0  0  0
 24 27  1  6  0  0  0
 24 31  1  0  0  0  0
 25 30  1  0  0  0  0
 28 24  1  0  0  0  0
 28 25  1  0  0  0  0
 29 30  1  0  0  0  0
 29 26  1  0  0  0  0
 30 23  1  6  0  0  0
 31 29  1  0  0  0  0
M  END
>  <MODEL>
4

>  <REMARK>
 VINA RESULT:      -8.3      3.694      6.369
  Name = 
  3 active torsions:
  status: ('A' for Active; 'I' for Inactive)
    1  A    between atoms: C_5  and  N_16
    2  A    between atoms: C_5  and  C_30
    3  A    between atoms: C_10  and  N_16
                            x       y       z     vdW  Elec       q    Type
                         _______ _______ _______ _____ _____    ______ ____

>  <TORSDO>
F 3

$$$$
=
 OpenBabel11122410553D

 31 35  0  0  1  0  0  0  0  0999 V2000
  191.0710  176.6500  143.4650 C   0  0  0  0  0  0  0  0  0  0  0  0
  187.8600  177.5430  141.6990 C   0  0  2  0  0  3  0  0  0  0  0  0
  186.9600  177.9670  142.8500 C   0  0  0  0  0  0  0  0  0  0  0  0
  186.3630  177.9540  145.2110 C   0  0  0  0  0  0  0  0  0  0  0  0
  189.3480  177.4180  142.0030 C   0  0  0  0  0  0  0  0  0  0  0  0
  192.0500  176.9660  142.5250 C   0  0  0  0  0  3  0  0  0  0  0  0
  187.2380  177.6080  144.1780 C   0  0  0  0  0  3  0  0  0  0  0  0
  188.4930  178.0320  139.2920 C   0  0  2  0  0  3  0  0  0  0  0  0
  191.4590  176.0640  144.7730 C   0  0  0  0  0  1  0  0  0  0  0  0
  185.4010  178.9660  141.2520 O   0  0  0  0  0  0  0  0  0  0  0  0
  186.6860  177.5820  146.6130 C   0  0  0  0  0  1  0  0  0  0  0  0
  189.9510  178.2850  139.6690 C   0  0  0  0  0  2  0  0  0  0  0  0
  187.6190  178.4430  140.4760 C   0  0  1  0  0  3  0  0  0  0  0  0
  189.7600  176.8660  143.1800 N   0  0  0  0  0  0  0  0  0  0  0  0
  185.1850  178.6460  144.9260 C   0  0  0  0  0  3  0  0  0  0  0  0
  190.3160  177.7040  141.0090 C   0  0  0  0  0  0  0  0  0  0  0  0
  191.6670  177.4940  141.2940 C   0  0  0  0  0  3  0  0  0  0  0  0
  186.1390  178.4850  140.1320 C   0  0  0  0  0  2  0  0  0  0  0  0
  185.7440  178.6320  142.5690 C   0  0  0  0  0  0  0  0  0  0  0  0
  184.8760  178.9820  143.6070 C   0  0  0  0  0  3  0  0  0  0  0  0
  188.3130  176.6220  138.9500 N   0  0  0  0  0  2  0  0  0  0  0  0
  187.3700  177.6980  137.1170 O   0  0  0  0  0  1  0  0  0  0  0  0
  188.0140  176.5270  137.5280 C   0  0  1  0  0  3  0  0  0  0  0  0
  188.9700  173.7330  135.2790 C   0  0  1  0  0  3  0  0  0  0  0  0
  189.0620  176.4140  135.2070 C   0  0  0  0  0  2  0  0  0  0  0  0
  190.3910  175.0650  138.3200 O   0  0  0  0  0  1  0  0  0  0  0  0
  188.2730  172.4130  135.0280 C   0  0  0  0  0  1  0  0  0  0  0  0
  187.9370  175.0890  134.6350 S   0  0  0  0  0  0  0  0  0  0  0  0
  190.0330  175.0740  137.0150 N   0  0  0  0  0  0  0  0  0  0  0  0
  189.3130  176.3260  136.7150 C   0  0  2  0  0  3  0  0  0  0  0  0
  189.1870  173.9090  136.7750 C   0  0  0  0  0  2  0  0  0  0  0  0
  1  9  1  0  0  0  0
  2  5  1  1  0  0  0
  2  3  1  0  0  0  0
  3  7  1  0  0  0  0
  4 11  1  0  0  0  0
  5 14  2  0  0  0  0
  6  1  2  0  0  0  0
  7  4  2  0  0  0  0
  8 21  1  1  0  0  0
  8 12  1  0  0  0  0
  8 13  1  0  0  0  0
 10 19  1  0  0  0  0
 12 16  1  0  0  0  0
 13 18  1  6  0  0  0
 13  2  1  0  0  0  0
 14  1  1  0  0  0  0
 15  4  1  0  0  0  0
 16 17  2  0  0  0  0
 16  5  1  0  0  0  0
 17  6  1  0  0  0  0
 18 10  1  0  0  0  0
 19  3  2  0  0  0  0
 19 20  1  0  0  0  0
 20 15  2  0  0  0  0
 23 22  1  6  0  0  0
 23 21  1  0  0  0  0
 24 27  1  1  0  0  0
 24 31  1  0  0  0  0
 25 30  1  0  0  0  0
 28 25  1  0  0  0  0
 28 24  1  0  0  0  0
 29 26  1  0  0  0  0
 30 29  1  0  0  0  0
 30 23  1  1  0  0  0
 31 29  1  0  0  0  0
M  END
>  <MODEL>
5

>  <REMARK>
 VINA RESULT:      -8.1      3.729      6.117
  Name = 
  3 active torsions:
  status: ('A' for Active; 'I' for Inactive)
    1  A    between atoms: C_5  and  N_16
    2  A    between atoms: C_5  and  C_30
    3  A    between atoms: C_10  and  N_16
                            x       y       z     vdW  Elec       q    Type
                         _______ _______ _______ _____ _____    ______ ____

>  <TORSDO>
F 3

$$$$
=
 OpenBabel11122410553D

 31 35  0  0  1  0  0  0  0  0999 V2000
  187.0110  176.8220  136.8730 C   0  0  0  0  0  0  0  0  0  0  0  0
  190.0210  176.7270  139.1440 C   0  0  2  0  0  3  0  0  0  0  0  0
  191.1690  176.5510  138.1600 C   0  0  0  0  0  0  0  0  0  0  0  0
  192.0340  175.8720  135.9880 C   0  0  0  0  0  0  0  0  0  0  0  0
  188.6730  177.1270  138.5590 C   0  0  0  0  0  0  0  0  0  0  0  0
  186.1270  177.6580  137.5520 C   0  0  0  0  0  3  0  0  0  0  0  0
  190.9580  176.0860  136.8530 C   0  0  0  0  0  3  0  0  0  0  0  0
  189.3120  177.8590  141.3000 C   0  0  2  0  0  3  0  0  0  0  0  0
  186.6060  176.1970  135.5890 C   0  0  0  0  0  1  0  0  0  0  0  0
  192.7580  177.1540  139.9190 O   0  0  0  0  0  0  0  0  0  0  0  0
  191.7880  175.3980  134.6010 C   0  0  0  0  0  1  0  0  0  0  0  0
  188.1560  178.5770  140.6080 C   0  0  0  0  0  2  0  0  0  0  0  0
  190.4360  177.6760  140.2800 C   0  0  1  0  0  3  0  0  0  0  0  0
  188.2410  176.5680  137.3930 N   0  0  0  0  0  0  0  0  0  0  0  0
  193.3390  176.0990  136.4270 C   0  0  0  0  0  3  0  0  0  0  0  0
  187.7770  177.9420  139.2950 C   0  0  0  0  0  0  0  0  0  0  0  0
  186.5150  178.2170  138.7670 C   0  0  0  0  0  3  0  0  0  0  0  0
  191.7370  177.2100  140.9120 C   0  0  0  0  0  2  0  0  0  0  0  0
  192.4980  176.7390  138.6060 C   0  0  0  0  0  0  0  0  0  0  0  0
  193.5700  176.5300  137.7340 C   0  0  0  0  0  3  0  0  0  0  0  0
  188.8480  176.5780  141.8290 N   0  0  0  0  0  2  0  0  0  0  0  0
  190.3460  175.9950  143.5090 O   0  0  0  0  0  1  0  0  0  0  0  0
  189.0890  176.5570  143.2640 C   0  0  1  0  0  3  0  0  0  0  0  0
  188.6480  177.6510  146.7840 C   0  0  1  0  0  3  0  0  0  0  0  0
  190.2440  178.2990  144.7260 C   0  0  0  0  0  2  0  0  0  0  0  0
  186.7300  178.1670  143.7680 O   0  0  0  0  0  1  0  0  0  0  0  0
  188.3230  176.8350  148.0160 C   0  0  0  0  0  1  0  0  0  0  0  0
  190.3100  177.2000  146.1870 S   0  0  0  0  0  0  0  0  0  0  0  0
  187.7960  178.2940  144.5920 N   0  0  0  0  0  0  0  0  0  0  0  0
  189.0300  177.9880  143.8440 C   0  0  2  0  0  3  0  0  0  0  0  0
  187.6130  177.3670  145.7060 C   0  0  0  0  0  2  0  0  0  0  0  0
  1 14  2  0  0  0  0
  1  6  1  0  0  0  0
  2  3  1  6  0  0  0
  2 13  1  0  0  0  0
  3 19  1  0  0  0  0
  4 15  2  0  0  0  0
  4  7  1  0  0  0  0
  5  2  1  0  0  0  0
  5 16  2  0  0  0  0
  6 17  2  0  0  0  0
  7  3  2  0  0  0  0
  8 21  1  6  0  0  0
  9  1  1  0  0  0  0
 10 18  1  0  0  0  0
 11  4  1  0  0  0  0
 12  8  1  0  0  0  0
 13 18  1  1  0  0  0
 13  8  1  0  0  0  0
 14  5  1  0  0  0  0
 15 20  1  0  0  0  0
 16 12  1  0  0  0  0
 17 16  1  0  0  0  0
 19 10  1  0  0  0  0
 20 19  2  0  0  0  0
 21 23  1  0  0  0  0
 23 22  1  6  0  0  0
 24 27  1  1  0  0  0
 25 28  1  0  0  0  0
 26 29  1  0  0  0  0
 28 24  1  0  0  0  0
 29 31  1  0  0  0  0
 30 23  1  1  0  0  0
 30 29  1  0  0  0  0
 30 25  1  0  0  0  0
 31 24  1  0  0  0  0
M  END
>  <MODEL>
6

>  <REMARK>
 VINA RESULT:      -7.6      4.510      8.710
  Name = 
  3 active torsions:
  status: ('A' for Active; 'I' for Inactive)
    1  A    between atoms: C_5  and  N_16
    2  A    between atoms: C_5  and  C_30
    3  A    between atoms: C_10  and  N_16
                            x       y       z     vdW  Elec       q    Type
                         _______ _______ _______ _____ _____    ______ ____

>  <TORSDO>
F 3

$$$$
=
 OpenBabel11122410553D

 31 35  0  0  1  0  0  0  0  0999 V2000
  181.7070  178.5410  143.0130 C   0  0  0  0  0  0  0  0  0  0  0  0
  185.2040  178.0640  141.6830 C   0  0  2  0  0  3  0  0  0  0  0  0
  185.0090  178.2280  140.1820 C   0  0  0  0  0  0  0  0  0  0  0  0
  183.6010  178.1990  138.1960 C   0  0  0  0  0  0  0  0  0  0  0  0
  184.0530  178.5100  142.5760 C   0  0  0  0  0  0  0  0  0  0  0  0
  181.9180  179.1100  144.2680 C   0  0  0  0  0  3  0  0  0  0  0  0
  183.7460  178.1070  139.5820 C   0  0  0  0  0  3  0  0  0  0  0  0
  186.7660  178.5450  143.6210 C   0  0  2  0  0  3  0  0  0  0  0  0
  180.3260  178.2460  142.5550 C   0  0  0  0  0  1  0  0  0  0  0  0
  187.4280  178.4600  139.9020 O   0  0  0  0  0  0  0  0  0  0  0  0
  182.2530  178.0860  137.5820 C   0  0  0  0  0  1  0  0  0  0  0  0
  185.6920  179.3390  144.3620 C   0  0  0  0  0  2  0  0  0  0  0  0
  186.5280  178.7110  142.1210 C   0  0  1  0  0  3  0  0  0  0  0  0
  182.7660  178.2450  142.2140 N   0  0  0  0  0  0  0  0  0  0  0  0
  184.7220  178.3920  137.3880 C   0  0  0  0  0  3  0  0  0  0  0  0
  184.3020  179.0420  143.8650 C   0  0  0  0  0  0  0  0  0  0  0  0
  183.2220  179.3590  144.6910 C   0  0  0  0  0  3  0  0  0  0  0  0
  187.6790  178.1870  141.2780 C   0  0  0  0  0  2  0  0  0  0  0  0
  186.1420  178.3840  139.3510 C   0  0  0  0  0  0  0  0  0  0  0  0
  185.9900  178.4830  137.9650 C   0  0  0  0  0  3  0  0  0  0  0  0
  186.7070  177.1430  144.0270 N   0  0  0  0  0  2  0  0  0  0  0  0
  188.7490  176.1820  143.4660 O   0  0  0  0  0  1  0  0  0  0  0  0
  188.0210  176.7490  144.5170 C   0  0  1  0  0  3  0  0  0  0  0  0
  191.0650  176.8560  146.6380 C   0  0  1  0  0  3  0  0  0  0  0  0
  190.1650  178.1280  144.4530 C   0  0  0  0  0  2  0  0  0  0  0  0
  187.6730  178.0020  147.1090 O   0  0  0  0  0  1  0  0  0  0  0  0
  191.8130  175.7270  147.3130 C   0  0  0  0  0  1  0  0  0  0  0  0
  191.2370  176.6940  144.8310 S   0  0  0  0  0  0  0  0  0  0  0  0
  188.9060  177.9840  146.5510 N   0  0  0  0  0  0  0  0  0  0  0  0
  188.7770  177.9720  145.0830 C   0  0  2  0  0  3  0  0  0  0  0  0
  189.5960  176.7900  147.0290 C   0  0  0  0  0  2  0  0  0  0  0  0
  1  6  1  0  0  0  0
  2  3  1  6  0  0  0
  2 13  1  0  0  0  0
  2  5  1  0  0  0  0
  4  7  2  0  0  0  0
  5 16  2  0  0  0  0
  6 17  2  0  0  0  0
  7  3  1  0  0  0  0
  8 21  1  1  0  0  0
  8 12  1  0  0  0  0
  9  1  1  0  0  0  0
 10 18  1  0  0  0  0
 11  4  1  0  0  0  0
 13 18  1  6  0  0  0
 13  8  1  0  0  0  0
 14  5  1  0  0  0  0
 14  1  2  0  0  0  0
 15 20  2  0  0  0  0
 15  4  1  0  0  0  0
 16 12  1  0  0  0  0
 16 17  1  0  0  0  0
 19 10  1  0  0  0  0
 19  3  2  0  0  0  0
 20 19  1  0  0  0  0
 21 23  1  0  0  0  0
 23 22  1  6  0  0  0
 24 31  1  0  0  0  0
 24 27  1  1  0  0  0
 25 28  1  0  0  0  0
 25 30  1  0  0  0  0
 28 24  1  0  0  0  0
 29 31  1  0  0  0  0
 29 26  1  0  0  0  0
 30 23  1  6  0  0  0
 30 29  1  0  0  0  0
M  END
>  <MODEL>
7

>  <REMARK>
 VINA RESULT:      -7.4      3.283      8.371
  Name = 
  3 active torsions:
  status: ('A' for Active; 'I' for Inactive)
    1  A    between atoms: C_5  and  N_16
    2  A    between atoms: C_5  and  C_30
    3  A    between atoms: C_10  and  N_16
                            x       y       z     vdW  Elec       q    Type
                         _______ _______ _______ _____ _____    ______ ____

>  <TORSDO>
F 3

$$$$
=
 OpenBabel11122410553D

 31 35  0  0  1  0  0  0  0  0999 V2000
  184.5660  179.1580  144.2550 C   0  0  0  0  0  0  0  0  0  0  0  0
  185.3480  178.9670  140.5700 C   0  0  2  0  0  3  0  0  0  0  0  0
  186.7870  178.4720  140.5650 C   0  0  0  0  0  0  0  0  0  0  0  0
  188.9440  178.1670  141.6540 C   0  0  0  0  0  0  0  0  0  0  0  0
  184.5910  178.8580  141.8880 C   0  0  0  0  0  0  0  0  0  0  0  0
  183.2010  178.8850  144.3050 C   0  0  0  0  0  3  0  0  0  0  0  0
  187.6070  178.5690  141.7000 C   0  0  0  0  0  3  0  0  0  0  0  0
  183.1120  178.8100  139.3840 C   0  0  2  0  0  3  0  0  0  0  0  0
  185.3080  179.4690  145.5030 C   0  0  0  0  0  1  0  0  0  0  0  0
  186.5900  177.9480  138.1840 O   0  0  0  0  0  0  0  0  0  0  0  0
  189.7900  178.2600  142.8720 C   0  0  0  0  0  1  0  0  0  0  0  0
  182.4120  178.3210  140.6500 C   0  0  0  0  0  2  0  0  0  0  0  0
  184.5580  178.3170  139.4220 C   0  0  1  0  0  3  0  0  0  0  0  0
  185.2170  179.1530  143.0620 N   0  0  0  0  0  0  0  0  0  0  0  0
  189.4860  177.6800  140.4630 C   0  0  0  0  0  3  0  0  0  0  0  0
  183.1930  178.6250  141.9010 C   0  0  0  0  0  0  0  0  0  0  0  0
  182.5160  178.6180  143.1220 C   0  0  0  0  0  3  0  0  0  0  0  0
  185.2850  178.5140  138.1010 C   0  0  0  0  0  2  0  0  0  0  0  0
  187.3570  178.0150  139.3550 C   0  0  0  0  0  0  0  0  0  0  0  0
  188.6940  177.6070  139.3160 C   0  0  0  0  0  3  0  0  0  0  0  0
  183.0380  180.2670  139.3130 N   0  0  0  0  0  2  0  0  0  0  0  0
  181.4980  179.4790  137.7600 O   0  0  0  0  0  1  0  0  0  0  0  0
  182.1350  180.6320  138.2300 C   0  0  1  0  0  3  0  0  0  0  0  0
  179.3650  182.2410  136.3560 C   0  0  1  0  0  3  0  0  0  0  0  0
  179.6740  181.0550  138.7440 C   0  0  0  0  0  2  0  0  0  0  0  0
  182.2700  183.5240  138.0760 O   0  0  0  0  0  1  0  0  0  0  0  0
  179.0480  182.2020  134.8770 C   0  0  0  0  0  1  0  0  0  0  0  0
  179.1210  180.5800  137.0660 S   0  0  0  0  0  0  0  0  0  0  0  0
  181.0640  182.9190  137.9670 N   0  0  0  0  0  0  0  0  0  0  0  0
  181.0850  181.6530  138.7220 C   0  0  2  0  0  3  0  0  0  0  0  0
  180.8080  182.6830  136.5490 C   0  0  0  0  0  2  0  0  0  0  0  0
  1  6  1  0  0  0  0
  1  9  1  0  0  0  0
  2  3  1  1  0  0  0
  2  5  1  0  0  0  0
  3  7  1  0  0  0  0
  4  7  2  0  0  0  0
  4 11  1  0  0  0  0
  5 16  2  0  0  0  0
  5 14  1  0  0  0  0
  8 21  1  1  0  0  0
  8 13  1  0  0  0  0
  8 12  1  0  0  0  0
 10 19  1  0  0  0  0
 12 16  1  0  0  0  0
 13 18  1  6  0  0  0
 13  2  1  0  0  0  0
 14  1  2  0  0  0  0
 15  4  1  0  0  0  0
 16 17  1  0  0  0  0
 17  6  2  0  0  0  0
 18 10  1  0  0  0  0
 19  3  2  0  0  0  0
 20 19  1  0  0  0  0
 20 15  2  0  0  0  0
 23 22  1  1  0  0  0
 23 21  1  0  0  0  0
 24 27  1  6  0  0  0
 24 31  1  0  0  0  0
 24 28  1  0  0  0  0
 28 25  1  0  0  0  0
 29 26  1  0  0  0  0
 29 30  1  0  0  0  0
 30 23  1  6  0  0  0
 30 25  1  0  0  0  0
 31 29  1  0  0  0  0
M  END
>  <MODEL>
8

>  <REMARK>
 VINA RESULT:      -7.2      2.717      5.104
  Name = 
  3 active torsions:
  status: ('A' for Active; 'I' for Inactive)
    1  A    between atoms: C_5  and  N_16
    2  A    between atoms: C_5  and  C_30
    3  A    between atoms: C_10  and  N_16
                            x       y       z     vdW  Elec       q    Type
                         _______ _______ _______ _____ _____    ______ ____

>  <TORSDO>
F 3

$$$$
=
 OpenBabel11122410553D

 31 35  0  0  1  0  0  0  0  0999 V2000
  190.3560  176.4800  142.3780 C   0  0  0  0  0  0  0  0  0  0  0  0
  186.9280  177.8600  141.6240 C   0  0  2  0  0  3  0  0  0  0  0  0
  186.4180  178.2450  143.0060 C   0  0  0  0  0  0  0  0  0  0  0  0
  186.4640  178.0420  145.4320 C   0  0  0  0  0  0  0  0  0  0  0  0
  188.4170  177.5600  141.5030 C   0  0  0  0  0  0  0  0  0  0  0  0
  191.0860  176.7970  141.2340 C   0  0  0  0  0  3  0  0  0  0  0  0
  186.9890  177.7240  144.1780 C   0  0  0  0  0  3  0  0  0  0  0  0
  186.9630  178.5360  139.1810 C   0  0  2  0  0  3  0  0  0  0  0  0
  190.9980  175.7240  143.4830 C   0  0  0  0  0  1  0  0  0  0  0  0
  184.6290  179.5540  141.9720 O   0  0  0  0  0  0  0  0  0  0  0  0
  187.0950  177.4940  146.6610 C   0  0  0  0  0  1  0  0  0  0  0  0
  188.4880  178.6060  139.1640 C   0  0  0  0  0  2  0  0  0  0  0  0
  186.4860  178.9030  140.5850 C   0  0  1  0  0  3  0  0  0  0  0  0
  189.0520  176.8500  142.4780 N   0  0  0  0  0  0  0  0  0  0  0  0
  185.3450  178.8700  145.5310 C   0  0  0  0  0  3  0  0  0  0  0  0
  189.1180  177.8540  140.3070 C   0  0  0  0  0  0  0  0  0  0  0  0
  190.4600  177.4850  140.1980 C   0  0  0  0  0  3  0  0  0  0  0  0
  184.9840  179.1240  140.6600 C   0  0  0  0  0  2  0  0  0  0  0  0
  185.2620  179.0510  143.1170 C   0  0  0  0  0  0  0  0  0  0  0  0
  184.7450  179.3720  144.3750 C   0  0  0  0  0  3  0  0  0  0  0  0
  186.5300  177.1940  138.7950 N   0  0  0  0  0  2  0  0  0  0  0  0
  186.9370  177.2450  136.5070 O   0  0  0  0  0  1  0  0  0  0  0  0
  185.9250  177.2670  137.4720 C   0  0  1  0  0  3  0  0  0  0  0  0
  182.8840  177.0720  135.3540 C   0  0  1  0  0  3  0  0  0  0  0  0
  185.0370  175.5400  135.8210 C   0  0  0  0  0  2  0  0  0  0  0  0
  183.4650  176.6970  138.8980 O   0  0  0  0  0  1  0  0  0  0  0  0
  182.1620  178.1660  134.5970 C   0  0  0  0  0  1  0  0  0  0  0  0
  184.5210  176.8000  134.5990 S   0  0  0  0  0  0  0  0  0  0  0  0
  183.5540  176.3660  137.5890 N   0  0  0  0  0  0  0  0  0  0  0  0
  184.9610  176.0800  137.2520 C   0  0  2  0  0  3  0  0  0  0  0  0
  183.0440  177.4890  136.8080 C   0  0  0  0  0  2  0  0  0  0  0  0
  1 14  1  0  0  0  0
  1  9  1  0  0  0  0
  2  5  1  1  0  0  0
  2  3  1  0  0  0  0
  3 19  2  0  0  0  0
  3  7  1  0  0  0  0
  4 15  1  0  0  0  0
  4 11  1  0  0  0  0
  5 14  2  0  0  0  0
  6  1  2  0  0  0  0
  7  4  2  0  0  0  0
  8 21  1  1  0  0  0
  8 13  1  0  0  0  0
 10 19  1  0  0  0  0
 12  8  1  0  0  0  0
 12 16  1  0  0  0  0
 13 18  1  6  0  0  0
 13  2  1  0  0  0  0
 16  5  1  0  0  0  0
 17 16  2  0  0  0  0
 17  6  1  0  0  0  0
 18 10  1  0  0  0  0
 19 20  1  0  0  0  0
 20 15  2  0  0  0  0
 23 22  1  6  0  0  0
 23 21  1  0  0  0  0
 24 27  1  6  0  0  0
 24 31  1  0  0  0  0
 25 30  1  0  0  0  0
 28 24  1  0  0  0  0
 28 25  1  0  0  0  0
 29 26  1  0  0  0  0
 30 23  1  6  0  0  0
 30 29  1  0  0  0  0
 31 29  1  0  0  0  0
M  END
>  <MODEL>
9

>  <REMARK>
 VINA RESULT:      -7.0      2.648      3.538
  Name = 
  3 active torsions:
  status: ('A' for Active; 'I' for Inactive)
    1  A    between atoms: C_5  and  N_16
    2  A    between atoms: C_5  and  C_30
    3  A    between atoms: C_10  and  N_16
                            x       y       z     vdW  Elec       q    Type
                         _______ _______ _______ _____ _____    ______ ____

>  <TORSDO>
F 3

$$$$
