=
 OpenBabel11122410383D

 32 37  0  0  1  0  0  0  0  0999 V2000
  185.4360  179.7550  145.4520 C   0  0  0  0  0  2  0  0  0  0  0  0
  185.1940  178.2900  140.5230 C   0  0  1  0  0  3  0  0  0  0  0  0
  189.8580  178.0020  138.8290 C   0  0  0  0  0  3  0  0  0  0  0  0
  189.3690  177.9740  137.5220 C   0  0  0  0  0  3  0  0  0  0  0  0
  183.3440  178.9560  139.0100 N   0  0  0  0  0  0  0  0  0  0  0  0
  182.8700  178.2020  137.8350 C   0  0  2  0  0  3  0  0  0  0  0  0
  184.7070  177.9800  142.9510 C   0  0  1  0  0  3  0  0  0  0  0  0
  187.0590  177.7360  142.0980 C   0  0  0  0  0  2  0  0  0  0  0  0
  183.0240  175.8570  137.4490 C   0  0  0  0  0  0  0  0  0  0  0  0
  186.7080  177.3120  144.8010 S   0  0  0  0  0  0  0  0  0  0  0  0
  188.9760  178.1550  139.9010 C   0  0  0  0  0  3  0  0  0  0  0  0
  186.6750  178.5370  140.8510 C   0  0  1  0  0  3  0  0  0  0  0  0
  187.5930  178.2610  139.6820 C   0  0  0  0  0  0  0  0  0  0  0  0
  185.6400  178.3760  138.0460 C   0  0  1  0  0  3  0  0  0  0  0  0
  181.6210  175.9900  137.5740 N   0  0  0  0  0  2  0  0  0  0  0  0
  184.0540  179.6680  144.7930 C   0  0  0  0  0  2  0  0  0  0  0  0
  186.1970  178.1820  143.2750 C   0  0  2  0  0  3  0  0  0  0  0  0
  181.1490  177.6170  138.0790 S   0  0  0  0  0  0  0  0  0  0  0  0
  183.7660  178.3250  144.1090 C   0  0  0  0  0  2  0  0  0  0  0  0
  185.9020  178.4170  146.0370 C   0  0  1  0  0  3  0  0  0  0  0  0
  188.0000  178.1060  137.2870 C   0  0  0  0  0  3  0  0  0  0  0  0
  187.1070  178.2650  138.3540 C   0  0  0  0  0  0  0  0  0  0  0  0
  185.1060  177.0690  137.6920 N   0  0  0  0  0  2  0  0  0  0  0  0
  184.3300  178.7610  141.6940 C   0  0  0  0  0  2  0  0  0  0  0  0
  182.9230  180.3350  138.8280 C   0  0  0  0  0  1  0  0  0  0  0  0
  183.6720  174.5350  137.2270 C   0  0  0  0  0  1  0  0  0  0  0  0
  184.8170  178.9880  139.2120 C   0  0  2  0  0  3  0  0  0  0  0  0
  183.6910  176.9830  137.6070 C   0  0  0  0  0  0  0  0  0  0  0  0
  186.8670  178.6530  147.1870 C   0  0  0  0  0  2  0  0  0  0  0  0
  188.1080  177.8440  147.0190 C   0  0  0  0  0  0  0  0  0  0  0  0
  189.0470  178.2010  146.0600 O   0  0  0  0  0  1  0  0  0  0  0  0
  188.3300  176.7980  147.8020 C   0  0  0  0  0  2  0  0  0  0  0  0
  1 20  1  0  0  0  0
  2 12  1  0  0  0  0
  2 24  1  1  0  0  0
  3 11  1  0  0  0  0
  4  3  2  0  0  0  0
  6 28  1  1  0  0  0
  6 18  1  0  0  0  0
  6  5  1  0  0  0  0
  7 24  1  6  0  0  0
  7 17  1  0  0  0  0
  7 19  1  0  0  0  0
  9 15  1  0  0  0  0
  9 28  2  0  0  0  0
 10 20  1  0  0  0  0
 12  8  1  1  0  0  0
 13 11  2  0  0  0  0
 13 12  1  0  0  0  0
 14 23  1  1  0  0  0
 14 22  1  0  0  0  0
 14 27  1  0  0  0  0
 15 18  1  0  0  0  0
 16  1  1  0  0  0  0
 17  8  1  6  0  0  0
 17 10  1  0  0  0  0
 19 16  1  0  0  0  0
 20 29  1  1  0  0  0
 21  4  1  0  0  0  0
 21 22  2  0  0  0  0
 22 13  1  0  0  0  0
 25  5  1  0  0  0  0
 26  9  1  0  0  0  0
 27  5  1  6  0  0  0
 27  2  1  0  0  0  0
 28 23  1  0  0  0  0
 30 29  1  0  0  0  0
 30 32  2  0  0  0  0
 31 30  1  0  0  0  0
M  END
>  <MODEL>
1

>  <REMARK>
 VINA RESULT:      -8.1      0.000      0.000
  Name = 
  2 active torsions:
  status: ('A' for Active; 'I' for Inactive)
    1  A    between atoms: C_20  and  C_29
    2  A    between atoms: C_29  and  C_30
                            x       y       z     vdW  Elec       q    Type
                         _______ _______ _______ _____ _____    ______ ____

>  <TORSDO>
F 2

$$$$
=
 OpenBabel11122410383D

 32 37  0  0  1  0  0  0  0  0999 V2000
  188.5580  176.0600  137.7010 C   0  0  0  0  0  2  0  0  0  0  0  0
  184.0550  178.3370  138.7270 C   0  0  1  0  0  3  0  0  0  0  0  0
  183.6880  178.7400  143.6670 C   0  0  0  0  0  3  0  0  0  0  0  0
  182.3240  179.0030  143.5320 C   0  0  0  0  0  3  0  0  0  0  0  0
  182.0280  177.9990  137.3370 N   0  0  0  0  0  0  0  0  0  0  0  0
  180.9180  178.9550  137.1750 C   0  0  2  0  0  3  0  0  0  0  0  0
  186.2940  178.2530  137.6260 C   0  0  1  0  0  3  0  0  0  0  0  0
  186.1270  178.5530  140.1160 C   0  0  0  0  0  2  0  0  0  0  0  0
  180.9900  181.3240  137.4020 C   0  0  0  0  0  0  0  0  0  0  0  0
  188.6810  178.5310  139.0750 S   0  0  0  0  0  0  0  0  0  0  0  0
  184.4550  178.4410  142.5390 C   0  0  0  0  0  3  0  0  0  0  0  0
  184.7050  177.9860  140.0740 C   0  0  1  0  0  3  0  0  0  0  0  0
  183.8750  178.4220  141.2610 C   0  0  0  0  0  0  0  0  0  0  0  0
  181.7980  178.6510  139.7980 C   0  0  1  0  0  3  0  0  0  0  0  0
  180.7270  181.2220  136.0150 N   0  0  0  0  0  2  0  0  0  0  0  0
  187.5910  176.3040  136.5350 C   0  0  0  0  0  2  0  0  0  0  0  0
  186.9490  177.9470  138.9830 C   0  0  2  0  0  3  0  0  0  0  0  0
  180.8100  179.5510  135.4440 S   0  0  0  0  0  0  0  0  0  0  0  0
  187.0960  177.7520  136.4210 C   0  0  0  0  0  2  0  0  0  0  0  0
  189.4610  177.2640  137.9870 C   0  0  1  0  0  3  0  0  0  0  0  0
  181.7260  178.9600  142.2710 C   0  0  0  0  0  3  0  0  0  0  0  0
  182.4860  178.6570  141.1340 C   0  0  0  0  0  0  0  0  0  0  0  0
  181.5480  180.0160  139.3610 N   0  0  0  0  0  2  0  0  0  0  0  0
  184.8680  177.7070  137.5930 C   0  0  0  0  0  2  0  0  0  0  0  0
  181.5120  176.6850  136.9900 C   0  0  0  0  0  1  0  0  0  0  0  0
  181.1710  182.6420  138.0720 C   0  0  0  0  0  1  0  0  0  0  0  0
  182.5930  177.8810  138.7080 C   0  0  2  0  0  3  0  0  0  0  0  0
  181.1200  180.1660  138.0160 C   0  0  0  0  0  0  0  0  0  0  0  0
  190.7630  176.8050  138.6240 C   0  0  0  0  0  2  0  0  0  0  0  0
  191.4980  175.8690  137.7250 C   0  0  0  0  0  0  0  0  0  0  0  0
  191.4680  174.5030  137.9690 O   0  0  0  0  0  1  0  0  0  0  0  0
  192.1590  176.3390  136.6770 C   0  0  0  0  0  2  0  0  0  0  0  0
  1 20  1  0  0  0  0
  2 24  1  6  0  0  0
  2 12  1  0  0  0  0
  4  3  1  0  0  0  0
  6 18  1  6  0  0  0
  6  5  1  0  0  0  0
  6 28  1  0  0  0  0
  7 19  1  6  0  0  0
  7 17  1  0  0  0  0
  9 28  2  0  0  0  0
  9 26  1  0  0  0  0
 11  3  2  0  0  0  0
 12  8  1  1  0  0  0
 12 13  1  0  0  0  0
 13 11  1  0  0  0  0
 14 23  1  6  0  0  0
 14 22  1  0  0  0  0
 15  9  1  0  0  0  0
 16  1  1  0  0  0  0
 17 10  1  0  0  0  0
 17  8  1  1  0  0  0
 18 15  1  0  0  0  0
 19 16  1  0  0  0  0
 20 29  1  1  0  0  0
 20 10  1  0  0  0  0
 21  4  2  0  0  0  0
 22 13  2  0  0  0  0
 22 21  1  0  0  0  0
 24  7  1  0  0  0  0
 25  5  1  0  0  0  0
 27  5  1  6  0  0  0
 27  2  1  0  0  0  0
 27 14  1  0  0  0  0
 28 23  1  0  0  0  0
 30 31  1  0  0  0  0
 30 29  1  0  0  0  0
 32 30  2  0  0  0  0
M  END
>  <MODEL>
2

>  <REMARK>
 VINA RESULT:      -7.9      3.127      6.597
  Name = 
  2 active torsions:
  status: ('A' for Active; 'I' for Inactive)
    1  A    between atoms: C_20  and  C_29
    2  A    between atoms: C_29  and  C_30
                            x       y       z     vdW  Elec       q    Type
                         _______ _______ _______ _____ _____    ______ ____

>  <TORSDO>
F 2

$$$$
=
 OpenBabel11122410383D

 32 37  0  0  1  0  0  0  0  0999 V2000
  190.0270  178.6760  143.4870 C   0  0  0  0  0  2  0  0  0  0  0  0
  189.3260  176.7670  138.7580 C   0  0  1  0  0  3  0  0  0  0  0  0
  193.8230  176.0170  136.7780 C   0  0  0  0  0  3  0  0  0  0  0  0
  193.2350  175.8970  135.5180 C   0  0  0  0  0  3  0  0  0  0  0  0
  187.4080  177.4040  137.3190 N   0  0  0  0  0  0  0  0  0  0  0  0
  186.8020  176.5740  136.2630 C   0  0  2  0  0  3  0  0  0  0  0  0
  189.0090  176.7220  141.2330 C   0  0  1  0  0  3  0  0  0  0  0  0
  191.2710  176.2460  140.2460 C   0  0  0  0  0  2  0  0  0  0  0  0
  186.7920  174.1980  136.1020 C   0  0  0  0  0  0  0  0  0  0  0  0
  191.1030  176.1050  142.9950 S   0  0  0  0  0  0  0  0  0  0  0  0
  193.0360  176.3280  137.8880 C   0  0  0  0  0  3  0  0  0  0  0  0
  190.8390  176.9470  138.9550 C   0  0  1  0  0  3  0  0  0  0  0  0
  191.6480  176.5020  137.7580 C   0  0  0  0  0  0  0  0  0  0  0  0
  189.5860  176.5870  136.2590 C   0  0  1  0  0  3  0  0  0  0  0  0
  185.4120  174.4330  136.3110 N   0  0  0  0  0  0  0  0  0  0  0  0
  188.5960  178.6160  142.9380 C   0  0  0  0  0  2  0  0  0  0  0  0
  190.5280  176.8570  141.4300 C   0  0  2  0  0  3  0  0  0  0  0  0
  185.0750  176.1270  136.6840 S   0  0  0  0  0  0  0  0  0  0  0  0
  188.1800  177.2360  142.4140 C   0  0  0  0  0  2  0  0  0  0  0  0
  190.4580  177.3730  144.1680 C   0  0  1  0  0  3  0  0  0  0  0  0
  191.8620  176.0940  135.3670 C   0  0  0  0  0  3  0  0  0  0  0  0
  191.0630  176.4120  136.4730 C   0  0  0  0  0  0  0  0  0  0  0  0
  188.9520  175.2900  136.0760 N   0  0  0  0  0  0  0  0  0  0  0  0
  188.5820  177.4030  139.9340 C   0  0  0  0  0  2  0  0  0  0  0  0
  187.0540  178.7840  137.0310 C   0  0  0  0  0  1  0  0  0  0  0  0
  187.3430  172.8210  135.9680 C   0  0  0  0  0  1  0  0  0  0  0  0
  188.8910  177.3600  137.4140 C   0  0  2  0  0  3  0  0  0  0  0  0
  187.5320  175.2880  136.1000 C   0  0  0  0  0  0  0  0  0  0  0  0
  191.5200  177.6540  145.2190 C   0  0  0  0  0  2  0  0  0  0  0  0
  191.2200  176.9330  146.4890 C   0  0  0  0  0  0  0  0  0  0  0  0
  192.2440  176.3260  147.2040 O   0  0  0  0  0  1  0  0  0  0  0  0
  189.9790  176.8920  146.9520 C   0  0  0  0  0  2  0  0  0  0  0  0
  1 20  1  0  0  0  0
  2 12  1  0  0  0  0
  2 24  1  1  0  0  0
  3 11  1  0  0  0  0
  4  3  2  0  0  0  0
  6 28  1  1  0  0  0
  6 18  1  0  0  0  0
  6  5  1  0  0  0  0
  7 24  1  6  0  0  0
  7 17  1  0  0  0  0
  7 19  1  0  0  0  0
  9 15  2  0  0  0  0
 10 20  1  0  0  0  0
 12  8  1  1  0  0  0
 13 11  2  0  0  0  0
 13 12  1  0  0  0  0
 14 23  1  1  0  0  0
 14 22  1  0  0  0  0
 14 27  1  0  0  0  0
 15 18  1  0  0  0  0
 16  1  1  0  0  0  0
 17  8  1  6  0  0  0
 17 10  1  0  0  0  0
 19 16  1  0  0  0  0
 20 29  1  1  0  0  0
 21  4  1  0  0  0  0
 21 22  2  0  0  0  0
 22 13  1  0  0  0  0
 23 28  2  0  0  0  0
 25  5  1  0  0  0  0
 26  9  1  0  0  0  0
 27  5  1  6  0  0  0
 27  2  1  0  0  0  0
 28  9  1  0  0  0  0
 29 30  1  0  0  0  0
 30 32  2  0  0  0  0
 30 31  1  0  0  0  0
M  END
>  <MODEL>
3

>  <REMARK>
 VINA RESULT:      -7.8      3.381      4.622
  Name = 
  2 active torsions:
  status: ('A' for Active; 'I' for Inactive)
    1  A    between atoms: C_20  and  C_29
    2  A    between atoms: C_29  and  C_30
                            x       y       z     vdW  Elec       q    Type
                         _______ _______ _______ _____ _____    ______ ____

>  <TORSDO>
F 2

$$$$
=
 OpenBabel11122410383D

 32 37  0  0  1  0  0  0  0  0999 V2000
  188.9510  176.4750  139.0410 C   0  0  0  0  0  2  0  0  0  0  0  0
  184.1800  178.3570  139.4950 C   0  0  1  0  0  3  0  0  0  0  0  0
  183.2520  178.8950  144.3480 C   0  0  0  0  0  3  0  0  0  0  0  0
  181.8930  179.0250  144.0620 C   0  0  0  0  0  3  0  0  0  0  0  0
  182.3510  177.7840  137.9200 N   0  0  0  0  0  0  0  0  0  0  0  0
  181.1840  178.6260  137.6020 C   0  0  2  0  0  3  0  0  0  0  0  0
  186.5220  178.4430  138.6360 C   0  0  1  0  0  3  0  0  0  0  0  0
  186.0640  178.8130  141.0790 C   0  0  0  0  0  2  0  0  0  0  0  0
  181.0210  180.9980  137.7300 C   0  0  0  0  0  0  0  0  0  0  0  0
  188.7060  178.9930  140.3090 S   0  0  0  0  0  0  0  0  0  0  0  0
  184.1590  178.6300  143.3200 C   0  0  0  0  0  3  0  0  0  0  0  0
  184.7100  178.1150  140.9160 C   0  0  1  0  0  3  0  0  0  0  0  0
  183.7230  178.5120  141.9910 C   0  0  0  0  0  0  0  0  0  0  0  0
  181.8020  178.4960  140.3130 C   0  0  1  0  0  3  0  0  0  0  0  0
  180.9170  180.8240  136.3290 N   0  0  0  0  0  2  0  0  0  0  0  0
  188.0960  176.5880  137.7720 C   0  0  0  0  0  2  0  0  0  0  0  0
  187.0530  178.2480  140.0650 C   0  0  2  0  0  3  0  0  0  0  0  0
  181.2090  179.1490  135.8440 S   0  0  0  0  0  0  0  0  0  0  0  0
  187.4890  177.9780  137.5430 C   0  0  0  0  0  2  0  0  0  0  0  0
  189.7080  177.7670  139.3650 C   0  0  1  0  0  3  0  0  0  0  0  0
  181.4390  178.8830  142.7490 C   0  0  0  0  0  3  0  0  0  0  0  0
  182.3400  178.6120  141.7110 C   0  0  0  0  0  0  0  0  0  0  0  0
  181.4800  179.8160  139.7920 N   0  0  0  0  0  2  0  0  0  0  0  0
  185.1620  177.7660  138.4810 C   0  0  0  0  0  2  0  0  0  0  0  0
  181.9940  176.4160  137.5800 C   0  0  0  0  0  1  0  0  0  0  0  0
  181.0100  182.3490  138.3560 C   0  0  0  0  0  1  0  0  0  0  0  0
  182.7740  177.7670  139.3450 C   0  0  2  0  0  3  0  0  0  0  0  0
  181.1860  179.8780  138.4040 C   0  0  0  0  0  0  0  0  0  0  0  0
  190.9700  177.4530  140.1530 C   0  0  0  0  0  2  0  0  0  0  0  0
  190.6550  177.2020  141.5890 C   0  0  0  0  0  0  0  0  0  0  0  0
  190.1480  175.9710  141.9840 O   0  0  0  0  0  1  0  0  0  0  0  0
  190.8840  178.1430  142.4930 C   0  0  0  0  0  2  0  0  0  0  0  0
  1 20  1  0  0  0  0
  2 24  1  6  0  0  0
  2 12  1  0  0  0  0
  4  3  1  0  0  0  0
  6 18  1  6  0  0  0
  6  5  1  0  0  0  0
  6 28  1  0  0  0  0
  7 19  1  6  0  0  0
  7 17  1  0  0  0  0
  9 26  1  0  0  0  0
  9 28  2  0  0  0  0
 11  3  2  0  0  0  0
 12  8  1  1  0  0  0
 12 13  1  0  0  0  0
 13 11  1  0  0  0  0
 14 23  1  6  0  0  0
 14 22  1  0  0  0  0
 15  9  1  0  0  0  0
 16  1  1  0  0  0  0
 17 10  1  0  0  0  0
 17  8  1  1  0  0  0
 18 15  1  0  0  0  0
 19 16  1  0  0  0  0
 20 29  1  1  0  0  0
 20 10  1  0  0  0  0
 21  4  2  0  0  0  0
 22 13  2  0  0  0  0
 22 21  1  0  0  0  0
 24  7  1  0  0  0  0
 25  5  1  0  0  0  0
 27  5  1  6  0  0  0
 27  2  1  0  0  0  0
 27 14  1  0  0  0  0
 28 23  1  0  0  0  0
 29 30  1  0  0  0  0
 30 31  1  0  0  0  0
 30 32  2  0  0  0  0
M  END
>  <MODEL>
4

>  <REMARK>
 VINA RESULT:      -7.2      2.575      5.760
  Name = 
  2 active torsions:
  status: ('A' for Active; 'I' for Inactive)
    1  A    between atoms: C_20  and  C_29
    2  A    between atoms: C_29  and  C_30
                            x       y       z     vdW  Elec       q    Type
                         _______ _______ _______ _____ _____    ______ ____

>  <TORSDO>
F 2

$$$$
=
 OpenBabel11122410383D

 32 37  0  0  1  0  0  0  0  0999 V2000
  189.2550  178.2550  144.9640 C   0  0  0  0  0  2  0  0  0  0  0  0
  186.4840  177.7640  140.6520 C   0  0  1  0  0  3  0  0  0  0  0  0
  189.5720  178.4490  136.8180 C   0  0  0  0  0  3  0  0  0  0  0  0
  188.4710  178.6120  135.9760 C   0  0  0  0  0  3  0  0  0  0  0  0
  184.1070  178.4550  140.4940 N   0  0  0  0  0  0  0  0  0  0  0  0
  183.0980  177.8890  139.5810 C   0  0  2  0  0  3  0  0  0  0  0  0
  187.3470  176.9210  142.8380 C   0  0  1  0  0  3  0  0  0  0  0  0
  188.9060  177.1710  140.8830 C   0  0  0  0  0  2  0  0  0  0  0  0
  183.0580  175.7080  138.6250 C   0  0  0  0  0  0  0  0  0  0  0  0
  190.0290  176.1820  143.1990 S   0  0  0  0  0  0  0  0  0  0  0  0
  189.3810  178.2690  138.1900 C   0  0  0  0  0  3  0  0  0  0  0  0
  187.9140  178.1410  140.2340 C   0  0  1  0  0  3  0  0  0  0  0  0
  188.0870  178.2260  138.7340 C   0  0  0  0  0  0  0  0  0  0  0  0
  185.5650  178.3930  138.3940 C   0  0  1  0  0  3  0  0  0  0  0  0
  181.9270  175.6220  139.4710 N   0  0  0  0  0  0  0  0  0  0  0  0
  187.7330  178.1120  145.0970 C   0  0  0  0  0  2  0  0  0  0  0  0
  188.7820  177.2570  142.4000 C   0  0  2  0  0  3  0  0  0  0  0  0
  181.7690  177.0390  140.5160 S   0  0  0  0  0  0  0  0  0  0  0  0
  187.1480  176.9020  144.3570 C   0  0  0  0  0  2  0  0  0  0  0  0
  189.9760  176.9040  144.8950 C   0  0  1  0  0  3  0  0  0  0  0  0
  187.1800  178.6000  136.5060 C   0  0  0  0  0  3  0  0  0  0  0  0
  186.9770  178.4240  137.8810 C   0  0  0  0  0  0  0  0  0  0  0  0
  184.9420  177.1210  138.0610 N   0  0  0  0  0  0  0  0  0  0  0  0
  186.3560  177.8750  142.1730 C   0  0  0  0  0  2  0  0  0  0  0  0
  183.6350  179.7730  140.8840 C   0  0  0  0  0  1  0  0  0  0  0  0
  183.5110  174.5550  137.7990 C   0  0  0  0  0  1  0  0  0  0  0  0
  185.4670  178.6470  139.9230 C   0  0  2  0  0  3  0  0  0  0  0  0
  183.6940  176.8610  138.6860 C   0  0  0  0  0  0  0  0  0  0  0  0
  191.3970  177.0390  145.4160 C   0  0  0  0  0  2  0  0  0  0  0  0
  191.4980  176.5610  146.8250 C   0  0  0  0  0  0  0  0  0  0  0  0
  190.6470  177.0720  147.7960 O   0  0  0  0  0  1  0  0  0  0  0  0
  192.3820  175.6270  147.1470 C   0  0  0  0  0  2  0  0  0  0  0  0
  1 16  1  0  0  0  0
  2 24  1  1  0  0  0
  3 11  1  0  0  0  0
  4 21  1  0  0  0  0
  4  3  2  0  0  0  0
  5 25  1  0  0  0  0
  6 28  1  6  0  0  0
  6  5  1  0  0  0  0
  6 18  1  0  0  0  0
  7 24  1  6  0  0  0
  7 19  1  0  0  0  0
  9 28  1  0  0  0  0
  9 15  2  0  0  0  0
 10 20  1  0  0  0  0
 11 13  2  0  0  0  0
 12  2  1  0  0  0  0
 12  8  1  6  0  0  0
 13 12  1  0  0  0  0
 14 22  1  1  0  0  0
 14 27  1  0  0  0  0
 15 18  1  0  0  0  0
 17  8  1  6  0  0  0
 17  7  1  0  0  0  0
 17 10  1  0  0  0  0
 19 16  1  0  0  0  0
 20  1  1  0  0  0  0
 20 29  1  6  0  0  0
 21 22  2  0  0  0  0
 22 13  1  0  0  0  0
 23 14  1  0  0  0  0
 23 28  2  0  0  0  0
 26  9  1  0  0  0  0
 27  5  1  1  0  0  0
 27  2  1  0  0  0  0
 29 30  1  0  0  0  0
 30 32  2  0  0  0  0
 30 31  1  0  0  0  0
M  END
>  <MODEL>
5

>  <REMARK>
 VINA RESULT:      -7.0      1.972      2.604
  Name = 
  2 active torsions:
  status: ('A' for Active; 'I' for Inactive)
    1  A    between atoms: C_20  and  C_29
    2  A    between atoms: C_29  and  C_30
                            x       y       z     vdW  Elec       q    Type
                         _______ _______ _______ _____ _____    ______ ____

>  <TORSDO>
F 2

$$$$
=
 OpenBabel11122410383D

 32 37  0  0  1  0  0  0  0  0999 V2000
  194.4210  172.9180  135.9810 C   0  0  0  0  0  2  0  0  0  0  0  0
  190.2760  175.7060  137.2270 C   0  0  1  0  0  3  0  0  0  0  0  0
  191.1770  177.8160  141.6360 C   0  0  0  0  0  3  0  0  0  0  0  0
  189.8180  178.1070  141.7620 C   0  0  0  0  0  3  0  0  0  0  0  0
  187.9700  175.0450  136.5960 N   0  0  0  0  0  0  0  0  0  0  0  0
  186.8310  175.9580  136.3900 C   0  0  2  0  0  3  0  0  0  0  0  0
  192.1590  175.0970  135.7060 C   0  0  1  0  0  3  0  0  0  0  0  0
  192.6280  176.2500  137.8900 C   0  0  0  0  0  2  0  0  0  0  0  0
  186.8990  178.2490  135.7440 C   0  0  0  0  0  0  0  0  0  0  0  0
  194.8290  175.6980  136.3220 S   0  0  0  0  0  0  0  0  0  0  0  0
  191.6370  177.0940  140.5330 C   0  0  0  0  0  3  0  0  0  0  0  0
  191.2580  175.8000  138.4050 C   0  0  1  0  0  3  0  0  0  0  0  0
  190.7490  176.6730  139.5300 C   0  0  0  0  0  0  0  0  0  0  0  0
  188.3620  176.5220  138.6460 C   0  0  1  0  0  3  0  0  0  0  0  0
  186.2910  177.6920  134.5940 N   0  0  0  0  0  2  0  0  0  0  0  0
  193.1820  172.8090  135.0840 C   0  0  0  0  0  2  0  0  0  0  0  0
  193.1480  175.2360  136.8760 C   0  0  2  0  0  3  0  0  0  0  0  0
  186.2680  175.9250  134.6450 S   0  0  0  0  0  0  0  0  0  0  0  0
  192.6380  174.1580  134.5950 C   0  0  0  0  0  2  0  0  0  0  0  0
  195.3370  174.0830  135.5920 C   0  0  1  0  0  3  0  0  0  0  0  0
  188.9180  177.6710  140.7870 C   0  0  0  0  0  3  0  0  0  0  0  0
  189.3690  176.9430  139.6790 C   0  0  0  0  0  0  0  0  0  0  0  0
  187.9730  177.6650  137.8340 N   0  0  0  0  0  2  0  0  0  0  0  0
  190.7870  174.6700  136.2240 C   0  0  0  0  0  2  0  0  0  0  0  0
  187.4160  173.7300  136.8720 C   0  0  0  0  0  1  0  0  0  0  0  0
  187.2110  179.7020  135.8420 C   0  0  0  0  0  1  0  0  0  0  0  0
  188.8700  175.3710  137.7340 C   0  0  2  0  0  3  0  0  0  0  0  0
  187.2110  177.3680  136.6730 C   0  0  0  0  0  0  0  0  0  0  0  0
  196.7700  173.7870  136.0040 C   0  0  0  0  0  2  0  0  0  0  0  0
  197.6160  175.0120  135.9170 C   0  0  0  0  0  0  0  0  0  0  0  0
  198.0580  175.6360  137.0760 O   0  0  0  0  0  1  0  0  0  0  0  0
  197.9690  175.4920  134.7340 C   0  0  0  0  0  2  0  0  0  0  0  0
  2 24  1  6  0  0  0
  2 27  1  0  0  0  0
  2 12  1  0  0  0  0
  3  4  1  0  0  0  0
  5 25  1  0  0  0  0
  6 18  1  6  0  0  0
  6  5  1  0  0  0  0
  6 28  1  0  0  0  0
  7 19  1  6  0  0  0
  7 24  1  0  0  0  0
  7 17  1  0  0  0  0
  9 26  1  0  0  0  0
  9 28  2  0  0  0  0
 10 17  1  0  0  0  0
 11  3  2  0  0  0  0
 12  8  1  6  0  0  0
 12 13  1  0  0  0  0
 13 22  2  0  0  0  0
 13 11  1  0  0  0  0
 14 23  1  6  0  0  0
 14 22  1  0  0  0  0
 15 18  1  0  0  0  0
 15  9  1  0  0  0  0
 16  1  1  0  0  0  0
 17  8  1  1  0  0  0
 19 16  1  0  0  0  0
 20  1  1  0  0  0  0
 20 29  1  1  0  0  0
 20 10  1  0  0  0  0
 21  4  2  0  0  0  0
 22 21  1  0  0  0  0
 27  5  1  6  0  0  0
 27 14  1  0  0  0  0
 28 23  1  0  0  0  0
 30 29  1  0  0  0  0
 30 31  1  0  0  0  0
 32 30  2  0  0  0  0
M  END
>  <MODEL>
6

>  <REMARK>
 VINA RESULT:      -5.3      5.478      9.232
  Name = 
  2 active torsions:
  status: ('A' for Active; 'I' for Inactive)
    1  A    between atoms: C_20  and  C_29
    2  A    between atoms: C_29  and  C_30
                            x       y       z     vdW  Elec       q    Type
                         _______ _______ _______ _____ _____    ______ ____

>  <TORSDO>
F 2

$$$$
