=
 OpenBabel11122411313D

 37 45  0  0  1  0  0  0  0  0999 V2000
  188.5550  178.4830  139.6000 C   0  0  1  0  0  3  0  0  0  0  0  0
  190.5720  177.8590  143.7320 C   0  0  0  0  0  0  0  0  0  0  0  0
  186.3900  178.2000  143.9240 C   0  0  2  0  0  3  0  0  0  0  0  0
  188.5700  178.0130  138.1350 C   0  0  2  0  0  3  0  0  0  0  0  0
  184.1500  178.8500  140.6700 C   0  0  0  0  0  2  0  0  0  0  0  0
  188.4400  177.9110  145.1250 C   0  0  1  0  0  3  0  0  0  0  0  0
  185.9110  178.1000  142.4960 C   0  0  1  0  0  3  0  0  0  0  0  0
  186.1770  177.2180  137.8130 C   0  0  0  0  0  0  0  0  0  0  0  0
  187.6750  177.4300  143.9110 C   0  0  2  0  0  3  0  0  0  0  0  0
  184.6330  178.9590  142.1550 C   0  0  2  0  0  3  0  0  0  0  0  0
  187.6790  177.5050  146.3640 C   0  0  0  0  0  3  0  0  0  0  0  0
  187.5760  177.0600  137.7490 O   0  0  0  0  0  0  0  0  0  0  0  0
  188.3240  177.7200  142.5620 C   0  0  2  0  0  3  0  0  0  0  0  0
  191.1930  176.6400  143.0860 C   0  0  0  0  0  1  0  0  0  0  0  0
  184.5060  178.7990  145.3720 C   0  0  0  0  0  3  0  0  0  0  0  0
  186.3240  177.4550  146.3410 C   0  0  0  0  0  3  0  0  0  0  0  0
  189.6180  178.5260  142.7210 C   0  0  0  0  0  2  0  0  0  0  0  0
  185.4900  178.3860  138.4880 C   0  0  1  0  0  3  0  0  0  0  0  0
  185.0690  178.0080  139.8370 C   0  0  1  0  0  3  0  0  0  0  0  0
  185.4970  177.7210  145.0770 C   0  0  2  0  0  3  0  0  0  0  0  0
  187.2440  178.4590  141.7650 C   0  0  1  0  0  3  0  0  0  0  0  0
  189.8810  177.4300  145.0530 C   0  0  0  0  0  2  0  0  0  0  0  0
  183.4570  178.6030  143.1140 C   0  0  1  0  0  3  0  0  0  0  0  0
  191.6750  178.8310  144.0620 C   0  0  0  0  0  1  0  0  0  0  0  0
  186.2220  178.8870  139.6670 N   0  0  1  0  0  0  0  0  0  0  0  0
  185.4520  176.3350  137.2800 O   0  0  0  0  0  0  0  0  0  0  0  0
  187.2590  178.0870  140.2750 C   0  0  1  0  0  3  0  0  0  0  0  0
  183.5980  179.2040  144.4820 C   0  0  0  0  0  3  0  0  0  0  0  0
  190.7270  177.7320  139.0750 F   0  0  0  0  0  0  0  0  0  0  0  0
  189.4150  177.3100  139.1860 C   0  0  1  0  0  3  0  0  0  0  0  0
  181.2410  179.7410  143.3560 C   0  0  0  0  0  3  0  0  0  0  0  0
  182.0840  178.9260  142.5890 C   0  0  0  0  0  0  0  0  0  0  0  0
  181.6420  178.4410  141.3470 C   0  0  0  0  0  3  0  0  0  0  0  0
  179.9020  178.2530  139.6380 N   0  0  0  0  0  1  0  0  0  0  0  0
  179.5260  179.5860  141.6500 C   0  0  0  0  0  3  0  0  0  0  0  0
  180.3620  178.7660  140.8830 C   0  0  0  0  0  0  0  0  0  0  0  0
  179.9640  180.0690  142.8860 C   0  0  0  0  0  3  0  0  0  0  0  0
  1 27  1  0  0  0  0
  2 24  1  0  0  0  0
  2 22  1  0  0  0  0
  3 20  1  0  0  0  0
  4 30  1  0  0  0  0
  4  1  1  0  0  0  0
  5 10  1  0  0  0  0
  6 11  1  0  0  0  0
  7  3  1  0  0  0  0
  8 18  1  0  0  0  0
  9  3  1  0  0  0  0
  9  6  1  0  0  0  0
 10  7  1  0  0  0  0
 10 23  1  0  0  0  0
 12  8  1  0  0  0  0
 12  4  1  0  0  0  0
 13 17  1  0  0  0  0
 13  9  1  0  0  0  0
 14  2  1  0  0  0  0
 16 11  2  0  0  0  0
 17  2  1  0  0  0  0
 18 25  1  0  0  0  0
 18 19  1  0  0  0  0
 19  5  1  0  0  0  0
 20 15  1  0  0  0  0
 20 16  1  0  0  0  0
 21  7  1  0  0  0  0
 21 13  1  0  0  0  0
 22  6  1  0  0  0  0
 23 28  1  0  0  0  0
 25 19  1  0  0  0  0
 25 27  1  0  0  0  0
 26  8  2  0  0  0  0
 27 21  1  0  0  0  0
 28 15  2  0  0  0  0
 29 30  1  0  0  0  0
 30  1  1  0  0  0  0
 32 23  1  0  0  0  0
 32 31  2  0  0  0  0
 33 32  1  0  0  0  0
 34 36  1  0  0  0  0
 35 37  2  0  0  0  0
 36 33  2  0  0  0  0
 36 35  1  0  0  0  0
 37 31  1  0  0  0  0
M  END
>  <MODEL>
1

>  <REMARK>
 VINA RESULT:     -12.9      0.000      0.000
  Name = 
  1 active torsions:
  status: ('A' for Active; 'I' for Inactive)
    1  A    between atoms: C_23  and  C_30
                            x       y       z     vdW  Elec       q    Type
                         _______ _______ _______ _____ _____    ______ ____

>  <TORSDO>
F 1

$$$$
=
 OpenBabel11122411313D

 37 45  0  0  1  0  0  0  0  0999 V2000
  185.5700  177.5520  138.3260 C   0  0  1  0  0  3  0  0  0  0  0  0
  181.5530  178.2110  140.5530 C   0  0  0  0  0  0  0  0  0  0  0  0
  184.9190  178.3340  143.0630 C   0  0  2  0  0  3  0  0  0  0  0  0
  186.3540  177.9270  137.0550 C   0  0  2  0  0  3  0  0  0  0  0  0
  188.6300  177.7290  141.6860 C   0  0  0  0  0  2  0  0  0  0  0  0
  182.5360  178.4740  142.8880 C   0  0  1  0  0  3  0  0  0  0  0  0
  186.1110  178.3960  142.1360 C   0  0  1  0  0  3  0  0  0  0  0  0
  188.4690  178.9530  138.0240 C   0  0  0  0  0  0  0  0  0  0  0  0
  183.8230  178.9590  142.2550 C   0  0  2  0  0  3  0  0  0  0  0  0
  187.4040  177.6600  142.6580 C   0  0  2  0  0  3  0  0  0  0  0  0
  182.4480  179.0360  144.2870 C   0  0  0  0  0  3  0  0  0  0  0  0
  187.3400  178.9550  137.1800 O   0  0  0  0  0  0  0  0  0  0  0  0
  184.0590  178.5180  140.8150 C   0  0  2  0  0  3  0  0  0  0  0  0
  181.3360  179.3130  139.5400 C   0  0  0  0  0  1  0  0  0  0  0  0
  185.6970  178.0310  145.3660 C   0  0  0  0  0  3  0  0  0  0  0  0
  183.5790  179.2300  145.0110 C   0  0  0  0  0  3  0  0  0  0  0  0
  182.9450  177.5880  140.3200 C   0  0  0  0  0  2  0  0  0  0  0  0
  188.7210  177.9100  139.0920 C   0  0  1  0  0  3  0  0  0  0  0  0
  188.2920  178.4130  140.3960 C   0  0  1  0  0  3  0  0  0  0  0  0
  184.9850  178.9770  144.4540 C   0  0  2  0  0  3  0  0  0  0  0  0
  185.4380  177.8520  140.8360 C   0  0  1  0  0  3  0  0  0  0  0  0
  181.3600  178.7920  141.9780 C   0  0  0  0  0  2  0  0  0  0  0  0
  187.8190  178.1990  144.0600 C   0  0  1  0  0  3  0  0  0  0  0  0
  180.5100  177.1480  140.3240 C   0  0  0  0  0  1  0  0  0  0  0  0
  187.4830  177.4060  139.7160 N   0  0  1  0  0  0  0  0  0  0  0  0
  189.3170  179.8740  137.8870 O   0  0  0  0  0  0  0  0  0  0  0  0
  186.2410  178.1270  139.5560 C   0  0  1  0  0  3  0  0  0  0  0  0
  186.9680  177.6720  145.1780 C   0  0  0  0  0  3  0  0  0  0  0  0
  184.0290  178.0310  136.6080 F   0  0  0  0  0  0  0  0  0  0  0  0
  185.0280  178.5980  137.3780 C   0  0  1  0  0  3  0  0  0  0  0  0
  190.2500  178.6570  143.6790 C   0  0  0  0  0  3  0  0  0  0  0  0
  189.2650  177.9940  144.4220 C   0  0  0  0  0  0  0  0  0  0  0  0
  189.6420  177.1670  145.4940 C   0  0  0  0  0  3  0  0  0  0  0  0
  191.3790  176.1430  146.8770 N   0  0  0  0  0  1  0  0  0  0  0  0
  191.9740  177.6730  145.0680 C   0  0  0  0  0  3  0  0  0  0  0  0
  190.9950  177.0030  145.8100 C   0  0  0  0  0  0  0  0  0  0  0  0
  191.6030  178.4950  144.0020 C   0  0  0  0  0  3  0  0  0  0  0  0
  1 27  1  0  0  0  0
  2 22  1  0  0  0  0
  3 20  1  0  0  0  0
  4 12  1  0  0  0  0
  4 30  1  0  0  0  0
  4  1  1  0  0  0  0
  5 10  1  0  0  0  0
  6 11  1  0  0  0  0
  7 10  1  0  0  0  0
  7  3  1  0  0  0  0
  8 18  1  0  0  0  0
  9  6  1  0  0  0  0
  9  3  1  0  0  0  0
 10 23  1  0  0  0  0
 11 16  2  0  0  0  0
 12  8  1  0  0  0  0
 13 21  1  0  0  0  0
 13  9  1  0  0  0  0
 14  2  1  0  0  0  0
 17  2  1  0  0  0  0
 17 13  1  0  0  0  0
 18 25  1  0  0  0  0
 18 19  1  0  0  0  0
 19  5  1  0  0  0  0
 20 16  1  0  0  0  0
 20 15  1  0  0  0  0
 21  7  1  0  0  0  0
 22  6  1  0  0  0  0
 23 32  1  0  0  0  0
 23 28  1  0  0  0  0
 24  2  1  0  0  0  0
 25 19  1  0  0  0  0
 26  8  2  0  0  0  0
 27 25  1  0  0  0  0
 27 21  1  0  0  0  0
 28 15  2  0  0  0  0
 29 30  1  0  0  0  0
 30  1  1  0  0  0  0
 31 37  2  0  0  0  0
 31 32  1  0  0  0  0
 32 33  2  0  0  0  0
 33 36  1  0  0  0  0
 35 36  2  0  0  0  0
 36 34  1  0  0  0  0
 37 35  1  0  0  0  0
M  END
>  <MODEL>
2

>  <REMARK>
 VINA RESULT:     -10.4      2.274      6.801
  Name = 
  1 active torsions:
  status: ('A' for Active; 'I' for Inactive)
    1  A    between atoms: C_23  and  C_30
                            x       y       z     vdW  Elec       q    Type
                         _______ _______ _______ _____ _____    ______ ____

>  <TORSDO>
F 1

$$$$
=
 OpenBabel11122411313D

 37 45  0  0  1  0  0  0  0  0999 V2000
  187.5860  178.6610  141.1330 C   0  0  1  0  0  3  0  0  0  0  0  0
  185.3250  178.7130  145.1840 C   0  0  0  0  0  0  0  0  0  0  0  0
  182.8020  178.9570  141.8350 C   0  0  2  0  0  3  0  0  0  0  0  0
  188.7350  177.9800  140.3690 C   0  0  2  0  0  3  0  0  0  0  0  0
  184.2250  179.0530  138.0940 C   0  0  0  0  0  2  0  0  0  0  0  0
  182.9750  178.9090  144.2220 C   0  0  1  0  0  3  0  0  0  0  0  0
  183.6770  178.6340  140.6470 C   0  0  1  0  0  3  0  0  0  0  0  0
  187.5390  177.0770  138.3150 C   0  0  0  0  0  0  0  0  0  0  0  0
  183.4710  178.2320  142.9620 C   0  0  2  0  0  3  0  0  0  0  0  0
  183.3080  179.3950  139.3170 C   0  0  2  0  0  3  0  0  0  0  0  0
  181.4900  178.6680  144.3440 C   0  0  0  0  0  3  0  0  0  0  0  0
  188.3780  176.9530  139.4410 O   0  0  0  0  0  0  0  0  0  0  0  0
  184.9690  178.3380  142.7000 C   0  0  2  0  0  3  0  0  0  0  0  0
  186.0790  177.4320  145.4600 C   0  0  0  0  0  1  0  0  0  0  0  0
  180.6070  179.7090  141.0470 C   0  0  0  0  0  3  0  0  0  0  0  0
  180.7250  178.5760  143.2270 C   0  0  0  0  0  3  0  0  0  0  0  0
  185.6680  179.1960  143.7610 C   0  0  0  0  0  2  0  0  0  0  0  0
  186.7180  178.3110  138.0080 C   0  0  1  0  0  3  0  0  0  0  0  0
  185.3410  178.1250  138.4670 C   0  0  1  0  0  3  0  0  0  0  0  0
  181.3040  178.6280  141.8080 C   0  0  2  0  0  3  0  0  0  0  0  0
  185.0730  178.9190  141.2860 C   0  0  1  0  0  3  0  0  0  0  0  0
  183.8110  178.4640  145.4120 C   0  0  0  0  0  2  0  0  0  0  0  0
  181.8170  179.1500  138.9340 C   0  0  1  0  0  3  0  0  0  0  0  0
  185.7930  179.7560  146.1680 C   0  0  0  0  0  1  0  0  0  0  0  0
  186.2340  179.0030  139.2180 N   0  0  1  0  0  0  0  0  0  0  0  0
  187.4620  176.1040  137.5170 O   0  0  0  0  0  0  0  0  0  0  0  0
  186.2520  178.3320  140.4970 C   0  0  1  0  0  3  0  0  0  0  0  0
  180.8500  179.9510  139.7580 C   0  0  0  0  0  3  0  0  0  0  0  0
  189.1820  177.9050  142.6950 F   0  0  0  0  0  0  0  0  0  0  0  0
  188.2940  177.4660  141.7290 C   0  0  1  0  0  3  0  0  0  0  0  0
  181.5450  178.2530  136.6150 C   0  0  0  0  0  3  0  0  0  0  0  0
  181.4880  179.3520  137.4800 C   0  0  0  0  0  0  0  0  0  0  0  0
  181.1130  180.6110  136.9820 C   0  0  0  0  0  3  0  0  0  0  0  0
  180.4530  182.0450  135.1140 N   0  0  0  0  0  1  0  0  0  0  0  0
  180.8570  179.6610  134.7660 C   0  0  0  0  0  3  0  0  0  0  0  0
  180.8050  180.7650  135.6250 C   0  0  0  0  0  0  0  0  0  0  0  0
  181.2300  178.4080  135.2590 C   0  0  0  0  0  3  0  0  0  0  0  0
  1 30  1  0  0  0  0
  2 22  1  0  0  0  0
  2 14  1  0  0  0  0
  2 24  1  0  0  0  0
  3  9  1  0  0  0  0
  4  1  1  0  0  0  0
  4 30  1  0  0  0  0
  5 19  1  0  0  0  0
  5 10  1  0  0  0  0
  6 11  1  0  0  0  0
  6 22  1  0  0  0  0
  7 21  1  0  0  0  0
  7  3  1  0  0  0  0
  8 12  1  0  0  0  0
  9  6  1  0  0  0  0
 10  7  1  0  0  0  0
 12  4  1  0  0  0  0
 13  9  1  0  0  0  0
 13 17  1  0  0  0  0
 15 20  1  0  0  0  0
 16 11  2  0  0  0  0
 17  2  1  0  0  0  0
 18  8  1  0  0  0  0
 18 19  1  0  0  0  0
 18 25  1  0  0  0  0
 19 25  1  0  0  0  0
 20  3  1  0  0  0  0
 20 16  1  0  0  0  0
 21 13  1  0  0  0  0
 23 10  1  0  0  0  0
 23 28  1  0  0  0  0
 25 27  1  0  0  0  0
 26  8  2  0  0  0  0
 27  1  1  0  0  0  0
 27 21  1  0  0  0  0
 28 15  2  0  0  0  0
 30 29  1  0  0  0  0
 31 32  1  0  0  0  0
 32 23  1  0  0  0  0
 33 32  2  0  0  0  0
 34 36  1  0  0  0  0
 35 37  1  0  0  0  0
 35 36  2  0  0  0  0
 36 33  1  0  0  0  0
 37 31  2  0  0  0  0
M  END
>  <MODEL>
3

>  <REMARK>
 VINA RESULT:     -10.1      2.551      4.630
  Name = 
  1 active torsions:
  status: ('A' for Active; 'I' for Inactive)
    1  A    between atoms: C_23  and  C_30
                            x       y       z     vdW  Elec       q    Type
                         _______ _______ _______ _____ _____    ______ ____

>  <TORSDO>
F 1

$$$$
=
 OpenBabel11122411313D

 37 45  0  0  1  0  0  0  0  0999 V2000
  190.4840  177.6380  146.0780 C   0  0  1  0  0  3  0  0  0  0  0  0
  186.1670  178.8420  147.2800 C   0  0  0  0  0  0  0  0  0  0  0  0
  186.6590  178.2000  143.1580 C   0  0  2  0  0  3  0  0  0  0  0  0
  191.6760  176.7530  146.4810 C   0  0  2  0  0  3  0  0  0  0  0  0
  190.2000  177.2390  141.5560 C   0  0  0  0  0  2  0  0  0  0  0  0
  185.1740  178.8070  144.9350 C   0  0  1  0  0  3  0  0  0  0  0  0
  188.0120  177.5470  143.0110 C   0  0  1  0  0  3  0  0  0  0  0  0
  192.0130  175.3410  144.3930 C   0  0  0  0  0  0  0  0  0  0  0  0
  186.2330  177.8010  144.5380 C   0  0  2  0  0  3  0  0  0  0  0  0
  188.7960  177.9190  141.6950 C   0  0  2  0  0  3  0  0  0  0  0  0
  183.9830  178.6350  144.0230 C   0  0  0  0  0  3  0  0  0  0  0  0
  191.8330  175.5160  145.7800 O   0  0  0  0  0  0  0  0  0  0  0  0
  187.5000  177.8040  145.3860 C   0  0  2  0  0  3  0  0  0  0  0  0
  186.2590  177.6720  148.2340 C   0  0  0  0  0  1  0  0  0  0  0  0
  185.7740  178.7440  140.9390 C   0  0  0  0  0  3  0  0  0  0  0  0
  184.1660  178.2530  142.7350 C   0  0  0  0  0  3  0  0  0  0  0  0
  187.4640  178.9090  146.4490 C   0  0  0  0  0  2  0  0  0  0  0  0
  191.8850  176.4580  143.3790 C   0  0  1  0  0  3  0  0  0  0  0  0
  190.5570  176.4290  142.7660 C   0  0  1  0  0  3  0  0  0  0  0  0
  185.5400  177.9020  142.1510 C   0  0  2  0  0  3  0  0  0  0  0  0
  188.6400  177.9720  144.3770 C   0  0  1  0  0  3  0  0  0  0  0  0
  184.8830  178.6920  146.4230 C   0  0  0  0  0  2  0  0  0  0  0  0
  187.9380  177.6060  140.4320 C   0  0  1  0  0  3  0  0  0  0  0  0
  186.0560  180.1060  148.0940 C   0  0  0  0  0  1  0  0  0  0  0  0
  190.8710  177.4640  143.7470 N   0  0  1  0  0  0  0  0  0  0  0  0
  192.2930  174.1880  143.9680 O   0  0  0  0  0  0  0  0  0  0  0  0
  189.8900  177.1700  144.7660 C   0  0  1  0  0  3  0  0  0  0  0  0
  186.8600  178.6190  140.1760 C   0  0  0  0  0  3  0  0  0  0  0  0
  190.4220  177.3120  148.4120 F   0  0  0  0  0  0  0  0  0  0  0  0
  190.3450  176.6400  147.2050 C   0  0  1  0  0  3  0  0  0  0  0  0
  188.7020  178.4160  138.1910 C   0  0  0  0  0  3  0  0  0  0  0  0
  188.7180  177.4060  139.1620 C   0  0  0  0  0  0  0  0  0  0  0  0
  189.4700  176.2400  138.9390 C   0  0  0  0  0  3  0  0  0  0  0  0
  190.9300  174.8940  137.5110 N   0  0  0  0  0  1  0  0  0  0  0  0
  190.1770  177.1020  136.7860 C   0  0  0  0  0  3  0  0  0  0  0  0
  190.1910  176.0870  137.7490 C   0  0  0  0  0  0  0  0  0  0  0  0
  189.4310  178.2620  137.0050 C   0  0  0  0  0  3  0  0  0  0  0  0
  1  4  1  0  0  0  0
  1 30  1  0  0  0  0
  2 24  1  0  0  0  0
  2 14  1  0  0  0  0
  3  9  1  0  0  0  0
  4 30  1  0  0  0  0
  5 10  1  0  0  0  0
  5 19  1  0  0  0  0
  6 22  1  0  0  0  0
  7  3  1  0  0  0  0
  7 21  1  0  0  0  0
  8 12  1  0  0  0  0
  9  6  1  0  0  0  0
  9 13  1  0  0  0  0
 10  7  1  0  0  0  0
 11  6  1  0  0  0  0
 12  4  1  0  0  0  0
 13 17  1  0  0  0  0
 15 20  1  0  0  0  0
 16 11  2  0  0  0  0
 17  2  1  0  0  0  0
 18 25  1  0  0  0  0
 18  8  1  0  0  0  0
 19 18  1  0  0  0  0
 19 25  1  0  0  0  0
 20 16  1  0  0  0  0
 20  3  1  0  0  0  0
 21 27  1  0  0  0  0
 21 13  1  0  0  0  0
 22  2  1  0  0  0  0
 23 10  1  0  0  0  0
 25 27  1  0  0  0  0
 26  8  2  0  0  0  0
 27  1  1  0  0  0  0
 28 23  1  0  0  0  0
 28 15  2  0  0  0  0
 30 29  1  0  0  0  0
 31 32  1  0  0  0  0
 32 23  1  0  0  0  0
 33 32  2  0  0  0  0
 34 36  1  0  0  0  0
 35 37  1  0  0  0  0
 35 36  2  0  0  0  0
 36 33  1  0  0  0  0
 37 31  2  0  0  0  0
M  END
>  <MODEL>
4

>  <REMARK>
 VINA RESULT:     -10.1      3.886      7.090
  Name = 
  1 active torsions:
  status: ('A' for Active; 'I' for Inactive)
    1  A    between atoms: C_23  and  C_30
                            x       y       z     vdW  Elec       q    Type
                         _______ _______ _______ _____ _____    ______ ____

>  <TORSDO>
F 1

$$$$
