=
 OpenBabel11122410333D

 30 35  0  0  1  0  0  0  0  0999 V2000
  189.5210  177.6800  143.4280 C   0  0  0  0  0  0  0  0  0  0  0  0
  191.3330  176.7120  144.8530 C   0  0  0  0  0  0  0  0  0  0  0  0
  187.0360  178.1170  146.7330 O   0  0  0  0  0  0  0  0  0  0  0  0
  188.1830  178.1530  143.3160 C   0  0  0  0  0  0  0  0  0  0  0  0
  190.4380  177.8150  142.2370 C   0  0  0  0  0  2  0  0  0  0  0  0
  188.1600  178.9830  139.7670 O   0  0  0  0  0  0  0  0  0  0  0  0
  185.2380  177.9660  142.3800 C   0  0  1  0  0  3  0  0  0  0  0  0
  188.4960  178.4490  140.8580 C   0  0  0  0  0  0  0  0  0  0  0  0
  184.9330  178.1690  143.8610 C   0  0  2  0  0  3  0  0  0  0  0  0
  185.8510  178.7290  146.2410 C   0  0  2  0  0  3  0  0  0  0  0  0
  189.7250  177.6040  140.9080 C   0  0  2  0  0  3  0  0  0  0  0  0
  187.6680  178.5770  142.0270 N   0  0  0  0  0  0  0  0  0  0  0  0
  191.7810  176.3170  146.1170 C   0  0  0  0  0  3  0  0  0  0  0  0
  183.6590  178.9860  143.8940 C   0  0  0  0  0  2  0  0  0  0  0  0
  183.9150  178.1280  141.6420 C   0  0  0  0  0  2  0  0  0  0  0  0
  192.1830  176.5540  143.8080 F   0  0  0  0  0  0  0  0  0  0  0  0
  187.9140  177.8590  145.7020 C   0  0  0  0  0  0  0  0  0  0  0  0
  190.9550  176.4330  147.2320 C   0  0  0  0  0  3  0  0  0  0  0  0
  190.0250  177.2360  144.6880 C   0  0  0  0  0  0  0  0  0  0  0  0
  187.4020  178.2240  144.4890 C   0  0  0  0  0  0  0  0  0  0  0  0
  184.6450  177.9160  146.6960 C   0  0  0  0  0  1  0  0  0  0  0  0
  186.0460  178.8370  144.6950 C   0  0  1  0  0  3  0  0  0  0  0  0
  182.8820  178.5470  142.6720 C   0  0  0  0  0  2  0  0  0  0  0  0
  185.9610  179.9870  141.2850 O   0  0  0  0  0  0  0  0  0  0  0  0
  189.6650  176.9410  147.0940 C   0  0  0  0  0  3  0  0  0  0  0  0
  189.1950  177.3340  145.8380 C   0  0  0  0  0  0  0  0  0  0  0  0
  186.2850  178.9080  141.8530 C   0  0  0  0  0  0  0  0  0  0  0  0
  189.3780  176.2580  140.7610 O   0  0  0  0  0  0  0  0  0  0  0  0
  190.8700  176.3720  138.9150 C   0  0  0  0  0  1  0  0  0  0  0  0
  189.4780  176.0110  139.3920 C   0  0  0  0  0  2  0  0  0  0  0  0
  1 19  1  0  0  0  0
  2 13  1  0  0  0  0
  4  1  2  0  0  0  0
  4 20  1  0  0  0  0
  5  1  1  0  0  0  0
  6  8  2  0  0  0  0
  7 15  1  6  0  0  0
  7  9  1  0  0  0  0
  8 11  1  0  0  0  0
  8 12  1  0  0  0  0
  9 14  1  6  0  0  0
  9 22  1  0  0  0  0
 10 21  1  6  0  0  0
 10  3  1  0  0  0  0
 11 28  1  1  0  0  0
 11  5  1  0  0  0  0
 12  4  1  0  0  0  0
 13 18  2  0  0  0  0
 15 23  1  0  0  0  0
 16  2  1  0  0  0  0
 17 26  1  0  0  0  0
 17  3  1  0  0  0  0
 19  2  2  0  0  0  0
 19 26  1  0  0  0  0
 20 17  2  0  0  0  0
 22 20  1  1  0  0  0
 22 10  1  0  0  0  0
 23 14  1  0  0  0  0
 24 27  2  0  0  0  0
 25 18  1  0  0  0  0
 26 25  2  0  0  0  0
 27 12  1  0  0  0  0
 27  7  1  0  0  0  0
 29 30  1  0  0  0  0
 30 28  1  0  0  0  0
M  END
>  <MODEL>
1

>  <REMARK>
 VINA RESULT:      -9.7      0.000      0.000
  Name = 
  2 active torsions:
  status: ('A' for Active; 'I' for Inactive)
    1  A    between atoms: C_11  and  O_28
    2  A    between atoms: O_28  and  C_30
                            x       y       z     vdW  Elec       q    Type
                         _______ _______ _______ _____ _____    ______ ____

>  <TORSDO>
F 2

$$$$
=
 OpenBabel11122410333D

 30 35  0  0  1  0  0  0  0  0999 V2000
  187.5020  178.2660  143.8160 C   0  0  0  0  0  0  0  0  0  0  0  0
  188.4610  177.8570  146.0880 C   0  0  0  0  0  0  0  0  0  0  0  0
  183.7550  179.0420  145.4420 O   0  0  0  0  0  0  0  0  0  0  0  0
  186.3610  178.5260  143.0050 C   0  0  0  0  0  0  0  0  0  0  0  0
  188.8650  178.2730  143.1680 C   0  0  0  0  0  2  0  0  0  0  0  0
  187.9760  178.6000  139.7390 O   0  0  0  0  0  0  0  0  0  0  0  0
  184.1960  177.7670  140.9270 C   0  0  1  0  0  3  0  0  0  0  0  0
  187.7770  178.3500  140.9580 C   0  0  0  0  0  0  0  0  0  0  0  0
  183.2310  178.2280  142.0160 C   0  0  2  0  0  3  0  0  0  0  0  0
  182.9220  179.3800  144.3390 C   0  0  2  0  0  3  0  0  0  0  0  0
  188.8580  177.7010  141.7570 C   0  0  2  0  0  3  0  0  0  0  0  0
  186.4970  178.6050  141.5630 N   0  0  0  0  0  0  0  0  0  0  0  0
  188.2770  177.7930  147.4720 C   0  0  0  0  0  3  0  0  0  0  0  0
  182.0720  178.8600  141.2750 C   0  0  0  0  0  2  0  0  0  0  0  0
  183.3660  177.5990  139.6600 C   0  0  0  0  0  2  0  0  0  0  0  0
  189.7040  177.6020  145.6070 F   0  0  0  0  0  0  0  0  0  0  0  0
  185.0170  178.6960  145.0100 C   0  0  0  0  0  0  0  0  0  0  0  0
  187.0230  178.0250  148.0340 C   0  0  0  0  0  3  0  0  0  0  0  0
  187.3700  178.1600  145.2340 C   0  0  0  0  0  0  0  0  0  0  0  0
  185.1220  178.7330  143.6480 C   0  0  0  0  0  0  0  0  0  0  0  0
  181.6610  178.5270  144.3880 C   0  0  0  0  0  1  0  0  0  0  0  0
  183.8130  179.1920  143.0700 C   0  0  1  0  0  3  0  0  0  0  0  0
  181.9630  178.0820  139.9830 C   0  0  0  0  0  2  0  0  0  0  0  0
  185.3030  179.5960  139.8180 O   0  0  0  0  0  0  0  0  0  0  0  0
  185.9360  178.3210  147.2150 C   0  0  0  0  0  3  0  0  0  0  0  0
  186.0980  178.3820  145.8280 C   0  0  0  0  0  0  0  0  0  0  0  0
  185.3470  178.7090  140.7140 C   0  0  0  0  0  0  0  0  0  0  0  0
  188.6480  176.3210  141.8010 O   0  0  0  0  0  0  0  0  0  0  0  0
  190.8920  176.0020  142.5130 C   0  0  0  0  0  1  0  0  0  0  0  0
  189.4260  175.8750  142.8700 C   0  0  0  0  0  2  0  0  0  0  0  0
  1 19  1  0  0  0  0
  2 13  1  0  0  0  0
  4 20  1  0  0  0  0
  4  1  2  0  0  0  0
  5  1  1  0  0  0  0
  6  8  2  0  0  0  0
  7 15  1  6  0  0  0
  7  9  1  0  0  0  0
  8 12  1  0  0  0  0
  8 11  1  0  0  0  0
  9 14  1  6  0  0  0
  9 22  1  0  0  0  0
 10 21  1  6  0  0  0
 10  3  1  0  0  0  0
 11 28  1  1  0  0  0
 11  5  1  0  0  0  0
 12  4  1  0  0  0  0
 13 18  2  0  0  0  0
 15 23  1  0  0  0  0
 16  2  1  0  0  0  0
 17  3  1  0  0  0  0
 17 26  1  0  0  0  0
 19 26  1  0  0  0  0
 19  2  2  0  0  0  0
 20 17  2  0  0  0  0
 22 20  1  1  0  0  0
 22 10  1  0  0  0  0
 23 14  1  0  0  0  0
 24 27  2  0  0  0  0
 25 18  1  0  0  0  0
 26 25  2  0  0  0  0
 27  7  1  0  0  0  0
 27 12  1  0  0  0  0
 28 30  1  0  0  0  0
 29 30  1  0  0  0  0
M  END
>  <MODEL>
2

>  <REMARK>
 VINA RESULT:      -9.5      1.874      2.794
  Name = 
  2 active torsions:
  status: ('A' for Active; 'I' for Inactive)
    1  A    between atoms: C_11  and  O_28
    2  A    between atoms: O_28  and  C_30
                            x       y       z     vdW  Elec       q    Type
                         _______ _______ _______ _____ _____    ______ ____

>  <TORSDO>
F 2

$$$$
=
 OpenBabel11122410333D

 30 35  0  0  1  0  0  0  0  0999 V2000
  188.4760  177.8200  141.0700 C   0  0  0  0  0  0  0  0  0  0  0  0
  190.5220  176.9400  142.2050 C   0  0  0  0  0  0  0  0  0  0  0  0
  186.5690  178.3530  144.7260 O   0  0  0  0  0  0  0  0  0  0  0  0
  187.1270  178.2660  141.1660 C   0  0  0  0  0  0  0  0  0  0  0  0
  189.1770  177.9200  139.7370 C   0  0  0  0  0  2  0  0  0  0  0  0
  186.4920  178.9480  137.6420 O   0  0  0  0  0  0  0  0  0  0  0  0
  184.0720  177.9930  140.7450 C   0  0  1  0  0  3  0  0  0  0  0  0
  187.0180  178.4660  138.6800 C   0  0  0  0  0  0  0  0  0  0  0  0
  184.0150  178.2530  142.2490 C   0  0  2  0  0  3  0  0  0  0  0  0
  185.3050  178.9260  144.4170 C   0  0  2  0  0  3  0  0  0  0  0  0
  188.2570  177.6420  138.5560 C   0  0  2  0  0  3  0  0  0  0  0  0
  186.3950  178.6280  139.9670 N   0  0  0  0  0  0  0  0  0  0  0  0
  191.1840  176.6050  143.3900 C   0  0  0  0  0  3  0  0  0  0  0  0
  182.7460  179.0500  142.4630 C   0  0  0  0  0  2  0  0  0  0  0  0
  182.6410  178.1040  140.2350 C   0  0  0  0  0  2  0  0  0  0  0  0
  191.1890  176.7530  141.0390 F   0  0  0  0  0  0  0  0  0  0  0  0
  187.2680  178.0660  143.5730 C   0  0  0  0  0  0  0  0  0  0  0  0
  190.5530  176.7540  144.6230 C   0  0  0  0  0  3  0  0  0  0  0  0
  189.1930  177.4360  142.2430 C   0  0  0  0  0  0  0  0  0  0  0  0
  186.5520  178.3730  142.4490 C   0  0  0  0  0  0  0  0  0  0  0  0
  184.2110  178.1120  145.0990 C   0  0  0  0  0  1  0  0  0  0  0  0
  185.2360  178.9720  142.8570 C   0  0  1  0  0  3  0  0  0  0  0  0
  181.7860  178.5490  141.4070 C   0  0  0  0  0  2  0  0  0  0  0  0
  184.5560  179.9780  139.4690 O   0  0  0  0  0  0  0  0  0  0  0  0
  189.2470  177.2350  144.6840 C   0  0  0  0  0  3  0  0  0  0  0  0
  188.5650  177.5680  143.5110 C   0  0  0  0  0  0  0  0  0  0  0  0
  184.9940  178.9290  140.0150 C   0  0  0  0  0  0  0  0  0  0  0  0
  187.9210  176.2860  138.5200 O   0  0  0  0  0  0  0  0  0  0  0  0
  189.5430  175.1520  137.2070 C   0  0  0  0  0  1  0  0  0  0  0  0
  188.2140  175.8790  137.2190 C   0  0  0  0  0  2  0  0  0  0  0  0
  1  4  2  0  0  0  0
  1 19  1  0  0  0  0
  2 19  2  0  0  0  0
  2 13  1  0  0  0  0
  4 20  1  0  0  0  0
  5  1  1  0  0  0  0
  6  8  2  0  0  0  0
  7 15  1  6  0  0  0
  7  9  1  0  0  0  0
  8 12  1  0  0  0  0
  9 14  1  6  0  0  0
  9 22  1  0  0  0  0
 10  3  1  0  0  0  0
 10 21  1  6  0  0  0
 11 28  1  1  0  0  0
 11  8  1  0  0  0  0
 11  5  1  0  0  0  0
 12 27  1  0  0  0  0
 12  4  1  0  0  0  0
 13 18  2  0  0  0  0
 15 23  1  0  0  0  0
 16  2  1  0  0  0  0
 17  3  1  0  0  0  0
 18 25  1  0  0  0  0
 19 26  1  0  0  0  0
 20 17  2  0  0  0  0
 22 20  1  6  0  0  0
 22 10  1  0  0  0  0
 23 14  1  0  0  0  0
 24 27  2  0  0  0  0
 26 17  1  0  0  0  0
 26 25  2  0  0  0  0
 27  7  1  0  0  0  0
 29 30  1  0  0  0  0
 30 28  1  0  0  0  0
M  END
>  <MODEL>
3

>  <REMARK>
 VINA RESULT:      -9.0      1.733      2.377
  Name = 
  2 active torsions:
  status: ('A' for Active; 'I' for Inactive)
    1  A    between atoms: C_11  and  O_28
    2  A    between atoms: O_28  and  C_30
                            x       y       z     vdW  Elec       q    Type
                         _______ _______ _______ _____ _____    ______ ____

>  <TORSDO>
F 2

$$$$
=
 OpenBabel11122410333D

 30 35  0  0  1  0  0  0  0  0999 V2000
  186.2700  178.4990  140.4400 C   0  0  0  0  0  0  0  0  0  0  0  0
  186.8830  178.1150  138.0470 C   0  0  0  0  0  0  0  0  0  0  0  0
  190.1900  177.8190  141.6450 O   0  0  0  0  0  0  0  0  0  0  0  0
  186.6530  178.4890  141.8110 C   0  0  0  0  0  0  0  0  0  0  0  0
  184.9030  179.0240  140.0760 C   0  0  0  0  0  2  0  0  0  0  0  0
  183.4870  179.5090  143.3030 O   0  0  0  0  0  0  0  0  0  0  0  0
  186.6280  177.3660  144.6960 C   0  0  1  0  0  3  0  0  0  0  0  0
  184.3110  179.0480  142.4680 C   0  0  0  0  0  0  0  0  0  0  0  0
  188.1440  177.3470  144.5190 C   0  0  2  0  0  3  0  0  0  0  0  0
  190.1980  178.0190  143.0530 C   0  0  2  0  0  3  0  0  0  0  0  0
  183.8350  178.6750  141.1030 C   0  0  2  0  0  3  0  0  0  0  0  0
  185.6780  178.7990  142.8400 N   0  0  0  0  0  0  0  0  0  0  0  0
  187.8590  177.8100  137.0950 C   0  0  0  0  0  3  0  0  0  0  0  0
  188.7060  177.6710  145.8870 C   0  0  0  0  0  2  0  0  0  0  0  0
  186.3650  177.1150  146.1760 C   0  0  0  0  0  2  0  0  0  0  0  0
  185.6200  178.3340  137.6030 F   0  0  0  0  0  0  0  0  0  0  0  0
  188.9140  177.9520  141.1400 C   0  0  0  0  0  0  0  0  0  0  0  0
  189.1740  177.5550  137.4810 C   0  0  0  0  0  3  0  0  0  0  0  0
  187.2170  178.1670  139.4240 C   0  0  0  0  0  0  0  0  0  0  0  0
  187.9980  178.2030  142.1240 C   0  0  0  0  0  0  0  0  0  0  0  0
  190.8390  176.8110  143.7240 C   0  0  0  0  0  1  0  0  0  0  0  0
  188.7110  178.2960  143.4440 C   0  0  1  0  0  3  0  0  0  0  0  0
  187.7160  177.0790  146.8660 C   0  0  0  0  0  2  0  0  0  0  0  0
  185.7520  179.5840  145.0380 O   0  0  0  0  0  0  0  0  0  0  0  0
  189.5250  177.5970  138.8290 C   0  0  0  0  0  3  0  0  0  0  0  0
  188.5610  177.8920  139.7970 C   0  0  0  0  0  0  0  0  0  0  0  0
  185.9910  178.6460  144.2300 C   0  0  0  0  0  0  0  0  0  0  0  0
  183.5580  177.3060  141.0570 O   0  0  0  0  0  0  0  0  0  0  0  0
  182.8430  175.9980  139.2070 C   0  0  0  0  0  1  0  0  0  0  0  0
  182.5430  177.1780  140.1080 C   0  0  0  0  0  2  0  0  0  0  0  0
  1  4  1  0  0  0  0
  2 19  1  0  0  0  0
  3 10  1  0  0  0  0
  4 20  2  0  0  0  0
  4 12  1  0  0  0  0
  5  1  1  0  0  0  0
  5 11  1  0  0  0  0
  7 15  1  1  0  0  0
  8 12  1  0  0  0  0
  8  6  2  0  0  0  0
  9  7  1  0  0  0  0
  9 14  1  1  0  0  0
 10 22  1  0  0  0  0
 10 21  1  1  0  0  0
 11 28  1  1  0  0  0
 11  8  1  0  0  0  0
 12 27  1  0  0  0  0
 13 18  1  0  0  0  0
 13  2  2  0  0  0  0
 14 23  1  0  0  0  0
 15 23  1  0  0  0  0
 16  2  1  0  0  0  0
 17  3  1  0  0  0  0
 17 20  1  0  0  0  0
 18 25  2  0  0  0  0
 19 26  1  0  0  0  0
 19  1  2  0  0  0  0
 22 20  1  6  0  0  0
 22  9  1  0  0  0  0
 25 26  1  0  0  0  0
 26 17  2  0  0  0  0
 27  7  1  0  0  0  0
 27 24  2  0  0  0  0
 29 30  1  0  0  0  0
 30 28  1  0  0  0  0
M  END
>  <MODEL>
4

>  <REMARK>
 VINA RESULT:      -8.9      2.568      6.035
  Name = 
  2 active torsions:
  status: ('A' for Active; 'I' for Inactive)
    1  A    between atoms: C_11  and  O_28
    2  A    between atoms: O_28  and  C_30
                            x       y       z     vdW  Elec       q    Type
                         _______ _______ _______ _____ _____    ______ ____

>  <TORSDO>
F 2

$$$$
=
 OpenBabel11122410333D

 30 35  0  0  1  0  0  0  0  0999 V2000
  188.0960  177.8090  138.6480 C   0  0  0  0  0  0  0  0  0  0  0  0
  189.5770  176.8600  136.8720 C   0  0  0  0  0  0  0  0  0  0  0  0
  191.0070  177.1640  141.5450 O   0  0  0  0  0  0  0  0  0  0  0  0
  187.8690  178.0820  140.0270 C   0  0  0  0  0  0  0  0  0  0  0  0
  187.1030  178.3270  137.6360 C   0  0  0  0  0  2  0  0  0  0  0  0
  184.5710  179.6140  139.7790 O   0  0  0  0  0  0  0  0  0  0  0  0
  186.4780  177.6390  142.7560 C   0  0  1  0  0  3  0  0  0  0  0  0
  185.5840  178.9250  139.4830 C   0  0  0  0  0  0  0  0  0  0  0  0
  187.9080  177.4820  143.2670 C   0  0  2  0  0  3  0  0  0  0  0  0
  190.4620  177.6740  142.7550 C   0  0  2  0  0  3  0  0  0  0  0  0
  185.6650  178.2870  138.1360 C   0  0  2  0  0  3  0  0  0  0  0  0
  186.6170  178.6780  140.4530 N   0  0  0  0  0  0  0  0  0  0  0  0
  190.8000  176.2870  136.5130 C   0  0  0  0  0  3  0  0  0  0  0  0
  187.8950  178.0680  144.6630 C   0  0  0  0  0  2  0  0  0  0  0  0
  185.5890  177.7430  143.9900 C   0  0  0  0  0  2  0  0  0  0  0  0
  188.6630  177.0550  135.8890 F   0  0  0  0  0  0  0  0  0  0  0  0
  190.0920  177.2630  140.5180 C   0  0  0  0  0  0  0  0  0  0  0  0
  191.7800  176.0400  137.4730 C   0  0  0  0  0  3  0  0  0  0  0  0
  189.3140  177.1970  138.2240 C   0  0  0  0  0  0  0  0  0  0  0  0
  188.9030  177.7870  140.9410 C   0  0  0  0  0  0  0  0  0  0  0  0
  190.5700  176.6080  143.8380 C   0  0  0  0  0  1  0  0  0  0  0  0
  189.0090  178.1270  142.4010 C   0  0  1  0  0  3  0  0  0  0  0  0
  186.5100  177.7760  145.1960 C   0  0  0  0  0  2  0  0  0  0  0  0
  185.8950  179.9290  142.2880 O   0  0  0  0  0  0  0  0  0  0  0  0
  191.5420  176.3600  138.8080 C   0  0  0  0  0  3  0  0  0  0  0  0
  190.3230  176.9260  139.1890 C   0  0  0  0  0  0  0  0  0  0  0  0
  186.2980  178.8200  141.8430 C   0  0  0  0  0  0  0  0  0  0  0  0
  185.2230  176.9640  138.2130 O   0  0  0  0  0  0  0  0  0  0  0  0
  185.7630  175.1090  136.8300 C   0  0  0  0  0  1  0  0  0  0  0  0
  185.2040  176.5160  136.8920 C   0  0  0  0  0  2  0  0  0  0  0  0
  1  4  1  0  0  0  0
  2 19  1  0  0  0  0
  3 10  1  0  0  0  0
  4 12  1  0  0  0  0
  4 20  2  0  0  0  0
  5 11  1  0  0  0  0
  5  1  1  0  0  0  0
  7  9  1  0  0  0  0
  7 15  1  1  0  0  0
  8  6  2  0  0  0  0
  8 12  1  0  0  0  0
  9 14  1  1  0  0  0
 10 21  1  1  0  0  0
 11 28  1  1  0  0  0
 11  8  1  0  0  0  0
 12 27  1  0  0  0  0
 13  2  2  0  0  0  0
 13 18  1  0  0  0  0
 14 23  1  0  0  0  0
 15 23  1  0  0  0  0
 16  2  1  0  0  0  0
 17 20  1  0  0  0  0
 17  3  1  0  0  0  0
 18 25  2  0  0  0  0
 19  1  2  0  0  0  0
 19 26  1  0  0  0  0
 22 20  1  6  0  0  0
 22 10  1  0  0  0  0
 22  9  1  0  0  0  0
 25 26  1  0  0  0  0
 26 17  2  0  0  0  0
 27 24  2  0  0  0  0
 27  7  1  0  0  0  0
 29 30  1  0  0  0  0
 30 28  1  0  0  0  0
M  END
>  <MODEL>
5

>  <REMARK>
 VINA RESULT:      -8.8      2.689      5.593
  Name = 
  2 active torsions:
  status: ('A' for Active; 'I' for Inactive)
    1  A    between atoms: C_11  and  O_28
    2  A    between atoms: O_28  and  C_30
                            x       y       z     vdW  Elec       q    Type
                         _______ _______ _______ _____ _____    ______ ____

>  <TORSDO>
F 2

$$$$
=
 OpenBabel11122410333D

 30 35  0  0  1  0  0  0  0  0999 V2000
  187.3590  178.1700  142.8990 C   0  0  0  0  0  0  0  0  0  0  0  0
  186.0480  178.2360  145.0270 C   0  0  0  0  0  0  0  0  0  0  0  0
  183.9760  179.1380  140.6840 O   0  0  0  0  0  0  0  0  0  0  0  0
  187.3740  178.2360  141.4770 C   0  0  0  0  0  0  0  0  0  0  0  0
  188.6740  178.0900  143.6330 C   0  0  0  0  0  2  0  0  0  0  0  0
  190.9390  177.7220  140.9140 O   0  0  0  0  0  0  0  0  0  0  0  0
  187.6600  177.0260  138.6420 C   0  0  1  0  0  3  0  0  0  0  0  0
  189.8130  177.7080  141.4810 C   0  0  0  0  0  0  0  0  0  0  0  0
  186.2900  177.6620  138.4180 C   0  0  2  0  0  3  0  0  0  0  0  0
  184.4160  179.2320  139.3350 C   0  0  2  0  0  3  0  0  0  0  0  0
  189.7170  177.2570  142.9010 C   0  0  2  0  0  3  0  0  0  0  0  0
  188.6170  178.0380  140.7540 N   0  0  0  0  0  0  0  0  0  0  0  0
  184.8270  178.4350  145.6760 C   0  0  0  0  0  3  0  0  0  0  0  0
  186.2920  178.1050  136.9710 C   0  0  0  0  0  2  0  0  0  0  0  0
  188.1620  176.5930  137.2700 C   0  0  0  0  0  2  0  0  0  0  0  0
  187.1240  177.9280  145.7950 F   0  0  0  0  0  0  0  0  0  0  0  0
  185.0110  178.7510  141.5090 C   0  0  0  0  0  0  0  0  0  0  0  0
  183.6760  178.7360  144.9490 C   0  0  0  0  0  3  0  0  0  0  0  0
  186.1340  178.3360  143.6150 C   0  0  0  0  0  0  0  0  0  0  0  0
  186.1650  178.5270  140.8110 C   0  0  0  0  0  0  0  0  0  0  0  0
  183.5190  178.3680  138.4580 C   0  0  0  0  0  1  0  0  0  0  0  0
  185.9250  178.8280  139.3590 C   0  0  1  0  0  3  0  0  0  0  0  0
  187.1510  177.0890  136.2520 C   0  0  0  0  0  2  0  0  0  0  0  0
  189.4500  178.6380  138.6570 O   0  0  0  0  0  0  0  0  0  0  0  0
  183.7360  178.8360  143.5610 C   0  0  0  0  0  3  0  0  0  0  0  0
  184.9470  178.6330  142.8920 C   0  0  0  0  0  0  0  0  0  0  0  0
  188.6370  177.9430  139.3250 C   0  0  0  0  0  0  0  0  0  0  0  0
  189.3650  175.9050  142.9440 O   0  0  0  0  0  0  0  0  0  0  0  0
  191.4420  176.0220  144.0930 C   0  0  0  0  0  1  0  0  0  0  0  0
  190.5680  175.2280  143.1440 C   0  0  0  0  0  2  0  0  0  0  0  0
  1 19  1  0  0  0  0
  1  5  1  0  0  0  0
  2 13  1  0  0  0  0
  2 16  1  0  0  0  0
  3 17  1  0  0  0  0
  4  1  2  0  0  0  0
  6  8  2  0  0  0  0
  7 15  1  6  0  0  0
  7 27  1  0  0  0  0
  8 11  1  0  0  0  0
  9 14  1  6  0  0  0
  9  7  1  0  0  0  0
  9 22  1  0  0  0  0
 10 21  1  6  0  0  0
 10 22  1  0  0  0  0
 10  3  1  0  0  0  0
 11 28  1  6  0  0  0
 11  5  1  0  0  0  0
 12  4  1  0  0  0  0
 12  8  1  0  0  0  0
 17 26  1  0  0  0  0
 18 13  2  0  0  0  0
 19  2  2  0  0  0  0
 20  4  1  0  0  0  0
 20 17  2  0  0  0  0
 22 20  1  1  0  0  0
 23 14  1  0  0  0  0
 23 15  1  0  0  0  0
 24 27  2  0  0  0  0
 25 18  1  0  0  0  0
 26 25  2  0  0  0  0
 26 19  1  0  0  0  0
 27 12  1  0  0  0  0
 28 30  1  0  0  0  0
 30 29  1  0  0  0  0
M  END
>  <MODEL>
6

>  <REMARK>
 VINA RESULT:      -8.8      2.279      5.284
  Name = 
  2 active torsions:
  status: ('A' for Active; 'I' for Inactive)
    1  A    between atoms: C_11  and  O_28
    2  A    between atoms: O_28  and  C_30
                            x       y       z     vdW  Elec       q    Type
                         _______ _______ _______ _____ _____    ______ ____

>  <TORSDO>
F 2

$$$$
=
 OpenBabel11122410333D

 30 35  0  0  1  0  0  0  0  0999 V2000
  189.5610  177.5600  140.9440 C   0  0  0  0  0  0  0  0  0  0  0  0
  190.6560  176.9410  143.1040 C   0  0  0  0  0  0  0  0  0  0  0  0
  186.0500  178.5890  142.9180 O   0  0  0  0  0  0  0  0  0  0  0  0
  188.3880  177.9670  140.2470 C   0  0  0  0  0  0  0  0  0  0  0  0
  190.8610  177.4750  140.1830 C   0  0  0  0  0  2  0  0  0  0  0  0
  189.7340  178.0680  136.8610 O   0  0  0  0  0  0  0  0  0  0  0  0
  185.9990  177.5240  138.3280 C   0  0  1  0  0  3  0  0  0  0  0  0
  189.6100  177.7720  138.0800 C   0  0  0  0  0  0  0  0  0  0  0  0
  185.1750  178.0130  139.5160 C   0  0  2  0  0  3  0  0  0  0  0  0
  185.1680  179.0620  141.9080 C   0  0  2  0  0  3  0  0  0  0  0  0
  190.6850  176.9840  138.7520 C   0  0  2  0  0  3  0  0  0  0  0  0
  188.4140  178.1110  138.8030 N   0  0  0  0  0  0  0  0  0  0  0  0
  190.5790  176.8190  144.4940 C   0  0  0  0  0  3  0  0  0  0  0  0
  184.0260  178.7890  138.9080 C   0  0  0  0  0  2  0  0  0  0  0  0
  185.0570  177.5030  137.1310 C   0  0  0  0  0  2  0  0  0  0  0  0
  191.8250  176.5980  142.5070 F   0  0  0  0  0  0  0  0  0  0  0  0
  187.2340  178.1510  142.3650 C   0  0  0  0  0  0  0  0  0  0  0  0
  189.4040  177.1360  145.1720 C   0  0  0  0  0  3  0  0  0  0  0  0
  189.5340  177.3890  142.3610 C   0  0  0  0  0  0  0  0  0  0  0  0
  187.2310  178.2530  141.0020 C   0  0  0  0  0  0  0  0  0  0  0  0
  183.8380  178.3270  142.0250 C   0  0  0  0  0  1  0  0  0  0  0  0
  185.9300  178.8620  140.5590 C   0  0  1  0  0  3  0  0  0  0  0  0
  183.7390  178.0950  137.5940 C   0  0  0  0  0  2  0  0  0  0  0  0
  187.1840  179.3010  137.2140 O   0  0  0  0  0  0  0  0  0  0  0  0
  188.2880  177.5750  144.4630 C   0  0  0  0  0  3  0  0  0  0  0  0
  188.3420  177.6960  143.0710 C   0  0  0  0  0  0  0  0  0  0  0  0
  187.2150  178.3670  138.0610 C   0  0  0  0  0  0  0  0  0  0  0  0
  190.3470  175.6280  138.7510 O   0  0  0  0  0  0  0  0  0  0  0  0
  192.4380  175.3510  137.6570 C   0  0  0  0  0  1  0  0  0  0  0  0
  190.9430  175.1120  137.6000 C   0  0  0  0  0  2  0  0  0  0  0  0
  1 19  1  0  0  0  0
  2 13  1  0  0  0  0
  4  1  2  0  0  0  0
  4 20  1  0  0  0  0
  5  1  1  0  0  0  0
  6  8  2  0  0  0  0
  7 15  1  6  0  0  0
  7  9  1  0  0  0  0
  8 11  1  0  0  0  0
  8 12  1  0  0  0  0
  9 14  1  6  0  0  0
  9 22  1  0  0  0  0
 10 21  1  6  0  0  0
 10  3  1  0  0  0  0
 11 28  1  1  0  0  0
 11  5  1  0  0  0  0
 12  4  1  0  0  0  0
 13 18  2  0  0  0  0
 15 23  1  0  0  0  0
 16  2  1  0  0  0  0
 17  3  1  0  0  0  0
 17 26  1  0  0  0  0
 19 26  1  0  0  0  0
 19  2  2  0  0  0  0
 20 17  2  0  0  0  0
 22 20  1  1  0  0  0
 22 10  1  0  0  0  0
 23 14  1  0  0  0  0
 24 27  2  0  0  0  0
 25 18  1  0  0  0  0
 26 25  2  0  0  0  0
 27  7  1  0  0  0  0
 27 12  1  0  0  0  0
 30 29  1  0  0  0  0
 30 28  1  0  0  0  0
M  END
>  <MODEL>
7

>  <REMARK>
 VINA RESULT:      -8.6      2.199      3.455
  Name = 
  2 active torsions:
  status: ('A' for Active; 'I' for Inactive)
    1  A    between atoms: C_11  and  O_28
    2  A    between atoms: O_28  and  C_30
                            x       y       z     vdW  Elec       q    Type
                         _______ _______ _______ _____ _____    ______ ____

>  <TORSDO>
F 2

$$$$
=
 OpenBabel11122410333D

 30 35  0  0  1  0  0  0  0  0999 V2000
  186.5150  178.4560  142.3010 C   0  0  0  0  0  0  0  0  0  0  0  0
  186.0810  178.4680  144.7630 C   0  0  0  0  0  0  0  0  0  0  0  0
  182.4650  178.9440  141.4970 O   0  0  0  0  0  0  0  0  0  0  0  0
  185.9990  178.4610  140.9750 C   0  0  0  0  0  0  0  0  0  0  0  0
  188.0080  178.5560  142.4960 C   0  0  0  0  0  2  0  0  0  0  0  0
  189.1400  178.3250  139.1310 O   0  0  0  0  0  0  0  0  0  0  0  0
  185.3640  177.1690  138.2340 C   0  0  1  0  0  3  0  0  0  0  0  0
  188.3130  178.2090  140.0750 C   0  0  0  0  0  0  0  0  0  0  0  0
  183.9430  177.6380  138.5340 C   0  0  2  0  0  3  0  0  0  0  0  0
  182.3640  179.0280  140.0820 C   0  0  2  0  0  3  0  0  0  0  0  0
  188.8000  177.8130  141.4290 C   0  0  2  0  0  3  0  0  0  0  0  0
  186.9020  178.3720  139.8430 N   0  0  0  0  0  0  0  0  0  0  0  0
  185.1690  178.5580  145.8180 C   0  0  0  0  0  3  0  0  0  0  0  0
  183.3590  178.0150  137.1890 C   0  0  0  0  0  2  0  0  0  0  0  0
  185.3740  176.7350  136.7730 C   0  0  0  0  0  2  0  0  0  0  0  0
  187.3920  178.3150  145.0780 F   0  0  0  0  0  0  0  0  0  0  0  0
  183.7690  178.7100  141.8800 C   0  0  0  0  0  0  0  0  0  0  0  0
  183.8050  178.6970  145.5700 C   0  0  0  0  0  3  0  0  0  0  0  0
  185.6290  178.5160  143.4200 C   0  0  0  0  0  0  0  0  0  0  0  0
  184.6040  178.5870  140.8040 C   0  0  0  0  0  0  0  0  0  0  0  0
  181.3170  178.0320  139.5980 C   0  0  0  0  0  1  0  0  0  0  0  0
  183.8120  178.7960  139.5440 C   0  0  1  0  0  3  0  0  0  0  0  0
  184.0090  177.0710  136.2020 C   0  0  0  0  0  2  0  0  0  0  0  0
  186.8280  178.9700  137.5870 O   0  0  0  0  0  0  0  0  0  0  0  0
  183.3380  178.7420  144.2580 C   0  0  0  0  0  3  0  0  0  0  0  0
  184.2330  178.6460  143.1890 C   0  0  0  0  0  0  0  0  0  0  0  0
  186.4060  178.2180  138.5080 C   0  0  0  0  0  0  0  0  0  0  0  0
  188.6530  176.4330  141.5980 O   0  0  0  0  0  0  0  0  0  0  0  0
  190.5270  175.9460  142.9750 C   0  0  0  0  0  1  0  0  0  0  0  0
  189.0330  176.1920  142.9190 C   0  0  0  0  0  2  0  0  0  0  0  0
  1  5  1  0  0  0  0
  1 19  1  0  0  0  0
  2 16  1  0  0  0  0
  2 13  1  0  0  0  0
  3 17  1  0  0  0  0
  4  1  2  0  0  0  0
  6  8  2  0  0  0  0
  7 15  1  6  0  0  0
  7 27  1  0  0  0  0
  7  9  1  0  0  0  0
  8 11  1  0  0  0  0
  9 14  1  6  0  0  0
  9 22  1  0  0  0  0
 10 21  1  6  0  0  0
 10  3  1  0  0  0  0
 11 28  1  1  0  0  0
 11  5  1  0  0  0  0
 12  8  1  0  0  0  0
 12  4  1  0  0  0  0
 17 26  1  0  0  0  0
 18 13  2  0  0  0  0
 19  2  2  0  0  0  0
 20  4  1  0  0  0  0
 20 17  2  0  0  0  0
 22 10  1  0  0  0  0
 22 20  1  1  0  0  0
 23 15  1  0  0  0  0
 23 14  1  0  0  0  0
 24 27  2  0  0  0  0
 25 18  1  0  0  0  0
 26 19  1  0  0  0  0
 26 25  2  0  0  0  0
 27 12  1  0  0  0  0
 28 30  1  0  0  0  0
 30 29  1  0  0  0  0
M  END
>  <MODEL>
8

>  <REMARK>
 VINA RESULT:      -8.6      2.613      5.102
  Name = 
  2 active torsions:
  status: ('A' for Active; 'I' for Inactive)
    1  A    between atoms: C_11  and  O_28
    2  A    between atoms: O_28  and  C_30
                            x       y       z     vdW  Elec       q    Type
                         _______ _______ _______ _____ _____    ______ ____

>  <TORSDO>
F 2

$$$$
=
 OpenBabel11122410333D

 30 35  0  0  1  0  0  0  0  0999 V2000
  186.8290  177.9350  140.4270 C   0  0  0  0  0  0  0  0  0  0  0  0
  184.6090  178.8180  139.6930 C   0  0  0  0  0  0  0  0  0  0  0  0
  185.6010  177.9050  144.3990 O   0  0  0  0  0  0  0  0  0  0  0  0
  187.7050  177.5770  141.4910 C   0  0  0  0  0  0  0  0  0  0  0  0
  187.2620  177.6540  139.0090 C   0  0  0  0  0  2  0  0  0  0  0  0
  190.6050  176.5550  139.5330 O   0  0  0  0  0  0  0  0  0  0  0  0
  190.1840  177.9700  143.3030 C   0  0  1  0  0  3  0  0  0  0  0  0
  189.5190  177.1170  139.8400 C   0  0  0  0  0  0  0  0  0  0  0  0
  189.1600  177.8780  144.4320 C   0  0  2  0  0  3  0  0  0  0  0  0
  186.6960  177.3730  145.1340 C   0  0  2  0  0  3  0  0  0  0  0  0
  188.7550  177.8520  138.7900 C   0  0  2  0  0  3  0  0  0  0  0  0
  189.0540  177.1290  141.2020 N   0  0  0  0  0  0  0  0  0  0  0  0
  183.3190  179.2420  140.0240 C   0  0  0  0  0  3  0  0  0  0  0  0
  189.8830  177.1800  145.5640 C   0  0  0  0  0  2  0  0  0  0  0  0
  191.5570  177.8850  143.9590 C   0  0  0  0  0  2  0  0  0  0  0  0
  184.9600  178.8410  138.3820 F   0  0  0  0  0  0  0  0  0  0  0  0
  185.9230  178.0270  143.0640 C   0  0  0  0  0  0  0  0  0  0  0  0
  182.8970  179.2630  141.3520 C   0  0  0  0  0  3  0  0  0  0  0  0
  185.5100  178.4030  140.7070 C   0  0  0  0  0  0  0  0  0  0  0  0
  187.2100  177.6410  142.8110 C   0  0  0  0  0  0  0  0  0  0  0  0
  187.0260  178.3140  146.2860 C   0  0  0  0  0  1  0  0  0  0  0  0
  187.8380  177.1630  144.0890 C   0  0  1  0  0  3  0  0  0  0  0  0
  191.3260  177.6160  145.4350 C   0  0  0  0  0  2  0  0  0  0  0  0
  190.6630  175.8360  142.2950 O   0  0  0  0  0  0  0  0  0  0  0  0
  183.7650  178.8630  142.3650 C   0  0  0  0  0  3  0  0  0  0  0  0
  185.0620  178.4430  142.0550 C   0  0  0  0  0  0  0  0  0  0  0  0
  190.0050  176.9120  142.2510 C   0  0  0  0  0  0  0  0  0  0  0  0
  189.0690  179.2130  138.8440 O   0  0  0  0  0  0  0  0  0  0  0  0
  189.3230  178.4700  136.6010 C   0  0  0  0  0  1  0  0  0  0  0  0
  189.0330  179.6420  137.5160 C   0  0  0  0  0  2  0  0  0  0  0  0
  1 19  2  0  0  0  0
  1  4  1  0  0  0  0
  2 13  2  0  0  0  0
  2 19  1  0  0  0  0
  3 10  1  0  0  0  0
  4 20  2  0  0  0  0
  5  1  1  0  0  0  0
  6  8  2  0  0  0  0
  7 15  1  1  0  0  0
  7  9  1  0  0  0  0
  8 12  1  0  0  0  0
  9 14  1  1  0  0  0
 10 21  1  1  0  0  0
 11 28  1  1  0  0  0
 11  5  1  0  0  0  0
 11  8  1  0  0  0  0
 12  4  1  0  0  0  0
 12 27  1  0  0  0  0
 13 18  1  0  0  0  0
 15 23  1  0  0  0  0
 16  2  1  0  0  0  0
 17  3  1  0  0  0  0
 18 25  2  0  0  0  0
 19 26  1  0  0  0  0
 20 17  1  0  0  0  0
 22 20  1  6  0  0  0
 22  9  1  0  0  0  0
 22 10  1  0  0  0  0
 23 14  1  0  0  0  0
 26 25  1  0  0  0  0
 26 17  2  0  0  0  0
 27 24  2  0  0  0  0
 27  7  1  0  0  0  0
 29 30  1  0  0  0  0
 30 28  1  0  0  0  0
M  END
>  <MODEL>
9

>  <REMARK>
 VINA RESULT:      -8.5      2.434      5.643
  Name = 
  2 active torsions:
  status: ('A' for Active; 'I' for Inactive)
    1  A    between atoms: C_11  and  O_28
    2  A    between atoms: O_28  and  C_30
                            x       y       z     vdW  Elec       q    Type
                         _______ _______ _______ _____ _____    ______ ____

>  <TORSDO>
F 2

$$$$
