=
 OpenBabel11122410303D

 30 35  0  0  1  0  0  0  0  0999 V2000
  189.0830  177.2810  143.5650 C   0  0  0  0  0  0  0  0  0  0  0  0
  191.1220  176.5540  144.8390 C   0  0  0  0  0  0  0  0  0  0  0  0
  187.0030  177.9090  147.0630 N   0  0  0  0  0  2  0  0  0  0  0  0
  187.7630  177.8170  143.5850 C   0  0  0  0  0  0  0  0  0  0  0  0
  189.6540  176.8230  142.2420 C   0  0  0  0  0  2  0  0  0  0  0  0
  187.2680  178.5240  139.9320 O   0  0  0  0  0  1  0  0  0  0  0  0
  184.8180  178.0510  142.7970 C   0  0  1  0  0  3  0  0  0  0  0  0
  187.6740  177.7830  141.0480 C   0  0  1  0  0  3  0  0  0  0  0  0
  184.6290  178.0070  144.3060 C   0  0  2  0  0  3  0  0  0  0  0  0
  185.8140  178.1940  146.4880 C   0  0  0  0  0  0  0  0  0  0  0  0
  189.1940  177.6500  141.0430 C   0  0  2  0  0  3  0  0  0  0  0  0
  187.2730  178.5130  142.3280 C   0  0  1  0  0  3  0  0  0  0  0  0
  191.7500  176.3410  146.0700 C   0  0  0  0  0  3  0  0  0  0  0  0
  183.5220  178.9960  144.6090 C   0  0  0  0  0  2  0  0  0  0  0  0
  183.4520  178.4190  142.2390 C   0  0  0  0  0  2  0  0  0  0  0  0
  191.8570  176.2940  143.6880 O   0  0  0  0  0  1  0  0  0  0  0  0
  187.8070  177.7330  146.0010 C   0  0  0  0  0  0  0  0  0  0  0  0
  191.0850  176.5970  147.2660 C   0  0  0  0  0  3  0  0  0  0  0  0
  189.7850  177.0350  144.7900 C   0  0  0  0  0  0  0  0  0  0  0  0
  187.1250  177.9410  144.8330 C   0  0  0  0  0  0  0  0  0  0  0  0
  184.7650  178.3520  147.1690 O   0  0  0  0  0  0  0  0  0  0  0  0
  185.8330  178.2260  145.1280 N   0  0  0  0  0  0  0  0  0  0  0  0
  182.6160  178.9460  143.3960 C   0  0  0  0  0  2  0  0  0  0  0  0
  185.7770  180.4410  142.9480 C   0  0  0  0  0  1  0  0  0  0  0  0
  189.7770  177.0720  147.2450 C   0  0  0  0  0  3  0  0  0  0  0  0
  189.1280  177.2980  146.0260 C   0  0  0  0  0  0  0  0  0  0  0  0
  185.8530  179.0610  142.3060 C   0  0  2  0  0  3  0  0  0  0  0  0
  189.6690  176.9820  139.7580 C   0  0  0  0  0  2  0  0  0  0  0  0
  191.6410  176.2620  138.4110 C   0  0  0  0  0  1  0  0  0  0  0  0
  191.1860  177.0180  139.6440 C   0  0  0  0  0  2  0  0  0  0  0  0
  1  4  2  0  0  0  0
  1 19  1  0  0  0  0
  2 13  1  0  0  0  0
  4 20  1  0  0  0  0
  5  1  1  0  0  0  0
  7 15  1  6  0  0  0
  7  9  1  0  0  0  0
  8  6  1  6  0  0  0
  8 12  1  0  0  0  0
  9 14  1  1  0  0  0
  9 22  1  0  0  0  0
 10  3  1  0  0  0  0
 10 21  2  0  0  0  0
 11 28  1  6  0  0  0
 11  8  1  0  0  0  0
 11  5  1  0  0  0  0
 12  4  1  1  0  0  0
 13 18  2  0  0  0  0
 15 23  1  0  0  0  0
 16  2  1  0  0  0  0
 17 26  1  0  0  0  0
 17  3  1  0  0  0  0
 19  2  2  0  0  0  0
 19 26  1  0  0  0  0
 20 22  1  0  0  0  0
 20 17  2  0  0  0  0
 22 10  1  0  0  0  0
 23 14  1  0  0  0  0
 25 18  1  0  0  0  0
 26 25  2  0  0  0  0
 27 12  1  0  0  0  0
 27  7  1  0  0  0  0
 27 24  1  1  0  0  0
 29 30  1  0  0  0  0
 30 28  1  0  0  0  0
M  END
>  <MODEL>
1

>  <REMARK>
 VINA RESULT:     -10.3      0.000      0.000
  Name = 
  2 active torsions:
  status: ('A' for Active; 'I' for Inactive)
    1  A    between atoms: C_11  and  C_28
    2  A    between atoms: C_28  and  C_30
                            x       y       z     vdW  Elec       q    Type
                         _______ _______ _______ _____ _____    ______ ____

>  <TORSDO>
F 2

$$$$
=
 OpenBabel11122410303D

 30 35  0  0  1  0  0  0  0  0999 V2000
  185.9320  178.3720  141.8510 C   0  0  0  0  0  0  0  0  0  0  0  0
  183.4670  178.8580  141.8560 C   0  0  0  0  0  0  0  0  0  0  0  0
  185.9710  178.0240  145.9540 N   0  0  0  0  0  2  0  0  0  0  0  0
  187.1000  177.9990  142.5760 C   0  0  0  0  0  0  0  0  0  0  0  0
  186.0790  178.7480  140.3940 C   0  0  0  0  0  2  0  0  0  0  0  0
  189.4680  177.3300  139.7420 O   0  0  0  0  0  1  0  0  0  0  0  0
  190.0380  178.1140  143.4150 C   0  0  1  0  0  3  0  0  0  0  0  0
  188.4760  178.0250  140.4430 C   0  0  1  0  0  3  0  0  0  0  0  0
  189.4190  178.1920  144.8040 C   0  0  2  0  0  3  0  0  0  0  0  0
  187.3080  177.8800  146.0860 C   0  0  0  0  0  0  0  0  0  0  0  0
  187.1700  177.9750  139.6560 C   0  0  2  0  0  3  0  0  0  0  0  0
  188.2320  177.3580  141.7950 C   0  0  1  0  0  3  0  0  0  0  0  0
  182.2790  179.0030  142.5780 C   0  0  0  0  0  3  0  0  0  0  0  0
  190.3060  177.3450  145.6940 C   0  0  0  0  0  2  0  0  0  0  0  0
  191.5250  177.9090  143.6570 C   0  0  0  0  0  2  0  0  0  0  0  0
  183.4070  179.0200  140.4770 O   0  0  0  0  0  1  0  0  0  0  0  0
  185.8130  178.0950  144.6210 C   0  0  0  0  0  0  0  0  0  0  0  0
  182.2570  178.8370  143.9610 C   0  0  0  0  0  3  0  0  0  0  0  0
  184.6810  178.5410  142.5280 C   0  0  0  0  0  0  0  0  0  0  0  0
  187.0150  177.9610  143.9810 C   0  0  0  0  0  0  0  0  0  0  0  0
  187.8670  177.8540  147.2140 O   0  0  0  0  0  0  0  0  0  0  0  0
  187.9930  177.8360  144.9110 N   0  0  0  0  0  0  0  0  0  0  0  0
  191.6960  177.4950  145.1120 C   0  0  0  0  0  2  0  0  0  0  0  0
  189.3810  175.6280  143.2190 C   0  0  0  0  0  1  0  0  0  0  0  0
  183.4300  178.5220  144.6410 C   0  0  0  0  0  3  0  0  0  0  0  0
  184.6310  178.3680  143.9410 C   0  0  0  0  0  0  0  0  0  0  0  0
  189.5080  176.9850  142.5360 C   0  0  2  0  0  3  0  0  0  0  0  0
  187.3580  178.5710  138.2660 C   0  0  0  0  0  2  0  0  0  0  0  0
  187.1150  176.3200  137.2190 C   0  0  0  0  0  1  0  0  0  0  0  0
  186.6270  177.7560  137.2100 C   0  0  0  0  0  2  0  0  0  0  0  0
  1 19  2  0  0  0  0
  1  4  1  0  0  0  0
  2 19  1  0  0  0  0
  2 13  2  0  0  0  0
  3 10  1  0  0  0  0
  4 20  2  0  0  0  0
  5  1  1  0  0  0  0
  7 15  1  1  0  0  0
  7  9  1  0  0  0  0
  8  6  1  6  0  0  0
  8 12  1  0  0  0  0
  9 22  1  0  0  0  0
  9 14  1  1  0  0  0
 10 21  2  0  0  0  0
 11 28  1  6  0  0  0
 11  5  1  0  0  0  0
 11  8  1  0  0  0  0
 12 27  1  0  0  0  0
 12  4  1  1  0  0  0
 13 18  1  0  0  0  0
 15 23  1  0  0  0  0
 16  2  1  0  0  0  0
 17  3  1  0  0  0  0
 18 25  2  0  0  0  0
 19 26  1  0  0  0  0
 20 17  1  0  0  0  0
 20 22  1  0  0  0  0
 22 10  1  0  0  0  0
 23 14  1  0  0  0  0
 26 17  2  0  0  0  0
 26 25  1  0  0  0  0
 27 24  1  1  0  0  0
 27  7  1  0  0  0  0
 30 29  1  0  0  0  0
 30 28  1  0  0  0  0
M  END
>  <MODEL>
2

>  <REMARK>
 VINA RESULT:     -10.0      1.831      5.537
  Name = 
  2 active torsions:
  status: ('A' for Active; 'I' for Inactive)
    1  A    between atoms: C_11  and  C_28
    2  A    between atoms: C_28  and  C_30
                            x       y       z     vdW  Elec       q    Type
                         _______ _______ _______ _____ _____    ______ ____

>  <TORSDO>
F 2

$$$$
=
 OpenBabel11122410303D

 30 35  0  0  1  0  0  0  0  0999 V2000
  187.1270  178.2320  140.8640 C   0  0  0  0  0  0  0  0  0  0  0  0
  184.8080  178.8240  140.0980 C   0  0  0  0  0  0  0  0  0  0  0  0
  185.8720  177.9750  144.7770 N   0  0  0  0  0  2  0  0  0  0  0  0
  187.9920  177.8260  141.9200 C   0  0  0  0  0  0  0  0  0  0  0  0
  187.7360  178.5690  139.5220 C   0  0  0  0  0  2  0  0  0  0  0  0
  191.0890  176.9930  139.9700 O   0  0  0  0  0  1  0  0  0  0  0  0
  190.5260  177.8340  143.6310 C   0  0  1  0  0  3  0  0  0  0  0  0
  189.9620  177.7450  140.3210 C   0  0  1  0  0  3  0  0  0  0  0  0
  189.5110  177.9690  144.7580 C   0  0  2  0  0  3  0  0  0  0  0  0
  187.0930  177.7760  145.3200 C   0  0  0  0  0  0  0  0  0  0  0  0
  188.9650  177.7330  139.1670 C   0  0  2  0  0  3  0  0  0  0  0  0
  189.2790  177.1200  141.5350 C   0  0  1  0  0  3  0  0  0  0  0  0
  183.4620  179.0350  140.4120 C   0  0  0  0  0  3  0  0  0  0  0  0
  190.0360  177.1060  145.8870 C   0  0  0  0  0  2  0  0  0  0  0  0
  191.8530  177.5710  144.3260 C   0  0  0  0  0  2  0  0  0  0  0  0
  185.1870  178.9570  138.7670 O   0  0  0  0  0  1  0  0  0  0  0  0
  186.1400  178.0220  143.4620 C   0  0  0  0  0  0  0  0  0  0  0  0
  183.0050  178.9010  141.7210 C   0  0  0  0  0  3  0  0  0  0  0  0
  185.7360  178.4690  141.1160 C   0  0  0  0  0  0  0  0  0  0  0  0
  187.4730  177.8230  143.2290 C   0  0  0  0  0  0  0  0  0  0  0  0
  187.2720  177.7520  146.5670 O   0  0  0  0  0  0  0  0  0  0  0  0
  188.1060  177.6770  144.4180 N   0  0  0  0  0  0  0  0  0  0  0  0
  191.5430  177.1830  145.7650 C   0  0  0  0  0  2  0  0  0  0  0  0
  189.8440  175.3750  143.2600 C   0  0  0  0  0  1  0  0  0  0  0  0
  183.8920  178.5520  142.7350 C   0  0  0  0  0  3  0  0  0  0  0  0
  185.2420  178.3310  142.4450 C   0  0  0  0  0  0  0  0  0  0  0  0
  190.2420  176.7090  142.6400 C   0  0  2  0  0  3  0  0  0  0  0  0
  189.6040  178.2900  137.9000 C   0  0  0  0  0  2  0  0  0  0  0  0
  188.1720  177.7600  135.9270 C   0  0  0  0  0  1  0  0  0  0  0  0
  188.5530  178.8240  136.9380 C   0  0  0  0  0  2  0  0  0  0  0  0
  1 19  2  0  0  0  0
  1  4  1  0  0  0  0
  2 13  2  0  0  0  0
  2 19  1  0  0  0  0
  3 10  1  0  0  0  0
  4 20  2  0  0  0  0
  5  1  1  0  0  0  0
  7 15  1  1  0  0  0
  7  9  1  0  0  0  0
  8  6  1  6  0  0  0
  8 12  1  0  0  0  0
  9 14  1  1  0  0  0
 10 21  2  0  0  0  0
 11 28  1  6  0  0  0
 11  5  1  0  0  0  0
 11  8  1  0  0  0  0
 12  4  1  1  0  0  0
 12 27  1  0  0  0  0
 13 18  1  0  0  0  0
 15 23  1  0  0  0  0
 16  2  1  0  0  0  0
 17  3  1  0  0  0  0
 18 25  2  0  0  0  0
 19 26  1  0  0  0  0
 20 17  1  0  0  0  0
 20 22  1  0  0  0  0
 22  9  1  0  0  0  0
 22 10  1  0  0  0  0
 23 14  1  0  0  0  0
 26 25  1  0  0  0  0
 26 17  2  0  0  0  0
 27 24  1  1  0  0  0
 27  7  1  0  0  0  0
 29 30  1  0  0  0  0
 30 28  1  0  0  0  0
M  END
>  <MODEL>
3

>  <REMARK>
 VINA RESULT:      -9.7      1.851      5.617
  Name = 
  2 active torsions:
  status: ('A' for Active; 'I' for Inactive)
    1  A    between atoms: C_11  and  C_28
    2  A    between atoms: C_28  and  C_30
                            x       y       z     vdW  Elec       q    Type
                         _______ _______ _______ _____ _____    ______ ____

>  <TORSDO>
F 2

$$$$
=
 OpenBabel11122410303D

 30 35  0  0  1  0  0  0  0  0999 V2000
  186.3500  178.0120  144.5930 C   0  0  0  0  0  0  0  0  0  0  0  0
  183.9520  178.5700  145.0920 C   0  0  0  0  0  0  0  0  0  0  0  0
  185.8100  178.8300  140.5940 N   0  0  0  0  0  2  0  0  0  0  0  0
  187.4190  177.9690  143.6520 C   0  0  0  0  0  0  0  0  0  0  0  0
  186.5780  177.4280  145.9690 C   0  0  0  0  0  2  0  0  0  0  0  0
  190.3050  177.2590  145.9430 O   0  0  0  0  0  1  0  0  0  0  0  0
  189.8350  176.7810  142.2040 C   0  0  1  0  0  3  0  0  0  0  0  0
  189.0070  177.1190  145.4420 C   0  0  1  0  0  3  0  0  0  0  0  0
  189.0080  177.1370  140.9770 C   0  0  2  0  0  3  0  0  0  0  0  0
  187.0370  178.4360  140.1870 C   0  0  0  0  0  0  0  0  0  0  0  0
  188.0040  177.5940  146.4900 C   0  0  2  0  0  3  0  0  0  0  0  0
  188.8330  177.9930  144.2010 C   0  0  1  0  0  3  0  0  0  0  0  0
  182.7070  179.0110  144.6340 C   0  0  0  0  0  3  0  0  0  0  0  0
  189.9980  177.6570  139.9530 C   0  0  0  0  0  2  0  0  0  0  0  0
  191.2020  176.3950  141.6600 C   0  0  0  0  0  2  0  0  0  0  0  0
  184.0720  178.2740  146.4450 O   0  0  0  0  0  1  0  0  0  0  0  0
  185.8740  178.6610  141.9260 C   0  0  0  0  0  0  0  0  0  0  0  0
  182.5150  179.3450  143.2960 C   0  0  0  0  0  3  0  0  0  0  0  0
  185.0470  178.4520  144.1920 C   0  0  0  0  0  0  0  0  0  0  0  0
  187.1120  178.2150  142.3010 C   0  0  0  0  0  0  0  0  0  0  0  0
  187.3460  178.3760  138.9670 O   0  0  0  0  0  0  0  0  0  0  0  0
  187.8710  178.0500  141.1900 N   0  0  0  0  0  0  0  0  0  0  0  0
  191.2730  176.8850  140.2210 C   0  0  0  0  0  2  0  0  0  0  0  0
  190.3350  179.2740  142.6370 C   0  0  0  0  0  1  0  0  0  0  0  0
  183.5710  179.2410  142.3950 C   0  0  0  0  0  3  0  0  0  0  0  0
  184.8270  178.8070  142.8300 C   0  0  0  0  0  0  0  0  0  0  0  0
  189.9950  177.9080  143.2210 C   0  0  2  0  0  3  0  0  0  0  0  0
  188.1650  176.8020  147.7820 C   0  0  0  0  0  2  0  0  0  0  0  0
  189.4000  178.6540  148.9070 C   0  0  0  0  0  1  0  0  0  0  0  0
  188.2080  177.7220  148.9930 C   0  0  0  0  0  2  0  0  0  0  0  0
  1  5  1  0  0  0  0
  2 16  1  0  0  0  0
  3 17  1  0  0  0  0
  4  1  2  0  0  0  0
  5 11  1  0  0  0  0
  7 15  1  6  0  0  0
  7 27  1  0  0  0  0
  8  6  1  1  0  0  0
  8 11  1  0  0  0  0
  9 14  1  6  0  0  0
  9 22  1  0  0  0  0
  9  7  1  0  0  0  0
 10  3  1  0  0  0  0
 10 22  1  0  0  0  0
 11 28  1  1  0  0  0
 12  4  1  6  0  0  0
 12  8  1  0  0  0  0
 13  2  1  0  0  0  0
 14 23  1  0  0  0  0
 17 20  2  0  0  0  0
 17 26  1  0  0  0  0
 18 13  2  0  0  0  0
 19  1  1  0  0  0  0
 19  2  2  0  0  0  0
 20  4  1  0  0  0  0
 21 10  2  0  0  0  0
 22 20  1  0  0  0  0
 23 15  1  0  0  0  0
 25 26  2  0  0  0  0
 25 18  1  0  0  0  0
 26 19  1  0  0  0  0
 27 24  1  6  0  0  0
 27 12  1  0  0  0  0
 28 30  1  0  0  0  0
 29 30  1  0  0  0  0
M  END
>  <MODEL>
4

>  <REMARK>
 VINA RESULT:      -9.7      1.897      6.799
  Name = 
  2 active torsions:
  status: ('A' for Active; 'I' for Inactive)
    1  A    between atoms: C_11  and  C_28
    2  A    between atoms: C_28  and  C_30
                            x       y       z     vdW  Elec       q    Type
                         _______ _______ _______ _____ _____    ______ ____

>  <TORSDO>
F 2

$$$$
=
 OpenBabel11122410303D

 30 35  0  0  1  0  0  0  0  0999 V2000
  186.0510  178.2810  142.5220 C   0  0  0  0  0  0  0  0  0  0  0  0
  186.6590  178.2680  144.9600 C   0  0  0  0  0  0  0  0  0  0  0  0
  182.0660  178.7970  143.4210 N   0  0  0  0  0  2  0  0  0  0  0  0
  185.0560  178.4590  141.5170 C   0  0  0  0  0  0  0  0  0  0  0  0
  187.4270  177.8190  142.0990 C   0  0  0  0  0  2  0  0  0  0  0  0
  187.2110  178.5440  138.4460 O   0  0  0  0  0  1  0  0  0  0  0  0
  183.5140  177.8300  138.9540 C   0  0  1  0  0  3  0  0  0  0  0  0
  186.7810  178.0800  139.6940 C   0  0  1  0  0  3  0  0  0  0  0  0
  182.3230  177.9320  139.8960 C   0  0  2  0  0  3  0  0  0  0  0  0
  181.6050  178.6930  142.1550 C   0  0  0  0  0  0  0  0  0  0  0  0
  187.8680  178.3410  140.7330 C   0  0  2  0  0  3  0  0  0  0  0  0
  185.5290  178.8400  140.1270 C   0  0  1  0  0  3  0  0  0  0  0  0
  186.2560  178.3820  146.2930 C   0  0  0  0  0  3  0  0  0  0  0  0
  181.2370  178.6350  139.1070 C   0  0  0  0  0  2  0  0  0  0  0  0
  182.9100  177.7620  137.5600 C   0  0  0  0  0  2  0  0  0  0  0  0
  188.0110  178.0600  144.7110 O   0  0  0  0  0  1  0  0  0  0  0  0
  183.3960  178.6980  143.2590 C   0  0  0  0  0  0  0  0  0  0  0  0
  184.9220  178.6090  146.6200 C   0  0  0  0  0  3  0  0  0  0  0  0
  185.7070  178.3810  143.9090 C   0  0  0  0  0  0  0  0  0  0  0  0
  183.7170  178.5750  141.9340 C   0  0  0  0  0  0  0  0  0  0  0  0
  180.3730  178.6620  141.8940 O   0  0  0  0  0  0  0  0  0  0  0  0
  182.5720  178.5540  141.2080 N   0  0  0  0  0  0  0  0  0  0  0  0
  181.4570  178.2010  137.6730 C   0  0  0  0  0  2  0  0  0  0  0  0
  183.8580  180.3850  139.0490 C   0  0  0  0  0  1  0  0  0  0  0  0
  183.9700  178.7280  145.6110 C   0  0  0  0  0  3  0  0  0  0  0  0
  184.3490  178.6220  144.2680 C   0  0  0  0  0  0  0  0  0  0  0  0
  184.4930  178.9990  139.0240 C   0  0  2  0  0  3  0  0  0  0  0  0
  189.1700  177.6580  140.3290 C   0  0  0  0  0  2  0  0  0  0  0  0
  191.2460  177.3710  141.6810 C   0  0  0  0  0  1  0  0  0  0  0  0
  189.8040  176.9360  141.5080 C   0  0  0  0  0  2  0  0  0  0  0  0
  1 19  1  0  0  0  0
  2 13  1  0  0  0  0
  4 20  1  0  0  0  0
  4  1  2  0  0  0  0
  5  1  1  0  0  0  0
  7 15  1  6  0  0  0
  7 27  1  0  0  0  0
  7  9  1  0  0  0  0
  8  6  1  6  0  0  0
  8 12  1  0  0  0  0
  8 11  1  0  0  0  0
  9 14  1  6  0  0  0
  9 22  1  0  0  0  0
 10  3  1  0  0  0  0
 11 28  1  6  0  0  0
 11  5  1  0  0  0  0
 12  4  1  1  0  0  0
 13 18  2  0  0  0  0
 15 23  1  0  0  0  0
 16  2  1  0  0  0  0
 17  3  1  0  0  0  0
 17 26  1  0  0  0  0
 19 26  1  0  0  0  0
 19  2  2  0  0  0  0
 20 17  2  0  0  0  0
 21 10  2  0  0  0  0
 22 20  1  0  0  0  0
 22 10  1  0  0  0  0
 23 14  1  0  0  0  0
 25 18  1  0  0  0  0
 26 25  2  0  0  0  0
 27 24  1  1  0  0  0
 27 12  1  0  0  0  0
 28 30  1  0  0  0  0
 30 29  1  0  0  0  0
M  END
>  <MODEL>
5

>  <REMARK>
 VINA RESULT:      -9.3      2.825      4.584
  Name = 
  2 active torsions:
  status: ('A' for Active; 'I' for Inactive)
    1  A    between atoms: C_11  and  C_28
    2  A    between atoms: C_28  and  C_30
                            x       y       z     vdW  Elec       q    Type
                         _______ _______ _______ _____ _____    ______ ____

>  <TORSDO>
F 2

$$$$
=
 OpenBabel11122410303D

 30 35  0  0  1  0  0  0  0  0999 V2000
  187.5160  177.8340  142.6520 C   0  0  0  0  0  0  0  0  0  0  0  0
  186.1540  178.2580  144.7200 C   0  0  0  0  0  0  0  0  0  0  0  0
  184.3720  178.9420  140.2360 N   0  0  0  0  0  2  0  0  0  0  0  0
  187.6290  177.9050  141.2340 C   0  0  0  0  0  0  0  0  0  0  0  0
  188.6190  177.1520  143.4290 C   0  0  0  0  0  2  0  0  0  0  0  0
  191.2760  177.1280  140.8090 O   0  0  0  0  0  1  0  0  0  0  0  0
  188.3270  176.9280  138.4220 C   0  0  1  0  0  3  0  0  0  0  0  0
  189.9900  176.9790  141.3400 C   0  0  1  0  0  3  0  0  0  0  0  0
  186.8900  177.3480  138.1480 C   0  0  2  0  0  3  0  0  0  0  0  0
  184.9600  178.6290  139.0600 C   0  0  0  0  0  0  0  0  0  0  0  0
  190.0110  177.3310  142.8250 C   0  0  2  0  0  3  0  0  0  0  0  0
  189.0280  177.9400  140.6460 C   0  0  1  0  0  3  0  0  0  0  0  0
  184.9530  178.6870  145.2940 C   0  0  0  0  0  3  0  0  0  0  0  0
  186.9040  177.9840  136.7730 C   0  0  0  0  0  2  0  0  0  0  0  0
  188.9210  176.6390  137.0520 C   0  0  0  0  0  2  0  0  0  0  0  0
  187.1720  177.8620  145.5790 O   0  0  0  0  0  1  0  0  0  0  0  0
  185.3380  178.6720  141.1290 C   0  0  0  0  0  0  0  0  0  0  0  0
  183.8940  179.1170  144.4980 C   0  0  0  0  0  3  0  0  0  0  0  0
  186.3120  178.2530  143.3060 C   0  0  0  0  0  0  0  0  0  0  0  0
  186.4770  178.2450  140.5010 C   0  0  0  0  0  0  0  0  0  0  0  0
  184.3340  178.6760  137.9680 O   0  0  0  0  0  0  0  0  0  0  0  0
  186.2460  178.1970  139.1660 N   0  0  0  0  0  0  0  0  0  0  0  0
  187.9860  177.2430  136.0140 C   0  0  0  0  0  2  0  0  0  0  0  0
  189.0560  179.3970  138.5930 C   0  0  0  0  0  1  0  0  0  0  0  0
  184.0250  179.1250  143.1120 C   0  0  0  0  0  3  0  0  0  0  0  0
  185.2180  178.7060  142.5140 C   0  0  0  0  0  0  0  0  0  0  0  0
  189.1800  177.9770  139.1320 C   0  0  2  0  0  3  0  0  0  0  0  0
  191.0020  176.4460  143.5720 C   0  0  0  0  0  2  0  0  0  0  0  0
  191.6810  176.3780  145.9710 C   0  0  0  0  0  1  0  0  0  0  0  0
  191.6810  177.2060  144.7020 C   0  0  0  0  0  2  0  0  0  0  0  0
  1 19  1  0  0  0  0
  1  5  1  0  0  0  0
  2 13  1  0  0  0  0
  2 16  1  0  0  0  0
  3 17  1  0  0  0  0
  4  1  2  0  0  0  0
  7 15  1  6  0  0  0
  7 27  1  0  0  0  0
  8  6  1  6  0  0  0
  8 11  1  0  0  0  0
  9 14  1  6  0  0  0
  9  7  1  0  0  0  0
  9 22  1  0  0  0  0
 10 22  1  0  0  0  0
 10  3  1  0  0  0  0
 11  5  1  0  0  0  0
 11 28  1  1  0  0  0
 12  4  1  6  0  0  0
 12  8  1  0  0  0  0
 17 26  1  0  0  0  0
 18 13  2  0  0  0  0
 19  2  2  0  0  0  0
 20 17  2  0  0  0  0
 20  4  1  0  0  0  0
 21 10  2  0  0  0  0
 22 20  1  0  0  0  0
 23 14  1  0  0  0  0
 23 15  1  0  0  0  0
 25 18  1  0  0  0  0
 26 25  2  0  0  0  0
 26 19  1  0  0  0  0
 27 24  1  6  0  0  0
 27 12  1  0  0  0  0
 28 30  1  0  0  0  0
 30 29  1  0  0  0  0
M  END
>  <MODEL>
6

>  <REMARK>
 VINA RESULT:      -9.0      2.480      5.918
  Name = 
  2 active torsions:
  status: ('A' for Active; 'I' for Inactive)
    1  A    between atoms: C_11  and  C_28
    2  A    between atoms: C_28  and  C_30
                            x       y       z     vdW  Elec       q    Type
                         _______ _______ _______ _____ _____    ______ ____

>  <TORSDO>
F 2

$$$$
=
 OpenBabel11122410303D

 30 35  0  0  1  0  0  0  0  0999 V2000
  186.2430  178.2460  141.8560 C   0  0  0  0  0  0  0  0  0  0  0  0
  184.8560  178.7050  139.8120 C   0  0  0  0  0  0  0  0  0  0  0  0
  189.5430  177.3990  139.5430 N   0  0  0  0  0  2  0  0  0  0  0  0
  187.5180  177.9530  142.4200 C   0  0  0  0  0  0  0  0  0  0  0  0
  185.0390  178.2640  142.7690 C   0  0  0  0  0  2  0  0  0  0  0  0
  186.7810  178.4800  146.0620 O   0  0  0  0  0  1  0  0  0  0  0  0
  189.5160  176.5530  144.2630 C   0  0  1  0  0  3  0  0  0  0  0  0
  186.5380  178.0260  144.7610 C   0  0  1  0  0  3  0  0  0  0  0  0
  190.2450  176.3210  142.9470 C   0  0  2  0  0  3  0  0  0  0  0  0
  190.3470  177.0070  140.5560 C   0  0  0  0  0  0  0  0  0  0  0  0
  185.3340  178.7630  144.1820 C   0  0  2  0  0  3  0  0  0  0  0  0
  187.7430  178.3310  143.8720 C   0  0  1  0  0  3  0  0  0  0  0  0
  184.7740  178.8060  138.4200 C   0  0  0  0  0  3  0  0  0  0  0  0
  191.7170  176.5050  143.2580 C   0  0  0  0  0  2  0  0  0  0  0  0
  190.5020  176.1290  145.3400 C   0  0  0  0  0  2  0  0  0  0  0  0
  183.7040  178.9670  140.5450 O   0  0  0  0  0  1  0  0  0  0  0  0
  188.4200  177.7640  140.1840 C   0  0  0  0  0  0  0  0  0  0  0  0
  185.8910  178.5760  137.6200 C   0  0  0  0  0  3  0  0  0  0  0  0
  186.0870  178.3610  140.4360 C   0  0  0  0  0  0  0  0  0  0  0  0
  188.5660  177.6260  141.5380 C   0  0  0  0  0  0  0  0  0  0  0  0
  191.4870  176.5120  140.3480 O   0  0  0  0  0  0  0  0  0  0  0  0
  189.7980  177.1240  141.7950 N   0  0  0  0  0  0  0  0  0  0  0  0
  191.8740  176.0300  144.6880 C   0  0  0  0  0  2  0  0  0  0  0  0
  190.1300  179.0570  144.2070 C   0  0  0  0  0  1  0  0  0  0  0  0
  187.1080  178.2420  138.2060 C   0  0  0  0  0  3  0  0  0  0  0  0
  187.2170  178.1390  139.5970 C   0  0  0  0  0  0  0  0  0  0  0  0
  189.0820  177.9940  144.5130 C   0  0  2  0  0  3  0  0  0  0  0  0
  184.1050  178.5510  145.0590 C   0  0  0  0  0  2  0  0  0  0  0  0
  181.8480  178.6160  143.9970 C   0  0  0  0  0  1  0  0  0  0  0  0
  182.9530  179.4450  144.6220 C   0  0  0  0  0  2  0  0  0  0  0  0
  1  4  1  0  0  0  0
  1  5  1  0  0  0  0
  2 19  1  0  0  0  0
  2 16  1  0  0  0  0
  3 17  1  0  0  0  0
  3 10  1  0  0  0  0
  5 11  1  0  0  0  0
  7 27  1  0  0  0  0
  7 15  1  1  0  0  0
  8  6  1  1  0  0  0
  9 14  1  1  0  0  0
  9  7  1  0  0  0  0
 10 22  1  0  0  0  0
 11  8  1  0  0  0  0
 11 28  1  1  0  0  0
 12  4  1  6  0  0  0
 12 27  1  0  0  0  0
 12  8  1  0  0  0  0
 13  2  2  0  0  0  0
 14 23  1  0  0  0  0
 17 20  1  0  0  0  0
 18 25  2  0  0  0  0
 18 13  1  0  0  0  0
 19  1  2  0  0  0  0
 20 22  1  0  0  0  0
 20  4  2  0  0  0  0
 21 10  2  0  0  0  0
 22  9  1  0  0  0  0
 23 15  1  0  0  0  0
 25 26  1  0  0  0  0
 26 17  2  0  0  0  0
 26 19  1  0  0  0  0
 27 24  1  6  0  0  0
 29 30  1  0  0  0  0
 30 28  1  0  0  0  0
M  END
>  <MODEL>
7

>  <REMARK>
 VINA RESULT:      -8.2      2.435      7.301
  Name = 
  2 active torsions:
  status: ('A' for Active; 'I' for Inactive)
    1  A    between atoms: C_11  and  C_28
    2  A    between atoms: C_28  and  C_30
                            x       y       z     vdW  Elec       q    Type
                         _______ _______ _______ _____ _____    ______ ____

>  <TORSDO>
F 2

$$$$
=
 OpenBabel11122410303D

 30 35  0  0  1  0  0  0  0  0999 V2000
  189.8070  177.6190  142.3820 C   0  0  0  0  0  0  0  0  0  0  0  0
  191.3700  177.3670  140.4310 C   0  0  0  0  0  0  0  0  0  0  0  0
  186.6750  178.5500  139.8770 N   0  0  0  0  0  2  0  0  0  0  0  0
  188.4820  177.8290  142.8600 C   0  0  0  0  0  0  0  0  0  0  0  0
  190.9350  177.5640  143.3870 C   0  0  0  0  0  2  0  0  0  0  0  0
  188.9440  177.0340  146.4990 O   0  0  0  0  0  1  0  0  0  0  0  0
  186.2940  179.0170  144.6340 C   0  0  1  0  0  3  0  0  0  0  0  0
  189.2730  177.5980  145.2610 C   0  0  1  0  0  3  0  0  0  0  0  0
  185.6640  179.3310  143.2850 C   0  0  2  0  0  3  0  0  0  0  0  0
  185.7790  178.8360  140.8470 C   0  0  0  0  0  0  0  0  0  0  0  0
  190.5460  176.9450  144.7290 C   0  0  2  0  0  3  0  0  0  0  0  0
  188.1560  177.3290  144.2550 C   0  0  1  0  0  3  0  0  0  0  0  0
  191.5660  177.3800  139.0460 C   0  0  0  0  0  3  0  0  0  0  0  0
  184.1800  179.0800  143.4580 C   0  0  0  0  0  2  0  0  0  0  0  0
  185.2100  179.3240  145.6560 C   0  0  0  0  0  2  0  0  0  0  0  0
  192.4680  177.0810  141.2340 O   0  0  0  0  0  1  0  0  0  0  0  0
  187.7550  178.1680  140.5790 C   0  0  0  0  0  0  0  0  0  0  0  0
  190.5090  177.6400  138.1770 C   0  0  0  0  0  3  0  0  0  0  0  0
  190.0810  177.6230  140.9760 C   0  0  0  0  0  0  0  0  0  0  0  0
  187.4970  178.1930  141.9230 C   0  0  0  0  0  0  0  0  0  0  0  0
  184.6410  179.3110  140.5850 O   0  0  0  0  0  0  0  0  0  0  0  0
  186.2310  178.6360  142.1150 N   0  0  0  0  0  0  0  0  0  0  0  0
  183.8920  179.4330  144.9020 C   0  0  0  0  0  2  0  0  0  0  0  0
  185.7770  176.5080  144.3350 C   0  0  0  0  0  1  0  0  0  0  0  0
  189.2370  177.8900  138.6850 C   0  0  0  0  0  3  0  0  0  0  0  0
  189.0150  177.8780  140.0660 C   0  0  0  0  0  0  0  0  0  0  0  0
  186.7590  177.5730  144.8080 C   0  0  2  0  0  3  0  0  0  0  0  0
  191.6930  177.1230  145.7170 C   0  0  0  0  0  2  0  0  0  0  0  0
  192.2540  175.8870  147.8100 C   0  0  0  0  0  1  0  0  0  0  0  0
  192.1310  175.7880  146.3020 C   0  0  0  0  0  2  0  0  0  0  0  0
  1  4  1  0  0  0  0
  1  5  1  0  0  0  0
  2 19  1  0  0  0  0
  2 16  1  0  0  0  0
  3 17  1  0  0  0  0
  3 10  1  0  0  0  0
  5 11  1  0  0  0  0
  7 27  1  0  0  0  0
  7 15  1  1  0  0  0
  8  6  1  1  0  0  0
  9 14  1  1  0  0  0
  9  7  1  0  0  0  0
 10 22  1  0  0  0  0
 11  8  1  0  0  0  0
 11 28  1  1  0  0  0
 12  4  1  6  0  0  0
 12 27  1  0  0  0  0
 12  8  1  0  0  0  0
 13  2  2  0  0  0  0
 14 23  1  0  0  0  0
 17 20  1  0  0  0  0
 18 25  2  0  0  0  0
 18 13  1  0  0  0  0
 19  1  2  0  0  0  0
 20 22  1  0  0  0  0
 20  4  2  0  0  0  0
 21 10  2  0  0  0  0
 22  9  1  0  0  0  0
 23 15  1  0  0  0  0
 25 26  1  0  0  0  0
 26 17  2  0  0  0  0
 26 19  1  0  0  0  0
 27 24  1  6  0  0  0
 28 30  1  0  0  0  0
 30 29  1  0  0  0  0
M  END
>  <MODEL>
8

>  <REMARK>
 VINA RESULT:      -8.1      1.855      5.144
  Name = 
  2 active torsions:
  status: ('A' for Active; 'I' for Inactive)
    1  A    between atoms: C_11  and  C_28
    2  A    between atoms: C_28  and  C_30
                            x       y       z     vdW  Elec       q    Type
                         _______ _______ _______ _____ _____    ______ ____

>  <TORSDO>
F 2

$$$$
=
 OpenBabel11122410303D

 30 35  0  0  1  0  0  0  0  0999 V2000
  186.5930  178.2840  142.4710 C   0  0  0  0  0  0  0  0  0  0  0  0
  188.9890  177.8870  143.1160 C   0  0  0  0  0  0  0  0  0  0  0  0
  187.5090  177.9270  138.4730 N   0  0  0  0  0  2  0  0  0  0  0  0
  185.5990  178.3310  141.4510 C   0  0  0  0  0  0  0  0  0  0  0  0
  186.2080  178.7040  143.8720 C   0  0  0  0  0  2  0  0  0  0  0  0
  182.4940  178.5540  143.5470 O   0  0  0  0  0  1  0  0  0  0  0  0
  183.1980  179.4470  139.9230 C   0  0  1  0  0  3  0  0  0  0  0  0
  183.8080  178.8540  143.1730 C   0  0  1  0  0  3  0  0  0  0  0  0
  184.1450  179.2910  138.7420 C   0  0  2  0  0  3  0  0  0  0  0  0
  186.2840  178.2530  138.0020 C   0  0  0  0  0  0  0  0  0  0  0  0
  184.7680  178.3640  144.2520 C   0  0  2  0  0  3  0  0  0  0  0  0
  184.1560  178.1300  141.8740 C   0  0  1  0  0  3  0  0  0  0  0  0
  190.3010  177.6030  142.7250 C   0  0  0  0  0  3  0  0  0  0  0  0
  183.2890  178.7940  137.5940 C   0  0  0  0  0  2  0  0  0  0  0  0
  181.8460  179.7670  139.3050 C   0  0  0  0  0  2  0  0  0  0  0  0
  188.7390  178.0320  144.4760 O   0  0  0  0  0  1  0  0  0  0  0  0
  187.3280  177.9530  139.8040 C   0  0  0  0  0  0  0  0  0  0  0  0
  190.6240  177.4250  141.3820 C   0  0  0  0  0  3  0  0  0  0  0  0
  187.9590  178.0020  142.1420 C   0  0  0  0  0  0  0  0  0  0  0  0
  186.0290  178.2510  140.1140 C   0  0  0  0  0  0  0  0  0  0  0  0
  186.0630  178.4100  136.7720 O   0  0  0  0  0  0  0  0  0  0  0  0
  185.3440  178.4620  138.9630 N   0  0  0  0  0  0  0  0  0  0  0  0
  181.9300  179.4220  137.8240 C   0  0  0  0  0  2  0  0  0  0  0  0
  182.9040  176.8890  140.0750 C   0  0  0  0  0  1  0  0  0  0  0  0
  189.6330  177.5290  140.4090 C   0  0  0  0  0  3  0  0  0  0  0  0
  188.3130  177.8070  140.7750 C   0  0  0  0  0  0  0  0  0  0  0  0
  183.0680  178.2130  140.8120 C   0  0  2  0  0  3  0  0  0  0  0  0
  184.4370  179.0030  145.5950 C   0  0  0  0  0  2  0  0  0  0  0  0
  186.2160  179.0040  147.3440 C   0  0  0  0  0  1  0  0  0  0  0  0
  185.0590  178.2270  146.7470 C   0  0  0  0  0  2  0  0  0  0  0  0
  1  5  1  0  0  0  0
  2 16  1  0  0  0  0
  3 17  1  0  0  0  0
  4  1  2  0  0  0  0
  5 11  1  0  0  0  0
  7 15  1  6  0  0  0
  7 27  1  0  0  0  0
  8  6  1  1  0  0  0
  8 11  1  0  0  0  0
  9 14  1  6  0  0  0
  9 22  1  0  0  0  0
  9  7  1  0  0  0  0
 10  3  1  0  0  0  0
 10 22  1  0  0  0  0
 11 28  1  1  0  0  0
 12  4  1  6  0  0  0
 12  8  1  0  0  0  0
 13  2  1  0  0  0  0
 14 23  1  0  0  0  0
 17 20  2  0  0  0  0
 17 26  1  0  0  0  0
 18 13  2  0  0  0  0
 19  1  1  0  0  0  0
 19  2  2  0  0  0  0
 20  4  1  0  0  0  0
 21 10  2  0  0  0  0
 22 20  1  0  0  0  0
 23 15  1  0  0  0  0
 25 26  2  0  0  0  0
 25 18  1  0  0  0  0
 26 19  1  0  0  0  0
 27 24  1  6  0  0  0
 27 12  1  0  0  0  0
 28 30  1  0  0  0  0
 30 29  1  0  0  0  0
M  END
>  <MODEL>
9

>  <REMARK>
 VINA RESULT:      -8.0      2.951      6.057
  Name = 
  2 active torsions:
  status: ('A' for Active; 'I' for Inactive)
    1  A    between atoms: C_11  and  C_28
    2  A    between atoms: C_28  and  C_30
                            x       y       z     vdW  Elec       q    Type
                         _______ _______ _______ _____ _____    ______ ____

>  <TORSDO>
F 2

$$$$
