=
 OpenBabel11122410393D

 32 37  0  0  1  0  0  0  0  0999 V2000
  185.8280  179.1130  145.3200 C   0  0  0  0  0  2  0  0  0  0  0  0
  185.7860  178.3200  140.1140 C   0  0  1  0  0  3  0  0  0  0  0  0
  190.3170  177.3470  138.3080 C   0  0  0  0  0  2  0  0  0  0  0  0
  189.4780  176.9830  137.1630 N   0  0  0  0  0  2  0  0  0  0  0  0
  183.9180  178.8720  138.4150 C   0  0  1  0  0  3  0  0  0  0  0  0
  183.4740  177.5160  137.8140 C   0  0  2  0  0  3  0  0  0  0  0  0
  185.2480  178.1140  142.2930 C   0  0  1  0  0  3  0  0  0  0  0  0
  187.6020  177.5800  141.6410 C   0  0  0  0  0  2  0  0  0  0  0  0
  184.1740  175.2420  137.6060 N   0  0  0  0  0  0  0  0  0  0  0  0
  186.9420  177.2110  144.0190 C   0  0  0  0  0  2  0  0  0  0  0  0
  189.4860  177.9280  139.4640 C   0  0  0  0  0  2  0  0  0  0  0  0
  187.3150  178.3590  140.3480 C   0  0  1  0  0  3  0  0  0  0  0  0
  188.0480  177.7720  139.2150 N   0  0  1  0  0  0  0  0  0  0  0  0
  186.2500  178.3980  137.6310 C   0  0  1  0  0  3  0  0  0  0  0  0
  182.8860  175.1940  138.2760 C   0  0  0  0  0  2  0  0  0  0  0  0
  184.7780  179.6220  144.3150 C   0  0  0  0  0  2  0  0  0  0  0  0
  186.7150  178.0780  142.7780 C   0  0  2  0  0  3  0  0  0  0  0  0
  182.5710  176.6420  138.6840 C   0  0  0  0  0  2  0  0  0  0  0  0
  184.2400  178.5460  143.3650 C   0  0  0  0  0  2  0  0  0  0  0  0
  186.0920  177.6050  145.2390 C   0  0  1  0  0  3  0  0  0  0  0  0
  188.6290  178.1190  136.8070 C   0  0  0  0  0  2  0  0  0  0  0  0
  187.7310  178.5290  137.9890 C   0  0  2  0  0  3  0  0  0  0  0  0
  185.8660  176.9590  137.4040 C   0  0  0  0  0  3  0  0  0  0  0  0
  185.1420  178.9690  141.1830 O   0  0  0  0  0  0  0  0  0  0  0  0
  183.0290  179.3590  139.4590 N   0  0  0  0  0  1  0  0  0  0  0  0
  185.0560  174.0900  137.5200 C   0  0  0  0  0  1  0  0  0  0  0  0
  185.4140  178.9890  138.7790 C   0  0  2  0  0  3  0  0  0  0  0  0
  184.5850  176.5900  137.4700 C   0  0  0  0  0  0  0  0  0  0  0  0
  186.7630  177.1360  146.5180 C   0  0  0  0  0  2  0  0  0  0  0  0
  187.9460  177.9840  146.8380 C   0  0  0  0  0  0  0  0  0  0  0  0
  187.9680  178.6610  147.8980 O   0  0  0  0  0  1  0  0  0  0  0  0
  189.0390  178.0040  145.9820 O   0  0  0  0  0  0  0  0  0  0  0  0
  2 12  1  0  0  0  0
  2 24  1  1  0  0  0
  3 11  1  0  0  0  0
  4  3  1  0  0  0  0
  5 27  1  0  0  0  0
  5 25  1  1  0  0  0
  6  5  1  0  0  0  0
  6 18  1  1  0  0  0
  7 17  1  0  0  0  0
  7 19  1  1  0  0  0
  9 15  1  0  0  0  0
 10 20  1  0  0  0  0
 12  8  1  1  0  0  0
 13 11  1  1  0  0  0
 13 12  1  0  0  0  0
 14 23  1  1  0  0  0
 14 22  1  0  0  0  0
 14 27  1  0  0  0  0
 15 18  1  0  0  0  0
 16  1  1  0  0  0  0
 17  8  1  6  0  0  0
 17 10  1  0  0  0  0
 19 16  1  0  0  0  0
 20  1  1  0  0  0  0
 20 29  1  1  0  0  0
 21  4  1  0  0  0  0
 22 21  1  6  0  0  0
 22 13  1  0  0  0  0
 23 28  2  0  0  0  0
 24  7  1  0  0  0  0
 26  9  1  0  0  0  0
 27  2  1  0  0  0  0
 28  9  1  0  0  0  0
 28  6  1  0  0  0  0
 29 30  1  0  0  0  0
 30 31  1  0  0  0  0
 32 30  2  0  0  0  0
M  END
>  <MODEL>
1

>  <REMARK>
 VINA RESULT:      -8.0      0.000      0.000
  Name = 
  2 active torsions:
  status: ('A' for Active; 'I' for Inactive)
    1  A    between atoms: C_20  and  C_29
    2  A    between atoms: C_29  and  C_30
                            x       y       z     vdW  Elec       q    Type
                         _______ _______ _______ _____ _____    ______ ____

>  <TORSDO>
F 2

$$$$
=
 OpenBabel11122410393D

 32 37  0  0  1  0  0  0  0  0999 V2000
  189.7850  178.5720  143.1510 C   0  0  0  0  0  2  0  0  0  0  0  0
  188.9350  177.2490  138.1240 C   0  0  1  0  0  3  0  0  0  0  0  0
  192.9240  175.1580  136.0140 C   0  0  0  0  0  2  0  0  0  0  0  0
  191.8930  174.8570  135.0180 N   0  0  0  0  0  2  0  0  0  0  0  0
  187.0140  177.9950  136.5650 C   0  0  1  0  0  3  0  0  0  0  0  0
  186.2400  176.7060  136.1940 C   0  0  2  0  0  3  0  0  0  0  0  0
  188.6450  177.3970  140.3540 C   0  0  1  0  0  3  0  0  0  0  0  0
  190.7470  176.3140  139.5440 C   0  0  0  0  0  2  0  0  0  0  0  0
  186.4490  174.3270  136.2170 N   0  0  0  0  0  0  0  0  0  0  0  0
  190.3320  176.3500  142.0040 C   0  0  0  0  0  2  0  0  0  0  0  0
  192.3760  176.0220  137.1620 C   0  0  0  0  0  2  0  0  0  0  0  0
  190.4590  176.9910  138.1960 C   0  0  1  0  0  3  0  0  0  0  0  0
  190.9150  176.1450  137.0820 N   0  0  1  0  0  0  0  0  0  0  0  0
  189.0910  176.9600  135.6180 C   0  0  1  0  0  3  0  0  0  0  0  0
  185.2710  174.6220  137.0130 C   0  0  0  0  0  2  0  0  0  0  0  0
  188.7370  179.1790  142.1990 C   0  0  0  0  0  2  0  0  0  0  0  0
  190.1250  177.1060  140.6890 C   0  0  2  0  0  3  0  0  0  0  0  0
  185.3000  176.1400  137.2580 C   0  0  0  0  0  2  0  0  0  0  0  0
  187.8830  178.1440  141.4570 C   0  0  0  0  0  2  0  0  0  0  0  0
  189.7360  177.0430  143.2410 C   0  0  1  0  0  3  0  0  0  0  0  0
  191.2450  176.1010  134.6020 C   0  0  0  0  0  2  0  0  0  0  0  0
  190.6010  176.8150  135.8050 C   0  0  2  0  0  3  0  0  0  0  0  0
  188.4060  175.6180  135.6220 C   0  0  0  0  0  3  0  0  0  0  0  0
  188.5710  178.1310  139.1580 O   0  0  0  0  0  0  0  0  0  0  0  0
  186.3750  178.7680  137.6200 N   0  0  0  0  0  1  0  0  0  0  0  0
  187.0700  173.0130  136.1940 C   0  0  0  0  0  1  0  0  0  0  0  0
  188.5370  177.8340  136.7570 C   0  0  2  0  0  3  0  0  0  0  0  0
  187.0960  175.5360  135.8650 C   0  0  0  0  0  0  0  0  0  0  0  0
  190.4560  176.5840  144.4970 C   0  0  0  0  0  2  0  0  0  0  0  0
  189.7000  176.9830  145.7170 C   0  0  0  0  0  0  0  0  0  0  0  0
  190.3180  177.3480  146.7500 O   0  0  0  0  0  1  0  0  0  0  0  0
  188.3110  176.9840  145.7060 O   0  0  0  0  0  0  0  0  0  0  0  0
  1 20  1  0  0  0  0
  2 12  1  0  0  0  0
  2 24  1  1  0  0  0
  3 11  1  0  0  0  0
  4  3  1  0  0  0  0
  5 27  1  0  0  0  0
  5 25  1  1  0  0  0
  6  5  1  0  0  0  0
  6 18  1  1  0  0  0
  7 17  1  0  0  0  0
  7 19  1  1  0  0  0
  9 15  1  0  0  0  0
 10 20  1  0  0  0  0
 12  8  1  1  0  0  0
 13 11  1  1  0  0  0
 13 12  1  0  0  0  0
 14 23  1  1  0  0  0
 14 22  1  0  0  0  0
 14 27  1  0  0  0  0
 15 18  1  0  0  0  0
 16  1  1  0  0  0  0
 17  8  1  6  0  0  0
 17 10  1  0  0  0  0
 19 16  1  0  0  0  0
 20 29  1  1  0  0  0
 21  4  1  0  0  0  0
 22 21  1  6  0  0  0
 22 13  1  0  0  0  0
 23 28  2  0  0  0  0
 24  7  1  0  0  0  0
 26  9  1  0  0  0  0
 27  2  1  0  0  0  0
 28  6  1  0  0  0  0
 28  9  1  0  0  0  0
 29 30  1  0  0  0  0
 30 31  1  0  0  0  0
 32 30  2  0  0  0  0
M  END
>  <MODEL>
2

>  <REMARK>
 VINA RESULT:      -7.1      2.621      3.713
  Name = 
  2 active torsions:
  status: ('A' for Active; 'I' for Inactive)
    1  A    between atoms: C_20  and  C_29
    2  A    between atoms: C_29  and  C_30
                            x       y       z     vdW  Elec       q    Type
                         _______ _______ _______ _____ _____    ______ ____

>  <TORSDO>
F 2

$$$$
=
 OpenBabel11122410393D

 32 37  0  0  1  0  0  0  0  0999 V2000
  189.8340  178.2250  143.6220 C   0  0  0  0  0  2  0  0  0  0  0  0
  187.4910  177.8570  138.9200 C   0  0  1  0  0  3  0  0  0  0  0  0
  190.6150  176.3370  135.3600 C   0  0  0  0  0  2  0  0  0  0  0  0
  189.3260  176.1980  134.6760 N   0  0  0  0  0  2  0  0  0  0  0  0
  185.2130  178.8220  138.1740 C   0  0  1  0  0  3  0  0  0  0  0  0
  184.3310  177.6030  137.8110 C   0  0  2  0  0  3  0  0  0  0  0  0
  187.8830  177.5680  141.1200 C   0  0  1  0  0  3  0  0  0  0  0  0
  189.6190  176.7280  139.5300 C   0  0  0  0  0  2  0  0  0  0  0  0
  184.4750  175.2720  137.3150 N   0  0  0  0  0  0  0  0  0  0  0  0
  189.9570  176.2810  141.9610 C   0  0  0  0  0  2  0  0  0  0  0  0
  190.4560  176.9480  136.7620 C   0  0  0  0  0  2  0  0  0  0  0  0
  188.9600  177.6400  138.4850 C   0  0  1  0  0  3  0  0  0  0  0  0
  189.0410  177.0370  137.1440 N   0  0  1  0  0  0  0  0  0  0  0  0
  186.8860  178.0550  136.4740 C   0  0  1  0  0  3  0  0  0  0  0  0
  183.5960  175.3710  138.4660 C   0  0  0  0  0  2  0  0  0  0  0  0
  188.5660  178.9680  143.1590 C   0  0  0  0  0  2  0  0  0  0  0  0
  189.3870  177.2670  140.9380 C   0  0  2  0  0  3  0  0  0  0  0  0
  183.7360  176.8140  138.9770 C   0  0  0  0  0  2  0  0  0  0  0  0
  187.5040  178.0660  142.5210 C   0  0  0  0  0  2  0  0  0  0  0  0
  189.7740  176.7060  143.4280 C   0  0  1  0  0  3  0  0  0  0  0  0
  188.6170  177.4770  134.7180 C   0  0  0  0  0  2  0  0  0  0  0  0
  188.3790  177.9270  136.1710 C   0  0  2  0  0  3  0  0  0  0  0  0
  186.1990  176.7160  136.4230 C   0  0  0  0  0  3  0  0  0  0  0  0
  187.4750  178.5130  140.1640 O   0  0  0  0  0  0  0  0  0  0  0  0
  184.9380  179.3590  139.4990 N   0  0  0  0  0  1  0  0  0  0  0  0
  185.0270  174.0070  136.8570 C   0  0  0  0  0  1  0  0  0  0  0  0
  186.7190  178.6780  137.8710 C   0  0  2  0  0  3  0  0  0  0  0  0
  185.0180  176.5460  137.0240 C   0  0  0  0  0  0  0  0  0  0  0  0
  190.8240  176.0400  144.3010 C   0  0  0  0  0  2  0  0  0  0  0  0
  190.7970  176.5990  145.6820 C   0  0  0  0  0  0  0  0  0  0  0  0
  191.8680  176.9480  146.2420 O   0  0  0  0  0  0  0  0  0  0  0  0
  189.5860  176.7670  146.3410 O   0  0  0  0  0  1  0  0  0  0  0  0
  2 24  1  1  0  0  0
  3 11  1  0  0  0  0
  4 21  1  0  0  0  0
  4  3  1  0  0  0  0
  5 25  1  1  0  0  0
  6  5  1  0  0  0  0
  6 18  1  1  0  0  0
  7 19  1  1  0  0  0
  9 15  1  0  0  0  0
 10 20  1  0  0  0  0
 12  2  1  0  0  0  0
 12  8  1  1  0  0  0
 13 11  1  6  0  0  0
 13 12  1  0  0  0  0
 14 23  1  1  0  0  0
 14 27  1  0  0  0  0
 15 18  1  0  0  0  0
 16  1  1  0  0  0  0
 17  8  1  6  0  0  0
 17  7  1  0  0  0  0
 17 10  1  0  0  0  0
 19 16  1  0  0  0  0
 20  1  1  0  0  0  0
 20 29  1  1  0  0  0
 22 21  1  6  0  0  0
 22 14  1  0  0  0  0
 22 13  1  0  0  0  0
 23 28  2  0  0  0  0
 24  7  1  0  0  0  0
 26  9  1  0  0  0  0
 27  5  1  0  0  0  0
 27  2  1  0  0  0  0
 28  9  1  0  0  0  0
 28  6  1  0  0  0  0
 29 30  1  0  0  0  0
 30 31  2  0  0  0  0
 30 32  1  0  0  0  0
M  END
>  <MODEL>
3

>  <REMARK>
 VINA RESULT:      -6.4      2.009      2.729
  Name = 
  2 active torsions:
  status: ('A' for Active; 'I' for Inactive)
    1  A    between atoms: C_20  and  C_29
    2  A    between atoms: C_29  and  C_30
                            x       y       z     vdW  Elec       q    Type
                         _______ _______ _______ _____ _____    ______ ____

>  <TORSDO>
F 2

$$$$
=
 OpenBabel11122410393D

 32 37  0  0  1  0  0  0  0  0999 V2000
  189.1740  178.5910  142.5120 C   0  0  0  0  0  2  0  0  0  0  0  0
  189.4570  176.9640  137.5110 C   0  0  1  0  0  3  0  0  0  0  0  0
  193.9370  175.1300  136.3660 C   0  0  0  0  0  2  0  0  0  0  0  0
  193.1540  174.6940  135.2070 N   0  0  0  0  0  2  0  0  0  0  0  0
  187.8390  177.4640  135.5590 C   0  0  1  0  0  3  0  0  0  0  0  0
  187.2560  176.0970  135.1270 C   0  0  2  0  0  3  0  0  0  0  0  0
  188.7140  177.1900  139.6260 C   0  0  1  0  0  3  0  0  0  0  0  0
  191.0120  176.2570  139.3160 C   0  0  0  0  0  2  0  0  0  0  0  0
  187.6360  173.7490  135.3410 N   0  0  0  0  0  0  0  0  0  0  0  0
  190.1080  176.3740  141.6390 C   0  0  0  0  0  2  0  0  0  0  0  0
  193.1040  175.9960  137.3260 C   0  0  0  0  0  2  0  0  0  0  0  0
  190.9500  176.8430  137.8980 C   0  0  1  0  0  3  0  0  0  0  0  0
  191.6850  175.9880  136.9520 N   0  0  1  0  0  0  0  0  0  0  0  0
  190.1360  176.5710  135.1080 C   0  0  1  0  0  3  0  0  0  0  0  0
  186.3030  173.9780  135.8700 C   0  0  0  0  0  2  0  0  0  0  0  0
  188.2970  179.0590  141.3350 C   0  0  0  0  0  2  0  0  0  0  0  0
  190.1130  177.0460  140.2640 C   0  0  2  0  0  3  0  0  0  0  0  0
  186.1670  175.5020  136.0180 C   0  0  0  0  0  2  0  0  0  0  0  0
  187.6910  177.9190  140.5070 C   0  0  0  0  0  2  0  0  0  0  0  0
  189.2240  177.0690  142.6880 C   0  0  1  0  0  3  0  0  0  0  0  0
  192.5100  175.8560  134.5940 C   0  0  0  0  0  2  0  0  0  0  0  0
  191.5850  176.5660  135.5980 C   0  0  2  0  0  3  0  0  0  0  0  0
  189.5690  175.1760  135.0620 C   0  0  0  0  0  3  0  0  0  0  0  0
  188.8260  177.8580  138.3950 O   0  0  0  0  0  0  0  0  0  0  0  0
  186.9440  178.2270  136.4160 N   0  0  0  0  0  1  0  0  0  0  0  0
  188.3470  172.4940  135.5250 C   0  0  0  0  0  1  0  0  0  0  0  0
  189.3000  177.4460  136.0580 C   0  0  2  0  0  3  0  0  0  0  0  0
  188.2470  174.9920  135.0470 C   0  0  0  0  0  0  0  0  0  0  0  0
  189.7090  176.7350  144.0880 C   0  0  0  0  0  2  0  0  0  0  0  0
  191.1980  176.7350  144.1460 C   0  0  0  0  0  0  0  0  0  0  0  0
  191.8280  175.6470  144.1770 O   0  0  0  0  0  1  0  0  0  0  0  0
  191.8940  177.9370  144.1330 O   0  0  0  0  0  0  0  0  0  0  0  0
  1 20  1  0  0  0  0
  2 12  1  0  0  0  0
  2 24  1  1  0  0  0
  3 11  1  0  0  0  0
  4  3  1  0  0  0  0
  5 27  1  0  0  0  0
  5 25  1  1  0  0  0
  6  5  1  0  0  0  0
  6 18  1  1  0  0  0
  7 17  1  0  0  0  0
  7 19  1  1  0  0  0
  9 26  1  0  0  0  0
  9 15  1  0  0  0  0
 10 20  1  0  0  0  0
 12  8  1  1  0  0  0
 13 11  1  1  0  0  0
 13 12  1  0  0  0  0
 14 23  1  1  0  0  0
 14 22  1  0  0  0  0
 14 27  1  0  0  0  0
 15 18  1  0  0  0  0
 16  1  1  0  0  0  0
 17  8  1  6  0  0  0
 17 10  1  0  0  0  0
 19 16  1  0  0  0  0
 20 29  1  1  0  0  0
 21  4  1  0  0  0  0
 22 21  1  6  0  0  0
 22 13  1  0  0  0  0
 24  7  1  0  0  0  0
 27  2  1  0  0  0  0
 28 23  2  0  0  0  0
 28  6  1  0  0  0  0
 28  9  1  0  0  0  0
 29 30  1  0  0  0  0
 30 31  1  0  0  0  0
 32 30  2  0  0  0  0
M  END
>  <MODEL>
4

>  <REMARK>
 VINA RESULT:      -6.4      3.381      4.625
  Name = 
  2 active torsions:
  status: ('A' for Active; 'I' for Inactive)
    1  A    between atoms: C_20  and  C_29
    2  A    between atoms: C_29  and  C_30
                            x       y       z     vdW  Elec       q    Type
                         _______ _______ _______ _____ _____    ______ ____

>  <TORSDO>
F 2

$$$$
=
 OpenBabel11122410393D

 32 37  0  0  1  0  0  0  0  0999 V2000
  184.9910  179.7630  144.4160 C   0  0  0  0  0  2  0  0  0  0  0  0
  182.2870  178.3250  140.1320 C   0  0  1  0  0  3  0  0  0  0  0  0
  185.2590  177.1850  136.3090 C   0  0  0  0  0  2  0  0  0  0  0  0
  183.9750  176.6710  135.8250 N   0  0  0  0  0  2  0  0  0  0  0  0
  179.7710  178.6380  139.6340 C   0  0  1  0  0  3  0  0  0  0  0  0
  179.1820  177.2130  139.4980 C   0  0  2  0  0  3  0  0  0  0  0  0
  182.9890  178.3870  142.2730 C   0  0  1  0  0  3  0  0  0  0  0  0
  184.6840  177.8020  140.5310 C   0  0  0  0  0  2  0  0  0  0  0  0
  179.8390  174.9390  139.1800 N   0  0  0  0  0  0  0  0  0  0  0  0
  185.3980  177.7260  142.9200 C   0  0  0  0  0  2  0  0  0  0  0  0
  185.1160  177.8970  137.6650 C   0  0  0  0  0  2  0  0  0  0  0  0
  183.7040  178.4100  139.5160 C   0  0  1  0  0  3  0  0  0  0  0  0
  183.7770  177.6940  138.2320 N   0  0  1  0  0  0  0  0  0  0  0  0
  181.3740  178.0970  137.7860 C   0  0  1  0  0  3  0  0  0  0  0  0
  179.1010  174.9600  140.4310 C   0  0  0  0  0  2  0  0  0  0  0  0
  183.5350  180.1310  144.0740 C   0  0  0  0  0  2  0  0  0  0  0  0
  184.4890  178.4280  141.9080 C   0  0  2  0  0  3  0  0  0  0  0  0
  178.9380  176.4450  140.7960 C   0  0  0  0  0  2  0  0  0  0  0  0
  182.6620  178.9380  143.6670 C   0  0  0  0  0  2  0  0  0  0  0  0
  185.2860  178.2600  144.3580 C   0  0  1  0  0  3  0  0  0  0  0  0
  182.9810  177.7440  135.8610 C   0  0  0  0  0  2  0  0  0  0  0  0
  182.8080  178.2880  137.2900 C   0  0  2  0  0  3  0  0  0  0  0  0
  181.0390  176.6360  137.9420 C   0  0  0  0  0  3  0  0  0  0  0  0
  182.2520  179.0950  141.3080 O   0  0  0  0  0  0  0  0  0  0  0  0
  179.5260  179.2420  140.9350 N   0  0  0  0  0  1  0  0  0  0  0  0
  180.6300  173.7960  138.7550 C   0  0  0  0  0  1  0  0  0  0  0  0
  181.2210  178.8170  139.1360 C   0  0  2  0  0  3  0  0  0  0  0  0
  180.0140  176.2640  138.7130 C   0  0  0  0  0  0  0  0  0  0  0  0
  186.5620  177.9620  145.1290 C   0  0  0  0  0  2  0  0  0  0  0  0
  186.3450  178.1240  146.5940 C   0  0  0  0  0  0  0  0  0  0  0  0
  187.3260  178.1090  147.3810 O   0  0  0  0  0  1  0  0  0  0  0  0
  185.0630  178.3240  147.0900 O   0  0  0  0  0  0  0  0  0  0  0  0
  2 24  1  1  0  0  0
  3 11  1  0  0  0  0
  4 21  1  0  0  0  0
  4  3  1  0  0  0  0
  5 25  1  1  0  0  0
  6  5  1  0  0  0  0
  6 18  1  1  0  0  0
  7 19  1  1  0  0  0
  9 15  1  0  0  0  0
 10 20  1  0  0  0  0
 12  2  1  0  0  0  0
 12  8  1  1  0  0  0
 13 11  1  6  0  0  0
 13 12  1  0  0  0  0
 14 23  1  1  0  0  0
 14 27  1  0  0  0  0
 15 18  1  0  0  0  0
 16  1  1  0  0  0  0
 17  8  1  6  0  0  0
 17  7  1  0  0  0  0
 17 10  1  0  0  0  0
 19 16  1  0  0  0  0
 20  1  1  0  0  0  0
 20 29  1  1  0  0  0
 22 21  1  6  0  0  0
 22 14  1  0  0  0  0
 22 13  1  0  0  0  0
 23 28  2  0  0  0  0
 24  7  1  0  0  0  0
 26  9  1  0  0  0  0
 27  5  1  0  0  0  0
 27  2  1  0  0  0  0
 28  9  1  0  0  0  0
 28  6  1  0  0  0  0
 29 30  1  0  0  0  0
 30 32  2  0  0  0  0
 30 31  1  0  0  0  0
M  END
>  <MODEL>
5

>  <REMARK>
 VINA RESULT:      -6.2      2.523      3.847
  Name = 
  2 active torsions:
  status: ('A' for Active; 'I' for Inactive)
    1  A    between atoms: C_20  and  C_29
    2  A    between atoms: C_29  and  C_30
                            x       y       z     vdW  Elec       q    Type
                         _______ _______ _______ _____ _____    ______ ____

>  <TORSDO>
F 2

$$$$
=
 OpenBabel11122410393D

 32 37  0  0  1  0  0  0  0  0999 V2000
  181.2190  179.9290  140.0410 C   0  0  0  0  0  2  0  0  0  0  0  0
  185.0190  177.5230  137.3010 C   0  0  1  0  0  3  0  0  0  0  0  0
  189.4710  177.9200  139.4830 C   0  0  0  0  0  2  0  0  0  0  0  0
  189.7470  176.8950  138.4730 N   0  0  0  0  0  2  0  0  0  0  0  0
  184.9600  176.6850  134.8570 C   0  0  1  0  0  3  0  0  0  0  0  0
  185.1490  175.1510  134.9270 C   0  0  2  0  0  3  0  0  0  0  0  0
  183.0710  177.8480  138.3880 C   0  0  1  0  0  3  0  0  0  0  0  0
  185.1770  178.1230  139.7070 C   0  0  0  0  0  2  0  0  0  0  0  0
  185.8720  173.4210  136.4060 N   0  0  0  0  0  0  0  0  0  0  0  0
  183.0070  178.3250  140.9230 C   0  0  0  0  0  2  0  0  0  0  0  0
  188.0370  178.4630  139.3700 C   0  0  0  0  0  2  0  0  0  0  0  0
  185.8910  178.2480  138.3540 C   0  0  1  0  0  3  0  0  0  0  0  0
  187.2420  177.6690  138.4250 N   0  0  1  0  0  0  0  0  0  0  0  0
  187.1440  176.9600  136.0530 C   0  0  1  0  0  3  0  0  0  0  0  0
  184.5060  173.0820  136.0490 C   0  0  0  0  0  2  0  0  0  0  0  0
  181.2140  179.6120  138.5340 C   0  0  0  0  0  2  0  0  0  0  0  0
  183.7210  178.5650  139.5910 C   0  0  2  0  0  3  0  0  0  0  0  0
  183.9340  174.3270  135.3520 C   0  0  0  0  0  2  0  0  0  0  0  0
  181.5830  178.1640  138.1920 C   0  0  0  0  0  2  0  0  0  0  0  0
  181.5210  178.7210  140.9330 C   0  0  1  0  0  3  0  0  0  0  0  0
  189.3810  177.4070  137.1530 C   0  0  0  0  0  2  0  0  0  0  0  0
  187.8890  177.7850  137.1040 C   0  0  2  0  0  3  0  0  0  0  0  0
  187.1060  175.5010  136.4280 C   0  0  0  0  0  3  0  0  0  0  0  0
  183.7740  178.1710  137.2140 O   0  0  0  0  0  0  0  0  0  0  0  0
  183.5710  177.0870  134.6890 N   0  0  0  0  0  1  0  0  0  0  0  0
  186.5850  172.7620  137.4890 C   0  0  0  0  0  1  0  0  0  0  0  0
  185.7110  177.5060  135.9260 C   0  0  2  0  0  3  0  0  0  0  0  0
  186.1970  174.6930  135.8770 C   0  0  0  0  0  0  0  0  0  0  0  0
  181.0650  179.0100  142.3530 C   0  0  0  0  0  2  0  0  0  0  0  0
  179.9550  178.0990  142.7490 C   0  0  0  0  0  0  0  0  0  0  0  0
  179.2840  177.5030  141.8670 O   0  0  0  0  0  0  0  0  0  0  0  0
  179.6800  177.8800  144.0920 O   0  0  0  0  0  1  0  0  0  0  0  0
  1 20  1  0  0  0  0
  2 24  1  6  0  0  0
  2 12  1  0  0  0  0
  4  3  1  0  0  0  0
  5 25  1  1  0  0  0
  5  6  1  0  0  0  0
  5 27  1  0  0  0  0
  6 18  1  1  0  0  0
  6 28  1  0  0  0  0
  7 19  1  6  0  0  0
  7 17  1  0  0  0  0
  9 26  1  0  0  0  0
 10 20  1  0  0  0  0
 11  3  1  0  0  0  0
 12 13  1  0  0  0  0
 12  8  1  1  0  0  0
 13 11  1  1  0  0  0
 14 23  1  1  0  0  0
 14 22  1  0  0  0  0
 15  9  1  0  0  0  0
 16  1  1  0  0  0  0
 17  8  1  1  0  0  0
 17 10  1  0  0  0  0
 18 15  1  0  0  0  0
 19 16  1  0  0  0  0
 20 29  1  1  0  0  0
 21  4  1  0  0  0  0
 22 21  1  1  0  0  0
 22 13  1  0  0  0  0
 24  7  1  0  0  0  0
 27 14  1  0  0  0  0
 27  2  1  0  0  0  0
 28  9  1  0  0  0  0
 28 23  2  0  0  0  0
 29 30  1  0  0  0  0
 30 32  1  0  0  0  0
 31 30  2  0  0  0  0
M  END
>  <MODEL>
6

>  <REMARK>
 VINA RESULT:      -6.1      3.876      4.883
  Name = 
  2 active torsions:
  status: ('A' for Active; 'I' for Inactive)
    1  A    between atoms: C_20  and  C_29
    2  A    between atoms: C_29  and  C_30
                            x       y       z     vdW  Elec       q    Type
                         _______ _______ _______ _____ _____    ______ ____

>  <TORSDO>
F 2

$$$$
=
 OpenBabel11122410393D

 32 37  0  0  1  0  0  0  0  0999 V2000
  186.4170  175.8470  136.9720 C   0  0  0  0  0  2  0  0  0  0  0  0
  181.8000  178.2750  137.6910 C   0  0  1  0  0  3  0  0  0  0  0  0
  181.0560  179.5670  142.4360 C   0  0  0  0  0  2  0  0  0  0  0  0
  179.9870  180.3180  141.7730 N   0  0  0  0  0  2  0  0  0  0  0  0
  179.7720  178.3870  136.0930 C   0  0  1  0  0  3  0  0  0  0  0  0
  179.5890  179.8830  135.7390 C   0  0  2  0  0  3  0  0  0  0  0  0
  183.8300  177.7930  136.8400 C   0  0  1  0  0  3  0  0  0  0  0  0
  183.7200  178.3990  139.2630 C   0  0  0  0  0  2  0  0  0  0  0  0
  180.2310  182.0680  136.4600 N   0  0  0  0  0  0  0  0  0  0  0  0
  185.9730  178.0120  138.2620 C   0  0  0  0  0  2  0  0  0  0  0  0
  181.8330  178.6830  141.4460 C   0  0  0  0  0  2  0  0  0  0  0  0
  182.2180  178.0920  139.1690 C   0  0  1  0  0  3  0  0  0  0  0  0
  181.4510  178.9780  140.0600 N   0  0  1  0  0  0  0  0  0  0  0  0
  179.5160  178.9800  138.5140 C   0  0  1  0  0  3  0  0  0  0  0  0
  180.6950  181.9580  135.0880 C   0  0  0  0  0  2  0  0  0  0  0  0
  185.1660  175.7380  136.0810 C   0  0  0  0  0  2  0  0  0  0  0  0
  184.4990  177.6030  138.2200 C   0  0  2  0  0  3  0  0  0  0  0  0
  180.5620  180.4710  134.7180 C   0  0  0  0  0  2  0  0  0  0  0  0
  184.5520  177.0860  135.6860 C   0  0  0  0  0  2  0  0  0  0  0  0
  186.8680  177.2860  137.2430 C   0  0  1  0  0  3  0  0  0  0  0  0
  179.1660  179.3980  140.9870 C   0  0  0  0  0  2  0  0  0  0  0  0
  180.0140  178.6720  139.9270 C   0  0  2  0  0  3  0  0  0  0  0  0
  179.7180  180.4310  138.1650 C   0  0  0  0  0  3  0  0  0  0  0  0
  182.4990  177.3470  136.8990 O   0  0  0  0  0  0  0  0  0  0  0  0
  180.4660  177.6310  135.0610 N   0  0  0  0  0  1  0  0  0  0  0  0
  180.6480  183.1440  137.3440 C   0  0  0  0  0  1  0  0  0  0  0  0
  180.2810  178.0900  137.5190 C   0  0  2  0  0  3  0  0  0  0  0  0
  179.7220  180.8180  136.8870 C   0  0  0  0  0  0  0  0  0  0  0  0
  188.3100  177.2870  137.7190 C   0  0  0  0  0  2  0  0  0  0  0  0
  188.7410  178.6610  138.1020 C   0  0  0  0  0  0  0  0  0  0  0  0
  188.8950  179.5430  137.2190 O   0  0  0  0  0  0  0  0  0  0  0  0
  188.9410  178.9790  139.4390 O   0  0  0  0  0  1  0  0  0  0  0  0
  1 20  1  0  0  0  0
  2 24  1  6  0  0  0
  2 12  1  0  0  0  0
  4  3  1  0  0  0  0
  5 25  1  6  0  0  0
  5 27  1  0  0  0  0
  6 18  1  6  0  0  0
  6  5  1  0  0  0  0
  6 28  1  0  0  0  0
  7 19  1  6  0  0  0
  7 24  1  0  0  0  0
  7 17  1  0  0  0  0
  9 28  1  0  0  0  0
  9 26  1  0  0  0  0
 11  3  1  0  0  0  0
 12  8  1  6  0  0  0
 12 13  1  0  0  0  0
 13 11  1  1  0  0  0
 14 23  1  6  0  0  0
 14 22  1  0  0  0  0
 15  9  1  0  0  0  0
 16  1  1  0  0  0  0
 17 10  1  6  0  0  0
 17  8  1  0  0  0  0
 18 15  1  0  0  0  0
 19 16  1  0  0  0  0
 20 29  1  1  0  0  0
 20 10  1  0  0  0  0
 21  4  1  0  0  0  0
 22 13  1  0  0  0  0
 22 21  1  1  0  0  0
 27  2  1  0  0  0  0
 27 14  1  0  0  0  0
 28 23  2  0  0  0  0
 29 30  1  0  0  0  0
 30 32  1  0  0  0  0
 31 30  2  0  0  0  0
M  END
>  <MODEL>
7

>  <REMARK>
 VINA RESULT:      -6.1      4.401      7.526
  Name = 
  2 active torsions:
  status: ('A' for Active; 'I' for Inactive)
    1  A    between atoms: C_20  and  C_29
    2  A    between atoms: C_29  and  C_30
                            x       y       z     vdW  Elec       q    Type
                         _______ _______ _______ _____ _____    ______ ____

>  <TORSDO>
F 2

$$$$
=
 OpenBabel11122410393D

 32 37  0  0  1  0  0  0  0  0999 V2000
  180.4950  179.8370  141.0830 C   0  0  0  0  0  2  0  0  0  0  0  0
  183.1880  177.2490  137.3700 C   0  0  1  0  0  3  0  0  0  0  0  0
  188.1090  177.6980  137.9380 C   0  0  0  0  0  2  0  0  0  0  0  0
  188.0410  176.6210  136.9480 N   0  0  0  0  0  2  0  0  0  0  0  0
  182.3290  176.2900  135.1290 C   0  0  1  0  0  3  0  0  0  0  0  0
  182.5380  174.7590  135.2120 C   0  0  2  0  0  3  0  0  0  0  0  0
  181.7070  177.6520  139.0210 C   0  0  1  0  0  3  0  0  0  0  0  0
  184.1290  177.9660  139.5560 C   0  0  0  0  0  2  0  0  0  0  0  0
  183.7170  173.0960  136.4570 N   0  0  0  0  0  0  0  0  0  0  0  0
  182.4810  178.2560  141.4080 C   0  0  0  0  0  2  0  0  0  0  0  0
  186.7150  178.2530  138.2770 C   0  0  0  0  0  2  0  0  0  0  0  0
  184.3550  178.0150  138.0380 C   0  0  1  0  0  3  0  0  0  0  0  0
  185.6570  177.4230  137.6890 N   0  0  1  0  0  0  0  0  0  0  0  0
  184.7850  176.5970  135.5220 C   0  0  1  0  0  3  0  0  0  0  0  0
  182.3110  172.7570  136.5870 C   0  0  0  0  0  2  0  0  0  0  0  0
  179.9940  179.4450  139.6800 C   0  0  0  0  0  2  0  0  0  0  0  0
  182.7140  178.4210  139.9040 C   0  0  2  0  0  3  0  0  0  0  0  0
  181.5350  173.9730  136.0550 C   0  0  0  0  0  2  0  0  0  0  0  0
  180.2360  177.9760  139.3110 C   0  0  0  0  0  2  0  0  0  0  0  0
  181.0800  178.6710  141.8870 C   0  0  1  0  0  3  0  0  0  0  0  0
  187.2570  177.0710  135.7980 C   0  0  0  0  0  2  0  0  0  0  0  0
  185.8310  177.4640  136.2240 C   0  0  2  0  0  3  0  0  0  0  0  0
  184.8790  175.1600  135.9630 C   0  0  0  0  0  3  0  0  0  0  0  0
  181.9810  177.9070  137.6660 O   0  0  0  0  0  0  0  0  0  0  0  0
  180.9610  176.7010  135.4080 N   0  0  0  0  0  1  0  0  0  0  0  0
  184.7510  172.4840  137.2760 C   0  0  0  0  0  1  0  0  0  0  0  0
  183.3880  177.1550  135.8470 C   0  0  2  0  0  3  0  0  0  0  0  0
  183.8430  174.3360  135.7850 C   0  0  0  0  0  0  0  0  0  0  0  0
  181.1170  179.0370  143.3610 C   0  0  0  0  0  2  0  0  0  0  0  0
  179.8690  178.5980  144.0470 C   0  0  0  0  0  0  0  0  0  0  0  0
  178.9730  179.4380  144.3220 O   0  0  0  0  0  0  0  0  0  0  0  0
  179.6780  177.2580  144.3540 O   0  0  0  0  0  1  0  0  0  0  0  0
  1 20  1  0  0  0  0
  2 24  1  6  0  0  0
  2 12  1  0  0  0  0
  3 11  1  0  0  0  0
  4  3  1  0  0  0  0
  5  6  1  0  0  0  0
  5 25  1  1  0  0  0
  5 27  1  0  0  0  0
  6 28  1  0  0  0  0
  6 18  1  1  0  0  0
  7 19  1  1  0  0  0
  7 17  1  0  0  0  0
  9 15  1  0  0  0  0
  9 26  1  0  0  0  0
 10 20  1  0  0  0  0
 12  8  1  1  0  0  0
 13 12  1  0  0  0  0
 13 11  1  1  0  0  0
 14 27  1  0  0  0  0
 14 23  1  1  0  0  0
 14 22  1  0  0  0  0
 16  1  1  0  0  0  0
 17  8  1  1  0  0  0
 17 10  1  0  0  0  0
 18 15  1  0  0  0  0
 19 16  1  0  0  0  0
 20 29  1  1  0  0  0
 21  4  1  0  0  0  0
 22 21  1  1  0  0  0
 22 13  1  0  0  0  0
 24  7  1  0  0  0  0
 27  2  1  0  0  0  0
 28 23  2  0  0  0  0
 28  9  1  0  0  0  0
 29 30  1  0  0  0  0
 30 31  2  0  0  0  0
 30 32  1  0  0  0  0
M  END
>  <MODEL>
8

>  <REMARK>
 VINA RESULT:      -6.1      3.996      4.951
  Name = 
  2 active torsions:
  status: ('A' for Active; 'I' for Inactive)
    1  A    between atoms: C_20  and  C_29
    2  A    between atoms: C_29  and  C_30
                            x       y       z     vdW  Elec       q    Type
                         _______ _______ _______ _____ _____    ______ ____

>  <TORSDO>
F 2

$$$$
=
 OpenBabel11122410393D

 32 37  0  0  1  0  0  0  0  0999 V2000
  181.7110  179.2600  141.3510 C   0  0  0  0  0  2  0  0  0  0  0  0
  184.1780  176.8850  137.3500 C   0  0  1  0  0  3  0  0  0  0  0  0
  188.8070  178.5830  136.7010 C   0  0  0  0  0  2  0  0  0  0  0  0
  188.8290  177.3890  135.8530 N   0  0  0  0  0  2  0  0  0  0  0  0
  183.1660  175.4320  135.4670 C   0  0  1  0  0  3  0  0  0  0  0  0
  183.7890  174.0250  135.6320 C   0  0  2  0  0  3  0  0  0  0  0  0
  183.0140  177.1550  139.2610 C   0  0  1  0  0  3  0  0  0  0  0  0
  185.3190  178.1180  139.1810 C   0  0  0  0  0  2  0  0  0  0  0  0
  185.5990  172.8950  136.7050 N   0  0  0  0  0  0  0  0  0  0  0  0
  184.0710  178.2680  141.3360 C   0  0  0  0  0  2  0  0  0  0  0  0
  187.4160  178.8290  137.3090 C   0  0  0  0  0  2  0  0  0  0  0  0
  185.2090  177.9980  137.6540 C   0  0  1  0  0  3  0  0  0  0  0  0
  186.5210  177.6920  137.0610 N   0  0  1  0  0  0  0  0  0  0  0  0
  185.4760  176.3750  135.2420 C   0  0  1  0  0  3  0  0  0  0  0  0
  184.3920  172.2500  137.1920 C   0  0  0  0  0  2  0  0  0  0  0  0
  181.0570  178.5590  140.1460 C   0  0  0  0  0  2  0  0  0  0  0  0
  183.9380  178.2640  139.8110 C   0  0  2  0  0  3  0  0  0  0  0  0
  183.2280  173.1520  136.7530 C   0  0  0  0  0  2  0  0  0  0  0  0
  181.6020  177.1550  139.8610 C   0  0  0  0  0  2  0  0  0  0  0  0
  182.7380  178.3990  142.0940 C   0  0  1  0  0  3  0  0  0  0  0  0
  187.7340  177.4650  134.8850 C   0  0  0  0  0  2  0  0  0  0  0  0
  186.3740  177.5610  135.5990 C   0  0  2  0  0  3  0  0  0  0  0  0
  186.0400  175.0820  135.7730 C   0  0  0  0  0  3  0  0  0  0  0  0
  182.9260  177.2690  137.8630 O   0  0  0  0  0  0  0  0  0  0  0  0
  181.8250  175.5380  136.0230 N   0  0  0  0  0  1  0  0  0  0  0  0
  186.9030  172.6750  137.3080 C   0  0  0  0  0  1  0  0  0  0  0  0
  184.0790  176.6210  135.8370 C   0  0  2  0  0  3  0  0  0  0  0  0
  185.2480  174.0170  135.9170 C   0  0  0  0  0  0  0  0  0  0  0  0
  182.9780  178.9730  143.4790 C   0  0  0  0  0  2  0  0  0  0  0  0
  184.4370  179.0740  143.7660 C   0  0  0  0  0  0  0  0  0  0  0  0
  185.0200  180.1850  143.6860 O   0  0  0  0  0  0  0  0  0  0  0  0
  185.1480  177.9460  144.1540 O   0  0  0  0  0  1  0  0  0  0  0  0
  1 20  1  0  0  0  0
  2 12  1  0  0  0  0
  2 24  1  6  0  0  0
  3 11  1  0  0  0  0
  4  3  1  0  0  0  0
  5  6  1  0  0  0  0
  5 27  1  0  0  0  0
  5 25  1  1  0  0  0
  6 28  1  0  0  0  0
  6 18  1  1  0  0  0
  7 17  1  0  0  0  0
  7 19  1  1  0  0  0
  9 15  1  0  0  0  0
  9 26  1  0  0  0  0
 10 20  1  0  0  0  0
 12  8  1  1  0  0  0
 13 11  1  6  0  0  0
 13 12  1  0  0  0  0
 14 22  1  0  0  0  0
 14 23  1  1  0  0  0
 14 27  1  0  0  0  0
 16  1  1  0  0  0  0
 17  8  1  6  0  0  0
 17 10  1  0  0  0  0
 18 15  1  0  0  0  0
 19 16  1  0  0  0  0
 20 29  1  1  0  0  0
 21  4  1  0  0  0  0
 22 21  1  6  0  0  0
 22 13  1  0  0  0  0
 23 28  2  0  0  0  0
 24  7  1  0  0  0  0
 27  2  1  0  0  0  0
 28  9  1  0  0  0  0
 29 30  1  0  0  0  0
 30 32  1  0  0  0  0
 31 30  2  0  0  0  0
M  END
>  <MODEL>
9

>  <REMARK>
 VINA RESULT:      -5.8      2.550      3.941
  Name = 
  2 active torsions:
  status: ('A' for Active; 'I' for Inactive)
    1  A    between atoms: C_20  and  C_29
    2  A    between atoms: C_29  and  C_30
                            x       y       z     vdW  Elec       q    Type
                         _______ _______ _______ _____ _____    ______ ____

>  <TORSDO>
F 2

$$$$
