=
 OpenBabel11122411483D

 37 43  0  0  1  0  0  0  0  0999 V2000
  190.3820  176.8740  138.8790 C   0  0  0  0  0  0  0  0  0  0  0  0
  187.0390  178.1640  137.4770 C   0  0  1  0  0  3  0  0  0  0  0  0
  184.7800  179.4860  139.4160 O   0  0  0  0  0  0  0  0  0  0  0  0
  189.5470  178.1060  136.8530 C   0  0  2  0  0  3  0  0  0  0  0  0
  186.4710  177.8470  138.8600 C   0  0  2  0  0  3  0  0  0  0  0  0
  188.4520  178.6510  137.7770 C   0  0  2  0  0  3  0  0  0  0  0  0
  184.9700  178.1640  138.9860 C   0  0  2  0  0  3  0  0  0  0  0  0
  189.0190  177.9340  135.5000 N   0  0  0  0  0  2  0  0  0  0  0  0
  188.6650  178.3850  139.2650 C   0  0  2  0  0  3  0  0  0  0  0  0
  191.2720  177.8720  139.2500 F   0  0  0  0  0  0  0  0  0  0  0  0
  185.5820  176.7040  136.0190 C   0  0  0  0  0  2  0  0  0  0  0  0
  187.9950  176.8800  135.4430 C   0  0  0  0  0  2  0  0  0  0  0  0
  189.1170  177.0570  139.4750 O   0  0  0  0  0  0  0  0  0  0  0  0
  184.7030  178.6560  141.7350 C   0  0  0  0  0  2  0  0  0  0  0  0
  184.0170  179.4270  140.5980 C   0  0  0  0  0  2  0  0  0  0  0  0
  186.9800  176.9020  136.6020 C   0  0  1  0  0  3  0  0  0  0  0  0
  187.3190  178.5590  139.8270 N   0  0  2  0  0  0  0  0  0  0  0  0
  190.2230  176.8310  137.3640 C   0  0  0  0  0  2  0  0  0  0  0  0
  184.1440  177.8600  137.7200 C   0  0  1  0  0  3  0  0  0  0  0  0
  190.8930  175.6600  139.2950 F   0  0  0  0  0  0  0  0  0  0  0  0
  186.1510  179.0730  141.9110 C   0  0  0  0  0  2  0  0  0  0  0  0
  187.1030  178.0960  141.2190 C   0  0  2  0  0  3  0  0  0  0  0  0
  184.5120  176.5170  137.0900 C   0  0  0  0  0  2  0  0  0  0  0  0
  181.9020  179.1010  137.4440 C   0  0  0  0  0  2  0  0  0  0  0  0
  182.6710  177.9250  137.9960 C   0  0  0  0  0  0  0  0  0  0  0  0
  182.0720  176.9680  138.7150 C   0  0  0  0  0  3  0  0  0  0  0  0
  180.0700  176.1480  139.6600 O   0  0  0  0  0  0  0  0  0  0  0  0
  179.8810  178.1540  138.4900 N   0  0  0  0  0  0  0  0  0  0  0  0
  180.6370  177.0480  138.9870 C   0  0  0  0  0  0  0  0  0  0  0  0
  180.4320  179.0980  137.7900 C   0  0  0  0  0  3  0  0  0  0  0  0
  188.3890  178.0510  142.0610 C   0  0  1  0  0  3  0  0  0  0  0  0
  188.0730  177.6340  143.4660 N   0  0  0  0  0  0  0  0  0  0  0  0
  188.6810  176.7520  142.4310 C   0  0  2  0  0  3  0  0  0  0  0  0
  190.1630  176.6070  142.7110 C   0  0  0  0  0  2  0  0  0  0  0  0
  190.4840  175.2570  142.8310 O   0  0  0  0  0  1  0  0  0  0  0  0
  186.3670  177.4920  145.1230 C   0  0  0  0  0  2  0  0  0  0  0  0
  187.5890  177.8750  144.7820 C   0  0  0  0  0  3  0  0  0  0  0  0
  1 10  1  0  0  0  0
  1 20  1  0  0  0  0
  1 13  1  0  0  0  0
  2  6  1  0  0  0  0
  2  5  1  0  0  0  0
  3 15  1  0  0  0  0
  4 18  1  0  0  0  0
  4  6  1  0  0  0  0
  5  7  1  0  0  0  0
  5 17  1  0  0  0  0
  6  9  1  0  0  0  0
  7  3  1  0  0  0  0
  8  4  1  0  0  0  0
  9 13  1  0  0  0  0
  9 17  1  0  0  0  0
 11 16  1  0  0  0  0
 11 23  1  0  0  0  0
 12  8  1  0  0  0  0
 12 16  1  0  0  0  0
 14 21  1  0  0  0  0
 15 14  1  0  0  0  0
 16  2  1  0  0  0  0
 17 22  1  0  0  0  0
 18  1  1  0  0  0  0
 19 25  1  0  0  0  0
 19  7  1  0  0  0  0
 22 21  1  0  0  0  0
 22 31  1  0  0  0  0
 23 19  1  0  0  0  0
 24 30  1  0  0  0  0
 24 25  1  0  0  0  0
 25 26  2  0  0  0  0
 26 29  1  0  0  0  0
 28 29  1  0  0  0  0
 29 27  2  0  0  0  0
 30 28  2  0  0  0  0
 31 33  1  0  0  0  0
 31 32  1  0  0  0  0
 32 37  1  0  0  0  0
 33 34  1  0  0  0  0
 33 32  1  0  0  0  0
 34 35  1  0  0  0  0
 37 36  2  0  0  0  0
M  END
>  <MODEL>
1

>  <REMARK>
 VINA RESULT:      -8.2      0.000      0.000
  Name = 
  4 active torsions:
  status: ('A' for Active; 'I' for Inactive)
    1  A    between atoms: C_1  and  C_27
    2  A    between atoms: N_4  and  C_37
    3  A    between atoms: C_8  and  C_12
    4  A    between atoms: C_23  and  C_30
                            x       y       z     vdW  Elec       q    Type
                         _______ _______ _______ _____ _____    ______ ____

>  <TORSDO>
F 4

$$$$
=
 OpenBabel11122411483D

 37 43  0  0  1  0  0  0  0  0999 V2000
  185.9450  178.9430  146.3430 C   0  0  0  0  0  0  0  0  0  0  0  0
  186.9380  177.4950  142.9200 C   0  0  1  0  0  3  0  0  0  0  0  0
  189.5970  175.6490  142.5630 O   0  0  0  0  0  0  0  0  0  0  0  0
  184.8200  177.9360  144.3340 C   0  0  2  0  0  3  0  0  0  0  0  0
  188.3710  177.5370  143.4500 C   0  0  2  0  0  3  0  0  0  0  0  0
  186.1150  177.1370  144.1510 C   0  0  2  0  0  3  0  0  0  0  0  0
  189.4090  177.0330  142.4310 C   0  0  2  0  0  3  0  0  0  0  0  0
  184.2350  178.2440  143.0290 N   0  0  0  0  0  2  0  0  0  0  0  0
  187.0900  177.2020  145.3240 C   0  0  2  0  0  3  0  0  0  0  0  0
  185.4280  178.0110  147.2320 F   0  0  0  0  0  0  0  0  0  0  0  0
  187.1420  178.9770  140.8840 C   0  0  0  0  0  2  0  0  0  0  0  0
  185.0790  179.1680  142.2570 C   0  0  0  0  0  2  0  0  0  0  0  0
  187.1870  178.5290  145.8190 O   0  0  0  0  0  0  0  0  0  0  0  0
  191.4700  176.1120  144.0970 C   0  0  0  0  0  2  0  0  0  0  0  0
  190.9690  175.4430  142.8090 C   0  0  0  0  0  2  0  0  0  0  0  0
  186.5860  178.8570  142.3020 C   0  0  1  0  0  3  0  0  0  0  0  0
  188.3640  176.7920  144.7180 N   0  0  2  0  0  0  0  0  0  0  0  0
  184.9720  179.1910  145.1970 C   0  0  0  0  0  2  0  0  0  0  0  0
  189.1120  177.4230  140.9690 C   0  0  1  0  0  3  0  0  0  0  0  0
  186.1280  180.1330  147.0200 F   0  0  0  0  0  0  0  0  0  0  0  0
  190.5470  175.8440  145.2710 C   0  0  0  0  0  2  0  0  0  0  0  0
  189.5950  177.0170  145.5140 C   0  0  2  0  0  3  0  0  0  0  0  0
  188.6640  178.8780  140.8310 C   0  0  0  0  0  2  0  0  0  0  0  0
  190.0160  176.5080  138.7360 C   0  0  0  0  0  2  0  0  0  0  0  0
  190.2850  177.1470  140.0760 C   0  0  0  0  0  0  0  0  0  0  0  0
  191.5260  177.4570  140.4710 C   0  0  0  0  0  3  0  0  0  0  0  0
  193.8320  177.4670  139.9640 O   0  0  0  0  0  0  0  0  0  0  0  0
  192.4460  176.5570  138.3260 N   0  0  0  0  0  0  0  0  0  0  0  0
  192.6640  177.1740  139.5970 C   0  0  0  0  0  0  0  0  0  0  0  0
  191.2550  176.2450  137.9140 C   0  0  0  0  0  3  0  0  0  0  0  0
  189.3450  177.0850  147.0300 C   0  0  1  0  0  3  0  0  0  0  0  0
  190.6390  177.2940  147.7580 N   0  0  0  0  0  0  0  0  0  0  0  0
  189.6200  178.3510  147.5090 C   0  0  2  0  0  3  0  0  0  0  0  0
  188.8490  178.6070  148.7880 C   0  0  0  0  0  2  0  0  0  0  0  0
  187.9160  177.5900  148.9800 O   0  0  0  0  0  1  0  0  0  0  0  0
  192.4660  175.7650  147.8060 C   0  0  0  0  0  2  0  0  0  0  0  0
  191.8790  176.8470  148.2950 C   0  0  0  0  0  3  0  0  0  0  0  0
  1 20  1  0  0  0  0
  1 10  1  0  0  0  0
  2  5  1  0  0  0  0
  2  6  1  0  0  0  0
  3 15  1  0  0  0  0
  4 18  1  0  0  0  0
  5 17  1  0  0  0  0
  6  4  1  0  0  0  0
  6  9  1  0  0  0  0
  7  3  1  0  0  0  0
  7  5  1  0  0  0  0
  8  4  1  0  0  0  0
  9 13  1  0  0  0  0
 11 16  1  0  0  0  0
 12 16  1  0  0  0  0
 12  8  1  0  0  0  0
 13  1  1  0  0  0  0
 14 21  1  0  0  0  0
 15 14  1  0  0  0  0
 16  2  1  0  0  0  0
 17  9  1  0  0  0  0
 17 22  1  0  0  0  0
 18  1  1  0  0  0  0
 19  7  1  0  0  0  0
 21 22  1  0  0  0  0
 22 31  1  0  0  0  0
 23 11  1  0  0  0  0
 23 19  1  0  0  0  0
 24 25  1  0  0  0  0
 25 26  2  0  0  0  0
 25 19  1  0  0  0  0
 28 29  1  0  0  0  0
 29 27  2  0  0  0  0
 29 26  1  0  0  0  0
 30 28  2  0  0  0  0
 30 24  1  0  0  0  0
 31 33  1  0  0  0  0
 31 32  1  0  0  0  0
 32 37  1  0  0  0  0
 33 32  1  0  0  0  0
 33 34  1  0  0  0  0
 34 35  1  0  0  0  0
 36 37  2  0  0  0  0
M  END
>  <MODEL>
2

>  <REMARK>
 VINA RESULT:      -8.1      4.505      7.935
  Name = 
  4 active torsions:
  status: ('A' for Active; 'I' for Inactive)
    1  A    between atoms: C_1  and  C_27
    2  A    between atoms: N_4  and  C_37
    3  A    between atoms: C_8  and  C_12
    4  A    between atoms: C_23  and  C_30
                            x       y       z     vdW  Elec       q    Type
                         _______ _______ _______ _____ _____    ______ ____

>  <TORSDO>
F 4

$$$$
=
 OpenBabel11122411483D

 37 43  0  0  1  0  0  0  0  0999 V2000
  186.6330  177.3630  138.1310 C   0  0  0  0  0  0  0  0  0  0  0  0
  187.1940  178.5760  141.7390 C   0  0  1  0  0  3  0  0  0  0  0  0
  190.1800  178.7500  143.0280 O   0  0  0  0  0  0  0  0  0  0  0  0
  185.7220  179.1160  139.6840 C   0  0  2  0  0  3  0  0  0  0  0  0
  188.4420  177.6940  141.7170 C   0  0  2  0  0  3  0  0  0  0  0  0
  187.1170  179.1190  140.3170 C   0  0  2  0  0  3  0  0  0  0  0  0
  189.2270  177.7200  143.0410 C   0  0  2  0  0  3  0  0  0  0  0  0
  184.7090  179.3780  140.7080 N   0  0  0  0  0  2  0  0  0  0  0  0
  188.1870  178.3600  139.5360 C   0  0  2  0  0  3  0  0  0  0  0  0
  187.0110  178.2730  137.1540 F   0  0  0  0  0  0  0  0  0  0  0  0
  185.9280  177.5560  143.6720 C   0  0  0  0  0  2  0  0  0  0  0  0
  184.6240  178.2810  141.6840 C   0  0  0  0  0  2  0  0  0  0  0  0
  187.6730  177.1280  139.0540 O   0  0  0  0  0  0  0  0  0  0  0  0
  191.8330  177.1240  142.1910 C   0  0  0  0  0  2  0  0  0  0  0  0
  191.4330  178.1500  143.2610 C   0  0  0  0  0  2  0  0  0  0  0  0
  185.9810  177.7290  142.1560 C   0  0  1  0  0  3  0  0  0  0  0  0
  189.2250  178.1170  140.5460 N   0  0  2  0  0  0  0  0  0  0  0  0
  185.3990  177.8560  138.8780 C   0  0  0  0  0  2  0  0  0  0  0  0
  188.3460  177.7840  144.3050 C   0  0  1  0  0  3  0  0  0  0  0  0
  186.3160  176.1690  137.5120 F   0  0  0  0  0  0  0  0  0  0  0  0
  191.6130  177.6550  140.7870 C   0  0  0  0  0  2  0  0  0  0  0  0
  190.2930  177.1490  140.1990 C   0  0  2  0  0  3  0  0  0  0  0  0
  187.1500  176.8360  144.2330 C   0  0  0  0  0  2  0  0  0  0  0  0
  188.6760  178.1640  146.8320 C   0  0  0  0  0  2  0  0  0  0  0  0
  189.1470  177.5290  145.5470 C   0  0  0  0  0  0  0  0  0  0  0  0
  190.2450  176.7650  145.5010 C   0  0  0  0  0  3  0  0  0  0  0  0
  192.0560  175.8100  146.6770 O   0  0  0  0  0  0  0  0  0  0  0  0
  190.6140  177.1280  147.9480 N   0  0  0  0  0  0  0  0  0  0  0  0
  191.0250  176.5310  146.7160 C   0  0  0  0  0  0  0  0  0  0  0  0
  189.5540  177.8730  148.0260 C   0  0  0  0  0  3  0  0  0  0  0  0
  190.5100  176.9870  138.6850 C   0  0  1  0  0  3  0  0  0  0  0  0
  191.8310  176.3290  138.4190 N   0  0  0  0  0  0  0  0  0  0  0  0
  190.5080  175.6500  138.3360 C   0  0  2  0  0  3  0  0  0  0  0  0
  190.1250  175.4890  136.8790 C   0  0  0  0  0  2  0  0  0  0  0  0
  189.7110  176.7170  136.3680 O   0  0  0  0  0  1  0  0  0  0  0  0
  193.8920  175.2300  137.9500 C   0  0  0  0  0  2  0  0  0  0  0  0
  193.2500  176.3310  138.3090 C   0  0  0  0  0  3  0  0  0  0  0  0
  1 18  1  0  0  0  0
  1 13  1  0  0  0  0
  2 16  1  0  0  0  0
  3  7  1  0  0  0  0
  3 15  1  0  0  0  0
  4  6  1  0  0  0  0
  4  8  1  0  0  0  0
  5  2  1  0  0  0  0
  5  7  1  0  0  0  0
  6  2  1  0  0  0  0
  7 19  1  0  0  0  0
  8 12  1  0  0  0  0
  9  6  1  0  0  0  0
  9 17  1  0  0  0  0
 10  1  1  0  0  0  0
 11 23  1  0  0  0  0
 12 16  1  0  0  0  0
 13  9  1  0  0  0  0
 14 15  1  0  0  0  0
 16 11  1  0  0  0  0
 17  5  1  0  0  0  0
 18  4  1  0  0  0  0
 19 25  1  0  0  0  0
 20  1  1  0  0  0  0
 21 14  1  0  0  0  0
 22 17  1  0  0  0  0
 22 21  1  0  0  0  0
 23 19  1  0  0  0  0
 24 30  1  0  0  0  0
 25 24  1  0  0  0  0
 26 25  2  0  0  0  0
 26 29  1  0  0  0  0
 27 29  2  0  0  0  0
 28 30  2  0  0  0  0
 29 28  1  0  0  0  0
 31 22  1  0  0  0  0
 32 31  1  0  0  0  0
 33 32  1  0  0  0  0
 33 31  1  0  0  0  0
 34 33  1  0  0  0  0
 35 34  1  0  0  0  0
 36 37  2  0  0  0  0
 37 32  1  0  0  0  0
M  END
>  <MODEL>
3

>  <REMARK>
 VINA RESULT:      -7.5      3.011      7.642
  Name = 
  4 active torsions:
  status: ('A' for Active; 'I' for Inactive)
    1  A    between atoms: C_1  and  C_27
    2  A    between atoms: N_4  and  C_37
    3  A    between atoms: C_8  and  C_12
    4  A    between atoms: C_23  and  C_30
                            x       y       z     vdW  Elec       q    Type
                         _______ _______ _______ _____ _____    ______ ____

>  <TORSDO>
F 4

$$$$
=
 OpenBabel11122411483D

 37 43  0  0  1  0  0  0  0  0999 V2000
  190.6910  176.2630  138.0800 C   0  0  0  0  0  0  0  0  0  0  0  0
  187.4180  178.2500  137.6990 C   0  0  1  0  0  3  0  0  0  0  0  0
  185.8670  179.4790  140.2860 O   0  0  0  0  0  0  0  0  0  0  0  0
  189.6990  177.9620  136.5170 C   0  0  2  0  0  3  0  0  0  0  0  0
  187.0930  177.7570  139.1090 C   0  0  2  0  0  3  0  0  0  0  0  0
  188.9260  178.4680  137.7400 C   0  0  2  0  0  3  0  0  0  0  0  0
  185.7280  178.2500  139.6240 C   0  0  2  0  0  3  0  0  0  0  0  0
  188.8870  178.1270  135.3110 N   0  0  0  0  0  2  0  0  0  0  0  0
  189.3830  177.8970  139.0790 C   0  0  2  0  0  3  0  0  0  0  0  0
  191.8000  177.0380  138.3880 F   0  0  0  0  0  0  0  0  0  0  0  0
  185.4630  177.3110  136.4050 C   0  0  0  0  0  2  0  0  0  0  0  0
  187.7020  177.2560  135.3270 C   0  0  0  0  0  2  0  0  0  0  0  0
  189.6250  176.5030  138.9710 O   0  0  0  0  0  0  0  0  0  0  0  0
  186.1110  178.2410  142.4030 C   0  0  0  0  0  2  0  0  0  0  0  0
  185.3590  179.3020  141.5880 C   0  0  0  0  0  2  0  0  0  0  0  0
  186.9620  177.1980  136.6760 C   0  0  1  0  0  3  0  0  0  0  0  0
  188.2300  178.1460  139.9550 N   0  0  2  0  0  0  0  0  0  0  0  0
  190.2260  176.5320  136.6540 C   0  0  0  0  0  2  0  0  0  0  0  0
  184.6240  178.3100  138.5490 C   0  0  1  0  0  3  0  0  0  0  0  0
  191.0520  174.9320  138.1740 F   0  0  0  0  0  0  0  0  0  0  0  0
  187.6150  178.4110  142.3060 C   0  0  0  0  0  2  0  0  0  0  0  0
  188.2200  177.4610  141.2700 C   0  0  2  0  0  3  0  0  0  0  0  0
  184.6140  177.0740  137.6500 C   0  0  0  0  0  2  0  0  0  0  0  0
  182.6830  177.4060  139.9840 C   0  0  0  0  0  2  0  0  0  0  0  0
  183.2720  178.5270  139.1620 C   0  0  0  0  0  0  0  0  0  0  0  0
  182.6170  179.6790  138.9730 C   0  0  0  0  0  3  0  0  0  0  0  0
  180.6790  180.9590  139.3940 O   0  0  0  0  0  0  0  0  0  0  0  0
  180.7030  178.8300  140.3400 N   0  0  0  0  0  0  0  0  0  0  0  0
  181.2950  179.8750  139.5670 C   0  0  0  0  0  0  0  0  0  0  0  0
  181.3120  177.7010  140.5420 C   0  0  0  0  0  3  0  0  0  0  0  0
  189.6200  177.0770  141.7780 C   0  0  1  0  0  3  0  0  0  0  0  0
  189.9260  177.8050  143.0520 N   0  0  0  0  0  0  0  0  0  0  0  0
  189.5300  176.3720  142.9620 C   0  0  2  0  0  3  0  0  0  0  0  0
  190.7580  175.5060  143.1510 C   0  0  0  0  0  2  0  0  0  0  0  0
  191.3870  175.8450  144.3480 O   0  0  0  0  0  1  0  0  0  0  0  0
  191.5900  179.2050  144.0240 C   0  0  0  0  0  2  0  0  0  0  0  0
  190.3100  178.9560  143.7950 C   0  0  0  0  0  3  0  0  0  0  0  0
  1 20  1  0  0  0  0
  1 10  1  0  0  0  0
  1 13  1  0  0  0  0
  2  6  1  0  0  0  0
  2  5  1  0  0  0  0
  3 15  1  0  0  0  0
  4 18  1  0  0  0  0
  4  6  1  0  0  0  0
  5  7  1  0  0  0  0
  5 17  1  0  0  0  0
  6  9  1  0  0  0  0
  7  3  1  0  0  0  0
  8 12  1  0  0  0  0
  8  4  1  0  0  0  0
  9 17  1  0  0  0  0
 11 16  1  0  0  0  0
 11 23  1  0  0  0  0
 12 16  1  0  0  0  0
 13  9  1  0  0  0  0
 15 14  1  0  0  0  0
 16  2  1  0  0  0  0
 17 22  1  0  0  0  0
 18  1  1  0  0  0  0
 19 25  1  0  0  0  0
 19  7  1  0  0  0  0
 21 14  1  0  0  0  0
 22 31  1  0  0  0  0
 22 21  1  0  0  0  0
 23 19  1  0  0  0  0
 24 30  1  0  0  0  0
 25 24  1  0  0  0  0
 26 25  2  0  0  0  0
 26 29  1  0  0  0  0
 27 29  2  0  0  0  0
 28 30  2  0  0  0  0
 29 28  1  0  0  0  0
 31 33  1  0  0  0  0
 31 32  1  0  0  0  0
 32 37  1  0  0  0  0
 33 32  1  0  0  0  0
 33 34  1  0  0  0  0
 34 35  1  0  0  0  0
 37 36  2  0  0  0  0
M  END
>  <MODEL>
4

>  <REMARK>
 VINA RESULT:      -7.5      1.533      1.978
  Name = 
  4 active torsions:
  status: ('A' for Active; 'I' for Inactive)
    1  A    between atoms: C_1  and  C_27
    2  A    between atoms: N_4  and  C_37
    3  A    between atoms: C_8  and  C_12
    4  A    between atoms: C_23  and  C_30
                            x       y       z     vdW  Elec       q    Type
                         _______ _______ _______ _____ _____    ______ ____

>  <TORSDO>
F 4

$$$$
=
 OpenBabel11122411483D

 37 43  0  0  1  0  0  0  0  0999 V2000
  190.1010  177.0310  140.8020 C   0  0  0  0  0  0  0  0  0  0  0  0
  187.3010  178.1480  138.4100 C   0  0  1  0  0  3  0  0  0  0  0  0
  184.5380  179.4640  139.5260 O   0  0  0  0  0  0  0  0  0  0  0  0
  189.8820  178.1540  138.5640 C   0  0  2  0  0  3  0  0  0  0  0  0
  186.3540  177.8650  139.5760 C   0  0  2  0  0  3  0  0  0  0  0  0
  188.5490  178.6950  139.0930 C   0  0  2  0  0  3  0  0  0  0  0  0
  184.8770  178.1340  139.2350 C   0  0  2  0  0  3  0  0  0  0  0  0
  189.7850  177.9110  137.1240 N   0  0  0  0  0  2  0  0  0  0  0  0
  188.3140  178.4950  140.5880 C   0  0  2  0  0  3  0  0  0  0  0  0
  190.8170  178.0730  141.3730 F   0  0  0  0  0  0  0  0  0  0  0  0
  186.3780  176.5820  136.6570 C   0  0  0  0  0  2  0  0  0  0  0  0
  188.8480  176.8200  136.8160 C   0  0  0  0  0  2  0  0  0  0  0  0
  188.7120  177.1920  140.9860 O   0  0  0  0  0  0  0  0  0  0  0  0
  183.7910  178.7220  141.7540 C   0  0  0  0  0  2  0  0  0  0  0  0
  183.4590  179.4240  140.4300 C   0  0  0  0  0  2  0  0  0  0  0  0
  187.5340  176.8520  137.6190 C   0  0  1  0  0  3  0  0  0  0  0  0
  186.8580  178.6430  140.7170 N   0  0  2  0  0  0  0  0  0  0  0  0
  190.4020  176.9240  139.3120 C   0  0  0  0  0  2  0  0  0  0  0  0
  184.4720  177.7520  137.7970 C   0  0  1  0  0  3  0  0  0  0  0  0
  190.4910  175.8520  141.4080 F   0  0  0  0  0  0  0  0  0  0  0  0
  185.1100  179.1960  142.3330 C   0  0  0  0  0  2  0  0  0  0  0  0
  186.2470  178.2270  142.0020 C   0  0  2  0  0  3  0  0  0  0  0  0
  185.0410  176.3990  137.3690 C   0  0  0  0  0  2  0  0  0  0  0  0
  182.1740  176.7020  138.3040 C   0  0  0  0  0  2  0  0  0  0  0  0
  182.9830  177.7760  137.6190 C   0  0  0  0  0  0  0  0  0  0  0  0
  182.4050  178.7230  136.8710 C   0  0  0  0  0  3  0  0  0  0  0  0
  180.4050  179.6220  135.9960 O   0  0  0  0  0  0  0  0  0  0  0  0
  180.1570  177.7210  137.3190 N   0  0  0  0  0  0  0  0  0  0  0  0
  180.9520  178.7310  136.6960 C   0  0  0  0  0  0  0  0  0  0  0  0
  180.6880  176.7890  138.0520 C   0  0  0  0  0  3  0  0  0  0  0  0
  187.2240  178.2600  143.1890 C   0  0  1  0  0  3  0  0  0  0  0  0
  186.5120  177.8890  144.4550 N   0  0  0  0  0  0  0  0  0  0  0  0
  187.4190  176.9880  143.6910 C   0  0  2  0  0  3  0  0  0  0  0  0
  188.7520  176.9050  144.4060 C   0  0  0  0  0  2  0  0  0  0  0  0
  189.1360  178.1770  144.8250 O   0  0  0  0  0  1  0  0  0  0  0  0
  186.1130  178.8080  146.6180 C   0  0  0  0  0  2  0  0  0  0  0  0
  185.6520  178.1660  145.5550 C   0  0  0  0  0  3  0  0  0  0  0  0
  1 13  1  0  0  0  0
  1 10  1  0  0  0  0
  1 20  1  0  0  0  0
  2  6  1  0  0  0  0
  2  5  1  0  0  0  0
  3 15  1  0  0  0  0
  4  6  1  0  0  0  0
  4 18  1  0  0  0  0
  5 17  1  0  0  0  0
  6  9  1  0  0  0  0
  7  3  1  0  0  0  0
  7  5  1  0  0  0  0
  8  4  1  0  0  0  0
  9 17  1  0  0  0  0
  9 13  1  0  0  0  0
 11 23  1  0  0  0  0
 11 16  1  0  0  0  0
 12  8  1  0  0  0  0
 12 16  1  0  0  0  0
 14 21  1  0  0  0  0
 15 14  1  0  0  0  0
 16  2  1  0  0  0  0
 17 22  1  0  0  0  0
 18  1  1  0  0  0  0
 19  7  1  0  0  0  0
 22 21  1  0  0  0  0
 22 31  1  0  0  0  0
 23 19  1  0  0  0  0
 25 19  1  0  0  0  0
 25 24  1  0  0  0  0
 26 25  2  0  0  0  0
 27 29  2  0  0  0  0
 28 30  2  0  0  0  0
 29 26  1  0  0  0  0
 29 28  1  0  0  0  0
 30 24  1  0  0  0  0
 31 33  1  0  0  0  0
 31 32  1  0  0  0  0
 32 37  1  0  0  0  0
 33 34  1  0  0  0  0
 33 32  1  0  0  0  0
 34 35  1  0  0  0  0
 37 36  2  0  0  0  0
M  END
>  <MODEL>
5

>  <REMARK>
 VINA RESULT:      -7.4      1.594      1.895
  Name = 
  4 active torsions:
  status: ('A' for Active; 'I' for Inactive)
    1  A    between atoms: C_1  and  C_27
    2  A    between atoms: N_4  and  C_37
    3  A    between atoms: C_8  and  C_12
    4  A    between atoms: C_23  and  C_30
                            x       y       z     vdW  Elec       q    Type
                         _______ _______ _______ _____ _____    ______ ____

>  <TORSDO>
F 4

$$$$
=
 OpenBabel11122411483D

 37 43  0  0  1  0  0  0  0  0999 V2000
  188.6570  178.6420  137.5020 C   0  0  0  0  0  0  0  0  0  0  0  0
  189.4990  176.9200  140.8380 C   0  0  1  0  0  3  0  0  0  0  0  0
  187.3010  176.6830  143.2290 O   0  0  0  0  0  0  0  0  0  0  0  0
  189.9380  176.6350  138.3060 C   0  0  2  0  0  3  0  0  0  0  0  0
  188.4490  177.8490  141.4470 C   0  0  2  0  0  3  0  0  0  0  0  0
  188.9310  176.5970  139.4610 C   0  0  2  0  0  3  0  0  0  0  0  0
  188.2760  177.6560  142.9640 C   0  0  2  0  0  3  0  0  0  0  0  0
  191.2470  176.1770  138.7710 N   0  0  0  0  0  2  0  0  0  0  0  0
  187.7200  177.5120  139.2970 C   0  0  2  0  0  3  0  0  0  0  0  0
  187.8200  177.9080  136.6720 F   0  0  0  0  0  0  0  0  0  0  0  0
  191.5430  177.5780  142.1680 C   0  0  0  0  0  2  0  0  0  0  0  0
  191.8370  177.1080  139.7450 C   0  0  0  0  0  2  0  0  0  0  0  0
  188.1150  178.7800  138.7960 O   0  0  0  0  0  0  0  0  0  0  0  0
  185.6270  178.4870  143.3650 C   0  0  0  0  0  2  0  0  0  0  0  0
  186.3210  177.2940  144.0360 C   0  0  0  0  0  2  0  0  0  0  0  0
  190.8560  177.6410  140.8050 C   0  0  1  0  0  3  0  0  0  0  0  0
  187.2170  177.6440  140.6710 N   0  0  2  0  0  0  0  0  0  0  0  0
  190.0300  177.9880  137.5970 C   0  0  0  0  0  2  0  0  0  0  0  0
  189.5850  177.3620  143.7240 C   0  0  1  0  0  3  0  0  0  0  0  0
  188.8140  179.9010  136.9550 F   0  0  0  0  0  0  0  0  0  0  0  0
  185.1980  178.1680  141.9450 C   0  0  0  0  0  2  0  0  0  0  0  0
  186.2050  178.6990  140.9230 C   0  0  2  0  0  3  0  0  0  0  0  0
  190.7380  178.2580  143.2720 C   0  0  0  0  0  2  0  0  0  0  0  0
  190.4970  176.9430  146.0980 C   0  0  0  0  0  2  0  0  0  0  0  0
  189.3930  177.4600  145.2090 C   0  0  0  0  0  0  0  0  0  0  0  0
  188.2720  177.9880  145.7150 C   0  0  0  0  0  3  0  0  0  0  0  0
  187.0390  178.5670  147.6430 O   0  0  0  0  0  0  0  0  0  0  0  0
  189.1110  177.5760  148.0350 N   0  0  0  0  0  0  0  0  0  0  0  0
  188.0900  178.0690  147.1640 C   0  0  0  0  0  0  0  0  0  0  0  0
  190.2100  177.0590  147.5760 C   0  0  0  0  0  3  0  0  0  0  0  0
  185.4070  179.0990  139.6720 C   0  0  1  0  0  3  0  0  0  0  0  0
  184.4110  178.0310  139.3300 N   0  0  0  0  0  0  0  0  0  0  0  0
  184.0820  179.3240  139.9940 C   0  0  2  0  0  3  0  0  0  0  0  0
  183.4460  180.2530  138.9800 C   0  0  0  0  0  2  0  0  0  0  0  0
  182.1540  179.8170  138.6960 O   0  0  0  0  0  1  0  0  0  0  0  0
  182.8950  176.2040  139.1330 C   0  0  0  0  0  2  0  0  0  0  0  0
  184.0400  176.7700  138.7850 C   0  0  0  0  0  3  0  0  0  0  0  0
  1 18  1  0  0  0  0
  1 13  1  0  0  0  0
  2  5  1  0  0  0  0
  3 15  1  0  0  0  0
  4  8  1  0  0  0  0
  4  6  1  0  0  0  0
  5  7  1  0  0  0  0
  6  2  1  0  0  0  0
  7  3  1  0  0  0  0
  7 19  1  0  0  0  0
  8 12  1  0  0  0  0
  9  6  1  0  0  0  0
  9 17  1  0  0  0  0
 10  1  1  0  0  0  0
 11 23  1  0  0  0  0
 12 16  1  0  0  0  0
 13  9  1  0  0  0  0
 14 15  1  0  0  0  0
 16  2  1  0  0  0  0
 16 11  1  0  0  0  0
 17 22  1  0  0  0  0
 17  5  1  0  0  0  0
 18  4  1  0  0  0  0
 19 25  1  0  0  0  0
 20  1  1  0  0  0  0
 21 14  1  0  0  0  0
 22 21  1  0  0  0  0
 23 19  1  0  0  0  0
 24 30  1  0  0  0  0
 25 26  2  0  0  0  0
 25 24  1  0  0  0  0
 26 29  1  0  0  0  0
 29 27  2  0  0  0  0
 29 28  1  0  0  0  0
 30 28  2  0  0  0  0
 31 33  1  0  0  0  0
 31 22  1  0  0  0  0
 32 31  1  0  0  0  0
 32 33  1  0  0  0  0
 34 33  1  0  0  0  0
 35 34  1  0  0  0  0
 37 36  2  0  0  0  0
 37 32  1  0  0  0  0
M  END
>  <MODEL>
6

>  <REMARK>
 VINA RESULT:      -7.2      2.514      6.987
  Name = 
  4 active torsions:
  status: ('A' for Active; 'I' for Inactive)
    1  A    between atoms: C_1  and  C_27
    2  A    between atoms: N_4  and  C_37
    3  A    between atoms: C_8  and  C_12
    4  A    between atoms: C_23  and  C_30
                            x       y       z     vdW  Elec       q    Type
                         _______ _______ _______ _____ _____    ______ ____

>  <TORSDO>
F 4

$$$$
=
 OpenBabel11122411483D

 37 43  0  0  1  0  0  0  0  0999 V2000
  182.6250  177.6120  138.6440 C   0  0  0  0  0  0  0  0  0  0  0  0
  185.3280  178.8630  141.0790 C   0  0  1  0  0  3  0  0  0  0  0  0
  188.4640  179.0030  140.2110 O   0  0  0  0  0  0  0  0  0  0  0  0
  182.8960  179.4020  140.3880 C   0  0  2  0  0  3  0  0  0  0  0  0
  186.2830  177.9600  140.2990 C   0  0  2  0  0  3  0  0  0  0  0  0
  184.3810  179.3880  140.0070 C   0  0  2  0  0  3  0  0  0  0  0  0
  187.7240  177.9900  140.8390 C   0  0  2  0  0  3  0  0  0  0  0  0
  182.7500  179.6940  141.8140 N   0  0  0  0  0  2  0  0  0  0  0  0
  184.7210  178.6010  138.7450 C   0  0  2  0  0  3  0  0  0  0  0  0
  182.3130  178.5030  137.6260 F   0  0  0  0  0  0  0  0  0  0  0  0
  185.5470  177.8910  143.4010 C   0  0  0  0  0  2  0  0  0  0  0  0
  183.2880  178.6120  142.6510 C   0  0  0  0  0  2  0  0  0  0  0  0
  184.0130  177.3720  138.7170 O   0  0  0  0  0  0  0  0  0  0  0  0
  189.2210  177.3390  138.5580 C   0  0  0  0  0  2  0  0  0  0  0  0
  189.5840  178.3850  139.6210 C   0  0  0  0  0  2  0  0  0  0  0  0
  184.6390  178.0430  142.1810 C   0  0  1  0  0  3  0  0  0  0  0  0
  186.1620  178.3540  138.8880 N   0  0  2  0  0  0  0  0  0  0  0  0
  182.1340  178.1360  139.9880 C   0  0  0  0  0  2  0  0  0  0  0  0
  187.8290  178.0860  142.3750 C   0  0  1  0  0  3  0  0  0  0  0  0
  181.9840  176.4160  138.3850 F   0  0  0  0  0  0  0  0  0  0  0  0
  188.1720  177.8540  137.5900 C   0  0  0  0  0  2  0  0  0  0  0  0
  186.7730  177.3630  137.9680 C   0  0  2  0  0  3  0  0  0  0  0  0
  186.8470  177.1570  143.0880 C   0  0  0  0  0  2  0  0  0  0  0  0
  189.7800  176.4350  142.7060 C   0  0  0  0  0  2  0  0  0  0  0  0
  189.2300  177.8340  142.8470 C   0  0  0  0  0  0  0  0  0  0  0  0
  189.9560  178.8250  143.3790 C   0  0  0  0  0  3  0  0  0  0  0  0
  192.0040  179.4940  144.3430 O   0  0  0  0  0  0  0  0  0  0  0  0
  191.8640  177.2480  143.7400 N   0  0  0  0  0  0  0  0  0  0  0  0
  191.3180  178.5640  143.8460 C   0  0  0  0  0  0  0  0  0  0  0  0
  191.1860  176.2660  143.2280 C   0  0  0  0  0  3  0  0  0  0  0  0
  185.9930  177.1770  136.6560 C   0  0  1  0  0  3  0  0  0  0  0  0
  186.7390  176.2560  135.7370 N   0  0  0  0  0  0  0  0  0  0  0  0
  185.5430  175.8760  136.5400 C   0  0  2  0  0  3  0  0  0  0  0  0
  184.3340  175.8180  135.6300 C   0  0  0  0  0  2  0  0  0  0  0  0
  183.9370  177.1120  135.3000 O   0  0  0  0  0  1  0  0  0  0  0  0
  188.7270  175.0970  135.1220 C   0  0  0  0  0  2  0  0  0  0  0  0
  187.7720  175.9580  134.8050 C   0  0  0  0  0  3  0  0  0  0  0  0
  1 13  1  0  0  0  0
  1 18  1  0  0  0  0
  2 16  1  0  0  0  0
  3  7  1  0  0  0  0
  4  8  1  0  0  0  0
  5  7  1  0  0  0  0
  5  2  1  0  0  0  0
  6  4  1  0  0  0  0
  6  2  1  0  0  0  0
  7 19  1  0  0  0  0
  8 12  1  0  0  0  0
  9 17  1  0  0  0  0
  9  6  1  0  0  0  0
 10  1  1  0  0  0  0
 13  9  1  0  0  0  0
 14 15  1  0  0  0  0
 15  3  1  0  0  0  0
 16 12  1  0  0  0  0
 16 11  1  0  0  0  0
 17  5  1  0  0  0  0
 18  4  1  0  0  0  0
 19 25  1  0  0  0  0
 19 23  1  0  0  0  0
 20  1  1  0  0  0  0
 21 22  1  0  0  0  0
 21 14  1  0  0  0  0
 22 17  1  0  0  0  0
 23 11  1  0  0  0  0
 24 25  1  0  0  0  0
 24 30  1  0  0  0  0
 25 26  2  0  0  0  0
 26 29  1  0  0  0  0
 28 29  1  0  0  0  0
 29 27  2  0  0  0  0
 30 28  2  0  0  0  0
 31 22  1  0  0  0  0
 32 33  1  0  0  0  0
 32 31  1  0  0  0  0
 33 31  1  0  0  0  0
 34 33  1  0  0  0  0
 35 34  1  0  0  0  0
 37 36  2  0  0  0  0
 37 32  1  0  0  0  0
M  END
>  <MODEL>
7

>  <REMARK>
 VINA RESULT:      -6.8      2.917      7.948
  Name = 
  4 active torsions:
  status: ('A' for Active; 'I' for Inactive)
    1  A    between atoms: C_1  and  C_27
    2  A    between atoms: N_4  and  C_37
    3  A    between atoms: C_8  and  C_12
    4  A    between atoms: C_23  and  C_30
                            x       y       z     vdW  Elec       q    Type
                         _______ _______ _______ _____ _____    ______ ____

>  <TORSDO>
F 4

$$$$
=
 OpenBabel11122411483D

 37 43  0  0  1  0  0  0  0  0999 V2000
  184.2210  176.9440  137.3140 C   0  0  0  0  0  0  0  0  0  0  0  0
  186.4550  178.6040  139.9700 C   0  0  1  0  0  3  0  0  0  0  0  0
  189.6990  178.3140  139.8840 O   0  0  0  0  0  0  0  0  0  0  0  0
  184.3200  179.1010  138.6010 C   0  0  2  0  0  3  0  0  0  0  0  0
  187.4400  177.4710  139.6810 C   0  0  2  0  0  3  0  0  0  0  0  0
  185.8390  178.8950  138.6070 C   0  0  2  0  0  3  0  0  0  0  0  0
  188.7190  177.5470  140.5330 C   0  0  2  0  0  3  0  0  0  0  0  0
  183.9000  179.7580  139.8380 N   0  0  0  0  0  2  0  0  0  0  0  0
  186.3490  177.7890  137.6870 C   0  0  2  0  0  3  0  0  0  0  0  0
  184.2530  177.5610  136.0710 F   0  0  0  0  0  0  0  0  0  0  0  0
  186.0370  178.2490  142.4360 C   0  0  0  0  0  2  0  0  0  0  0  0
  184.1050  178.8960  141.0120 C   0  0  0  0  0  2  0  0  0  0  0  0
  185.5190  176.6420  137.7770 O   0  0  0  0  0  0  0  0  0  0  0  0
  190.5900  176.2360  138.9030 C   0  0  0  0  0  2  0  0  0  0  0  0
  190.8360  177.4960  139.7470 C   0  0  0  0  0  2  0  0  0  0  0  0
  185.4460  178.1390  141.0320 C   0  0  1  0  0  3  0  0  0  0  0  0
  187.6820  177.4960  138.2310 N   0  0  2  0  0  0  0  0  0  0  0  0
  183.5150  177.8260  138.3350 C   0  0  0  0  0  2  0  0  0  0  0  0
  188.4950  178.0280  141.9810 C   0  0  1  0  0  3  0  0  0  0  0  0
  183.5110  175.7650  137.1950 F   0  0  0  0  0  0  0  0  0  0  0  0
  189.8510  176.5510  137.6160 C   0  0  0  0  0  2  0  0  0  0  0  0
  188.3530  176.2650  137.7470 C   0  0  2  0  0  3  0  0  0  0  0  0
  187.2740  177.3780  142.6310 C   0  0  0  0  0  2  0  0  0  0  0  0
  190.3690  179.0310  143.4380 C   0  0  0  0  0  2  0  0  0  0  0  0
  189.7160  177.8160  142.8260 C   0  0  0  0  0  0  0  0  0  0  0  0
  190.2040  176.5840  143.0170 C   0  0  0  0  0  3  0  0  0  0  0  0
  191.8600  175.2330  144.0200 O   0  0  0  0  0  0  0  0  0  0  0  0
  192.0520  177.5200  144.4190 N   0  0  0  0  0  0  0  0  0  0  0  0
  191.4010  176.3900  143.8340 C   0  0  0  0  0  0  0  0  0  0  0  0
  191.6040  178.7270  144.2520 C   0  0  0  0  0  3  0  0  0  0  0  0
  187.8640  175.7980  136.3660 C   0  0  1  0  0  3  0  0  0  0  0  0
  188.6900  174.6410  135.8890 N   0  0  0  0  0  0  0  0  0  0  0  0
  187.3140  174.5330  136.4490 C   0  0  2  0  0  3  0  0  0  0  0  0
  186.3340  174.3120  135.3150 C   0  0  0  0  0  2  0  0  0  0  0  0
  185.2410  173.5840  135.7800 O   0  0  0  0  0  1  0  0  0  0  0  0
  190.6820  173.3470  136.0760 C   0  0  0  0  0  2  0  0  0  0  0  0
  189.8640  174.0670  135.3240 C   0  0  0  0  0  3  0  0  0  0  0  0
  1 13  1  0  0  0  0
  1 18  1  0  0  0  0
  2 16  1  0  0  0  0
  3  7  1  0  0  0  0
  4  6  1  0  0  0  0
  4  8  1  0  0  0  0
  5  2  1  0  0  0  0
  5  7  1  0  0  0  0
  6  2  1  0  0  0  0
  7 19  1  0  0  0  0
  8 12  1  0  0  0  0
  9 13  1  0  0  0  0
  9 17  1  0  0  0  0
  9  6  1  0  0  0  0
 10  1  1  0  0  0  0
 11 23  1  0  0  0  0
 12 16  1  0  0  0  0
 14 15  1  0  0  0  0
 15  3  1  0  0  0  0
 16 11  1  0  0  0  0
 17  5  1  0  0  0  0
 18  4  1  0  0  0  0
 19 23  1  0  0  0  0
 19 25  1  0  0  0  0
 20  1  1  0  0  0  0
 21 22  1  0  0  0  0
 21 14  1  0  0  0  0
 22 17  1  0  0  0  0
 24 30  1  0  0  0  0
 25 26  2  0  0  0  0
 25 24  1  0  0  0  0
 26 29  1  0  0  0  0
 29 27  2  0  0  0  0
 29 28  1  0  0  0  0
 30 28  2  0  0  0  0
 31 33  1  0  0  0  0
 31 22  1  0  0  0  0
 32 31  1  0  0  0  0
 32 33  1  0  0  0  0
 34 35  1  0  0  0  0
 34 33  1  0  0  0  0
 37 32  1  0  0  0  0
 37 36  2  0  0  0  0
M  END
>  <MODEL>
8

>  <REMARK>
 VINA RESULT:      -6.6      2.848      7.647
  Name = 
  4 active torsions:
  status: ('A' for Active; 'I' for Inactive)
    1  A    between atoms: C_1  and  C_27
    2  A    between atoms: N_4  and  C_37
    3  A    between atoms: C_8  and  C_12
    4  A    between atoms: C_23  and  C_30
                            x       y       z     vdW  Elec       q    Type
                         _______ _______ _______ _____ _____    ______ ____

>  <TORSDO>
F 4

$$$$
=
 OpenBabel11122411483D

 37 43  0  0  1  0  0  0  0  0999 V2000
  189.8880  178.3290  143.0160 C   0  0  0  0  0  0  0  0  0  0  0  0
  186.2220  177.5650  143.8990 C   0  0  1  0  0  3  0  0  0  0  0  0
  183.9150  177.4220  141.6030 O   0  0  0  0  0  0  0  0  0  0  0  0
  188.6060  176.8330  144.5770 C   0  0  2  0  0  3  0  0  0  0  0  0
  185.8750  178.3790  142.6520 C   0  0  2  0  0  3  0  0  0  0  0  0
  187.5090  176.8480  143.5080 C   0  0  2  0  0  3  0  0  0  0  0  0
  184.3600  178.4870  142.4010 C   0  0  2  0  0  3  0  0  0  0  0  0
  188.0050  176.7530  145.9080 N   0  0  0  0  0  2  0  0  0  0  0  0
  187.9160  177.4500  142.1660 C   0  0  2  0  0  3  0  0  0  0  0  0
  190.5580  177.2840  142.3950 F   0  0  0  0  0  0  0  0  0  0  0  0
  185.0050  178.8830  145.6780 C   0  0  0  0  0  2  0  0  0  0  0  0
  187.2470  177.9690  146.2400 C   0  0  0  0  0  2  0  0  0  0  0  0
  188.6770  178.6330  142.3590 O   0  0  0  0  0  0  0  0  0  0  0  0
  184.2500  178.8480  139.6210 C   0  0  0  0  0  2  0  0  0  0  0  0
  183.3020  177.9870  140.4690 C   0  0  0  0  0  2  0  0  0  0  0  0
  186.3690  178.5140  145.0980 C   0  0  1  0  0  3  0  0  0  0  0  0
  186.6260  177.7730  141.5420 N   0  0  2  0  0  0  0  0  0  0  0  0
  189.6000  177.9930  144.4740 C   0  0  0  0  0  2  0  0  0  0  0  0
  183.5080  178.6260  143.6790 C   0  0  1  0  0  3  0  0  0  0  0  0
  190.6990  179.4460  142.9810 F   0  0  0  0  0  0  0  0  0  0  0  0
  185.5740  178.1520  139.3690 C   0  0  0  0  0  2  0  0  0  0  0  0
  186.6540  178.6380  140.3380 C   0  0  2  0  0  3  0  0  0  0  0  0
  184.1120  179.6120  144.6790 C   0  0  0  0  0  2  0  0  0  0  0  0
  181.0050  178.5020  144.2770 C   0  0  0  0  0  2  0  0  0  0  0  0
  182.0920  179.0020  143.3580 C   0  0  0  0  0  0  0  0  0  0  0  0
  181.8160  179.7530  142.2840 C   0  0  0  0  0  3  0  0  0  0  0  0
  180.1680  180.8130  140.9680 O   0  0  0  0  0  0  0  0  0  0  0  0
  179.3750  179.6370  142.8170 N   0  0  0  0  0  0  0  0  0  0  0  0
  180.4310  180.1040  141.9740 C   0  0  0  0  0  0  0  0  0  0  0  0
  179.6100  178.9080  143.8650 C   0  0  0  0  0  3  0  0  0  0  0  0
  187.9910  178.5940  139.5780 C   0  0  1  0  0  3  0  0  0  0  0  0
  188.0190  177.4190  138.6480 N   0  0  0  0  0  0  0  0  0  0  0  0
  187.7910  178.8310  138.2320 C   0  0  2  0  0  3  0  0  0  0  0  0
  189.0570  179.3720  137.6010 C   0  0  0  0  0  2  0  0  0  0  0  0
  189.3650  178.6280  136.4650 O   0  0  0  0  0  1  0  0  0  0  0  0
  187.7050  175.5390  137.2190 C   0  0  0  0  0  2  0  0  0  0  0  0
  188.1640  176.0330  138.3580 C   0  0  0  0  0  3  0  0  0  0  0  0
  1 18  1  0  0  0  0
  2 16  1  0  0  0  0
  3  7  1  0  0  0  0
  4  8  1  0  0  0  0
  5  2  1  0  0  0  0
  6  2  1  0  0  0  0
  6  4  1  0  0  0  0
  7  5  1  0  0  0  0
  7 19  1  0  0  0  0
  8 12  1  0  0  0  0
  9 13  1  0  0  0  0
  9  6  1  0  0  0  0
 10  1  1  0  0  0  0
 13  1  1  0  0  0  0
 14 15  1  0  0  0  0
 15  3  1  0  0  0  0
 16 11  1  0  0  0  0
 16 12  1  0  0  0  0
 17  9  1  0  0  0  0
 17  5  1  0  0  0  0
 18  4  1  0  0  0  0
 19 23  1  0  0  0  0
 20  1  1  0  0  0  0
 21 14  1  0  0  0  0
 21 22  1  0  0  0  0
 22 17  1  0  0  0  0
 23 11  1  0  0  0  0
 25 19  1  0  0  0  0
 25 24  1  0  0  0  0
 26 25  2  0  0  0  0
 27 29  2  0  0  0  0
 28 30  2  0  0  0  0
 29 26  1  0  0  0  0
 29 28  1  0  0  0  0
 30 24  1  0  0  0  0
 31 22  1  0  0  0  0
 32 31  1  0  0  0  0
 33 32  1  0  0  0  0
 33 31  1  0  0  0  0
 34 33  1  0  0  0  0
 35 34  1  0  0  0  0
 36 37  2  0  0  0  0
 37 32  1  0  0  0  0
M  END
>  <MODEL>
9

>  <REMARK>
 VINA RESULT:      -6.5      2.618      5.903
  Name = 
  4 active torsions:
  status: ('A' for Active; 'I' for Inactive)
    1  A    between atoms: C_1  and  C_27
    2  A    between atoms: N_4  and  C_37
    3  A    between atoms: C_8  and  C_12
    4  A    between atoms: C_23  and  C_30
                            x       y       z     vdW  Elec       q    Type
                         _______ _______ _______ _____ _____    ______ ____

>  <TORSDO>
F 4

$$$$
