=
 OpenBabel11122411243D

 37 43  0  0  1  0  0  0  0  0999 V2000
  184.1460  175.0380  137.4040 C   0  0  0  0  0  2  0  0  0  0  0  0
  188.6540  177.3640  136.8380 C   0  0  0  0  0  0  0  0  0  0  0  0
  185.3380  177.9530  139.4280 N   0  0  1  0  0  0  0  0  0  0  0  0
  183.9280  173.7130  136.6670 C   0  0  2  0  0  3  0  0  0  0  0  0
  181.8550  177.4930  138.2010 O   0  0  0  0  0  0  0  0  0  0  0  0
  187.8300  178.1340  139.1440 C   0  0  1  0  0  3  0  0  0  0  0  0
  184.1920  178.0570  138.5090 C   0  0  2  0  0  3  0  0  0  0  0  0
  181.4770  174.3700  136.1130 C   0  0  2  0  0  3  0  0  0  0  0  0
  186.4330  178.2060  138.5180 C   0  0  1  0  0  3  0  0  0  0  0  0
  182.9420  177.3370  139.0700 C   0  0  1  0  0  3  0  0  0  0  0  0
  187.7400  177.8520  140.6460 C   0  0  0  0  0  2  0  0  0  0  0  0
  182.7890  173.7260  135.6360 C   0  0  0  0  0  2  0  0  0  0  0  0
  186.1960  177.2760  137.3930 C   0  0  2  0  0  3  0  0  0  0  0  0
  189.2490  176.1420  136.1710 C   0  0  0  0  0  1  0  0  0  0  0  0
  184.1970  179.0700  141.3340 C   0  0  0  0  0  2  0  0  0  0  0  0
  186.6890  178.7660  141.3190 C   0  0  0  0  0  2  0  0  0  0  0  0
  187.2120  177.5610  136.3010 C   0  0  0  0  0  2  0  0  0  0  0  0
  181.5560  175.8810  136.4390 C   0  0  1  0  0  3  0  0  0  0  0  0
  181.4180  176.1930  137.9320 C   0  0  0  0  0  2  0  0  0  0  0  0
  185.4310  179.0000  140.4480 C   0  0  1  0  0  3  0  0  0  0  0  0
  184.7290  177.5360  137.1190 C   0  0  1  0  0  3  0  0  0  0  0  0
  188.7460  177.1680  138.3780 C   0  0  0  0  0  2  0  0  0  0  0  0
  182.5210  177.7690  140.4940 C   0  0  1  0  0  3  0  0  0  0  0  0
  189.4830  178.5700  136.4420 C   0  0  0  0  0  1  0  0  0  0  0  0
  182.7730  176.5730  135.7990 C   0  0  0  0  0  2  0  0  0  0  0  0
  180.8920  173.6220  137.1380 O   0  0  0  0  0  1  0  0  0  0  0  0
  184.1160  176.2740  136.4860 C   0  0  2  0  0  3  0  0  0  0  0  0
  183.5670  177.8200  141.4430 O   0  0  0  0  0  0  0  0  0  0  0  0
  180.6450  178.8910  141.7330 C   0  0  0  0  0  3  0  0  0  0  0  0
  181.4800  178.8600  140.6110 C   0  0  0  0  0  0  0  0  0  0  0  0
  181.3540  179.8530  139.6270 C   0  0  0  0  0  3  0  0  0  0  0  0
  180.2390  182.0900  138.5290 Cl  0  0  0  0  0  0  0  0  0  0  0  0
  179.5580  180.8810  140.8830 C   0  0  0  0  0  3  0  0  0  0  0  0
  180.3940  180.8580  139.7620 C   0  0  0  0  0  0  0  0  0  0  0  0
  179.6850  179.8980  141.8690 C   0  0  0  0  0  3  0  0  0  0  0  0
  183.7410  171.5150  136.8410 C   0  0  0  0  0  1  0  0  0  0  0  0
  183.7230  172.6900  137.5940 O   0  0  0  0  0  0  0  0  0  0  0  0
  2 22  1  0  0  0  0
  3 20  1  0  0  0  0
  4  1  1  0  0  0  0
  4 37  1  0  0  0  0
  5 10  1  0  0  0  0
  6 11  1  0  0  0  0
  7 10  1  0  0  0  0
  7  3  1  0  0  0  0
  8 18  1  0  0  0  0
  8 26  1  0  0  0  0
  9  6  1  0  0  0  0
  9  3  1  0  0  0  0
 10 23  1  0  0  0  0
 11 16  1  0  0  0  0
 12  8  1  0  0  0  0
 12  4  1  0  0  0  0
 13  9  1  0  0  0  0
 14  2  1  0  0  0  0
 15 28  1  0  0  0  0
 17  2  1  0  0  0  0
 17 13  1  0  0  0  0
 18 19  1  0  0  0  0
 19  5  1  0  0  0  0
 20 16  1  0  0  0  0
 20 15  1  0  0  0  0
 21 13  1  0  0  0  0
 21  7  1  0  0  0  0
 22  6  1  0  0  0  0
 23 30  1  0  0  0  0
 23 28  1  0  0  0  0
 24  2  1  0  0  0  0
 25 18  1  0  0  0  0
 25 27  1  0  0  0  0
 27 21  1  0  0  0  0
 27  1  1  0  0  0  0
 29 35  1  0  0  0  0
 30 29  2  0  0  0  0
 31 34  2  0  0  0  0
 31 30  1  0  0  0  0
 32 34  1  0  0  0  0
 33 35  2  0  0  0  0
 34 33  1  0  0  0  0
 36 37  1  0  0  0  0
M  END
>  <MODEL>
1

>  <REMARK>
 VINA RESULT:      -6.4      0.000      0.000
  Name = 
  2 active torsions:
  status: ('A' for Active; 'I' for Inactive)
    1  A    between atoms: C_4  and  O_37
    2  A    between atoms: C_23  and  C_30
                            x       y       z     vdW  Elec       q    Type
                         _______ _______ _______ _____ _____    ______ ____

>  <TORSDO>
F 2

$$$$
=
 OpenBabel11122411243D

 37 43  0  0  1  0  0  0  0  0999 V2000
  187.9660  176.3220  138.3160 C   0  0  0  0  0  2  0  0  0  0  0  0
  190.1360  177.9170  142.6520 C   0  0  0  0  0  0  0  0  0  0  0  0
  186.1700  178.0130  141.1320 N   0  0  1  0  0  0  0  0  0  0  0  0
  188.7950  175.4310  137.3860 C   0  0  2  0  0  3  0  0  0  0  0  0
  185.5270  178.6310  137.5180 O   0  0  0  0  0  0  0  0  0  0  0  0
  187.6240  177.8780  143.1790 C   0  0  1  0  0  3  0  0  0  0  0  0
  186.3180  178.6440  139.8090 C   0  0  2  0  0  3  0  0  0  0  0  0
  187.8420  176.6410  135.2960 C   0  0  2  0  0  3  0  0  0  0  0  0
  187.4120  178.4100  141.7570 C   0  0  1  0  0  3  0  0  0  0  0  0
  185.4020  177.9810  138.7520 C   0  0  1  0  0  3  0  0  0  0  0  0
  186.4130  177.0660  143.6430 C   0  0  0  0  0  2  0  0  0  0  0  0
  189.0630  176.0210  135.9930 C   0  0  0  0  0  2  0  0  0  0  0  0
  188.4530  178.0280  140.7780 C   0  0  2  0  0  3  0  0  0  0  0  0
  191.2960  176.9610  142.4730 C   0  0  0  0  0  1  0  0  0  0  0  0
  183.7390  178.4940  141.3360 C   0  0  0  0  0  2  0  0  0  0  0  0
  185.0940  177.8150  143.3380 C   0  0  0  0  0  2  0  0  0  0  0  0
  189.7960  178.5370  141.2700 C   0  0  0  0  0  2  0  0  0  0  0  0
  187.2320  177.8810  135.9950 C   0  0  1  0  0  3  0  0  0  0  0  0
  185.8540  177.6210  136.6100 C   0  0  0  0  0  2  0  0  0  0  0  0
  185.1130  178.5640  141.9840 C   0  0  1  0  0  3  0  0  0  0  0  0
  187.8670  178.6100  139.5070 C   0  0  1  0  0  3  0  0  0  0  0  0
  188.9640  177.1390  143.3140 C   0  0  0  0  0  2  0  0  0  0  0  0
  183.9060  177.9030  139.1380 C   0  0  1  0  0  3  0  0  0  0  0  0
  190.5800  179.0300  143.5810 C   0  0  0  0  0  1  0  0  0  0  0  0
  188.2040  178.5550  136.9810 C   0  0  0  0  0  2  0  0  0  0  0  0
  186.8880  175.6670  134.9880 O   0  0  0  0  0  1  0  0  0  0  0  0
  188.3950  177.8010  138.3090 C   0  0  2  0  0  3  0  0  0  0  0  0
  183.6440  177.4180  140.4400 O   0  0  0  0  0  0  0  0  0  0  0  0
  183.2930  180.3370  139.0480 C   0  0  0  0  0  3  0  0  0  0  0  0
  183.0070  179.0220  138.6650 C   0  0  0  0  0  0  0  0  0  0  0  0
  181.9070  178.7670  137.8310 C   0  0  0  0  0  3  0  0  0  0  0  0
  179.7260  179.4930  136.3580 Cl  0  0  0  0  0  0  0  0  0  0  0  0
  181.3840  181.1300  137.7850 C   0  0  0  0  0  3  0  0  0  0  0  0
  181.0980  179.8190  137.3950 C   0  0  0  0  0  0  0  0  0  0  0  0
  182.4820  181.3890  138.6110 C   0  0  0  0  0  3  0  0  0  0  0  0
  189.1980  173.3300  136.8220 C   0  0  0  0  0  1  0  0  0  0  0  0
  188.1860  174.1820  137.2690 O   0  0  0  0  0  0  0  0  0  0  0  0
  2 22  1  0  0  0  0
  2 24  1  0  0  0  0
  3  9  1  0  0  0  0
  3 20  1  0  0  0  0
  4  1  1  0  0  0  0
  5 10  1  0  0  0  0
  6 22  1  0  0  0  0
  6 11  1  0  0  0  0
  7  3  1  0  0  0  0
  8 12  1  0  0  0  0
  8 18  1  0  0  0  0
  9  6  1  0  0  0  0
 10 23  1  0  0  0  0
 10  7  1  0  0  0  0
 12  4  1  0  0  0  0
 13 17  1  0  0  0  0
 13  9  1  0  0  0  0
 14  2  1  0  0  0  0
 15 20  1  0  0  0  0
 16 11  1  0  0  0  0
 17  2  1  0  0  0  0
 18 19  1  0  0  0  0
 18 25  1  0  0  0  0
 19  5  1  0  0  0  0
 20 16  1  0  0  0  0
 21  7  1  0  0  0  0
 21 13  1  0  0  0  0
 23 28  1  0  0  0  0
 25 27  1  0  0  0  0
 26  8  1  0  0  0  0
 27  1  1  0  0  0  0
 27 21  1  0  0  0  0
 28 15  1  0  0  0  0
 30 29  1  0  0  0  0
 30 23  1  0  0  0  0
 31 30  2  0  0  0  0
 32 34  1  0  0  0  0
 33 35  1  0  0  0  0
 34 33  2  0  0  0  0
 34 31  1  0  0  0  0
 35 29  2  0  0  0  0
 36 37  1  0  0  0  0
 37  4  1  0  0  0  0
M  END
>  <MODEL>
2

>  <REMARK>
 VINA RESULT:      -6.2      2.822      4.486
  Name = 
  2 active torsions:
  status: ('A' for Active; 'I' for Inactive)
    1  A    between atoms: C_4  and  O_37
    2  A    between atoms: C_23  and  C_30
                            x       y       z     vdW  Elec       q    Type
                         _______ _______ _______ _____ _____    ______ ____

>  <TORSDO>
F 2

$$$$
=
 OpenBabel11122411243D

 37 43  0  0  1  0  0  0  0  0999 V2000
  187.6020  176.2400  138.2380 C   0  0  0  0  0  2  0  0  0  0  0  0
  189.9830  177.9450  142.4190 C   0  0  0  0  0  0  0  0  0  0  0  0
  185.9490  178.0230  141.0850 N   0  0  1  0  0  0  0  0  0  0  0  0
  188.3820  175.3170  137.2970 C   0  0  2  0  0  3  0  0  0  0  0  0
  185.1400  178.5400  137.4900 O   0  0  0  0  0  0  0  0  0  0  0  0
  187.4980  177.9370  143.0640 C   0  0  1  0  0  3  0  0  0  0  0  0
  186.0380  178.6140  139.7390 C   0  0  2  0  0  3  0  0  0  0  0  0
  187.3370  176.4730  135.2190 C   0  0  2  0  0  3  0  0  0  0  0  0
  187.2210  178.4290  141.6390 C   0  0  1  0  0  3  0  0  0  0  0  0
  185.0700  177.9270  138.7460 C   0  0  1  0  0  3  0  0  0  0  0  0
  186.3060  177.1460  143.6080 C   0  0  0  0  0  2  0  0  0  0  0  0
  188.5860  175.8650  135.8760 C   0  0  0  0  0  2  0  0  0  0  0  0
  188.2130  178.0130  140.6240 C   0  0  2  0  0  3  0  0  0  0  0  0
  191.1280  176.9760  142.2130 C   0  0  0  0  0  1  0  0  0  0  0  0
  183.5330  178.5240  141.3900 C   0  0  0  0  0  2  0  0  0  0  0  0
  184.9780  177.8950  143.3440 C   0  0  0  0  0  2  0  0  0  0  0  0
  189.5800  178.5260  141.0380 C   0  0  0  0  0  2  0  0  0  0  0  0
  186.7680  177.7360  135.9100 C   0  0  1  0  0  3  0  0  0  0  0  0
  185.4180  177.5030  136.5970 C   0  0  0  0  0  2  0  0  0  0  0  0
  184.9370  178.6050  141.9690 C   0  0  1  0  0  3  0  0  0  0  0  0
  187.5710  178.5610  139.3660 C   0  0  1  0  0  3  0  0  0  0  0  0
  188.8390  177.1940  143.1580 C   0  0  0  0  0  2  0  0  0  0  0  0
  183.5940  177.8700  139.2050 C   0  0  1  0  0  3  0  0  0  0  0  0
  190.4750  179.0800  143.2940 C   0  0  0  0  0  1  0  0  0  0  0  0
  187.7880  178.4310  136.8300 C   0  0  0  0  0  2  0  0  0  0  0  0
  186.3650  175.4960  134.9850 O   0  0  0  0  0  1  0  0  0  0  0  0
  188.0380  177.7150  138.1680 C   0  0  2  0  0  3  0  0  0  0  0  0
  183.3910  177.4230  140.5300 O   0  0  0  0  0  0  0  0  0  0  0  0
  181.3960  178.6620  138.2820 C   0  0  0  0  0  3  0  0  0  0  0  0
  182.6780  178.9810  138.7420 C   0  0  0  0  0  0  0  0  0  0  0  0
  183.0840  180.3230  138.7880 C   0  0  0  0  0  3  0  0  0  0  0  0
  182.7310  183.0060  138.4250 Cl  0  0  0  0  0  0  0  0  0  0  0  0
  180.9380  181.0100  137.9040 C   0  0  0  0  0  3  0  0  0  0  0  0
  182.2170  181.3340  138.3680 C   0  0  0  0  0  0  0  0  0  0  0  0
  180.5280  179.6740  137.8620 C   0  0  0  0  0  3  0  0  0  0  0  0
  188.7590  173.1900  136.8190 C   0  0  0  0  0  1  0  0  0  0  0  0
  187.7610  174.0690  137.2440 O   0  0  0  0  0  0  0  0  0  0  0  0
  2 22  1  0  0  0  0
  2 24  1  0  0  0  0
  3  9  1  0  0  0  0
  3 20  1  0  0  0  0
  4  1  1  0  0  0  0
  5 10  1  0  0  0  0
  6 22  1  0  0  0  0
  6 11  1  0  0  0  0
  7  3  1  0  0  0  0
  8 12  1  0  0  0  0
  8 18  1  0  0  0  0
  9  6  1  0  0  0  0
 10 23  1  0  0  0  0
 10  7  1  0  0  0  0
 12  4  1  0  0  0  0
 13 17  1  0  0  0  0
 13  9  1  0  0  0  0
 14  2  1  0  0  0  0
 15 20  1  0  0  0  0
 16 11  1  0  0  0  0
 17  2  1  0  0  0  0
 18 19  1  0  0  0  0
 18 25  1  0  0  0  0
 19  5  1  0  0  0  0
 20 16  1  0  0  0  0
 21  7  1  0  0  0  0
 21 13  1  0  0  0  0
 23 28  1  0  0  0  0
 25 27  1  0  0  0  0
 26  8  1  0  0  0  0
 27  1  1  0  0  0  0
 27 21  1  0  0  0  0
 28 15  1  0  0  0  0
 29 30  1  0  0  0  0
 30 31  2  0  0  0  0
 30 23  1  0  0  0  0
 33 34  2  0  0  0  0
 34 32  1  0  0  0  0
 34 31  1  0  0  0  0
 35 33  1  0  0  0  0
 35 29  2  0  0  0  0
 36 37  1  0  0  0  0
 37  4  1  0  0  0  0
M  END
>  <MODEL>
3

>  <REMARK>
 VINA RESULT:      -5.8      2.663      4.166
  Name = 
  2 active torsions:
  status: ('A' for Active; 'I' for Inactive)
    1  A    between atoms: C_4  and  O_37
    2  A    between atoms: C_23  and  C_30
                            x       y       z     vdW  Elec       q    Type
                         _______ _______ _______ _____ _____    ______ ____

>  <TORSDO>
F 2

$$$$
=
 OpenBabel11122411243D

 37 43  0  0  1  0  0  0  0  0999 V2000
  185.9620  177.4790  136.9970 C   0  0  0  0  0  2  0  0  0  0  0  0
  181.0940  178.2520  135.6680 C   0  0  0  0  0  0  0  0  0  0  0  0
  183.3870  174.7940  136.5820 N   0  0  1  0  0  0  0  0  0  0  0  0
  186.8060  178.7030  137.3630 C   0  0  2  0  0  3  0  0  0  0  0  0
  186.9400  174.5220  135.5090 O   0  0  0  0  0  0  0  0  0  0  0  0
  181.1170  175.8740  136.6340 C   0  0  1  0  0  3  0  0  0  0  0  0
  184.5530  174.9020  135.6890 C   0  0  2  0  0  3  0  0  0  0  0  0
  188.8710  177.7040  136.1460 C   0  0  2  0  0  3  0  0  0  0  0  0
  182.4680  175.7010  135.9310 C   0  0  1  0  0  3  0  0  0  0  0  0
  185.8570  174.4560  136.3940 C   0  0  1  0  0  3  0  0  0  0  0  0
  181.0290  174.9810  137.8740 C   0  0  0  0  0  2  0  0  0  0  0  0
  188.0210  178.9470  136.4560 C   0  0  0  0  0  2  0  0  0  0  0  0
  183.2480  176.9440  135.7480 C   0  0  2  0  0  3  0  0  0  0  0  0
  181.1520  179.6920  136.1350 C   0  0  0  0  0  1  0  0  0  0  0  0
  183.6350  172.3520  136.9780 C   0  0  0  0  0  2  0  0  0  0  0  0
  181.5020  173.5430  137.5550 C   0  0  0  0  0  2  0  0  0  0  0  0
  182.4220  177.9240  134.9350 C   0  0  0  0  0  2  0  0  0  0  0  0
  188.1570  176.5920  135.3400 C   0  0  1  0  0  3  0  0  0  0  0  0
  187.8850  175.3230  136.1550 C   0  0  0  0  0  2  0  0  0  0  0  0
  182.7100  173.4940  136.5890 C   0  0  1  0  0  3  0  0  0  0  0  0
  184.5250  176.3860  135.1530 C   0  0  1  0  0  3  0  0  0  0  0  0
  180.8020  177.3540  136.9020 C   0  0  0  0  0  2  0  0  0  0  0  0
  185.8070  173.0490  137.0340 C   0  0  1  0  0  3  0  0  0  0  0  0
  179.9540  178.1210  134.6780 C   0  0  0  0  0  1  0  0  0  0  0  0
  186.9080  177.0950  134.5940 C   0  0  0  0  0  2  0  0  0  0  0  0
  189.4990  177.2220  137.2990 O   0  0  0  0  0  1  0  0  0  0  0  0
  185.6820  177.3440  135.4890 C   0  0  2  0  0  3  0  0  0  0  0  0
  184.6660  172.7870  137.8260 O   0  0  0  0  0  0  0  0  0  0  0  0
  185.3800  171.0230  135.6120 C   0  0  0  0  0  3  0  0  0  0  0  0
  186.3060  171.8890  136.2020 C   0  0  0  0  0  0  0  0  0  0  0  0
  187.6790  171.6810  135.9940 C   0  0  0  0  0  3  0  0  0  0  0  0
  189.8290  170.3550  134.9600 Cl  0  0  0  0  0  0  0  0  0  0  0  0
  187.1860  169.7450  134.6280 C   0  0  0  0  0  3  0  0  0  0  0  0
  188.1160  170.6100  135.2120 C   0  0  0  0  0  0  0  0  0  0  0  0
  185.8180  169.9520  134.8280 C   0  0  0  0  0  3  0  0  0  0  0  0
  186.0700  178.2200  139.3940 C   0  0  0  0  0  1  0  0  0  0  0  0
  187.2140  178.6090  138.6950 O   0  0  0  0  0  0  0  0  0  0  0  0
  1  4  1  0  0  0  0
  2 14  1  0  0  0  0
  2 22  1  0  0  0  0
  3 20  1  0  0  0  0
  4 37  1  0  0  0  0
  5 19  1  0  0  0  0
  5 10  1  0  0  0  0
  6 22  1  0  0  0  0
  6 11  1  0  0  0  0
  7 10  1  0  0  0  0
  7  3  1  0  0  0  0
  8 12  1  0  0  0  0
  8 26  1  0  0  0  0
  9  3  1  0  0  0  0
  9  6  1  0  0  0  0
 10 23  1  0  0  0  0
 12  4  1  0  0  0  0
 13  9  1  0  0  0  0
 15 28  1  0  0  0  0
 16 11  1  0  0  0  0
 17  2  1  0  0  0  0
 17 13  1  0  0  0  0
 18  8  1  0  0  0  0
 18 19  1  0  0  0  0
 20 15  1  0  0  0  0
 20 16  1  0  0  0  0
 21 27  1  0  0  0  0
 21  7  1  0  0  0  0
 21 13  1  0  0  0  0
 23 28  1  0  0  0  0
 24  2  1  0  0  0  0
 25 18  1  0  0  0  0
 25 27  1  0  0  0  0
 27  1  1  0  0  0  0
 29 30  1  0  0  0  0
 30 23  1  0  0  0  0
 31 30  2  0  0  0  0
 32 34  1  0  0  0  0
 33 35  1  0  0  0  0
 33 34  2  0  0  0  0
 34 31  1  0  0  0  0
 35 29  2  0  0  0  0
 37 36  1  0  0  0  0
M  END
>  <MODEL>
4

>  <REMARK>
 VINA RESULT:      -4.5      3.811      8.220
  Name = 
  2 active torsions:
  status: ('A' for Active; 'I' for Inactive)
    1  A    between atoms: C_4  and  O_37
    2  A    between atoms: C_23  and  C_30
                            x       y       z     vdW  Elec       q    Type
                         _______ _______ _______ _____ _____    ______ ____

>  <TORSDO>
F 2

$$$$
=
 OpenBabel11122411243D

 37 43  0  0  1  0  0  0  0  0999 V2000
  188.3990  176.6440  140.3730 C   0  0  0  0  0  2  0  0  0  0  0  0
  184.1330  177.3340  137.6570 C   0  0  0  0  0  0  0  0  0  0  0  0
  187.6780  175.0700  137.0540 N   0  0  1  0  0  0  0  0  0  0  0  0
  188.4210  177.1610  141.8150 C   0  0  2  0  0  3  0  0  0  0  0  0
  190.9910  176.3990  138.1060 O   0  0  0  0  0  0  0  0  0  0  0  0
  185.2050  175.2390  136.6310 C   0  0  1  0  0  3  0  0  0  0  0  0
  188.7560  176.0570  137.2320 C   0  0  2  0  0  3  0  0  0  0  0  0
  190.8790  177.9550  141.5440 C   0  0  2  0  0  3  0  0  0  0  0  0
  186.5510  175.9460  136.8230 C   0  0  1  0  0  3  0  0  0  0  0  0
  189.9620  175.4560  137.9940 C   0  0  1  0  0  3  0  0  0  0  0  0
  185.3760  173.7190  136.6790 C   0  0  0  0  0  2  0  0  0  0  0  0
  189.4750  178.2420  142.0990 C   0  0  0  0  0  2  0  0  0  0  0  0
  186.6020  176.9120  137.9420 C   0  0  2  0  0  3  0  0  0  0  0  0
  183.3640  177.7540  138.8930 C   0  0  0  0  0  1  0  0  0  0  0  0
  189.0690  173.4450  135.7880 C   0  0  0  0  0  2  0  0  0  0  0  0
  186.5650  173.2690  135.7970 C   0  0  0  0  0  2  0  0  0  0  0  0
  185.5440  177.9770  137.7180 C   0  0  0  0  0  2  0  0  0  0  0  0
  190.9850  177.8810  140.0020 C   0  0  1  0  0  3  0  0  0  0  0  0
  191.2660  176.4710  139.4740 C   0  0  0  0  0  2  0  0  0  0  0  0
  187.7720  174.2350  135.8540 C   0  0  1  0  0  3  0  0  0  0  0  0
  188.0650  177.3080  137.9020 C   0  0  1  0  0  3  0  0  0  0  0  0
  184.1360  175.7800  137.5930 C   0  0  0  0  0  2  0  0  0  0  0  0
  190.5320  174.1500  137.3920 C   0  0  1  0  0  3  0  0  0  0  0  0
  183.4090  177.8780  136.4420 C   0  0  0  0  0  1  0  0  0  0  0  0
  189.8030  178.5580  139.2840 C   0  0  0  0  0  2  0  0  0  0  0  0
  191.4570  176.8540  142.1820 O   0  0  0  0  0  1  0  0  0  0  0  0
  188.4910  177.7550  139.3110 C   0  0  2  0  0  3  0  0  0  0  0  0
  189.5700  173.1650  137.0690 O   0  0  0  0  0  0  0  0  0  0  0  0
  191.6860  175.3160  135.4900 C   0  0  0  0  0  3  0  0  0  0  0  0
  191.6880  174.2750  136.4250 C   0  0  0  0  0  0  0  0  0  0  0  0
  192.7700  173.3830  136.4670 C   0  0  0  0  0  3  0  0  0  0  0  0
  195.1770  172.4070  135.6270 Cl  0  0  0  0  0  0  0  0  0  0  0  0
  193.8250  174.5650  134.6360 C   0  0  0  0  0  3  0  0  0  0  0  0
  193.8330  173.5260  135.5730 C   0  0  0  0  0  0  0  0  0  0  0  0
  192.7510  175.4600  134.5960 C   0  0  0  0  0  3  0  0  0  0  0  0
  188.3060  176.6150  143.9560 C   0  0  0  0  0  1  0  0  0  0  0  0
  188.5860  176.0890  142.6930 O   0  0  0  0  0  0  0  0  0  0  0  0
  1  4  1  0  0  0  0
  2 17  1  0  0  0  0
  2 14  1  0  0  0  0
  3  7  1  0  0  0  0
  4 12  1  0  0  0  0
  4 37  1  0  0  0  0
  5 19  1  0  0  0  0
  6 11  1  0  0  0  0
  6  9  1  0  0  0  0
  6 22  1  0  0  0  0
  7 21  1  0  0  0  0
  7 10  1  0  0  0  0
  8 12  1  0  0  0  0
  8 26  1  0  0  0  0
  9  3  1  0  0  0  0
  9 13  1  0  0  0  0
 10  5  1  0  0  0  0
 15 20  1  0  0  0  0
 15 28  1  0  0  0  0
 16 20  1  0  0  0  0
 16 11  1  0  0  0  0
 17 13  1  0  0  0  0
 18  8  1  0  0  0  0
 19 18  1  0  0  0  0
 20  3  1  0  0  0  0
 21 13  1  0  0  0  0
 21 27  1  0  0  0  0
 22  2  1  0  0  0  0
 23 10  1  0  0  0  0
 24  2  1  0  0  0  0
 25 27  1  0  0  0  0
 25 18  1  0  0  0  0
 27  1  1  0  0  0  0
 28 23  1  0  0  0  0
 29 30  1  0  0  0  0
 30 31  2  0  0  0  0
 30 23  1  0  0  0  0
 33 34  2  0  0  0  0
 34 32  1  0  0  0  0
 34 31  1  0  0  0  0
 35 33  1  0  0  0  0
 35 29  2  0  0  0  0
 37 36  1  0  0  0  0
M  END
>  <MODEL>
5

>  <REMARK>
 VINA RESULT:      -4.5      4.511      9.430
  Name = 
  2 active torsions:
  status: ('A' for Active; 'I' for Inactive)
    1  A    between atoms: C_4  and  O_37
    2  A    between atoms: C_23  and  C_30
                            x       y       z     vdW  Elec       q    Type
                         _______ _______ _______ _____ _____    ______ ____

>  <TORSDO>
F 2

$$$$
=
 OpenBabel11122411243D

 37 43  0  0  1  0  0  0  0  0999 V2000
  187.8280  177.1260  140.9720 C   0  0  0  0  0  2  0  0  0  0  0  0
  183.4870  178.5750  138.7130 C   0  0  0  0  0  0  0  0  0  0  0  0
  186.6870  176.0190  137.5830 N   0  0  1  0  0  0  0  0  0  0  0  0
  188.0160  177.4740  142.4520 C   0  0  2  0  0  3  0  0  0  0  0  0
  190.2010  176.8520  138.4810 O   0  0  0  0  0  0  0  0  0  0  0  0
  184.2270  176.5030  137.3910 C   0  0  1  0  0  3  0  0  0  0  0  0
  187.8840  176.8560  137.7690 C   0  0  2  0  0  3  0  0  0  0  0  0
  190.5230  178.0200  142.0560 C   0  0  2  0  0  3  0  0  0  0  0  0
  185.6570  177.0330  137.5390 C   0  0  1  0  0  3  0  0  0  0  0  0
  189.0630  176.0460  138.3610 C   0  0  1  0  0  3  0  0  0  0  0  0
  184.2220  174.9770  137.2690 C   0  0  0  0  0  2  0  0  0  0  0  0
  189.2070  178.3960  142.7550 C   0  0  0  0  0  2  0  0  0  0  0  0
  185.9040  177.8570  138.7430 C   0  0  2  0  0  3  0  0  0  0  0  0
  182.8650  178.9370  140.0450 C   0  0  0  0  0  1  0  0  0  0  0  0
  187.7820  174.4010  136.0450 C   0  0  0  0  0  2  0  0  0  0  0  0
  185.2820  174.5000  136.2490 C   0  0  0  0  0  2  0  0  0  0  0  0
  184.9640  179.0490  138.7190 C   0  0  0  0  0  2  0  0  0  0  0  0
  190.5070  178.1070  140.5110 C   0  0  1  0  0  3  0  0  0  0  0  0
  190.5820  176.7420  139.8200 C   0  0  0  0  0  2  0  0  0  0  0  0
  186.5950  175.3170  136.3010 C   0  0  1  0  0  3  0  0  0  0  0  0
  187.3950  178.0930  138.6190 C   0  0  1  0  0  3  0  0  0  0  0  0
  183.3030  177.0470  138.4910 C   0  0  0  0  0  2  0  0  0  0  0  0
  189.4300  174.7600  137.5820 C   0  0  1  0  0  3  0  0  0  0  0  0
  182.7450  179.3270  137.6250 C   0  0  0  0  0  1  0  0  0  0  0  0
  189.3650  178.9840  139.9680 C   0  0  0  0  0  2  0  0  0  0  0  0
  191.0130  176.7980  142.5270 O   0  0  0  0  0  1  0  0  0  0  0  0
  187.9730  178.3310  140.0250 C   0  0  2  0  0  3  0  0  0  0  0  0
  188.3380  173.9280  137.2440 O   0  0  0  0  0  0  0  0  0  0  0  0
  190.4720  175.9050  135.6040 C   0  0  0  0  0  3  0  0  0  0  0  0
  190.5190  174.8650  136.5390 C   0  0  0  0  0  0  0  0  0  0  0  0
  191.5870  173.9550  136.5080 C   0  0  0  0  0  3  0  0  0  0  0  0
  193.9150  172.9370  135.5090 Cl  0  0  0  0  0  0  0  0  0  0  0  0
  192.5340  175.1170  134.6080 C   0  0  0  0  0  3  0  0  0  0  0  0
  192.5890  174.0790  135.5440 C   0  0  0  0  0  0  0  0  0  0  0  0
  191.4750  176.0290  134.6390 C   0  0  0  0  0  3  0  0  0  0  0  0
  188.0820  176.7190  144.5310 C   0  0  0  0  0  1  0  0  0  0  0  0
  188.1160  176.3000  143.2000 O   0  0  0  0  0  0  0  0  0  0  0  0
  1  4  1  0  0  0  0
  2 17  1  0  0  0  0
  2 14  1  0  0  0  0
  3  7  1  0  0  0  0
  4 12  1  0  0  0  0
  4 37  1  0  0  0  0
  5 19  1  0  0  0  0
  6  9  1  0  0  0  0
  6 22  1  0  0  0  0
  7 10  1  0  0  0  0
  7 21  1  0  0  0  0
  8 26  1  0  0  0  0
  8 12  1  0  0  0  0
  9  3  1  0  0  0  0
  9 13  1  0  0  0  0
 10  5  1  0  0  0  0
 11  6  1  0  0  0  0
 15 20  1  0  0  0  0
 15 28  1  0  0  0  0
 16 20  1  0  0  0  0
 16 11  1  0  0  0  0
 17 13  1  0  0  0  0
 18  8  1  0  0  0  0
 19 18  1  0  0  0  0
 20  3  1  0  0  0  0
 21 13  1  0  0  0  0
 21 27  1  0  0  0  0
 22  2  1  0  0  0  0
 23 10  1  0  0  0  0
 24  2  1  0  0  0  0
 25 27  1  0  0  0  0
 25 18  1  0  0  0  0
 27  1  1  0  0  0  0
 28 23  1  0  0  0  0
 29 30  1  0  0  0  0
 30 23  1  0  0  0  0
 31 30  2  0  0  0  0
 32 34  1  0  0  0  0
 33 35  1  0  0  0  0
 33 34  2  0  0  0  0
 34 31  1  0  0  0  0
 35 29  2  0  0  0  0
 37 36  1  0  0  0  0
M  END
>  <MODEL>
6

>  <REMARK>
 VINA RESULT:      -4.1      3.987      8.899
  Name = 
  2 active torsions:
  status: ('A' for Active; 'I' for Inactive)
    1  A    between atoms: C_4  and  O_37
    2  A    between atoms: C_23  and  C_30
                            x       y       z     vdW  Elec       q    Type
                         _______ _______ _______ _____ _____    ______ ____

>  <TORSDO>
F 2

$$$$
=
 OpenBabel11122411243D

 37 43  0  0  1  0  0  0  0  0999 V2000
  189.0690  176.4380  140.2120 C   0  0  0  0  0  2  0  0  0  0  0  0
  185.5350  176.9390  136.5630 C   0  0  0  0  0  0  0  0  0  0  0  0
  189.3510  175.0790  136.7360 N   0  0  1  0  0  0  0  0  0  0  0  0
  188.6840  176.8360  141.6400 C   0  0  2  0  0  3  0  0  0  0  0  0
  192.1420  176.6250  138.6520 O   0  0  0  0  0  0  0  0  0  0  0  0
  187.0510  175.0460  135.7210 C   0  0  1  0  0  3  0  0  0  0  0  0
  190.2370  176.1450  137.2310 C   0  0  2  0  0  3  0  0  0  0  0  0
  191.0290  177.8790  142.0350 C   0  0  2  0  0  3  0  0  0  0  0  0
  188.2230  175.8600  136.2810 C   0  0  1  0  0  3  0  0  0  0  0  0
  191.2830  175.6010  138.2350 C   0  0  1  0  0  3  0  0  0  0  0  0
  187.3750  173.5500  135.7260 C   0  0  0  0  0  2  0  0  0  0  0  0
  189.5090  177.9850  142.2370 C   0  0  0  0  0  2  0  0  0  0  0  0
  187.8940  176.7310  137.4300 C   0  0  2  0  0  3  0  0  0  0  0  0
  184.4490  177.1820  137.5900 C   0  0  0  0  0  1  0  0  0  0  0  0
  191.1810  173.7010  135.7680 C   0  0  0  0  0  2  0  0  0  0  0  0
  188.7840  173.2880  135.1440 C   0  0  0  0  0  2  0  0  0  0  0  0
  186.8090  177.7060  137.0080 C   0  0  0  0  0  2  0  0  0  0  0  0
  191.5120  177.9410  140.5650 C   0  0  1  0  0  3  0  0  0  0  0  0
  192.0690  176.6120  140.0470 C   0  0  0  0  0  2  0  0  0  0  0  0
  189.8260  174.3570  135.5530 C   0  0  1  0  0  3  0  0  0  0  0  0
  189.2690  177.2660  137.7760 C   0  0  1  0  0  3  0  0  0  0  0  0
  185.7280  175.4030  136.4160 C   0  0  0  0  0  2  0  0  0  0  0  0
  192.1240  174.4080  137.7220 C   0  0  1  0  0  3  0  0  0  0  0  0
  185.0700  177.5090  135.2380 C   0  0  0  0  0  1  0  0  0  0  0  0
  190.4710  178.5590  139.6140 C   0  0  0  0  0  2  0  0  0  0  0  0
  191.5560  176.7890  142.7340 O   0  0  0  0  0  1  0  0  0  0  0  0
  189.2890  177.6360  139.2700 C   0  0  2  0  0  3  0  0  0  0  0  0
  191.3850  173.3670  137.1160 O   0  0  0  0  0  0  0  0  0  0  0  0
  194.5420  173.8680  137.3100 C   0  0  0  0  0  3  0  0  0  0  0  0
  193.4580  174.7220  137.0820 C   0  0  0  0  0  0  0  0  0  0  0  0
  193.6180  175.8380  136.2470 C   0  0  0  0  0  3  0  0  0  0  0  0
  195.0510  177.4960  134.6190 Cl  0  0  0  0  0  0  0  0  0  0  0  0
  195.9380  175.2470  135.8910 C   0  0  0  0  0  3  0  0  0  0  0  0
  194.8560  176.1000  135.6560 C   0  0  0  0  0  0  0  0  0  0  0  0
  195.7810  174.1310  136.7170 C   0  0  0  0  0  3  0  0  0  0  0  0
  188.0750  176.0930  143.6350 C   0  0  0  0  0  1  0  0  0  0  0  0
  188.7500  175.7170  142.4720 O   0  0  0  0  0  0  0  0  0  0  0  0
  1  4  1  0  0  0  0
  2 17  1  0  0  0  0
  2 14  1  0  0  0  0
  3  7  1  0  0  0  0
  4 12  1  0  0  0  0
  4 37  1  0  0  0  0
  5 19  1  0  0  0  0
  6 11  1  0  0  0  0
  6  9  1  0  0  0  0
  6 22  1  0  0  0  0
  7 21  1  0  0  0  0
  7 10  1  0  0  0  0
  8 12  1  0  0  0  0
  8 26  1  0  0  0  0
  9  3  1  0  0  0  0
  9 13  1  0  0  0  0
 10  5  1  0  0  0  0
 13 21  1  0  0  0  0
 15 28  1  0  0  0  0
 16 20  1  0  0  0  0
 16 11  1  0  0  0  0
 17 13  1  0  0  0  0
 18  8  1  0  0  0  0
 19 18  1  0  0  0  0
 20 15  1  0  0  0  0
 20  3  1  0  0  0  0
 21 27  1  0  0  0  0
 22  2  1  0  0  0  0
 23 10  1  0  0  0  0
 24  2  1  0  0  0  0
 25 18  1  0  0  0  0
 27 25  1  0  0  0  0
 27  1  1  0  0  0  0
 28 23  1  0  0  0  0
 30 29  1  0  0  0  0
 30 23  1  0  0  0  0
 31 30  2  0  0  0  0
 32 34  1  0  0  0  0
 33 35  1  0  0  0  0
 34 33  2  0  0  0  0
 34 31  1  0  0  0  0
 35 29  2  0  0  0  0
 37 36  1  0  0  0  0
M  END
>  <MODEL>
7

>  <REMARK>
 VINA RESULT:      -3.9      4.964      9.883
  Name = 
  2 active torsions:
  status: ('A' for Active; 'I' for Inactive)
    1  A    between atoms: C_4  and  O_37
    2  A    between atoms: C_23  and  C_30
                            x       y       z     vdW  Elec       q    Type
                         _______ _______ _______ _____ _____    ______ ____

>  <TORSDO>
F 2

$$$$
=
 OpenBabel11122411243D

 37 43  0  0  1  0  0  0  0  0999 V2000
  183.1870  176.7330  138.7980 C   0  0  0  0  0  2  0  0  0  0  0  0
  180.1050  173.6970  136.0890 C   0  0  0  0  0  0  0  0  0  0  0  0
  184.3170  173.9300  136.5880 N   0  0  1  0  0  0  0  0  0  0  0  0
  182.5470  177.6600  139.8350 C   0  0  2  0  0  3  0  0  0  0  0  0
  186.0220  177.2250  136.8910 O   0  0  0  0  0  0  0  0  0  0  0  0
  182.3410  172.4390  136.1460 C   0  0  1  0  0  3  0  0  0  0  0  0
  184.6280  175.3380  136.2840 C   0  0  2  0  0  3  0  0  0  0  0  0
  184.1940  179.5700  139.2170 C   0  0  2  0  0  3  0  0  0  0  0  0
  183.0100  173.8090  135.9820 C   0  0  1  0  0  3  0  0  0  0  0  0
  185.7120  175.9030  137.2330 C   0  0  1  0  0  3  0  0  0  0  0  0
  183.2610  171.4700  136.8920 C   0  0  0  0  0  2  0  0  0  0  0  0
  182.7580  179.1600  139.5820 C   0  0  0  0  0  2  0  0  0  0  0  0
  182.2470  174.9530  136.5270 C   0  0  2  0  0  3  0  0  0  0  0  0
  178.9310  174.0120  136.9930 C   0  0  0  0  0  1  0  0  0  0  0  0
  186.6330  173.1060  136.2130 C   0  0  0  0  0  2  0  0  0  0  0  0
  184.6960  171.5130  136.3140 C   0  0  0  0  0  2  0  0  0  0  0  0
  180.8950  175.0090  135.8390 C   0  0  0  0  0  2  0  0  0  0  0  0
  184.7330  178.9970  137.8840 C   0  0  1  0  0  3  0  0  0  0  0  0
  185.8400  177.9540  138.0680 C   0  0  0  0  0  2  0  0  0  0  0  0
  185.1530  172.9350  135.9110 C   0  0  1  0  0  3  0  0  0  0  0  0
  183.2340  176.0800  136.3010 C   0  0  1  0  0  3  0  0  0  0  0  0
  180.9360  172.5620  136.7520 C   0  0  0  0  0  2  0  0  0  0  0  0
  187.0170  175.0750  137.3020 C   0  0  1  0  0  3  0  0  0  0  0  0
  179.5610  173.2030  134.7630 C   0  0  0  0  0  1  0  0  0  0  0  0
  183.6170  178.5170  136.9390 C   0  0  0  0  0  2  0  0  0  0  0  0
  185.0660  179.3610  140.2900 O   0  0  0  0  0  1  0  0  0  0  0  0
  182.9670  177.1820  137.3410 C   0  0  2  0  0  3  0  0  0  0  0  0
  186.8400  173.6830  137.4760 O   0  0  0  0  0  0  0  0  0  0  0  0
  187.9340  176.4960  135.4450 C   0  0  0  0  0  3  0  0  0  0  0  0
  188.1470  175.4790  136.3820 C   0  0  0  0  0  0  0  0  0  0  0  0
  189.4080  174.8700  136.4690 C   0  0  0  0  0  3  0  0  0  0  0  0
  192.0100  174.5020  135.7290 Cl  0  0  0  0  0  0  0  0  0  0  0  0
  190.2220  176.2820  134.6790 C   0  0  0  0  0  3  0  0  0  0  0  0
  190.4410  175.2690  135.6180 C   0  0  0  0  0  0  0  0  0  0  0  0
  188.9690  176.8960  134.5940 C   0  0  0  0  0  3  0  0  0  0  0  0
  182.3820  178.2310  141.9670 C   0  0  0  0  0  1  0  0  0  0  0  0
  183.0030  177.3200  141.1100 O   0  0  0  0  0  0  0  0  0  0  0  0
  1  4  1  0  0  0  0
  2 22  1  0  0  0  0
  2 14  1  0  0  0  0
  4 37  1  0  0  0  0
  5 10  1  0  0  0  0
  5 19  1  0  0  0  0
  6 22  1  0  0  0  0
  6 11  1  0  0  0  0
  7 21  1  0  0  0  0
  7  3  1  0  0  0  0
  7 10  1  0  0  0  0
  8 12  1  0  0  0  0
  8 26  1  0  0  0  0
  9  6  1  0  0  0  0
  9 13  1  0  0  0  0
  9  3  1  0  0  0  0
 10 23  1  0  0  0  0
 12  4  1  0  0  0  0
 15 28  1  0  0  0  0
 16 11  1  0  0  0  0
 17  2  1  0  0  0  0
 17 13  1  0  0  0  0
 18 19  1  0  0  0  0
 18  8  1  0  0  0  0
 20 15  1  0  0  0  0
 20 16  1  0  0  0  0
 20  3  1  0  0  0  0
 21 13  1  0  0  0  0
 21 27  1  0  0  0  0
 23 28  1  0  0  0  0
 24  2  1  0  0  0  0
 25 27  1  0  0  0  0
 25 18  1  0  0  0  0
 27  1  1  0  0  0  0
 29 30  1  0  0  0  0
 30 31  2  0  0  0  0
 30 23  1  0  0  0  0
 33 34  2  0  0  0  0
 34 32  1  0  0  0  0
 34 31  1  0  0  0  0
 35 33  1  0  0  0  0
 35 29  2  0  0  0  0
 37 36  1  0  0  0  0
M  END
>  <MODEL>
8

>  <REMARK>
 VINA RESULT:      -3.8      3.285      7.917
  Name = 
  2 active torsions:
  status: ('A' for Active; 'I' for Inactive)
    1  A    between atoms: C_4  and  O_37
    2  A    between atoms: C_23  and  C_30
                            x       y       z     vdW  Elec       q    Type
                         _______ _______ _______ _____ _____    ______ ____

>  <TORSDO>
F 2

$$$$
=
 OpenBabel11122411243D

 37 43  0  0  1  0  0  0  0  0999 V2000
  186.3790  176.5030  136.0940 C   0  0  0  0  0  2  0  0  0  0  0  0
  184.7610  171.6930  135.5470 C   0  0  0  0  0  0  0  0  0  0  0  0
  182.8450  175.3520  136.5390 N   0  0  1  0  0  0  0  0  0  0  0  0
  187.8010  176.8370  135.6310 C   0  0  2  0  0  3  0  0  0  0  0  0
  184.5480  177.8790  138.6760 O   0  0  0  0  0  0  0  0  0  0  0  0
  182.6150  173.0970  135.4510 C   0  0  1  0  0  3  0  0  0  0  0  0
  183.6440  175.8720  137.6620 C   0  0  2  0  0  3  0  0  0  0  0  0
  188.1510  178.4000  137.6750 C   0  0  2  0  0  3  0  0  0  0  0  0
  183.2420  173.9620  136.5500 C   0  0  1  0  0  3  0  0  0  0  0  0
  183.8270  177.4060  137.5720 C   0  0  1  0  0  3  0  0  0  0  0  0
  181.6440  173.9180  134.5990 C   0  0  0  0  0  2  0  0  0  0  0  0
  188.7420  177.3340  136.7390 C   0  0  0  0  0  2  0  0  0  0  0  0
  184.7200  174.0040  136.5540 C   0  0  2  0  0  3  0  0  0  0  0  0
  185.9560  171.3450  134.6840 C   0  0  0  0  0  1  0  0  0  0  0  0
  180.8330  176.7240  137.0440 C   0  0  0  0  0  2  0  0  0  0  0  0
  180.6980  174.7560  135.4920 C   0  0  0  0  0  2  0  0  0  0  0  0
  185.2480  172.5900  136.7160 C   0  0  0  0  0  2  0  0  0  0  0  0
  186.9490  177.9390  138.5360 C   0  0  1  0  0  3  0  0  0  0  0  0
  185.6220  178.5860  138.1300 C   0  0  0  0  0  2  0  0  0  0  0  0
  181.3940  175.3430  136.7430 C   0  0  1  0  0  3  0  0  0  0  0  0
  184.9680  175.0120  137.6580 C   0  0  1  0  0  3  0  0  0  0  0  0
  183.6830  172.3490  134.6390 C   0  0  0  0  0  2  0  0  0  0  0  0
  182.5160  178.2150  137.4350 C   0  0  1  0  0  3  0  0  0  0  0  0
  184.2060  170.4070  136.1260 C   0  0  0  0  0  1  0  0  0  0  0  0
  186.8490  176.4080  138.6610 C   0  0  0  0  0  2  0  0  0  0  0  0
  187.9030  179.5920  136.9890 O   0  0  0  0  0  1  0  0  0  0  0  0
  186.3230  175.6950  137.4030 C   0  0  2  0  0  3  0  0  0  0  0  0
  181.6110  177.7370  136.4600 O   0  0  0  0  0  0  0  0  0  0  0  0
  182.1300  178.0810  139.9140 C   0  0  0  0  0  3  0  0  0  0  0  0
  181.8880  178.7440  138.7060 C   0  0  0  0  0  0  0  0  0  0  0  0
  181.0900  179.8980  138.6960 C   0  0  0  0  0  3  0  0  0  0  0  0
  179.5340  181.8130  139.8650 Cl  0  0  0  0  0  0  0  0  0  0  0  0
  180.7720  179.7060  141.0880 C   0  0  0  0  0  3  0  0  0  0  0  0
  180.5320  180.3750  139.8840 C   0  0  0  0  0  0  0  0  0  0  0  0
  181.5710  178.5590  141.1020 C   0  0  0  0  0  3  0  0  0  0  0  0
  186.4420  178.2580  134.6170 C   0  0  0  0  0  1  0  0  0  0  0  0
  187.7490  177.7680  134.5940 O   0  0  0  0  0  0  0  0  0  0  0  0
  1 27  1  0  0  0  0
  2 24  1  0  0  0  0
  2 17  1  0  0  0  0
  3  9  1  0  0  0  0
  3 20  1  0  0  0  0
  3  7  1  0  0  0  0
  4  1  1  0  0  0  0
  4 12  1  0  0  0  0
  6  9  1  0  0  0  0
  8 18  1  0  0  0  0
  9 13  1  0  0  0  0
 10  7  1  0  0  0  0
 10  5  1  0  0  0  0
 11  6  1  0  0  0  0
 11 16  1  0  0  0  0
 12  8  1  0  0  0  0
 13 17  1  0  0  0  0
 13 21  1  0  0  0  0
 14  2  1  0  0  0  0
 16 20  1  0  0  0  0
 18 25  1  0  0  0  0
 19 18  1  0  0  0  0
 19  5  1  0  0  0  0
 20 15  1  0  0  0  0
 21  7  1  0  0  0  0
 22  6  1  0  0  0  0
 22  2  1  0  0  0  0
 23 10  1  0  0  0  0
 23 30  1  0  0  0  0
 26  8  1  0  0  0  0
 27 21  1  0  0  0  0
 27 25  1  0  0  0  0
 28 15  1  0  0  0  0
 28 23  1  0  0  0  0
 29 35  1  0  0  0  0
 30 29  2  0  0  0  0
 31 30  1  0  0  0  0
 31 34  2  0  0  0  0
 32 34  1  0  0  0  0
 33 35  2  0  0  0  0
 34 33  1  0  0  0  0
 37 36  1  0  0  0  0
 37  4  1  0  0  0  0
M  END
>  <MODEL>
9

>  <REMARK>
 VINA RESULT:      -3.6      2.205      5.635
  Name = 
  2 active torsions:
  status: ('A' for Active; 'I' for Inactive)
    1  A    between atoms: C_4  and  O_37
    2  A    between atoms: C_23  and  C_30
                            x       y       z     vdW  Elec       q    Type
                         _______ _______ _______ _____ _____    ______ ____

>  <TORSDO>
F 2

$$$$
