=
 OpenBabel11122411393D

 37 44  0  0  1  0  0  0  0  0999 V2000
  187.4620  177.5300  139.7440 C   0  0  0  0  0  2  0  0  0  0  0  0
  190.4040  177.3200  143.1280 C   0  0  0  0  0  0  0  0  0  0  0  0
  186.4060  178.1160  144.2410 C   0  0  0  0  0  0  0  0  0  0  0  0
  187.8090  177.9290  138.3770 N   0  0  0  0  0  0  0  0  0  0  0  0
  183.8490  178.2220  141.4890 O   0  0  0  0  0  0  0  0  0  0  0  0
  188.6830  177.6600  144.9950 C   0  0  0  0  0  0  0  0  0  0  0  0
  185.8380  178.3950  143.0540 C   0  0  0  0  0  0  0  0  0  0  0  0
  185.3360  177.8530  138.0820 C   0  0  0  0  0  0  0  0  0  0  0  0
  187.8190  178.0320  144.0660 C   0  0  0  0  0  0  0  0  0  0  0  0
  184.3440  178.5100  142.7770 C   0  0  0  0  0  0  0  0  0  0  0  0
  188.1850  177.3700  146.3960 C   0  0  0  0  0  2  0  0  0  0  0  0
  186.6510  178.3910  137.5930 C   0  0  0  0  0  2  0  0  0  0  0  0
  188.1240  178.2530  142.6930 C   0  0  0  0  0  0  0  0  0  0  0  0
  190.1470  175.8490  142.8440 C   0  0  0  0  0  1  0  0  0  0  0  0
  184.3810  177.9840  145.8410 C   0  0  0  0  0  2  0  0  0  0  0  0
  186.6700  177.5030  146.5680 C   0  0  0  0  0  3  0  0  0  0  0  0
  189.5320  178.1870  142.1860 C   0  0  0  0  0  2  0  0  0  0  0  0
  184.6000  178.5660  139.1780 C   0  0  1  0  0  3  0  0  0  0  0  0
  184.7400  177.8890  140.4540 C   0  0  1  0  0  3  0  0  0  0  0  0
  185.8370  177.8530  145.5710 C   0  0  0  0  0  0  0  0  0  0  0  0
  186.9770  178.4690  142.0500 C   0  0  0  0  0  0  0  0  0  0  0  0
  190.1500  177.6090  144.6350 C   0  0  0  0  0  2  0  0  0  0  0  0
  183.4450  178.8780  143.7280 C   0  0  0  0  0  0  0  0  0  0  0  0
  191.8600  177.6080  142.8270 C   0  0  0  0  0  1  0  0  0  0  0  0
  185.5110  179.1260  140.2140 N   0  0  1  0  0  0  0  0  0  0  0  0
  184.8720  176.8370  137.5920 O   0  0  0  0  0  0  0  0  0  0  0  0
  186.8830  178.7070  140.5520 C   0  0  2  0  0  3  0  0  0  0  0  0
  183.8550  179.2150  145.1310 C   0  0  0  0  0  2  0  0  0  0  0  0
  181.0500  178.4990  144.3430 C   0  0  0  0  0  3  0  0  0  0  0  0
  181.9920  178.9970  143.4290 C   0  0  0  0  0  0  0  0  0  0  0  0
  181.5350  179.6480  142.2720 C   0  0  0  0  0  3  0  0  0  0  0  0
  179.6150  180.5810  140.5680 Cl  0  0  0  0  0  0  0  0  0  0  0  0
  179.2390  179.2660  142.9330 C   0  0  0  0  0  3  0  0  0  0  0  0
  180.1660  179.7760  142.0220 C   0  0  0  0  0  0  0  0  0  0  0  0
  179.6800  178.6280  144.0940 C   0  0  0  0  0  3  0  0  0  0  0  0
  189.6790  176.3750  138.3120 C   0  0  0  0  0  1  0  0  0  0  0  0
  188.3400  176.7530  137.7070 C   0  0  0  0  0  2  0  0  0  0  0  0
  1 27  1  0  0  0  0
  2 22  1  0  0  0  0
  3 20  1  0  0  0  0
  4  1  1  0  0  0  0
  5 10  1  0  0  0  0
  6 11  1  0  0  0  0
  7  3  2  0  0  0  0
  9  3  1  0  0  0  0
  9  6  2  0  0  0  0
 10  7  1  0  0  0  0
 10 23  2  0  0  0  0
 11 16  1  0  0  0  0
 12  8  1  0  0  0  0
 12  4  1  0  0  0  0
 13  9  1  0  0  0  0
 14  2  1  0  0  0  0
 17 13  1  0  0  0  0
 17  2  1  0  0  0  0
 18  8  1  6  0  0  0
 18 25  1  0  0  0  0
 18 19  1  0  0  0  0
 19  5  1  1  0  0  0
 20 15  1  0  0  0  0
 20 16  2  0  0  0  0
 21 13  2  0  0  0  0
 21  7  1  0  0  0  0
 22  6  1  0  0  0  0
 23 28  1  0  0  0  0
 24  2  1  0  0  0  0
 25 19  1  0  0  0  0
 25 27  1  0  0  0  0
 26  8  2  0  0  0  0
 27 21  1  0  0  0  0
 28 15  1  0  0  0  0
 30 23  1  0  0  0  0
 30 29  2  0  0  0  0
 31 30  1  0  0  0  0
 32 34  1  0  0  0  0
 33 35  2  0  0  0  0
 34 31  2  0  0  0  0
 34 33  1  0  0  0  0
 35 29  1  0  0  0  0
 37 36  1  0  0  0  0
 37  4  1  0  0  0  0
M  END
>  <MODEL>
1

>  <REMARK>
 VINA RESULT:     -11.1      0.000      0.000
  Name = 
  2 active torsions:
  status: ('A' for Active; 'I' for Inactive)
    1  A    between atoms: N_4  and  C_37
    2  A    between atoms: C_23  and  C_30
                            x       y       z     vdW  Elec       q    Type
                         _______ _______ _______ _____ _____    ______ ____

>  <TORSDO>
F 2

$$$$
=
 OpenBabel11122411393D

 37 44  0  0  1  0  0  0  0  0999 V2000
  189.3960  177.0710  138.8680 C   0  0  0  0  0  2  0  0  0  0  0  0
  190.3440  177.1600  143.2550 C   0  0  0  0  0  0  0  0  0  0  0  0
  186.3880  178.2330  142.2270 C   0  0  0  0  0  0  0  0  0  0  0  0
  190.3850  177.2900  137.8080 N   0  0  0  0  0  0  0  0  0  0  0  0
  185.4670  178.1030  138.5870 O   0  0  0  0  0  0  0  0  0  0  0  0
  187.9810  177.7870  144.0230 C   0  0  0  0  0  0  0  0  0  0  0  0
  186.4800  178.3880  140.8950 C   0  0  0  0  0  0  0  0  0  0  0  0
  188.3530  177.2710  136.3660 C   0  0  0  0  0  0  0  0  0  0  0  0
  187.7010  178.0750  142.7630 C   0  0  0  0  0  0  0  0  0  0  0  0
  185.3150  178.5260  139.9230 C   0  0  0  0  0  0  0  0  0  0  0  0
  186.8540  177.6860  145.0290 C   0  0  0  0  0  2  0  0  0  0  0  0
  189.7860  177.6970  136.5270 C   0  0  0  0  0  2  0  0  0  0  0  0
  188.6390  178.1180  141.6940 C   0  0  0  0  0  0  0  0  0  0  0  0
  190.1210  175.6760  143.0120 C   0  0  0  0  0  1  0  0  0  0  0  0
  183.8440  178.3710  142.6570 C   0  0  0  0  0  2  0  0  0  0  0  0
  185.4590  177.8950  144.4370 C   0  0  0  0  0  3  0  0  0  0  0  0
  190.1070  177.9390  141.9370 C   0  0  0  0  0  2  0  0  0  0  0  0
  187.2530  178.1380  136.9040 C   0  0  1  0  0  3  0  0  0  0  0  0
  186.7080  177.6140  138.1430 C   0  0  1  0  0  3  0  0  0  0  0  0
  185.2340  178.1540  143.1360 C   0  0  0  0  0  0  0  0  0  0  0  0
  187.9610  178.2990  140.5620 C   0  0  0  0  0  0  0  0  0  0  0  0
  189.4320  177.6370  144.4200 C   0  0  0  0  0  2  0  0  0  0  0  0
  184.1090  179.0380  140.2850 C   0  0  0  0  0  0  0  0  0  0  0  0
  191.7870  177.3550  143.6690 C   0  0  0  0  0  1  0  0  0  0  0  0
  187.6090  178.7840  138.1970 N   0  0  1  0  0  0  0  0  0  0  0  0
  188.0880  176.2220  135.8040 O   0  0  0  0  0  0  0  0  0  0  0  0
  188.6120  178.3580  139.1900 C   0  0  2  0  0  3  0  0  0  0  0  0
  183.8330  179.5260  141.6770 C   0  0  0  0  0  2  0  0  0  0  0  0
  182.2750  178.0360  138.9090 C   0  0  0  0  0  3  0  0  0  0  0  0
  182.9900  179.1750  139.3150 C   0  0  0  0  0  0  0  0  0  0  0  0
  182.5930  180.4320  138.8290 C   0  0  0  0  0  3  0  0  0  0  0  0
  181.0480  182.1180  137.3380 Cl  0  0  0  0  0  0  0  0  0  0  0  0
  180.8260  179.4030  137.5360 C   0  0  0  0  0  3  0  0  0  0  0  0
  181.5210  180.5450  137.9400 C   0  0  0  0  0  0  0  0  0  0  0  0
  181.2030  178.1490  138.0210 C   0  0  0  0  0  3  0  0  0  0  0  0
  192.5600  176.2040  137.7310 C   0  0  0  0  0  1  0  0  0  0  0  0
  191.0620  176.0220  137.5830 C   0  0  0  0  0  2  0  0  0  0  0  0
  1 27  1  0  0  0  0
  2 24  1  0  0  0  0
  2 22  1  0  0  0  0
  3  9  1  0  0  0  0
  3 20  1  0  0  0  0
  4  1  1  0  0  0  0
  5 10  1  0  0  0  0
  6 22  1  0  0  0  0
  6 11  1  0  0  0  0
  7  3  2  0  0  0  0
  8 12  1  0  0  0  0
  9  6  2  0  0  0  0
 10 23  2  0  0  0  0
 10  7  1  0  0  0  0
 12  4  1  0  0  0  0
 13 17  1  0  0  0  0
 13  9  1  0  0  0  0
 14  2  1  0  0  0  0
 15 20  1  0  0  0  0
 16 11  1  0  0  0  0
 17  2  1  0  0  0  0
 18  8  1  1  0  0  0
 18 19  1  0  0  0  0
 18 25  1  0  0  0  0
 19 25  1  0  0  0  0
 19  5  1  6  0  0  0
 20 16  2  0  0  0  0
 21  7  1  0  0  0  0
 21 13  2  0  0  0  0
 23 28  1  0  0  0  0
 25 27  1  0  0  0  0
 26  8  2  0  0  0  0
 27 21  1  0  0  0  0
 28 15  1  0  0  0  0
 29 30  1  0  0  0  0
 30 23  1  0  0  0  0
 31 30  2  0  0  0  0
 32 34  1  0  0  0  0
 33 34  2  0  0  0  0
 33 35  1  0  0  0  0
 34 31  1  0  0  0  0
 35 29  2  0  0  0  0
 37 36  1  0  0  0  0
 37  4  1  0  0  0  0
M  END
>  <MODEL>
2

>  <REMARK>
 VINA RESULT:     -10.3      1.988      3.118
  Name = 
  2 active torsions:
  status: ('A' for Active; 'I' for Inactive)
    1  A    between atoms: N_4  and  C_37
    2  A    between atoms: C_23  and  C_30
                            x       y       z     vdW  Elec       q    Type
                         _______ _______ _______ _____ _____    ______ ____

>  <TORSDO>
F 2

$$$$
=
 OpenBabel11122411393D

 37 44  0  0  1  0  0  0  0  0999 V2000
  188.7720  177.8290  141.2130 C   0  0  0  0  0  2  0  0  0  0  0  0
  184.4730  178.7170  142.1500 C   0  0  0  0  0  0  0  0  0  0  0  0
  186.9170  177.8390  145.4840 C   0  0  0  0  0  0  0  0  0  0  0  0
  189.2370  177.2570  139.9450 N   0  0  0  0  0  0  0  0  0  0  0  0
  190.5540  177.1700  144.8140 O   0  0  0  0  0  0  0  0  0  0  0  0
  184.7170  178.5440  144.6940 C   0  0  0  0  0  0  0  0  0  0  0  0
  188.0250  177.3540  144.8950 C   0  0  0  0  0  0  0  0  0  0  0  0
  191.3990  177.1320  141.1760 C   0  0  0  0  0  0  0  0  0  0  0  0
  185.8990  177.9860  144.4950 C   0  0  0  0  0  0  0  0  0  0  0  0
  189.3670  177.1050  145.5720 C   0  0  0  0  0  0  0  0  0  0  0  0
  184.3390  179.0030  146.0880 C   0  0  0  0  0  2  0  0  0  0  0  0
  190.5570  176.6130  140.0450 C   0  0  0  0  0  2  0  0  0  0  0  0
  186.4240  177.5880  143.2340 C   0  0  0  0  0  0  0  0  0  0  0  0
  185.0470  180.1110  141.9580 C   0  0  0  0  0  1  0  0  0  0  0  0
  187.6250  178.0740  147.9570 C   0  0  0  0  0  2  0  0  0  0  0  0
  185.4340  178.8000  147.1370 C   0  0  0  0  0  3  0  0  0  0  0  0
  185.6020  177.6680  141.9850 C   0  0  0  0  0  2  0  0  0  0  0  0
  191.2520  176.5420  142.5470 C   0  0  1  0  0  3  0  0  0  0  0  0
  190.4900  177.4050  143.4300 C   0  0  1  0  0  3  0  0  0  0  0  0
  186.6340  178.2560  146.8650 C   0  0  0  0  0  0  0  0  0  0  0  0
  187.6880  177.2070  143.4200 C   0  0  0  0  0  0  0  0  0  0  0  0
  183.7590  178.6350  143.5290 C   0  0  0  0  0  2  0  0  0  0  0  0
  189.4830  176.8240  146.8970 C   0  0  0  0  0  0  0  0  0  0  0  0
  183.4430  178.4810  141.0650 C   0  0  0  0  0  1  0  0  0  0  0  0
  189.8420  176.1980  142.8780 N   0  0  1  0  0  0  0  0  0  0  0  0
  192.1960  178.0340  140.9790 O   0  0  0  0  0  0  0  0  0  0  0  0
  188.6030  176.7470  142.2970 C   0  0  2  0  0  3  0  0  0  0  0  0
  188.2900  176.7210  147.8010 C   0  0  0  0  0  2  0  0  0  0  0  0
  191.5900  175.4890  147.1010 C   0  0  0  0  0  3  0  0  0  0  0  0
  190.8040  176.5700  147.5330 C   0  0  0  0  0  0  0  0  0  0  0  0
  191.3130  177.4230  148.5260 C   0  0  0  0  0  3  0  0  0  0  0  0
  193.1810  178.2530  150.3370 Cl  0  0  0  0  0  0  0  0  0  0  0  0
  193.3340  176.1000  148.6620 C   0  0  0  0  0  3  0  0  0  0  0  0
  192.5680  177.1860  149.0920 C   0  0  0  0  0  0  0  0  0  0  0  0
  192.8460  175.2530  147.6660 C   0  0  0  0  0  3  0  0  0  0  0  0
  189.4390  177.8110  137.5850 C   0  0  0  0  0  1  0  0  0  0  0  0
  189.3630  178.3550  138.9990 C   0  0  0  0  0  2  0  0  0  0  0  0
  1 27  1  0  0  0  0
  2 22  1  0  0  0  0
  3 20  1  0  0  0  0
  4 12  1  0  0  0  0
  4  1  1  0  0  0  0
  5 10  1  0  0  0  0
  6 11  1  0  0  0  0
  7  3  2  0  0  0  0
  7 10  1  0  0  0  0
  9  6  2  0  0  0  0
  9  3  1  0  0  0  0
 10 23  2  0  0  0  0
 11 16  1  0  0  0  0
 12  8  1  0  0  0  0
 13 21  2  0  0  0  0
 13  9  1  0  0  0  0
 14  2  1  0  0  0  0
 17  2  1  0  0  0  0
 17 13  1  0  0  0  0
 18  8  1  6  0  0  0
 18 25  1  0  0  0  0
 18 19  1  0  0  0  0
 19  5  1  1  0  0  0
 20 16  2  0  0  0  0
 20 15  1  0  0  0  0
 21  7  1  0  0  0  0
 22  6  1  0  0  0  0
 23 30  1  0  0  0  0
 23 28  1  0  0  0  0
 24  2  1  0  0  0  0
 25 19  1  0  0  0  0
 26  8  2  0  0  0  0
 27 25  1  0  0  0  0
 27 21  1  0  0  0  0
 28 15  1  0  0  0  0
 29 30  2  0  0  0  0
 29 35  1  0  0  0  0
 30 31  1  0  0  0  0
 31 34  2  0  0  0  0
 33 34  1  0  0  0  0
 34 32  1  0  0  0  0
 35 33  2  0  0  0  0
 36 37  1  0  0  0  0
 37  4  1  0  0  0  0
M  END
>  <MODEL>
3

>  <REMARK>
 VINA RESULT:     -10.1      4.031      7.486
  Name = 
  2 active torsions:
  status: ('A' for Active; 'I' for Inactive)
    1  A    between atoms: N_4  and  C_37
    2  A    between atoms: C_23  and  C_30
                            x       y       z     vdW  Elec       q    Type
                         _______ _______ _______ _____ _____    ______ ____

>  <TORSDO>
F 2

$$$$
=
 OpenBabel11122411393D

 37 44  0  0  1  0  0  0  0  0999 V2000
  184.5320  178.1610  138.9290 C   0  0  0  0  0  2  0  0  0  0  0  0
  187.9130  177.6020  136.0290 C   0  0  0  0  0  0  0  0  0  0  0  0
  188.9830  177.4820  140.1160 C   0  0  0  0  0  0  0  0  0  0  0  0
  183.3150  178.9250  138.6360 N   0  0  0  0  0  0  0  0  0  0  0  0
  186.2100  177.8500  142.6250 O   0  0  0  0  0  0  0  0  0  0  0  0
  189.7200  177.2150  137.8030 C   0  0  0  0  0  0  0  0  0  0  0  0
  187.8680  177.9470  140.7070 C   0  0  2  0  0  3  0  0  0  0  0  0
  182.8890  178.5420  141.0610 C   0  0  0  0  0  0  0  0  0  0  0  0
  188.8620  177.6610  138.7050 C   0  0  0  0  0  0  0  0  0  0  0  0
  187.5520  177.8940  142.1970 C   0  0  0  0  0  0  0  0  0  0  0  0
  190.9870  176.5240  138.2640 C   0  0  0  0  0  3  0  0  0  0  0  0
  182.6060  179.3780  139.8440 C   0  0  0  0  0  2  0  0  0  0  0  0
  187.5970  178.2490  138.4250 C   0  0  0  0  0  0  0  0  0  0  0  0
  187.2780  176.2200  136.0420 C   0  0  0  0  0  1  0  0  0  0  0  0
  190.4050  176.6600  142.1100 C   0  0  0  0  0  2  0  0  0  0  0  0
  191.1100  176.3780  139.7810 C   0  0  0  0  0  3  0  0  0  0  0  0
  187.1580  178.5240  137.0190 C   0  0  0  0  0  2  0  0  0  0  0  0
  184.0850  178.8490  141.9140 C   0  0  1  0  0  3  0  0  0  0  0  0
  185.1710  177.9160  141.6810 C   0  0  1  0  0  3  0  0  0  0  0  0
  190.1850  176.8240  140.6490 C   0  0  0  0  0  0  0  0  0  0  0  0
  186.9670  178.4340  139.5840 C   0  0  0  0  0  0  0  0  0  0  0  0
  189.4300  177.4780  136.3430 C   0  0  0  0  0  2  0  0  0  0  0  0
  188.5170  177.8800  143.1550 C   0  0  0  0  0  0  0  0  0  0  0  0
  187.7590  178.1740  134.6360 C   0  0  0  0  0  1  0  0  0  0  0  0
  185.2670  179.2780  141.1170 N   0  0  1  0  0  0  0  0  0  0  0  0
  182.1520  177.6150  141.3490 O   0  0  0  0  0  0  0  0  0  0  0  0
  185.5640  179.0070  139.6990 C   0  0  2  0  0  3  0  0  0  0  0  0
  189.9790  177.9300  142.8200 C   0  0  0  0  0  2  0  0  0  0  0  0
  189.2070  177.6650  145.5500 C   0  0  0  0  0  3  0  0  0  0  0  0
  188.1840  177.8420  144.6040 C   0  0  0  0  0  0  0  0  0  0  0  0
  186.8680  178.0340  145.0570 C   0  0  0  0  0  3  0  0  0  0  0  0
  184.9300  178.2530  146.9690 Cl  0  0  0  0  0  0  0  0  0  0  0  0
  187.6020  177.8340  147.3540 C   0  0  0  0  0  3  0  0  0  0  0  0
  186.5780  178.0240  146.4240 C   0  0  0  0  0  0  0  0  0  0  0  0
  188.9160  177.6560  146.9170 C   0  0  0  0  0  3  0  0  0  0  0  0
  183.2000  176.9050  137.2870 C   0  0  0  0  0  1  0  0  0  0  0  0
  182.4150  178.0400  137.9140 C   0  0  0  0  0  2  0  0  0  0  0  0
  1 27  1  0  0  0  0
  2 14  1  0  0  0  0
  2 22  1  0  0  0  0
  2 17  1  0  0  0  0
  3 20  1  0  0  0  0
  3  7  1  0  0  0  0
  4  1  1  0  0  0  0
  4 12  1  0  0  0  0
  6 11  2  0  0  0  0
  6  9  1  0  0  0  0
  7 21  1  6  0  0  0
  7 10  1  0  0  0  0
  8 26  2  0  0  0  0
  9  3  2  0  0  0  0
 10  5  1  0  0  0  0
 10 23  2  0  0  0  0
 11 16  1  0  0  0  0
 12  8  1  0  0  0  0
 13  9  1  0  0  0  0
 13 21  2  0  0  0  0
 15 28  1  0  0  0  0
 16 20  2  0  0  0  0
 17 13  1  0  0  0  0
 18  8  1  6  0  0  0
 19 18  1  0  0  0  0
 19  5  1  1  0  0  0
 20 15  1  0  0  0  0
 21 27  1  0  0  0  0
 22  6  1  0  0  0  0
 23 30  1  0  0  0  0
 24  2  1  0  0  0  0
 25 19  1  0  0  0  0
 25 18  1  0  0  0  0
 27 25  1  0  0  0  0
 28 23  1  0  0  0  0
 29 35  1  0  0  0  0
 30 31  1  0  0  0  0
 30 29  2  0  0  0  0
 31 34  2  0  0  0  0
 34 32  1  0  0  0  0
 34 33  1  0  0  0  0
 35 33  2  0  0  0  0
 36 37  1  0  0  0  0
 37  4  1  0  0  0  0
M  END
>  <MODEL>
4

>  <REMARK>
 VINA RESULT:     -10.0      2.515      6.200
  Name = 
  2 active torsions:
  status: ('A' for Active; 'I' for Inactive)
    1  A    between atoms: N_4  and  C_37
    2  A    between atoms: C_23  and  C_30
                            x       y       z     vdW  Elec       q    Type
                         _______ _______ _______ _____ _____    ______ ____

>  <TORSDO>
F 2

$$$$
=
 OpenBabel11122411393D

 37 44  0  0  1  0  0  0  0  0999 V2000
  189.0640  177.4780  143.7090 C   0  0  0  0  0  2  0  0  0  0  0  0
  185.1040  179.1320  142.3910 C   0  0  0  0  0  0  0  0  0  0  0  0
  187.6300  177.7680  139.2890 C   0  0  0  0  0  0  0  0  0  0  0  0
  189.7620  177.8910  144.9310 N   0  0  0  0  0  0  0  0  0  0  0  0
  190.9310  176.2820  140.2940 O   0  0  0  0  0  0  0  0  0  0  0  0
  185.4360  178.6530  139.8960 C   0  0  0  0  0  0  0  0  0  0  0  0
  188.7990  177.6080  139.9340 C   0  0  0  0  0  0  0  0  0  0  0  0
  191.5830  176.4900  143.9670 C   0  0  0  0  0  0  0  0  0  0  0  0
  186.7140  178.4340  140.1570 C   0  0  1  0  0  3  0  0  0  0  0  0
  190.0310  176.8910  139.3970 C   0  0  0  0  0  0  0  0  0  0  0  0
  184.8770  178.2540  138.5460 C   0  0  0  0  0  3  0  0  0  0  0  0
  191.2060  177.6040  144.9030 C   0  0  0  0  0  2  0  0  0  0  0  0
  187.3570  178.6730  141.4040 C   0  0  0  0  0  0  0  0  0  0  0  0
  184.7240  177.7310  142.8460 C   0  0  0  0  0  1  0  0  0  0  0  0
  188.0870  176.7090  136.9770 C   0  0  0  0  0  2  0  0  0  0  0  0
  185.8880  177.5760  137.6190 C   0  0  0  0  0  3  0  0  0  0  0  0
  186.6340  179.3250  142.5430 C   0  0  0  0  0  2  0  0  0  0  0  0
  191.8370  176.7880  142.5190 C   0  0  1  0  0  3  0  0  0  0  0  0
  190.7210  176.3920  141.6800 C   0  0  1  0  0  3  0  0  0  0  0  0
  187.1710  177.3500  137.9560 C   0  0  0  0  0  0  0  0  0  0  0  0
  188.5980  178.1960  141.3210 C   0  0  0  0  0  0  0  0  0  0  0  0
  184.6000  179.3590  140.9380 C   0  0  0  0  0  2  0  0  0  0  0  0
  190.3100  176.7990  138.0690 C   0  0  0  0  0  0  0  0  0  0  0  0
  184.4070  180.1230  143.2990 C   0  0  0  0  0  1  0  0  0  0  0  0
  190.9200  177.8260  141.9740 N   0  0  1  0  0  0  0  0  0  0  0  0
  191.6770  175.3480  144.3840 O   0  0  0  0  0  0  0  0  0  0  0  0
  189.5920  178.2280  142.4710 C   0  0  2  0  0  3  0  0  0  0  0  0
  189.4290  177.4120  137.0220 C   0  0  0  0  0  2  0  0  0  0  0  0
  192.7720  176.7530  137.6240 C   0  0  0  0  0  3  0  0  0  0  0  0
  191.5270  176.1040  137.5700 C   0  0  0  0  0  0  0  0  0  0  0  0
  191.4710  174.7850  137.0890 C   0  0  0  0  0  3  0  0  0  0  0  0
  192.5380  172.4990  136.0440 Cl  0  0  0  0  0  0  0  0  0  0  0  0
  193.8590  174.7990  136.6980 C   0  0  0  0  0  3  0  0  0  0  0  0
  192.6300  174.1390  136.6500 C   0  0  0  0  0  0  0  0  0  0  0  0
  193.9300  176.1050  137.1860 C   0  0  0  0  0  3  0  0  0  0  0  0
  187.7360  177.5040  146.2200 C   0  0  0  0  0  1  0  0  0  0  0  0
  189.1920  177.1270  146.0300 C   0  0  0  0  0  2  0  0  0  0  0  0
  1  4  1  0  0  0  0
  2 17  1  0  0  0  0
  2 14  1  0  0  0  0
  2 24  1  0  0  0  0
  3  7  2  0  0  0  0
  4 37  1  0  0  0  0
  6  9  1  0  0  0  0
  6 22  1  0  0  0  0
  7 21  1  0  0  0  0
  8 26  2  0  0  0  0
  8 12  1  0  0  0  0
  9  3  1  1  0  0  0
  9 13  1  0  0  0  0
 10  7  1  0  0  0  0
 10  5  1  0  0  0  0
 11  6  2  0  0  0  0
 12  4  1  0  0  0  0
 13 17  1  0  0  0  0
 15 28  1  0  0  0  0
 15 20  1  0  0  0  0
 16 20  2  0  0  0  0
 16 11  1  0  0  0  0
 18  8  1  1  0  0  0
 19  5  1  6  0  0  0
 19 25  1  0  0  0  0
 19 18  1  0  0  0  0
 20  3  1  0  0  0  0
 21 13  2  0  0  0  0
 21 27  1  0  0  0  0
 22  2  1  0  0  0  0
 23 10  2  0  0  0  0
 25 27  1  0  0  0  0
 25 18  1  0  0  0  0
 27  1  1  0  0  0  0
 28 23  1  0  0  0  0
 30 29  1  0  0  0  0
 30 23  1  0  0  0  0
 31 30  2  0  0  0  0
 32 34  1  0  0  0  0
 33 35  1  0  0  0  0
 34 33  2  0  0  0  0
 34 31  1  0  0  0  0
 35 29  2  0  0  0  0
 37 36  1  0  0  0  0
M  END
>  <MODEL>
5

>  <REMARK>
 VINA RESULT:      -8.9      3.890      8.928
  Name = 
  2 active torsions:
  status: ('A' for Active; 'I' for Inactive)
    1  A    between atoms: N_4  and  C_37
    2  A    between atoms: C_23  and  C_30
                            x       y       z     vdW  Elec       q    Type
                         _______ _______ _______ _____ _____    ______ ____

>  <TORSDO>
F 2

$$$$
=
 OpenBabel11122411393D

 37 44  0  0  1  0  0  0  0  0999 V2000
  187.8900  178.1220  145.9300 C   0  0  0  0  0  2  0  0  0  0  0  0
  190.8720  176.9930  142.7700 C   0  0  0  0  0  0  0  0  0  0  0  0
  186.9840  177.8790  141.3690 C   0  0  0  0  0  0  0  0  0  0  0  0
  187.9490  177.6590  147.3200 N   0  0  0  0  0  0  0  0  0  0  0  0
  184.4370  178.9230  143.9260 O   0  0  0  0  0  0  0  0  0  0  0  0
  189.2910  177.3320  140.7830 C   0  0  0  0  0  0  0  0  0  0  0  0
  186.2760  177.8960  142.5120 C   0  0  2  0  0  3  0  0  0  0  0  0
  185.7150  178.7560  147.4320 C   0  0  0  0  0  0  0  0  0  0  0  0
  188.2920  177.3790  141.6480 C   0  0  0  0  0  0  0  0  0  0  0  0
  184.8530  178.4150  142.6790 C   0  0  0  0  0  0  0  0  0  0  0  0
  189.0510  177.7560  139.3490 C   0  0  0  0  0  3  0  0  0  0  0  0
  186.6550  177.7400  148.0180 C   0  0  0  0  0  2  0  0  0  0  0  0
  188.3870  177.0970  143.0390 C   0  0  0  0  0  0  0  0  0  0  0  0
  191.2270  178.4480  143.0330 C   0  0  0  0  0  1  0  0  0  0  0  0
  185.3050  178.7800  139.6250 C   0  0  0  0  0  2  0  0  0  0  0  0
  187.6310  178.2530  139.0670 C   0  0  0  0  0  3  0  0  0  0  0  0
  189.6590  176.5930  143.6480 C   0  0  0  0  0  2  0  0  0  0  0  0
  184.8250  178.3750  146.2870 C   0  0  1  0  0  3  0  0  0  0  0  0
  185.3150  178.8930  145.0240 C   0  0  1  0  0  3  0  0  0  0  0  0
  186.6640  178.3090  140.0000 C   0  0  0  0  0  0  0  0  0  0  0  0
  187.2130  177.3920  143.5970 C   0  0  0  0  0  0  0  0  0  0  0  0
  190.6210  176.7870  141.2500 C   0  0  0  0  0  2  0  0  0  0  0  0
  183.9460  178.4200  141.6660 C   0  0  0  0  0  0  0  0  0  0  0  0
  192.0560  176.1420  143.1790 C   0  0  0  0  0  1  0  0  0  0  0  0
  185.4890  177.4560  145.3220 N   0  0  1  0  0  0  0  0  0  0  0  0
  185.6810  179.8880  147.8850 O   0  0  0  0  0  0  0  0  0  0  0  0
  186.9310  177.2620  145.0840 C   0  0  2  0  0  3  0  0  0  0  0  0
  184.2720  177.8990  140.2970 C   0  0  0  0  0  2  0  0  0  0  0  0
  182.0190  179.0030  143.1510 C   0  0  0  0  0  3  0  0  0  0  0  0
  182.5580  178.9180  141.8570 C   0  0  0  0  0  0  0  0  0  0  0  0
  181.7840  179.3610  140.7710 C   0  0  0  0  0  3  0  0  0  0  0  0
  179.5390  180.3900  139.6060 Cl  0  0  0  0  0  0  0  0  0  0  0  0
  179.9640  179.9210  142.2630 C   0  0  0  0  0  3  0  0  0  0  0  0
  180.4920  179.8540  140.9730 C   0  0  0  0  0  0  0  0  0  0  0  0
  180.7270  179.4960  143.3520 C   0  0  0  0  0  3  0  0  0  0  0  0
  190.2380  177.8780  148.1130 C   0  0  0  0  0  1  0  0  0  0  0  0
  188.8740  178.5330  148.0250 C   0  0  0  0  0  2  0  0  0  0  0  0
  1  4  1  0  0  0  0
  2 14  1  0  0  0  0
  2 24  1  0  0  0  0
  2 17  1  0  0  0  0
  3  9  2  0  0  0  0
  4 12  1  0  0  0  0
  4 37  1  0  0  0  0
  6 22  1  0  0  0  0
  6  9  1  0  0  0  0
  7  3  1  1  0  0  0
  7 10  1  0  0  0  0
  7 21  1  0  0  0  0
  8 26  2  0  0  0  0
  8 12  1  0  0  0  0
  9 13  1  0  0  0  0
 10  5  1  0  0  0  0
 11  6  2  0  0  0  0
 13 21  2  0  0  0  0
 13 17  1  0  0  0  0
 15 20  1  0  0  0  0
 15 28  1  0  0  0  0
 16 11  1  0  0  0  0
 16 20  2  0  0  0  0
 18  8  1  1  0  0  0
 19  5  1  6  0  0  0
 19 25  1  0  0  0  0
 19 18  1  0  0  0  0
 20  3  1  0  0  0  0
 21 27  1  0  0  0  0
 22  2  1  0  0  0  0
 23 30  1  0  0  0  0
 23 10  2  0  0  0  0
 25 18  1  0  0  0  0
 27 25  1  0  0  0  0
 27  1  1  0  0  0  0
 28 23  1  0  0  0  0
 29 35  1  0  0  0  0
 30 29  2  0  0  0  0
 31 34  2  0  0  0  0
 31 30  1  0  0  0  0
 32 34  1  0  0  0  0
 33 35  2  0  0  0  0
 34 33  1  0  0  0  0
 37 36  1  0  0  0  0
M  END
>  <MODEL>
6

>  <REMARK>
 VINA RESULT:      -8.5      2.303      5.361
  Name = 
  2 active torsions:
  status: ('A' for Active; 'I' for Inactive)
    1  A    between atoms: N_4  and  C_37
    2  A    between atoms: C_23  and  C_30
                            x       y       z     vdW  Elec       q    Type
                         _______ _______ _______ _____ _____    ______ ____

>  <TORSDO>
F 2

$$$$
=
 OpenBabel11122411393D

 37 44  0  0  1  0  0  0  0  0999 V2000
  186.9940  178.2910  145.0060 C   0  0  0  0  0  2  0  0  0  0  0  0
  191.1420  177.0270  143.8440 C   0  0  0  0  0  0  0  0  0  0  0  0
  188.4810  177.7080  140.6320 C   0  0  0  0  0  0  0  0  0  0  0  0
  186.3480  177.9280  146.2710 N   0  0  0  0  0  0  0  0  0  0  0  0
  185.0090  178.8570  141.4960 O   0  0  0  0  0  0  0  0  0  0  0  0
  190.7670  177.1850  141.3140 C   0  0  0  0  0  0  0  0  0  0  0  0
  187.2970  177.7850  141.2650 C   0  0  0  0  0  0  0  0  0  0  0  0
  184.3670  178.9690  145.1740 C   0  0  0  0  0  0  0  0  0  0  0  0
  189.4700  177.2650  141.5600 C   0  0  1  0  0  3  0  0  0  0  0  0
  185.9860  178.2760  140.6630 C   0  0  0  0  0  0  0  0  0  0  0  0
  191.2780  177.5020  139.9240 C   0  0  0  0  0  3  0  0  0  0  0  0
  184.8790  178.0210  146.2230 C   0  0  0  0  0  2  0  0  0  0  0  0
  188.8550  177.0820  142.8300 C   0  0  0  0  0  0  0  0  0  0  0  0
  191.3360  178.5060  144.1400 C   0  0  0  0  0  1  0  0  0  0  0  0
  187.9050  178.4410  138.2220 C   0  0  0  0  0  2  0  0  0  0  0  0
  190.1930  177.9390  138.9370 C   0  0  0  0  0  3  0  0  0  0  0  0
  189.6490  176.6560  144.0280 C   0  0  0  0  0  2  0  0  0  0  0  0
  184.1630  178.4850  143.7690 C   0  0  1  0  0  3  0  0  0  0  0  0
  185.2230  178.9270  142.8840 C   0  0  1  0  0  3  0  0  0  0  0  0
  188.8900  178.0340  139.2570 C   0  0  0  0  0  0  0  0  0  0  0  0
  187.5630  177.3830  142.7060 C   0  0  0  0  0  0  0  0  0  0  0  0
  191.6800  176.7090  142.4200 C   0  0  0  0  0  2  0  0  0  0  0  0
  185.7060  178.1860  139.3350 C   0  0  0  0  0  0  0  0  0  0  0  0
  191.9550  176.2390  144.8480 C   0  0  0  0  0  1  0  0  0  0  0  0
  185.2100  177.5200  143.3330 N   0  0  1  0  0  0  0  0  0  0  0  0
  184.1240  180.1280  145.4650 O   0  0  0  0  0  0  0  0  0  0  0  0
  186.5750  177.3490  143.8610 C   0  0  2  0  0  3  0  0  0  0  0  0
  186.6650  177.5800  138.3540 C   0  0  0  0  0  2  0  0  0  0  0  0
  183.5900  177.7650  138.0670 C   0  0  0  0  0  3  0  0  0  0  0  0
  184.4130  178.6590  138.7730 C   0  0  0  0  0  0  0  0  0  0  0  0
  183.9640  179.9750  138.9760 C   0  0  0  0  0  3  0  0  0  0  0  0
  182.1970  182.0410  138.7190 Cl  0  0  0  0  0  0  0  0  0  0  0  0
  181.9310  179.4990  137.7550 C   0  0  0  0  0  3  0  0  0  0  0  0
  182.7330  180.3940  138.4650 C   0  0  0  0  0  0  0  0  0  0  0  0
  182.3590  178.1840  137.5570 C   0  0  0  0  0  3  0  0  0  0  0  0
  187.9170  178.2500  148.1010 C   0  0  0  0  0  1  0  0  0  0  0  0
  186.8070  178.8730  147.2760 C   0  0  0  0  0  2  0  0  0  0  0  0
  1  4  1  0  0  0  0
  2 17  1  0  0  0  0
  2 14  1  0  0  0  0
  2 24  1  0  0  0  0
  3  7  2  0  0  0  0
  4 37  1  0  0  0  0
  6  9  1  0  0  0  0
  6 22  1  0  0  0  0
  7 21  1  0  0  0  0
  8 26  2  0  0  0  0
  8 12  1  0  0  0  0
  9  3  1  1  0  0  0
  9 13  1  0  0  0  0
 10  7  1  0  0  0  0
 10  5  1  0  0  0  0
 11  6  2  0  0  0  0
 12  4  1  0  0  0  0
 13 17  1  0  0  0  0
 15 28  1  0  0  0  0
 15 20  1  0  0  0  0
 16 20  2  0  0  0  0
 16 11  1  0  0  0  0
 18  8  1  1  0  0  0
 19  5  1  6  0  0  0
 19 25  1  0  0  0  0
 19 18  1  0  0  0  0
 20  3  1  0  0  0  0
 21 13  2  0  0  0  0
 21 27  1  0  0  0  0
 22  2  1  0  0  0  0
 23 10  2  0  0  0  0
 25 18  1  0  0  0  0
 25 27  1  0  0  0  0
 27  1  1  0  0  0  0
 28 23  1  0  0  0  0
 29 30  1  0  0  0  0
 30 31  2  0  0  0  0
 30 23  1  0  0  0  0
 33 34  2  0  0  0  0
 34 32  1  0  0  0  0
 34 31  1  0  0  0  0
 35 33  1  0  0  0  0
 35 29  2  0  0  0  0
 37 36  1  0  0  0  0
M  END
>  <MODEL>
7

>  <REMARK>
 VINA RESULT:      -8.4      2.370      5.639
  Name = 
  2 active torsions:
  status: ('A' for Active; 'I' for Inactive)
    1  A    between atoms: N_4  and  C_37
    2  A    between atoms: C_23  and  C_30
                            x       y       z     vdW  Elec       q    Type
                         _______ _______ _______ _____ _____    ______ ____

>  <TORSDO>
F 2

$$$$
