=
 OpenBabel11122412183D

 34 41  0  0  1  0  0  0  0  0999 V2000
  189.2430  177.2160  138.8140 C   0  0  0  0  0  0  0  0  0  0  0  0
  190.9360  176.8020  140.6040 C   0  0  0  0  0  2  0  0  0  0  0  0
  183.7660  175.6020  137.6590 C   0  0  0  0  0  2  0  0  0  0  0  0
  187.3290  177.2690  137.3120 C   0  0  0  0  0  0  0  0  0  0  0  0
  185.1950  178.2290  138.1160 C   0  0  0  0  0  0  0  0  0  0  0  0
  182.8290  177.6950  138.7260 C   0  0  0  0  0  2  0  0  0  0  0  0
  182.4920  176.3850  138.0090 C   0  0  0  0  0  2  0  0  0  0  0  0
  184.0210  176.7770  135.7030 C   0  0  0  0  0  2  0  0  0  0  0  0
  189.1570  178.4270  140.9730 C   0  0  1  0  0  3  0  0  0  0  0  0
  187.7370  176.8240  143.2510 C   0  0  0  0  0  2  0  0  0  0  0  0
  185.7490  178.4250  139.2750 N   0  0  0  0  0  0  0  0  0  0  0  0
  185.4180  177.4040  135.7030 C   0  0  0  0  0  2  0  0  0  0  0  0
  187.6920  178.3340  140.8430 N   0  0  2  0  0  0  0  0  0  0  0  0
  190.6760  176.8160  142.0410 N   0  0  0  0  0  2  0  0  0  0  0  0
  185.9580  177.6160  137.0500 N   0  0  0  0  0  0  0  0  0  0  0  0
  183.9950  175.4890  136.2700 O   0  0  0  0  0  0  0  0  0  0  0  0
  188.9030  177.7670  143.5350 C   0  0  2  0  0  3  0  0  0  0  0  0
  187.9010  177.5790  138.5590 C   0  0  0  0  0  0  0  0  0  0  0  0
  183.7960  178.4770  137.9630 N   0  0  0  0  0  2  0  0  0  0  0  0
  187.1330  178.1200  139.5300 C   0  0  1  0  0  3  0  0  0  0  0  0
  189.3370  176.1890  136.6290 C   0  0  0  0  0  3  0  0  0  0  0  0
  186.4920  177.6140  142.8460 C   0  0  0  0  0  2  0  0  0  0  0  0
  188.0610  176.5890  136.3860 N   0  0  0  0  0  0  0  0  0  0  0  0
  186.8230  178.7830  141.9220 C   0  0  0  0  0  2  0  0  0  0  0  0
  189.7980  177.9660  142.3000 C   0  0  2  0  0  3  0  0  0  0  0  0
  189.9470  176.4870  137.8480 C   0  0  0  0  0  3  0  0  0  0  0  0
  189.8120  177.5360  139.9890 C   0  0  2  0  0  3  0  0  0  0  0  0
  189.7110  177.2960  144.7360 C   0  0  0  0  0  2  0  0  0  0  0  0
  189.2330  177.9840  146.0010 C   0  0  1  0  0  3  0  0  0  0  0  0
  188.1160  178.1940  148.7920 C   0  0  0  0  0  2  0  0  0  0  0  0
  188.1500  177.2070  146.6020 C   0  0  1  0  0  3  0  0  0  0  0  0
  189.5160  177.1220  147.1590 N   0  0  2  0  0  0  0  0  0  0  0  0
  187.3180  178.0800  147.5230 C   0  0  0  0  0  2  0  0  0  0  0  0
  189.5400  177.9780  148.3400 C   0  0  0  0  0  2  0  0  0  0  0  0
  1 27  1  0  0  0  0
  2 14  1  0  0  0  0
  3  7  1  0  0  0  0
  4 18  2  0  0  0  0
  5 11  2  0  0  0  0
  7  6  1  0  0  0  0
  8 12  1  0  0  0  0
  8 16  1  0  0  0  0
  9 25  1  0  0  0  0
 10 17  1  0  0  0  0
 11 20  1  0  0  0  0
 12 15  1  0  0  0  0
 13  9  1  0  0  0  0
 13 24  1  0  0  0  0
 14 25  1  0  0  0  0
 15  4  1  0  0  0  0
 15  5  1  0  0  0  0
 16  3  1  0  0  0  0
 17 28  1  0  0  0  0
 18  1  1  0  0  0  0
 18 20  1  0  0  0  0
 19  5  1  0  0  0  0
 19  6  1  0  0  0  0
 20 13  1  0  0  0  0
 21 26  1  0  0  0  0
 22 10  1  0  0  0  0
 23 21  2  0  0  0  0
 23  4  1  0  0  0  0
 24 22  1  0  0  0  0
 25 17  1  0  0  0  0
 26  1  2  0  0  0  0
 27  2  1  0  0  0  0
 27  9  1  0  0  0  0
 28 29  1  0  0  0  0
 29 31  1  0  0  0  0
 29 32  1  0  0  0  0
 31 32  1  0  0  0  0
 31 33  1  0  0  0  0
 32 34  1  0  0  0  0
 33 30  1  0  0  0  0
 34 30  1  0  0  0  0
M  END
>  <MODEL>
1

>  <REMARK>
 VINA RESULT:      -9.7      0.000      0.000
  Name = 
  2 active torsions:
  status: ('A' for Active; 'I' for Inactive)
    1  A    between atoms: C_17  and  C_28
    2  A    between atoms: C_28  and  C_29
                            x       y       z     vdW  Elec       q    Type
                         _______ _______ _______ _____ _____    ______ ____

>  <TORSDO>
F 2

$$$$
=
 OpenBabel11122412183D

 34 41  0  0  1  0  0  0  0  0999 V2000
  188.3060  176.8030  137.7320 C   0  0  0  0  0  0  0  0  0  0  0  0
  190.5150  176.1640  138.7110 C   0  0  0  0  0  2  0  0  0  0  0  0
  182.6810  176.1400  139.0910 C   0  0  0  0  0  2  0  0  0  0  0  0
  185.9690  177.1370  137.1450 C   0  0  0  0  0  0  0  0  0  0  0  0
  184.5340  178.4890  138.6400 C   0  0  0  0  0  0  0  0  0  0  0  0
  182.5930  178.4050  140.2150 C   0  0  0  0  0  2  0  0  0  0  0  0
  181.8000  177.1490  139.8430 C   0  0  0  0  0  2  0  0  0  0  0  0
  182.2580  177.1780  137.0860 C   0  0  0  0  0  2  0  0  0  0  0  0
  189.3110  178.0900  139.5960 C   0  0  1  0  0  3  0  0  0  0  0  0
  188.7630  176.8500  142.4120 C   0  0  0  0  0  2  0  0  0  0  0  0
  185.5460  178.6270  139.4450 N   0  0  0  0  0  0  0  0  0  0  0  0
  183.6000  177.5470  136.4500 C   0  0  0  0  0  2  0  0  0  0  0  0
  187.9310  178.2530  140.0850 N   0  0  2  0  0  0  0  0  0  0  0  0
  190.8870  176.2760  140.1180 N   0  0  0  0  0  2  0  0  0  0  0  0
  184.6810  177.7110  137.4290 N   0  0  0  0  0  0  0  0  0  0  0  0
  182.2860  175.9370  137.7500 O   0  0  0  0  0  0  0  0  0  0  0  0
  190.0630  177.5810  142.0930 C   0  0  2  0  0  3  0  0  0  0  0  0
  187.0500  177.3870  138.0100 C   0  0  0  0  0  0  0  0  0  0  0  0
  183.2520  178.9740  139.0460 N   0  0  0  0  0  2  0  0  0  0  0  0
  186.8470  178.0920  139.1450 C   0  0  1  0  0  3  0  0  0  0  0  0
  187.3240  175.6940  135.8230 C   0  0  0  0  0  3  0  0  0  0  0  0
  187.5920  177.8320  142.4670 C   0  0  0  0  0  2  0  0  0  0  0  0
  186.1370  176.3040  136.0800 N   0  0  0  0  0  0  0  0  0  0  0  0
  187.6700  178.8890  141.3680 C   0  0  0  0  0  2  0  0  0  0  0  0
  190.3760  177.5720  140.5870 C   0  0  2  0  0  3  0  0  0  0  0  0
  188.4260  175.9260  136.6480 C   0  0  0  0  0  3  0  0  0  0  0  0
  189.3560  177.0610  138.5320 C   0  0  2  0  0  3  0  0  0  0  0  0
  191.2230  177.0200  142.9040 C   0  0  0  0  0  2  0  0  0  0  0  0
  190.7580  176.6200  144.2910 C   0  0  1  0  0  3  0  0  0  0  0  0
  190.3310  176.8980  147.2610 C   0  0  0  0  0  2  0  0  0  0  0  0
  191.6800  177.1570  145.2900 C   0  0  1  0  0  3  0  0  0  0  0  0
  190.3870  177.8270  145.0460 N   0  0  2  0  0  0  0  0  0  0  0  0
  191.5710  176.3780  146.5880 C   0  0  0  0  0  2  0  0  0  0  0  0
  189.4890  177.4090  146.1170 C   0  0  0  0  0  2  0  0  0  0  0  0
  1 18  1  0  0  0  0
  1 27  1  0  0  0  0
  2 14  1  0  0  0  0
  3  7  1  0  0  0  0
  4 15  1  0  0  0  0
  4 18  2  0  0  0  0
  5 19  1  0  0  0  0
  5 11  2  0  0  0  0
  7  6  1  0  0  0  0
  8 16  1  0  0  0  0
  9 13  1  0  0  0  0
  9 25  1  0  0  0  0
 10 22  1  0  0  0  0
 12  8  1  0  0  0  0
 12 15  1  0  0  0  0
 13 24  1  0  0  0  0
 14 25  1  0  0  0  0
 15  5  1  0  0  0  0
 16  3  1  0  0  0  0
 17 10  1  0  0  0  0
 17 28  1  0  0  0  0
 18 20  1  0  0  0  0
 19  6  1  0  0  0  0
 20 11  1  0  0  0  0
 20 13  1  0  0  0  0
 21 23  2  0  0  0  0
 21 26  1  0  0  0  0
 23  4  1  0  0  0  0
 24 22  1  0  0  0  0
 25 17  1  0  0  0  0
 26  1  2  0  0  0  0
 27  2  1  0  0  0  0
 27  9  1  0  0  0  0
 28 29  1  0  0  0  0
 29 32  1  0  0  0  0
 29 31  1  0  0  0  0
 31 33  1  0  0  0  0
 32 31  1  0  0  0  0
 32 34  1  0  0  0  0
 33 30  1  0  0  0  0
 34 30  1  0  0  0  0
M  END
>  <MODEL>
2

>  <REMARK>
 VINA RESULT:      -9.3      1.460      2.037
  Name = 
  2 active torsions:
  status: ('A' for Active; 'I' for Inactive)
    1  A    between atoms: C_17  and  C_28
    2  A    between atoms: C_28  and  C_29
                            x       y       z     vdW  Elec       q    Type
                         _______ _______ _______ _____ _____    ______ ____

>  <TORSDO>
F 2

$$$$
=
 OpenBabel11122412183D

 34 41  0  0  1  0  0  0  0  0999 V2000
  187.0130  177.8780  138.7530 C   0  0  0  0  0  0  0  0  0  0  0  0
  189.2100  177.2910  139.7890 C   0  0  0  0  0  2  0  0  0  0  0  0
  181.4320  176.3470  139.4220 C   0  0  0  0  0  2  0  0  0  0  0  0
  184.6980  178.0730  138.0270 C   0  0  0  0  0  0  0  0  0  0  0  0
  183.0050  178.9230  139.6190 C   0  0  0  0  0  0  0  0  0  0  0  0
  180.9850  178.3060  140.9580 C   0  0  0  0  0  2  0  0  0  0  0  0
  180.3820  177.0760  140.2720 C   0  0  0  0  0  2  0  0  0  0  0  0
  181.0250  177.7250  137.6310 C   0  0  0  0  0  2  0  0  0  0  0  0
  187.7170  178.8510  140.9200 C   0  0  1  0  0  3  0  0  0  0  0  0
  187.1320  177.0030  143.3720 C   0  0  0  0  0  2  0  0  0  0  0  0
  183.9340  179.0000  140.5260 N   0  0  0  0  0  0  0  0  0  0  0  0
  182.3510  178.3610  137.2090 C   0  0  0  0  0  2  0  0  0  0  0  0
  186.2960  178.7600  141.3000 N   0  0  2  0  0  0  0  0  0  0  0  0
  189.4660  177.1490  141.2190 N   0  0  0  0  0  2  0  0  0  0  0  0
  183.3320  178.4330  138.2970 N   0  0  0  0  0  0  0  0  0  0  0  0
  181.1600  176.3840  138.0360 O   0  0  0  0  0  0  0  0  0  0  0  0
  188.3500  177.9200  143.3270 C   0  0  2  0  0  3  0  0  0  0  0  0
  185.6770  178.2530  139.0220 C   0  0  0  0  0  0  0  0  0  0  0  0
  181.6480  179.1730  139.9910 N   0  0  0  0  0  2  0  0  0  0  0  0
  185.3100  178.6810  140.2490 C   0  0  1  0  0  3  0  0  0  0  0  0
  186.3110  177.0900  136.5800 C   0  0  0  0  0  3  0  0  0  0  0  0
  185.8480  177.8210  143.5100 C   0  0  0  0  0  2  0  0  0  0  0  0
  185.0430  177.5020  136.8390 N   0  0  0  0  0  0  0  0  0  0  0  0
  185.8700  179.0840  142.6540 C   0  0  0  0  0  2  0  0  0  0  0  0
  188.7660  178.2570  141.8850 C   0  0  2  0  0  3  0  0  0  0  0  0
  187.3150  177.2620  137.5330 C   0  0  0  0  0  3  0  0  0  0  0  0
  187.9630  178.0760  139.6830 C   0  0  2  0  0  3  0  0  0  0  0  0
  189.5120  177.3320  144.1160 C   0  0  0  0  0  2  0  0  0  0  0  0
  189.5240  177.8780  145.5310 C   0  0  1  0  0  3  0  0  0  0  0  0
  189.0560  177.8780  148.5080 C   0  0  0  0  0  2  0  0  0  0  0  0
  188.3690  177.3620  146.2640 C   0  0  1  0  0  3  0  0  0  0  0  0
  189.7030  176.7660  146.4780 N   0  0  2  0  0  0  0  0  0  0  0  0
  188.0530  178.2520  147.4520 C   0  0  0  0  0  2  0  0  0  0  0  0
  190.2210  177.3340  147.7180 C   0  0  0  0  0  2  0  0  0  0  0  0
  1 18  1  0  0  0  0
  1 27  1  0  0  0  0
  2 14  1  0  0  0  0
  3  7  1  0  0  0  0
  4 15  1  0  0  0  0
  4 18  2  0  0  0  0
  5 19  1  0  0  0  0
  5 11  2  0  0  0  0
  7  6  1  0  0  0  0
  8 16  1  0  0  0  0
  9 13  1  0  0  0  0
  9 25  1  0  0  0  0
 10 22  1  0  0  0  0
 12  8  1  0  0  0  0
 12 15  1  0  0  0  0
 13 24  1  0  0  0  0
 14 25  1  0  0  0  0
 15  5  1  0  0  0  0
 16  3  1  0  0  0  0
 17 10  1  0  0  0  0
 17 28  1  0  0  0  0
 18 20  1  0  0  0  0
 19  6  1  0  0  0  0
 20 11  1  0  0  0  0
 20 13  1  0  0  0  0
 21 23  2  0  0  0  0
 21 26  1  0  0  0  0
 23  4  1  0  0  0  0
 24 22  1  0  0  0  0
 25 17  1  0  0  0  0
 26  1  2  0  0  0  0
 27  2  1  0  0  0  0
 27  9  1  0  0  0  0
 28 29  1  0  0  0  0
 29 31  1  0  0  0  0
 29 32  1  0  0  0  0
 31 32  1  0  0  0  0
 31 33  1  0  0  0  0
 32 34  1  0  0  0  0
 33 30  1  0  0  0  0
 34 30  1  0  0  0  0
M  END
>  <MODEL>
3

>  <REMARK>
 VINA RESULT:      -9.2      1.543      2.247
  Name = 
  2 active torsions:
  status: ('A' for Active; 'I' for Inactive)
    1  A    between atoms: C_17  and  C_28
    2  A    between atoms: C_28  and  C_29
                            x       y       z     vdW  Elec       q    Type
                         _______ _______ _______ _____ _____    ______ ____

>  <TORSDO>
F 2

$$$$
=
 OpenBabel11122412183D

 34 41  0  0  1  0  0  0  0  0999 V2000
  190.9570  177.2570  139.7530 C   0  0  0  0  0  0  0  0  0  0  0  0
  192.1200  176.7530  141.9060 C   0  0  0  0  0  2  0  0  0  0  0  0
  186.1320  175.5130  136.9940 C   0  0  0  0  0  2  0  0  0  0  0  0
  189.5280  177.3650  137.7860 C   0  0  0  0  0  0  0  0  0  0  0  0
  187.1940  178.1470  138.0360 C   0  0  0  0  0  0  0  0  0  0  0  0
  184.7940  177.4500  137.9190 C   0  0  0  0  0  2  0  0  0  0  0  0
  184.7590  176.2000  137.0350 C   0  0  0  0  0  2  0  0  0  0  0  0
  186.8290  176.8790  135.2850 C   0  0  0  0  0  2  0  0  0  0  0  0
  190.1980  178.2520  141.8910 C   0  0  1  0  0  3  0  0  0  0  0  0
  188.3250  176.3780  143.5490 C   0  0  0  0  0  2  0  0  0  0  0  0
  187.3940  178.2570  139.3160 N   0  0  0  0  0  0  0  0  0  0  0  0
  188.1250  177.5650  135.7240 C   0  0  0  0  0  2  0  0  0  0  0  0
  188.8340  178.1060  141.3510 N   0  0  2  0  0  0  0  0  0  0  0  0
  191.4760  176.6180  143.2090 N   0  0  0  0  0  2  0  0  0  0  0  0
  188.2590  177.6730  137.1810 N   0  0  0  0  0  0  0  0  0  0  0  0
  186.7390  175.5430  135.7190 O   0  0  0  0  0  0  0  0  0  0  0  0
  189.3000  177.3410  144.2200 C   0  0  2  0  0  3  0  0  0  0  0  0
  189.7130  177.5810  139.1640 C   0  0  0  0  0  0  0  0  0  0  0  0
  185.8750  178.3440  137.5200 N   0  0  0  0  0  2  0  0  0  0  0  0
  188.6730  177.9920  139.9210 C   0  0  1  0  0  3  0  0  0  0  0  0
  191.7160  176.4480  137.6070 C   0  0  0  0  0  3  0  0  0  0  0  0
  187.1860  177.1450  142.8770 C   0  0  0  0  0  2  0  0  0  0  0  0
  190.5310  176.8110  137.0500 N   0  0  0  0  0  0  0  0  0  0  0  0
  187.6740  178.4100  142.1760 C   0  0  0  0  0  2  0  0  0  0  0  0
  190.4820  177.6970  143.3040 C   0  0  2  0  0  3  0  0  0  0  0  0
  191.9470  176.6560  138.9670 C   0  0  0  0  0  3  0  0  0  0  0  0
  191.1580  177.4890  141.0610 C   0  0  2  0  0  3  0  0  0  0  0  0
  189.7790  176.7950  145.5580 C   0  0  0  0  0  2  0  0  0  0  0  0
  188.7350  177.0300  146.6330 C   0  0  1  0  0  3  0  0  0  0  0  0
  186.9530  178.6230  148.4680 C   0  0  0  0  0  2  0  0  0  0  0  0
  189.0570  178.2510  147.3690 C   0  0  1  0  0  3  0  0  0  0  0  0
  188.0020  178.2710  146.3350 N   0  0  2  0  0  0  0  0  0  0  0  0
  188.3850  178.2450  148.7290 C   0  0  0  0  0  2  0  0  0  0  0  0
  186.7260  178.1990  147.0370 C   0  0  0  0  0  2  0  0  0  0  0  0
  1 27  1  0  0  0  0
  2 14  1  0  0  0  0
  3  7  1  0  0  0  0
  4 18  2  0  0  0  0
  5 11  2  0  0  0  0
  7  6  1  0  0  0  0
  8 16  1  0  0  0  0
  8 12  1  0  0  0  0
  9 25  1  0  0  0  0
 10 17  1  0  0  0  0
 11 20  1  0  0  0  0
 12 15  1  0  0  0  0
 13  9  1  0  0  0  0
 13 24  1  0  0  0  0
 14 25  1  0  0  0  0
 15  4  1  0  0  0  0
 15  5  1  0  0  0  0
 16  3  1  0  0  0  0
 17 28  1  0  0  0  0
 18  1  1  0  0  0  0
 18 20  1  0  0  0  0
 19  6  1  0  0  0  0
 19  5  1  0  0  0  0
 20 13  1  0  0  0  0
 21 26  1  0  0  0  0
 22 10  1  0  0  0  0
 23 21  2  0  0  0  0
 23  4  1  0  0  0  0
 24 22  1  0  0  0  0
 25 17  1  0  0  0  0
 26  1  2  0  0  0  0
 27  9  1  0  0  0  0
 27  2  1  0  0  0  0
 28 29  1  0  0  0  0
 29 31  1  0  0  0  0
 30 33  1  0  0  0  0
 31 33  1  0  0  0  0
 32 29  1  0  0  0  0
 32 34  1  0  0  0  0
 32 31  1  0  0  0  0
 34 30  1  0  0  0  0
M  END
>  <MODEL>
4

>  <REMARK>
 VINA RESULT:      -9.2      1.383      1.953
  Name = 
  2 active torsions:
  status: ('A' for Active; 'I' for Inactive)
    1  A    between atoms: C_17  and  C_28
    2  A    between atoms: C_28  and  C_29
                            x       y       z     vdW  Elec       q    Type
                         _______ _______ _______ _____ _____    ______ ____

>  <TORSDO>
F 2

$$$$
=
 OpenBabel11122412183D

 34 41  0  0  1  0  0  0  0  0999 V2000
  188.5380  177.2860  143.1290 C   0  0  0  0  0  0  0  0  0  0  0  0
  186.8570  177.2840  144.9780 C   0  0  0  0  0  2  0  0  0  0  0  0
  188.8370  175.3930  137.6280 C   0  0  0  0  0  2  0  0  0  0  0  0
  189.8420  176.9940  141.0950 C   0  0  0  0  0  0  0  0  0  0  0  0
  189.0730  178.0750  139.0070 C   0  0  0  0  0  0  0  0  0  0  0  0
  188.1560  177.6530  136.7180 C   0  0  0  0  0  2  0  0  0  0  0  0
  188.5490  176.2160  136.3640 C   0  0  0  0  0  2  0  0  0  0  0  0
  191.0120  176.1290  137.6810 C   0  0  0  0  0  2  0  0  0  0  0  0
  186.6830  178.9270  143.1850 C   0  0  1  0  0  3  0  0  0  0  0  0
  184.0020  177.8270  142.0130 C   0  0  0  0  0  2  0  0  0  0  0  0
  188.0340  178.5210  139.6500 N   0  0  0  0  0  0  0  0  0  0  0  0
  191.2670  176.7590  139.0520 C   0  0  0  0  0  2  0  0  0  0  0  0
  186.6600  178.7900  141.7180 N   0  0  2  0  0  0  0  0  0  0  0  0
  185.4380  177.5990  144.8390 N   0  0  0  0  0  2  0  0  0  0  0  0
  190.0480  177.2600  139.6960 N   0  0  0  0  0  0  0  0  0  0  0  0
  190.1870  174.9910  137.7430 O   0  0  0  0  0  0  0  0  0  0  0  0
  184.0270  178.8230  143.1670 C   0  0  2  0  0  3  0  0  0  0  0  0
  188.7430  177.5690  141.7590 C   0  0  0  0  0  0  0  0  0  0  0  0
  189.1490  178.2670  137.5920 N   0  0  0  0  0  2  0  0  0  0  0  0
  187.8440  178.2940  141.0580 C   0  0  1  0  0  3  0  0  0  0  0  0
  190.4570  175.8200  143.0710 C   0  0  0  0  0  3  0  0  0  0  0  0
  184.4530  178.4970  140.7140 C   0  0  0  0  0  2  0  0  0  0  0  0
  190.6650  176.1420  141.7680 N   0  0  0  0  0  0  0  0  0  0  0  0
  185.6280  179.4470  140.9290 C   0  0  0  0  0  2  0  0  0  0  0  0
  185.3500  178.7670  143.9500 C   0  0  2  0  0  3  0  0  0  0  0  0
  189.3870  176.3780  143.7720 C   0  0  0  0  0  3  0  0  0  0  0  0
  187.5110  177.8550  143.7830 C   0  0  2  0  0  3  0  0  0  0  0  0
  182.8300  178.6290  144.0880 C   0  0  0  0  0  2  0  0  0  0  0  0
  181.6420  179.4300  143.5900 C   0  0  1  0  0  3  0  0  0  0  0  0
  178.9320  179.8960  142.3580 C   0  0  0  0  0  2  0  0  0  0  0  0
  181.0430  178.7540  142.4400 C   0  0  1  0  0  3  0  0  0  0  0  0
  180.4140  178.6390  143.7710 N   0  0  2  0  0  0  0  0  0  0  0  0
  180.2280  179.7310  141.6140 C   0  0  0  0  0  2  0  0  0  0  0  0
  179.2950  179.5750  143.7880 C   0  0  0  0  0  2  0  0  0  0  0  0
  1 26  1  0  0  0  0
  1 27  1  0  0  0  0
  3 16  1  0  0  0  0
  4 18  1  0  0  0  0
  4 23  2  0  0  0  0
  5 11  2  0  0  0  0
  5 15  1  0  0  0  0
  6 19  1  0  0  0  0
  7  6  1  0  0  0  0
  7  3  1  0  0  0  0
  8 16  1  0  0  0  0
  8 12  1  0  0  0  0
  9 27  1  0  0  0  0
  9 25  1  0  0  0  0
 10 17  1  0  0  0  0
 11 20  1  0  0  0  0
 12 15  1  0  0  0  0
 13  9  1  0  0  0  0
 14  2  1  0  0  0  0
 15  4  1  0  0  0  0
 17 25  1  0  0  0  0
 17 28  1  0  0  0  0
 18  1  2  0  0  0  0
 19  5  1  0  0  0  0
 20 13  1  0  0  0  0
 20 18  1  0  0  0  0
 21 26  2  0  0  0  0
 22 24  1  0  0  0  0
 22 10  1  0  0  0  0
 23 21  1  0  0  0  0
 24 13  1  0  0  0  0
 25 14  1  0  0  0  0
 27  2  1  0  0  0  0
 29 32  1  0  0  0  0
 29 28  1  0  0  0  0
 30 34  1  0  0  0  0
 31 29  1  0  0  0  0
 31 32  1  0  0  0  0
 32 34  1  0  0  0  0
 33 30  1  0  0  0  0
 33 31  1  0  0  0  0
M  END
>  <MODEL>
5

>  <REMARK>
 VINA RESULT:      -8.8      3.140      6.155
  Name = 
  2 active torsions:
  status: ('A' for Active; 'I' for Inactive)
    1  A    between atoms: C_17  and  C_28
    2  A    between atoms: C_28  and  C_29
                            x       y       z     vdW  Elec       q    Type
                         _______ _______ _______ _____ _____    ______ ____

>  <TORSDO>
F 2

$$$$
=
 OpenBabel11122412183D

 34 41  0  0  1  0  0  0  0  0999 V2000
  187.7050  177.8320  142.1960 C   0  0  0  0  0  0  0  0  0  0  0  0
  185.6540  177.9690  143.6180 C   0  0  0  0  0  2  0  0  0  0  0  0
  189.4520  174.8720  137.4930 C   0  0  0  0  0  2  0  0  0  0  0  0
  189.4640  177.3150  140.5960 C   0  0  0  0  0  0  0  0  0  0  0  0
  189.0860  177.7910  138.1970 C   0  0  0  0  0  0  0  0  0  0  0  0
  188.7680  176.7510  135.9450 C   0  0  0  0  0  2  0  0  0  0  0  0
  189.3780  175.3500  136.0360 C   0  0  0  0  0  2  0  0  0  0  0  0
  191.4690  175.9280  137.7980 C   0  0  0  0  0  2  0  0  0  0  0  0
  185.7270  179.1420  141.4820 C   0  0  1  0  0  3  0  0  0  0  0  0
  183.5150  177.4160  140.1020 C   0  0  0  0  0  2  0  0  0  0  0  0
  187.8870  178.1990  138.4930 N   0  0  0  0  0  0  0  0  0  0  0  0
  191.3360  176.8690  138.9970 C   0  0  0  0  0  2  0  0  0  0  0  0
  186.0550  178.6910  140.1180 N   0  0  2  0  0  0  0  0  0  0  0  0
  184.2810  178.0240  143.1260 N   0  0  0  0  0  2  0  0  0  0  0  0
  189.9570  177.3020  139.2440 N   0  0  0  0  0  0  0  0  0  0  0  0
  190.7740  174.7160  137.9690 O   0  0  0  0  0  0  0  0  0  0  0  0
  183.1720  178.6280  140.9620 C   0  0  2  0  0  3  0  0  0  0  0  0
  188.1880  177.8430  140.8680 C   0  0  0  0  0  0  0  0  0  0  0  0
  189.4650  177.6840  136.8230 N   0  0  0  0  0  2  0  0  0  0  0  0
  187.4040  178.2530  139.8470 C   0  0  1  0  0  3  0  0  0  0  0  0
  189.7280  176.7010  142.8800 C   0  0  0  0  0  3  0  0  0  0  0  0
  184.1800  177.8520  138.7960 C   0  0  0  0  0  2  0  0  0  0  0  0
  190.1940  176.7650  141.6050 N   0  0  0  0  0  0  0  0  0  0  0  0
  185.1690  178.9960  139.0030 C   0  0  0  0  0  2  0  0  0  0  0  0
  184.2780  178.9460  141.9810 C   0  0  2  0  0  3  0  0  0  0  0  0
  188.4730  177.2250  143.1960 C   0  0  0  0  0  3  0  0  0  0  0  0
  186.5030  178.3640  142.4750 C   0  0  2  0  0  3  0  0  0  0  0  0
  181.8220  178.4540  141.6440 C   0  0  0  0  0  2  0  0  0  0  0  0
  180.8050  179.4190  141.0660 C   0  0  1  0  0  3  0  0  0  0  0  0
  179.1970  180.7990  138.9230 C   0  0  0  0  0  2  0  0  0  0  0  0
  181.2530  179.8700  139.7490 C   0  0  1  0  0  3  0  0  0  0  0  0
  180.2100  178.8300  139.8560 N   0  0  2  0  0  0  0  0  0  0  0  0
  180.5790  181.1780  139.3780 C   0  0  0  0  0  2  0  0  0  0  0  0
  178.9310  179.4950  139.6350 C   0  0  0  0  0  2  0  0  0  0  0  0
  1 27  1  0  0  0  0
  1 26  1  0  0  0  0
  3 16  1  0  0  0  0
  4 18  1  0  0  0  0
  4 23  2  0  0  0  0
  5 11  2  0  0  0  0
  5 15  1  0  0  0  0
  6  7  1  0  0  0  0
  6 19  1  0  0  0  0
  7  3  1  0  0  0  0
  8 16  1  0  0  0  0
  8 12  1  0  0  0  0
  9 25  1  0  0  0  0
  9 27  1  0  0  0  0
 10 17  1  0  0  0  0
 11 20  1  0  0  0  0
 12 15  1  0  0  0  0
 13  9  1  0  0  0  0
 14  2  1  0  0  0  0
 15  4  1  0  0  0  0
 17 28  1  0  0  0  0
 17 25  1  0  0  0  0
 18  1  2  0  0  0  0
 19  5  1  0  0  0  0
 20 13  1  0  0  0  0
 20 18  1  0  0  0  0
 21 26  2  0  0  0  0
 22 24  1  0  0  0  0
 22 10  1  0  0  0  0
 23 21  1  0  0  0  0
 24 13  1  0  0  0  0
 25 14  1  0  0  0  0
 27  2  1  0  0  0  0
 29 28  1  0  0  0  0
 30 33  1  0  0  0  0
 30 34  1  0  0  0  0
 31 32  1  0  0  0  0
 31 29  1  0  0  0  0
 32 29  1  0  0  0  0
 33 31  1  0  0  0  0
 34 32  1  0  0  0  0
M  END
>  <MODEL>
6

>  <REMARK>
 VINA RESULT:      -8.5      2.788      6.983
  Name = 
  2 active torsions:
  status: ('A' for Active; 'I' for Inactive)
    1  A    between atoms: C_17  and  C_28
    2  A    between atoms: C_28  and  C_29
                            x       y       z     vdW  Elec       q    Type
                         _______ _______ _______ _____ _____    ______ ____

>  <TORSDO>
F 2

$$$$
=
 OpenBabel11122412183D

 34 41  0  0  1  0  0  0  0  0999 V2000
  187.9760  177.6880  142.1650 C   0  0  0  0  0  0  0  0  0  0  0  0
  185.9130  177.8780  143.5620 C   0  0  0  0  0  2  0  0  0  0  0  0
  189.6740  174.7440  137.4330 C   0  0  0  0  0  2  0  0  0  0  0  0
  189.7360  177.1310  140.5790 C   0  0  0  0  0  0  0  0  0  0  0  0
  189.4100  177.6630  138.1840 C   0  0  0  0  0  0  0  0  0  0  0  0
  189.0830  176.6750  135.9100 C   0  0  0  0  0  2  0  0  0  0  0  0
  189.6380  175.2490  135.9840 C   0  0  0  0  0  2  0  0  0  0  0  0
  191.7250  175.7170  137.7830 C   0  0  0  0  0  2  0  0  0  0  0  0
  186.0590  179.0840  141.4480 C   0  0  1  0  0  3  0  0  0  0  0  0
  183.8030  177.4680  140.0090 C   0  0  0  0  0  2  0  0  0  0  0  0
  188.2230  178.1110  138.4710 N   0  0  0  0  0  0  0  0  0  0  0  0
  191.6120  176.6420  138.9970 C   0  0  0  0  0  2  0  0  0  0  0  0
  186.3890  178.6440  140.0810 N   0  0  2  0  0  0  0  0  0  0  0  0
  184.5490  177.9940  143.0540 N   0  0  0  0  0  2  0  0  0  0  0  0
  190.2460  177.1230  139.2340 N   0  0  0  0  0  0  0  0  0  0  0  0
  190.9820  174.5300  137.9230 O   0  0  0  0  0  0  0  0  0  0  0  0
  183.4940  178.6780  140.8860 C   0  0  2  0  0  3  0  0  0  0  0  0
  188.4780  177.7020  140.8430 C   0  0  0  0  0  0  0  0  0  0  0  0
  189.8030  177.5650  136.8130 N   0  0  0  0  0  2  0  0  0  0  0  0
  187.7240  178.1600  139.8200 C   0  0  1  0  0  3  0  0  0  0  0  0
  189.9450  176.4680  142.8550 C   0  0  0  0  0  3  0  0  0  0  0  0
  184.5020  177.9010  138.7200 C   0  0  0  0  0  2  0  0  0  0  0  0
  190.4310  176.5360  141.5880 N   0  0  0  0  0  0  0  0  0  0  0  0
  185.5310  179.0020  138.9600 C   0  0  0  0  0  2  0  0  0  0  0  0
  184.5980  178.9350  141.9250 C   0  0  2  0  0  3  0  0  0  0  0  0
  188.7070  177.0340  143.1640 C   0  0  0  0  0  3  0  0  0  0  0  0
  186.7910  178.2600  142.4370 C   0  0  2  0  0  3  0  0  0  0  0  0
  182.1290  178.5440  141.5470 C   0  0  0  0  0  2  0  0  0  0  0  0
  181.2560  177.5740  140.7740 C   0  0  1  0  0  3  0  0  0  0  0  0
  178.9310  176.6830  139.0780 C   0  0  0  0  0  2  0  0  0  0  0  0
  179.8590  177.9970  140.8610 C   0  0  1  0  0  3  0  0  0  0  0  0
  180.6390  178.2770  139.6380 N   0  0  2  0  0  0  0  0  0  0  0  0
  178.9320  176.8310  140.5740 C   0  0  0  0  0  2  0  0  0  0  0  0
  180.2580  177.2660  138.6580 C   0  0  0  0  0  2  0  0  0  0  0  0
  1 27  1  0  0  0  0
  1 26  1  0  0  0  0
  3 16  1  0  0  0  0
  4 18  1  0  0  0  0
  4 23  2  0  0  0  0
  5 11  2  0  0  0  0
  5 15  1  0  0  0  0
  6  7  1  0  0  0  0
  6 19  1  0  0  0  0
  7  3  1  0  0  0  0
  8 16  1  0  0  0  0
  8 12  1  0  0  0  0
  9 25  1  0  0  0  0
  9 27  1  0  0  0  0
 10 17  1  0  0  0  0
 11 20  1  0  0  0  0
 12 15  1  0  0  0  0
 13  9  1  0  0  0  0
 14  2  1  0  0  0  0
 15  4  1  0  0  0  0
 17 28  1  0  0  0  0
 17 25  1  0  0  0  0
 18  1  2  0  0  0  0
 19  5  1  0  0  0  0
 20 13  1  0  0  0  0
 20 18  1  0  0  0  0
 21 26  2  0  0  0  0
 22 24  1  0  0  0  0
 22 10  1  0  0  0  0
 23 21  1  0  0  0  0
 24 13  1  0  0  0  0
 25 14  1  0  0  0  0
 27  2  1  0  0  0  0
 29 31  1  0  0  0  0
 29 28  1  0  0  0  0
 30 33  1  0  0  0  0
 32 29  1  0  0  0  0
 32 31  1  0  0  0  0
 33 31  1  0  0  0  0
 34 30  1  0  0  0  0
 34 32  1  0  0  0  0
M  END
>  <MODEL>
7

>  <REMARK>
 VINA RESULT:      -8.2      2.826      6.943
  Name = 
  2 active torsions:
  status: ('A' for Active; 'I' for Inactive)
    1  A    between atoms: C_17  and  C_28
    2  A    between atoms: C_28  and  C_29
                            x       y       z     vdW  Elec       q    Type
                         _______ _______ _______ _____ _____    ______ ____

>  <TORSDO>
F 2

$$$$
=
 OpenBabel11122412183D

 34 41  0  0  1  0  0  0  0  0999 V2000
  187.3830  178.2340  141.2070 C   0  0  0  0  0  0  0  0  0  0  0  0
  185.2390  178.4180  142.4790 C   0  0  0  0  0  2  0  0  0  0  0  0
  189.7840  174.5430  137.3950 C   0  0  0  0  0  2  0  0  0  0  0  0
  189.2940  177.6050  139.8400 C   0  0  0  0  0  0  0  0  0  0  0  0
  189.0250  177.4710  137.3840 C   0  0  0  0  0  0  0  0  0  0  0  0
  188.9860  175.9160  135.4250 C   0  0  0  0  0  2  0  0  0  0  0  0
  189.7520  174.6640  135.8640 C   0  0  0  0  0  2  0  0  0  0  0  0
  191.6350  175.8970  137.5210 C   0  0  0  0  0  2  0  0  0  0  0  0
  185.3150  179.0760  140.1330 C   0  0  1  0  0  3  0  0  0  0  0  0
  183.4230  176.8060  139.1110 C   0  0  0  0  0  2  0  0  0  0  0  0
  187.7690  177.7730  137.5300 N   0  0  0  0  0  0  0  0  0  0  0  0
  191.3100  177.0590  138.4620 C   0  0  0  0  0  2  0  0  0  0  0  0
  185.7860  178.3750  138.9250 N   0  0  2  0  0  0  0  0  0  0  0  0
  183.9050  178.1790  141.9360 N   0  0  0  0  0  2  0  0  0  0  0  0
  189.8750  177.3510  138.5480 N   0  0  0  0  0  0  0  0  0  0  0  0
  191.0800  174.6740  137.9430 O   0  0  0  0  0  0  0  0  0  0  0  0
  182.8800  178.1260  139.6500 C   0  0  2  0  0  3  0  0  0  0  0  0
  187.9500  178.0070  139.9330 C   0  0  0  0  0  0  0  0  0  0  0  0
  189.5060  177.1060  136.0880 N   0  0  0  0  0  2  0  0  0  0  0  0
  187.1920  178.0690  138.8160 C   0  0  1  0  0  3  0  0  0  0  0  0
  189.4750  177.5640  142.2120 C   0  0  0  0  0  3  0  0  0  0  0  0
  184.1180  177.0190  137.7650 C   0  0  0  0  0  2  0  0  0  0  0  0
  190.0160  177.3990  140.9770 N   0  0  0  0  0  0  0  0  0  0  0  0
  184.9470  178.3000  137.7370 C   0  0  0  0  0  2  0  0  0  0  0  0
  183.8700  178.8090  140.6090 C   0  0  2  0  0  3  0  0  0  0  0  0
  188.1490  177.9760  142.3500 C   0  0  0  0  0  3  0  0  0  0  0  0
  186.1090  178.6520  141.3090 C   0  0  2  0  0  3  0  0  0  0  0  0
  181.5180  177.9340  140.3020 C   0  0  0  0  0  2  0  0  0  0  0  0
  180.9930  176.5360  140.0360 C   0  0  1  0  0  3  0  0  0  0  0  0
  178.9310  174.4000  139.5230 C   0  0  0  0  0  2  0  0  0  0  0  0
  179.6770  176.3820  140.6550 C   0  0  1  0  0  3  0  0  0  0  0  0
  179.7840  176.6230  139.2020 N   0  0  2  0  0  0  0  0  0  0  0  0
  179.3590  174.9150  140.8690 C   0  0  0  0  0  2  0  0  0  0  0  0
  179.6150  175.3290  138.5500 C   0  0  0  0  0  2  0  0  0  0  0  0
  1 27  1  0  0  0  0
  1 26  1  0  0  0  0
  3 16  1  0  0  0  0
  4 18  1  0  0  0  0
  4 23  2  0  0  0  0
  5 11  2  0  0  0  0
  5 15  1  0  0  0  0
  6  7  1  0  0  0  0
  6 19  1  0  0  0  0
  7  3  1  0  0  0  0
  8 16  1  0  0  0  0
  8 12  1  0  0  0  0
  9 25  1  0  0  0  0
  9 27  1  0  0  0  0
 10 17  1  0  0  0  0
 11 20  1  0  0  0  0
 12 15  1  0  0  0  0
 13  9  1  0  0  0  0
 14  2  1  0  0  0  0
 15  4  1  0  0  0  0
 17 28  1  0  0  0  0
 17 25  1  0  0  0  0
 18  1  2  0  0  0  0
 19  5  1  0  0  0  0
 20 13  1  0  0  0  0
 20 18  1  0  0  0  0
 21 26  2  0  0  0  0
 22 10  1  0  0  0  0
 23 21  1  0  0  0  0
 24 22  1  0  0  0  0
 24 13  1  0  0  0  0
 25 14  1  0  0  0  0
 27  2  1  0  0  0  0
 29 28  1  0  0  0  0
 29 31  1  0  0  0  0
 30 33  1  0  0  0  0
 31 33  1  0  0  0  0
 32 29  1  0  0  0  0
 32 31  1  0  0  0  0
 34 32  1  0  0  0  0
 34 30  1  0  0  0  0
M  END
>  <MODEL>
8

>  <REMARK>
 VINA RESULT:      -7.7      2.951      7.199
  Name = 
  2 active torsions:
  status: ('A' for Active; 'I' for Inactive)
    1  A    between atoms: C_17  and  C_28
    2  A    between atoms: C_28  and  C_29
                            x       y       z     vdW  Elec       q    Type
                         _______ _______ _______ _____ _____    ______ ____

>  <TORSDO>
F 2

$$$$
=
 OpenBabel11122412183D

 34 41  0  0  1  0  0  0  0  0999 V2000
  184.3630  178.7090  144.5560 C   0  0  0  0  0  0  0  0  0  0  0  0
  181.8910  178.5220  144.2430 C   0  0  0  0  0  2  0  0  0  0  0  0
  189.1140  175.7870  142.8760 C   0  0  0  0  0  2  0  0  0  0  0  0
  186.7810  178.4460  144.6320 C   0  0  0  0  0  0  0  0  0  0  0  0
  188.0750  178.6060  142.5290 C   0  0  0  0  0  0  0  0  0  0  0  0
  189.4670  177.3210  140.8960 C   0  0  0  0  0  2  0  0  0  0  0  0
  189.9940  176.1010  141.6580 C   0  0  0  0  0  2  0  0  0  0  0  0
  190.2760  177.2820  144.1750 C   0  0  0  0  0  2  0  0  0  0  0  0
  183.2660  179.4820  142.4740 C   0  0  1  0  0  3  0  0  0  0  0  0
  182.7550  177.1950  140.4050 C   0  0  0  0  0  2  0  0  0  0  0  0
  186.9580  178.7660  141.8830 N   0  0  0  0  0  0  0  0  0  0  0  0
  189.2740  178.2770  144.7660 C   0  0  0  0  0  2  0  0  0  0  0  0
  184.4720  178.9910  141.7840 N   0  0  2  0  0  0  0  0  0  0  0  0
  181.2120  178.2300  142.9840 N   0  0  0  0  0  2  0  0  0  0  0  0
  188.0540  178.4180  143.9630 N   0  0  0  0  0  0  0  0  0  0  0  0
  189.7750  175.9680  144.1110 O   0  0  0  0  0  0  0  0  0  0  0  0
  181.8010  178.3760  140.5520 C   0  0  2  0  0  3  0  0  0  0  0  0
  185.6120  178.7040  143.8930 C   0  0  0  0  0  0  0  0  0  0  0  0
  189.2900  178.4600  141.7890 N   0  0  0  0  0  2  0  0  0  0  0  0
  185.6850  178.8370  142.5510 C   0  0  1  0  0  3  0  0  0  0  0  0
  185.4950  178.1160  146.6070 C   0  0  0  0  0  3  0  0  0  0  0  0
  184.0770  177.6450  139.7840 C   0  0  0  0  0  2  0  0  0  0  0  0
  186.6900  178.1640  145.9610 N   0  0  0  0  0  0  0  0  0  0  0  0
  184.5450  178.9920  140.3300 C   0  0  0  0  0  2  0  0  0  0  0  0
  181.8900  179.0200  141.9460 C   0  0  2  0  0  3  0  0  0  0  0  0
  184.3120  178.3790  145.9150 C   0  0  0  0  0  3  0  0  0  0  0  0
  183.2420  178.9870  143.8700 C   0  0  2  0  0  3  0  0  0  0  0  0
  180.3710  177.9730  140.2170 C   0  0  0  0  0  2  0  0  0  0  0  0
  180.3070  176.5060  139.8380 C   0  0  1  0  0  3  0  0  0  0  0  0
  179.0320  173.8170  139.3650 C   0  0  0  0  0  2  0  0  0  0  0  0
  179.2820  175.8380  140.6390 C   0  0  1  0  0  3  0  0  0  0  0  0
  178.9930  176.2170  139.2410 N   0  0  2  0  0  0  0  0  0  0  0  0
  179.5320  174.3420  140.6820 C   0  0  0  0  0  2  0  0  0  0  0  0
  179.1390  175.0060  138.4410 C   0  0  0  0  0  2  0  0  0  0  0  0
  1 26  1  0  0  0  0
  3 16  1  0  0  0  0
  4 23  2  0  0  0  0
  5 15  1  0  0  0  0
  6  7  1  0  0  0  0
  6 19  1  0  0  0  0
  7  3  1  0  0  0  0
  8 12  1  0  0  0  0
  9 27  1  0  0  0  0
 10 17  1  0  0  0  0
 11  5  2  0  0  0  0
 11 20  1  0  0  0  0
 13  9  1  0  0  0  0
 13 20  1  0  0  0  0
 14  2  1  0  0  0  0
 15  4  1  0  0  0  0
 15 12  1  0  0  0  0
 16  8  1  0  0  0  0
 17 25  1  0  0  0  0
 18  1  2  0  0  0  0
 18  4  1  0  0  0  0
 19  5  1  0  0  0  0
 20 18  1  0  0  0  0
 22 24  1  0  0  0  0
 22 10  1  0  0  0  0
 23 21  1  0  0  0  0
 24 13  1  0  0  0  0
 25  9  1  0  0  0  0
 25 14  1  0  0  0  0
 26 21  2  0  0  0  0
 27  2  1  0  0  0  0
 27  1  1  0  0  0  0
 28 17  1  0  0  0  0
 29 28  1  0  0  0  0
 29 31  1  0  0  0  0
 30 33  1  0  0  0  0
 31 33  1  0  0  0  0
 32 29  1  0  0  0  0
 32 31  1  0  0  0  0
 34 32  1  0  0  0  0
 34 30  1  0  0  0  0
M  END
>  <MODEL>
9

>  <REMARK>
 VINA RESULT:      -6.9      3.441      8.767
  Name = 
  2 active torsions:
  status: ('A' for Active; 'I' for Inactive)
    1  A    between atoms: C_17  and  C_28
    2  A    between atoms: C_28  and  C_29
                            x       y       z     vdW  Elec       q    Type
                         _______ _______ _______ _____ _____    ______ ____

>  <TORSDO>
F 2

$$$$
