=
 OpenBabel11122411433D

 37 44  0  0  1  0  0  0  0  0999 V2000
  181.7940  178.6070  142.0250 C   0  0  2  0  0  3  0  0  0  0  0  0
  185.1670  178.5710  145.4700 C   0  0  0  0  0  0  0  0  0  0  0  0
  186.5660  177.9660  141.6100 C   0  0  0  0  0  0  0  0  0  0  0  0
  180.4800  177.9540  141.6540 C   0  0  2  0  0  3  0  0  0  0  0  0
  184.6120  179.8010  138.7820 C   0  0  0  0  0  2  0  0  0  0  0  0
  186.9280  177.5750  143.9530 C   0  0  0  0  0  0  0  0  0  0  0  0
  185.4840  178.5460  140.8060 C   0  0  0  0  0  0  0  0  0  0  0  0
  181.0120  179.1710  139.5670 C   0  0  2  0  0  3  0  0  0  0  0  0
  186.0930  177.8300  142.8810 C   0  0  0  0  0  0  0  0  0  0  0  0
  185.5710  178.8530  139.4910 C   0  0  0  0  0  0  0  0  0  0  0  0
  188.2580  177.4090  143.7200 N   0  0  0  0  0  0  0  0  0  0  0  0
  180.8130  179.3280  141.0820 C   0  0  2  0  0  3  0  0  0  0  0  0
  184.7780  178.3030  143.0330 N   0  0  0  0  0  0  0  0  0  0  0  0
  185.6960  179.9950  145.4710 C   0  0  0  0  0  1  0  0  0  0  0  0
  188.5830  178.2670  140.1080 C   0  0  0  0  0  3  0  0  0  0  0  0
  188.7780  177.5670  142.4630 C   0  0  0  0  0  3  0  0  0  0  0  0
  184.1280  178.4070  144.3400 C   0  0  0  0  0  2  0  0  0  0  0  0
  182.4440  178.8710  139.1390 C   0  0  1  0  0  3  0  0  0  0  0  0
  183.3280  179.9970  139.4460 N   0  0  0  0  0  2  0  0  0  0  0  0
  187.9450  177.8870  141.3720 C   0  0  0  0  0  0  0  0  0  0  0  0
  184.2820  178.7620  141.7390 C   0  0  2  0  0  3  0  0  0  0  0  0
  186.3440  177.5740  145.3360 C   0  0  0  0  0  2  0  0  0  0  0  0
  186.5900  178.2440  138.6680 N   0  0  0  0  0  0  0  0  0  0  0  0
  184.4760  178.3220  146.7940 C   0  0  0  0  0  1  0  0  0  0  0  0
  182.8780  177.6220  139.8880 C   0  0  0  0  0  2  0  0  0  0  0  0
  180.4580  180.3800  138.8340 C   0  0  0  0  0  1  0  0  0  0  0  0
  183.0270  177.9320  141.3820 C   0  0  2  0  0  3  0  0  0  0  0  0
  187.9910  178.4270  138.9270 C   0  0  0  0  0  3  0  0  0  0  0  0
  186.7900  178.0570  136.2010 C   0  0  0  0  0  3  0  0  0  0  0  0
  186.2130  177.6330  137.4130 C   0  0  0  0  0  0  0  0  0  0  0  0
  185.2860  176.5780  137.3820 C   0  0  0  0  0  3  0  0  0  0  0  0
  184.0310  174.9600  136.1630 F   0  0  0  0  0  0  0  0  0  0  0  0
  185.5060  176.4090  134.9780 C   0  0  0  0  0  3  0  0  0  0  0  0
  184.9320  175.9730  136.1740 C   0  0  0  0  0  0  0  0  0  0  0  0
  186.4360  177.4520  134.9920 C   0  0  0  0  0  3  0  0  0  0  0  0
  179.9790  178.3660  143.9180 C   0  0  0  0  0  2  0  0  0  0  0  0
  179.5510  178.1050  142.7390 N   0  0  0  0  0  0  0  0  0  0  0  0
  2 14  1  0  0  0  0
  2 24  1  0  0  0  0
  3  9  1  0  0  0  0
  4  1  1  0  0  0  0
  4 37  1  0  0  0  0
  5 19  1  0  0  0  0
  5 10  1  0  0  0  0
  6 22  1  0  0  0  0
  7  3  1  0  0  0  0
  7 21  1  0  0  0  0
  8 12  1  0  0  0  0
  9 13  1  0  0  0  0
  9  6  2  0  0  0  0
 10  7  2  0  0  0  0
 11  6  1  0  0  0  0
 12  4  1  0  0  0  0
 12  1  1  0  0  0  0
 13 17  1  0  0  0  0
 15 20  1  0  0  0  0
 16 11  2  0  0  0  0
 17  2  1  0  0  0  0
 18 19  1  0  0  0  0
 18  8  1  0  0  0  0
 18 25  1  0  0  0  0
 20  3  2  0  0  0  0
 20 16  1  0  0  0  0
 21 13  1  0  0  0  0
 22  2  1  0  0  0  0
 23 28  1  0  0  0  0
 23 10  1  0  0  0  0
 25 27  1  0  0  0  0
 26  8  1  0  0  0  0
 27 21  1  0  0  0  0
 27  1  1  0  0  0  0
 28 15  2  0  0  0  0
 29 30  1  0  0  0  0
 30 23  1  0  0  0  0
 31 30  2  0  0  0  0
 32 34  1  0  0  0  0
 33 35  1  0  0  0  0
 33 34  2  0  0  0  0
 34 31  1  0  0  0  0
 35 29  2  0  0  0  0
 37 36  2  0  0  0  0
M  END
>  <MODEL>
1

>  <REMARK>
 VINA RESULT:      -7.9      0.000      0.000
  Name = 
  2 active torsions:
  status: ('A' for Active; 'I' for Inactive)
    1  A    between atoms: C_4  and  N_37
    2  A    between atoms: N_23  and  C_30
                            x       y       z     vdW  Elec       q    Type
                         _______ _______ _______ _____ _____    ______ ____

>  <TORSDO>
F 2

$$$$
=
 OpenBabel11122411433D

 37 44  0  0  1  0  0  0  0  0999 V2000
  187.0720  177.9830  139.3740 C   0  0  2  0  0  3  0  0  0  0  0  0
  187.4060  177.6860  144.1740 C   0  0  0  0  0  0  0  0  0  0  0  0
  183.6760  178.7790  142.7180 C   0  0  0  0  0  0  0  0  0  0  0  0
  187.7340  178.6450  138.1830 C   0  0  2  0  0  3  0  0  0  0  0  0
  182.6750  177.2500  139.2770 C   0  0  0  0  0  2  0  0  0  0  0  0
  185.2190  178.8970  144.5570 C   0  0  0  0  0  0  0  0  0  0  0  0
  183.7340  178.2740  141.3420 C   0  0  0  0  0  0  0  0  0  0  0  0
  185.7040  177.6990  137.1330 C   0  0  2  0  0  3  0  0  0  0  0  0
  184.9480  178.7520  143.2090 C   0  0  0  0  0  0  0  0  0  0  0  0
  182.6670  178.1290  140.5220 C   0  0  0  0  0  0  0  0  0  0  0  0
  184.1840  179.1190  145.4120 N   0  0  0  0  0  0  0  0  0  0  0  0
  186.9450  177.3570  137.9720 C   0  0  2  0  0  3  0  0  0  0  0  0
  185.8800  178.2340  142.2940 N   0  0  0  0  0  0  0  0  0  0  0  0
  186.9080  176.2850  144.4830 C   0  0  0  0  0  1  0  0  0  0  0  0
  181.1960  178.7070  143.2240 C   0  0  0  0  0  3  0  0  0  0  0  0
  182.8900  179.1250  144.9640 C   0  0  0  0  0  3  0  0  0  0  0  0
  187.2700  177.9600  142.6600 C   0  0  0  0  0  2  0  0  0  0  0  0
  184.4700  178.0810  137.9440 C   0  0  1  0  0  3  0  0  0  0  0  0
  183.9960  176.9470  138.7390 N   0  0  0  0  0  2  0  0  0  0  0  0
  182.5960  178.9180  143.6010 C   0  0  0  0  0  0  0  0  0  0  0  0
  185.1980  177.9210  141.0410 C   0  0  2  0  0  3  0  0  0  0  0  0
  186.6330  178.7190  145.0300 C   0  0  0  0  0  2  0  0  0  0  0  0
  181.4460  178.8550  140.7810 N   0  0  0  0  0  0  0  0  0  0  0  0
  188.8720  177.7600  144.5430 C   0  0  0  0  0  1  0  0  0  0  0  0
  184.8710  179.2400  138.8400 C   0  0  0  0  0  2  0  0  0  0  0  0
  185.3990  176.5740  136.1610 C   0  0  0  0  0  1  0  0  0  0  0  0
  185.8500  178.7590  139.9160 C   0  0  2  0  0  3  0  0  0  0  0  0
  180.6930  178.6750  141.9920 C   0  0  0  0  0  3  0  0  0  0  0  0
  179.5340  179.2790  139.2560 C   0  0  0  0  0  3  0  0  0  0  0  0
  180.8260  179.6020  139.7100 C   0  0  0  0  0  0  0  0  0  0  0  0
  181.4900  180.6920  139.1220 C   0  0  0  0  0  3  0  0  0  0  0  0
  181.5470  182.4730  137.5400 F   0  0  0  0  0  0  0  0  0  0  0  0
  179.6100  181.0900  137.6530 C   0  0  0  0  0  3  0  0  0  0  0  0
  180.8890  181.4280  138.0990 C   0  0  0  0  0  0  0  0  0  0  0  0
  178.9310  180.0150  138.2330 C   0  0  0  0  0  3  0  0  0  0  0  0
  189.6880  177.8760  139.2510 C   0  0  0  0  0  2  0  0  0  0  0  0
  189.1380  178.3450  138.1930 N   0  0  0  0  0  0  0  0  0  0  0  0
  1 27  1  0  0  0  0
  2 14  1  0  0  0  0
  2 24  1  0  0  0  0
  2 22  1  0  0  0  0
  3  9  2  0  0  0  0
  3 20  1  0  0  0  0
  4 37  1  0  0  0  0
  4  1  1  0  0  0  0
  5 10  1  0  0  0  0
  6 22  1  0  0  0  0
  6 11  2  0  0  0  0
  7  3  1  0  0  0  0
  8 18  1  0  0  0  0
  8 12  1  0  0  0  0
  9  6  1  0  0  0  0
 10 23  1  0  0  0  0
 10  7  2  0  0  0  0
 12  4  1  0  0  0  0
 12  1  1  0  0  0  0
 13 17  1  0  0  0  0
 13  9  1  0  0  0  0
 15 20  1  0  0  0  0
 16 11  1  0  0  0  0
 17  2  1  0  0  0  0
 18 19  1  0  0  0  0
 18 25  1  0  0  0  0
 19  5  1  0  0  0  0
 20 16  2  0  0  0  0
 21  7  1  0  0  0  0
 21 13  1  0  0  0  0
 23 28  1  0  0  0  0
 25 27  1  0  0  0  0
 26  8  1  0  0  0  0
 27 21  1  0  0  0  0
 28 15  2  0  0  0  0
 29 30  1  0  0  0  0
 30 23  1  0  0  0  0
 31 30  2  0  0  0  0
 32 34  1  0  0  0  0
 33 34  2  0  0  0  0
 33 35  1  0  0  0  0
 34 31  1  0  0  0  0
 35 29  2  0  0  0  0
 37 36  2  0  0  0  0
M  END
>  <MODEL>
2

>  <REMARK>
 VINA RESULT:      -7.5      1.947      5.803
  Name = 
  2 active torsions:
  status: ('A' for Active; 'I' for Inactive)
    1  A    between atoms: C_4  and  N_37
    2  A    between atoms: N_23  and  C_30
                            x       y       z     vdW  Elec       q    Type
                         _______ _______ _______ _____ _____    ______ ____

>  <TORSDO>
F 2

$$$$
=
 OpenBabel11122411433D

 37 44  0  0  1  0  0  0  0  0999 V2000
  188.6220  177.3550  140.9460 C   0  0  2  0  0  3  0  0  0  0  0  0
  184.3520  178.8500  142.6100 C   0  0  0  0  0  0  0  0  0  0  0  0
  187.1760  177.9580  145.5180 C   0  0  0  0  0  0  0  0  0  0  0  0
  189.2330  176.3160  140.0290 C   0  0  2  0  0  3  0  0  0  0  0  0
  190.8870  178.6570  144.5590 C   0  0  0  0  0  2  0  0  0  0  0  0
  184.8390  178.1080  144.9780 C   0  0  0  0  0  0  0  0  0  0  0  0
  188.4280  178.0700  144.7610 C   0  0  0  0  0  0  0  0  0  0  0  0
  191.2540  177.2340  141.1220 C   0  0  2  0  0  3  0  0  0  0  0  0
  186.1590  177.9310  144.6090 C   0  0  0  0  0  0  0  0  0  0  0  0
  189.6630  178.1460  145.3080 C   0  0  0  0  0  0  0  0  0  0  0  0
  184.5440  178.2680  146.2970 N   0  0  0  0  0  0  0  0  0  0  0  0
  190.0020  177.6030  140.3100 C   0  0  2  0  0  3  0  0  0  0  0  0
  186.6040  178.0520  143.2820 N   0  0  0  0  0  0  0  0  0  0  0  0
  184.5520  180.3400  142.8300 C   0  0  0  0  0  1  0  0  0  0  0  0
  187.9110  178.5140  147.8760 C   0  0  0  0  0  3  0  0  0  0  0  0
  185.5370  178.3290  147.2370 C   0  0  0  0  0  3  0  0  0  0  0  0
  185.6820  178.2110  142.1570 C   0  0  0  0  0  2  0  0  0  0  0  0
  191.0640  177.2580  142.6350 C   0  0  1  0  0  3  0  0  0  0  0  0
  190.7860  178.6160  143.1050 N   0  0  0  0  0  2  0  0  0  0  0  0
  186.8920  178.2120  146.8670 C   0  0  0  0  0  0  0  0  0  0  0  0
  188.0630  178.1190  143.2700 C   0  0  2  0  0  3  0  0  0  0  0  0
  183.7970  178.2000  143.9010 C   0  0  0  0  0  2  0  0  0  0  0  0
  189.8870  177.6960  146.6630 N   0  0  0  0  0  0  0  0  0  0  0  0
  183.3330  178.6680  141.5060 C   0  0  0  0  0  1  0  0  0  0  0  0
  189.9030  176.3290  142.9500 C   0  0  0  0  0  2  0  0  0  0  0  0
  192.4300  178.0960  140.7000 C   0  0  0  0  0  1  0  0  0  0  0  0
  188.5920  176.9310  142.4320 C   0  0  2  0  0  3  0  0  0  0  0  0
  189.2200  178.2930  147.7860 C   0  0  0  0  0  3  0  0  0  0  0  0
  191.6630  176.8290  148.1650 C   0  0  0  0  0  3  0  0  0  0  0  0
  190.9810  176.7900  146.9350 C   0  0  0  0  0  0  0  0  0  0  0  0
  191.3620  175.8260  145.9860 C   0  0  0  0  0  3  0  0  0  0  0  0
  192.7650  174.0170  145.3210 F   0  0  0  0  0  0  0  0  0  0  0  0
  193.0810  174.9930  147.4730 C   0  0  0  0  0  3  0  0  0  0  0  0
  192.4070  174.9370  146.2500 C   0  0  0  0  0  0  0  0  0  0  0  0
  192.7080  175.9400  148.4300 C   0  0  0  0  0  3  0  0  0  0  0  0
  188.0950  177.5080  138.3460 C   0  0  0  0  0  2  0  0  0  0  0  0
  188.6180  176.4050  138.7340 N   0  0  0  0  0  0  0  0  0  0  0  0
  1 27  1  0  0  0  0
  2 14  1  0  0  0  0
  2 22  1  0  0  0  0
  3 20  1  0  0  0  0
  4 12  1  0  0  0  0
  4  1  1  0  0  0  0
  5 10  1  0  0  0  0
  6 11  2  0  0  0  0
  7 10  2  0  0  0  0
  7  3  1  0  0  0  0
  8 18  1  0  0  0  0
  9  6  1  0  0  0  0
  9  3  2  0  0  0  0
 10 23  1  0  0  0  0
 11 16  1  0  0  0  0
 12  1  1  0  0  0  0
 12  8  1  0  0  0  0
 13  9  1  0  0  0  0
 17  2  1  0  0  0  0
 17 13  1  0  0  0  0
 18 25  1  0  0  0  0
 18 19  1  0  0  0  0
 19  5  1  0  0  0  0
 20 16  2  0  0  0  0
 20 15  1  0  0  0  0
 21 13  1  0  0  0  0
 21  7  1  0  0  0  0
 22  6  1  0  0  0  0
 23 30  1  0  0  0  0
 23 28  1  0  0  0  0
 24  2  1  0  0  0  0
 26  8  1  0  0  0  0
 27 25  1  0  0  0  0
 27 21  1  0  0  0  0
 28 15  2  0  0  0  0
 29 35  1  0  0  0  0
 30 29  2  0  0  0  0
 31 34  2  0  0  0  0
 31 30  1  0  0  0  0
 32 34  1  0  0  0  0
 33 35  2  0  0  0  0
 34 33  1  0  0  0  0
 36 37  2  0  0  0  0
 37  4  1  0  0  0  0
M  END
>  <MODEL>
3

>  <REMARK>
 VINA RESULT:      -6.5      3.768      8.456
  Name = 
  2 active torsions:
  status: ('A' for Active; 'I' for Inactive)
    1  A    between atoms: C_4  and  N_37
    2  A    between atoms: N_23  and  C_30
                            x       y       z     vdW  Elec       q    Type
                         _______ _______ _______ _____ _____    ______ ____

>  <TORSDO>
F 2

$$$$
=
 OpenBabel11122411433D

 37 44  0  0  1  0  0  0  0  0999 V2000
  185.4150  177.8810  138.3460 C   0  0  2  0  0  3  0  0  0  0  0  0
  185.1840  178.6990  143.0910 C   0  0  0  0  0  0  0  0  0  0  0  0
  188.8880  177.4670  141.6800 C   0  0  0  0  0  0  0  0  0  0  0  0
  184.7310  177.0900  137.2500 C   0  0  2  0  0  3  0  0  0  0  0  0
  189.8040  178.6160  138.0710 C   0  0  0  0  0  2  0  0  0  0  0  0
  187.3860  177.5460  143.5550 C   0  0  0  0  0  0  0  0  0  0  0  0
  188.7970  177.8190  140.2580 C   0  0  0  0  0  0  0  0  0  0  0  0
  186.7310  177.9240  136.0570 C   0  0  2  0  0  3  0  0  0  0  0  0
  187.6270  177.5430  142.1940 C   0  0  0  0  0  0  0  0  0  0  0  0
  189.8440  177.8780  139.4040 C   0  0  0  0  0  0  0  0  0  0  0  0
  188.4410  177.4220  144.4050 N   0  0  0  0  0  0  0  0  0  0  0  0
  185.5070  178.3510  136.8820 C   0  0  2  0  0  3  0  0  0  0  0  0
  186.6710  177.9550  141.2490 N   0  0  0  0  0  0  0  0  0  0  0  0
  185.6800  180.1280  143.2350 C   0  0  0  0  0  1  0  0  0  0  0  0
  191.3780  177.6040  142.1190 C   0  0  0  0  0  3  0  0  0  0  0  0
  189.7250  177.3720  143.9320 C   0  0  0  0  0  3  0  0  0  0  0  0
  185.2880  178.2620  141.6140 C   0  0  0  0  0  2  0  0  0  0  0  0
  187.9850  177.6370  136.8770 C   0  0  1  0  0  3  0  0  0  0  0  0
  188.4690  178.8530  137.5330 N   0  0  0  0  0  2  0  0  0  0  0  0
  189.9870  177.4300  142.5480 C   0  0  0  0  0  0  0  0  0  0  0  0
  187.3240  178.1320  139.9540 C   0  0  2  0  0  3  0  0  0  0  0  0
  185.9820  177.7690  144.0380 C   0  0  0  0  0  2  0  0  0  0  0  0
  191.0760  177.1890  139.7130 N   0  0  0  0  0  0  0  0  0  0  0  0
  183.7270  178.6610  143.4990 C   0  0  0  0  0  1  0  0  0  0  0  0
  187.6100  176.5810  137.9030 C   0  0  0  0  0  2  0  0  0  0  0  0
  187.0080  178.9380  134.9620 C   0  0  0  0  0  1  0  0  0  0  0  0
  186.6520  177.1740  138.9420 C   0  0  2  0  0  3  0  0  0  0  0  0
  191.8530  177.5030  140.8800 C   0  0  0  0  0  3  0  0  0  0  0  0
  193.0020  176.5360  138.2920 C   0  0  0  0  0  3  0  0  0  0  0  0
  191.6760  176.3320  138.7160 C   0  0  0  0  0  0  0  0  0  0  0  0
  190.9570  175.2530  138.1750 C   0  0  0  0  0  3  0  0  0  0  0  0
  190.8270  173.3790  136.7090 F   0  0  0  0  0  0  0  0  0  0  0  0
  192.8520  174.6310  136.8060 C   0  0  0  0  0  3  0  0  0  0  0  0
  191.5380  174.4110  137.2240 C   0  0  0  0  0  0  0  0  0  0  0  0
  193.5850  175.6930  137.3410 C   0  0  0  0  0  3  0  0  0  0  0  0
  182.8510  178.2330  138.0940 C   0  0  0  0  0  2  0  0  0  0  0  0
  183.3250  177.3850  137.2580 N   0  0  0  0  0  0  0  0  0  0  0  0
  1 27  1  0  0  0  0
  2 14  1  0  0  0  0
  2 24  1  0  0  0  0
  2 22  1  0  0  0  0
  3  9  2  0  0  0  0
  3 20  1  0  0  0  0
  4 37  1  0  0  0  0
  4  1  1  0  0  0  0
  5 10  1  0  0  0  0
  6 22  1  0  0  0  0
  6 11  2  0  0  0  0
  7  3  1  0  0  0  0
  8 18  1  0  0  0  0
  8 12  1  0  0  0  0
  9  6  1  0  0  0  0
 10 23  1  0  0  0  0
 10  7  2  0  0  0  0
 12  4  1  0  0  0  0
 12  1  1  0  0  0  0
 13 17  1  0  0  0  0
 13  9  1  0  0  0  0
 15 20  1  0  0  0  0
 16 11  1  0  0  0  0
 17  2  1  0  0  0  0
 18 19  1  0  0  0  0
 18 25  1  0  0  0  0
 19  5  1  0  0  0  0
 20 16  2  0  0  0  0
 21  7  1  0  0  0  0
 21 13  1  0  0  0  0
 23 28  1  0  0  0  0
 25 27  1  0  0  0  0
 26  8  1  0  0  0  0
 27 21  1  0  0  0  0
 28 15  2  0  0  0  0
 29 30  1  0  0  0  0
 30 23  1  0  0  0  0
 31 30  2  0  0  0  0
 32 34  1  0  0  0  0
 33 34  2  0  0  0  0
 33 35  1  0  0  0  0
 34 31  1  0  0  0  0
 35 29  2  0  0  0  0
 37 36  2  0  0  0  0
M  END
>  <MODEL>
4

>  <REMARK>
 VINA RESULT:      -6.5      2.970      5.013
  Name = 
  2 active torsions:
  status: ('A' for Active; 'I' for Inactive)
    1  A    between atoms: C_4  and  N_37
    2  A    between atoms: N_23  and  C_30
                            x       y       z     vdW  Elec       q    Type
                         _______ _______ _______ _____ _____    ______ ____

>  <TORSDO>
F 2

$$$$
=
 OpenBabel11122411433D

 37 44  0  0  1  0  0  0  0  0999 V2000
  186.2750  178.2130  144.7610 C   0  0  2  0  0  3  0  0  0  0  0  0
  191.0130  177.9430  143.9130 C   0  0  0  0  0  0  0  0  0  0  0  0
  188.5870  177.5930  140.5630 C   0  0  0  0  0  0  0  0  0  0  0  0
  185.1920  177.5880  145.6150 C   0  0  2  0  0  3  0  0  0  0  0  0
  185.2570  179.6150  140.6530 C   0  0  0  0  0  2  0  0  0  0  0  0
  190.7000  177.0460  141.5680 C   0  0  0  0  0  0  0  0  0  0  0  0
  187.3470  178.2270  141.0260 C   0  0  0  0  0  0  0  0  0  0  0  0
  183.8390  178.9400  144.0460 C   0  0  2  0  0  3  0  0  0  0  0  0
  189.3610  177.3730  141.6640 C   0  0  0  0  0  0  0  0  0  0  0  0
  186.3290  178.6200  140.2260 C   0  0  0  0  0  0  0  0  0  0  0  0
  191.2490  176.8940  140.3330 N   0  0  0  0  0  0  0  0  0  0  0  0
  184.9850  178.9970  145.0680 C   0  0  2  0  0  3  0  0  0  0  0  0
  188.7710  177.8380  142.8530 N   0  0  0  0  0  0  0  0  0  0  0  0
  191.3910  179.3630  143.5270 C   0  0  0  0  0  1  0  0  0  0  0  0
  188.5030  177.9890  138.0640 C   0  0  0  0  0  3  0  0  0  0  0  0
  190.5150  177.1340  139.2020 C   0  0  0  0  0  3  0  0  0  0  0  0
  189.4870  177.8560  144.1290 C   0  0  0  0  0  2  0  0  0  0  0  0
  184.2770  178.6660  142.6110 C   0  0  1  0  0  3  0  0  0  0  0  0
  185.0910  179.7680  142.0940 N   0  0  0  0  0  2  0  0  0  0  0  0
  189.1640  177.5270  139.2880 C   0  0  0  0  0  0  0  0  0  0  0  0
  187.4500  178.3820  142.5510 C   0  0  2  0  0  3  0  0  0  0  0  0
  191.5110  176.9550  142.8290 C   0  0  0  0  0  2  0  0  0  0  0  0
  186.1910  178.0650  138.8990 N   0  0  0  0  0  0  0  0  0  0  0  0
  191.7010  177.6080  145.2180 C   0  0  0  0  0  1  0  0  0  0  0  0
  185.0700  177.3700  142.6290 C   0  0  0  0  0  2  0  0  0  0  0  0
  182.9910  180.1950  144.1340 C   0  0  0  0  0  1  0  0  0  0  0  0
  186.4020  177.5800  143.3580 C   0  0  2  0  0  3  0  0  0  0  0  0
  187.2050  178.2280  137.8940 C   0  0  0  0  0  3  0  0  0  0  0  0
  184.6000  177.3890  137.1180 C   0  0  0  0  0  3  0  0  0  0  0  0
  184.9100  177.5390  138.4820 C   0  0  0  0  0  0  0  0  0  0  0  0
  183.9600  177.1340  139.4350 C   0  0  0  0  0  3  0  0  0  0  0  0
  181.8220  176.2290  139.9710 F   0  0  0  0  0  0  0  0  0  0  0  0
  182.4310  176.4740  137.6800 C   0  0  0  0  0  3  0  0  0  0  0  0
  182.7280  176.6090  139.0380 C   0  0  0  0  0  0  0  0  0  0  0  0
  183.3670  176.8640  136.7200 C   0  0  0  0  0  3  0  0  0  0  0  0
  186.6320  178.3030  147.3370 C   0  0  0  0  0  2  0  0  0  0  0  0
  185.5720  177.6680  146.9980 N   0  0  0  0  0  0  0  0  0  0  0  0
  1 12  1  0  0  0  0
  1  4  1  0  0  0  0
  2 17  1  0  0  0  0
  2 24  1  0  0  0  0
  3  7  1  0  0  0  0
  3  9  1  0  0  0  0
  4 37  1  0  0  0  0
  5 19  1  0  0  0  0
  6  9  2  0  0  0  0
  6 22  1  0  0  0  0
  7 21  1  0  0  0  0
  8 26  1  0  0  0  0
  8 12  1  0  0  0  0
  9 13  1  0  0  0  0
 10  5  1  0  0  0  0
 10  7  2  0  0  0  0
 11  6  1  0  0  0  0
 12  4  1  0  0  0  0
 13 17  1  0  0  0  0
 14  2  1  0  0  0  0
 15 20  1  0  0  0  0
 16 20  1  0  0  0  0
 16 11  2  0  0  0  0
 18 25  1  0  0  0  0
 18  8  1  0  0  0  0
 19 18  1  0  0  0  0
 20  3  2  0  0  0  0
 21 13  1  0  0  0  0
 21 27  1  0  0  0  0
 22  2  1  0  0  0  0
 23 10  1  0  0  0  0
 25 27  1  0  0  0  0
 27  1  1  0  0  0  0
 28 15  2  0  0  0  0
 28 23  1  0  0  0  0
 29 30  1  0  0  0  0
 30 23  1  0  0  0  0
 30 31  2  0  0  0  0
 33 34  2  0  0  0  0
 34 31  1  0  0  0  0
 34 32  1  0  0  0  0
 35 29  2  0  0  0  0
 35 33  1  0  0  0  0
 37 36  2  0  0  0  0
M  END
>  <MODEL>
5

>  <REMARK>
 VINA RESULT:      -6.2      2.313      4.401
  Name = 
  2 active torsions:
  status: ('A' for Active; 'I' for Inactive)
    1  A    between atoms: C_4  and  N_37
    2  A    between atoms: N_23  and  C_30
                            x       y       z     vdW  Elec       q    Type
                         _______ _______ _______ _____ _____    ______ ____

>  <TORSDO>
F 2

$$$$
