=
 OpenBabel11122411053D

 31 35  0  0  1  0  0  0  0  0999 V2000
  189.9290  177.0840  146.8660 C   0  0  0  0  0  0  0  0  0  0  0  0
  188.0870  177.7470  143.6490 C   0  0  0  0  0  0  0  0  0  0  0  0
  186.7550  178.1190  143.9930 C   0  0  0  0  0  0  0  0  0  0  0  0
  184.9810  178.5710  145.6100 C   0  0  0  0  0  0  0  0  0  0  0  0
  189.1090  177.4120  144.5890 C   0  0  0  0  0  0  0  0  0  0  0  0
  191.1870  176.7370  146.3760 C   0  0  0  0  0  3  0  0  0  0  0  0
  186.2960  178.2010  145.3200 C   0  0  0  0  0  3  0  0  0  0  0  0
  189.7040  177.3480  141.8570 C   0  0  0  0  0  0  0  0  0  0  0  0
  189.7020  177.0990  148.2010 F   0  0  0  0  0  0  0  0  0  0  0  0
  186.2370  178.3600  141.6630 N   0  0  0  0  0  0  0  0  0  0  0  0
  184.5560  178.6430  146.9300 O   0  0  0  0  0  1  0  0  0  0  0  0
  190.6490  177.0350  142.7780 N   0  0  0  0  0  0  0  0  0  0  0  0
  188.4140  177.7050  142.2690 C   0  0  0  0  0  0  0  0  0  0  0  0
  190.0210  177.3060  140.4630 N   0  0  0  0  0  2  0  0  0  0  0  0
  188.9030  177.4180  145.9790 C   0  0  0  0  0  3  0  0  0  0  0  0
  184.0950  178.8670  144.5750 C   0  0  0  0  0  3  0  0  0  0  0  0
  190.3950  177.0570  144.1090 C   0  0  0  0  0  0  0  0  0  0  0  0
  191.4190  176.7240  145.0010 C   0  0  0  0  0  3  0  0  0  0  0  0
  187.4780  178.0130  141.3330 N   0  0  0  0  0  0  0  0  0  0  0  0
  185.8410  178.4250  142.9560 C   0  0  0  0  0  0  0  0  0  0  0  0
  184.5250  178.7950  143.2490 C   0  0  0  0  0  3  0  0  0  0  0  0
  192.3060  177.7900  140.5210 O   0  0  0  0  0  1  0  0  0  0  0  0
  191.3420  176.9510  139.9580 C   0  0  2  0  0  3  0  0  0  0  0  0
  190.9360  174.6050  136.7870 C   0  0  1  0  0  3  0  0  0  0  0  0
  190.0530  176.7400  137.7490 C   0  0  0  0  0  2  0  0  0  0  0  0
  193.6290  176.6710  137.7450 O   0  0  0  0  0  0  0  0  0  0  0  0
  190.6670  173.2520  136.5930 O   0  0  0  0  0  1  0  0  0  0  0  0
  189.8050  175.2390  137.5900 C   0  0  0  0  0  2  0  0  0  0  0  0
  192.5090  176.2000  137.8630 C   0  0  0  0  0  0  0  0  0  0  0  0
  191.3970  177.0400  138.4310 C   0  0  2  0  0  3  0  0  0  0  0  0
  192.2650  174.7600  137.5190 C   0  0  0  0  0  2  0  0  0  0  0  0
  1  9  1  0  0  0  0
  2  3  1  0  0  0  0
  2  5  1  0  0  0  0
  3  7  1  0  0  0  0
  4 11  1  0  0  0  0
  5 15  1  0  0  0  0
  6  1  1  0  0  0  0
  7  4  2  0  0  0  0
  8 13  1  0  0  0  0
  8 12  2  0  0  0  0
 10 20  1  0  0  0  0
 12 17  1  0  0  0  0
 13  2  2  0  0  0  0
 14  8  1  0  0  0  0
 15  1  2  0  0  0  0
 16  4  1  0  0  0  0
 17  5  2  0  0  0  0
 17 18  1  0  0  0  0
 18  6  2  0  0  0  0
 19 10  2  0  0  0  0
 19 13  1  0  0  0  0
 20 21  1  0  0  0  0
 20  3  2  0  0  0  0
 21 16  2  0  0  0  0
 23 14  1  0  0  0  0
 23 22  1  1  0  0  0
 24 27  1  1  0  0  0
 24 31  1  0  0  0  0
 24 28  1  0  0  0  0
 25 30  1  0  0  0  0
 26 29  2  0  0  0  0
 28 25  1  0  0  0  0
 29 30  1  0  0  0  0
 30 23  1  1  0  0  0
 31 29  1  0  0  0  0
M  END
>  <MODEL>
1

>  <REMARK>
 VINA RESULT:     -11.5      0.000      0.000
  Name = 
  2 active torsions:
  status: ('A' for Active; 'I' for Inactive)
    1  A    between atoms: C_5  and  N_16
    2  A    between atoms: C_5  and  C_30
                            x       y       z     vdW  Elec       q    Type
                         _______ _______ _______ _____ _____    ______ ____

>  <TORSDO>
F 2

$$$$
=
 OpenBabel11122411053D

 31 35  0  0  1  0  0  0  0  0999 V2000
  189.7340  177.0680  145.5560 C   0  0  0  0  0  0  0  0  0  0  0  0
  187.1580  178.1900  143.0490 C   0  0  0  0  0  0  0  0  0  0  0  0
  185.9530  178.4470  143.7650 C   0  0  0  0  0  0  0  0  0  0  0  0
  184.6340  178.5500  145.8190 C   0  0  0  0  0  0  0  0  0  0  0  0
  188.3780  177.7430  143.6390 C   0  0  0  0  0  0  0  0  0  0  0  0
  190.8310  176.8570  144.7210 C   0  0  0  0  0  3  0  0  0  0  0  0
  185.8360  178.2860  145.1580 C   0  0  0  0  0  3  0  0  0  0  0  0
  188.2820  178.1630  140.8760 C   0  0  0  0  0  0  0  0  0  0  0  0
  189.8430  176.8480  146.8870 F   0  0  0  0  0  0  0  0  0  0  0  0
  184.8780  179.0560  141.7100 N   0  0  0  0  0  0  0  0  0  0  0  0
  184.5490  178.3820  147.1940 O   0  0  0  0  0  1  0  0  0  0  0  0
  189.4230  177.7360  141.4700 N   0  0  0  0  0  0  0  0  0  0  0  0
  187.1340  178.3950  141.6440 C   0  0  0  0  0  0  0  0  0  0  0  0
  188.2450  178.3680  139.4600 N   0  0  0  0  0  2  0  0  0  0  0  0
  188.5220  177.5060  145.0170 C   0  0  0  0  0  3  0  0  0  0  0  0
  183.5210  178.9820  145.0980 C   0  0  0  0  0  3  0  0  0  0  0  0
  189.5050  177.5240  142.8060 C   0  0  0  0  0  0  0  0  0  0  0  0
  190.7170  177.0850  143.3510 C   0  0  0  0  0  3  0  0  0  0  0  0
  185.9980  178.8190  141.0330 N   0  0  0  0  0  0  0  0  0  0  0  0
  184.8130  178.8870  143.0510 C   0  0  0  0  0  0  0  0  0  0  0  0
  183.6110  179.1500  143.7160 C   0  0  0  0  0  3  0  0  0  0  0  0
  189.2600  178.9020  137.4250 O   0  0  0  0  0  1  0  0  0  0  0  0
  189.3990  178.1560  138.5960 C   0  0  2  0  0  3  0  0  0  0  0  0
  191.5570  175.8480  136.2000 C   0  0  1  0  0  3  0  0  0  0  0  0
  190.9620  176.1200  138.6150 C   0  0  0  0  0  2  0  0  0  0  0  0
  188.0570  176.1240  136.5280 O   0  0  0  0  0  0  0  0  0  0  0  0
  192.5430  176.0750  135.2420 O   0  0  0  0  0  1  0  0  0  0  0  0
  192.0040  176.4250  137.5380 C   0  0  0  0  0  2  0  0  0  0  0  0
  189.2120  176.3840  136.8240 C   0  0  0  0  0  0  0  0  0  0  0  0
  189.5740  176.6740  138.2560 C   0  0  2  0  0  3  0  0  0  0  0  0
  190.2510  176.4930  135.7470 C   0  0  0  0  0  2  0  0  0  0  0  0
  1  9  1  0  0  0  0
  2  5  1  0  0  0  0
  2  3  1  0  0  0  0
  3  7  1  0  0  0  0
  4 11  1  0  0  0  0
  5 15  2  0  0  0  0
  6  1  2  0  0  0  0
  7  4  2  0  0  0  0
  8 12  2  0  0  0  0
  8 13  1  0  0  0  0
 10 20  1  0  0  0  0
 12 17  1  0  0  0  0
 13  2  2  0  0  0  0
 14  8  1  0  0  0  0
 15  1  1  0  0  0  0
 16  4  1  0  0  0  0
 17 18  2  0  0  0  0
 17  5  1  0  0  0  0
 18  6  1  0  0  0  0
 19 13  1  0  0  0  0
 19 10  2  0  0  0  0
 20 21  1  0  0  0  0
 20  3  2  0  0  0  0
 21 16  2  0  0  0  0
 23 22  1  6  0  0  0
 23 14  1  0  0  0  0
 24 27  1  6  0  0  0
 24 28  1  0  0  0  0
 26 29  2  0  0  0  0
 28 25  1  0  0  0  0
 29 30  1  0  0  0  0
 30 23  1  6  0  0  0
 30 25  1  0  0  0  0
 31 24  1  0  0  0  0
 31 29  1  0  0  0  0
M  END
>  <MODEL>
2

>  <REMARK>
 VINA RESULT:     -11.3      1.598      2.206
  Name = 
  2 active torsions:
  status: ('A' for Active; 'I' for Inactive)
    1  A    between atoms: C_5  and  N_16
    2  A    between atoms: C_5  and  C_30
                            x       y       z     vdW  Elec       q    Type
                         _______ _______ _______ _____ _____    ______ ____

>  <TORSDO>
F 2

$$$$
=
 OpenBabel11122411053D

 31 35  0  0  1  0  0  0  0  0999 V2000
  189.6340  177.0260  144.6960 C   0  0  0  0  0  0  0  0  0  0  0  0
  186.7760  178.2440  142.5670 C   0  0  0  0  0  0  0  0  0  0  0  0
  185.6740  178.4890  143.4370 C   0  0  0  0  0  0  0  0  0  0  0  0
  184.6260  178.5410  145.6430 C   0  0  0  0  0  0  0  0  0  0  0  0
  188.0560  177.7690  142.9860 C   0  0  0  0  0  0  0  0  0  0  0  0
  190.6140  176.8320  143.7240 C   0  0  0  0  0  3  0  0  0  0  0  0
  185.7310  178.2870  144.8280 C   0  0  0  0  0  3  0  0  0  0  0  0
  187.6180  178.2740  140.2700 C   0  0  0  0  0  0  0  0  0  0  0  0
  189.9070  176.7650  145.9960 F   0  0  0  0  0  0  0  0  0  0  0  0
  184.3560  179.1690  141.5520 N   0  0  0  0  0  0  0  0  0  0  0  0
  184.7120  178.3310  147.0130 O   0  0  0  0  0  1  0  0  0  0  0  0
  188.8200  177.8200  140.7030 N   0  0  0  0  0  0  0  0  0  0  0  0
  186.5790  178.4910  141.1840 C   0  0  0  0  0  0  0  0  0  0  0  0
  187.4050  178.5220  138.8770 N   0  0  0  0  0  2  0  0  0  0  0  0
  188.3690  177.4900  144.3280 C   0  0  0  0  0  3  0  0  0  0  0  0
  183.4360  179.0030  145.0810 C   0  0  0  0  0  3  0  0  0  0  0  0
  189.0660  177.5660  142.0110 C   0  0  0  0  0  0  0  0  0  0  0  0
  190.3310  177.1020  142.3860 C   0  0  0  0  0  3  0  0  0  0  0  0
  185.3800  178.9430  140.7330 N   0  0  0  0  0  0  0  0  0  0  0  0
  184.4580  178.9590  142.8860 C   0  0  0  0  0  0  0  0  0  0  0  0
  183.3530  179.2130  143.7040 C   0  0  0  0  0  3  0  0  0  0  0  0
  189.0560  179.5450  137.5770 O   0  0  0  0  0  1  0  0  0  0  0  0
  188.4390  178.3270  137.8690 C   0  0  2  0  0  3  0  0  0  0  0  0
  188.1010  174.7880  136.1110 C   0  0  1  0  0  3  0  0  0  0  0  0
  186.7070  176.7310  136.8480 C   0  0  0  0  0  2  0  0  0  0  0  0
  189.5260  177.7830  134.9140 O   0  0  0  0  0  0  0  0  0  0  0  0
  188.4960  173.4900  136.4290 O   0  0  0  0  0  1  0  0  0  0  0  0
  187.2060  175.3330  137.2190 C   0  0  0  0  0  2  0  0  0  0  0  0
  188.9340  177.0990  135.7330 C   0  0  0  0  0  0  0  0  0  0  0  0
  187.8610  177.7130  136.5910 C   0  0  2  0  0  3  0  0  0  0  0  0
  189.3350  175.6670  135.9370 C   0  0  0  0  0  2  0  0  0  0  0  0
  1  9  1  0  0  0  0
  2  5  1  0  0  0  0
  2  3  1  0  0  0  0
  3  7  1  0  0  0  0
  4 11  1  0  0  0  0
  5 15  2  0  0  0  0
  6  1  2  0  0  0  0
  7  4  2  0  0  0  0
  8 12  2  0  0  0  0
  8 13  1  0  0  0  0
 10 20  1  0  0  0  0
 12 17  1  0  0  0  0
 13  2  2  0  0  0  0
 14  8  1  0  0  0  0
 15  1  1  0  0  0  0
 16  4  1  0  0  0  0
 17 18  2  0  0  0  0
 17  5  1  0  0  0  0
 18  6  1  0  0  0  0
 19 13  1  0  0  0  0
 19 10  2  0  0  0  0
 20  3  2  0  0  0  0
 20 21  1  0  0  0  0
 21 16  2  0  0  0  0
 23 22  1  6  0  0  0
 23 14  1  0  0  0  0
 24 27  1  1  0  0  0
 24 28  1  0  0  0  0
 25 28  1  0  0  0  0
 26 29  2  0  0  0  0
 29 31  1  0  0  0  0
 29 30  1  0  0  0  0
 30 25  1  0  0  0  0
 30 23  1  1  0  0  0
 31 24  1  0  0  0  0
M  END
>  <MODEL>
3

>  <REMARK>
 VINA RESULT:     -11.1      2.192      2.738
  Name = 
  2 active torsions:
  status: ('A' for Active; 'I' for Inactive)
    1  A    between atoms: C_5  and  N_16
    2  A    between atoms: C_5  and  C_30
                            x       y       z     vdW  Elec       q    Type
                         _______ _______ _______ _____ _____    ______ ____

>  <TORSDO>
F 2

$$$$
=
 OpenBabel11122411053D

 31 35  0  0  1  0  0  0  0  0999 V2000
  184.3440  178.6360  144.8040 C   0  0  0  0  0  0  0  0  0  0  0  0
  187.9380  177.7950  144.0590 C   0  0  0  0  0  0  0  0  0  0  0  0
  188.5880  177.5700  145.3070 C   0  0  0  0  0  0  0  0  0  0  0  0
  188.6070  177.4350  147.7450 C   0  0  0  0  0  0  0  0  0  0  0  0
  186.5610  178.1410  143.9070 C   0  0  0  0  0  0  0  0  0  0  0  0
  183.8510  178.8270  143.5140 C   0  0  0  0  0  3  0  0  0  0  0  0
  187.9290  177.6640  146.5460 C   0  0  0  0  0  3  0  0  0  0  0  0
  188.1520  177.8720  141.6230 C   0  0  0  0  0  0  0  0  0  0  0  0
  183.5220  178.7790  145.8710 F   0  0  0  0  0  0  0  0  0  0  0  0
  190.6390  177.1310  144.1420 N   0  0  0  0  0  0  0  0  0  0  0  0
  187.9310  177.5360  148.9540 O   0  0  0  0  0  1  0  0  0  0  0  0
  186.8410  178.2010  141.5170 N   0  0  0  0  0  0  0  0  0  0  0  0
  188.7240  177.6660  142.8840 C   0  0  0  0  0  0  0  0  0  0  0  0
  188.9550  177.7430  140.4460 N   0  0  0  0  0  2  0  0  0  0  0  0
  185.6850  178.2960  144.9950 C   0  0  0  0  0  3  0  0  0  0  0  0
  189.9620  177.1060  147.7300 C   0  0  0  0  0  3  0  0  0  0  0  0
  186.0410  178.3380  142.6020 C   0  0  0  0  0  0  0  0  0  0  0  0
  184.6970  178.6780  142.4160 C   0  0  0  0  0  3  0  0  0  0  0  0
  190.0400  177.3400  142.9730 N   0  0  0  0  0  0  0  0  0  0  0  0
  189.9630  177.2340  145.3110 C   0  0  0  0  0  0  0  0  0  0  0  0
  190.6390  177.0050  146.5140 C   0  0  0  0  0  3  0  0  0  0  0  0
  187.7470  176.7880  138.6890 O   0  0  0  0  0  1  0  0  0  0  0  0
  188.4300  177.9340  139.1000 C   0  0  2  0  0  3  0  0  0  0  0  0
  189.7260  176.7860  135.5320 C   0  0  1  0  0  3  0  0  0  0  0  0
  189.0400  178.8440  136.7790 C   0  0  0  0  0  2  0  0  0  0  0  0
  191.4190  176.9110  138.6220 O   0  0  0  0  0  0  0  0  0  0  0  0
  189.3170  175.8390  134.5960 O   0  0  0  0  0  1  0  0  0  0  0  0
  188.5820  177.7570  135.8060 C   0  0  0  0  0  2  0  0  0  0  0  0
  190.4610  177.0860  137.8870 C   0  0  0  0  0  0  0  0  0  0  0  0
  189.5480  178.2620  138.1070 C   0  0  2  0  0  3  0  0  0  0  0  0
  190.1500  176.0810  136.8170 C   0  0  0  0  0  2  0  0  0  0  0  0
  1 15  1  0  0  0  0
  1  9  1  0  0  0  0
  2  3  1  0  0  0  0
  3 20  2  0  0  0  0
  3  7  1  0  0  0  0
  4 11  1  0  0  0  0
  5  2  1  0  0  0  0
  5 15  2  0  0  0  0
  6  1  2  0  0  0  0
  7  4  2  0  0  0  0
  8 13  1  0  0  0  0
 10 20  1  0  0  0  0
 12  8  2  0  0  0  0
 12 17  1  0  0  0  0
 13 19  1  0  0  0  0
 13  2  2  0  0  0  0
 14  8  1  0  0  0  0
 16  4  1  0  0  0  0
 17  5  1  0  0  0  0
 18 17  2  0  0  0  0
 18  6  1  0  0  0  0
 19 10  2  0  0  0  0
 20 21  1  0  0  0  0
 21 16  2  0  0  0  0
 23 22  1  6  0  0  0
 23 14  1  0  0  0  0
 24 27  1  6  0  0  0
 24 28  1  0  0  0  0
 24 31  1  0  0  0  0
 25 30  1  0  0  0  0
 28 25  1  0  0  0  0
 29 30  1  0  0  0  0
 29 26  2  0  0  0  0
 30 23  1  1  0  0  0
 31 29  1  0  0  0  0
M  END
>  <MODEL>
4

>  <REMARK>
 VINA RESULT:     -10.9      2.192      4.293
  Name = 
  2 active torsions:
  status: ('A' for Active; 'I' for Inactive)
    1  A    between atoms: C_5  and  N_16
    2  A    between atoms: C_5  and  C_30
                            x       y       z     vdW  Elec       q    Type
                         _______ _______ _______ _____ _____    ______ ____

>  <TORSDO>
F 2

$$$$
=
 OpenBabel11122411053D

 31 35  0  0  1  0  0  0  0  0999 V2000
  190.4890  177.4510  141.0320 C   0  0  0  0  0  0  0  0  0  0  0  0
  187.1770  178.1020  142.7010 C   0  0  0  0  0  0  0  0  0  0  0  0
  187.3530  177.8730  144.0970 C   0  0  0  0  0  0  0  0  0  0  0  0
  188.7060  177.2660  146.0380 C   0  0  0  0  0  0  0  0  0  0  0  0
  188.2000  177.9620  141.7150 C   0  0  0  0  0  0  0  0  0  0  0  0
  190.1620  177.7080  139.7010 C   0  0  0  0  0  3  0  0  0  0  0  0
  188.5790  177.4790  144.6630 C   0  0  0  0  0  3  0  0  0  0  0  0
  185.6380  178.7400  140.9090 C   0  0  0  0  0  0  0  0  0  0  0  0
  191.7490  177.0790  141.3600 F   0  0  0  0  0  0  0  0  0  0  0  0
  185.0490  178.4280  144.4640 N   0  0  0  0  0  0  0  0  0  0  0  0
  189.9280  176.8760  146.5680 O   0  0  0  0  0  1  0  0  0  0  0  0
  186.6340  178.5940  140.0000 N   0  0  0  0  0  0  0  0  0  0  0  0
  185.8850  178.4970  142.2660 C   0  0  0  0  0  0  0  0  0  0  0  0
  184.3300  179.1330  140.4820 N   0  0  0  0  0  2  0  0  0  0  0  0
  189.5160  177.5770  142.0260 C   0  0  0  0  0  3  0  0  0  0  0  0
  187.6060  177.4430  146.8760 C   0  0  0  0  0  3  0  0  0  0  0  0
  187.8870  178.2200  140.3570 C   0  0  0  0  0  0  0  0  0  0  0  0
  188.8650  178.0920  139.3650 C   0  0  0  0  0  3  0  0  0  0  0  0
  184.8750  178.6440  143.1630 N   0  0  0  0  0  0  0  0  0  0  0  0
  186.2480  178.0490  144.9640 C   0  0  0  0  0  0  0  0  0  0  0  0
  186.3790  177.8350  146.3400 C   0  0  0  0  0  3  0  0  0  0  0  0
  184.1710  180.7700  138.8220 O   0  0  0  0  0  1  0  0  0  0  0  0
  183.9990  179.4110  139.0900 C   0  0  2  0  0  3  0  0  0  0  0  0
  180.2830  180.2980  140.1520 C   0  0  1  0  0  3  0  0  0  0  0  0
  181.7270  180.1050  138.1180 C   0  0  0  0  0  2  0  0  0  0  0  0
  181.9710  177.2030  140.1940 O   0  0  0  0  0  0  0  0  0  0  0  0
  179.7040  181.1910  141.0510 O   0  0  0  0  0  1  0  0  0  0  0  0
  181.1430  181.0660  139.1540 C   0  0  0  0  0  2  0  0  0  0  0  0
  181.8710  178.3960  139.9620 C   0  0  0  0  0  0  0  0  0  0  0  0
  182.5640  178.9890  138.7650 C   0  0  2  0  0  3  0  0  0  0  0  0
  181.1260  179.2820  140.9170 C   0  0  0  0  0  2  0  0  0  0  0  0
  1  9  1  0  0  0  0
  1 15  1  0  0  0  0
  2  3  1  0  0  0  0
  3  7  2  0  0  0  0
  3 20  1  0  0  0  0
  4 11  1  0  0  0  0
  4 16  2  0  0  0  0
  5 15  2  0  0  0  0
  5  2  1  0  0  0  0
  6  1  2  0  0  0  0
  7  4  1  0  0  0  0
  8 13  1  0  0  0  0
 10 20  1  0  0  0  0
 12 17  1  0  0  0  0
 12  8  2  0  0  0  0
 13  2  2  0  0  0  0
 13 19  1  0  0  0  0
 14  8  1  0  0  0  0
 17  5  1  0  0  0  0
 18  6  1  0  0  0  0
 18 17  2  0  0  0  0
 19 10  2  0  0  0  0
 20 21  2  0  0  0  0
 21 16  1  0  0  0  0
 23 22  1  1  0  0  0
 23 14  1  0  0  0  0
 24 31  1  0  0  0  0
 24 27  1  1  0  0  0
 25 30  1  0  0  0  0
 25 28  1  0  0  0  0
 28 24  1  0  0  0  0
 29 26  2  0  0  0  0
 29 31  1  0  0  0  0
 30 23  1  1  0  0  0
 30 29  1  0  0  0  0
M  END
>  <MODEL>
5

>  <REMARK>
 VINA RESULT:     -10.6      3.998      7.219
  Name = 
  2 active torsions:
  status: ('A' for Active; 'I' for Inactive)
    1  A    between atoms: C_5  and  N_16
    2  A    between atoms: C_5  and  C_30
                            x       y       z     vdW  Elec       q    Type
                         _______ _______ _______ _____ _____    ______ ____

>  <TORSDO>
F 2

$$$$
=
 OpenBabel11122411053D

 31 35  0  0  1  0  0  0  0  0999 V2000
  190.7070  177.4300  140.9490 C   0  0  0  0  0  0  0  0  0  0  0  0
  187.4900  177.9810  142.8270 C   0  0  0  0  0  0  0  0  0  0  0  0
  187.7640  177.7690  144.2090 C   0  0  0  0  0  0  0  0  0  0  0  0
  189.2600  177.2240  146.0610 C   0  0  0  0  0  0  0  0  0  0  0  0
  188.4510  177.8680  141.7770 C   0  0  0  0  0  0  0  0  0  0  0  0
  190.2850  177.6650  139.6410 C   0  0  0  0  0  3  0  0  0  0  0  0
  189.0370  177.4210  144.6970 C   0  0  0  0  0  3  0  0  0  0  0  0
  185.8160  178.5510  141.1360 C   0  0  0  0  0  0  0  0  0  0  0  0
  191.9970  177.1040  141.1960 F   0  0  0  0  0  0  0  0  0  0  0  0
  185.4710  178.2480  144.7230 N   0  0  0  0  0  0  0  0  0  0  0  0
  190.5280  176.8810  146.5130 O   0  0  0  0  0  1  0  0  0  0  0  0
  186.7550  178.4330  140.1640 N   0  0  0  0  0  0  0  0  0  0  0  0
  186.1590  178.3280  142.4750 C   0  0  0  0  0  0  0  0  0  0  0  0
  184.4710  178.8960  140.7920 N   0  0  0  0  0  2  0  0  0  0  0  0
  189.7970  177.5310  142.0040 C   0  0  0  0  0  3  0  0  0  0  0  0
  188.2120  177.3700  146.9690 C   0  0  0  0  0  3  0  0  0  0  0  0
  188.0410  178.1050  140.4400 C   0  0  0  0  0  0  0  0  0  0  0  0
  188.9560  178.0020  139.3880 C   0  0  0  0  0  3  0  0  0  0  0  0
  185.2050  178.4470  143.4350 N   0  0  0  0  0  0  0  0  0  0  0  0
  186.7130  177.9140  145.1460 C   0  0  0  0  0  0  0  0  0  0  0  0
  186.9400  177.7160  146.5110 C   0  0  0  0  0  3  0  0  0  0  0  0
  184.1780  180.5090  139.1270 O   0  0  0  0  0  1  0  0  0  0  0  0
  184.0400  179.1510  139.4240 C   0  0  2  0  0  3  0  0  0  0  0  0
  182.0080  175.9890  138.1580 C   0  0  1  0  0  3  0  0  0  0  0  0
  182.1580  177.5470  140.1110 C   0  0  0  0  0  2  0  0  0  0  0  0
  181.9500  179.3240  137.0130 O   0  0  0  0  0  0  0  0  0  0  0  0
  182.3520  174.7230  137.6890 O   0  0  0  0  0  1  0  0  0  0  0  0
  182.5870  176.1890  139.5550 C   0  0  0  0  0  2  0  0  0  0  0  0
  182.3080  178.4230  137.7550 C   0  0  0  0  0  0  0  0  0  0  0  0
  182.5910  178.7110  139.2050 C   0  0  2  0  0  3  0  0  0  0  0  0
  182.5420  177.0490  137.2000 C   0  0  0  0  0  2  0  0  0  0  0  0
  1  9  1  0  0  0  0
  1 15  1  0  0  0  0
  2  3  1  0  0  0  0
  3  7  2  0  0  0  0
  3 20  1  0  0  0  0
  4 11  1  0  0  0  0
  4 16  2  0  0  0  0
  5 15  2  0  0  0  0
  5  2  1  0  0  0  0
  6  1  2  0  0  0  0
  7  4  1  0  0  0  0
  8 13  1  0  0  0  0
 10 20  1  0  0  0  0
 12 17  1  0  0  0  0
 12  8  2  0  0  0  0
 13  2  2  0  0  0  0
 13 19  1  0  0  0  0
 14  8  1  0  0  0  0
 17  5  1  0  0  0  0
 18  6  1  0  0  0  0
 18 17  2  0  0  0  0
 19 10  2  0  0  0  0
 20 21  2  0  0  0  0
 21 16  1  0  0  0  0
 23 22  1  1  0  0  0
 23 14  1  0  0  0  0
 24 27  1  6  0  0  0
 24 28  1  0  0  0  0
 26 29  2  0  0  0  0
 28 25  1  0  0  0  0
 29 30  1  0  0  0  0
 30 23  1  6  0  0  0
 30 25  1  0  0  0  0
 31 29  1  0  0  0  0
 31 24  1  0  0  0  0
M  END
>  <MODEL>
6

>  <REMARK>
 VINA RESULT:     -10.6      4.301      6.448
  Name = 
  2 active torsions:
  status: ('A' for Active; 'I' for Inactive)
    1  A    between atoms: C_5  and  N_16
    2  A    between atoms: C_5  and  C_30
                            x       y       z     vdW  Elec       q    Type
                         _______ _______ _______ _____ _____    ______ ____

>  <TORSDO>
F 2

$$$$
=
 OpenBabel11122411053D

 31 35  0  0  1  0  0  0  0  0999 V2000
  184.7500  178.5360  145.3790 C   0  0  0  0  0  0  0  0  0  0  0  0
  187.7930  177.8760  143.2610 C   0  0  0  0  0  0  0  0  0  0  0  0
  188.8590  177.5380  144.1440 C   0  0  0  0  0  0  0  0  0  0  0  0
  189.7860  177.1470  146.3690 C   0  0  0  0  0  0  0  0  0  0  0  0
  186.4640  178.1980  143.6720 C   0  0  0  0  0  0  0  0  0  0  0  0
  183.8140  178.8490  144.3950 C   0  0  0  0  0  3  0  0  0  0  0  0
  188.7130  177.4830  145.5420 C   0  0  0  0  0  3  0  0  0  0  0  0
  187.0820  178.2160  140.9440 C   0  0  0  0  0  0  0  0  0  0  0  0
  184.3890  178.5430  146.6840 F   0  0  0  0  0  0  0  0  0  0  0  0
  190.3190  177.2810  142.2590 N   0  0  0  0  0  0  0  0  0  0  0  0
  189.6120  177.1010  147.7460 O   0  0  0  0  0  1  0  0  0  0  0  0
  185.8310  178.5190  141.3710 N   0  0  0  0  0  0  0  0  0  0  0  0
  188.0810  177.8930  141.8710 C   0  0  0  0  0  0  0  0  0  0  0  0
  187.3860  178.2340  139.5460 N   0  0  0  0  0  2  0  0  0  0  0  0
  186.0610  178.2140  145.0180 C   0  0  0  0  0  3  0  0  0  0  0  0
  191.0320  176.8580  145.8140 C   0  0  0  0  0  3  0  0  0  0  0  0
  185.4970  178.5190  142.6840 C   0  0  0  0  0  0  0  0  0  0  0  0
  184.1860  178.8400  143.0510 C   0  0  0  0  0  3  0  0  0  0  0  0
  189.3300  177.5950  141.4270 N   0  0  0  0  0  0  0  0  0  0  0  0
  190.1310  177.2410  143.5990 C   0  0  0  0  0  0  0  0  0  0  0  0
  191.2040  176.9040  144.4300 C   0  0  0  0  0  3  0  0  0  0  0  0
  185.3750  177.6010  138.5370 O   0  0  0  0  0  1  0  0  0  0  0  0
  186.3980  178.5520  138.5230 C   0  0  2  0  0  3  0  0  0  0  0  0
  188.9240  176.4830  136.2710 C   0  0  1  0  0  3  0  0  0  0  0  0
  186.6190  177.4570  136.2120 C   0  0  0  0  0  2  0  0  0  0  0  0
  189.0420  179.8560  137.2910 O   0  0  0  0  0  0  0  0  0  0  0  0
  189.6540  175.3080  136.4380 O   0  0  0  0  0  1  0  0  0  0  0  0
  187.4390  176.1900  136.4630 C   0  0  0  0  0  2  0  0  0  0  0  0
  188.5340  178.7490  137.2130 C   0  0  0  0  0  0  0  0  0  0  0  0
  187.0370  178.6140  137.1330 C   0  0  2  0  0  3  0  0  0  0  0  0
  189.3990  177.5250  137.2780 C   0  0  0  0  0  2  0  0  0  0  0  0
  1  9  1  0  0  0  0
  2  5  1  0  0  0  0
  2  3  1  0  0  0  0
  3  7  1  0  0  0  0
  4 11  1  0  0  0  0
  5 15  2  0  0  0  0
  6  1  2  0  0  0  0
  7  4  2  0  0  0  0
  8 12  2  0  0  0  0
  8 13  1  0  0  0  0
 10 20  1  0  0  0  0
 12 17  1  0  0  0  0
 13  2  2  0  0  0  0
 14  8  1  0  0  0  0
 15  1  1  0  0  0  0
 16  4  1  0  0  0  0
 17 18  2  0  0  0  0
 17  5  1  0  0  0  0
 18  6  1  0  0  0  0
 19 13  1  0  0  0  0
 19 10  2  0  0  0  0
 20  3  2  0  0  0  0
 20 21  1  0  0  0  0
 21 16  2  0  0  0  0
 23 22  1  6  0  0  0
 23 14  1  0  0  0  0
 24 27  1  1  0  0  0
 24 28  1  0  0  0  0
 24 31  1  0  0  0  0
 25 28  1  0  0  0  0
 25 30  1  0  0  0  0
 29 31  1  0  0  0  0
 29 26  2  0  0  0  0
 30 29  1  0  0  0  0
 30 23  1  1  0  0  0
M  END
>  <MODEL>
7

>  <REMARK>
 VINA RESULT:     -10.5      2.659      4.749
  Name = 
  2 active torsions:
  status: ('A' for Active; 'I' for Inactive)
    1  A    between atoms: C_5  and  N_16
    2  A    between atoms: C_5  and  C_30
                            x       y       z     vdW  Elec       q    Type
                         _______ _______ _______ _____ _____    ______ ____

>  <TORSDO>
F 2

$$$$
=
 OpenBabel11122411053D

 31 35  0  0  1  0  0  0  0  0999 V2000
  184.8140  178.4810  145.9390 C   0  0  0  0  0  0  0  0  0  0  0  0
  187.3290  178.0130  143.1760 C   0  0  0  0  0  0  0  0  0  0  0  0
  188.5580  177.6240  143.7830 C   0  0  0  0  0  0  0  0  0  0  0  0
  189.9390  177.0820  145.7240 C   0  0  0  0  0  0  0  0  0  0  0  0
  186.1200  178.2890  143.8840 C   0  0  0  0  0  0  0  0  0  0  0  0
  183.6890  178.8540  145.2030 C   0  0  0  0  0  3  0  0  0  0  0  0
  188.7140  177.4650  145.1720 C   0  0  0  0  0  3  0  0  0  0  0  0
  186.1400  178.5130  141.0960 C   0  0  0  0  0  0  0  0  0  0  0  0
  184.7410  178.3890  147.2880 F   0  0  0  0  0  0  0  0  0  0  0  0
  189.5800  177.5220  141.6160 N   0  0  0  0  0  0  0  0  0  0  0  0
  190.0630  176.9340  147.0990 O   0  0  0  0  0  1  0  0  0  0  0  0
  185.0110  178.7700  141.8020 N   0  0  0  0  0  0  0  0  0  0  0  0
  187.3130  178.1350  141.7620 C   0  0  0  0  0  0  0  0  0  0  0  0
  186.1380  178.6370  139.6710 N   0  0  0  0  0  2  0  0  0  0  0  0
  186.0150  178.2020  145.2830 C   0  0  0  0  0  3  0  0  0  0  0  0
  191.0360  176.8490  144.8950 C   0  0  0  0  0  3  0  0  0  0  0  0
  184.9660  178.6700  143.1530 C   0  0  0  0  0  0  0  0  0  0  0  0
  183.7660  178.9480  143.8140 C   0  0  0  0  0  3  0  0  0  0  0  0
  188.4370  177.8850  141.0400 N   0  0  0  0  0  0  0  0  0  0  0  0
  189.6830  177.3820  142.9580 C   0  0  0  0  0  0  0  0  0  0  0  0
  190.9070  176.9980  143.5140 C   0  0  0  0  0  3  0  0  0  0  0  0
  184.4700  180.2440  139.3650 O   0  0  0  0  0  1  0  0  0  0  0  0
  184.9560  179.0170  138.9090 C   0  0  2  0  0  3  0  0  0  0  0  0
  181.8600  177.6720  136.8270 C   0  0  1  0  0  3  0  0  0  0  0  0
  183.9600  176.8660  137.9230 C   0  0  0  0  0  2  0  0  0  0  0  0
  182.0080  178.8890  140.1330 O   0  0  0  0  0  0  0  0  0  0  0  0
  181.2730  178.0080  135.6090 O   0  0  0  0  0  1  0  0  0  0  0  0
  183.3230  177.3060  136.6040 C   0  0  0  0  0  2  0  0  0  0  0  0
  182.4880  178.5630  139.0600 C   0  0  0  0  0  0  0  0  0  0  0  0
  183.8620  177.9500  139.0080 C   0  0  2  0  0  3  0  0  0  0  0  0
  181.7420  178.8490  137.7910 C   0  0  0  0  0  2  0  0  0  0  0  0
  1  9  1  0  0  0  0
  2  3  1  0  0  0  0
  2  5  1  0  0  0  0
  3  7  1  0  0  0  0
  4 11  1  0  0  0  0
  5 15  2  0  0  0  0
  6  1  2  0  0  0  0
  7  4  2  0  0  0  0
  8 13  1  0  0  0  0
  8 12  2  0  0  0  0
 10 20  1  0  0  0  0
 12 17  1  0  0  0  0
 13  2  2  0  0  0  0
 14  8  1  0  0  0  0
 15  1  1  0  0  0  0
 16  4  1  0  0  0  0
 17 18  2  0  0  0  0
 17  5  1  0  0  0  0
 18  6  1  0  0  0  0
 19 10  2  0  0  0  0
 19 13  1  0  0  0  0
 20 21  1  0  0  0  0
 20  3  2  0  0  0  0
 21 16  2  0  0  0  0
 23 22  1  1  0  0  0
 23 14  1  0  0  0  0
 24 27  1  6  0  0  0
 24 31  1  0  0  0  0
 25 30  1  0  0  0  0
 28 24  1  0  0  0  0
 28 25  1  0  0  0  0
 29 26  2  0  0  0  0
 30 23  1  6  0  0  0
 30 29  1  0  0  0  0
 31 29  1  0  0  0  0
M  END
>  <MODEL>
8

>  <REMARK>
 VINA RESULT:     -10.5      4.173      6.582
  Name = 
  2 active torsions:
  status: ('A' for Active; 'I' for Inactive)
    1  A    between atoms: C_5  and  N_16
    2  A    between atoms: C_5  and  C_30
                            x       y       z     vdW  Elec       q    Type
                         _______ _______ _______ _____ _____    ______ ____

>  <TORSDO>
F 2

$$$$
=
 OpenBabel11122411053D

 31 35  0  0  1  0  0  0  0  0999 V2000
  186.7590  178.1730  147.3650 C   0  0  0  0  0  0  0  0  0  0  0  0
  188.0500  177.6400  143.8680 C   0  0  0  0  0  0  0  0  0  0  0  0
  189.3900  177.1670  143.9790 C   0  0  0  0  0  0  0  0  0  0  0  0
  191.3510  176.4980  145.2720 C   0  0  0  0  0  0  0  0  0  0  0  0
  187.2050  177.9640  144.9730 C   0  0  0  0  0  0  0  0  0  0  0  0
  185.4680  178.6270  147.0970 C   0  0  0  0  0  3  0  0  0  0  0  0
  190.0350  176.9630  145.2120 C   0  0  0  0  0  3  0  0  0  0  0  0
  186.2140  178.2600  142.3750 C   0  0  0  0  0  0  0  0  0  0  0  0
  187.1810  178.0490  148.6460 F   0  0  0  0  0  0  0  0  0  0  0  0
  189.5360  177.0670  141.5870 N   0  0  0  0  0  0  0  0  0  0  0  0
  191.9620  176.3070  146.5040 O   0  0  0  0  0  1  0  0  0  0  0  0
  185.4410  178.5600  143.4480 N   0  0  0  0  0  0  0  0  0  0  0  0
  187.5230  177.8000  142.5600 C   0  0  0  0  0  0  0  0  0  0  0  0
  185.6950  178.4210  141.0510 N   0  0  0  0  0  2  0  0  0  0  0  0
  187.6160  177.8450  146.3120 C   0  0  0  0  0  3  0  0  0  0  0  0
  192.0500  176.2270  144.0970 C   0  0  0  0  0  3  0  0  0  0  0  0
  185.8890  178.4270  144.7200 C   0  0  0  0  0  0  0  0  0  0  0  0
  185.0350  178.7530  145.7780 C   0  0  0  0  0  3  0  0  0  0  0  0
  188.2860  177.5080  141.4740 N   0  0  0  0  0  0  0  0  0  0  0  0
  190.1160  176.8860  142.7960 C   0  0  0  0  0  0  0  0  0  0  0  0
  191.4330  176.4200  142.8600 C   0  0  0  0  0  3  0  0  0  0  0  0
  183.4310  177.8500  140.9890 O   0  0  0  0  0  1  0  0  0  0  0  0
  184.3410  178.8870  140.7790 C   0  0  2  0  0  3  0  0  0  0  0  0
  182.6980  177.8570  137.3200 C   0  0  1  0  0  3  0  0  0  0  0  0
  182.7670  179.7560  138.9480 C   0  0  0  0  0  2  0  0  0  0  0  0
  186.0520  178.6260  138.0930 O   0  0  0  0  0  0  0  0  0  0  0  0
  181.9450  176.7730  136.8730 O   0  0  0  0  0  1  0  0  0  0  0  0
  181.9870  178.5220  138.4930 C   0  0  0  0  0  2  0  0  0  0  0  0
  184.8660  178.4990  138.3520 C   0  0  0  0  0  0  0  0  0  0  0  0
  184.2120  179.4170  139.3490 C   0  0  2  0  0  3  0  0  0  0  0  0
  184.0850  177.3750  137.7370 C   0  0  0  0  0  2  0  0  0  0  0  0
  1  9  1  0  0  0  0
  2  3  1  0  0  0  0
  2  5  1  0  0  0  0
  3  7  1  0  0  0  0
  4 11  1  0  0  0  0
  5 15  1  0  0  0  0
  6  1  1  0  0  0  0
  7  4  2  0  0  0  0
  8 13  1  0  0  0  0
  8 12  2  0  0  0  0
 10 20  1  0  0  0  0
 12 17  1  0  0  0  0
 13  2  2  0  0  0  0
 14  8  1  0  0  0  0
 15  1  2  0  0  0  0
 16  4  1  0  0  0  0
 17  5  2  0  0  0  0
 17 18  1  0  0  0  0
 18  6  2  0  0  0  0
 19 10  2  0  0  0  0
 19 13  1  0  0  0  0
 20 21  1  0  0  0  0
 20  3  2  0  0  0  0
 21 16  2  0  0  0  0
 23 22  1  6  0  0  0
 23 14  1  0  0  0  0
 24 27  1  1  0  0  0
 24 31  1  0  0  0  0
 24 28  1  0  0  0  0
 25 30  1  0  0  0  0
 26 29  2  0  0  0  0
 28 25  1  0  0  0  0
 29 30  1  0  0  0  0
 30 23  1  1  0  0  0
 31 29  1  0  0  0  0
M  END
>  <MODEL>
9

>  <REMARK>
 VINA RESULT:     -10.3      3.637      6.155
  Name = 
  2 active torsions:
  status: ('A' for Active; 'I' for Inactive)
    1  A    between atoms: C_5  and  N_16
    2  A    between atoms: C_5  and  C_30
                            x       y       z     vdW  Elec       q    Type
                         _______ _______ _______ _____ _____    ______ ____

>  <TORSDO>
F 2

$$$$
