=
 OpenBabel11122410253D

 30 35  0  0  1  0  0  0  0  0999 V2000
  189.0120  177.4620  143.5320 C   0  0  1  0  0  3  0  0  0  0  0  0
  191.2090  177.3540  144.9860 C   0  0  0  0  0  0  0  0  0  0  0  0
  186.9080  177.7420  147.0310 N   0  0  0  0  0  2  0  0  0  0  0  0
  187.6190  178.0980  143.6850 C   0  0  1  0  0  3  0  0  0  0  0  0
  189.7870  178.2220  142.6270 O   0  0  0  0  0  0  0  0  0  0  0  0
  187.3210  178.5360  139.9620 O   0  0  0  0  0  1  0  0  0  0  0  0
  184.4330  178.0890  142.8650 C   0  0  1  0  0  3  0  0  0  0  0  0
  187.8630  178.7170  141.2360 C   0  0  2  0  0  3  0  0  0  0  0  0
  184.3250  178.0110  144.3910 C   0  0  2  0  0  3  0  0  0  0  0  0
  185.7680  178.3450  146.4660 C   0  0  0  0  0  0  0  0  0  0  0  0
  189.2580  178.0880  141.3230 C   0  0  2  0  0  3  0  0  0  0  0  0
  186.9290  178.1450  142.3060 C   0  0  2  0  0  3  0  0  0  0  0  0
  191.8100  177.0140  146.1280 C   0  0  0  0  0  3  0  0  0  0  0  0
  183.3680  179.1220  144.7720 C   0  0  0  0  0  2  0  0  0  0  0  0
  183.1150  178.6830  142.3920 C   0  0  0  0  0  2  0  0  0  0  0  0
  192.0280  177.7920  143.9080 N   0  0  0  0  0  1  0  0  0  0  0  0
  187.5010  176.9310  145.9790 C   0  0  1  0  0  3  0  0  0  0  0  0
  191.0290  176.4680  147.2810 C   0  0  0  0  0  2  0  0  0  0  0  0
  189.7160  177.3100  144.8680 C   0  0  0  0  0  0  0  0  0  0  0  0
  186.7620  177.2950  144.6640 C   0  0  1  0  0  3  0  0  0  0  0  0
  184.9590  179.0290  147.1480 O   0  0  0  0  0  0  0  0  0  0  0  0
  185.6190  178.1070  145.0750 N   0  0  0  0  0  0  0  0  0  0  0  0
  182.3880  179.2030  143.6230 C   0  0  0  0  0  2  0  0  0  0  0  0
  185.7210  180.3300  142.8910 C   0  0  0  0  0  1  0  0  0  0  0  0
  189.6600  176.8600  147.2050 O   0  0  0  0  0  0  0  0  0  0  0  0
  189.0000  177.0500  145.9830 C   0  0  0  0  0  0  0  0  0  0  0  0
  185.6040  178.9200  142.3120 C   0  0  2  0  0  3  0  0  0  0  0  0
  189.3190  176.6500  140.7960 C   0  0  0  0  0  2  0  0  0  0  0  0
  191.4980  177.2890  140.0950 O   0  0  0  0  0  1  0  0  0  0  0  0
  190.3890  176.5290  139.7290 C   0  0  0  0  0  2  0  0  0  0  0  0
  1  5  1  6  0  0  0
  1  4  1  0  0  0  0
  1 19  1  0  0  0  0
  2 13  2  0  0  0  0
  4 20  1  0  0  0  0
  6  8  1  0  0  0  0
  7  9  1  0  0  0  0
  8 11  1  0  0  0  0
  8 12  1  0  0  0  0
  9 14  1  0  0  0  0
  9 22  1  0  0  0  0
 10  3  1  0  0  0  0
 10 21  2  0  0  0  0
 11  5  1  0  0  0  0
 12 27  1  0  0  0  0
 12  4  1  0  0  0  0
 13 18  1  0  0  0  0
 15  7  1  0  0  0  0
 15 23  1  0  0  0  0
 16  2  1  0  0  0  0
 17 26  1  0  0  0  0
 17  3  1  0  0  0  0
 19  2  1  0  0  0  0
 19 26  2  0  0  0  0
 20 22  1  0  0  0  0
 20 17  1  0  0  0  0
 22 10  1  0  0  0  0
 23 14  1  0  0  0  0
 25 18  1  0  0  0  0
 26 25  1  0  0  0  0
 27  7  1  0  0  0  0
 27 24  1  0  0  0  0
 28 11  1  0  0  0  0
 30 29  1  0  0  0  0
 30 28  1  0  0  0  0
M  END
>  <MODEL>
1

>  <REMARK>
 VINA RESULT:      -8.9      0.000      0.000
  Name = 
  2 active torsions:
  status: ('A' for Active; 'I' for Inactive)
    1  A    between atoms: C_11  and  C_28
    2  A    between atoms: C_28  and  C_30
                            x       y       z     vdW  Elec       q    Type
                         _______ _______ _______ _____ _____    ______ ____

>  <TORSDO>
F 2

$$$$
=
 OpenBabel11122410253D

 30 35  0  0  1  0  0  0  0  0999 V2000
  187.2340  178.2260  140.1000 C   0  0  1  0  0  3  0  0  0  0  0  0
  184.8610  178.1580  138.9540 C   0  0  0  0  0  0  0  0  0  0  0  0
  185.3070  178.2610  143.7090 N   0  0  0  0  0  2  0  0  0  0  0  0
  187.8300  177.7370  141.4320 C   0  0  1  0  0  3  0  0  0  0  0  0
  187.6360  177.3670  139.0530 O   0  0  0  0  0  0  0  0  0  0  0  0
  191.1940  177.2210  139.8320 O   0  0  0  0  0  1  0  0  0  0  0  0
  190.1600  178.0400  143.7350 C   0  0  1  0  0  3  0  0  0  0  0  0
  189.8260  177.0250  140.0370 C   0  0  2  0  0  3  0  0  0  0  0  0
  188.9010  178.1740  144.5970 C   0  0  2  0  0  3  0  0  0  0  0  0
  186.3890  177.7580  144.4560 C   0  0  0  0  0  0  0  0  0  0  0  0
  189.0240  177.5150  138.8270 C   0  0  2  0  0  3  0  0  0  0  0  0
  189.3690  177.7190  141.3230 C   0  0  2  0  0  3  0  0  0  0  0  0
  183.5640  178.4700  138.9870 C   0  0  0  0  0  3  0  0  0  0  0  0
  189.0890  177.1750  145.7210 C   0  0  0  0  0  2  0  0  0  0  0  0
  191.2540  177.5670  144.6790 C   0  0  0  0  0  2  0  0  0  0  0  0
  185.3820  177.6080  137.7480 N   0  0  0  0  0  1  0  0  0  0  0  0
  185.8880  178.9780  142.5850 C   0  0  1  0  0  3  0  0  0  0  0  0
  182.9570  179.1250  140.1880 C   0  0  0  0  0  2  0  0  0  0  0  0
  185.7220  178.3470  140.1640 C   0  0  0  0  0  0  0  0  0  0  0  0
  187.4050  178.6500  142.5820 C   0  0  1  0  0  3  0  0  0  0  0  0
  186.2330  177.1790  145.5640 O   0  0  0  0  0  0  0  0  0  0  0  0
  187.6550  177.9690  143.8500 N   0  0  0  0  0  0  0  0  0  0  0  0
  190.5800  177.1590  145.9810 C   0  0  0  0  0  2  0  0  0  0  0  0
  189.5380  175.6840  142.8740 C   0  0  0  0  0  1  0  0  0  0  0  0
  183.7310  178.8690  141.3580 O   0  0  0  0  0  0  0  0  0  0  0  0
  185.1230  178.7100  141.3180 C   0  0  0  0  0  0  0  0  0  0  0  0
  190.0590  177.0800  142.5360 C   0  0  2  0  0  3  0  0  0  0  0  0
  189.4100  178.9230  138.3610 C   0  0  0  0  0  2  0  0  0  0  0  0
  187.7400  179.7340  136.8760 O   0  0  0  0  0  1  0  0  0  0  0  0
  188.9940  179.1280  136.9170 C   0  0  0  0  0  2  0  0  0  0  0  0
  1  5  1  6  0  0  0
  1 19  1  0  0  0  0
  1  4  1  0  0  0  0
  2 13  2  0  0  0  0
  2 19  1  0  0  0  0
  3 10  1  0  0  0  0
  4 20  1  0  0  0  0
  6  8  1  0  0  0  0
  7  9  1  0  0  0  0
  7 15  1  0  0  0  0
  8 12  1  0  0  0  0
  9 14  1  0  0  0  0
 10 21  2  0  0  0  0
 11  5  1  0  0  0  0
 11  8  1  0  0  0  0
 12  4  1  0  0  0  0
 12 27  1  0  0  0  0
 13 18  1  0  0  0  0
 14 23  1  0  0  0  0
 15 23  1  0  0  0  0
 16  2  1  0  0  0  0
 17  3  1  0  0  0  0
 18 25  1  0  0  0  0
 19 26  2  0  0  0  0
 20 17  1  0  0  0  0
 20 22  1  0  0  0  0
 22 10  1  0  0  0  0
 22  9  1  0  0  0  0
 26 25  1  0  0  0  0
 26 17  1  0  0  0  0
 27 24  1  0  0  0  0
 27  7  1  0  0  0  0
 28 11  1  0  0  0  0
 29 30  1  0  0  0  0
 30 28  1  0  0  0  0
M  END
>  <MODEL>
2

>  <REMARK>
 VINA RESULT:      -8.1      2.435      5.912
  Name = 
  2 active torsions:
  status: ('A' for Active; 'I' for Inactive)
    1  A    between atoms: C_11  and  C_28
    2  A    between atoms: C_28  and  C_30
                            x       y       z     vdW  Elec       q    Type
                         _______ _______ _______ _____ _____    ______ ____

>  <TORSDO>
F 2

$$$$
=
 OpenBabel11122410253D

 30 35  0  0  1  0  0  0  0  0999 V2000
  187.4750  177.8510  145.2580 C   0  0  1  0  0  3  0  0  0  0  0  0
  185.1090  178.8820  145.7980 C   0  0  0  0  0  0  0  0  0  0  0  0
  186.6110  178.3710  141.2920 N   0  0  0  0  0  2  0  0  0  0  0  0
  188.5140  178.0060  144.1330 C   0  0  1  0  0  3  0  0  0  0  0  0
  187.9110  178.5440  146.4090 O   0  0  0  0  0  0  0  0  0  0  0  0
  191.3270  177.2760  146.5200 O   0  0  0  0  0  1  0  0  0  0  0  0
  191.0290  176.7160  142.4490 C   0  0  1  0  0  3  0  0  0  0  0  0
  190.2320  177.9700  146.0000 C   0  0  2  0  0  3  0  0  0  0  0  0
  190.0630  177.0300  141.3030 C   0  0  2  0  0  3  0  0  0  0  0  0
  187.9490  178.3820  140.8520 C   0  0  0  0  0  0  0  0  0  0  0  0
  189.0380  177.8880  146.9570 C   0  0  2  0  0  3  0  0  0  0  0  0
  189.8670  177.4390  144.6110 C   0  0  2  0  0  3  0  0  0  0  0  0
  183.8410  179.0880  145.4380 C   0  0  0  0  0  3  0  0  0  0  0  0
  190.8840  177.8210  140.3050 C   0  0  0  0  0  2  0  0  0  0  0  0
  192.4130  176.6850  141.8210 C   0  0  0  0  0  2  0  0  0  0  0  0
  185.4940  179.2510  147.1180 N   0  0  0  0  0  1  0  0  0  0  0  0
  186.5840  177.5450  142.4890 C   0  0  1  0  0  3  0  0  0  0  0  0
  183.3380  178.6540  144.0980 C   0  0  0  0  0  2  0  0  0  0  0  0
  186.0960  178.3150  144.8250 C   0  0  0  0  0  0  0  0  0  0  0  0
  188.0610  177.2670  142.8730 C   0  0  1  0  0  3  0  0  0  0  0  0
  188.2970  178.9190  139.7680 O   0  0  0  0  0  0  0  0  0  0  0  0
  188.8510  177.7340  141.7360 N   0  0  0  0  0  0  0  0  0  0  0  0
  192.2820  177.2520  140.4150 C   0  0  0  0  0  2  0  0  0  0  0  0
  191.1710  179.1720  143.2420 C   0  0  0  0  0  1  0  0  0  0  0  0
  184.4070  178.5340  143.1620 O   0  0  0  0  0  0  0  0  0  0  0  0
  185.6990  178.1500  143.5450 C   0  0  0  0  0  0  0  0  0  0  0  0
  191.0190  177.7010  143.6320 C   0  0  2  0  0  3  0  0  0  0  0  0
  188.7300  176.4660  147.4370 C   0  0  0  0  0  2  0  0  0  0  0  0
  187.9230  177.8000  149.2310 O   0  0  0  0  0  1  0  0  0  0  0  0
  187.8990  176.5100  148.7050 C   0  0  0  0  0  2  0  0  0  0  0  0
  1 19  1  6  0  0  0
  1  5  1  0  0  0  0
  2 16  1  0  0  0  0
  3 17  1  0  0  0  0
  4 12  1  0  0  0  0
  4  1  1  0  0  0  0
  5 11  1  0  0  0  0
  7 27  1  0  0  0  0
  8  6  1  0  0  0  0
  8 11  1  0  0  0  0
  9 22  1  0  0  0  0
  9  7  1  0  0  0  0
 10  3  1  0  0  0  0
 10 22  1  0  0  0  0
 11 28  1  0  0  0  0
 12  8  1  0  0  0  0
 13  2  2  0  0  0  0
 14 23  1  0  0  0  0
 14  9  1  0  0  0  0
 15  7  1  0  0  0  0
 17 20  1  0  0  0  0
 17 26  1  0  0  0  0
 18 13  1  0  0  0  0
 19  2  1  0  0  0  0
 20  4  1  0  0  0  0
 21 10  2  0  0  0  0
 22 20  1  0  0  0  0
 23 15  1  0  0  0  0
 24 27  1  0  0  0  0
 25 26  1  0  0  0  0
 25 18  1  0  0  0  0
 26 19  2  0  0  0  0
 27 12  1  0  0  0  0
 28 30  1  0  0  0  0
 30 29  1  0  0  0  0
M  END
>  <MODEL>
3

>  <REMARK>
 VINA RESULT:      -8.0      2.038      6.617
  Name = 
  2 active torsions:
  status: ('A' for Active; 'I' for Inactive)
    1  A    between atoms: C_11  and  C_28
    2  A    between atoms: C_28  and  C_30
                            x       y       z     vdW  Elec       q    Type
                         _______ _______ _______ _____ _____    ______ ____

>  <TORSDO>
F 2

$$$$
=
 OpenBabel11122410253D

 30 35  0  0  1  0  0  0  0  0999 V2000
  186.7210  178.0200  140.3460 C   0  0  1  0  0  3  0  0  0  0  0  0
  188.5910  178.2050  138.4960 C   0  0  0  0  0  0  0  0  0  0  0  0
  189.7180  177.6020  143.1000 N   0  0  0  0  0  2  0  0  0  0  0  0
  186.6110  178.3670  141.8410 C   0  0  1  0  0  3  0  0  0  0  0  0
  186.0300  178.9860  139.5790 O   0  0  0  0  0  0  0  0  0  0  0  0
  182.9300  179.0550  141.4940 O   0  0  0  0  0  1  0  0  0  0  0  0
  185.1510  177.8280  144.7400 C   0  0  1  0  0  3  0  0  0  0  0  0
  184.2950  179.2260  141.2570 C   0  0  2  0  0  3  0  0  0  0  0  0
  186.6170  177.6020  145.1230 C   0  0  2  0  0  3  0  0  0  0  0  0
  188.9580  178.0250  144.2070 C   0  0  0  0  0  0  0  0  0  0  0  0
  184.6400  178.8650  139.8080 C   0  0  2  0  0  3  0  0  0  0  0  0
  185.1220  178.4000  142.2460 C   0  0  2  0  0  3  0  0  0  0  0  0
  189.8150  177.8880  138.0710 C   0  0  0  0  0  3  0  0  0  0  0  0
  186.8420  178.4770  146.3390 C   0  0  0  0  0  2  0  0  0  0  0  0
  184.4430  178.2010  146.0330 C   0  0  0  0  0  2  0  0  0  0  0  0
  187.7250  178.8790  137.5890 N   0  0  0  0  0  1  0  0  0  0  0  0
  188.7760  177.0080  142.1630 C   0  0  1  0  0  3  0  0  0  0  0  0
  190.7560  177.1090  138.9350 C   0  0  0  0  0  2  0  0  0  0  0  0
  188.1650  177.8910  139.8970 C   0  0  0  0  0  0  0  0  0  0  0  0
  187.3540  177.3380  142.6920 C   0  0  1  0  0  3  0  0  0  0  0  0
  189.4890  178.4840  145.2530 O   0  0  0  0  0  0  0  0  0  0  0  0
  187.5570  177.8820  144.0320 N   0  0  0  0  0  0  0  0  0  0  0  0
  185.5190  178.4690  147.0740 C   0  0  0  0  0  2  0  0  0  0  0  0
  185.5430  180.2610  143.9600 C   0  0  0  0  0  1  0  0  0  0  0  0
  190.4170  177.2420  140.3140 O   0  0  0  0  0  0  0  0  0  0  0  0
  189.0950  177.4070  140.7480 C   0  0  0  0  0  0  0  0  0  0  0  0
  184.8890  178.9080  143.6750 C   0  0  2  0  0  3  0  0  0  0  0  0
  184.0730  177.5150  139.3580 C   0  0  0  0  0  2  0  0  0  0  0  0
  185.0620  176.6530  137.3760 O   0  0  0  0  0  1  0  0  0  0  0  0
  184.0180  177.4490  137.8440 C   0  0  0  0  0  2  0  0  0  0  0  0
  1  5  1  6  0  0  0
  1  4  1  0  0  0  0
  2 19  1  0  0  0  0
  3 10  1  0  0  0  0
  4 12  1  0  0  0  0
  4 20  1  0  0  0  0
  5 11  1  0  0  0  0
  7  9  1  0  0  0  0
  7 15  1  0  0  0  0
  8  6  1  0  0  0  0
  8 12  1  0  0  0  0
  9 14  1  0  0  0  0
 10 21  2  0  0  0  0
 11  8  1  0  0  0  0
 12 27  1  0  0  0  0
 13  2  2  0  0  0  0
 13 18  1  0  0  0  0
 14 23  1  0  0  0  0
 15 23  1  0  0  0  0
 16  2  1  0  0  0  0
 17 20  1  0  0  0  0
 17  3  1  0  0  0  0
 18 25  1  0  0  0  0
 19  1  1  0  0  0  0
 19 26  2  0  0  0  0
 20 22  1  0  0  0  0
 22 10  1  0  0  0  0
 22  9  1  0  0  0  0
 25 26  1  0  0  0  0
 26 17  1  0  0  0  0
 27 24  1  0  0  0  0
 27  7  1  0  0  0  0
 28 11  1  0  0  0  0
 29 30  1  0  0  0  0
 30 28  1  0  0  0  0
M  END
>  <MODEL>
4

>  <REMARK>
 VINA RESULT:      -7.8      2.541      4.960
  Name = 
  2 active torsions:
  status: ('A' for Active; 'I' for Inactive)
    1  A    between atoms: C_11  and  C_28
    2  A    between atoms: C_28  and  C_30
                            x       y       z     vdW  Elec       q    Type
                         _______ _______ _______ _____ _____    ______ ____

>  <TORSDO>
F 2

$$$$
=
 OpenBabel11122410253D

 30 35  0  0  1  0  0  0  0  0999 V2000
  186.5010  178.2820  142.7970 C   0  0  1  0  0  3  0  0  0  0  0  0
  188.8000  177.1430  143.4050 C   0  0  0  0  0  0  0  0  0  0  0  0
  187.5120  177.8360  138.8580 N   0  0  0  0  0  2  0  0  0  0  0  0
  185.5060  178.2000  141.6270 C   0  0  1  0  0  3  0  0  0  0  0  0
  185.9900  177.5750  143.9100 O   0  0  0  0  0  0  0  0  0  0  0  0
  182.6240  178.9750  143.9160 O   0  0  0  0  0  1  0  0  0  0  0  0
  183.1160  179.6350  139.8790 C   0  0  1  0  0  3  0  0  0  0  0  0
  183.7130  178.2530  143.4210 C   0  0  2  0  0  3  0  0  0  0  0  0
  184.1180  179.3140  138.7650 C   0  0  2  0  0  3  0  0  0  0  0  0
  186.1950  177.8910  138.3630 C   0  0  0  0  0  0  0  0  0  0  0  0
  184.8670  178.2610  144.4290 C   0  0  2  0  0  3  0  0  0  0  0  0
  184.1570  178.8060  142.0650 C   0  0  2  0  0  3  0  0  0  0  0  0
  190.0730  176.8950  143.0920 C   0  0  0  0  0  3  0  0  0  0  0  0
  183.3100  178.5840  137.7120 C   0  0  0  0  0  2  0  0  0  0  0  0
  181.7620  179.7380  139.1940 C   0  0  0  0  0  2  0  0  0  0  0  0
  188.3450  176.7530  144.6970 N   0  0  0  0  0  1  0  0  0  0  0  0
  187.5200  178.6280  140.0780 C   0  0  1  0  0  3  0  0  0  0  0  0
  190.6500  177.3450  141.7870 C   0  0  0  0  0  2  0  0  0  0  0  0
  187.8780  177.7750  142.4090 C   0  0  0  0  0  0  0  0  0  0  0  0
  186.0400  178.9540  140.4090 C   0  0  1  0  0  3  0  0  0  0  0  0
  185.8720  177.3980  137.2490 O   0  0  0  0  0  0  0  0  0  0  0  0
  185.2820  178.5500  139.2270 N   0  0  0  0  0  0  0  0  0  0  0  0
  181.9310  179.2050  137.7790 C   0  0  0  0  0  2  0  0  0  0  0  0
  182.8460  177.1660  140.5930 C   0  0  0  0  0  1  0  0  0  0  0  0
  189.6260  177.5340  140.8110 O   0  0  0  0  0  0  0  0  0  0  0  0
  188.3350  177.9590  141.1520 C   0  0  0  0  0  0  0  0  0  0  0  0
  183.0380  178.6180  141.0320 C   0  0  2  0  0  3  0  0  0  0  0  0
  185.2100  179.6560  144.9620 C   0  0  0  0  0  2  0  0  0  0  0  0
  184.9160  178.6270  147.0850 O   0  0  0  0  0  1  0  0  0  0  0  0
  185.6860  179.5650  146.3990 C   0  0  0  0  0  2  0  0  0  0  0  0
  1 19  1  6  0  0  0
  1  5  1  0  0  0  0
  2 16  1  0  0  0  0
  3 17  1  0  0  0  0
  4 12  1  0  0  0  0
  4  1  1  0  0  0  0
  5 11  1  0  0  0  0
  7 27  1  0  0  0  0
  8  6  1  0  0  0  0
  8 11  1  0  0  0  0
  9 22  1  0  0  0  0
  9  7  1  0  0  0  0
 10  3  1  0  0  0  0
 10 22  1  0  0  0  0
 11 28  1  0  0  0  0
 12  8  1  0  0  0  0
 13  2  2  0  0  0  0
 14 23  1  0  0  0  0
 14  9  1  0  0  0  0
 15  7  1  0  0  0  0
 17 20  1  0  0  0  0
 17 26  1  0  0  0  0
 18 13  1  0  0  0  0
 19  2  1  0  0  0  0
 20  4  1  0  0  0  0
 21 10  2  0  0  0  0
 22 20  1  0  0  0  0
 23 15  1  0  0  0  0
 24 27  1  0  0  0  0
 25 26  1  0  0  0  0
 25 18  1  0  0  0  0
 26 19  2  0  0  0  0
 27 12  1  0  0  0  0
 28 30  1  0  0  0  0
 30 29  1  0  0  0  0
M  END
>  <MODEL>
5

>  <REMARK>
 VINA RESULT:      -7.2      2.883      5.744
  Name = 
  2 active torsions:
  status: ('A' for Active; 'I' for Inactive)
    1  A    between atoms: C_11  and  C_28
    2  A    between atoms: C_28  and  C_30
                            x       y       z     vdW  Elec       q    Type
                         _______ _______ _______ _____ _____    ______ ____

>  <TORSDO>
F 2

$$$$
=
 OpenBabel11122410253D

 30 35  0  0  1  0  0  0  0  0999 V2000
  188.8020  177.5780  141.3130 C   0  0  1  0  0  3  0  0  0  0  0  0
  188.9080  177.0130  138.7400 C   0  0  0  0  0  0  0  0  0  0  0  0
  184.8940  178.6480  140.7480 N   0  0  0  0  0  2  0  0  0  0  0  0
  187.7110  177.5720  142.3990 C   0  0  1  0  0  3  0  0  0  0  0  0
  189.6430  176.4540  141.4760 O   0  0  0  0  0  0  0  0  0  0  0  0
  190.2470  176.7670  145.0570 O   0  0  0  0  0  1  0  0  0  0  0  0
  186.6290  178.7240  145.2850 C   0  0  1  0  0  3  0  0  0  0  0  0
  189.4990  176.5680  143.8950 C   0  0  2  0  0  3  0  0  0  0  0  0
  185.4300  179.0530  144.3890 C   0  0  2  0  0  3  0  0  0  0  0  0
  184.5000  178.4720  142.0880 C   0  0  0  0  0  0  0  0  0  0  0  0
  190.4050  176.6010  142.6590 C   0  0  2  0  0  3  0  0  0  0  0  0
  188.3800  177.6070  143.7890 C   0  0  2  0  0  3  0  0  0  0  0  0
  188.4790  177.2450  137.4990 C   0  0  0  0  0  3  0  0  0  0  0  0
  184.2310  178.4760  145.1140 C   0  0  0  0  0  2  0  0  0  0  0  0
  186.0730  178.6380  146.6970 C   0  0  0  0  0  2  0  0  0  0  0  0
  190.0200  176.1390  138.9070 N   0  0  0  0  0  1  0  0  0  0  0  0
  186.3040  179.0030  140.7830 C   0  0  1  0  0  3  0  0  0  0  0  0
  187.3680  178.2130  137.2330 C   0  0  0  0  0  2  0  0  0  0  0  0
  188.2120  177.6260  139.9160 C   0  0  0  0  0  0  0  0  0  0  0  0
  186.7850  178.7780  142.2410 C   0  0  1  0  0  3  0  0  0  0  0  0
  183.3010  178.2670  142.4170 O   0  0  0  0  0  0  0  0  0  0  0  0
  185.5690  178.5510  143.0180 N   0  0  0  0  0  0  0  0  0  0  0  0
  184.5560  178.6280  146.5840 C   0  0  0  0  0  2  0  0  0  0  0  0
  186.5100  176.1850  144.8170 C   0  0  0  0  0  1  0  0  0  0  0  0
  186.5520  178.3870  138.3890 O   0  0  0  0  0  0  0  0  0  0  0  0
  187.0660  178.3020  139.6900 C   0  0  0  0  0  0  0  0  0  0  0  0
  187.3890  177.4280  144.9480 C   0  0  2  0  0  3  0  0  0  0  0  0
  191.3490  177.8070  142.6190 C   0  0  0  0  0  2  0  0  0  0  0  0
  192.2790  177.8780  140.4330 O   0  0  0  0  0  1  0  0  0  0  0  0
  192.5510  177.5020  141.7460 C   0  0  0  0  0  2  0  0  0  0  0  0
  1 19  1  6  0  0  0
  1  5  1  0  0  0  0
  1  4  1  0  0  0  0
  2 16  1  0  0  0  0
  2 19  1  0  0  0  0
  3 17  1  0  0  0  0
  3 10  1  0  0  0  0
  4 12  1  0  0  0  0
  5 11  1  0  0  0  0
  7 15  1  0  0  0  0
  8  6  1  0  0  0  0
  9 14  1  0  0  0  0
  9  7  1  0  0  0  0
 10 21  2  0  0  0  0
 10 22  1  0  0  0  0
 11  8  1  0  0  0  0
 12  8  1  0  0  0  0
 12 27  1  0  0  0  0
 13  2  2  0  0  0  0
 14 23  1  0  0  0  0
 17 20  1  0  0  0  0
 18 13  1  0  0  0  0
 18 25  1  0  0  0  0
 20  4  1  0  0  0  0
 20 22  1  0  0  0  0
 22  9  1  0  0  0  0
 23 15  1  0  0  0  0
 24 27  1  0  0  0  0
 25 26  1  0  0  0  0
 26 19  2  0  0  0  0
 26 17  1  0  0  0  0
 27  7  1  0  0  0  0
 28 11  1  0  0  0  0
 29 30  1  0  0  0  0
 30 28  1  0  0  0  0
M  END
>  <MODEL>
6

>  <REMARK>
 VINA RESULT:      -7.2      2.322      5.031
  Name = 
  2 active torsions:
  status: ('A' for Active; 'I' for Inactive)
    1  A    between atoms: C_11  and  C_28
    2  A    between atoms: C_28  and  C_30
                            x       y       z     vdW  Elec       q    Type
                         _______ _______ _______ _____ _____    ______ ____

>  <TORSDO>
F 2

$$$$
=
 OpenBabel11122410253D

 30 35  0  0  1  0  0  0  0  0999 V2000
  188.4760  177.4080  145.6530 C   0  0  1  0  0  3  0  0  0  0  0  0
  186.7020  178.3460  147.3630 C   0  0  0  0  0  0  0  0  0  0  0  0
  185.8860  178.4390  142.6570 N   0  0  0  0  0  2  0  0  0  0  0  0
  188.8740  177.7150  144.1980 C   0  0  1  0  0  3  0  0  0  0  0  0
  189.4390  177.9470  146.5350 O   0  0  0  0  0  0  0  0  0  0  0  0
  192.4310  176.6940  144.8700 O   0  0  0  0  0  1  0  0  0  0  0  0
  190.2300  176.6710  141.3880 C   0  0  1  0  0  3  0  0  0  0  0  0
  191.2610  177.4440  145.0150 C   0  0  2  0  0  3  0  0  0  0  0  0
  188.8590  177.1280  140.8790 C   0  0  2  0  0  3  0  0  0  0  0  0
  186.8610  178.5150  141.6430 C   0  0  0  0  0  0  0  0  0  0  0  0
  190.6520  177.2300  146.4040 C   0  0  2  0  0  3  0  0  0  0  0  0
  190.2580  177.0980  143.9110 C   0  0  2  0  0  3  0  0  0  0  0  0
  185.4270  178.5910  147.6710 C   0  0  0  0  0  3  0  0  0  0  0  0
  189.1610  178.0470  139.7140 C   0  0  0  0  0  2  0  0  0  0  0  0
  191.1540  176.7310  140.1820 C   0  0  0  0  0  2  0  0  0  0  0  0
  187.6800  178.5410  148.3780 N   0  0  0  0  0  1  0  0  0  0  0  0
  186.3760  177.4630  143.6180 C   0  0  1  0  0  3  0  0  0  0  0  0
  184.3300  178.3340  146.6860 C   0  0  0  0  0  2  0  0  0  0  0  0
  187.0840  177.9170  145.9800 C   0  0  0  0  0  0  0  0  0  0  0  0
  187.8430  177.1450  143.2230 C   0  0  1  0  0  3  0  0  0  0  0  0
  186.6910  179.1920  140.5940 O   0  0  0  0  0  0  0  0  0  0  0  0
  188.0330  177.7620  141.9130 N   0  0  0  0  0  0  0  0  0  0  0  0
  190.4120  177.4770  139.0830 C   0  0  0  0  0  2  0  0  0  0  0  0
  190.8660  179.0030  142.3040 C   0  0  0  0  0  1  0  0  0  0  0  0
  184.8280  178.3430  145.3490 O   0  0  0  0  0  0  0  0  0  0  0  0
  186.1250  177.9200  145.0290 C   0  0  0  0  0  0  0  0  0  0  0  0
  190.8310  177.4930  142.5430 C   0  0  2  0  0  3  0  0  0  0  0  0
  190.5230  175.7560  146.8010 C   0  0  0  0  0  2  0  0  0  0  0  0
  192.3780  176.4890  148.0940 O   0  0  0  0  0  1  0  0  0  0  0  0
  191.6800  175.3510  147.6940 C   0  0  0  0  0  2  0  0  0  0  0  0
  1 19  1  1  0  0  0
  1  5  1  0  0  0  0
  2 13  2  0  0  0  0
  2 16  1  0  0  0  0
  3 17  1  0  0  0  0
  4  1  1  0  0  0  0
  6  8  1  0  0  0  0
  7 27  1  0  0  0  0
  8 11  1  0  0  0  0
  9  7  1  0  0  0  0
  9 22  1  0  0  0  0
 10 22  1  0  0  0  0
 10  3  1  0  0  0  0
 11  5  1  0  0  0  0
 11 28  1  0  0  0  0
 12  4  1  0  0  0  0
 12  8  1  0  0  0  0
 14  9  1  0  0  0  0
 15  7  1  0  0  0  0
 17 26  1  0  0  0  0
 18 13  1  0  0  0  0
 19  2  1  0  0  0  0
 20 17  1  0  0  0  0
 20  4  1  0  0  0  0
 21 10  2  0  0  0  0
 22 20  1  0  0  0  0
 23 14  1  0  0  0  0
 23 15  1  0  0  0  0
 24 27  1  0  0  0  0
 25 18  1  0  0  0  0
 26 25  1  0  0  0  0
 26 19  2  0  0  0  0
 27 12  1  0  0  0  0
 28 30  1  0  0  0  0
 30 29  1  0  0  0  0
M  END
>  <MODEL>
7

>  <REMARK>
 VINA RESULT:      -6.8      2.141      5.754
  Name = 
  2 active torsions:
  status: ('A' for Active; 'I' for Inactive)
    1  A    between atoms: C_11  and  C_28
    2  A    between atoms: C_28  and  C_30
                            x       y       z     vdW  Elec       q    Type
                         _______ _______ _______ _____ _____    ______ ____

>  <TORSDO>
F 2

$$$$
=
 OpenBabel11122410253D

 30 35  0  0  1  0  0  0  0  0999 V2000
  188.4290  177.5940  144.1240 C   0  0  1  0  0  3  0  0  0  0  0  0
  189.8580  177.8700  146.3220 C   0  0  0  0  0  0  0  0  0  0  0  0
  185.0990  178.2730  146.4020 N   0  0  0  0  0  2  0  0  0  0  0  0
  187.0910  178.1470  143.6020 C   0  0  1  0  0  3  0  0  0  0  0  0
  189.5010  178.2550  143.4820 O   0  0  0  0  0  0  0  0  0  0  0  0
  188.3100  177.9730  140.0490 O   0  0  0  0  0  1  0  0  0  0  0  0
  184.5010  177.7860  141.6060 C   0  0  1  0  0  3  0  0  0  0  0  0
  188.2960  178.3890  141.3820 C   0  0  2  0  0  3  0  0  0  0  0  0
  183.7900  177.9410  142.9540 C   0  0  2  0  0  3  0  0  0  0  0  0
  184.2800  178.6980  145.3390 C   0  0  0  0  0  0  0  0  0  0  0  0
  189.5390  177.8800  142.1190 C   0  0  2  0  0  3  0  0  0  0  0  0
  187.0120  177.9280  142.0770 C   0  0  2  0  0  3  0  0  0  0  0  0
  189.9520  177.7560  147.6480 C   0  0  0  0  0  3  0  0  0  0  0  0
  182.7590  179.0290  142.7290 C   0  0  0  0  0  2  0  0  0  0  0  0
  183.4830  178.2050  140.5560 C   0  0  0  0  0  2  0  0  0  0  0  0
  191.0410  178.1900  145.5970 N   0  0  0  0  0  1  0  0  0  0  0  0
  186.0640  177.3490  145.8260 C   0  0  1  0  0  3  0  0  0  0  0  0
  188.7740  177.3450  148.4740 C   0  0  0  0  0  2  0  0  0  0  0  0
  188.5390  177.7030  145.6340 C   0  0  0  0  0  0  0  0  0  0  0  0
  185.9140  177.4500  144.2850 C   0  0  1  0  0  3  0  0  0  0  0  0
  183.2640  179.4220  145.5180 O   0  0  0  0  0  0  0  0  0  0  0  0
  184.7020  178.2340  144.0660 N   0  0  0  0  0  0  0  0  0  0  0  0
  182.3220  178.8590  141.2910 C   0  0  0  0  0  2  0  0  0  0  0  0
  185.6670  180.0880  141.7530 C   0  0  0  0  0  1  0  0  0  0  0  0
  187.5500  177.6230  147.7980 O   0  0  0  0  0  0  0  0  0  0  0  0
  187.4360  177.5720  146.4020 C   0  0  0  0  0  0  0  0  0  0  0  0
  185.7950  178.6000  141.4260 C   0  0  2  0  0  3  0  0  0  0  0  0
  189.8080  176.3860  141.9150 C   0  0  0  0  0  2  0  0  0  0  0  0
  191.0440  175.2610  143.6050 O   0  0  0  0  0  1  0  0  0  0  0  0
  191.1810  176.0240  142.4470 C   0  0  0  0  0  2  0  0  0  0  0  0
  1  5  1  6  0  0  0
  1 19  1  0  0  0  0
  2 13  2  0  0  0  0
  4  1  1  0  0  0  0
  4 20  1  0  0  0  0
  6  8  1  0  0  0  0
  7  9  1  0  0  0  0
  8 12  1  0  0  0  0
  8 11  1  0  0  0  0
  9 22  1  0  0  0  0
 10 21  2  0  0  0  0
 10  3  1  0  0  0  0
 11  5  1  0  0  0  0
 12  4  1  0  0  0  0
 13 18  1  0  0  0  0
 14  9  1  0  0  0  0
 15 23  1  0  0  0  0
 15  7  1  0  0  0  0
 16  2  1  0  0  0  0
 17 26  1  0  0  0  0
 17  3  1  0  0  0  0
 19  2  1  0  0  0  0
 19 26  2  0  0  0  0
 20 17  1  0  0  0  0
 22 20  1  0  0  0  0
 22 10  1  0  0  0  0
 23 14  1  0  0  0  0
 25 18  1  0  0  0  0
 26 25  1  0  0  0  0
 27  7  1  0  0  0  0
 27 24  1  0  0  0  0
 27 12  1  0  0  0  0
 28 11  1  0  0  0  0
 28 30  1  0  0  0  0
 30 29  1  0  0  0  0
M  END
>  <MODEL>
8

>  <REMARK>
 VINA RESULT:      -6.2      1.516      1.835
  Name = 
  2 active torsions:
  status: ('A' for Active; 'I' for Inactive)
    1  A    between atoms: C_11  and  C_28
    2  A    between atoms: C_28  and  C_30
                            x       y       z     vdW  Elec       q    Type
                         _______ _______ _______ _____ _____    ______ ____

>  <TORSDO>
F 2

$$$$
=
 OpenBabel11122410253D

 30 35  0  0  1  0  0  0  0  0999 V2000
  186.9350  178.3110  141.3720 C   0  0  1  0  0  3  0  0  0  0  0  0
  184.3530  178.3650  140.8430 C   0  0  0  0  0  0  0  0  0  0  0  0
  185.9500  178.1340  145.3400 N   0  0  0  0  0  2  0  0  0  0  0  0
  187.8200  177.7200  142.4840 C   0  0  1  0  0  3  0  0  0  0  0  0
  187.0390  177.5170  140.2070 O   0  0  0  0  0  0  0  0  0  0  0  0
  190.6720  177.2520  140.0770 O   0  0  0  0  0  1  0  0  0  0  0  0
  190.6510  177.8210  144.1570 C   0  0  1  0  0  3  0  0  0  0  0  0
  189.3900  177.0680  140.6000 C   0  0  2  0  0  3  0  0  0  0  0  0
  189.6470  177.9190  145.3100 C   0  0  2  0  0  3  0  0  0  0  0  0
  187.1640  177.5610  145.7650 C   0  0  0  0  0  0  0  0  0  0  0  0
  188.3340  177.6550  139.6560 C   0  0  2  0  0  3  0  0  0  0  0  0
  189.2840  177.6810  141.9990 C   0  0  2  0  0  3  0  0  0  0  0  0
  183.1160  178.6990  141.2140 C   0  0  0  0  0  3  0  0  0  0  0  0
  190.0690  176.8420  146.2880 C   0  0  0  0  0  2  0  0  0  0  0  0
  191.9260  177.2630  144.7720 C   0  0  0  0  0  2  0  0  0  0  0  0
  184.5440  177.8900  139.5150 N   0  0  0  0  0  1  0  0  0  0  0  0
  186.2640  178.9160  144.1530 C   0  0  1  0  0  3  0  0  0  0  0  0
  182.8430  179.2810  142.5650 C   0  0  0  0  0  2  0  0  0  0  0  0
  185.4900  178.4550  141.8130 C   0  0  0  0  0  0  0  0  0  0  0  0
  187.7220  178.5600  143.7580 C   0  0  1  0  0  3  0  0  0  0  0  0
  187.2620  176.9100  146.8390 O   0  0  0  0  0  0  0  0  0  0  0  0
  188.2500  177.7890  144.8800 N   0  0  0  0  0  0  0  0  0  0  0  0
  191.5760  176.7800  146.1720 C   0  0  0  0  0  2  0  0  0  0  0  0
  189.7560  175.5410  143.3320 C   0  0  0  0  0  1  0  0  0  0  0  0
  183.8700  178.9310  143.4910 O   0  0  0  0  0  0  0  0  0  0  0  0
  185.2030  178.7490  143.0990 C   0  0  0  0  0  0  0  0  0  0  0  0
  190.2270  176.9480  142.9630 C   0  0  2  0  0  3  0  0  0  0  0  0
  188.6430  179.0840  139.1980 C   0  0  0  0  0  2  0  0  0  0  0  0
  187.9590  179.4250  136.9470 O   0  0  0  0  0  1  0  0  0  0  0  0
  189.0550  179.0880  137.7390 C   0  0  0  0  0  2  0  0  0  0  0  0
  1  5  1  6  0  0  0
  1 19  1  0  0  0  0
  1  4  1  0  0  0  0
  2 13  2  0  0  0  0
  2 19  1  0  0  0  0
  3 10  1  0  0  0  0
  4 20  1  0  0  0  0
  6  8  1  0  0  0  0
  7 15  1  0  0  0  0
  7  9  1  0  0  0  0
  8 12  1  0  0  0  0
  9 14  1  0  0  0  0
 10 21  2  0  0  0  0
 11  5  1  0  0  0  0
 11  8  1  0  0  0  0
 12  4  1  0  0  0  0
 12 27  1  0  0  0  0
 13 18  1  0  0  0  0
 15 23  1  0  0  0  0
 16  2  1  0  0  0  0
 17  3  1  0  0  0  0
 18 25  1  0  0  0  0
 19 26  2  0  0  0  0
 20 17  1  0  0  0  0
 20 22  1  0  0  0  0
 22  9  1  0  0  0  0
 22 10  1  0  0  0  0
 23 14  1  0  0  0  0
 26 25  1  0  0  0  0
 26 17  1  0  0  0  0
 27 24  1  0  0  0  0
 27  7  1  0  0  0  0
 28 11  1  0  0  0  0
 29 30  1  0  0  0  0
 30 28  1  0  0  0  0
M  END
>  <MODEL>
9

>  <REMARK>
 VINA RESULT:      -6.2      1.961      5.635
  Name = 
  2 active torsions:
  status: ('A' for Active; 'I' for Inactive)
    1  A    between atoms: C_11  and  C_28
    2  A    between atoms: C_28  and  C_30
                            x       y       z     vdW  Elec       q    Type
                         _______ _______ _______ _____ _____    ______ ____

>  <TORSDO>
F 2

$$$$
