=
 OpenBabel11122411013D

 31 35  0  0  1  0  0  0  0  0999 V2000
  186.4240  178.5830  141.4680 C   0  0  0  0  0  0  0  0  0  0  0  0
  183.5050  179.3380  139.1510 C   0  0  2  0  0  3  0  0  0  0  0  0
  183.5730  178.2560  138.0420 C   0  0  1  0  0  3  0  0  0  0  0  0
  183.9070  175.9330  137.3180 N   0  0  0  0  0  0  0  0  0  0  0  0
  184.2930  178.9960  140.3870 C   0  0  0  0  0  0  0  0  0  0  0  0
  185.7610  178.2600  142.6550 C   0  0  0  0  0  3  0  0  0  0  0  0
  183.9220  176.8290  138.4800 C   0  0  0  0  0  2  0  0  0  0  0  0
  181.4760  178.7170  140.3840 N   0  0  0  0  0  0  0  0  0  0  0  0
  187.8100  178.5380  141.4120 O   0  0  0  0  0  1  0  0  0  0  0  0
  181.7960  179.4750  137.0120 O   0  0  0  0  0  0  0  0  0  0  0  0
  184.6200  174.6730  137.3940 C   0  0  0  0  0  1  0  0  0  0  0  0
  182.1360  178.8120  141.6900 C   0  0  0  0  0  2  0  0  0  0  0  0
  182.0530  179.7450  139.4980 C   0  0  2  0  0  3  0  0  0  0  0  0
  185.6920  178.9510  140.3350 C   0  0  0  0  0  3  0  0  0  0  0  0
  183.1640  176.2450  136.1240 C   0  0  0  0  0  3  0  0  0  0  0  0
  183.6270  178.6610  141.5820 C   0  0  0  0  0  0  0  0  0  0  0  0
  184.3650  178.3070  142.7140 C   0  0  0  0  0  3  0  0  0  0  0  0
  181.2050  179.9580  138.2040 C   0  0  0  0  0  2  0  0  0  0  0  0
  182.2500  178.1810  137.2890 C   0  0  1  0  0  3  0  0  0  0  0  0
  182.3960  177.3370  136.0640 C   0  0  0  0  0  3  0  0  0  0  0  0
  180.0610  178.9860  140.6260 C   0  0  0  0  0  2  0  0  0  0  0  0
  178.9330  177.7220  142.2900 O   0  0  0  0  0  0  0  0  0  0  0  0
  179.3990  177.7390  141.1190 C   0  0  0  0  0  0  0  0  0  0  0  0
  179.3930  174.1540  138.8070 N   0  0  0  0  0  0  0  0  0  0  0  0
  179.3530  175.2430  140.9920 C   0  0  0  0  0  2  0  0  0  0  0  0
  178.9310  177.6190  138.2800 O   0  0  0  0  0  0  0  0  0  0  0  0
  180.0030  173.0620  138.0730 C   0  0  0  0  0  1  0  0  0  0  0  0
  180.0210  174.1760  140.1260 C   0  0  0  0  0  2  0  0  0  0  0  0
  179.3200  176.5850  138.8840 C   0  0  0  0  0  0  0  0  0  0  0  0
  179.3860  176.5440  140.3220 N   0  0  0  0  0  0  0  0  0  0  0  0
  179.7470  175.3830  138.0980 C   0  0  0  0  0  2  0  0  0  0  0  0
  1  6  1  0  0  0  0
  2 13  1  0  0  0  0
  2  5  1  1  0  0  0
  3  7  1  1  0  0  0
  3  2  1  0  0  0  0
  4 11  1  0  0  0  0
  4  7  1  0  0  0  0
  5 16  2  0  0  0  0
  6 17  2  0  0  0  0
  8 21  1  0  0  0  0
  8 12  1  0  0  0  0
  9  1  1  0  0  0  0
 10 19  1  0  0  0  0
 10 18  1  0  0  0  0
 13 18  1  6  0  0  0
 13  8  1  0  0  0  0
 14  5  1  0  0  0  0
 14  1  2  0  0  0  0
 15  4  1  0  0  0  0
 16 12  1  0  0  0  0
 16 17  1  0  0  0  0
 19 20  1  6  0  0  0
 19  3  1  0  0  0  0
 20 15  2  0  0  0  0
 21 23  1  0  0  0  0
 23 22  2  0  0  0  0
 24 28  1  0  0  0  0
 26 29  2  0  0  0  0
 27 24  1  0  0  0  0
 28 25  1  0  0  0  0
 29 30  1  0  0  0  0
 30 25  1  0  0  0  0
 30 23  1  0  0  0  0
 31 24  1  0  0  0  0
 31 29  1  0  0  0  0
M  END
>  <MODEL>
1

>  <REMARK>
 VINA RESULT:      -6.2      0.000      0.000
  Name = 
  2 active torsions:
  status: ('A' for Active; 'I' for Inactive)
    1  A    between atoms: C_5  and  C_16
    2  A    between atoms: N_10  and  C_16
                            x       y       z     vdW  Elec       q    Type
                         _______ _______ _______ _____ _____    ______ ____

>  <TORSDO>
F 2

$$$$
=
 OpenBabel11122411013D

 31 35  0  0  1  0  0  0  0  0999 V2000
  191.9180  174.2030  135.6670 C   0  0  0  0  0  0  0  0  0  0  0  0
  189.4060  176.9450  136.4600 C   0  0  2  0  0  3  0  0  0  0  0  0
  188.0130  176.2790  136.3090 C   0  0  1  0  0  3  0  0  0  0  0  0
  186.4810  174.3910  136.6530 N   0  0  0  0  0  0  0  0  0  0  0  0
  190.5390  175.9640  136.6030 C   0  0  0  0  0  0  0  0  0  0  0  0
  192.5780  174.0660  136.8920 C   0  0  0  0  0  3  0  0  0  0  0  0
  187.8620  174.8500  136.8430 C   0  0  0  0  0  2  0  0  0  0  0  0
  189.5570  177.3310  138.8790 N   0  0  0  0  0  0  0  0  0  0  0  0
  192.2730  173.3970  134.5940 O   0  0  0  0  0  1  0  0  0  0  0  0
  187.1390  178.4720  136.6660 O   0  0  0  0  0  0  0  0  0  0  0  0
  186.2060  172.9670  136.6610 C   0  0  0  0  0  1  0  0  0  0  0  0
  190.9030  176.7560  138.9750 C   0  0  0  0  0  2  0  0  0  0  0  0
  189.4370  178.0140  137.5780 C   0  0  2  0  0  3  0  0  0  0  0  0
  190.9010  175.1500  135.5220 C   0  0  0  0  0  3  0  0  0  0  0  0
  185.3830  175.3130  136.5090 C   0  0  0  0  0  3  0  0  0  0  0  0
  191.1980  175.8180  137.8390 C   0  0  0  0  0  0  0  0  0  0  0  0
  192.2230  174.8780  137.9730 C   0  0  0  0  0  3  0  0  0  0  0  0
  188.1790  178.9380  137.5060 C   0  0  0  0  0  2  0  0  0  0  0  0
  186.9420  177.1260  136.9860 C   0  0  1  0  0  3  0  0  0  0  0  0
  185.5800  176.6310  136.6200 C   0  0  0  0  0  3  0  0  0  0  0  0
  189.4500  178.2910  139.9740 C   0  0  0  0  0  2  0  0  0  0  0  0
  187.1110  178.0760  140.3280 O   0  0  0  0  0  0  0  0  0  0  0  0
  188.2650  177.9470  140.8190 C   0  0  0  0  0  0  0  0  0  0  0  0
  188.6890  176.9140  144.9360 N   0  0  0  0  0  0  0  0  0  0  0  0
  187.3430  177.8780  143.1410 C   0  0  0  0  0  2  0  0  0  0  0  0
  190.3130  176.2190  141.8740 O   0  0  0  0  0  0  0  0  0  0  0  0
  189.1040  177.1280  146.3100 C   0  0  0  0  0  1  0  0  0  0  0  0
  187.9000  178.0820  144.5490 C   0  0  0  0  0  2  0  0  0  0  0  0
  189.5740  176.8560  142.6710 C   0  0  0  0  0  0  0  0  0  0  0  0
  188.4230  177.5810  142.1990 N   0  0  0  0  0  0  0  0  0  0  0  0
  189.9090  176.8850  144.1300 C   0  0  0  0  0  2  0  0  0  0  0  0
  1  6  1  0  0  0  0
  2  5  1  1  0  0  0
  2 13  1  0  0  0  0
  3  2  1  0  0  0  0
  3  7  1  1  0  0  0
  3 19  1  0  0  0  0
  4 11  1  0  0  0  0
  4  7  1  0  0  0  0
  5 16  2  0  0  0  0
  6 17  2  0  0  0  0
  8 12  1  0  0  0  0
  8 21  1  0  0  0  0
  9  1  1  0  0  0  0
 10 19  1  0  0  0  0
 10 18  1  0  0  0  0
 13 18  1  1  0  0  0
 13  8  1  0  0  0  0
 14  1  2  0  0  0  0
 14  5  1  0  0  0  0
 15 20  2  0  0  0  0
 15  4  1  0  0  0  0
 16 17  1  0  0  0  0
 16 12  1  0  0  0  0
 19 20  1  6  0  0  0
 21 23  1  0  0  0  0
 22 23  2  0  0  0  0
 23 30  1  0  0  0  0
 24 27  1  0  0  0  0
 25 28  1  0  0  0  0
 26 29  2  0  0  0  0
 28 24  1  0  0  0  0
 29 31  1  0  0  0  0
 30 29  1  0  0  0  0
 30 25  1  0  0  0  0
 31 24  1  0  0  0  0
M  END
>  <MODEL>
2

>  <REMARK>
 VINA RESULT:      -6.2      5.393      8.479
  Name = 
  2 active torsions:
  status: ('A' for Active; 'I' for Inactive)
    1  A    between atoms: C_5  and  C_16
    2  A    between atoms: N_10  and  C_16
                            x       y       z     vdW  Elec       q    Type
                         _______ _______ _______ _____ _____    ______ ____

>  <TORSDO>
F 2

$$$$
=
 OpenBabel11122411013D

 31 35  0  0  1  0  0  0  0  0999 V2000
  188.6550  176.5030  135.8400 C   0  0  0  0  0  0  0  0  0  0  0  0
  185.6810  178.1730  137.5200 C   0  0  2  0  0  3  0  0  0  0  0  0
  184.5560  177.1050  137.5150 C   0  0  1  0  0  3  0  0  0  0  0  0
  183.7790  174.7940  137.8110 N   0  0  0  0  0  0  0  0  0  0  0  0
  187.0580  177.6100  137.2900 C   0  0  0  0  0  0  0  0  0  0  0  0
  189.5820  176.4690  136.8850 C   0  0  0  0  0  3  0  0  0  0  0  0
  184.9640  175.6600  137.8220 C   0  0  0  0  0  2  0  0  0  0  0  0
  186.2480  178.3420  139.9020 N   0  0  0  0  0  0  0  0  0  0  0  0
  188.9840  175.9700  134.6010 O   0  0  0  0  0  1  0  0  0  0  0  0
  183.1670  178.8420  138.3850 O   0  0  0  0  0  0  0  0  0  0  0  0
  183.9550  173.3660  137.6310 C   0  0  0  0  0  1  0  0  0  0  0  0
  187.6900  178.2350  139.6550 C   0  0  0  0  0  2  0  0  0  0  0  0
  185.6390  179.0750  138.7770 C   0  0  2  0  0  3  0  0  0  0  0  0
  187.3950  177.0730  136.0410 C   0  0  0  0  0  3  0  0  0  0  0  0
  182.4520  175.3130  138.0230 C   0  0  0  0  0  3  0  0  0  0  0  0
  187.9900  177.5650  138.3440 C   0  0  0  0  0  0  0  0  0  0  0  0
  189.2530  177.0060  138.1330 C   0  0  0  0  0  3  0  0  0  0  0  0
  184.1800  179.5370  139.0890 C   0  0  0  0  0  2  0  0  0  0  0  0
  183.4600  177.4810  138.5060 C   0  0  1  0  0  3  0  0  0  0  0  0
  182.2640  176.6040  138.3150 C   0  0  0  0  0  3  0  0  0  0  0  0
  186.1060  179.0990  141.1430 C   0  0  0  0  0  2  0  0  0  0  0  0
  184.2080  177.8790  141.8830 O   0  0  0  0  0  0  0  0  0  0  0  0
  185.3780  178.2670  142.1490 C   0  0  0  0  0  0  0  0  0  0  0  0
  187.0090  177.5090  146.0170 N   0  0  0  0  0  0  0  0  0  0  0  0
  185.0540  177.7910  144.5820 C   0  0  0  0  0  2  0  0  0  0  0  0
  188.1330  177.6090  142.6670 O   0  0  0  0  0  0  0  0  0  0  0  0
  187.5540  177.8780  147.3100 C   0  0  0  0  0  1  0  0  0  0  0  0
  185.7350  178.2140  145.8820 C   0  0  0  0  0  2  0  0  0  0  0  0
  187.3660  177.8540  143.6350 C   0  0  0  0  0  0  0  0  0  0  0  0
  185.9470  178.0020  143.4410 N   0  0  0  0  0  0  0  0  0  0  0  0
  187.9370  178.0210  145.0100 C   0  0  0  0  0  2  0  0  0  0  0  0
  1 14  2  0  0  0  0
  1  6  1  0  0  0  0
  2  5  1  1  0  0  0
  2 13  1  0  0  0  0
  3  2  1  0  0  0  0
  3  7  1  1  0  0  0
  3 19  1  0  0  0  0
  4  7  1  0  0  0  0
  4 15  1  0  0  0  0
  5 16  2  0  0  0  0
  6 17  2  0  0  0  0
  8 21  1  0  0  0  0
  9  1  1  0  0  0  0
 10 19  1  0  0  0  0
 10 18  1  0  0  0  0
 11  4  1  0  0  0  0
 12  8  1  0  0  0  0
 13 18  1  1  0  0  0
 13  8  1  0  0  0  0
 14  5  1  0  0  0  0
 15 20  2  0  0  0  0
 16 12  1  0  0  0  0
 17 16  1  0  0  0  0
 19 20  1  6  0  0  0
 21 23  1  0  0  0  0
 22 23  2  0  0  0  0
 23 30  1  0  0  0  0
 24 27  1  0  0  0  0
 25 28  1  0  0  0  0
 26 29  2  0  0  0  0
 28 24  1  0  0  0  0
 29 31  1  0  0  0  0
 30 29  1  0  0  0  0
 30 25  1  0  0  0  0
 31 24  1  0  0  0  0
M  END
>  <MODEL>
3

>  <REMARK>
 VINA RESULT:      -5.5      3.491      6.421
  Name = 
  2 active torsions:
  status: ('A' for Active; 'I' for Inactive)
    1  A    between atoms: C_5  and  C_16
    2  A    between atoms: N_10  and  C_16
                            x       y       z     vdW  Elec       q    Type
                         _______ _______ _______ _____ _____    ______ ____

>  <TORSDO>
F 2

$$$$
=
 OpenBabel11122411013D

 31 35  0  0  1  0  0  0  0  0999 V2000
  191.3210  177.3800  140.1970 C   0  0  0  0  0  0  0  0  0  0  0  0
  188.8610  177.9880  137.3620 C   0  0  2  0  0  3  0  0  0  0  0  0
  188.8720  176.6830  136.5240 C   0  0  1  0  0  3  0  0  0  0  0  0
  188.8870  174.2330  136.3560 N   0  0  0  0  0  0  0  0  0  0  0  0
  189.4310  177.8300  138.7460 C   0  0  0  0  0  0  0  0  0  0  0  0
  190.4800  177.4330  141.3120 C   0  0  0  0  0  3  0  0  0  0  0  0
  188.9200  175.3590  137.2960 C   0  0  0  0  0  2  0  0  0  0  0  0
  186.6280  177.9570  138.3780 N   0  0  0  0  0  0  0  0  0  0  0  0
  192.6770  177.1280  140.3600 O   0  0  0  0  0  1  0  0  0  0  0  0
  187.4600  177.8710  135.0090 O   0  0  0  0  0  0  0  0  0  0  0  0
  189.3620  172.9350  136.7980 C   0  0  0  0  0  1  0  0  0  0  0  0
  187.1380  178.2530  139.7200 C   0  0  0  0  0  2  0  0  0  0  0  0
  187.4700  178.6640  137.3950 C   0  0  2  0  0  3  0  0  0  0  0  0
  190.7990  177.5790  138.9160 C   0  0  0  0  0  3  0  0  0  0  0  0
  188.3520  174.3650  135.0250 C   0  0  0  0  0  3  0  0  0  0  0  0
  188.5840  177.8740  139.8710 C   0  0  0  0  0  0  0  0  0  0  0  0
  189.1150  177.6870  141.1490 C   0  0  0  0  0  3  0  0  0  0  0  0
  186.8260  178.6920  135.9720 C   0  0  0  0  0  2  0  0  0  0  0  0
  187.6510  176.6250  135.6130 C   0  0  1  0  0  3  0  0  0  0  0  0
  187.7920  175.5110  134.6260 C   0  0  0  0  0  3  0  0  0  0  0  0
  185.2610  178.4690  138.3440 C   0  0  0  0  0  2  0  0  0  0  0  0
  184.5160  176.3690  137.5230 O   0  0  0  0  0  0  0  0  0  0  0  0
  184.3030  177.3220  138.3200 C   0  0  0  0  0  0  0  0  0  0  0  0
  180.6930  177.3840  140.5920 N   0  0  0  0  0  0  0  0  0  0  0  0
  181.9230  176.6190  138.6270 C   0  0  0  0  0  2  0  0  0  0  0  0
  184.0880  178.2620  141.0330 O   0  0  0  0  0  0  0  0  0  0  0  0
  179.4150  177.9230  141.0160 C   0  0  0  0  0  1  0  0  0  0  0  0
  180.6420  177.2770  139.1360 C   0  0  0  0  0  2  0  0  0  0  0  0
  183.0390  177.9930  140.3910 C   0  0  0  0  0  0  0  0  0  0  0  0
  183.1000  177.3460  139.1060 N   0  0  0  0  0  0  0  0  0  0  0  0
  181.7060  178.3750  140.9550 C   0  0  0  0  0  2  0  0  0  0  0  0
  1  9  1  0  0  0  0
  1  6  1  0  0  0  0
  2 13  1  0  0  0  0
  2  5  1  1  0  0  0
  3  7  1  1  0  0  0
  3  2  1  0  0  0  0
  4 11  1  0  0  0  0
  4  7  1  0  0  0  0
  5 14  1  0  0  0  0
  5 16  2  0  0  0  0
  8 12  1  0  0  0  0
 10 19  1  0  0  0  0
 10 18  1  0  0  0  0
 12 16  1  0  0  0  0
 13 18  1  6  0  0  0
 13  8  1  0  0  0  0
 14  1  2  0  0  0  0
 15  4  1  0  0  0  0
 16 17  1  0  0  0  0
 17  6  2  0  0  0  0
 19 20  1  6  0  0  0
 19  3  1  0  0  0  0
 20 15  2  0  0  0  0
 21  8  1  0  0  0  0
 22 23  2  0  0  0  0
 23 21  1  0  0  0  0
 23 30  1  0  0  0  0
 24 31  1  0  0  0  0
 24 27  1  0  0  0  0
 25 30  1  0  0  0  0
 25 28  1  0  0  0  0
 28 24  1  0  0  0  0
 29 31  1  0  0  0  0
 29 26  2  0  0  0  0
 30 29  1  0  0  0  0
M  END
>  <MODEL>
4

>  <REMARK>
 VINA RESULT:      -5.5      3.747      5.381
  Name = 
  2 active torsions:
  status: ('A' for Active; 'I' for Inactive)
    1  A    between atoms: C_5  and  C_16
    2  A    between atoms: N_10  and  C_16
                            x       y       z     vdW  Elec       q    Type
                         _______ _______ _______ _____ _____    ______ ____

>  <TORSDO>
F 2

$$$$
=
 OpenBabel11122411013D

 31 35  0  0  1  0  0  0  0  0999 V2000
  183.1270  177.5210  135.8930 C   0  0  0  0  0  0  0  0  0  0  0  0
  181.8030  178.4000  139.3470 C   0  0  2  0  0  3  0  0  0  0  0  0
  180.7480  177.3090  139.6700 C   0  0  1  0  0  3  0  0  0  0  0  0
  180.0020  174.9690  139.6740 N   0  0  0  0  0  0  0  0  0  0  0  0
  182.7440  178.0280  138.2330 C   0  0  0  0  0  0  0  0  0  0  0  0
  184.4660  177.2360  136.1720 C   0  0  0  0  0  3  0  0  0  0  0  0
  181.0860  175.8700  139.2640 C   0  0  0  0  0  2  0  0  0  0  0  0
  183.6110  177.8810  140.9230 N   0  0  0  0  0  0  0  0  0  0  0  0
  182.6480  177.4110  134.5940 O   0  0  0  0  0  1  0  0  0  0  0  0
  180.2890  178.6040  141.6230 O   0  0  0  0  0  0  0  0  0  0  0  0
  179.8790  173.6770  139.0270 C   0  0  0  0  0  1  0  0  0  0  0  0
  184.6490  177.9510  139.8900 C   0  0  0  0  0  2  0  0  0  0  0  0
  182.5700  178.8760  140.6030 C   0  0  2  0  0  3  0  0  0  0  0  0
  182.2660  177.9170  136.9210 C   0  0  0  0  0  3  0  0  0  0  0  0
  179.0870  175.3090  140.7340 C   0  0  0  0  0  3  0  0  0  0  0  0
  184.0920  177.7300  138.5130 C   0  0  0  0  0  0  0  0  0  0  0  0
  184.9490  177.3480  137.4780 C   0  0  0  0  0  3  0  0  0  0  0  0
  181.5950  179.1210  141.7980 C   0  0  0  0  0  2  0  0  0  0  0  0
  180.4390  177.2930  141.1630 C   0  0  1  0  0  3  0  0  0  0  0  0
  179.2450  176.4360  141.4360 C   0  0  0  0  0  3  0  0  0  0  0  0
  184.2700  178.2160  142.1820 C   0  0  0  0  0  2  0  0  0  0  0  0
  185.6360  179.9030  141.2190 O   0  0  0  0  0  0  0  0  0  0  0  0
  185.5980  178.8400  141.8940 C   0  0  0  0  0  0  0  0  0  0  0  0
  189.2470  176.9110  142.9720 N   0  0  0  0  0  0  0  0  0  0  0  0
  188.0270  178.4140  141.4850 C   0  0  0  0  0  2  0  0  0  0  0  0
  186.0660  177.4940  144.3970 O   0  0  0  0  0  0  0  0  0  0  0  0
  190.2080  175.8230  142.9790 C   0  0  0  0  0  1  0  0  0  0  0  0
  188.9590  177.2070  141.5700 C   0  0  0  0  0  2  0  0  0  0  0  0
  186.9160  177.3890  143.4740 C   0  0  0  0  0  0  0  0  0  0  0  0
  186.8200  178.1890  142.2810 N   0  0  0  0  0  0  0  0  0  0  0  0
  188.0310  176.3990  143.6020 C   0  0  0  0  0  2  0  0  0  0  0  0
  1  6  2  0  0  0  0
  1 14  1  0  0  0  0
  2  5  1  6  0  0  0
  2  3  1  0  0  0  0
  2 13  1  0  0  0  0
  3  7  1  1  0  0  0
  3 19  1  0  0  0  0
  4 15  1  0  0  0  0
  5 16  1  0  0  0  0
  6 17  1  0  0  0  0
  7  4  1  0  0  0  0
  8 21  1  0  0  0  0
  9  1  1  0  0  0  0
 10 18  1  0  0  0  0
 11  4  1  0  0  0  0
 12  8  1  0  0  0  0
 13  8  1  0  0  0  0
 13 18  1  1  0  0  0
 14  5  2  0  0  0  0
 15 20  2  0  0  0  0
 16 12  1  0  0  0  0
 17 16  2  0  0  0  0
 19 20  1  6  0  0  0
 19 10  1  0  0  0  0
 22 23  2  0  0  0  0
 23 21  1  0  0  0  0
 23 30  1  0  0  0  0
 24 27  1  0  0  0  0
 24 31  1  0  0  0  0
 25 28  1  0  0  0  0
 25 30  1  0  0  0  0
 28 24  1  0  0  0  0
 29 31  1  0  0  0  0
 29 26  2  0  0  0  0
 30 29  1  0  0  0  0
M  END
>  <MODEL>
5

>  <REMARK>
 VINA RESULT:      -5.4      2.583      6.565
  Name = 
  2 active torsions:
  status: ('A' for Active; 'I' for Inactive)
    1  A    between atoms: C_5  and  C_16
    2  A    between atoms: N_10  and  C_16
                            x       y       z     vdW  Elec       q    Type
                         _______ _______ _______ _____ _____    ______ ____

>  <TORSDO>
F 2

$$$$
=
 OpenBabel11122411013D

 31 35  0  0  1  0  0  0  0  0999 V2000
  183.5980  178.7020  142.4570 C   0  0  0  0  0  0  0  0  0  0  0  0
  183.2720  177.5200  138.8580 C   0  0  2  0  0  3  0  0  0  0  0  0
  182.2320  178.4690  138.2080 C   0  0  1  0  0  3  0  0  0  0  0  0
  181.2880  180.7090  137.8510 N   0  0  0  0  0  0  0  0  0  0  0  0
  183.8640  178.0470  140.1380 C   0  0  0  0  0  0  0  0  0  0  0  0
  184.9310  179.1220  142.4930 C   0  0  0  0  0  3  0  0  0  0  0  0
  182.3170  179.9550  138.5780 C   0  0  0  0  0  2  0  0  0  0  0  0
  185.3580  178.1620  137.7370 N   0  0  0  0  0  0  0  0  0  0  0  0
  182.8010  178.8200  143.5880 O   0  0  0  0  0  1  0  0  0  0  0  0
  182.4030  177.0410  136.3030 O   0  0  0  0  0  0  0  0  0  0  0  0
  180.8840  182.0080  138.3520 C   0  0  0  0  0  1  0  0  0  0  0  0
  186.1070  178.2570  138.9940 C   0  0  0  0  0  2  0  0  0  0  0  0
  184.3720  177.0740  137.8660 C   0  0  2  0  0  3  0  0  0  0  0  0
  183.0640  178.1650  141.2820 C   0  0  0  0  0  3  0  0  0  0  0  0
  180.7050  180.2200  136.6270 C   0  0  0  0  0  3  0  0  0  0  0  0
  185.2030  178.4790  140.1740 C   0  0  0  0  0  0  0  0  0  0  0  0
  185.7340  179.0030  141.3560 C   0  0  0  0  0  3  0  0  0  0  0  0
  183.7550  176.6650  136.4900 C   0  0  0  0  0  2  0  0  0  0  0  0
  182.3060  178.3810  136.6880 C   0  0  1  0  0  3  0  0  0  0  0  0
  181.1420  179.0860  136.0700 C   0  0  0  0  0  3  0  0  0  0  0  0
  186.3410  177.8430  136.7050 C   0  0  0  0  0  2  0  0  0  0  0  0
  188.0910  179.0030  137.8150 O   0  0  0  0  0  0  0  0  0  0  0  0
  187.7150  177.9200  137.2900 C   0  0  0  0  0  0  0  0  0  0  0  0
  190.4950  174.7110  136.8810 N   0  0  0  0  0  0  0  0  0  0  0  0
  190.0720  177.1030  137.1250 C   0  0  0  0  0  2  0  0  0  0  0  0
  187.0590  175.1330  137.5940 O   0  0  0  0  0  0  0  0  0  0  0  0
  191.2950  173.7500  136.1450 C   0  0  0  0  0  1  0  0  0  0  0  0
  190.8070  176.0270  136.3270 C   0  0  0  0  0  2  0  0  0  0  0  0
  188.1950  175.4530  137.1550 C   0  0  0  0  0  0  0  0  0  0  0  0
  188.6350  176.8240  137.1630 N   0  0  0  0  0  0  0  0  0  0  0  0
  189.0960  174.3990  136.5900 C   0  0  0  0  0  2  0  0  0  0  0  0
  1  6  1  0  0  0  0
  1  9  1  0  0  0  0
  2  5  1  1  0  0  0
  3  7  1  6  0  0  0
  3  2  1  0  0  0  0
  4 11  1  0  0  0  0
  4  7  1  0  0  0  0
  5 16  2  0  0  0  0
  5 14  1  0  0  0  0
  8 13  1  0  0  0  0
  8 12  1  0  0  0  0
 10 18  1  0  0  0  0
 10 19  1  0  0  0  0
 12 16  1  0  0  0  0
 13 18  1  6  0  0  0
 13  2  1  0  0  0  0
 14  1  2  0  0  0  0
 15  4  1  0  0  0  0
 16 17  1  0  0  0  0
 17  6  2  0  0  0  0
 19 20  1  6  0  0  0
 19  3  1  0  0  0  0
 20 15  2  0  0  0  0
 21 23  1  0  0  0  0
 21  8  1  0  0  0  0
 23 22  2  0  0  0  0
 25 30  1  0  0  0  0
 27 24  1  0  0  0  0
 28 24  1  0  0  0  0
 28 25  1  0  0  0  0
 29 30  1  0  0  0  0
 29 26  2  0  0  0  0
 30 23  1  0  0  0  0
 31 24  1  0  0  0  0
 31 29  1  0  0  0  0
M  END
>  <MODEL>
6

>  <REMARK>
 VINA RESULT:      -5.0      3.372      6.730
  Name = 
  2 active torsions:
  status: ('A' for Active; 'I' for Inactive)
    1  A    between atoms: C_5  and  C_16
    2  A    between atoms: N_10  and  C_16
                            x       y       z     vdW  Elec       q    Type
                         _______ _______ _______ _____ _____    ______ ____

>  <TORSDO>
F 2

$$$$
=
 OpenBabel11122411013D

 31 35  0  0  1  0  0  0  0  0999 V2000
  190.6810  177.3920  141.3380 C   0  0  0  0  0  0  0  0  0  0  0  0
  189.0870  178.2170  137.9860 C   0  0  2  0  0  3  0  0  0  0  0  0
  189.3740  176.9890  137.0830 C   0  0  1  0  0  3  0  0  0  0  0  0
  189.5200  174.5630  136.7310 N   0  0  0  0  0  0  0  0  0  0  0  0
  189.2540  177.9460  139.4570 C   0  0  0  0  0  0  0  0  0  0  0  0
  189.5630  177.3400  142.1730 C   0  0  0  0  0  3  0  0  0  0  0  0
  189.2520  175.6050  137.7290 C   0  0  0  0  0  2  0  0  0  0  0  0
  186.6610  178.0740  138.3300 N   0  0  0  0  0  0  0  0  0  0  0  0
  191.9460  177.1420  141.8530 O   0  0  0  0  0  1  0  0  0  0  0  0
  188.3990  178.2890  135.3330 O   0  0  0  0  0  0  0  0  0  0  0  0
  189.8980  173.2380  137.1820 C   0  0  0  0  0  1  0  0  0  0  0  0
  186.7680  178.2590  139.7810 C   0  0  0  0  0  2  0  0  0  0  0  0
  187.7180  178.8720  137.6820 C   0  0  2  0  0  3  0  0  0  0  0  0
  190.5290  177.6960  139.9810 C   0  0  0  0  0  3  0  0  0  0  0  0
  189.3710  174.8030  135.3180 C   0  0  0  0  0  3  0  0  0  0  0  0
  188.1280  177.8830  140.2990 C   0  0  0  0  0  0  0  0  0  0  0  0
  188.2890  177.5930  141.6560 C   0  0  0  0  0  3  0  0  0  0  0  0
  187.4940  179.0170  136.1430 C   0  0  0  0  0  2  0  0  0  0  0  0
  188.4580  176.9970  135.8650 C   0  0  1  0  0  3  0  0  0  0  0  0
  188.9060  175.9740  134.8710 C   0  0  0  0  0  3  0  0  0  0  0  0
  185.3410  178.5730  137.9560 C   0  0  0  0  0  2  0  0  0  0  0  0
  183.5010  177.6130  139.1110 O   0  0  0  0  0  0  0  0  0  0  0  0
  184.3270  177.4940  138.1660 C   0  0  0  0  0  0  0  0  0  0  0  0
  184.4120  173.8830  135.8980 N   0  0  0  0  0  0  0  0  0  0  0  0
  183.8520  175.0480  137.9690 C   0  0  0  0  0  2  0  0  0  0  0  0
  184.8220  177.3480  135.3330 O   0  0  0  0  0  0  0  0  0  0  0  0
  185.0130  172.6660  135.3840 C   0  0  0  0  0  1  0  0  0  0  0  0
  184.5550  173.8400  137.3520 C   0  0  0  0  0  2  0  0  0  0  0  0
  184.7820  176.2840  136.0060 C   0  0  0  0  0  0  0  0  0  0  0  0
  184.3540  176.2910  137.3810 N   0  0  0  0  0  0  0  0  0  0  0  0
  185.2100  174.9930  135.3810 C   0  0  0  0  0  2  0  0  0  0  0  0
  1  9  1  0  0  0  0
  1  6  1  0  0  0  0
  2  5  1  1  0  0  0
  3  7  1  1  0  0  0
  3  2  1  0  0  0  0
  4 11  1  0  0  0  0
  4  7  1  0  0  0  0
  5 14  1  0  0  0  0
  5 16  2  0  0  0  0
  8 12  1  0  0  0  0
 10 19  1  0  0  0  0
 10 18  1  0  0  0  0
 12 16  1  0  0  0  0
 13 18  1  6  0  0  0
 13  2  1  0  0  0  0
 13  8  1  0  0  0  0
 14  1  2  0  0  0  0
 15  4  1  0  0  0  0
 16 17  1  0  0  0  0
 17  6  2  0  0  0  0
 19 20  1  6  0  0  0
 19  3  1  0  0  0  0
 20 15  2  0  0  0  0
 21 23  1  0  0  0  0
 21  8  1  0  0  0  0
 23 22  2  0  0  0  0
 24 28  1  0  0  0  0
 26 29  2  0  0  0  0
 27 24  1  0  0  0  0
 28 25  1  0  0  0  0
 29 30  1  0  0  0  0
 30 25  1  0  0  0  0
 30 23  1  0  0  0  0
 31 24  1  0  0  0  0
 31 29  1  0  0  0  0
M  END
>  <MODEL>
7

>  <REMARK>
 VINA RESULT:      -5.0      3.836      5.679
  Name = 
  2 active torsions:
  status: ('A' for Active; 'I' for Inactive)
    1  A    between atoms: C_5  and  C_16
    2  A    between atoms: N_10  and  C_16
                            x       y       z     vdW  Elec       q    Type
                         _______ _______ _______ _____ _____    ______ ____

>  <TORSDO>
F 2

$$$$
=
 OpenBabel11122411013D

 31 35  0  0  1  0  0  0  0  0999 V2000
  180.5650  179.1320  142.1580 C   0  0  0  0  0  0  0  0  0  0  0  0
  181.0340  178.0760  138.5360 C   0  0  2  0  0  3  0  0  0  0  0  0
  180.6930  179.3340  137.6950 C   0  0  1  0  0  3  0  0  0  0  0  0
  180.8140  181.7550  137.2960 N   0  0  0  0  0  0  0  0  0  0  0  0
  181.3200  178.3680  139.9840 C   0  0  0  0  0  0  0  0  0  0  0  0
  181.8660  179.0120  142.6540 C   0  0  0  0  0  3  0  0  0  0  0  0
  181.1910  180.6830  138.2260 C   0  0  0  0  0  2  0  0  0  0  0  0
  183.4540  177.8460  138.1990 N   0  0  0  0  0  0  0  0  0  0  0  0
  179.5420  179.5720  142.9880 O   0  0  0  0  0  1  0  0  0  0  0  0
  180.9460  177.9020  135.8010 O   0  0  0  0  0  0  0  0  0  0  0  0
  180.7740  183.1220  137.7780 C   0  0  0  0  0  1  0  0  0  0  0  0
  183.7250  177.6790  139.6310 C   0  0  0  0  0  2  0  0  0  0  0  0
  182.1540  177.2200  137.8970 C   0  0  2  0  0  3  0  0  0  0  0  0
  180.2910  178.8100  140.8260 C   0  0  0  0  0  3  0  0  0  0  0  0
  180.5300  181.4950  135.9070 C   0  0  0  0  0  3  0  0  0  0  0  0
  182.6320  178.2570  140.4840 C   0  0  0  0  0  0  0  0  0  0  0  0
  182.8960  178.5680  141.8200 C   0  0  0  0  0  3  0  0  0  0  0  0
  181.9210  177.0440  136.3630 C   0  0  0  0  0  2  0  0  0  0  0  0
  181.2260  179.1870  136.2750 C   0  0  1  0  0  3  0  0  0  0  0  0
  180.6770  180.2670  135.4000 C   0  0  0  0  0  3  0  0  0  0  0  0
  184.5320  177.1520  137.5000 C   0  0  0  0  0  2  0  0  0  0  0  0
  185.7920  178.9780  138.3460 O   0  0  0  0  0  0  0  0  0  0  0  0
  185.8170  177.8840  137.7200 C   0  0  0  0  0  0  0  0  0  0  0  0
  189.4680  176.5580  135.9590 N   0  0  0  0  0  0  0  0  0  0  0  0
  188.0840  178.3870  136.7960 C   0  0  0  0  0  2  0  0  0  0  0  0
  186.6740  175.1380  137.5930 O   0  0  0  0  0  0  0  0  0  0  0  0
  190.3370  176.1770  134.8610 C   0  0  0  0  0  1  0  0  0  0  0  0
  188.9320  177.8770  135.6310 C   0  0  0  0  0  2  0  0  0  0  0  0
  187.3180  176.0140  136.9570 C   0  0  0  0  0  0  0  0  0  0  0  0
  187.0440  177.4160  137.1380 N   0  0  0  0  0  0  0  0  0  0  0  0
  188.3680  175.5950  135.9750 C   0  0  0  0  0  2  0  0  0  0  0  0
  1  6  1  0  0  0  0
  1  9  1  0  0  0  0
  2  5  1  1  0  0  0
  3  7  1  1  0  0  0
  3  2  1  0  0  0  0
  4 11  1  0  0  0  0
  4  7  1  0  0  0  0
  5 16  2  0  0  0  0
  5 14  1  0  0  0  0
  8 12  1  0  0  0  0
 10 19  1  0  0  0  0
 10 18  1  0  0  0  0
 12 16  1  0  0  0  0
 13 18  1  6  0  0  0
 13  8  1  0  0  0  0
 13  2  1  0  0  0  0
 14  1  2  0  0  0  0
 15  4  1  0  0  0  0
 16 17  1  0  0  0  0
 17  6  2  0  0  0  0
 19 20  1  6  0  0  0
 19  3  1  0  0  0  0
 20 15  2  0  0  0  0
 21 23  1  0  0  0  0
 21  8  1  0  0  0  0
 23 22  2  0  0  0  0
 24 31  1  0  0  0  0
 25 30  1  0  0  0  0
 27 24  1  0  0  0  0
 28 24  1  0  0  0  0
 28 25  1  0  0  0  0
 29 30  1  0  0  0  0
 29 26  2  0  0  0  0
 30 23  1  0  0  0  0
 31 29  1  0  0  0  0
M  END
>  <MODEL>
8

>  <REMARK>
 VINA RESULT:      -5.0      3.062      6.531
  Name = 
  2 active torsions:
  status: ('A' for Active; 'I' for Inactive)
    1  A    between atoms: C_5  and  C_16
    2  A    between atoms: N_10  and  C_16
                            x       y       z     vdW  Elec       q    Type
                         _______ _______ _______ _____ _____    ______ ____

>  <TORSDO>
F 2

$$$$
=
 OpenBabel11122411013D

 31 35  0  0  1  0  0  0  0  0999 V2000
  190.1420  173.2840  135.5390 C   0  0  0  0  0  0  0  0  0  0  0  0
  187.3680  175.8820  135.4250 C   0  0  2  0  0  3  0  0  0  0  0  0
  186.0470  175.0720  135.4790 C   0  0  1  0  0  3  0  0  0  0  0  0
  184.6770  173.2440  136.3830 N   0  0  0  0  0  0  0  0  0  0  0  0
  188.5780  175.1070  135.8730 C   0  0  0  0  0  0  0  0  0  0  0  0
  190.7670  173.5960  136.7500 C   0  0  0  0  0  3  0  0  0  0  0  0
  186.0040  173.8700  136.4300 C   0  0  0  0  0  2  0  0  0  0  0  0
  187.3970  177.0080  137.6050 N   0  0  0  0  0  0  0  0  0  0  0  0
  190.6050  172.2240  134.7710 O   0  0  0  0  0  1  0  0  0  0  0  0
  184.9680  177.1740  135.1320 O   0  0  0  0  0  0  0  0  0  0  0  0
  184.5310  171.8730  136.8310 C   0  0  0  0  0  1  0  0  0  0  0  0
  188.7850  176.6230  137.8840 C   0  0  0  0  0  2  0  0  0  0  0  0
  187.2630  177.2420  136.1550 C   0  0  2  0  0  3  0  0  0  0  0  0
  189.0500  174.0380  135.1000 C   0  0  0  0  0  3  0  0  0  0  0  0
  183.5070  173.9670  135.9520 C   0  0  0  0  0  3  0  0  0  0  0  0
  189.2030  175.4130  137.0970 C   0  0  0  0  0  0  0  0  0  0  0  0
  190.3020  174.6640  137.5230 C   0  0  0  0  0  3  0  0  0  0  0  0
  185.9320  177.9740  135.7920 C   0  0  0  0  0  2  0  0  0  0  0  0
  184.8800  175.9800  135.8530 C   0  0  1  0  0  3  0  0  0  0  0  0
  183.5820  175.2670  135.6500 C   0  0  0  0  0  3  0  0  0  0  0  0
  187.1650  178.2450  138.3470 C   0  0  0  0  0  2  0  0  0  0  0  0
  189.4250  178.6280  138.9680 O   0  0  0  0  0  0  0  0  0  0  0  0
  188.2460  178.4210  139.3650 C   0  0  0  0  0  0  0  0  0  0  0  0
  187.5020  177.8650  143.5280 N   0  0  0  0  0  0  0  0  0  0  0  0
  189.0530  177.7860  141.6440 C   0  0  0  0  0  2  0  0  0  0  0  0
  185.9130  179.3770  140.7560 O   0  0  0  0  0  0  0  0  0  0  0  0
  187.0710  177.1260  144.7000 C   0  0  0  0  0  1  0  0  0  0  0  0
  188.4790  177.0250  142.8380 C   0  0  0  0  0  2  0  0  0  0  0  0
  186.7100  178.6030  141.3490 C   0  0  0  0  0  0  0  0  0  0  0  0
  187.9780  178.2510  140.7660 N   0  0  0  0  0  0  0  0  0  0  0  0
  186.3260  178.0150  142.6720 C   0  0  0  0  0  2  0  0  0  0  0  0
  1  6  1  0  0  0  0
  2  3  1  0  0  0  0
  2  5  1  1  0  0  0
  2 13  1  0  0  0  0
  3 19  1  0  0  0  0
  3  7  1  1  0  0  0
  4  7  1  0  0  0  0
  4 11  1  0  0  0  0
  5 16  2  0  0  0  0
  6 17  2  0  0  0  0
  8 12  1  0  0  0  0
  8 21  1  0  0  0  0
  9  1  1  0  0  0  0
 10 18  1  0  0  0  0
 10 19  1  0  0  0  0
 13 18  1  1  0  0  0
 13  8  1  0  0  0  0
 14  1  2  0  0  0  0
 14  5  1  0  0  0  0
 15  4  1  0  0  0  0
 16 17  1  0  0  0  0
 16 12  1  0  0  0  0
 19 20  1  6  0  0  0
 20 15  2  0  0  0  0
 21 23  1  0  0  0  0
 22 23  2  0  0  0  0
 23 30  1  0  0  0  0
 24 27  1  0  0  0  0
 25 28  1  0  0  0  0
 26 29  2  0  0  0  0
 28 24  1  0  0  0  0
 29 31  1  0  0  0  0
 30 29  1  0  0  0  0
 30 25  1  0  0  0  0
 31 24  1  0  0  0  0
M  END
>  <MODEL>
9

>  <REMARK>
 VINA RESULT:      -4.9      4.614      7.541
  Name = 
  2 active torsions:
  status: ('A' for Active; 'I' for Inactive)
    1  A    between atoms: C_5  and  C_16
    2  A    between atoms: N_10  and  C_16
                            x       y       z     vdW  Elec       q    Type
                         _______ _______ _______ _____ _____    ______ ____

>  <TORSDO>
F 2

$$$$
