=
 OpenBabel11122411573D

 28 32  0  0  1  0  0  0  0  0999 V2000
  185.3310  174.8640  136.7720 C   0  0  0  0  0  0  0  0  0  0  0  0
  183.1090  177.9560  140.3950 C   0  0  0  0  0  1  0  0  0  0  0  0
  181.3260  174.4730  134.7260 O   0  0  0  0  0  0  0  0  0  0  0  0
  185.9230  176.5840  134.6420 C   0  0  0  0  0  3  0  0  0  0  0  0
  181.2100  176.7000  135.6590 C   0  0  1  0  0  3  0  0  0  0  0  0
  185.0010  173.9930  137.8120 O   0  0  0  0  0  0  0  0  0  0  0  0
  185.3630  178.6340  139.6540 C   0  0  0  0  0  1  0  0  0  0  0  0
  183.8860  178.7040  139.3160 C   0  0  0  0  0  0  0  0  0  0  0  0
  182.2900  180.4690  138.7160 C   0  0  0  0  0  0  0  0  0  0  0  0
  183.6540  178.1010  137.9120 C   0  0  2  0  0  3  0  0  0  0  0  0
  183.0870  171.9410  135.8980 O   0  0  0  0  0  0  0  0  0  0  0  0
  182.3890  176.0190  137.7270 C   0  0  1  0  0  3  0  0  0  0  0  0
  181.4330  179.4470  138.0440 C   0  0  0  0  0  2  0  0  0  0  0  0
  183.4870  180.0740  139.3130 O   0  0  0  0  0  0  0  0  0  0  0  0
  183.2630  172.6500  136.8750 C   0  0  0  0  0  0  0  0  0  0  0  0
  184.7800  176.1580  136.7510 C   0  0  0  0  0  0  0  0  0  0  0  0
  181.6030  175.2730  135.6600 C   0  0  0  0  0  0  0  0  0  0  0  0
  181.9230  181.6710  138.7660 O   0  0  0  0  0  0  0  0  0  0  0  0
  182.1500  173.5180  137.3760 C   0  0  0  0  0  2  0  0  0  0  0  0
  185.0800  177.0070  135.6710 C   0  0  0  0  0  3  0  0  0  0  0  0
  186.1680  174.4400  135.7300 C   0  0  0  0  0  3  0  0  0  0  0  0
  186.4670  175.2990  134.6720 C   0  0  0  0  0  3  0  0  0  0  0  0
  184.5950  172.6540  137.5590 C   0  0  0  0  0  2  0  0  0  0  0  0
  181.5320  177.1290  137.1100 C   0  0  1  0  0  3  0  0  0  0  0  0
  182.2720  174.8700  136.8420 N   0  0  0  0  0  0  0  0  0  0  0  0
  182.2920  178.4410  137.2690 C   0  0  2  0  0  3  0  0  0  0  0  0
  182.0050  177.4460  134.5940 C   0  0  0  0  0  1  0  0  0  0  0  0
  183.8190  176.5810  137.8470 C   0  0  1  0  0  3  0  0  0  0  0  0
  1  6  1  0  0  0  0
  3 17  2  0  0  0  0
  4 22  2  0  0  0  0
  4 20  1  0  0  0  0
  5 27  1  6  0  0  0
  5 17  1  0  0  0  0
  5 24  1  0  0  0  0
  8  7  1  0  0  0  0
  8  2  1  0  0  0  0
  9 18  2  0  0  0  0
  9 14  1  0  0  0  0
 10  8  1  1  0  0  0
 11 15  2  0  0  0  0
 12 25  1  6  0  0  0
 12 28  1  0  0  0  0
 13  9  1  0  0  0  0
 14  8  1  0  0  0  0
 15 19  1  0  0  0  0
 15 23  1  0  0  0  0
 16  1  1  0  0  0  0
 16 28  1  0  0  0  0
 17 25  1  0  0  0  0
 20 16  2  0  0  0  0
 21  1  2  0  0  0  0
 22 21  1  0  0  0  0
 23  6  1  0  0  0  0
 24 26  1  0  0  0  0
 24 12  1  0  0  0  0
 25 19  1  0  0  0  0
 26 10  1  0  0  0  0
 26 13  1  0  0  0  0
 28 10  1  0  0  0  0
M  END
>  <MODEL>
1

>  <REMARK>
 VINA RESULT:      -4.9      0.000      0.000
  Name = 
  0 active torsions:
  status: ('A' for Active; 'I' for Inactive)
                            x       y       z     vdW  Elec       q    Type
                         _______ _______ _______ _____ _____    ______ ____

>  <TORSDO>
F 0

$$$$
=
 OpenBabel11122411573D

 28 32  0  0  1  0  0  0  0  0999 V2000
  179.8170  180.0190  139.5950 C   0  0  0  0  0  0  0  0  0  0  0  0
  179.7540  174.9260  138.2970 C   0  0  0  0  0  1  0  0  0  0  0  0
  183.5850  179.3110  141.9790 O   0  0  0  0  0  0  0  0  0  0  0  0
  181.5570  181.1990  137.7450 C   0  0  0  0  0  3  0  0  0  0  0  0
  183.7980  177.6980  140.1910 C   0  0  1  0  0  3  0  0  0  0  0  0
  178.9810  179.4320  140.5470 O   0  0  0  0  0  0  0  0  0  0  0  0
  179.1230  176.4930  136.4970 C   0  0  0  0  0  1  0  0  0  0  0  0
  180.2970  175.8490  137.2110 C   0  0  0  0  0  0  0  0  0  0  0  0
  182.3340  174.6530  136.5430 C   0  0  0  0  0  0  0  0  0  0  0  0
  181.2090  176.9540  137.7910 C   0  0  2  0  0  3  0  0  0  0  0  0
  180.7720  180.4990  143.2280 O   0  0  0  0  0  0  0  0  0  0  0  0
  181.3770  177.1770  140.2180 C   0  0  1  0  0  3  0  0  0  0  0  0
  182.9690  175.0410  137.8380 C   0  0  0  0  0  2  0  0  0  0  0  0
  181.0350  175.0780  136.2640 O   0  0  0  0  0  0  0  0  0  0  0  0
  180.2320  179.6240  142.5720 C   0  0  0  0  0  0  0  0  0  0  0  0
  180.6340  179.2030  138.7930 C   0  0  0  0  0  0  0  0  0  0  0  0
  183.0450  178.4900  141.1900 C   0  0  0  0  0  0  0  0  0  0  0  0
  182.9550  173.9300  135.7230 O   0  0  0  0  0  0  0  0  0  0  0  0
  180.8780  178.2790  142.4480 C   0  0  0  0  0  2  0  0  0  0  0  0
  181.5080  179.8100  137.8740 C   0  0  0  0  0  3  0  0  0  0  0  0
  179.8780  181.4140  139.4700 C   0  0  0  0  0  3  0  0  0  0  0  0
  180.7420  182.0020  138.5450 C   0  0  0  0  0  3  0  0  0  0  0  0
  178.9310  179.9070  141.8860 C   0  0  0  0  0  2  0  0  0  0  0  0
  182.7350  176.6810  139.7120 C   0  0  1  0  0  3  0  0  0  0  0  0
  181.6590  178.1950  141.2190 N   0  0  0  0  0  0  0  0  0  0  0  0
  182.6230  176.4890  138.2030 C   0  0  2  0  0  3  0  0  0  0  0  0
  184.3190  178.6220  139.0970 C   0  0  0  0  0  1  0  0  0  0  0  0
  180.6100  177.6970  138.9870 C   0  0  1  0  0  3  0  0  0  0  0  0
  1  6  1  0  0  0  0
  4 20  2  0  0  0  0
  4 22  1  0  0  0  0
  5 27  1  6  0  0  0
  5 17  1  0  0  0  0
  6 23  1  0  0  0  0
  7  8  1  0  0  0  0
  8  2  1  0  0  0  0
  9 13  1  0  0  0  0
 10  8  1  1  0  0  0
 10 26  1  0  0  0  0
 10 28  1  0  0  0  0
 12 25  1  1  0  0  0
 13 26  1  0  0  0  0
 14  9  1  0  0  0  0
 14  8  1  0  0  0  0
 15 11  2  0  0  0  0
 16 28  1  0  0  0  0
 16  1  2  0  0  0  0
 17 25  1  0  0  0  0
 17  3  2  0  0  0  0
 18  9  2  0  0  0  0
 19 15  1  0  0  0  0
 20 16  1  0  0  0  0
 21  1  1  0  0  0  0
 22 21  2  0  0  0  0
 23 15  1  0  0  0  0
 24  5  1  0  0  0  0
 24 12  1  0  0  0  0
 25 19  1  0  0  0  0
 26 24  1  0  0  0  0
 28 12  1  0  0  0  0
M  END
>  <MODEL>
2

>  <REMARK>
 VINA RESULT:      -4.7      2.645      6.923
  Name = 
  0 active torsions:
  status: ('A' for Active; 'I' for Inactive)
                            x       y       z     vdW  Elec       q    Type
                         _______ _______ _______ _____ _____    ______ ____

>  <TORSDO>
F 0

$$$$
=
 OpenBabel11122411573D

 28 32  0  0  1  0  0  0  0  0999 V2000
  180.9410  176.0950  136.2090 C   0  0  0  0  0  0  0  0  0  0  0  0
  186.0860  175.3780  137.0100 C   0  0  0  0  0  1  0  0  0  0  0  0
  180.5990  177.8720  140.3450 O   0  0  0  0  0  0  0  0  0  0  0  0
  180.7220  178.7560  135.3650 C   0  0  0  0  0  3  0  0  0  0  0  0
  182.8350  178.5160  139.6930 C   0  0  1  0  0  3  0  0  0  0  0  0
  181.0380  174.7800  136.6690 O   0  0  0  0  0  0  0  0  0  0  0  0
  185.4560  176.1410  134.7500 C   0  0  0  0  0  1  0  0  0  0  0  0
  185.7420  176.6010  136.1670 C   0  0  0  0  0  0  0  0  0  0  0  0
  187.1450  178.3170  137.2210 C   0  0  0  0  0  0  0  0  0  0  0  0
  184.5100  177.3560  136.7170 C   0  0  2  0  0  3  0  0  0  0  0  0
  178.9350  175.2210  139.3000 O   0  0  0  0  0  0  0  0  0  0  0  0
  183.2500  176.3570  138.5550 C   0  0  1  0  0  3  0  0  0  0  0  0
  186.2400  178.3060  138.4100 C   0  0  0  0  0  2  0  0  0  0  0  0
  186.8630  177.4830  136.1380 O   0  0  0  0  0  0  0  0  0  0  0  0
  179.9990  174.8710  138.8180 C   0  0  0  0  0  0  0  0  0  0  0  0
  182.0410  176.9600  136.3500 C   0  0  0  0  0  0  0  0  0  0  0  0
  181.6730  177.6010  139.7440 C   0  0  0  0  0  0  0  0  0  0  0  0
  188.1650  179.0520  137.2070 O   0  0  0  0  0  0  0  0  0  0  0  0
  181.2740  175.1250  139.5620 C   0  0  0  0  0  2  0  0  0  0  0  0
  181.9130  178.2960  135.9290 C   0  0  0  0  0  3  0  0  0  0  0  0
  179.7430  176.5650  135.6530 C   0  0  0  0  0  3  0  0  0  0  0  0
  179.6360  177.8900  135.2280 C   0  0  0  0  0  3  0  0  0  0  0  0
  180.0230  174.2000  137.4790 C   0  0  0  0  0  2  0  0  0  0  0  0
  183.9410  177.6080  139.1040 C   0  0  1  0  0  3  0  0  0  0  0  0
  181.9010  176.3590  139.1020 N   0  0  0  0  0  0  0  0  0  0  0  0
  184.7730  178.2090  137.9770 C   0  0  2  0  0  3  0  0  0  0  0  0
  182.4930  179.7260  138.8320 C   0  0  0  0  0  1  0  0  0  0  0  0
  183.3080  176.4590  137.0180 C   0  0  1  0  0  3  0  0  0  0  0  0
  1 16  1  0  0  0  0
  1  6  1  0  0  0  0
  4 20  1  0  0  0  0
  5 27  1  6  0  0  0
  5 17  1  0  0  0  0
  6 23  1  0  0  0  0
  7  8  1  0  0  0  0
  8  2  1  0  0  0  0
  9 13  1  0  0  0  0
 10  8  1  1  0  0  0
 10 28  1  0  0  0  0
 10 26  1  0  0  0  0
 12 25  1  6  0  0  0
 12 24  1  0  0  0  0
 14  8  1  0  0  0  0
 14  9  1  0  0  0  0
 15 11  2  0  0  0  0
 15 19  1  0  0  0  0
 16 28  1  0  0  0  0
 17  3  2  0  0  0  0
 18  9  2  0  0  0  0
 20 16  2  0  0  0  0
 21  1  2  0  0  0  0
 22  4  2  0  0  0  0
 22 21  1  0  0  0  0
 23 15  1  0  0  0  0
 24  5  1  0  0  0  0
 25 19  1  0  0  0  0
 25 17  1  0  0  0  0
 26 13  1  0  0  0  0
 26 24  1  0  0  0  0
 28 12  1  0  0  0  0
M  END
>  <MODEL>
3

>  <REMARK>
 VINA RESULT:      -4.7      2.345      4.737
  Name = 
  0 active torsions:
  status: ('A' for Active; 'I' for Inactive)
                            x       y       z     vdW  Elec       q    Type
                         _______ _______ _______ _____ _____    ______ ____

>  <TORSDO>
F 0

$$$$
=
 OpenBabel11122411573D

 28 32  0  0  1  0  0  0  0  0999 V2000
  181.2190  178.6850  137.3760 C   0  0  0  0  0  0  0  0  0  0  0  0
  180.5670  173.7360  139.0210 C   0  0  0  0  0  1  0  0  0  0  0  0
  185.6860  178.0300  137.3450 O   0  0  0  0  0  0  0  0  0  0  0  0
  181.4640  178.4790  134.5940 C   0  0  0  0  0  3  0  0  0  0  0  0
  184.8410  175.8330  136.7960 C   0  0  1  0  0  3  0  0  0  0  0  0
  181.1400  178.7920  138.7660 O   0  0  0  0  0  0  0  0  0  0  0  0
  178.9310  174.5290  137.3520 C   0  0  0  0  0  1  0  0  0  0  0  0
  180.3190  173.9450  137.5300 C   0  0  0  0  0  0  0  0  0  0  0  0
  181.5900  172.0780  136.5700 C   0  0  0  0  0  0  0  0  0  0  0  0
  181.3590  174.8990  136.8980 C   0  0  2  0  0  3  0  0  0  0  0  0
  184.1420  180.3400  139.1250 O   0  0  0  0  0  0  0  0  0  0  0  0
  182.9380  176.0460  138.3660 C   0  0  1  0  0  3  0  0  0  0  0  0
  182.8610  172.7760  136.9290 C   0  0  0  0  0  2  0  0  0  0  0  0
  180.3690  172.6840  136.8640 O   0  0  0  0  0  0  0  0  0  0  0  0
  183.3470  179.4550  139.3930 C   0  0  0  0  0  0  0  0  0  0  0  0
  181.4200  177.4230  136.7890 C   0  0  0  0  0  0  0  0  0  0  0  0
  184.8100  177.1370  137.4960 C   0  0  0  0  0  0  0  0  0  0  0  0
  181.6210  170.9430  136.0300 O   0  0  0  0  0  0  0  0  0  0  0  0
  183.8360  178.0590  139.6240 C   0  0  0  0  0  2  0  0  0  0  0  0
  181.5490  177.3360  135.3910 C   0  0  0  0  0  3  0  0  0  0  0  0
  181.1460  179.8310  136.5710 C   0  0  0  0  0  3  0  0  0  0  0  0
  181.2620  179.7270  135.1850 C   0  0  0  0  0  3  0  0  0  0  0  0
  181.8850  179.7700  139.4790 C   0  0  0  0  0  2  0  0  0  0  0  0
  183.7390  175.0390  137.5350 C   0  0  1  0  0  3  0  0  0  0  0  0
  183.7280  177.2680  138.4030 N   0  0  0  0  0  0  0  0  0  0  0  0
  182.7520  174.2800  136.6530 C   0  0  2  0  0  3  0  0  0  0  0  0
  184.5720  176.0450  135.3110 C   0  0  0  0  0  1  0  0  0  0  0  0
  181.5690  176.2000  137.6750 C   0  0  1  0  0  3  0  0  0  0  0  0
  1  6  1  0  0  0  0
  3 17  2  0  0  0  0
  4 22  2  0  0  0  0
  4 20  1  0  0  0  0
  5 27  1  6  0  0  0
  5 17  1  0  0  0  0
  5 24  1  0  0  0  0
  6 23  1  0  0  0  0
  7  8  1  0  0  0  0
  8  2  1  0  0  0  0
  9 14  1  0  0  0  0
  9 13  1  0  0  0  0
 10  8  1  1  0  0  0
 10 28  1  0  0  0  0
 11 15  2  0  0  0  0
 12 25  1  6  0  0  0
 14  8  1  0  0  0  0
 15 23  1  0  0  0  0
 15 19  1  0  0  0  0
 16  1  1  0  0  0  0
 16 28  1  0  0  0  0
 17 25  1  0  0  0  0
 18  9  2  0  0  0  0
 20 16  2  0  0  0  0
 21  1  2  0  0  0  0
 22 21  1  0  0  0  0
 24 12  1  0  0  0  0
 25 19  1  0  0  0  0
 26 10  1  0  0  0  0
 26 13  1  0  0  0  0
 26 24  1  0  0  0  0
 28 12  1  0  0  0  0
M  END
>  <MODEL>
4

>  <REMARK>
 VINA RESULT:      -4.6      1.792      6.069
  Name = 
  0 active torsions:
  status: ('A' for Active; 'I' for Inactive)
                            x       y       z     vdW  Elec       q    Type
                         _______ _______ _______ _____ _____    ______ ____

>  <TORSDO>
F 0

$$$$
=
 OpenBabel11122411573D

 28 32  0  0  1  0  0  0  0  0999 V2000
  182.2910  179.3400  141.8800 C   0  0  0  0  0  0  0  0  0  0  0  0
  179.4640  182.2470  138.5360 C   0  0  0  0  0  1  0  0  0  0  0  0
  179.3490  175.9580  141.3440 O   0  0  0  0  0  0  0  0  0  0  0  0
  183.9380  177.7780  140.2410 C   0  0  0  0  0  3  0  0  0  0  0  0
  179.2930  177.0340  139.1810 C   0  0  1  0  0  3  0  0  0  0  0  0
  181.4430  180.0850  142.7030 O   0  0  0  0  0  0  0  0  0  0  0  0
  181.9140  182.4500  138.3170 C   0  0  0  0  0  1  0  0  0  0  0  0
  180.7100  181.6140  137.9260 C   0  0  0  0  0  0  0  0  0  0  0  0
  179.8020  180.6850  135.8440 C   0  0  0  0  0  0  0  0  0  0  0  0
  180.9190  180.1610  138.4120 C   0  0  2  0  0  3  0  0  0  0  0  0
  180.0550  177.3880  144.2330 O   0  0  0  0  0  0  0  0  0  0  0  0
  179.4650  179.2960  140.1740 C   0  0  1  0  0  3  0  0  0  0  0  0
  179.0930  179.6370  136.6370 C   0  0  0  0  0  2  0  0  0  0  0  0
  180.5950  181.6240  136.5040 O   0  0  0  0  0  0  0  0  0  0  0  0
  179.9750  178.4370  143.6150 C   0  0  0  0  0  0  0  0  0  0  0  0
  182.0300  179.2700  140.5010 C   0  0  0  0  0  0  0  0  0  0  0  0
  179.3930  177.0140  140.6580 C   0  0  0  0  0  0  0  0  0  0  0  0
  179.6660  180.7360  134.5950 O   0  0  0  0  0  0  0  0  0  0  0  0
  178.9310  178.5990  142.5540 C   0  0  0  0  0  2  0  0  0  0  0  0
  182.8620  178.4760  139.6910 C   0  0  0  0  0  3  0  0  0  0  0  0
  183.3670  178.6280  142.4300 C   0  0  0  0  0  3  0  0  0  0  0  0
  184.1910  177.8540  141.6120 C   0  0  0  0  0  3  0  0  0  0  0  0
  180.9290  179.5510  143.9170 C   0  0  0  0  0  2  0  0  0  0  0  0
  179.1170  178.5430  138.8860 C   0  0  1  0  0  3  0  0  0  0  0  0
  179.4850  178.3030  141.2380 N   0  0  0  0  0  0  0  0  0  0  0  0
  179.9840  179.1140  137.7690 C   0  0  2  0  0  3  0  0  0  0  0  0
  180.5500  176.4200  138.5760 C   0  0  0  0  0  1  0  0  0  0  0  0
  180.8210  179.9870  139.9290 C   0  0  1  0  0  3  0  0  0  0  0  0
  1 21  1  0  0  0  0
  1  6  1  0  0  0  0
  4 22  1  0  0  0  0
  5 27  1  6  0  0  0
  5 17  1  0  0  0  0
  6 23  1  0  0  0  0
  8  7  1  0  0  0  0
  8  2  1  0  0  0  0
  9 14  1  0  0  0  0
  9 13  1  0  0  0  0
 10  8  1  1  0  0  0
 10 28  1  0  0  0  0
 12 25  1  1  0  0  0
 13 26  1  0  0  0  0
 14  8  1  0  0  0  0
 15 23  1  0  0  0  0
 15 11  2  0  0  0  0
 16  1  2  0  0  0  0
 17 25  1  0  0  0  0
 17  3  2  0  0  0  0
 18  9  2  0  0  0  0
 19 15  1  0  0  0  0
 20  4  2  0  0  0  0
 20 16  1  0  0  0  0
 22 21  2  0  0  0  0
 24  5  1  0  0  0  0
 24 12  1  0  0  0  0
 25 19  1  0  0  0  0
 26 10  1  0  0  0  0
 26 24  1  0  0  0  0
 28 12  1  0  0  0  0
 28 16  1  0  0  0  0
M  END
>  <MODEL>
5

>  <REMARK>
 VINA RESULT:      -4.4      4.340      6.259
  Name = 
  0 active torsions:
  status: ('A' for Active; 'I' for Inactive)
                            x       y       z     vdW  Elec       q    Type
                         _______ _______ _______ _____ _____    ______ ____

>  <TORSDO>
F 0

$$$$
=
 OpenBabel11122411573D

 28 32  0  0  1  0  0  0  0  0999 V2000
  181.9130  178.2690  138.2020 C   0  0  0  0  0  0  0  0  0  0  0  0
  186.8050  178.2600  136.2800 C   0  0  0  0  0  1  0  0  0  0  0  0
  180.6850  175.3940  134.9450 O   0  0  0  0  0  0  0  0  0  0  0  0
  181.7940  176.0040  139.8430 C   0  0  0  0  0  3  0  0  0  0  0  0
  182.9880  174.7730  135.3360 C   0  0  1  0  0  3  0  0  0  0  0  0
  181.9510  179.3770  137.3520 O   0  0  0  0  0  0  0  0  0  0  0  0
  186.6270  178.2530  138.7420 C   0  0  0  0  0  1  0  0  0  0  0  0
  186.6050  177.3740  137.5060 C   0  0  0  0  0  0  0  0  0  0  0  0
  187.7140  175.3060  136.7850 C   0  0  0  0  0  0  0  0  0  0  0  0
  185.2660  176.6030  137.4510 C   0  0  2  0  0  3  0  0  0  0  0  0
  179.3450  178.3710  135.4200 O   0  0  0  0  0  0  0  0  0  0  0  0
  183.6870  177.1260  135.6630 C   0  0  1  0  0  3  0  0  0  0  0  0
  186.5880  175.0480  135.8390 C   0  0  0  0  0  2  0  0  0  0  0  0
  187.6830  176.4430  137.5940 O   0  0  0  0  0  0  0  0  0  0  0  0
  180.4950  178.7510  135.5660 C   0  0  0  0  0  0  0  0  0  0  0  0
  182.9350  177.3060  138.1310 C   0  0  0  0  0  0  0  0  0  0  0  0
  181.8660  175.7320  135.2240 C   0  0  0  0  0  0  0  0  0  0  0  0
  188.6950  174.5210  136.8340 O   0  0  0  0  0  0  0  0  0  0  0  0
  181.5830  178.1780  134.7120 C   0  0  0  0  0  2  0  0  0  0  0  0
  182.8580  176.1710  138.9560 C   0  0  0  0  0  3  0  0  0  0  0  0
  180.8400  178.0910  139.0870 C   0  0  0  0  0  3  0  0  0  0  0  0
  180.7840  176.9640  139.9090 C   0  0  0  0  0  3  0  0  0  0  0  0
  180.8100  179.7810  136.6070 C   0  0  0  0  0  2  0  0  0  0  0  0
  184.2160  175.7120  135.4040 C   0  0  1  0  0  3  0  0  0  0  0  0
  182.2560  177.0830  135.4020 N   0  0  0  0  0  0  0  0  0  0  0  0
  185.2430  175.3970  136.4860 C   0  0  2  0  0  3  0  0  0  0  0  0
  182.7940  173.9050  136.5740 C   0  0  0  0  0  1  0  0  0  0  0  0
  184.0540  177.4750  137.1180 C   0  0  1  0  0  3  0  0  0  0  0  0
  1 21  1  0  0  0  0
  2  8  1  0  0  0  0
  3 17  2  0  0  0  0
  4 22  1  0  0  0  0
  5 24  1  0  0  0  0
  5 27  1  1  0  0  0
  6  1  1  0  0  0  0
  8 14  1  0  0  0  0
  8  7  1  0  0  0  0
  9 18  2  0  0  0  0
  9 14  1  0  0  0  0
 10  8  1  6  0  0  0
 11 15  2  0  0  0  0
 12 25  1  1  0  0  0
 12 28  1  0  0  0  0
 13 26  1  0  0  0  0
 13  9  1  0  0  0  0
 15 23  1  0  0  0  0
 16  1  2  0  0  0  0
 16 20  1  0  0  0  0
 17  5  1  0  0  0  0
 17 25  1  0  0  0  0
 19 25  1  0  0  0  0
 19 15  1  0  0  0  0
 20  4  2  0  0  0  0
 21 22  2  0  0  0  0
 23  6  1  0  0  0  0
 24 12  1  0  0  0  0
 24 26  1  0  0  0  0
 26 10  1  0  0  0  0
 28 10  1  0  0  0  0
 28 16  1  0  0  0  0
M  END
>  <MODEL>
6

>  <REMARK>
 VINA RESULT:      -4.3      2.051      5.385
  Name = 
  0 active torsions:
  status: ('A' for Active; 'I' for Inactive)
                            x       y       z     vdW  Elec       q    Type
                         _______ _______ _______ _____ _____    ______ ____

>  <TORSDO>
F 0

$$$$
=
 OpenBabel11122411573D

 28 32  0  0  1  0  0  0  0  0999 V2000
  179.6980  178.8420  137.5100 C   0  0  0  0  0  0  0  0  0  0  0  0
  180.2490  173.6780  138.3240 C   0  0  0  0  0  1  0  0  0  0  0  0
  183.6260  179.5400  139.6240 O   0  0  0  0  0  0  0  0  0  0  0  0
  181.1870  179.3550  135.1950 C   0  0  0  0  0  3  0  0  0  0  0  0
  183.9710  177.3770  138.6000 C   0  0  1  0  0  3  0  0  0  0  0  0
  178.9880  178.6010  138.6890 O   0  0  0  0  0  0  0  0  0  0  0  0
  179.3400  174.3190  136.1210 C   0  0  0  0  0  1  0  0  0  0  0  0
  180.6180  174.1400  136.9180 C   0  0  0  0  0  0  0  0  0  0  0  0
  182.7640  172.9940  136.5890 C   0  0  0  0  0  0  0  0  0  0  0  0
  181.4020  175.4730  136.9330 C   0  0  2  0  0  3  0  0  0  0  0  0
  180.7380  180.8320  140.5600 O   0  0  0  0  0  0  0  0  0  0  0  0
  181.6440  176.6640  139.0520 C   0  0  1  0  0  3  0  0  0  0  0  0
  183.3980  173.9300  137.5640 C   0  0  0  0  0  2  0  0  0  0  0  0
  181.4090  173.1350  136.2860 O   0  0  0  0  0  0  0  0  0  0  0  0
  180.2890  179.7170  140.3520 C   0  0  0  0  0  0  0  0  0  0  0  0
  180.5800  177.8610  137.0210 C   0  0  0  0  0  0  0  0  0  0  0  0
  183.1650  178.4210  139.2730 C   0  0  0  0  0  0  0  0  0  0  0  0
  183.4380  172.0710  136.0650 O   0  0  0  0  0  0  0  0  0  0  0  0
  181.1010  178.5090  140.7070 C   0  0  0  0  0  2  0  0  0  0  0  0
  181.3260  178.1360  135.8620 C   0  0  0  0  0  3  0  0  0  0  0  0
  179.5700  180.0680  136.8440 C   0  0  0  0  0  3  0  0  0  0  0  0
  180.3090  180.3220  135.6870 C   0  0  0  0  0  3  0  0  0  0  0  0
  178.9340  179.5650  139.7330 C   0  0  0  0  0  2  0  0  0  0  0  0
  183.0310  176.1500  138.6580 C   0  0  1  0  0  3  0  0  0  0  0  0
  181.8320  178.0210  139.5430 N   0  0  0  0  0  0  0  0  0  0  0  0
  182.8800  175.3590  137.3620 C   0  0  2  0  0  3  0  0  0  0  0  0
  184.3190  177.8350  137.1890 C   0  0  0  0  0  1  0  0  0  0  0  0
  180.7620  176.5660  137.7910 C   0  0  1  0  0  3  0  0  0  0  0  0
  1  6  1  0  0  0  0
  4 22  2  0  0  0  0
  4 20  1  0  0  0  0
  5 27  1  6  0  0  0
  5 24  1  0  0  0  0
  5 17  1  0  0  0  0
  6 23  1  0  0  0  0
  7  8  1  0  0  0  0
  8  2  1  0  0  0  0
  9 13  1  0  0  0  0
 10  8  1  1  0  0  0
 10 26  1  0  0  0  0
 10 28  1  0  0  0  0
 12 25  1  6  0  0  0
 14  9  1  0  0  0  0
 14  8  1  0  0  0  0
 15 11  2  0  0  0  0
 15 19  1  0  0  0  0
 16  1  1  0  0  0  0
 16 28  1  0  0  0  0
 17 25  1  0  0  0  0
 17  3  2  0  0  0  0
 18  9  2  0  0  0  0
 20 16  2  0  0  0  0
 21  1  2  0  0  0  0
 22 21  1  0  0  0  0
 23 15  1  0  0  0  0
 24 12  1  0  0  0  0
 25 19  1  0  0  0  0
 26 13  1  0  0  0  0
 26 24  1  0  0  0  0
 28 12  1  0  0  0  0
M  END
>  <MODEL>
7

>  <REMARK>
 VINA RESULT:      -4.0      2.090      6.473
  Name = 
  0 active torsions:
  status: ('A' for Active; 'I' for Inactive)
                            x       y       z     vdW  Elec       q    Type
                         _______ _______ _______ _____ _____    ______ ____

>  <TORSDO>
F 0

$$$$
=
 OpenBabel11122411573D

 28 32  0  0  1  0  0  0  0  0999 V2000
  180.9140  176.1530  136.7820 C   0  0  0  0  0  0  0  0  0  0  0  0
  181.1470  181.1670  135.2190 C   0  0  0  0  0  1  0  0  0  0  0  0
  183.6620  177.1530  140.2210 O   0  0  0  0  0  0  0  0  0  0  0  0
  178.9310  176.1210  138.7580 C   0  0  0  0  0  3  0  0  0  0  0  0
  182.4390  179.2170  139.9250 C   0  0  1  0  0  3  0  0  0  0  0  0
  181.9330  176.1690  135.8270 O   0  0  0  0  0  0  0  0  0  0  0  0
  178.9310  180.0960  135.0400 C   0  0  0  0  0  1  0  0  0  0  0  0
  179.8810  180.8020  135.9880 C   0  0  0  0  0  0  0  0  0  0  0  0
  179.7360  182.6670  137.5780 C   0  0  0  0  0  0  0  0  0  0  0  0
  180.1800  179.8790  137.1920 C   0  0  2  0  0  3  0  0  0  0  0  0
  184.3100  174.9030  137.8970 O   0  0  0  0  0  0  0  0  0  0  0  0
  182.4430  179.0000  137.4580 C   0  0  1  0  0  3  0  0  0  0  0  0
  180.9040  182.1070  138.3200 C   0  0  0  0  0  2  0  0  0  0  0  0
  179.2530  181.9950  136.4530 O   0  0  0  0  0  0  0  0  0  0  0  0
  183.8990  175.7430  137.1140 C   0  0  0  0  0  0  0  0  0  0  0  0
  180.4430  177.3670  137.3120 C   0  0  0  0  0  0  0  0  0  0  0  0
  183.1090  177.9840  139.4520 C   0  0  0  0  0  0  0  0  0  0  0  0
  179.2070  183.7460  137.9470 O   0  0  0  0  0  0  0  0  0  0  0  0
  184.2170  177.1890  137.3390 C   0  0  0  0  0  2  0  0  0  0  0  0
  179.4520  177.3350  138.3090 C   0  0  0  0  0  3  0  0  0  0  0  0
  180.3950  174.9360  137.2440 C   0  0  0  0  0  3  0  0  0  0  0  0
  179.4030  174.9200  138.2250 C   0  0  0  0  0  3  0  0  0  0  0  0
  183.0700  175.3230  135.9400 C   0  0  0  0  0  2  0  0  0  0  0  0
  182.2010  179.9860  138.6040 C   0  0  1  0  0  3  0  0  0  0  0  0
  183.1240  177.8530  138.0410 N   0  0  0  0  0  0  0  0  0  0  0  0
  180.8080  180.5800  138.4160 C   0  0  2  0  0  3  0  0  0  0  0  0
  181.1640  178.8470  140.6740 C   0  0  0  0  0  1  0  0  0  0  0  0
  181.0630  178.6760  136.8550 C   0  0  1  0  0  3  0  0  0  0  0  0
  1 21  2  0  0  0  0
  1 16  1  0  0  0  0
  2  8  1  0  0  0  0
  5 27  1  6  0  0  0
  6 23  1  0  0  0  0
  6  1  1  0  0  0  0
  7  8  1  0  0  0  0
  8 14  1  0  0  0  0
  9 18  2  0  0  0  0
  9 13  1  0  0  0  0
 10  8  1  6  0  0  0
 10 26  1  0  0  0  0
 12 25  1  1  0  0  0
 12 24  1  0  0  0  0
 13 26  1  0  0  0  0
 14  9  1  0  0  0  0
 15 19  1  0  0  0  0
 15 11  2  0  0  0  0
 16 20  2  0  0  0  0
 17  5  1  0  0  0  0
 17  3  2  0  0  0  0
 19 25  1  0  0  0  0
 20  4  1  0  0  0  0
 21 22  1  0  0  0  0
 22  4  2  0  0  0  0
 23 15  1  0  0  0  0
 24  5  1  0  0  0  0
 25 17  1  0  0  0  0
 26 24  1  0  0  0  0
 28 10  1  0  0  0  0
 28 16  1  0  0  0  0
 28 12  1  0  0  0  0
M  END
>  <MODEL>
8

>  <REMARK>
 VINA RESULT:      -3.8      2.358      5.060
  Name = 
  0 active torsions:
  status: ('A' for Active; 'I' for Inactive)
                            x       y       z     vdW  Elec       q    Type
                         _______ _______ _______ _____ _____    ______ ____

>  <TORSDO>
F 0

$$$$
=
 OpenBabel11122411573D

 28 32  0  0  1  0  0  0  0  0999 V2000
  182.3440  178.1310  141.9930 C   0  0  0  0  0  0  0  0  0  0  0  0
  181.9500  174.5540  138.1620 C   0  0  0  0  0  1  0  0  0  0  0  0
  183.9190  181.1040  138.9840 O   0  0  0  0  0  0  0  0  0  0  0  0
  179.9870  179.6300  141.8060 C   0  0  0  0  0  3  0  0  0  0  0  0
  182.4190  179.7630  137.6440 C   0  0  1  0  0  3  0  0  0  0  0  0
  183.5410  177.4140  142.0660 O   0  0  0  0  0  0  0  0  0  0  0  0
  180.1020  174.5730  139.7970 C   0  0  0  0  0  1  0  0  0  0  0  0
  180.6340  175.2280  138.5360 C   0  0  0  0  0  0  0  0  0  0  0  0
  179.7380  175.7900  136.3210 C   0  0  0  0  0  0  0  0  0  0  0  0
  180.8080  176.7440  138.7840 C   0  0  2  0  0  3  0  0  0  0  0  0
  185.5460  180.1290  141.6830 O   0  0  0  0  0  0  0  0  0  0  0  0
  183.0660  177.6730  138.8040 C   0  0  1  0  0  3  0  0  0  0  0  0
  180.7790  176.8530  136.1860 C   0  0  0  0  0  2  0  0  0  0  0  0
  179.6870  175.0260  137.4880 O   0  0  0  0  0  0  0  0  0  0  0  0
  185.1790  179.0080  141.3730 C   0  0  0  0  0  0  0  0  0  0  0  0
  181.5270  177.9990  140.8570 C   0  0  0  0  0  0  0  0  0  0  0  0
  183.4150  179.9800  138.7170 C   0  0  0  0  0  0  0  0  0  0  0  0
  178.9320  175.5680  135.3820 O   0  0  0  0  0  0  0  0  0  0  0  0
  185.1390  178.6090  139.9310 C   0  0  0  0  0  2  0  0  0  0  0  0
  180.3500  178.7640  140.7730 C   0  0  0  0  0  3  0  0  0  0  0  0
  181.9810  179.0100  143.0230 C   0  0  0  0  0  3  0  0  0  0  0  0
  180.8030  179.7540  142.9310 C   0  0  0  0  0  3  0  0  0  0  0  0
  184.7610  178.0420  142.4390 C   0  0  0  0  0  2  0  0  0  0  0  0
  182.3610  178.2190  137.5590 C   0  0  1  0  0  3  0  0  0  0  0  0
  183.7990  178.7900  139.3840 N   0  0  0  0  0  0  0  0  0  0  0  0
  180.9680  177.6020  137.5100 C   0  0  2  0  0  3  0  0  0  0  0  0
  181.1000  180.4190  138.0330 C   0  0  0  0  0  1  0  0  0  0  0  0
  181.9670  177.0970  139.7170 C   0  0  1  0  0  3  0  0  0  0  0  0
  1  6  1  0  0  0  0
  1 21  1  0  0  0  0
  2  8  1  0  0  0  0
  4 22  1  0  0  0  0
  5 27  1  1  0  0  0
  5 17  1  0  0  0  0
  6 23  1  0  0  0  0
  8  7  1  0  0  0  0
  9 14  1  0  0  0  0
 10  8  1  6  0  0  0
 10 28  1  0  0  0  0
 12 25  1  1  0  0  0
 12 28  1  0  0  0  0
 13  9  1  0  0  0  0
 13 26  1  0  0  0  0
 14  8  1  0  0  0  0
 15 11  2  0  0  0  0
 15 23  1  0  0  0  0
 16  1  2  0  0  0  0
 17  3  2  0  0  0  0
 17 25  1  0  0  0  0
 18  9  2  0  0  0  0
 19 15  1  0  0  0  0
 20 16  1  0  0  0  0
 20  4  2  0  0  0  0
 22 21  2  0  0  0  0
 24  5  1  0  0  0  0
 24 12  1  0  0  0  0
 25 19  1  0  0  0  0
 26 24  1  0  0  0  0
 26 10  1  0  0  0  0
 28 16  1  0  0  0  0
M  END
>  <MODEL>
9

>  <REMARK>
 VINA RESULT:      -3.8      2.981      6.425
  Name = 
  0 active torsions:
  status: ('A' for Active; 'I' for Inactive)
                            x       y       z     vdW  Elec       q    Type
                         _______ _______ _______ _____ _____    ______ ____

>  <TORSDO>
F 0

$$$$
