=
 OpenBabel11122410393D

 32 37  0  0  1  0  0  0  0  0999 V2000
  182.0820  180.1680  139.8100 O   0  0  0  0  0  0  0  0  0  0  0  0
  185.9990  177.9440  142.2340 N   0  0  1  0  0  0  0  0  0  0  0  0
  185.3280  178.7720  147.0650 C   0  0  0  0  0  3  0  0  0  0  0  0
  186.5990  178.2500  147.3170 C   0  0  0  0  0  3  0  0  0  0  0  0
  188.3940  177.6980  141.4320 C   0  0  0  0  0  0  0  0  0  0  0  0
  189.6700  176.9800  141.8240 C   0  0  1  0  0  3  0  0  0  0  0  0
  184.1690  178.1040  140.6280 C   0  0  1  0  0  3  0  0  0  0  0  0
  183.7040  178.2790  143.0850 C   0  0  0  0  0  2  0  0  0  0  0  0
  191.1560  176.6270  143.5950 C   0  0  2  0  0  3  0  0  0  0  0  0
  181.7690  178.4380  141.4620 C   0  0  0  0  0  2  0  0  0  0  0  0
  184.8640  178.8800  145.7520 C   0  0  0  0  0  3  0  0  0  0  0  0
  185.1830  178.6550  143.2510 C   0  0  1  0  0  3  0  0  0  0  0  0
  185.6590  178.4500  144.6780 C   0  0  0  0  0  0  0  0  0  0  0  0
  187.7880  177.4750  143.7960 C   0  0  2  0  0  3  0  0  0  0  0  0
  191.9360  177.2370  142.4420 C   0  0  0  0  0  2  0  0  0  0  0  0
  183.1220  179.7930  138.9200 C   0  0  0  0  0  2  0  0  0  0  0  0
  183.2540  178.7150  141.6980 C   0  0  2  0  0  3  0  0  0  0  0  0
  190.8990  177.7910  141.5020 C   0  0  0  0  0  2  0  0  0  0  0  0
  183.7840  178.4160  139.1730 C   0  0  0  0  0  2  0  0  0  0  0  0
  181.3010  179.0390  140.1320 C   0  0  1  0  0  3  0  0  0  0  0  0
  187.4110  177.8460  146.2550 C   0  0  0  0  0  3  0  0  0  0  0  0
  186.9590  177.9740  144.9350 C   0  0  0  0  0  0  0  0  0  0  0  0
  189.1640  177.6060  144.0150 O   0  0  0  0  0  0  0  0  0  0  0  0
  185.6120  178.4960  140.9290 C   0  0  0  0  0  2  0  0  0  0  0  0
  188.2020  177.9480  140.2520 O   0  0  0  0  0  0  0  0  0  0  0  0
  191.6280  175.2080  143.8400 C   0  0  0  0  0  1  0  0  0  0  0  0
  187.4290  178.1940  142.5020 C   0  0  2  0  0  3  0  0  0  0  0  0
  189.7350  176.6260  143.2560 N   0  0  1  0  0  0  0  0  0  0  0  0
  179.8350  179.4240  140.2370 C   0  0  0  0  0  2  0  0  0  0  0  0
  179.6950  180.8020  140.7880 C   0  0  0  0  0  0  0  0  0  0  0  0
  179.4620  181.8720  139.9340 O   0  0  0  0  0  0  0  0  0  0  0  0
  179.7560  180.9920  142.0310 O   0  0  0  0  0  1  0  0  0  0  0  0
  1 20  1  0  0  0  0
  2 24  1  6  0  0  0
  2 27  1  0  0  0  0
  2 12  1  0  0  0  0
  3  4  1  0  0  0  0
  5  6  1  0  0  0  0
  6 18  1  1  0  0  0
  6 28  1  0  0  0  0
  7 19  1  6  0  0  0
  7 24  1  0  0  0  0
  7 17  1  0  0  0  0
  9 26  1  6  0  0  0
 11  3  2  0  0  0  0
 12  8  1  1  0  0  0
 12 13  1  0  0  0  0
 13 22  2  0  0  0  0
 13 11  1  0  0  0  0
 14 23  1  1  0  0  0
 14 22  1  0  0  0  0
 15  9  1  0  0  0  0
 16 19  1  0  0  0  0
 16  1  1  0  0  0  0
 17 10  1  6  0  0  0
 17  8  1  0  0  0  0
 18 15  1  0  0  0  0
 20 29  1  1  0  0  0
 20 10  1  0  0  0  0
 21  4  2  0  0  0  0
 22 21  1  0  0  0  0
 25  5  2  0  0  0  0
 27  5  1  6  0  0  0
 27 14  1  0  0  0  0
 28  9  1  0  0  0  0
 28 23  1  1  0  0  0
 29 30  1  0  0  0  0
 30 32  1  0  0  0  0
 31 30  2  0  0  0  0
M  END
>  <MODEL>
1

>  <REMARK>
 VINA RESULT:     -10.1      0.000      0.000
  Name = 
  2 active torsions:
  status: ('A' for Active; 'I' for Inactive)
    1  A    between atoms: C_20  and  C_29
    2  A    between atoms: C_29  and  C_30
                            x       y       z     vdW  Elec       q    Type
                         _______ _______ _______ _____ _____    ______ ____

>  <TORSDO>
F 2

$$$$
=
 OpenBabel11122410393D

 32 37  0  0  1  0  0  0  0  0999 V2000
  189.7700  178.2860  146.0270 O   0  0  0  0  0  0  0  0  0  0  0  0
  185.6050  177.9420  143.0780 N   0  0  1  0  0  0  0  0  0  0  0  0
  187.1380  178.4390  138.4000 C   0  0  0  0  0  3  0  0  0  0  0  0
  185.8060  178.5040  137.9850 C   0  0  0  0  0  3  0  0  0  0  0  0
  183.2510  178.7260  143.6040 C   0  0  0  0  0  0  0  0  0  0  0  0
  181.8490  178.6170  143.0390 C   0  0  1  0  0  3  0  0  0  0  0  0
  187.1250  177.3030  144.8760 C   0  0  1  0  0  3  0  0  0  0  0  0
  187.9140  177.2810  142.4970 C   0  0  0  0  0  2  0  0  0  0  0  0
  180.5770  178.9350  141.1030 C   0  0  2  0  0  3  0  0  0  0  0  0
  189.5260  176.5970  144.3220 C   0  0  0  0  0  2  0  0  0  0  0  0
  187.4430  178.3320  139.7590 C   0  0  0  0  0  3  0  0  0  0  0  0
  186.7600  178.2470  142.1950 C   0  0  1  0  0  3  0  0  0  0  0  0
  186.4180  178.2720  140.7160 C   0  0  0  0  0  0  0  0  0  0  0  0
  183.9870  178.2820  141.3100 C   0  0  2  0  0  3  0  0  0  0  0  0
  179.9900  179.8110  142.1980 C   0  0  0  0  0  2  0  0  0  0  0  0
  188.5700  178.3810  146.7790 C   0  0  0  0  0  2  0  0  0  0  0  0
  188.3340  177.4760  143.9460 C   0  0  2  0  0  3  0  0  0  0  0  0
  181.0420  179.8690  143.2740 C   0  0  0  0  0  2  0  0  0  0  0  0
  187.4280  177.4140  146.3790 C   0  0  0  0  0  2  0  0  0  0  0  0
  190.0390  176.9360  145.7270 C   0  0  1  0  0  3  0  0  0  0  0  0
  184.7780  178.4740  138.9300 C   0  0  0  0  0  3  0  0  0  0  0  0
  185.0790  178.3910  140.2960 C   0  0  0  0  0  0  0  0  0  0  0  0
  182.8300  178.9840  140.9530 O   0  0  0  0  0  0  0  0  0  0  0  0
  186.0280  178.2700  144.4460 C   0  0  0  0  0  2  0  0  0  0  0  0
  183.3860  178.8640  144.8100 O   0  0  0  0  0  0  0  0  0  0  0  0
  179.5860  177.8500  140.7280 C   0  0  0  0  0  1  0  0  0  0  0  0
  184.4560  178.7740  142.6730 C   0  0  2  0  0  3  0  0  0  0  0  0
  181.8130  178.3320  141.5900 N   0  0  1  0  0  0  0  0  0  0  0  0
  191.5320  176.6660  145.8010 C   0  0  0  0  0  2  0  0  0  0  0  0
  191.9160  176.2290  147.1730 C   0  0  0  0  0  0  0  0  0  0  0  0
  192.0710  177.1680  148.1840 O   0  0  0  0  0  1  0  0  0  0  0  0
  192.0680  175.0040  147.4240 O   0  0  0  0  0  0  0  0  0  0  0  0
  1 16  1  0  0  0  0
  2 24  1  1  0  0  0
  3 11  1  0  0  0  0
  4  3  2  0  0  0  0
  4 21  1  0  0  0  0
  5 25  2  0  0  0  0
  6 18  1  6  0  0  0
  6  5  1  0  0  0  0
  7 24  1  6  0  0  0
  7 19  1  0  0  0  0
  9 26  1  1  0  0  0
  9 28  1  0  0  0  0
  9 15  1  0  0  0  0
 10 20  1  0  0  0  0
 11 13  2  0  0  0  0
 12  8  1  6  0  0  0
 12  2  1  0  0  0  0
 13 12  1  0  0  0  0
 14 22  1  6  0  0  0
 14 27  1  0  0  0  0
 15 18  1  0  0  0  0
 17  8  1  6  0  0  0
 17 10  1  0  0  0  0
 17  7  1  0  0  0  0
 19 16  1  0  0  0  0
 20 29  1  6  0  0  0
 20  1  1  0  0  0  0
 21 22  2  0  0  0  0
 22 13  1  0  0  0  0
 23 14  1  0  0  0  0
 27  2  1  0  0  0  0
 27  5  1  1  0  0  0
 28 23  1  6  0  0  0
 28  6  1  0  0  0  0
 29 30  1  0  0  0  0
 30 32  2  0  0  0  0
 30 31  1  0  0  0  0
M  END
>  <MODEL>
2

>  <REMARK>
 VINA RESULT:      -9.2      2.339      8.903
  Name = 
  2 active torsions:
  status: ('A' for Active; 'I' for Inactive)
    1  A    between atoms: C_20  and  C_29
    2  A    between atoms: C_29  and  C_30
                            x       y       z     vdW  Elec       q    Type
                         _______ _______ _______ _____ _____    ______ ____

>  <TORSDO>
F 2

$$$$
=
 OpenBabel11122410393D

 32 37  0  0  1  0  0  0  0  0999 V2000
  190.6090  175.7920  138.1790 O   0  0  0  0  0  0  0  0  0  0  0  0
  189.2100  177.4970  142.7950 N   0  0  1  0  0  0  0  0  0  0  0  0
  192.4310  175.6030  146.0390 C   0  0  0  0  0  3  0  0  0  0  0  0
  191.6370  176.0810  147.0840 C   0  0  0  0  0  3  0  0  0  0  0  0
  186.8650  177.9610  143.6420 C   0  0  0  0  0  0  0  0  0  0  0  0
  186.1780  178.5990  144.8330 C   0  0  1  0  0  3  0  0  0  0  0  0
  189.7190  177.6630  140.4140 C   0  0  1  0  0  3  0  0  0  0  0  0
  191.4920  176.9360  142.0310 C   0  0  0  0  0  2  0  0  0  0  0  0
  186.0690  178.5790  147.1690 C   0  0  2  0  0  3  0  0  0  0  0  0
  192.0750  177.1040  139.5740 C   0  0  0  0  0  2  0  0  0  0  0  0
  192.0230  175.7810  144.7140 C   0  0  0  0  0  3  0  0  0  0  0  0
  190.3490  176.5620  142.9840 C   0  0  1  0  0  3  0  0  0  0  0  0
  190.8270  176.4540  144.4210 C   0  0  0  0  0  0  0  0  0  0  0  0
  188.7550  177.6420  145.1680 C   0  0  2  0  0  3  0  0  0  0  0  0
  184.6840  178.2560  146.6320 C   0  0  0  0  0  2  0  0  0  0  0  0
  189.3150  176.3750  138.1680 C   0  0  0  0  0  2  0  0  0  0  0  0
  190.9830  176.8120  140.6020 C   0  0  2  0  0  3  0  0  0  0  0  0
  184.8860  177.9050  145.1820 C   0  0  0  0  0  2  0  0  0  0  0  0
  189.1370  177.6740  138.9920 C   0  0  0  0  0  2  0  0  0  0  0  0
  191.5880  176.8050  138.1520 C   0  0  1  0  0  3  0  0  0  0  0  0
  190.4300  176.7270  146.8060 C   0  0  0  0  0  3  0  0  0  0  0  0
  190.0060  176.8860  145.4800 C   0  0  0  0  0  0  0  0  0  0  0  0
  187.7620  177.4920  146.1420 O   0  0  0  0  0  0  0  0  0  0  0  0
  188.6810  177.2420  141.4480 C   0  0  0  0  0  2  0  0  0  0  0  0
  186.2960  177.9760  142.5620 O   0  0  0  0  0  0  0  0  0  0  0  0
  186.0440  179.9170  147.8810 C   0  0  0  0  0  1  0  0  0  0  0  0
  188.1850  177.2220  143.8190 C   0  0  2  0  0  3  0  0  0  0  0  0
  187.0090  178.6280  146.0530 N   0  0  1  0  0  0  0  0  0  0  0  0
  192.7650  176.3780  137.2920 C   0  0  0  0  0  2  0  0  0  0  0  0
  193.5460  175.3040  137.9700 C   0  0  0  0  0  0  0  0  0  0  0  0
  194.6800  175.6270  138.7020 O   0  0  0  0  0  1  0  0  0  0  0  0
  193.1580  174.1080  137.9070 O   0  0  0  0  0  0  0  0  0  0  0  0
  2 24  1  6  0  0  0
  2 12  1  0  0  0  0
  2 27  1  0  0  0  0
  3  4  1  0  0  0  0
  5  6  1  0  0  0  0
  6 18  1  1  0  0  0
  6 28  1  0  0  0  0
  7 19  1  6  0  0  0
  7 17  1  0  0  0  0
  7 24  1  0  0  0  0
  9 26  1  6  0  0  0
 11  3  2  0  0  0  0
 12  8  1  6  0  0  0
 12 13  1  0  0  0  0
 13 11  1  0  0  0  0
 13 22  2  0  0  0  0
 14 22  1  1  0  0  0
 14 23  1  0  0  0  0
 15  9  1  0  0  0  0
 16  1  1  0  0  0  0
 16 19  1  0  0  0  0
 17 10  1  6  0  0  0
 17  8  1  0  0  0  0
 18 15  1  0  0  0  0
 20 29  1  6  0  0  0
 20  1  1  0  0  0  0
 20 10  1  0  0  0  0
 21  4  2  0  0  0  0
 22 21  1  0  0  0  0
 25  5  2  0  0  0  0
 27  5  1  6  0  0  0
 27 14  1  0  0  0  0
 28 23  1  6  0  0  0
 28  9  1  0  0  0  0
 29 30  1  0  0  0  0
 30 31  1  0  0  0  0
 32 30  2  0  0  0  0
M  END
>  <MODEL>
3

>  <REMARK>
 VINA RESULT:      -9.0      3.882      8.014
  Name = 
  2 active torsions:
  status: ('A' for Active; 'I' for Inactive)
    1  A    between atoms: C_20  and  C_29
    2  A    between atoms: C_29  and  C_30
                            x       y       z     vdW  Elec       q    Type
                         _______ _______ _______ _____ _____    ______ ____

>  <TORSDO>
F 2

$$$$
=
 OpenBabel11122410393D

 32 37  0  0  1  0  0  0  0  0999 V2000
  187.3720  176.6250  144.5760 O   0  0  0  0  0  0  0  0  0  0  0  0
  183.7860  178.7970  141.6460 N   0  0  1  0  0  0  0  0  0  0  0  0
  179.6410  178.9290  144.3450 C   0  0  0  0  0  3  0  0  0  0  0  0
  178.9350  179.3440  143.2140 C   0  0  0  0  0  3  0  0  0  0  0  0
  183.5130  178.6270  139.1290 C   0  0  0  0  0  0  0  0  0  0  0  0
  182.7010  179.2570  138.0150 C   0  0  1  0  0  3  0  0  0  0  0  0
  185.9880  178.5570  142.6680 C   0  0  1  0  0  3  0  0  0  0  0  0
  183.9620  178.8780  144.1090 C   0  0  0  0  0  2  0  0  0  0  0  0
  180.5200  179.7550  137.3340 C   0  0  2  0  0  3  0  0  0  0  0  0
  186.2230  178.6470  145.2190 C   0  0  0  0  0  2  0  0  0  0  0  0
  181.0050  178.6400  144.2500 C   0  0  0  0  0  3  0  0  0  0  0  0
  183.1390  178.3760  142.9150 C   0  0  1  0  0  3  0  0  0  0  0  0
  181.6790  178.7790  143.0270 C   0  0  0  0  0  0  0  0  0  0  0  0
  181.6770  179.3370  140.5870 C   0  0  2  0  0  3  0  0  0  0  0  0
  181.1500  178.8650  136.2750 C   0  0  0  0  0  2  0  0  0  0  0  0
  187.7700  176.7150  143.2170 C   0  0  0  0  0  2  0  0  0  0  0  0
  185.3470  178.2530  144.0300 C   0  0  2  0  0  3  0  0  0  0  0  0
  182.3720  178.2710  136.9240 C   0  0  0  0  0  2  0  0  0  0  0  0
  187.4210  178.0330  142.4820 C   0  0  0  0  0  2  0  0  0  0  0  0
  187.5460  177.8720  145.2080 C   0  0  1  0  0  3  0  0  0  0  0  0
  179.5880  179.4580  141.9840 C   0  0  0  0  0  3  0  0  0  0  0  0
  180.9500  179.1460  141.8790 C   0  0  0  0  0  0  0  0  0  0  0  0
  180.8780  179.0950  139.4640 O   0  0  0  0  0  0  0  0  0  0  0  0
  185.0580  178.0670  141.5640 C   0  0  0  0  0  2  0  0  0  0  0  0
  184.6240  178.1930  138.8690 O   0  0  0  0  0  0  0  0  0  0  0  0
  180.2630  181.1340  136.7580 C   0  0  0  0  0  1  0  0  0  0  0  0
  182.9070  178.4420  140.5150 C   0  0  2  0  0  3  0  0  0  0  0  0
  181.4300  179.8540  138.4720 N   0  0  1  0  0  0  0  0  0  0  0  0
  188.0330  177.6780  146.6340 C   0  0  0  0  0  2  0  0  0  0  0  0
  189.5120  177.5000  146.6620 C   0  0  0  0  0  0  0  0  0  0  0  0
  190.2680  177.7870  145.5330 O   0  0  0  0  0  0  0  0  0  0  0  0
  190.0810  177.1190  147.7190 O   0  0  0  0  0  1  0  0  0  0  0  0
  1 20  1  0  0  0  0
  2 24  1  6  0  0  0
  2 12  1  0  0  0  0
  4  3  2  0  0  0  0
  6 18  1  6  0  0  0
  6 28  1  0  0  0  0
  6  5  1  0  0  0  0
  7 24  1  6  0  0  0
  7 17  1  0  0  0  0
  9 26  1  6  0  0  0
  9 28  1  0  0  0  0
 11  3  1  0  0  0  0
 12 13  1  0  0  0  0
 12  8  1  1  0  0  0
 13 11  2  0  0  0  0
 14 23  1  6  0  0  0
 14 22  1  0  0  0  0
 15 18  1  0  0  0  0
 15  9  1  0  0  0  0
 16  1  1  0  0  0  0
 17  8  1  1  0  0  0
 17 10  1  0  0  0  0
 19  7  1  0  0  0  0
 19 16  1  0  0  0  0
 20 10  1  0  0  0  0
 20 29  1  1  0  0  0
 21  4  1  0  0  0  0
 22 21  2  0  0  0  0
 22 13  1  0  0  0  0
 25  5  2  0  0  0  0
 27  5  1  6  0  0  0
 27 14  1  0  0  0  0
 27  2  1  0  0  0  0
 28 23  1  1  0  0  0
 29 30  1  0  0  0  0
 30 32  1  0  0  0  0
 31 30  2  0  0  0  0
M  END
>  <MODEL>
4

>  <REMARK>
 VINA RESULT:      -9.0      2.411      8.160
  Name = 
  2 active torsions:
  status: ('A' for Active; 'I' for Inactive)
    1  A    between atoms: C_20  and  C_29
    2  A    between atoms: C_29  and  C_30
                            x       y       z     vdW  Elec       q    Type
                         _______ _______ _______ _____ _____    ______ ____

>  <TORSDO>
F 2

$$$$
=
 OpenBabel11122410393D

 32 37  0  0  1  0  0  0  0  0999 V2000
  189.6830  178.2630  145.3020 O   0  0  0  0  0  0  0  0  0  0  0  0
  186.4980  177.8150  141.3250 N   0  0  1  0  0  0  0  0  0  0  0  0
  189.1910  178.6340  137.2560 C   0  0  0  0  0  3  0  0  0  0  0  0
  188.0180  178.6390  136.4980 C   0  0  0  0  0  3  0  0  0  0  0  0
  184.0390  178.4290  141.2180 C   0  0  0  0  0  0  0  0  0  0  0  0
  182.8520  178.2640  140.2900 C   0  0  1  0  0  3  0  0  0  0  0  0
  187.5220  177.1800  143.4470 C   0  0  1  0  0  3  0  0  0  0  0  0
  188.9190  177.3240  141.3710 C   0  0  0  0  0  2  0  0  0  0  0  0
  182.1270  178.6010  138.0930 C   0  0  2  0  0  3  0  0  0  0  0  0
  190.0270  176.6480  143.5430 C   0  0  0  0  0  2  0  0  0  0  0  0
  189.1260  178.4790  138.6430 C   0  0  0  0  0  3  0  0  0  0  0  0
  187.8230  178.2320  140.7990 C   0  0  1  0  0  3  0  0  0  0  0  0
  187.8890  178.3100  139.2840 C   0  0  0  0  0  0  0  0  0  0  0  0
  185.3930  178.1440  139.1960 C   0  0  2  0  0  3  0  0  0  0  0  0
  181.2070  179.3840  139.0160 C   0  0  0  0  0  2  0  0  0  0  0  0
  188.3220  178.2480  145.7030 C   0  0  0  0  0  2  0  0  0  0  0  0
  188.9200  177.4720  142.8860 C   0  0  2  0  0  3  0  0  0  0  0  0
  181.9250  179.4520  140.3370 C   0  0  0  0  0  2  0  0  0  0  0  0
  187.4010  177.2350  144.9780 C   0  0  0  0  0  2  0  0  0  0  0  0
  190.1180  176.9470  145.0440 C   0  0  1  0  0  3  0  0  0  0  0  0
  186.7780  178.5010  137.1270 C   0  0  0  0  0  3  0  0  0  0  0  0
  186.7070  178.3690  138.5200 C   0  0  0  0  0  0  0  0  0  0  0  0
  184.3280  178.7930  138.5610 O   0  0  0  0  0  0  0  0  0  0  0  0
  186.5140  178.0990  142.7660 C   0  0  0  0  0  2  0  0  0  0  0  0
  183.8350  178.5150  142.4190 O   0  0  0  0  0  0  0  0  0  0  0  0
  181.3530  177.4780  137.4300 C   0  0  0  0  0  1  0  0  0  0  0  0
  185.4430  178.5950  140.6510 C   0  0  2  0  0  3  0  0  0  0  0  0
  183.2270  178.0500  138.8790 N   0  0  1  0  0  0  0  0  0  0  0  0
  191.5520  176.7640  145.5110 C   0  0  0  0  0  2  0  0  0  0  0  0
  191.5850  176.3160  146.9320 C   0  0  0  0  0  0  0  0  0  0  0  0
  192.6760  175.6050  147.4120 O   0  0  0  0  0  0  0  0  0  0  0  0
  190.6370  176.6110  147.7070 O   0  0  0  0  0  1  0  0  0  0  0  0
  1 16  1  0  0  0  0
  2 24  1  1  0  0  0
  3 11  1  0  0  0  0
  4 21  1  0  0  0  0
  4  3  2  0  0  0  0
  5 25  2  0  0  0  0
  6 18  1  6  0  0  0
  6  5  1  0  0  0  0
  7 24  1  6  0  0  0
  7 19  1  0  0  0  0
  9 26  1  1  0  0  0
  9 28  1  0  0  0  0
  9 15  1  0  0  0  0
 10 20  1  0  0  0  0
 11 13  2  0  0  0  0
 12  2  1  0  0  0  0
 12  8  1  6  0  0  0
 13 12  1  0  0  0  0
 14 22  1  6  0  0  0
 14 27  1  0  0  0  0
 15 18  1  0  0  0  0
 17  8  1  6  0  0  0
 17  7  1  0  0  0  0
 17 10  1  0  0  0  0
 19 16  1  0  0  0  0
 20  1  1  0  0  0  0
 20 29  1  6  0  0  0
 21 22  2  0  0  0  0
 22 13  1  0  0  0  0
 23 14  1  0  0  0  0
 27  5  1  1  0  0  0
 27  2  1  0  0  0  0
 28 23  1  6  0  0  0
 28  6  1  0  0  0  0
 29 30  1  0  0  0  0
 30 31  2  0  0  0  0
 30 32  1  0  0  0  0
M  END
>  <MODEL>
5

>  <REMARK>
 VINA RESULT:      -8.9      2.576      8.843
  Name = 
  2 active torsions:
  status: ('A' for Active; 'I' for Inactive)
    1  A    between atoms: C_20  and  C_29
    2  A    between atoms: C_29  and  C_30
                            x       y       z     vdW  Elec       q    Type
                         _______ _______ _______ _____ _____    ______ ____

>  <TORSDO>
F 2

$$$$
=
 OpenBabel11122410393D

 32 37  0  0  1  0  0  0  0  0999 V2000
  186.1460  179.3780  145.7460 O   0  0  0  0  0  0  0  0  0  0  0  0
  187.8150  177.7040  141.2100 N   0  0  1  0  0  0  0  0  0  0  0  0
  192.7400  177.3760  141.5470 C   0  0  0  0  0  3  0  0  0  0  0  0
  192.8040  177.1280  140.1740 C   0  0  0  0  0  3  0  0  0  0  0  0
  186.8510  178.1920  138.9150 C   0  0  0  0  0  0  0  0  0  0  0  0
  187.0080  177.7310  137.4790 C   0  0  1  0  0  3  0  0  0  0  0  0
  186.3830  177.7430  143.1850 C   0  0  1  0  0  3  0  0  0  0  0  0
  188.8410  177.3140  143.4230 C   0  0  0  0  0  2  0  0  0  0  0  0
  188.5770  177.3940  135.7790 C   0  0  2  0  0  3  0  0  0  0  0  0
  187.3990  177.3310  145.5020 C   0  0  0  0  0  2  0  0  0  0  0  0
  191.5080  177.6290  142.1550 C   0  0  0  0  0  3  0  0  0  0  0  0
  189.0040  177.9860  142.0530 C   0  0  1  0  0  3  0  0  0  0  0  0
  190.3250  177.6210  141.4000 C   0  0  0  0  0  0  0  0  0  0  0  0
  189.1390  177.3680  139.2110 C   0  0  2  0  0  3  0  0  0  0  0  0
  187.5430  178.3860  135.2720 C   0  0  0  0  0  2  0  0  0  0  0  0
  185.1410  179.4430  144.7460 C   0  0  0  0  0  2  0  0  0  0  0  0
  187.6080  177.8970  144.0970 C   0  0  2  0  0  3  0  0  0  0  0  0
  186.8020  178.8560  136.4960 C   0  0  0  0  0  2  0  0  0  0  0  0
  185.0540  178.2380  143.7770 C   0  0  0  0  0  2  0  0  0  0  0  0
  186.2580  178.0570  146.2230 C   0  0  1  0  0  3  0  0  0  0  0  0
  191.6370  177.1450  139.4060 C   0  0  0  0  0  3  0  0  0  0  0  0
  190.4020  177.4220  140.0080 C   0  0  0  0  0  0  0  0  0  0  0  0
  189.3070  177.7740  137.8820 O   0  0  0  0  0  0  0  0  0  0  0  0
  186.6830  178.3960  141.8400 C   0  0  0  0  0  2  0  0  0  0  0  0
  185.7650  178.6180  139.2760 O   0  0  0  0  0  0  0  0  0  0  0  0
  188.4830  176.1060  134.9840 C   0  0  0  0  0  1  0  0  0  0  0  0
  188.0530  178.2240  139.8500 C   0  0  2  0  0  3  0  0  0  0  0  0
  188.3230  177.1250  137.1910 N   0  0  1  0  0  0  0  0  0  0  0  0
  186.5230  178.0580  147.7200 C   0  0  0  0  0  2  0  0  0  0  0  0
  187.9310  177.6600  148.0010 C   0  0  0  0  0  0  0  0  0  0  0  0
  188.9160  178.6300  148.1260 O   0  0  0  0  0  0  0  0  0  0  0  0
  188.2220  176.4450  148.1580 O   0  0  0  0  0  1  0  0  0  0  0  0
  1 20  1  0  0  0  0
  2 24  1  1  0  0  0
  2 12  1  0  0  0  0
  3 11  1  0  0  0  0
  4  3  2  0  0  0  0
  5 25  2  0  0  0  0
  6 18  1  6  0  0  0
  6  5  1  0  0  0  0
  7 24  1  6  0  0  0
  7 19  1  0  0  0  0
  7 17  1  0  0  0  0
  9 26  1  6  0  0  0
  9 28  1  0  0  0  0
 10 20  1  0  0  0  0
 12  8  1  1  0  0  0
 13 12  1  0  0  0  0
 13 11  2  0  0  0  0
 14 23  1  6  0  0  0
 14 27  1  0  0  0  0
 14 22  1  0  0  0  0
 15  9  1  0  0  0  0
 15 18  1  0  0  0  0
 16  1  1  0  0  0  0
 17  8  1  6  0  0  0
 17 10  1  0  0  0  0
 19 16  1  0  0  0  0
 20 29  1  1  0  0  0
 21 22  2  0  0  0  0
 21  4  1  0  0  0  0
 22 13  1  0  0  0  0
 27  5  1  6  0  0  0
 27  2  1  0  0  0  0
 28  6  1  0  0  0  0
 28 23  1  1  0  0  0
 29 30  1  0  0  0  0
 30 31  2  0  0  0  0
 30 32  1  0  0  0  0
M  END
>  <MODEL>
6

>  <REMARK>
 VINA RESULT:      -8.2      3.309      7.149
  Name = 
  2 active torsions:
  status: ('A' for Active; 'I' for Inactive)
    1  A    between atoms: C_20  and  C_29
    2  A    between atoms: C_29  and  C_30
                            x       y       z     vdW  Elec       q    Type
                         _______ _______ _______ _____ _____    ______ ____

>  <TORSDO>
F 2

$$$$
=
 OpenBabel11122410393D

 32 37  0  0  1  0  0  0  0  0999 V2000
  188.1960  179.2950  137.1870 O   0  0  0  0  0  0  0  0  0  0  0  0
  187.6100  177.8180  142.0490 N   0  0  1  0  0  0  0  0  0  0  0  0
  183.1330  179.3740  143.4720 C   0  0  0  0  0  3  0  0  0  0  0  0
  183.4360  179.0020  144.7830 C   0  0  0  0  0  3  0  0  0  0  0  0
  189.3870  177.6340  143.8500 C   0  0  0  0  0  0  0  0  0  0  0  0
  189.5480  177.0930  145.2570 C   0  0  1  0  0  3  0  0  0  0  0  0
  188.2040  177.5660  139.6960 C   0  0  1  0  0  3  0  0  0  0  0  0
  185.8430  178.1060  140.3460 C   0  0  0  0  0  2  0  0  0  0  0  0
  188.6290  177.1550  147.4060 C   0  0  2  0  0  3  0  0  0  0  0  0
  186.4040  177.8420  137.8930 C   0  0  0  0  0  2  0  0  0  0  0  0
  184.0900  179.2270  142.4650 C   0  0  0  0  0  3  0  0  0  0  0  0
  186.4170  178.6190  141.6730 C   0  0  1  0  0  3  0  0  0  0  0  0
  185.3550  178.6910  142.7560 C   0  0  0  0  0  0  0  0  0  0  0  0
  187.0010  177.7550  144.3920 C   0  0  2  0  0  3  0  0  0  0  0  0
  190.0710  177.6270  147.4990 C   0  0  0  0  0  2  0  0  0  0  0  0
  189.4160  178.8630  137.7690 C   0  0  0  0  0  2  0  0  0  0  0  0
  186.9080  178.2700  139.2700 C   0  0  2  0  0  3  0  0  0  0  0  0
  190.4860  177.9340  146.0850 C   0  0  0  0  0  2  0  0  0  0  0  0
  189.3440  177.6030  138.6660 C   0  0  0  0  0  2  0  0  0  0  0  0
  187.4280  178.1770  136.8030 C   0  0  1  0  0  3  0  0  0  0  0  0
  184.7010  178.4950  145.0910 C   0  0  0  0  0  3  0  0  0  0  0  0
  185.6720  178.3670  144.0890 C   0  0  0  0  0  0  0  0  0  0  0  0
  187.4530  178.0290  145.6870 O   0  0  0  0  0  0  0  0  0  0  0  0
  188.6430  178.1150  141.0490 C   0  0  0  0  0  2  0  0  0  0  0  0
  190.3670  177.6700  143.1220 O   0  0  0  0  0  0  0  0  0  0  0  0
  188.4720  175.8370  148.1390 C   0  0  0  0  0  1  0  0  0  0  0  0
  188.0560  178.2210  143.3970 C   0  0  2  0  0  3  0  0  0  0  0  0
  188.2760  176.9850  145.9990 N   0  0  1  0  0  0  0  0  0  0  0  0
  186.7060  178.4570  135.4960 C   0  0  0  0  0  2  0  0  0  0  0  0
  186.0310  177.2250  134.9980 C   0  0  0  0  0  0  0  0  0  0  0  0
  186.7660  176.0650  134.7900 O   0  0  0  0  0  0  0  0  0  0  0  0
  184.7880  177.2250  134.7970 O   0  0  0  0  0  1  0  0  0  0  0  0
  1 16  1  0  0  0  0
  2 24  1  6  0  0  0
  2 27  1  0  0  0  0
  3  4  1  0  0  0  0
  4 21  2  0  0  0  0
  5  6  1  0  0  0  0
  6 28  1  0  0  0  0
  6 18  1  1  0  0  0
  7 19  1  6  0  0  0
  7 24  1  0  0  0  0
  9 15  1  0  0  0  0
  9 26  1  1  0  0  0
 11 13  1  0  0  0  0
 11  3  2  0  0  0  0
 12  8  1  6  0  0  0
 12  2  1  0  0  0  0
 12 13  1  0  0  0  0
 13 22  2  0  0  0  0
 14 22  1  6  0  0  0
 14 23  1  0  0  0  0
 16 19  1  0  0  0  0
 17 10  1  6  0  0  0
 17  7  1  0  0  0  0
 17  8  1  0  0  0  0
 18 15  1  0  0  0  0
 20 29  1  6  0  0  0
 20  1  1  0  0  0  0
 20 10  1  0  0  0  0
 22 21  1  0  0  0  0
 25  5  2  0  0  0  0
 27  5  1  1  0  0  0
 27 14  1  0  0  0  0
 28 23  1  6  0  0  0
 28  9  1  0  0  0  0
 30 29  1  0  0  0  0
 31 30  2  0  0  0  0
 32 30  1  0  0  0  0
M  END
>  <MODEL>
7

>  <REMARK>
 VINA RESULT:      -8.0      3.341      5.130
  Name = 
  2 active torsions:
  status: ('A' for Active; 'I' for Inactive)
    1  A    between atoms: C_20  and  C_29
    2  A    between atoms: C_29  and  C_30
                            x       y       z     vdW  Elec       q    Type
                         _______ _______ _______ _____ _____    ______ ____

>  <TORSDO>
F 2

$$$$
=
 OpenBabel11122410393D

 32 37  0  0  1  0  0  0  0  0999 V2000
  188.9100  176.3960  138.3870 O   0  0  0  0  0  0  0  0  0  0  0  0
  184.8960  178.5270  140.7330 N   0  0  1  0  0  0  0  0  0  0  0  0
  185.8140  178.3060  145.5900 C   0  0  0  0  0  3  0  0  0  0  0  0
  184.5110  178.7410  145.8420 C   0  0  0  0  0  3  0  0  0  0  0  0
  182.4620  178.4730  140.0210 C   0  0  0  0  0  0  0  0  0  0  0  0
  181.1410  179.1160  140.3910 C   0  0  1  0  0  3  0  0  0  0  0  0
  186.6740  178.3490  139.0720 C   0  0  1  0  0  3  0  0  0  0  0  0
  187.2420  178.4900  141.5100 C   0  0  0  0  0  2  0  0  0  0  0  0
  179.6930  179.5350  142.1800 C   0  0  2  0  0  3  0  0  0  0  0  0
  189.1230  178.3200  139.8270 C   0  0  0  0  0  2  0  0  0  0  0  0
  186.2380  178.0930  144.2760 C   0  0  0  0  0  3  0  0  0  0  0  0
  185.8100  178.0090  141.7830 C   0  0  1  0  0  3  0  0  0  0  0  0
  185.3690  178.3290  143.2000 C   0  0  0  0  0  0  0  0  0  0  0  0
  183.1290  179.0110  142.3160 C   0  0  2  0  0  3  0  0  0  0  0  0
  178.9310  178.7350  141.1370 C   0  0  0  0  0  2  0  0  0  0  0  0
  187.8090  176.5770  137.5110 C   0  0  0  0  0  2  0  0  0  0  0  0
  187.6790  177.9430  140.1590 C   0  0  2  0  0  3  0  0  0  0  0  0
  179.9790  178.1710  140.2150 C   0  0  0  0  0  2  0  0  0  0  0  0
  187.0340  177.9110  137.6440 C   0  0  0  0  0  2  0  0  0  0  0  0
  189.5960  177.6170  138.5490 C   0  0  1  0  0  3  0  0  0  0  0  0
  183.6270  178.9520  144.7810 C   0  0  0  0  0  3  0  0  0  0  0  0
  184.0410  178.7170  143.4630 C   0  0  0  0  0  0  0  0  0  0  0  0
  181.7800  178.7860  142.6110 O   0  0  0  0  0  0  0  0  0  0  0  0
  185.2850  177.8690  139.4790 C   0  0  0  0  0  2  0  0  0  0  0  0
  182.6330  178.1100  138.8680 O   0  0  0  0  0  0  0  0  0  0  0  0
  179.1020  180.9260  142.2910 C   0  0  0  0  0  1  0  0  0  0  0  0
  183.5060  178.1860  141.0920 C   0  0  2  0  0  3  0  0  0  0  0  0
  181.0940  179.6220  141.7780 N   0  0  1  0  0  0  0  0  0  0  0  0
  191.0940  177.3750  138.6270 C   0  0  0  0  0  2  0  0  0  0  0  0
  191.4750  176.1900  137.8070 C   0  0  0  0  0  0  0  0  0  0  0  0
  191.7100  176.3330  136.4470 O   0  0  0  0  0  0  0  0  0  0  0  0
  191.6150  175.0650  138.3540 O   0  0  0  0  0  1  0  0  0  0  0  0
  1 20  1  0  0  0  0
  2 24  1  6  0  0  0
  2 27  1  0  0  0  0
  2 12  1  0  0  0  0
  3  4  1  0  0  0  0
  5  6  1  0  0  0  0
  6 18  1  1  0  0  0
  6 28  1  0  0  0  0
  7 19  1  6  0  0  0
  7 24  1  0  0  0  0
  7 17  1  0  0  0  0
  9 26  1  6  0  0  0
 11  3  2  0  0  0  0
 12  8  1  6  0  0  0
 12 13  1  0  0  0  0
 13 22  2  0  0  0  0
 13 11  1  0  0  0  0
 14 23  1  1  0  0  0
 14 22  1  0  0  0  0
 15  9  1  0  0  0  0
 16 19  1  0  0  0  0
 16  1  1  0  0  0  0
 17 10  1  6  0  0  0
 17  8  1  0  0  0  0
 18 15  1  0  0  0  0
 20 29  1  1  0  0  0
 20 10  1  0  0  0  0
 21  4  2  0  0  0  0
 22 21  1  0  0  0  0
 25  5  2  0  0  0  0
 27  5  1  6  0  0  0
 27 14  1  0  0  0  0
 28  9  1  0  0  0  0
 28 23  1  1  0  0  0
 30 32  1  0  0  0  0
 30 29  1  0  0  0  0
 31 30  2  0  0  0  0
M  END
>  <MODEL>
8

>  <REMARK>
 VINA RESULT:      -7.9      2.659      7.889
  Name = 
  2 active torsions:
  status: ('A' for Active; 'I' for Inactive)
    1  A    between atoms: C_20  and  C_29
    2  A    between atoms: C_29  and  C_30
                            x       y       z     vdW  Elec       q    Type
                         _______ _______ _______ _____ _____    ______ ____

>  <TORSDO>
F 2

$$$$
=
 OpenBabel11122410393D

 32 37  0  0  1  0  0  0  0  0999 V2000
  180.8350  178.0680  140.1510 O   0  0  0  0  0  0  0  0  0  0  0  0
  185.8160  178.6150  141.1770 N   0  0  1  0  0  0  0  0  0  0  0  0
  188.2040  178.1900  136.8650 C   0  0  0  0  0  3  0  0  0  0  0  0
  189.4190  178.1760  137.5550 C   0  0  0  0  0  3  0  0  0  0  0  0
  187.0690  177.8910  143.2610 C   0  0  0  0  0  0  0  0  0  0  0  0
  188.4340  178.0570  143.8980 C   0  0  1  0  0  3  0  0  0  0  0  0
  183.4410  179.1610  141.2910 C   0  0  1  0  0  3  0  0  0  0  0  0
  184.6390  179.2190  139.0900 C   0  0  0  0  0  2  0  0  0  0  0  0
  190.7280  177.8270  143.5060 C   0  0  2  0  0  3  0  0  0  0  0  0
  182.1790  179.8070  139.1560 C   0  0  0  0  0  2  0  0  0  0  0  0
  187.0000  178.2530  137.5710 C   0  0  0  0  0  3  0  0  0  0  0  0
  185.6840  178.2970  139.7320 C   0  0  1  0  0  3  0  0  0  0  0  0
  186.9990  178.3200  138.9730 C   0  0  0  0  0  0  0  0  0  0  0  0
  188.2240  178.3700  141.1540 C   0  0  2  0  0  3  0  0  0  0  0  0
  190.3630  176.9430  144.6870 C   0  0  0  0  0  2  0  0  0  0  0  0
  181.1090  177.9910  141.5410 C   0  0  0  0  0  2  0  0  0  0  0  0
  183.3020  178.9740  139.7740 C   0  0  2  0  0  3  0  0  0  0  0  0
  188.8620  176.8250  144.6540 C   0  0  0  0  0  2  0  0  0  0  0  0
  182.1420  179.0030  142.0970 C   0  0  0  0  0  2  0  0  0  0  0  0
  180.8180  179.4170  139.7430 C   0  0  1  0  0  3  0  0  0  0  0  0
  189.4290  178.2140  138.9520 C   0  0  0  0  0  3  0  0  0  0  0  0
  188.2240  178.2530  139.6640 C   0  0  0  0  0  0  0  0  0  0  0  0
  189.3020  177.7130  141.7590 O   0  0  0  0  0  0  0  0  0  0  0  0
  184.5420  178.2400  141.8050 C   0  0  0  0  0  2  0  0  0  0  0  0
  186.1020  177.7180  143.9860 O   0  0  0  0  0  0  0  0  0  0  0  0
  191.6340  178.9510  143.9680 C   0  0  0  0  0  1  0  0  0  0  0  0
  186.9280  177.8300  141.7450 C   0  0  2  0  0  3  0  0  0  0  0  0
  189.5040  178.3800  142.9330 N   0  0  1  0  0  0  0  0  0  0  0  0
  179.7340  179.6390  138.7010 C   0  0  0  0  0  2  0  0  0  0  0  0
  179.5940  181.0900  138.3940 C   0  0  0  0  0  0  0  0  0  0  0  0
  179.4070  182.0030  139.4230 O   0  0  0  0  0  1  0  0  0  0  0  0
  179.6780  181.4930  137.2040 O   0  0  0  0  0  0  0  0  0  0  0  0
  1 16  1  0  0  0  0
  2 27  1  0  0  0  0
  2 24  1  1  0  0  0
  3  4  2  0  0  0  0
  3 11  1  0  0  0  0
  4 21  1  0  0  0  0
  5  6  1  0  0  0  0
  5 25  2  0  0  0  0
  6 18  1  6  0  0  0
  7 24  1  1  0  0  0
  7 19  1  0  0  0  0
  9 26  1  1  0  0  0
  9 15  1  0  0  0  0
 10 20  1  0  0  0  0
 10 17  1  0  0  0  0
 11 13  2  0  0  0  0
 12  8  1  6  0  0  0
 12  2  1  0  0  0  0
 13 22  1  0  0  0  0
 13 12  1  0  0  0  0
 14 22  1  6  0  0  0
 14 27  1  0  0  0  0
 14 23  1  0  0  0  0
 16 19  1  0  0  0  0
 17  8  1  6  0  0  0
 17  7  1  0  0  0  0
 18 15  1  0  0  0  0
 20 29  1  6  0  0  0
 20  1  1  0  0  0  0
 21 22  2  0  0  0  0
 27  5  1  1  0  0  0
 28 23  1  6  0  0  0
 28  9  1  0  0  0  0
 28  6  1  0  0  0  0
 30 29  1  0  0  0  0
 30 31  1  0  0  0  0
 32 30  2  0  0  0  0
M  END
>  <MODEL>
9

>  <REMARK>
 VINA RESULT:      -7.8      2.016      4.355
  Name = 
  2 active torsions:
  status: ('A' for Active; 'I' for Inactive)
    1  A    between atoms: C_20  and  C_29
    2  A    between atoms: C_29  and  C_30
                            x       y       z     vdW  Elec       q    Type
                         _______ _______ _______ _____ _____    ______ ____

>  <TORSDO>
F 2

$$$$
