=
 OpenBabel11122410423D

 32 38  0  0  1  0  0  0  0  0999 V2000
  189.4390  177.4260  136.6760 C   0  0  1  0  0  3  0  0  0  0  0  0
  189.2190  178.0830  141.8400 C   0  0  2  0  0  3  0  0  0  0  0  0
  184.4510  179.4020  142.6690 C   0  0  0  0  0  2  0  0  0  0  0  0
  184.3230  178.4270  143.8370 C   0  0  0  0  0  2  0  0  0  0  0  0
  190.6140  177.4920  143.9740 C   0  0  0  0  0  0  0  0  0  0  0  0
  190.5050  176.8090  145.2990 C   0  0  1  0  0  3  0  0  0  0  0  0
  189.9500  177.4230  139.5610 C   0  0  2  0  0  3  0  0  0  0  0  0
  187.7480  178.4900  139.9390 N   0  0  0  0  0  2  0  0  0  0  0  0
  189.7660  177.0190  147.4170 C   0  0  1  0  0  3  0  0  0  0  0  0
  188.3280  177.8750  137.6420 C   0  0  2  0  0  3  0  0  0  0  0  0
  185.4020  178.8240  141.6310 C   0  0  0  0  0  2  0  0  0  0  0  0
  187.7780  178.0040  141.3150 C   0  0  2  0  0  3  0  0  0  0  0  0
  186.8010  178.7320  142.2410 C   0  0  2  0  0  3  0  0  0  0  0  0
  188.0660  177.3350  144.0500 C   0  0  2  0  0  3  0  0  0  0  0  0
  191.2020  176.7470  147.5360 N   0  0  0  0  0  2  0  0  0  0  0  0
  190.7040  176.7890  137.2910 C   0  0  0  0  0  2  0  0  0  0  0  0
  188.4810  177.5190  139.1220 C   0  0  1  0  0  3  0  0  0  0  0  0
  191.7250  176.7940  146.1730 C   0  0  0  0  0  2  0  0  0  0  0  0
  190.6020  176.3360  138.7410 C   0  0  0  0  0  2  0  0  0  0  0  0
  188.2030  176.5720  136.8600 C   0  0  1  0  0  3  0  0  0  0  0  0
  185.6600  177.9160  144.3140 C   0  0  0  0  0  3  0  0  0  0  0  0
  186.7900  178.0140  143.5860 C   0  0  0  0  0  0  0  0  0  0  0  0
  188.1840  177.1570  145.5920 C   0  0  0  0  0  2  0  0  0  0  0  0
  190.0460  177.0740  141.0490 C   0  0  0  0  0  2  0  0  0  0  0  0
  191.6930  177.6950  143.4360 O   0  0  0  0  0  0  0  0  0  0  0  0
  189.2910  178.2460  148.6160 Cl  0  0  0  0  0  0  0  0  0  0  0  0
  189.3120  177.9780  143.3790 C   0  0  2  0  0  3  0  0  0  0  0  0
  189.5180  177.5190  146.0760 N   0  0  2  0  0  0  0  0  0  0  0  0
  187.3150  176.7690  135.7400 N   0  0  0  0  0  0  0  0  0  0  0  0
  186.0460  176.5520  135.8030 C   0  0  0  0  0  0  0  0  0  0  0  0
  185.3800  176.0760  137.0580 C   0  0  0  0  0  1  0  0  0  0  0  0
  185.2100  176.7850  134.5940 C   0  0  0  0  0  1  0  0  0  0  0  0
  1 20  1  0  0  0  0
  1 16  1  1  0  0  0
  1 10  1  0  0  0  0
  2 24  1  6  0  0  0
  2 27  1  0  0  0  0
  3  4  1  0  0  0  0
  4 21  1  0  0  0  0
  5  6  1  0  0  0  0
  6 28  1  0  0  0  0
  6 18  1  1  0  0  0
  7 19  1  6  0  0  0
  7 24  1  0  0  0  0
  8 12  1  0  0  0  0
  9 15  1  0  0  0  0
  9 26  1  1  0  0  0
 10 17  1  0  0  0  0
 11 13  1  0  0  0  0
 11  3  1  0  0  0  0
 12  2  1  0  0  0  0
 12 13  1  0  0  0  0
 13 22  1  0  0  0  0
 14 23  1  0  0  0  0
 16 19  1  0  0  0  0
 17  7  1  0  0  0  0
 17  8  1  0  0  0  0
 18 15  1  0  0  0  0
 20 10  1  0  0  0  0
 22 14  1  0  0  0  0
 22 21  2  0  0  0  0
 23 28  1  0  0  0  0
 25  5  2  0  0  0  0
 27  5  1  0  0  0  0
 27 14  1  0  0  0  0
 28  9  1  0  0  0  0
 29 30  2  0  0  0  0
 29 20  1  0  0  0  0
 30 31  1  0  0  0  0
 32 30  1  0  0  0  0
M  END
>  <MODEL>
1

>  <REMARK>
 VINA RESULT:     -11.5      0.000      0.000
  Name = 
  1 active torsions:
  status: ('A' for Active; 'I' for Inactive)
    1  A    between atoms: C_20  and  N_29
                            x       y       z     vdW  Elec       q    Type
                         _______ _______ _______ _____ _____    ______ ____

>  <TORSDO>
F 1

$$$$
=
 OpenBabel11122410423D

 32 38  0  0  1  0  0  0  0  0999 V2000
  188.8010  177.9780  146.6430 C   0  0  1  0  0  3  0  0  0  0  0  0
  188.4730  178.2450  141.4500 C   0  0  2  0  0  3  0  0  0  0  0  0
  193.1770  177.4200  139.9170 C   0  0  0  0  0  2  0  0  0  0  0  0
  192.7180  176.4280  138.8520 C   0  0  0  0  0  2  0  0  0  0  0  0
  186.6480  178.1920  139.5740 C   0  0  0  0  0  0  0  0  0  0  0  0
  186.2670  177.4640  138.3250 C   0  0  1  0  0  3  0  0  0  0  0  0
  187.8970  178.0540  143.8570 C   0  0  2  0  0  3  0  0  0  0  0  0
  190.2560  178.0900  143.1060 N   0  0  0  0  0  2  0  0  0  0  0  0
  186.6930  177.2510  136.1230 C   0  0  1  0  0  3  0  0  0  0  0  0
  189.8360  177.8780  145.5080 C   0  0  2  0  0  3  0  0  0  0  0  0
  192.2460  177.3390  141.1180 C   0  0  0  0  0  2  0  0  0  0  0  0
  189.8200  177.5980  141.8020 C   0  0  2  0  0  3  0  0  0  0  0  0
  190.8530  177.8090  140.6940 C   0  0  2  0  0  3  0  0  0  0  0  0
  188.8700  176.9850  139.2080 C   0  0  2  0  0  3  0  0  0  0  0  0
  185.2700  177.5960  136.2080 N   0  0  0  0  0  2  0  0  0  0  0  0
  187.3090  177.8980  146.2560 C   0  0  0  0  0  2  0  0  0  0  0  0
  189.3270  177.5500  144.1030 C   0  0  1  0  0  3  0  0  0  0  0  0
  185.0270  177.9190  137.6110 C   0  0  0  0  0  2  0  0  0  0  0  0
  186.9940  177.3770  144.8600 C   0  0  0  0  0  2  0  0  0  0  0  0
  189.5400  176.6800  146.4020 C   0  0  1  0  0  3  0  0  0  0  0  0
  191.2330  176.4990  138.5960 C   0  0  0  0  0  3  0  0  0  0  0  0
  190.3660  177.0920  139.4410 C   0  0  0  0  0  0  0  0  0  0  0  0
  188.4540  176.8010  137.7190 C   0  0  0  0  0  2  0  0  0  0  0  0
  187.4400  177.7090  142.4370 C   0  0  0  0  0  2  0  0  0  0  0  0
  185.8410  178.8490  140.2140 O   0  0  0  0  0  0  0  0  0  0  0  0
  187.4340  178.1120  134.7530 Cl  0  0  0  0  0  0  0  0  0  0  0  0
  188.1100  178.1180  139.9530 C   0  0  2  0  0  3  0  0  0  0  0  0
  187.3240  177.6630  137.3640 N   0  0  2  0  0  0  0  0  0  0  0  0
  190.5920  176.5400  147.3800 N   0  0  0  0  0  0  0  0  0  0  0  0
  191.7260  175.9860  147.1180 C   0  0  0  0  0  0  0  0  0  0  0  0
  192.0520  175.4390  145.7610 C   0  0  0  0  0  1  0  0  0  0  0  0
  192.7520  175.8890  148.1920 C   0  0  0  0  0  1  0  0  0  0  0  0
  1 16  1  6  0  0  0
  2 12  1  0  0  0  0
  2 24  1  1  0  0  0
  3 11  1  0  0  0  0
  4  3  1  0  0  0  0
  5 27  1  0  0  0  0
  5 25  2  0  0  0  0
  6 18  1  6  0  0  0
  6  5  1  0  0  0  0
  7 24  1  6  0  0  0
  7 17  1  0  0  0  0
  7 19  1  0  0  0  0
  8 17  1  0  0  0  0
  9 26  1  6  0  0  0
  9 15  1  0  0  0  0
  9 28  1  0  0  0  0
 10 20  1  0  0  0  0
 10  1  1  0  0  0  0
 12  8  1  0  0  0  0
 13 11  1  0  0  0  0
 13 12  1  0  0  0  0
 14 22  1  0  0  0  0
 14 27  1  0  0  0  0
 15 18  1  0  0  0  0
 17 10  1  0  0  0  0
 19 16  1  0  0  0  0
 20  1  1  0  0  0  0
 20 29  1  0  0  0  0
 21  4  1  0  0  0  0
 21 22  2  0  0  0  0
 22 13  1  0  0  0  0
 23 14  1  0  0  0  0
 27  2  1  0  0  0  0
 28 23  1  0  0  0  0
 28  6  1  0  0  0  0
 30 29  2  0  0  0  0
 30 32  1  0  0  0  0
 31 30  1  0  0  0  0
M  END
>  <MODEL>
2

>  <REMARK>
 VINA RESULT:      -9.9      3.156      8.748
  Name = 
  1 active torsions:
  status: ('A' for Active; 'I' for Inactive)
    1  A    between atoms: C_20  and  N_29
                            x       y       z     vdW  Elec       q    Type
                         _______ _______ _______ _____ _____    ______ ____

>  <TORSDO>
F 1

$$$$
