=
 OpenBabel11122411283D

 37 42  0  0  1  0  0  0  0  0999 V2000
  180.0340  178.9540  142.6870 C   0  0  1  0  0  0  0  0  0  0  0  0
  183.2940  179.0720  139.8330 C   0  0  1  0  0  3  0  0  0  0  0  0
  182.8830  175.9940  139.2330 C   0  0  0  0  0  1  0  0  0  0  0  0
  182.5190  178.9730  142.3120 C   0  0  0  0  0  0  0  0  0  0  0  0
  182.5450  178.4650  138.6230 C   0  0  1  0  0  3  0  0  0  0  0  0
  182.1950  179.2650  140.8750 C   0  0  2  0  0  3  0  0  0  0  0  0
  183.0230  177.0740  138.1590 C   0  0  1  0  0  3  0  0  0  0  0  0
  183.9090  178.6550  142.7810 C   0  0  0  0  0  2  0  0  0  0  0  0
  181.0690  178.4360  140.4890 N   0  0  1  0  0  0  0  0  0  0  0  0
  179.4570  180.2370  143.2470 C   0  0  0  0  0  1  0  0  0  0  0  0
  185.6990  178.2530  139.4060 C   0  0  0  0  0  2  0  0  0  0  0  0
  184.9580  178.8550  141.6900 C   0  0  0  0  0  2  0  0  0  0  0  0
  179.8760  178.9800  141.1430 C   0  0  0  0  0  2  0  0  0  0  0  0
  184.4990  178.2660  140.3610 C   0  0  1  0  0  3  0  0  0  0  0  0
  181.0690  178.4380  139.0230 C   0  0  1  0  0  3  0  0  0  0  0  0
  181.4800  178.8220  143.1510 C   0  0  0  0  0  3  0  0  0  0  0  0
  184.4110  177.1230  137.4810 C   0  0  1  0  0  3  0  0  0  0  0  0
  179.3060  177.8780  143.1930 O   0  0  0  0  0  1  0  0  0  0  0  0
  185.3520  178.2540  137.9160 C   0  0  0  0  0  2  0  0  0  0  0  0
  181.0900  180.7160  137.7590 C   0  0  0  0  0  2  0  0  0  0  0  0
  180.2430  181.5410  136.9030 N   0  0  0  0  0  0  0  0  0  0  0  0
  180.4080  179.5630  135.3030 C   0  0  2  0  0  3  0  0  0  0  0  0
  180.2990  181.0880  135.5040 C   0  0  0  0  0  2  0  0  0  0  0  0
  179.3970  178.7020  136.0810 C   0  0  1  0  0  3  0  0  0  0  0  0
  179.7460  177.3520  136.0180 O   0  0  0  0  0  1  0  0  0  0  0  0
  179.0800  179.1100  137.5280 C   0  0  0  0  0  2  0  0  0  0  0  0
  181.7120  179.1340  135.4880 F   0  0  0  0  0  0  0  0  0  0  0  0
  180.2590  179.5910  138.3880 C   0  0  1  0  0  3  0  0  0  0  0  0
  180.8060  183.4680  135.5370 C   0  0  0  0  0  1  0  0  0  0  0  0
  180.7970  182.8830  136.9350 C   0  0  0  0  0  2  0  0  0  0  0  0
  186.4630  175.7170  137.0160 C   0  0  0  0  0  3  0  0  0  0  0  0
  185.0840  175.7990  137.2620 C   0  0  0  0  0  0  0  0  0  0  0  0
  184.3230  174.6270  137.3310 C   0  0  0  0  0  3  0  0  0  0  0  0
  184.1890  172.2500  137.2130 F   0  0  0  0  0  0  0  0  0  0  0  0
  186.3050  173.3040  136.8980 C   0  0  0  0  0  3  0  0  0  0  0  0
  184.9320  173.3820  137.1480 C   0  0  0  0  0  0  0  0  0  0  0  0
  187.0710  174.4720  136.8330 C   0  0  0  0  0  3  0  0  0  0  0  0
  1 16  1  0  0  0  0
  1 18  1  0  0  0  0
  1 10  1  1  0  0  0
  2 14  1  0  0  0  0
  2  6  1  0  0  0  0
  4  8  1  0  0  0  0
  4 16  2  0  0  0  0
  5 15  1  0  0  0  0
  5  2  1  0  0  0  0
  6  4  1  0  0  0  0
  7  5  1  0  0  0  0
  7  3  1  0  0  0  0
  9  6  1  0  0  0  0
  9 13  1  0  0  0  0
 11 14  1  0  0  0  0
 12  8  1  0  0  0  0
 13  1  1  0  0  0  0
 14 12  1  0  0  0  0
 15  9  1  0  0  0  0
 17 19  1  0  0  0  0
 17  7  1  0  0  0  0
 19 11  1  0  0  0  0
 20 28  1  0  0  0  0
 21 30  1  0  0  0  0
 21 20  1  0  0  0  0
 22 27  1  0  0  0  0
 22 23  1  0  0  0  0
 22 24  1  0  0  0  0
 23 21  1  0  0  0  0
 24 26  1  0  0  0  0
 25 24  1  0  0  0  0
 26 28  1  0  0  0  0
 28 15  1  0  0  0  0
 29 30  1  0  0  0  0
 31 32  1  0  0  0  0
 32 33  2  0  0  0  0
 32 17  1  0  0  0  0
 35 36  2  0  0  0  0
 36 34  1  0  0  0  0
 36 33  1  0  0  0  0
 37 35  1  0  0  0  0
 37 31  2  0  0  0  0
M  END
>  <MODEL>
1

>  <REMARK>
 VINA RESULT:      -6.8      0.000      0.000
  Name = 
  3 active torsions:
  status: ('A' for Active; 'I' for Inactive)
    1  A    between atoms: N_4  and  C_37
    2  A    between atoms: C_21  and  C_27
    3  A    between atoms: C_23  and  C_30
                            x       y       z     vdW  Elec       q    Type
                         _______ _______ _______ _____ _____    ______ ____

>  <TORSDO>
F 3

$$$$
=
 OpenBabel11122411283D

 37 42  0  0  1  0  0  0  0  0999 V2000
  188.0610  178.2740  138.9800 C   0  0  1  0  0  0  0  0  0  0  0  0
  183.8710  177.7420  139.9570 C   0  0  1  0  0  3  0  0  0  0  0  0
  183.2140  180.5610  138.6840 C   0  0  0  0  0  1  0  0  0  0  0  0
  186.2730  178.3510  140.7440 C   0  0  0  0  0  0  0  0  0  0  0  0
  183.2860  177.9980  138.5480 C   0  0  1  0  0  3  0  0  0  0  0  0
  185.3790  177.7130  139.7190 C   0  0  2  0  0  3  0  0  0  0  0  0
  182.4370  179.2770  138.3900 C   0  0  1  0  0  3  0  0  0  0  0  0
  185.7590  178.8690  142.0570 C   0  0  0  0  0  2  0  0  0  0  0  0
  185.6360  178.3480  138.4400 N   0  0  1  0  0  0  0  0  0  0  0  0
  189.0280  177.1150  139.0940 C   0  0  0  0  0  1  0  0  0  0  0  0
  181.9730  178.6140  141.4640 C   0  0  0  0  0  2  0  0  0  0  0  0
  184.2990  178.5000  142.3030 C   0  0  0  0  0  2  0  0  0  0  0  0
  186.9450  177.8830  137.9730 C   0  0  0  0  0  2  0  0  0  0  0  0
  183.4470  178.7330  141.0610 C   0  0  1  0  0  3  0  0  0  0  0  0
  184.4850  178.0090  137.5990 C   0  0  1  0  0  3  0  0  0  0  0  0
  187.5360  178.6140  140.3710 C   0  0  0  0  0  3  0  0  0  0  0  0
  181.0760  179.1750  139.1130 C   0  0  1  0  0  3  0  0  0  0  0  0
  188.7450  179.3810  138.4810 O   0  0  0  0  0  1  0  0  0  0  0  0
  181.0100  178.2460  140.3330 C   0  0  0  0  0  2  0  0  0  0  0  0
  183.9520  175.4630  137.4430 C   0  0  0  0  0  2  0  0  0  0  0  0
  183.8620  174.3860  136.4610 N   0  0  0  0  0  0  0  0  0  0  0  0
  181.9920  175.8120  135.4770 C   0  0  2  0  0  3  0  0  0  0  0  0
  182.5680  174.4100  135.7620 C   0  0  0  0  0  2  0  0  0  0  0  0
  182.9510  176.8170  134.8150 C   0  0  1  0  0  3  0  0  0  0  0  0
  182.4100  178.1030  134.8340 O   0  0  0  0  0  1  0  0  0  0  0  0
  184.4080  176.8390  135.3040 C   0  0  0  0  0  2  0  0  0  0  0  0
  181.3860  176.3340  136.6070 F   0  0  0  0  0  0  0  0  0  0  0  0
  184.6350  176.6850  136.8160 C   0  0  1  0  0  3  0  0  0  0  0  0
  185.2640  173.0100  137.8890 C   0  0  0  0  0  1  0  0  0  0  0  0
  183.9190  173.1390  137.2030 C   0  0  0  0  0  2  0  0  0  0  0  0
  179.6240  180.7610  140.4490 C   0  0  0  0  0  3  0  0  0  0  0  0
  180.3120  180.4580  139.2640 C   0  0  0  0  0  0  0  0  0  0  0  0
  180.3110  181.3790  138.2110 C   0  0  0  0  0  3  0  0  0  0  0  0
  179.6220  183.4770  137.3110 F   0  0  0  0  0  0  0  0  0  0  0  0
  178.9330  182.8840  139.5150 C   0  0  0  0  0  3  0  0  0  0  0  0
  179.6220  182.5890  138.3360 C   0  0  0  0  0  0  0  0  0  0  0  0
  178.9350  181.9700  140.5730 C   0  0  0  0  0  3  0  0  0  0  0  0
  1 10  1  1  0  0  0
  1 16  1  0  0  0  0
  2 14  1  0  0  0  0
  4  8  1  0  0  0  0
  5  2  1  0  0  0  0
  6  2  1  0  0  0  0
  6  4  1  0  0  0  0
  7  5  1  0  0  0  0
  7  3  1  0  0  0  0
  7 17  1  0  0  0  0
  8 12  1  0  0  0  0
  9  6  1  0  0  0  0
 13  9  1  0  0  0  0
 13  1  1  0  0  0  0
 14 11  1  0  0  0  0
 14 12  1  0  0  0  0
 15  9  1  0  0  0  0
 15  5  1  0  0  0  0
 16  4  2  0  0  0  0
 17 32  1  0  0  0  0
 17 19  1  0  0  0  0
 18  1  1  0  0  0  0
 19 11  1  0  0  0  0
 21 30  1  0  0  0  0
 21 20  1  0  0  0  0
 22 23  1  0  0  0  0
 22 27  1  0  0  0  0
 23 21  1  0  0  0  0
 24 25  1  0  0  0  0
 24 26  1  0  0  0  0
 24 22  1  0  0  0  0
 26 28  1  0  0  0  0
 28 20  1  0  0  0  0
 28 15  1  0  0  0  0
 30 29  1  0  0  0  0
 31 37  1  0  0  0  0
 32 31  2  0  0  0  0
 33 36  2  0  0  0  0
 33 32  1  0  0  0  0
 34 36  1  0  0  0  0
 35 37  2  0  0  0  0
 36 35  1  0  0  0  0
M  END
>  <MODEL>
2

>  <REMARK>
 VINA RESULT:      -6.4      2.872      7.052
  Name = 
  3 active torsions:
  status: ('A' for Active; 'I' for Inactive)
    1  A    between atoms: N_4  and  C_37
    2  A    between atoms: C_21  and  C_27
    3  A    between atoms: C_23  and  C_30
                            x       y       z     vdW  Elec       q    Type
                         _______ _______ _______ _____ _____    ______ ____

>  <TORSDO>
F 3

$$$$
=
 OpenBabel11122411283D

 37 42  0  0  1  0  0  0  0  0999 V2000
  180.3420  173.9680  136.0650 C   0  0  1  0  0  0  0  0  0  0  0  0
  181.9120  177.7050  137.6000 C   0  0  1  0  0  3  0  0  0  0  0  0
  182.6140  176.2880  140.3380 C   0  0  0  0  0  1  0  0  0  0  0  0
  179.8460  176.2270  137.0490 C   0  0  0  0  0  0  0  0  0  0  0  0
  183.3050  177.1920  138.0370 C   0  0  1  0  0  3  0  0  0  0  0  0
  181.3070  176.5160  136.8580 C   0  0  2  0  0  3  0  0  0  0  0  0
  183.5770  177.1820  139.5550 C   0  0  1  0  0  3  0  0  0  0  0  0
  178.9310  177.1450  137.8060 C   0  0  0  0  0  2  0  0  0  0  0  0
  182.0540  175.3320  137.2400 N   0  0  1  0  0  0  0  0  0  0  0  0
  180.0130  173.8200  134.5940 C   0  0  0  0  0  1  0  0  0  0  0  0
  181.4910  179.5710  139.3270 C   0  0  0  0  0  2  0  0  0  0  0  0
  179.5990  178.4670  138.1760 C   0  0  0  0  0  2  0  0  0  0  0  0
  181.8470  174.3250  136.1960 C   0  0  0  0  0  2  0  0  0  0  0  0
  181.0040  178.2480  138.7230 C   0  0  1  0  0  3  0  0  0  0  0  0
  183.4320  175.7890  137.4420 C   0  0  1  0  0  3  0  0  0  0  0  0
  179.4110  175.0120  136.6740 C   0  0  0  0  0  3  0  0  0  0  0  0
  183.7400  178.6050  140.1350 C   0  0  1  0  0  3  0  0  0  0  0  0
  180.1140  172.7480  136.6990 O   0  0  0  0  0  1  0  0  0  0  0  0
  183.0110  179.7380  139.4010 C   0  0  0  0  0  2  0  0  0  0  0  0
  185.4540  176.7770  136.1290 C   0  0  0  0  0  2  0  0  0  0  0  0
  186.3960  176.4220  135.0720 N   0  0  0  0  0  0  0  0  0  0  0  0
  187.1180  174.6020  136.7040 C   0  0  2  0  0  3  0  0  0  0  0  0
  187.5010  175.6030  135.5960 C   0  0  0  0  0  2  0  0  0  0  0  0
  185.9040  173.7010  136.4160 C   0  0  1  0  0  3  0  0  0  0  0  0
  185.5050  173.0240  137.5690 O   0  0  0  0  0  1  0  0  0  0  0  0
  184.6910  174.3420  135.7210 C   0  0  0  0  0  2  0  0  0  0  0  0
  187.0170  175.2390  137.9290 F   0  0  0  0  0  0  0  0  0  0  0  0
  184.3060  175.7610  136.1680 C   0  0  1  0  0  3  0  0  0  0  0  0
  187.4330  178.5020  135.7770 C   0  0  0  0  0  1  0  0  0  0  0  0
  186.9800  177.6650  134.5980 C   0  0  0  0  0  2  0  0  0  0  0  0
  182.5130  178.9120  142.3270 C   0  0  0  0  0  3  0  0  0  0  0  0
  183.7160  178.7130  141.6320 C   0  0  0  0  0  0  0  0  0  0  0  0
  184.9130  178.5860  142.3450 C   0  0  0  0  0  3  0  0  0  0  0  0
  186.0750  178.5430  144.4260 F   0  0  0  0  0  0  0  0  0  0  0  0
  183.7130  178.8690  144.4290 C   0  0  0  0  0  3  0  0  0  0  0  0
  184.9120  178.6650  143.7400 C   0  0  0  0  0  0  0  0  0  0  0  0
  182.5130  178.9920  143.7220 C   0  0  0  0  0  3  0  0  0  0  0  0
  1 10  1  6  0  0  0
  1 13  1  0  0  0  0
  1 16  1  0  0  0  0
  1 18  1  0  0  0  0
  2  5  1  0  0  0  0
  2 14  1  0  0  0  0
  4  8  1  0  0  0  0
  5  7  1  0  0  0  0
  6  4  1  0  0  0  0
  6  9  1  0  0  0  0
  6  2  1  0  0  0  0
  7 17  1  0  0  0  0
  7  3  1  0  0  0  0
  8 12  1  0  0  0  0
  9 15  1  0  0  0  0
 11 19  1  0  0  0  0
 12 14  1  0  0  0  0
 13  9  1  0  0  0  0
 14 11  1  0  0  0  0
 15  5  1  0  0  0  0
 16  4  2  0  0  0  0
 17 32  1  0  0  0  0
 19 17  1  0  0  0  0
 20 28  1  0  0  0  0
 21 23  1  0  0  0  0
 21 20  1  0  0  0  0
 22 27  1  0  0  0  0
 23 22  1  0  0  0  0
 24 22  1  0  0  0  0
 24 25  1  0  0  0  0
 26 28  1  0  0  0  0
 26 24  1  0  0  0  0
 28 15  1  0  0  0  0
 30 21  1  0  0  0  0
 30 29  1  0  0  0  0
 31 37  1  0  0  0  0
 32 31  2  0  0  0  0
 32 33  1  0  0  0  0
 33 36  2  0  0  0  0
 36 34  1  0  0  0  0
 36 35  1  0  0  0  0
 37 35  2  0  0  0  0
M  END
>  <MODEL>
3

>  <REMARK>
 VINA RESULT:      -5.9      3.299      6.910
  Name = 
  3 active torsions:
  status: ('A' for Active; 'I' for Inactive)
    1  A    between atoms: N_4  and  C_37
    2  A    between atoms: C_21  and  C_27
    3  A    between atoms: C_23  and  C_30
                            x       y       z     vdW  Elec       q    Type
                         _______ _______ _______ _____ _____    ______ ____

>  <TORSDO>
F 3

$$$$
=
 OpenBabel11122411283D

 37 42  0  0  1  0  0  0  0  0999 V2000
  184.7620  178.8450  142.8180 C   0  0  1  0  0  0  0  0  0  0  0  0
  184.3650  178.5390  138.5130 C   0  0  1  0  0  3  0  0  0  0  0  0
  183.4760  175.5180  138.8080 C   0  0  0  0  0  1  0  0  0  0  0  0
  185.9130  178.5730  140.6010 C   0  0  0  0  0  0  0  0  0  0  0  0
  182.9150  178.0000  138.4670 C   0  0  1  0  0  3  0  0  0  0  0  0
  184.5760  178.8750  139.9870 C   0  0  2  0  0  3  0  0  0  0  0  0
  182.7460  176.5560  137.9530 C   0  0  1  0  0  3  0  0  0  0  0  0
  187.0890  178.1060  139.7920 C   0  0  0  0  0  2  0  0  0  0  0  0
  183.5610  178.1730  140.7500 N   0  0  1  0  0  0  0  0  0  0  0  0
  184.9470  180.1960  143.4780 C   0  0  0  0  0  1  0  0  0  0  0  0
  185.3830  177.4430  136.4150 C   0  0  0  0  0  2  0  0  0  0  0  0
  186.8290  178.1660  138.2890 C   0  0  0  0  0  2  0  0  0  0  0  0
  183.4220  178.8620  142.0360 C   0  0  0  0  0  2  0  0  0  0  0  0
  185.4540  177.6100  137.9380 C   0  0  1  0  0  3  0  0  0  0  0  0
  182.3750  178.1490  139.8900 C   0  0  1  0  0  3  0  0  0  0  0  0
  185.9770  178.5570  141.9430 C   0  0  0  0  0  3  0  0  0  0  0  0
  183.0110  176.4330  136.4360 C   0  0  1  0  0  3  0  0  0  0  0  0
  184.6890  177.8690  143.8100 O   0  0  0  0  0  1  0  0  0  0  0  0
  183.9740  177.4570  135.8190 C   0  0  0  0  0  2  0  0  0  0  0  0
  181.4100  180.3360  138.8530 C   0  0  0  0  0  2  0  0  0  0  0  0
  180.2640  181.2330  138.9730 N   0  0  0  0  0  0  0  0  0  0  0  0
  178.9310  179.1770  138.2700 C   0  0  2  0  0  3  0  0  0  0  0  0
  179.0990  180.7090  138.2410 C   0  0  0  0  0  2  0  0  0  0  0  0
  179.0080  178.5110  139.6550 C   0  0  1  0  0  3  0  0  0  0  0  0
  179.0910  177.1230  139.5330 O   0  0  0  0  0  1  0  0  0  0  0  0
  180.0710  179.0310  140.6360 C   0  0  0  0  0  2  0  0  0  0  0  0
  179.7730  178.5730  137.3510 F   0  0  0  0  0  0  0  0  0  0  0  0
  181.4480  179.3760  140.0480 C   0  0  1  0  0  3  0  0  0  0  0  0
  180.7320  182.2790  136.8320 C   0  0  0  0  0  1  0  0  0  0  0  0
  180.6410  182.4800  138.3310 C   0  0  0  0  0  2  0  0  0  0  0  0
  184.3820  174.5780  135.3960 C   0  0  0  0  0  3  0  0  0  0  0  0
  183.1570  175.0380  135.9030 C   0  0  0  0  0  0  0  0  0  0  0  0
  182.0570  174.1750  135.9390 C   0  0  0  0  0  3  0  0  0  0  0  0
  181.1040  172.0340  135.5000 F   0  0  0  0  0  0  0  0  0  0  0  0
  183.3940  172.4120  134.9550 C   0  0  0  0  0  3  0  0  0  0  0  0
  182.1740  172.8650  135.4650 C   0  0  0  0  0  0  0  0  0  0  0  0
  184.4990  173.2680  134.9220 C   0  0  0  0  0  3  0  0  0  0  0  0
  1 10  1  1  0  0  0
  1 18  1  0  0  0  0
  2  6  1  0  0  0  0
  4 16  2  0  0  0  0
  5  2  1  0  0  0  0
  5 15  1  0  0  0  0
  6  4  1  0  0  0  0
  6  9  1  0  0  0  0
  7  5  1  0  0  0  0
  7  3  1  0  0  0  0
  8  4  1  0  0  0  0
  9 13  1  0  0  0  0
 11 14  1  0  0  0  0
 12  8  1  0  0  0  0
 13  1  1  0  0  0  0
 14 12  1  0  0  0  0
 14  2  1  0  0  0  0
 15 28  1  0  0  0  0
 15  9  1  0  0  0  0
 16  1  1  0  0  0  0
 17  7  1  0  0  0  0
 19 11  1  0  0  0  0
 19 17  1  0  0  0  0
 20 21  1  0  0  0  0
 20 28  1  0  0  0  0
 22 24  1  0  0  0  0
 23 22  1  0  0  0  0
 23 21  1  0  0  0  0
 24 26  1  0  0  0  0
 25 24  1  0  0  0  0
 27 22  1  0  0  0  0
 28 26  1  0  0  0  0
 29 30  1  0  0  0  0
 30 21  1  0  0  0  0
 31 32  1  0  0  0  0
 32 33  2  0  0  0  0
 32 17  1  0  0  0  0
 35 36  2  0  0  0  0
 36 34  1  0  0  0  0
 36 33  1  0  0  0  0
 37 35  1  0  0  0  0
 37 31  2  0  0  0  0
M  END
>  <MODEL>
4

>  <REMARK>
 VINA RESULT:      -5.6      2.016      3.133
  Name = 
  3 active torsions:
  status: ('A' for Active; 'I' for Inactive)
    1  A    between atoms: N_4  and  C_37
    2  A    between atoms: C_21  and  C_27
    3  A    between atoms: C_23  and  C_30
                            x       y       z     vdW  Elec       q    Type
                         _______ _______ _______ _____ _____    ______ ____

>  <TORSDO>
F 3

$$$$
=
 OpenBabel11122411283D

 37 42  0  0  1  0  0  0  0  0999 V2000
  187.4980  178.5710  141.4670 C   0  0  1  0  0  0  0  0  0  0  0  0
  183.4280  177.9110  140.1310 C   0  0  1  0  0  3  0  0  0  0  0  0
  183.4310  180.7400  138.7180 C   0  0  0  0  0  1  0  0  0  0  0  0
  185.0540  178.5630  142.0510 C   0  0  0  0  0  0  0  0  0  0  0  0
  183.6480  178.1840  138.6240 C   0  0  1  0  0  3  0  0  0  0  0  0
  184.8410  177.9260  140.7080 C   0  0  2  0  0  3  0  0  0  0  0  0
  182.9610  179.4430  138.0570 C   0  0  1  0  0  3  0  0  0  0  0  0
  183.9190  179.0380  142.9110 C   0  0  0  0  0  2  0  0  0  0  0  0
  185.7020  178.5950  139.7510 N   0  0  1  0  0  0  0  0  0  0  0  0
  188.3050  177.4350  142.0590 C   0  0  0  0  0  1  0  0  0  0  0  0
  180.9950  178.7010  140.4430 C   0  0  0  0  0  2  0  0  0  0  0  0
  182.5540  178.6280  142.3640 C   0  0  0  0  0  2  0  0  0  0  0  0
  187.0780  178.1740  140.0270 C   0  0  0  0  0  2  0  0  0  0  0  0
  182.4610  178.8660  140.8610 C   0  0  1  0  0  3  0  0  0  0  0  0
  185.1640  178.2460  138.4330 C   0  0  1  0  0  3  0  0  0  0  0  0
  186.3190  178.8670  142.3880 C   0  0  0  0  0  3  0  0  0  0  0  0
  181.4260  179.2910  137.9700 C   0  0  1  0  0  3  0  0  0  0  0  0
  188.3050  179.7060  141.4010 O   0  0  0  0  0  1  0  0  0  0  0  0
  180.7700  178.3340  138.9740 C   0  0  0  0  0  2  0  0  0  0  0  0
  184.7190  176.0060  137.1780 C   0  0  0  0  0  2  0  0  0  0  0  0
  185.4090  175.0150  136.3580 N   0  0  0  0  0  0  0  0  0  0  0  0
  185.7130  176.9660  134.7450 C   0  0  2  0  0  3  0  0  0  0  0  0
  185.4990  175.4530  134.9560 C   0  0  0  0  0  2  0  0  0  0  0  0
  186.8510  177.6100  135.5570 C   0  0  1  0  0  3  0  0  0  0  0  0
  186.7900  179.0010  135.4760 O   0  0  0  0  0  1  0  0  0  0  0  0
  187.0250  177.1620  137.0170 C   0  0  0  0  0  2  0  0  0  0  0  0
  184.5200  177.6550  134.8790 F   0  0  0  0  0  0  0  0  0  0  0  0
  185.7410  176.9430  137.8330 C   0  0  1  0  0  3  0  0  0  0  0  0
  184.9270  172.9800  137.5930 C   0  0  0  0  0  1  0  0  0  0  0  0
  184.5900  173.8160  136.3740 C   0  0  0  0  0  2  0  0  0  0  0  0
  179.9150  181.1740  138.7300 C   0  0  0  0  0  3  0  0  0  0  0  0
  180.6530  180.5510  137.7110 C   0  0  0  0  0  0  0  0  0  0  0  0
  180.6920  181.1250  136.4370 C   0  0  0  0  0  3  0  0  0  0  0  0
  180.0340  182.8600  134.9390 F   0  0  0  0  0  0  0  0  0  0  0  0
  179.2560  182.9230  137.1920 C   0  0  0  0  0  3  0  0  0  0  0  0
  179.9940  182.3090  136.1770 C   0  0  0  0  0  0  0  0  0  0  0  0
  179.2170  182.3560  138.4690 C   0  0  0  0  0  3  0  0  0  0  0  0
  1 10  1  1  0  0  0
  1 16  1  0  0  0  0
  2  6  1  0  0  0  0
  2 14  1  0  0  0  0
  4 16  2  0  0  0  0
  4  8  1  0  0  0  0
  5  2  1  0  0  0  0
  6  4  1  0  0  0  0
  7  5  1  0  0  0  0
  7  3  1  0  0  0  0
  9 13  1  0  0  0  0
  9  6  1  0  0  0  0
 11 14  1  0  0  0  0
 12  8  1  0  0  0  0
 13  1  1  0  0  0  0
 14 12  1  0  0  0  0
 15  5  1  0  0  0  0
 15  9  1  0  0  0  0
 17  7  1  0  0  0  0
 17 19  1  0  0  0  0
 18  1  1  0  0  0  0
 19 11  1  0  0  0  0
 20 28  1  0  0  0  0
 21 30  1  0  0  0  0
 21 20  1  0  0  0  0
 22 27  1  0  0  0  0
 22 23  1  0  0  0  0
 22 24  1  0  0  0  0
 23 21  1  0  0  0  0
 24 26  1  0  0  0  0
 25 24  1  0  0  0  0
 26 28  1  0  0  0  0
 28 15  1  0  0  0  0
 30 29  1  0  0  0  0
 32 17  1  0  0  0  0
 32 31  2  0  0  0  0
 33 32  1  0  0  0  0
 34 36  1  0  0  0  0
 35 37  2  0  0  0  0
 36 33  2  0  0  0  0
 36 35  1  0  0  0  0
 37 31  1  0  0  0  0
M  END
>  <MODEL>
5

>  <REMARK>
 VINA RESULT:      -5.5      2.970      6.979
  Name = 
  3 active torsions:
  status: ('A' for Active; 'I' for Inactive)
    1  A    between atoms: N_4  and  C_37
    2  A    between atoms: C_21  and  C_27
    3  A    between atoms: C_23  and  C_30
                            x       y       z     vdW  Elec       q    Type
                         _______ _______ _______ _____ _____    ______ ____

>  <TORSDO>
F 3

$$$$
=
 OpenBabel11122411283D

 37 42  0  0  1  0  0  0  0  0999 V2000
  185.4020  178.8970  142.4640 C   0  0  1  0  0  0  0  0  0  0  0  0
  182.2650  177.9650  139.6210 C   0  0  1  0  0  3  0  0  0  0  0  0
  182.4970  180.8760  138.4070 C   0  0  0  0  0  1  0  0  0  0  0  0
  182.9390  178.6250  142.0430 C   0  0  0  0  0  0  0  0  0  0  0  0
  183.0180  178.3630  138.3290 C   0  0  1  0  0  3  0  0  0  0  0  0
  183.3340  178.0680  140.7060 C   0  0  2  0  0  3  0  0  0  0  0  0
  182.4680  179.5910  137.5770 C   0  0  1  0  0  3  0  0  0  0  0  0
  181.5150  178.9330  142.4040 C   0  0  0  0  0  2  0  0  0  0  0  0
  184.4180  178.8790  140.1820 N   0  0  1  0  0  0  0  0  0  0  0  0
  186.0390  177.8000  143.2910 C   0  0  0  0  0  1  0  0  0  0  0  0
  179.8290  178.5060  138.9790 C   0  0  0  0  0  2  0  0  0  0  0  0
  180.5230  178.4390  141.3540 C   0  0  0  0  0  2  0  0  0  0  0  0
  185.6180  178.5670  140.9630 C   0  0  0  0  0  2  0  0  0  0  0  0
  180.9910  178.7740  139.9430 C   0  0  1  0  0  3  0  0  0  0  0  0
  184.4730  178.5760  138.7500 C   0  0  1  0  0  3  0  0  0  0  0  0
  183.9340  179.0180  142.8570 C   0  0  0  0  0  3  0  0  0  0  0  0
  181.1130  179.3060  136.8920 C   0  0  1  0  0  3  0  0  0  0  0  0
  186.0390  180.1030  142.7530 O   0  0  0  0  0  1  0  0  0  0  0  0
  180.2310  178.2240  137.5300 C   0  0  0  0  0  2  0  0  0  0  0  0
  184.8260  176.4320  137.3130 C   0  0  0  0  0  2  0  0  0  0  0  0
  185.8930  175.5710  136.8120 N   0  0  0  0  0  0  0  0  0  0  0  0
  186.6390  177.6750  135.5820 C   0  0  2  0  0  3  0  0  0  0  0  0
  186.5130  176.1380  135.6050 C   0  0  0  0  0  2  0  0  0  0  0  0
  187.2620  178.3240  136.8310 C   0  0  1  0  0  3  0  0  0  0  0  0
  187.0970  179.7090  136.8030 O   0  0  0  0  0  1  0  0  0  0  0  0
  186.8560  177.7610  138.2020 C   0  0  0  0  0  2  0  0  0  0  0  0
  185.4350  178.2620  135.2330 F   0  0  0  0  0  0  0  0  0  0  0  0
  185.3790  177.3780  138.3850 C   0  0  1  0  0  3  0  0  0  0  0  0
  185.2460  173.3650  137.5970 C   0  0  0  0  0  1  0  0  0  0  0  0
  185.2710  174.3190  136.4190 C   0  0  0  0  0  2  0  0  0  0  0  0
  179.9870  180.6140  135.0400 C   0  0  0  0  0  3  0  0  0  0  0  0
  180.3640  180.5050  136.3880 C   0  0  0  0  0  0  0  0  0  0  0  0
  180.0140  181.5180  137.2870 C   0  0  0  0  0  3  0  0  0  0  0  0
  178.9660  183.6160  137.7190 F   0  0  0  0  0  0  0  0  0  0  0  0
  178.9310  182.7440  135.5000 C   0  0  0  0  0  3  0  0  0  0  0  0
  179.3000  182.6360  136.8440 C   0  0  0  0  0  0  0  0  0  0  0  0
  179.2740  181.7320  134.5980 C   0  0  0  0  0  3  0  0  0  0  0  0
  1 18  1  0  0  0  0
  1 16  1  0  0  0  0
  1 10  1  1  0  0  0
  2 14  1  0  0  0  0
  2  6  1  0  0  0  0
  4  8  1  0  0  0  0
  4 16  2  0  0  0  0
  5 15  1  0  0  0  0
  5  2  1  0  0  0  0
  6  4  1  0  0  0  0
  7  5  1  0  0  0  0
  7  3  1  0  0  0  0
  9  6  1  0  0  0  0
  9 13  1  0  0  0  0
 11 14  1  0  0  0  0
 12  8  1  0  0  0  0
 13  1  1  0  0  0  0
 14 12  1  0  0  0  0
 15  9  1  0  0  0  0
 17 19  1  0  0  0  0
 17  7  1  0  0  0  0
 19 11  1  0  0  0  0
 20 28  1  0  0  0  0
 21 20  1  0  0  0  0
 22 23  1  0  0  0  0
 22 24  1  0  0  0  0
 23 21  1  0  0  0  0
 24 26  1  0  0  0  0
 25 24  1  0  0  0  0
 26 28  1  0  0  0  0
 27 22  1  0  0  0  0
 28 15  1  0  0  0  0
 30 21  1  0  0  0  0
 30 29  1  0  0  0  0
 31 32  1  0  0  0  0
 32 17  1  0  0  0  0
 32 33  2  0  0  0  0
 35 36  2  0  0  0  0
 36 33  1  0  0  0  0
 36 34  1  0  0  0  0
 37 31  2  0  0  0  0
 37 35  1  0  0  0  0
M  END
>  <MODEL>
6

>  <REMARK>
 VINA RESULT:      -5.5      2.706      6.818
  Name = 
  3 active torsions:
  status: ('A' for Active; 'I' for Inactive)
    1  A    between atoms: N_4  and  C_37
    2  A    between atoms: C_21  and  C_27
    3  A    between atoms: C_23  and  C_30
                            x       y       z     vdW  Elec       q    Type
                         _______ _______ _______ _____ _____    ______ ____

>  <TORSDO>
F 3

$$$$
