=
 OpenBabel11122410543D

 31 35  0  0  1  0  0  0  0  0999 V2000
  188.5820  178.0080  136.9240 C   0  0  0  0  0  0  0  0  0  0  0  0
  186.2680  178.4450  139.8800 N   0  0  0  0  0  0  0  0  0  0  0  0
  184.9600  177.8960  139.5800 C   0  0  0  0  0  0  0  0  0  0  0  0
  183.3600  176.9420  138.0100 C   0  0  0  0  0  0  0  0  0  0  0  0
  187.4210  178.1560  139.0630 C   0  0  0  0  0  0  0  0  0  0  0  0
  189.7980  177.3790  137.5470 C   0  0  0  0  0  2  0  0  0  0  0  0
  184.6240  177.4700  138.2840 C   0  0  0  0  0  3  0  0  0  0  0  0
  187.6060  178.2450  141.9350 C   0  0  0  0  0  0  0  0  0  0  0  0
  188.5660  178.2390  135.6870 O   0  0  0  0  0  0  0  0  0  0  0  0
  184.3360  178.1560  142.0060 C   0  0  0  0  0  2  0  0  0  0  0  0
  183.0220  176.5000  136.6330 C   0  0  0  0  0  1  0  0  0  0  0  0
  188.6930  177.7010  141.1720 N   0  0  0  0  0  0  0  0  0  0  0  0
  186.5500  179.0430  141.2000 C   0  0  2  0  0  3  0  0  0  0  0  0
  187.5870  178.1540  143.2710 C   0  0  0  0  0  2  0  0  0  0  0  0
  187.3950  178.3120  137.7350 C   0  0  0  0  0  3  0  0  0  0  0  0
  182.4160  176.8260  139.0320 C   0  0  0  0  0  3  0  0  0  0  0  0
  188.6660  177.7320  139.7440 C   0  0  0  0  0  0  0  0  0  0  0  0
  189.7590  177.3930  139.0530 C   0  0  0  0  0  3  0  0  0  0  0  0
  185.2770  179.3500  142.0060 C   0  0  0  0  0  2  0  0  0  0  0  0
  183.9940  177.7810  140.6020 C   0  0  0  0  0  0  0  0  0  0  0  0
  182.7360  177.2400  140.3270 C   0  0  0  0  0  3  0  0  0  0  0  0
  188.6970  176.2050  144.0820 O   0  0  0  0  0  0  0  0  0  0  0  0
  188.5810  177.4590  144.1150 C   0  0  0  0  0  0  0  0  0  0  0  0
  191.4610  176.6290  146.3930 C   0  0  1  0  0  3  0  0  0  0  0  0
  190.9390  178.1570  144.6430 C   0  0  0  0  0  2  0  0  0  0  0  0
  187.9500  177.7850  146.8880 O   0  0  0  0  0  1  0  0  0  0  0  0
  192.1630  175.3320  146.7310 C   0  0  0  0  0  1  0  0  0  0  0  0
  191.4960  176.8380  144.9470 N   0  0  0  0  0  2  0  0  0  0  0  0
  189.2990  177.8640  146.5350 C   0  0  2  0  0  3  0  0  0  0  0  0
  189.4640  178.2370  145.0510 C   0  0  2  0  0  3  0  0  0  0  0  0
  190.0150  176.5610  146.8770 C   0  0  0  0  0  2  0  0  0  0  0  0
  1  6  1  0  0  0  0
  1 15  1  0  0  0  0
  2 13  1  0  0  0  0
  3  2  1  0  0  0  0
  3 20  1  0  0  0  0
  4  7  1  0  0  0  0
  4 16  2  0  0  0  0
  5 17  1  0  0  0  0
  5  2  1  0  0  0  0
  6 18  1  0  0  0  0
  7  3  2  0  0  0  0
  8 14  1  0  0  0  0
  9  1  2  0  0  0  0
 10 19  1  0  0  0  0
 11  4  1  0  0  0  0
 12  8  2  0  0  0  0
 13  8  1  0  0  0  0
 13 19  1  1  0  0  0
 14 23  1  0  0  0  0
 15  5  2  0  0  0  0
 16 21  1  0  0  0  0
 17 12  1  0  0  0  0
 18 17  2  0  0  0  0
 20 10  1  0  0  0  0
 21 20  2  0  0  0  0
 22 23  2  0  0  0  0
 24 27  1  6  0  0  0
 24 31  1  0  0  0  0
 25 28  1  0  0  0  0
 25 30  1  0  0  0  0
 28 24  1  0  0  0  0
 29 31  1  0  0  0  0
 29 26  1  6  0  0  0
 30 23  1  6  0  0  0
 30 29  1  0  0  0  0
M  END
>  <MODEL>
1

>  <REMARK>
 VINA RESULT:      -8.6      0.000      0.000
  Name = 
  2 active torsions:
  status: ('A' for Active; 'I' for Inactive)
    1  A    between atoms: C_5  and  C_16
    2  A    between atoms: C_5  and  C_30
                            x       y       z     vdW  Elec       q    Type
                         _______ _______ _______ _____ _____    ______ ____

>  <TORSDO>
F 2

$$$$
=
 OpenBabel11122410543D

 31 35  0  0  1  0  0  0  0  0999 V2000
  184.8070  178.8430  144.3620 C   0  0  0  0  0  0  0  0  0  0  0  0
  188.5390  178.3510  144.0240 N   0  0  0  0  0  0  0  0  0  0  0  0
  189.0750  177.7250  145.2180 C   0  0  0  0  0  0  0  0  0  0  0  0
  188.8150  176.9430  147.5110 C   0  0  0  0  0  0  0  0  0  0  0  0
  187.1240  178.3870  143.7520 C   0  0  0  0  0  0  0  0  0  0  0  0
  184.2790  178.2470  143.0860 C   0  0  0  0  0  2  0  0  0  0  0  0
  188.2870  177.5490  146.3690 C   0  0  0  0  0  3  0  0  0  0  0  0
  189.0390  177.8790  141.6620 C   0  0  0  0  0  0  0  0  0  0  0  0
  184.0040  179.3290  145.2000 O   0  0  0  0  0  0  0  0  0  0  0  0
  191.2590  177.3810  144.0140 C   0  0  0  0  0  2  0  0  0  0  0  0
  187.9680  176.7690  148.7180 C   0  0  0  0  0  1  0  0  0  0  0  0
  187.6440  177.6470  141.4160 N   0  0  0  0  0  2  0  0  0  0  0  0
  189.4210  178.6820  142.8880 C   0  0  2  0  0  3  0  0  0  0  0  0
  189.9680  177.5020  140.7750 C   0  0  0  0  0  3  0  0  0  0  0  0
  186.2450  178.8200  144.6630 C   0  0  0  0  0  3  0  0  0  0  0  0
  190.1380  176.4980  147.5160 C   0  0  0  0  0  3  0  0  0  0  0  0
  186.6670  177.9810  142.4030 C   0  0  0  0  0  0  0  0  0  0  0  0
  185.3670  177.9320  142.0920 C   0  0  0  0  0  3  0  0  0  0  0  0
  190.9130  178.6530  143.2550 C   0  0  0  0  0  2  0  0  0  0  0  0
  190.4120  177.2780  145.2390 C   0  0  0  0  0  0  0  0  0  0  0  0
  190.9330  176.6600  146.3780 C   0  0  0  0  0  3  0  0  0  0  0  0
  190.5540  175.9130  139.0960 O   0  0  0  0  0  0  0  0  0  0  0  0
  189.7290  176.7680  139.5160 C   0  0  0  0  0  0  0  0  0  0  0  0
  188.9450  176.9290  135.8370 C   0  0  1  0  0  3  0  0  0  0  0  0
  188.1340  175.8520  137.7990 C   0  0  0  0  0  2  0  0  0  0  0  0
  189.0460  179.4020  138.6260 O   0  0  0  0  0  1  0  0  0  0  0  0
  189.7940  176.7570  134.5960 C   0  0  0  0  0  1  0  0  0  0  0  0
  189.0630  175.7370  136.6750 N   0  0  0  0  0  2  0  0  0  0  0  0
  188.5680  178.3350  137.8620 C   0  0  2  0  0  3  0  0  0  0  0  0
  188.5000  177.0430  138.6940 C   0  0  2  0  0  3  0  0  0  0  0  0
  189.4180  178.1590  136.6060 C   0  0  0  0  0  2  0  0  0  0  0  0
  1 15  1  0  0  0  0
  1  9  2  0  0  0  0
  2  3  1  0  0  0  0
  3 20  2  0  0  0  0
  3  7  1  0  0  0  0
  4 16  1  0  0  0  0
  4 11  1  0  0  0  0
  5  2  1  0  0  0  0
  5 15  2  0  0  0  0
  6  1  1  0  0  0  0
  7  4  2  0  0  0  0
  8 13  1  0  0  0  0
 10 20  1  0  0  0  0
 12  8  1  0  0  0  0
 12 17  1  0  0  0  0
 13 19  1  1  0  0  0
 13  2  1  0  0  0  0
 14  8  2  0  0  0  0
 17  5  1  0  0  0  0
 18 17  2  0  0  0  0
 18  6  1  0  0  0  0
 19 10  1  0  0  0  0
 20 21  1  0  0  0  0
 21 16  2  0  0  0  0
 22 23  2  0  0  0  0
 23 14  1  0  0  0  0
 24 27  1  6  0  0  0
 24 31  1  0  0  0  0
 24 28  1  0  0  0  0
 25 30  1  0  0  0  0
 28 25  1  0  0  0  0
 29 26  1  1  0  0  0
 29 30  1  0  0  0  0
 30 23  1  6  0  0  0
 31 29  1  0  0  0  0
M  END
>  <MODEL>
2

>  <REMARK>
 VINA RESULT:      -8.4      2.583      7.967
  Name = 
  2 active torsions:
  status: ('A' for Active; 'I' for Inactive)
    1  A    between atoms: C_5  and  C_16
    2  A    between atoms: C_5  and  C_30
                            x       y       z     vdW  Elec       q    Type
                         _______ _______ _______ _____ _____    ______ ____

>  <TORSDO>
F 2

$$$$
=
 OpenBabel11122410543D

 31 35  0  0  1  0  0  0  0  0999 V2000
  185.5550  178.6790  138.8340 C   0  0  0  0  0  0  0  0  0  0  0  0
  188.8740  177.7910  140.4100 N   0  0  0  0  0  0  0  0  0  0  0  0
  188.7030  177.5200  141.8240 C   0  0  0  0  0  0  0  0  0  0  0  0
  187.3340  177.5090  143.8400 C   0  0  0  0  0  0  0  0  0  0  0  0
  187.7520  177.8620  139.5070 C   0  0  0  0  0  0  0  0  0  0  0  0
  185.5020  177.7670  137.6410 C   0  0  0  0  0  2  0  0  0  0  0  0
  187.4850  177.7760  142.4770 C   0  0  0  0  0  3  0  0  0  0  0  0
  190.2120  176.5740  138.7420 C   0  0  0  0  0  0  0  0  0  0  0  0
  184.6000  179.4670  139.0580 O   0  0  0  0  0  0  0  0  0  0  0  0
  191.0600  176.6380  141.9020 C   0  0  0  0  0  2  0  0  0  0  0  0
  186.0400  177.7880  144.5130 C   0  0  0  0  0  1  0  0  0  0  0  0
  189.0390  176.3970  137.9350 N   0  0  0  0  0  0  0  0  0  0  0  0
  190.2030  177.6790  139.7770 C   0  0  2  0  0  3  0  0  0  0  0  0
  191.3220  175.8640  138.5100 C   0  0  0  0  0  2  0  0  0  0  0  0
  186.6880  178.6280  139.7690 C   0  0  0  0  0  3  0  0  0  0  0  0
  188.3990  176.9750  144.5680 C   0  0  0  0  0  3  0  0  0  0  0  0
  187.8330  177.1000  138.2390 C   0  0  0  0  0  0  0  0  0  0  0  0
  186.8120  177.0700  137.3770 C   0  0  0  0  0  3  0  0  0  0  0  0
  191.3530  177.6380  140.7950 C   0  0  0  0  0  2  0  0  0  0  0  0
  189.7730  176.9890  142.5730 C   0  0  0  0  0  0  0  0  0  0  0  0
  189.6150  176.7100  143.9330 C   0  0  0  0  0  3  0  0  0  0  0  0
  190.7400  173.7860  137.4950 O   0  0  0  0  0  0  0  0  0  0  0  0
  191.4870  174.8000  137.4980 C   0  0  0  0  0  0  0  0  0  0  0  0
  194.8780  173.2430  137.0030 C   0  0  1  0  0  3  0  0  0  0  0  0
  192.8480  173.5430  135.7960 C   0  0  0  0  0  2  0  0  0  0  0  0
  193.6300  176.6880  137.6980 O   0  0  0  0  0  1  0  0  0  0  0  0
  195.6920  172.2690  137.8260 C   0  0  0  0  0  1  0  0  0  0  0  0
  193.5730  172.6550  136.7060 N   0  0  0  0  0  2  0  0  0  0  0  0
  193.8780  175.5280  136.9610 C   0  0  2  0  0  3  0  0  0  0  0  0
  192.5680  174.8980  136.4570 C   0  0  2  0  0  3  0  0  0  0  0  0
  194.7030  174.5420  137.7840 C   0  0  0  0  0  2  0  0  0  0  0  0
  1  9  2  0  0  0  0
  1 15  1  0  0  0  0
  2  3  1  0  0  0  0
  3  7  2  0  0  0  0
  3 20  1  0  0  0  0
  4 11  1  0  0  0  0
  4 16  2  0  0  0  0
  5 15  2  0  0  0  0
  5  2  1  0  0  0  0
  6  1  1  0  0  0  0
  7  4  1  0  0  0  0
  8 13  1  0  0  0  0
 10 20  1  0  0  0  0
 12 17  1  0  0  0  0
 12  8  2  0  0  0  0
 13  2  1  0  0  0  0
 13 19  1  1  0  0  0
 14  8  1  0  0  0  0
 17  5  1  0  0  0  0
 18  6  1  0  0  0  0
 18 17  2  0  0  0  0
 19 10  1  0  0  0  0
 20 21  2  0  0  0  0
 21 16  1  0  0  0  0
 22 23  2  0  0  0  0
 23 14  1  0  0  0  0
 24 31  1  0  0  0  0
 24 27  1  1  0  0  0
 25 30  1  0  0  0  0
 25 28  1  0  0  0  0
 28 24  1  0  0  0  0
 29 26  1  1  0  0  0
 29 31  1  0  0  0  0
 30 29  1  0  0  0  0
 30 23  1  1  0  0  0
M  END
>  <MODEL>
3

>  <REMARK>
 VINA RESULT:      -8.2      3.694      7.090
  Name = 
  2 active torsions:
  status: ('A' for Active; 'I' for Inactive)
    1  A    between atoms: C_5  and  C_16
    2  A    between atoms: C_5  and  C_30
                            x       y       z     vdW  Elec       q    Type
                         _______ _______ _______ _____ _____    ______ ____

>  <TORSDO>
F 2

$$$$
=
 OpenBabel11122410543D

 31 35  0  0  1  0  0  0  0  0999 V2000
  188.9320  177.7210  136.6070 C   0  0  0  0  0  0  0  0  0  0  0  0
  185.3340  177.8360  137.7580 N   0  0  0  0  0  0  0  0  0  0  0  0
  184.6020  176.6980  137.2360 C   0  0  0  0  0  0  0  0  0  0  0  0
  184.4530  174.7450  135.7880 C   0  0  0  0  0  0  0  0  0  0  0  0
  186.7750  177.8930  137.7300 C   0  0  0  0  0  0  0  0  0  0  0  0
  189.6950  177.9000  137.8900 C   0  0  0  0  0  2  0  0  0  0  0  0
  185.1700  175.8380  136.2810 C   0  0  0  0  0  3  0  0  0  0  0  0
  185.2830  178.8190  140.0130 C   0  0  0  0  0  0  0  0  0  0  0  0
  189.5600  177.5800  135.5250 O   0  0  0  0  0  0  0  0  0  0  0  0
  182.6810  177.2850  138.7540 C   0  0  0  0  0  2  0  0  0  0  0  0
  185.0690  173.8480  134.7770 C   0  0  0  0  0  1  0  0  0  0  0  0
  186.7030  178.6420  140.1190 N   0  0  0  0  0  0  0  0  0  0  0  0
  184.6680  178.8250  138.6290 C   0  0  2  0  0  3  0  0  0  0  0  0
  184.5390  179.0890  141.0920 C   0  0  0  0  0  2  0  0  0  0  0  0
  187.4640  177.6600  136.6080 C   0  0  0  0  0  3  0  0  0  0  0  0
  183.1600  174.4920  136.2500 C   0  0  0  0  0  3  0  0  0  0  0  0
  187.4780  178.2760  138.9760 C   0  0  0  0  0  0  0  0  0  0  0  0
  188.8130  178.2960  139.0460 C   0  0  0  0  0  3  0  0  0  0  0  0
  183.1350  178.7270  138.5890 C   0  0  0  0  0  2  0  0  0  0  0  0
  183.2920  176.4370  137.6880 C   0  0  0  0  0  0  0  0  0  0  0  0
  182.5830  175.3350  137.2040 C   0  0  0  0  0  3  0  0  0  0  0  0
  185.6320  180.1890  142.9040 O   0  0  0  0  0  0  0  0  0  0  0  0
  185.0170  179.1710  142.4880 C   0  0  0  0  0  0  0  0  0  0  0  0
  185.5190  178.6180  146.1770 C   0  0  1  0  0  3  0  0  0  0  0  0
  183.8010  178.3880  144.5460 C   0  0  0  0  0  2  0  0  0  0  0  0
  187.0640  177.2560  143.0690 O   0  0  0  0  0  1  0  0  0  0  0  0
  186.0610  179.4960  147.2840 C   0  0  0  0  0  1  0  0  0  0  0  0
  184.4060  179.2990  145.5190 N   0  0  0  0  0  2  0  0  0  0  0  0
  186.0870  177.4510  144.0480 C   0  0  2  0  0  3  0  0  0  0  0  0
  184.7970  178.0270  143.4380 C   0  0  2  0  0  3  0  0  0  0  0  0
  186.6290  178.3330  145.1700 C   0  0  0  0  0  2  0  0  0  0  0  0
  1 15  1  0  0  0  0
  1  6  1  0  0  0  0
  2 13  1  0  0  0  0
  3 20  1  0  0  0  0
  3  2  1  0  0  0  0
  4 16  2  0  0  0  0
  4  7  1  0  0  0  0
  5  2  1  0  0  0  0
  5 17  1  0  0  0  0
  6 18  1  0  0  0  0
  7  3  2  0  0  0  0
  8 12  2  0  0  0  0
  8 14  1  0  0  0  0
  9  1  2  0  0  0  0
 11  4  1  0  0  0  0
 13 19  1  1  0  0  0
 13  8  1  0  0  0  0
 14 23  1  0  0  0  0
 15  5  2  0  0  0  0
 16 21  1  0  0  0  0
 17 18  2  0  0  0  0
 17 12  1  0  0  0  0
 19 10  1  0  0  0  0
 20 10  1  0  0  0  0
 21 20  2  0  0  0  0
 23 22  2  0  0  0  0
 24 27  1  1  0  0  0
 25 28  1  0  0  0  0
 28 24  1  0  0  0  0
 29 26  1  6  0  0  0
 29 31  1  0  0  0  0
 30 23  1  1  0  0  0
 30 29  1  0  0  0  0
 30 25  1  0  0  0  0
 31 24  1  0  0  0  0
M  END
>  <MODEL>
4

>  <REMARK>
 VINA RESULT:      -7.6      2.759      3.959
  Name = 
  2 active torsions:
  status: ('A' for Active; 'I' for Inactive)
    1  A    between atoms: C_5  and  C_16
    2  A    between atoms: C_5  and  C_30
                            x       y       z     vdW  Elec       q    Type
                         _______ _______ _______ _____ _____    ______ ____

>  <TORSDO>
F 2

$$$$
=
 OpenBabel11122410543D

 31 35  0  0  1  0  0  0  0  0999 V2000
  191.0050  177.1990  142.3500 C   0  0  0  0  0  0  0  0  0  0  0  0
  189.9050  177.7170  138.7710 N   0  0  0  0  0  0  0  0  0  0  0  0
  190.6900  176.8860  137.8780 C   0  0  0  0  0  0  0  0  0  0  0  0
  192.5590  175.3800  137.4650 C   0  0  0  0  0  0  0  0  0  0  0  0
  189.9010  177.5090  140.1980 C   0  0  0  0  0  0  0  0  0  0  0  0
  189.7060  176.9330  143.0590 C   0  0  0  0  0  2  0  0  0  0  0  0
  191.8140  176.1780  138.3360 C   0  0  0  0  0  3  0  0  0  0  0  0
  187.4830  178.1480  138.7700 C   0  0  0  0  0  0  0  0  0  0  0  0
  192.0820  177.1950  143.0020 O   0  0  0  0  0  0  0  0  0  0  0  0
  189.1010  177.4580  136.0110 C   0  0  0  0  0  2  0  0  0  0  0  0
  193.7460  174.6400  137.9660 C   0  0  0  0  0  1  0  0  0  0  0  0
  187.4030  177.6900  140.1270 N   0  0  0  0  0  2  0  0  0  0  0  0
  188.8340  178.5860  138.2450 C   0  0  2  0  0  3  0  0  0  0  0  0
  186.3800  178.2980  138.0260 C   0  0  0  0  0  3  0  0  0  0  0  0
  191.0370  177.4150  140.8970 C   0  0  0  0  0  3  0  0  0  0  0  0
  192.1870  175.2750  136.1240 C   0  0  0  0  0  3  0  0  0  0  0  0
  188.5900  177.4580  140.8870 C   0  0  0  0  0  0  0  0  0  0  0  0
  188.5010  177.2110  142.1990 C   0  0  0  0  0  3  0  0  0  0  0  0
  188.9160  178.7880  136.7240 C   0  0  0  0  0  2  0  0  0  0  0  0
  190.3290  176.7780  136.5190 C   0  0  0  0  0  0  0  0  0  0  0  0
  191.0690  175.9680  135.6540 C   0  0  0  0  0  3  0  0  0  0  0  0
  184.2570  177.2630  137.6970 O   0  0  0  0  0  0  0  0  0  0  0  0
  184.9990  177.9670  138.4320 C   0  0  0  0  0  0  0  0  0  0  0  0
  181.5520  178.3950  139.8850 C   0  0  1  0  0  3  0  0  0  0  0  0
  183.6380  177.4110  140.4740 C   0  0  0  0  0  2  0  0  0  0  0  0
  184.2620  180.7100  138.7890 O   0  0  0  0  0  1  0  0  0  0  0  0
  180.1670  178.1200  139.3430 C   0  0  0  0  0  1  0  0  0  0  0  0
  182.3500  177.1720  139.8220 N   0  0  0  0  0  2  0  0  0  0  0  0
  183.6110  179.7730  139.5930 C   0  0  2  0  0  3  0  0  0  0  0  0
  184.4400  178.4850  139.7290 C   0  0  2  0  0  3  0  0  0  0  0  0
  182.2100  179.4940  139.0550 C   0  0  0  0  0  2  0  0  0  0  0  0
  1  9  2  0  0  0  0
  1  6  1  0  0  0  0
  2  5  1  0  0  0  0
  3  7  1  0  0  0  0
  3  2  1  0  0  0  0
  4 11  1  0  0  0  0
  4  7  2  0  0  0  0
  5 17  1  0  0  0  0
  5 15  2  0  0  0  0
  8 12  1  0  0  0  0
 10 20  1  0  0  0  0
 10 19  1  0  0  0  0
 12 17  1  0  0  0  0
 13 19  1  6  0  0  0
 13  8  1  0  0  0  0
 13  2  1  0  0  0  0
 14 23  1  0  0  0  0
 14  8  2  0  0  0  0
 15  1  1  0  0  0  0
 16  4  1  0  0  0  0
 17 18  2  0  0  0  0
 18  6  1  0  0  0  0
 20  3  2  0  0  0  0
 21 16  2  0  0  0  0
 21 20  1  0  0  0  0
 22 23  2  0  0  0  0
 24 27  1  6  0  0  0
 28 24  1  0  0  0  0
 28 25  1  0  0  0  0
 29 26  1  6  0  0  0
 29 30  1  0  0  0  0
 30 23  1  6  0  0  0
 30 25  1  0  0  0  0
 31 29  1  0  0  0  0
 31 24  1  0  0  0  0
M  END
>  <MODEL>
5

>  <REMARK>
 VINA RESULT:      -7.2      2.783      7.827
  Name = 
  2 active torsions:
  status: ('A' for Active; 'I' for Inactive)
    1  A    between atoms: C_5  and  C_16
    2  A    between atoms: C_5  and  C_30
                            x       y       z     vdW  Elec       q    Type
                         _______ _______ _______ _____ _____    ______ ____

>  <TORSDO>
F 2

$$$$
=
 OpenBabel11122410543D

 31 35  0  0  1  0  0  0  0  0999 V2000
  184.0180  179.2740  143.9510 C   0  0  0  0  0  0  0  0  0  0  0  0
  186.9750  178.5500  141.7100 N   0  0  0  0  0  0  0  0  0  0  0  0
  187.9970  177.8270  142.4430 C   0  0  0  0  0  0  0  0  0  0  0  0
  188.9010  176.9460  144.5260 C   0  0  0  0  0  0  0  0  0  0  0  0
  185.6330  178.6950  142.2170 C   0  0  0  0  0  0  0  0  0  0  0  0
  182.8560  178.7820  143.1320 C   0  0  0  0  0  2  0  0  0  0  0  0
  187.9100  177.6450  143.8340 C   0  0  0  0  0  3  0  0  0  0  0  0
  186.1320  178.1700  139.4300 C   0  0  0  0  0  0  0  0  0  0  0  0
  183.8120  179.7690  145.0890 O   0  0  0  0  0  0  0  0  0  0  0  0
  189.1990  177.4010  140.2730 C   0  0  0  0  0  2  0  0  0  0  0  0
  188.7930  176.7660  145.9970 C   0  0  0  0  0  1  0  0  0  0  0  0
  184.7990  178.0450  139.9460 N   0  0  0  0  0  2  0  0  0  0  0  0
  187.1620  178.8800  140.2830 C   0  0  2  0  0  3  0  0  0  0  0  0
  186.4300  177.7780  138.1850 C   0  0  0  0  0  3  0  0  0  0  0  0
  185.3950  179.1380  143.4560 C   0  0  0  0  0  3  0  0  0  0  0  0
  189.9900  176.4130  143.8360 C   0  0  0  0  0  3  0  0  0  0  0  0
  184.5090  178.3920  141.3010 C   0  0  0  0  0  0  0  0  0  0  0  0
  183.2380  178.4480  141.7140 C   0  0  0  0  0  3  0  0  0  0  0  0
  188.6190  178.7310  139.8180 C   0  0  0  0  0  2  0  0  0  0  0  0
  189.1070  177.2910  141.7590 C   0  0  0  0  0  0  0  0  0  0  0  0
  190.0890  176.5800  142.4520 C   0  0  0  0  0  3  0  0  0  0  0  0
  184.2740  177.3710  137.2500 O   0  0  0  0  0  0  0  0  0  0  0  0
  185.5100  177.1280  137.2290 C   0  0  0  0  0  0  0  0  0  0  0  0
  188.9070  175.8350  136.2510 C   0  0  1  0  0  3  0  0  0  0  0  0
  186.7770  174.9820  136.8840 C   0  0  0  0  0  2  0  0  0  0  0  0
  186.2990  177.9220  134.5940 O   0  0  0  0  0  1  0  0  0  0  0  0
  190.3060  176.1480  136.7370 C   0  0  0  0  0  1  0  0  0  0  0  0
  188.0830  175.4150  137.3830 N   0  0  0  0  0  2  0  0  0  0  0  0
  186.8960  176.7700  135.1110 C   0  0  2  0  0  3  0  0  0  0  0  0
  186.0300  176.1440  136.2180 C   0  0  2  0  0  3  0  0  0  0  0  0
  188.3090  177.0780  135.5990 C   0  0  0  0  0  2  0  0  0  0  0  0
  1  9  2  0  0  0  0
  2  5  1  0  0  0  0
  2  3  1  0  0  0  0
  3  7  1  0  0  0  0
  4 11  1  0  0  0  0
  5 15  2  0  0  0  0
  6  1  1  0  0  0  0
  7  4  2  0  0  0  0
  8 12  1  0  0  0  0
  8 13  1  0  0  0  0
 10 20  1  0  0  0  0
 12 17  1  0  0  0  0
 13 19  1  6  0  0  0
 13  2  1  0  0  0  0
 14  8  2  0  0  0  0
 15  1  1  0  0  0  0
 16  4  1  0  0  0  0
 17 18  2  0  0  0  0
 17  5  1  0  0  0  0
 18  6  1  0  0  0  0
 19 10  1  0  0  0  0
 20  3  2  0  0  0  0
 20 21  1  0  0  0  0
 21 16  2  0  0  0  0
 23 22  2  0  0  0  0
 23 14  1  0  0  0  0
 24 27  1  1  0  0  0
 24 28  1  0  0  0  0
 25 28  1  0  0  0  0
 29 26  1  1  0  0  0
 29 31  1  0  0  0  0
 29 30  1  0  0  0  0
 30 25  1  0  0  0  0
 30 23  1  1  0  0  0
 31 24  1  0  0  0  0
M  END
>  <MODEL>
6

>  <REMARK>
 VINA RESULT:      -7.2      2.454      7.876
  Name = 
  2 active torsions:
  status: ('A' for Active; 'I' for Inactive)
    1  A    between atoms: C_5  and  C_16
    2  A    between atoms: C_5  and  C_30
                            x       y       z     vdW  Elec       q    Type
                         _______ _______ _______ _____ _____    ______ ____

>  <TORSDO>
F 2

$$$$
=
 OpenBabel11122410543D

 31 35  0  0  1  0  0  0  0  0999 V2000
  189.1530  177.2030  141.6270 C   0  0  0  0  0  0  0  0  0  0  0  0
  185.5530  177.8520  142.5780 N   0  0  0  0  0  0  0  0  0  0  0  0
  185.4630  178.2380  143.9740 C   0  0  0  0  0  0  0  0  0  0  0  0
  186.4740  178.5320  146.1710 C   0  0  0  0  0  0  0  0  0  0  0  0
  186.8100  177.8340  141.8730 C   0  0  0  0  0  0  0  0  0  0  0  0
  189.3190  178.0300  140.3820 C   0  0  0  0  0  2  0  0  0  0  0  0
  186.5750  178.1560  144.8290 C   0  0  0  0  0  3  0  0  0  0  0  0
  184.4040  178.8050  140.6220 C   0  0  0  0  0  0  0  0  0  0  0  0
  190.1260  176.5350  142.0650 O   0  0  0  0  0  0  0  0  0  0  0  0
  183.0560  178.8760  143.6030 C   0  0  0  0  0  2  0  0  0  0  0  0
  187.6590  178.4360  147.0600 C   0  0  0  0  0  1  0  0  0  0  0  0
  185.6730  179.0450  139.9970 N   0  0  0  0  0  0  0  0  0  0  0  0
  184.3420  177.7810  141.7370 C   0  0  2  0  0  3  0  0  0  0  0  0
  183.2870  179.3780  140.1590 C   0  0  0  0  0  2  0  0  0  0  0  0
  187.8820  177.2030  142.3640 C   0  0  0  0  0  3  0  0  0  0  0  0
  185.2590  179.0030  146.6730 C   0  0  0  0  0  3  0  0  0  0  0  0
  186.8710  178.4920  140.5470 C   0  0  0  0  0  0  0  0  0  0  0  0
  188.0140  178.5680  139.8570 C   0  0  0  0  0  3  0  0  0  0  0  0
  183.0410  177.7750  142.5540 C   0  0  0  0  0  2  0  0  0  0  0  0
  184.2400  178.7070  144.4960 C   0  0  0  0  0  0  0  0  0  0  0  0
  184.1460  179.0960  145.8350 C   0  0  0  0  0  3  0  0  0  0  0  0
  184.1860  181.0530  138.7190 O   0  0  0  0  0  0  0  0  0  0  0  0
  183.1970  180.3450  139.0450 C   0  0  0  0  0  0  0  0  0  0  0  0
  179.6260  179.2660  139.5490 C   0  0  1  0  0  3  0  0  0  0  0  0
  180.8540  181.2590  139.1200 C   0  0  0  0  0  2  0  0  0  0  0  0
  182.3090  178.4520  137.0900 O   0  0  0  0  0  1  0  0  0  0  0  0
  178.9410  178.4430  140.6190 C   0  0  0  0  0  1  0  0  0  0  0  0
  180.3140  180.3950  140.1710 N   0  0  0  0  0  2  0  0  0  0  0  0
  181.3240  179.2130  137.7230 C   0  0  2  0  0  3  0  0  0  0  0  0
  181.9090  180.5190  138.2890 C   0  0  2  0  0  3  0  0  0  0  0  0
  180.6260  178.3890  138.8010 C   0  0  0  0  0  2  0  0  0  0  0  0
  1  9  2  0  0  0  0
  1 15  1  0  0  0  0
  2  3  1  0  0  0  0
  3 20  2  0  0  0  0
  3  7  1  0  0  0  0
  4 16  1  0  0  0  0
  4 11  1  0  0  0  0
  5 15  2  0  0  0  0
  5  2  1  0  0  0  0
  6  1  1  0  0  0  0
  7  4  2  0  0  0  0
  8 13  1  0  0  0  0
 10 20  1  0  0  0  0
 12 17  1  0  0  0  0
 12  8  2  0  0  0  0
 13 19  1  1  0  0  0
 13  2  1  0  0  0  0
 14  8  1  0  0  0  0
 17  5  1  0  0  0  0
 18  6  1  0  0  0  0
 18 17  2  0  0  0  0
 19 10  1  0  0  0  0
 20 21  1  0  0  0  0
 21 16  2  0  0  0  0
 22 23  2  0  0  0  0
 23 14  1  0  0  0  0
 24 28  1  0  0  0  0
 24 27  1  1  0  0  0
 25 28  1  0  0  0  0
 29 26  1  1  0  0  0
 29 30  1  0  0  0  0
 29 31  1  0  0  0  0
 30 23  1  1  0  0  0
 30 25  1  0  0  0  0
 31 24  1  0  0  0  0
M  END
>  <MODEL>
7

>  <REMARK>
 VINA RESULT:      -7.1      3.118      8.017
  Name = 
  2 active torsions:
  status: ('A' for Active; 'I' for Inactive)
    1  A    between atoms: C_5  and  C_16
    2  A    between atoms: C_5  and  C_30
                            x       y       z     vdW  Elec       q    Type
                         _______ _______ _______ _____ _____    ______ ____

>  <TORSDO>
F 2

$$$$
=
 OpenBabel11122410543D

 31 35  0  0  1  0  0  0  0  0999 V2000
  191.1830  176.2150  143.4970 C   0  0  0  0  0  0  0  0  0  0  0  0
  187.7440  177.1190  144.7780 N   0  0  0  0  0  0  0  0  0  0  0  0
  187.8380  177.7000  146.1040 C   0  0  0  0  0  0  0  0  0  0  0  0
  189.1230  178.2640  148.0950 C   0  0  0  0  0  0  0  0  0  0  0  0
  188.9020  176.9580  143.9340 C   0  0  0  0  0  0  0  0  0  0  0  0
  191.2060  176.8530  142.1350 C   0  0  0  0  0  2  0  0  0  0  0  0
  189.0470  177.6990  146.8200 C   0  0  0  0  0  3  0  0  0  0  0  0
  186.3750  177.8280  142.8610 C   0  0  0  0  0  0  0  0  0  0  0  0
  192.1920  175.5820  143.9030 O   0  0  0  0  0  0  0  0  0  0  0  0
  185.4150  178.3640  145.9440 C   0  0  0  0  0  2  0  0  0  0  0  0
  190.4090  178.2510  148.8380 C   0  0  0  0  0  1  0  0  0  0  0  0
  187.5590  177.9320  142.0580 N   0  0  0  0  0  0  0  0  0  0  0  0
  186.4360  176.9740  144.1100 C   0  0  2  0  0  3  0  0  0  0  0  0
  185.2180  178.3690  142.4600 C   0  0  0  0  0  2  0  0  0  0  0  0
  190.0150  176.3640  144.3760 C   0  0  0  0  0  3  0  0  0  0  0  0
  187.9900  178.8430  148.6700 C   0  0  0  0  0  3  0  0  0  0  0  0
  188.8060  177.4200  142.5300 C   0  0  0  0  0  0  0  0  0  0  0  0
  189.8540  177.3580  141.7020 C   0  0  0  0  0  3  0  0  0  0  0  0
  185.2480  177.1290  145.0730 C   0  0  0  0  0  2  0  0  0  0  0  0
  186.6990  178.2800  146.7000 C   0  0  0  0  0  0  0  0  0  0  0  0
  186.7820  178.8560  147.9700 C   0  0  0  0  0  3  0  0  0  0  0  0
  185.9670  179.7530  140.6670 O   0  0  0  0  0  0  0  0  0  0  0  0
  185.0050  179.1730  141.2390 C   0  0  0  0  0  0  0  0  0  0  0  0
  182.8370  177.1880  138.8870 C   0  0  1  0  0  3  0  0  0  0  0  0
  182.7060  178.1700  141.0520 C   0  0  0  0  0  2  0  0  0  0  0  0
  184.5390  180.5030  138.7480 O   0  0  0  0  0  1  0  0  0  0  0  0
  183.0570  175.8970  138.1280 C   0  0  0  0  0  1  0  0  0  0  0  0
  183.0550  176.9550  140.3140 N   0  0  0  0  0  2  0  0  0  0  0  0
  183.5960  179.5500  139.1390 C   0  0  2  0  0  3  0  0  0  0  0  0
  183.6260  179.3330  140.6620 C   0  0  2  0  0  3  0  0  0  0  0  0
  183.8090  178.2470  138.3740 C   0  0  0  0  0  2  0  0  0  0  0  0
  1  9  2  0  0  0  0
  1 15  1  0  0  0  0
  2  3  1  0  0  0  0
  3 20  2  0  0  0  0
  3  7  1  0  0  0  0
  4 16  1  0  0  0  0
  4 11  1  0  0  0  0
  5 15  2  0  0  0  0
  5  2  1  0  0  0  0
  6  1  1  0  0  0  0
  7  4  2  0  0  0  0
  8 13  1  0  0  0  0
 10 20  1  0  0  0  0
 12 17  1  0  0  0  0
 12  8  2  0  0  0  0
 13  2  1  0  0  0  0
 13 19  1  1  0  0  0
 14  8  1  0  0  0  0
 17  5  1  0  0  0  0
 18  6  1  0  0  0  0
 18 17  2  0  0  0  0
 19 10  1  0  0  0  0
 20 21  1  0  0  0  0
 21 16  2  0  0  0  0
 22 23  2  0  0  0  0
 23 14  1  0  0  0  0
 24 27  1  6  0  0  0
 24 28  1  0  0  0  0
 28 25  1  0  0  0  0
 29 26  1  1  0  0  0
 29 30  1  0  0  0  0
 30 25  1  0  0  0  0
 30 23  1  6  0  0  0
 31 24  1  0  0  0  0
 31 29  1  0  0  0  0
M  END
>  <MODEL>
8

>  <REMARK>
 VINA RESULT:      -7.0      2.694      7.914
  Name = 
  2 active torsions:
  status: ('A' for Active; 'I' for Inactive)
    1  A    between atoms: C_5  and  C_16
    2  A    between atoms: C_5  and  C_30
                            x       y       z     vdW  Elec       q    Type
                         _______ _______ _______ _____ _____    ______ ____

>  <TORSDO>
F 2

$$$$
=
 OpenBabel11122410543D

 31 35  0  0  1  0  0  0  0  0999 V2000
  183.8440  178.9050  143.1970 C   0  0  0  0  0  0  0  0  0  0  0  0
  183.0300  178.2780  139.5590 N   0  0  0  0  0  0  0  0  0  0  0  0
  181.8220  178.9880  139.1840 C   0  0  0  0  0  0  0  0  0  0  0  0
  179.8590  180.3060  139.7690 C   0  0  0  0  0  0  0  0  0  0  0  0
  183.7340  178.5670  140.7840 C   0  0  0  0  0  0  0  0  0  0  0  0
  185.2890  179.3180  143.1450 C   0  0  0  0  0  2  0  0  0  0  0  0
  181.0190  179.6250  140.1450 C   0  0  0  0  0  3  0  0  0  0  0  0
  185.1490  178.0520  138.3290 C   0  0  0  0  0  0  0  0  0  0  0  0
  183.2510  178.8560  144.3050 O   0  0  0  0  0  0  0  0  0  0  0  0
  182.2970  178.4460  136.7720 C   0  0  0  0  0  2  0  0  0  0  0  0
  179.0210  180.9710  140.8000 C   0  0  0  0  0  1  0  0  0  0  0  0
  185.8570  178.5920  139.4540 N   0  0  0  0  0  2  0  0  0  0  0  0
  183.7690  177.4730  138.5670 C   0  0  2  0  0  3  0  0  0  0  0  0
  185.7330  177.9530  137.1280 C   0  0  0  0  0  3  0  0  0  0  0  0
  183.1040  178.6050  141.9630 C   0  0  0  0  0  3  0  0  0  0  0  0
  179.4900  180.3660  138.4240 C   0  0  0  0  0  3  0  0  0  0  0  0
  185.2000  178.7670  140.7110 C   0  0  0  0  0  0  0  0  0  0  0  0
  185.9140  179.0940  141.7920 C   0  0  0  0  0  3  0  0  0  0  0  0
  182.9510  177.1790  137.3000 C   0  0  0  0  0  2  0  0  0  0  0  0
  181.4340  179.0490  137.8300 C   0  0  0  0  0  0  0  0  0  0  0  0
  180.2800  179.7430  137.4560 C   0  0  0  0  0  3  0  0  0  0  0  0
  187.3990  179.6390  136.8620 O   0  0  0  0  0  0  0  0  0  0  0  0
  187.0880  178.4210  136.7740 C   0  0  0  0  0  0  0  0  0  0  0  0
  187.0830  174.8160  135.6880 C   0  0  1  0  0  3  0  0  0  0  0  0
  187.7970  176.9350  134.8710 C   0  0  0  0  0  2  0  0  0  0  0  0
  188.5500  176.7120  138.5450 O   0  0  0  0  0  1  0  0  0  0  0  0
  185.9960  173.7670  135.6140 C   0  0  0  0  0  1  0  0  0  0  0  0
  186.6840  175.9850  134.9070 N   0  0  0  0  0  2  0  0  0  0  0  0
  188.3980  176.2730  137.2290 C   0  0  2  0  0  3  0  0  0  0  0  0
  188.1250  177.4510  136.2770 C   0  0  2  0  0  3  0  0  0  0  0  0
  187.3050  175.2100  137.1460 C   0  0  0  0  0  2  0  0  0  0  0  0
  1  9  2  0  0  0  0
  2  5  1  0  0  0  0
  3  2  1  0  0  0  0
  3  7  1  0  0  0  0
  4  7  2  0  0  0  0
  4 11  1  0  0  0  0
  5 15  2  0  0  0  0
  6  1  1  0  0  0  0
  8 13  1  0  0  0  0
  8 12  1  0  0  0  0
 10 19  1  0  0  0  0
 10 20  1  0  0  0  0
 12 17  1  0  0  0  0
 13 19  1  6  0  0  0
 13  2  1  0  0  0  0
 14  8  2  0  0  0  0
 15  1  1  0  0  0  0
 16  4  1  0  0  0  0
 17  5  1  0  0  0  0
 17 18  2  0  0  0  0
 18  6  1  0  0  0  0
 20  3  2  0  0  0  0
 21 20  1  0  0  0  0
 21 16  2  0  0  0  0
 23 22  2  0  0  0  0
 23 14  1  0  0  0  0
 24 27  1  1  0  0  0
 24 31  1  0  0  0  0
 25 28  1  0  0  0  0
 25 30  1  0  0  0  0
 28 24  1  0  0  0  0
 29 26  1  1  0  0  0
 30 23  1  1  0  0  0
 30 29  1  0  0  0  0
 31 29  1  0  0  0  0
M  END
>  <MODEL>
9

>  <REMARK>
 VINA RESULT:      -7.0      3.885      7.288
  Name = 
  2 active torsions:
  status: ('A' for Active; 'I' for Inactive)
    1  A    between atoms: C_5  and  C_16
    2  A    between atoms: C_5  and  C_30
                            x       y       z     vdW  Elec       q    Type
                         _______ _______ _______ _____ _____    ______ ____

>  <TORSDO>
F 2

$$$$
