=
 OpenBabel11122411243D

 37 42  0  0  1  0  0  0  0  0999 V2000
  193.1120  176.1320  135.7900 C   0  0  0  0  0  0  0  0  0  0  0  0
  190.6050  176.6990  139.0500 C   0  0  0  0  0  0  0  0  0  0  0  0
  189.0450  179.0620  138.1390 F   0  0  0  0  0  0  0  0  0  0  0  0
  192.8590  176.6670  138.2760 C   0  0  0  0  0  0  0  0  0  0  0  0
  189.2470  176.6800  138.4170 C   0  0  1  0  0  3  0  0  0  0  0  0
  191.5050  176.5220  138.0740 C   0  0  0  0  0  0  0  0  0  0  0  0
  188.4630  177.9600  138.7430 C   0  0  1  0  0  3  0  0  0  0  0  0
  193.2930  176.9590  139.5380 N   0  0  0  0  0  0  0  0  0  0  0  0
  190.8860  176.3980  136.8300 N   0  0  0  0  0  0  0  0  0  0  0  0
  193.1380  174.6120  135.8210 C   0  0  0  0  0  1  0  0  0  0  0  0
  190.0330  177.3880  141.4260 C   0  0  0  0  0  2  0  0  0  0  0  0
  192.4050  177.1270  140.5730 C   0  0  0  0  0  3  0  0  0  0  0  0
  191.6540  176.6170  135.6070 C   0  0  0  0  0  2  0  0  0  0  0  0
  191.0160  177.0110  140.3510 C   0  0  0  0  0  0  0  0  0  0  0  0
  189.4860  176.5480  136.9480 N   0  0  1  0  0  0  0  0  0  0  0  0
  193.7740  176.6830  137.0800 C   0  0  0  0  0  2  0  0  0  0  0  0
  188.3090  178.2250  140.2550 C   0  0  2  0  0  3  0  0  0  0  0  0
  193.9240  176.5930  134.5990 C   0  0  0  0  0  1  0  0  0  0  0  0
  188.7070  177.1260  141.0380 O   0  0  0  0  0  0  0  0  0  0  0  0
  187.8980  174.5950  137.3550 C   0  0  0  0  0  2  0  0  0  0  0  0
  187.1660  173.4720  136.6260 C   0  0  2  0  0  3  0  0  0  0  0  0
  186.0210  175.4710  135.3740 C   0  0  2  0  0  3  0  0  0  0  0  0
  186.0380  173.9680  135.7050 C   0  0  0  0  0  2  0  0  0  0  0  0
  187.1820  175.9610  134.5950 N   0  0  0  0  0  0  0  0  0  0  0  0
  187.2520  177.3130  134.6390 O   0  0  0  0  0  1  0  0  0  0  0  0
  188.5020  175.4010  134.9220 C   0  0  0  0  0  2  0  0  0  0  0  0
  185.6210  176.3440  136.5620 C   0  0  0  0  0  1  0  0  0  0  0  0
  188.8710  175.3230  136.4150 C   0  0  1  0  0  3  0  0  0  0  0  0
  185.2230  172.8390  137.9500 N   0  0  0  0  0  1  0  0  0  0  0  0
  186.5930  172.4830  137.6250 C   0  0  0  0  0  2  0  0  0  0  0  0
  186.5330  178.9480  141.8900 C   0  0  0  0  0  3  0  0  0  0  0  0
  186.9060  178.6210  140.5780 C   0  0  0  0  0  0  0  0  0  0  0  0
  185.9460  178.6390  139.5600 C   0  0  0  0  0  3  0  0  0  0  0  0
  183.6970  179.0110  138.8600 F   0  0  0  0  0  0  0  0  0  0  0  0
  184.2560  179.3220  141.1560 C   0  0  0  0  0  3  0  0  0  0  0  0
  184.6230  178.9910  139.8480 C   0  0  0  0  0  0  0  0  0  0  0  0
  185.2110  179.2990  142.1770 C   0  0  0  0  0  3  0  0  0  0  0  0
  1 10  1  0  0  0  0
  1 16  1  0  0  0  0
  2 14  1  0  0  0  0
  4  8  2  0  0  0  0
  5  7  1  0  0  0  0
  5  2  1  1  0  0  0
  6  4  1  0  0  0  0
  6  2  2  0  0  0  0
  7  3  1  6  0  0  0
  7 17  1  0  0  0  0
  8 12  1  0  0  0  0
  9  6  1  0  0  0  0
 13  1  1  0  0  0  0
 13  9  1  0  0  0  0
 14 12  2  0  0  0  0
 14 11  1  0  0  0  0
 15  9  1  1  0  0  0
 15  5  1  0  0  0  0
 16  4  1  0  0  0  0
 17 32  1  6  0  0  0
 17 19  1  0  0  0  0
 18  1  1  0  0  0  0
 19 11  1  0  0  0  0
 21 20  1  0  0  0  0
 21 30  1  1  0  0  0
 22 23  1  0  0  0  0
 22 27  1  1  0  0  0
 23 21  1  0  0  0  0
 24 25  1  0  0  0  0
 24 26  1  0  0  0  0
 24 22  1  0  0  0  0
 28 26  1  6  0  0  0
 28 15  1  0  0  0  0
 28 20  1  0  0  0  0
 30 29  1  0  0  0  0
 31 37  1  0  0  0  0
 32 31  2  0  0  0  0
 33 36  2  0  0  0  0
 33 32  1  0  0  0  0
 34 36  1  0  0  0  0
 35 37  2  0  0  0  0
 36 35  1  0  0  0  0
M  END
>  <MODEL>
1

>  <REMARK>
 VINA RESULT:      -6.7      0.000      0.000
  Name = 
  3 active torsions:
  status: ('A' for Active; 'I' for Inactive)
    1  A    between atoms: C_4  and  C_37
    2  A    between atoms: N_21  and  C_27
    3  A    between atoms: C_23  and  C_30
                            x       y       z     vdW  Elec       q    Type
                         _______ _______ _______ _____ _____    ______ ____

>  <TORSDO>
F 3

$$$$
=
 OpenBabel11122411243D

 37 42  0  0  1  0  0  0  0  0999 V2000
  188.4180  177.7720  135.8350 C   0  0  0  0  0  0  0  0  0  0  0  0
  186.0260  177.9070  139.2260 C   0  0  0  0  0  0  0  0  0  0  0  0
  184.0920  180.0310  138.4500 F   0  0  0  0  0  0  0  0  0  0  0  0
  188.2170  178.2210  138.3430 C   0  0  0  0  0  0  0  0  0  0  0  0
  184.6540  177.6990  138.6590 C   0  0  1  0  0  3  0  0  0  0  0  0
  186.8900  177.8820  138.2040 C   0  0  0  0  0  0  0  0  0  0  0  0
  183.7090  178.8450  139.0540 C   0  0  1  0  0  3  0  0  0  0  0  0
  188.6680  178.5510  139.5900 N   0  0  0  0  0  0  0  0  0  0  0  0
  186.2320  177.6900  136.9880 N   0  0  0  0  0  0  0  0  0  0  0  0
  188.6670  176.2730  135.8270 C   0  0  0  0  0  1  0  0  0  0  0  0
  185.4810  178.4630  141.6430 C   0  0  0  0  0  2  0  0  0  0  0  0
  187.8190  178.5680  140.6700 C   0  0  0  0  0  3  0  0  0  0  0  0
  186.8970  178.0410  135.7350 C   0  0  0  0  0  2  0  0  0  0  0  0
  186.4520  178.2530  140.5130 C   0  0  0  0  0  0  0  0  0  0  0  0
  184.8340  177.6300  137.1770 N   0  0  1  0  0  0  0  0  0  0  0  0
  189.0570  178.3930  137.1050 C   0  0  0  0  0  2  0  0  0  0  0  0
  183.5960  179.0570  140.5770 C   0  0  2  0  0  3  0  0  0  0  0  0
  189.0910  178.3690  134.6190 C   0  0  0  0  0  1  0  0  0  0  0  0
  184.1900  178.0150  141.3130 O   0  0  0  0  0  0  0  0  0  0  0  0
  184.5990  175.1200  137.5540 C   0  0  0  0  0  2  0  0  0  0  0  0
  183.9010  173.8830  136.9950 C   0  0  2  0  0  3  0  0  0  0  0  0
  181.7350  175.2150  137.6360 C   0  0  2  0  0  3  0  0  0  0  0  0
  182.3790  173.8800  137.2200 C   0  0  0  0  0  2  0  0  0  0  0  0
  181.8150  176.2980  136.6290 N   0  0  0  0  0  0  0  0  0  0  0  0
  181.5340  177.4980  137.1910 O   0  0  0  0  0  1  0  0  0  0  0  0
  183.0600  176.4120  135.8530 C   0  0  0  0  0  2  0  0  0  0  0  0
  182.0830  175.6300  139.0640 C   0  0  0  0  0  1  0  0  0  0  0  0
  184.3780  176.3380  136.6440 C   0  0  1  0  0  3  0  0  0  0  0  0
  185.8810  172.8530  137.9690 N   0  0  0  0  0  1  0  0  0  0  0  0
  184.4940  172.6250  137.6030 C   0  0  0  0  0  2  0  0  0  0  0  0
  181.2060  179.6600  140.0490 C   0  0  0  0  0  3  0  0  0  0  0  0
  182.1680  179.2360  140.9780 C   0  0  0  0  0  0  0  0  0  0  0  0
  181.7940  179.0030  142.3060 C   0  0  0  0  0  3  0  0  0  0  0  0
  180.1050  178.9510  143.9880 F   0  0  0  0  0  0  0  0  0  0  0  0
  179.5070  179.5990  141.7730 C   0  0  0  0  0  3  0  0  0  0  0  0
  180.4650  179.1820  142.7020 C   0  0  0  0  0  0  0  0  0  0  0  0
  179.8780  179.8390  140.4470 C   0  0  0  0  0  3  0  0  0  0  0  0
  1 16  1  0  0  0  0
  2 14  1  0  0  0  0
  4  8  2  0  0  0  0
  5  7  1  0  0  0  0
  5  2  1  1  0  0  0
  6  4  1  0  0  0  0
  6  2  2  0  0  0  0
  7  3  1  6  0  0  0
  7 17  1  0  0  0  0
  8 12  1  0  0  0  0
  9  6  1  0  0  0  0
 10  1  1  0  0  0  0
 13  1  1  0  0  0  0
 13  9  1  0  0  0  0
 14 12  2  0  0  0  0
 14 11  1  0  0  0  0
 15  9  1  1  0  0  0
 15  5  1  0  0  0  0
 16  4  1  0  0  0  0
 17 32  1  1  0  0  0
 17 19  1  0  0  0  0
 18  1  1  0  0  0  0
 19 11  1  0  0  0  0
 21 23  1  0  0  0  0
 21 20  1  0  0  0  0
 21 30  1  1  0  0  0
 22 27  1  1  0  0  0
 23 22  1  0  0  0  0
 24 25  1  0  0  0  0
 24 22  1  0  0  0  0
 26 24  1  0  0  0  0
 28 26  1  1  0  0  0
 28 15  1  0  0  0  0
 28 20  1  0  0  0  0
 30 29  1  0  0  0  0
 31 37  2  0  0  0  0
 31 32  1  0  0  0  0
 32 33  2  0  0  0  0
 33 36  1  0  0  0  0
 35 36  2  0  0  0  0
 36 34  1  0  0  0  0
 37 35  1  0  0  0  0
M  END
>  <MODEL>
2

>  <REMARK>
 VINA RESULT:      -5.5      3.200      4.812
  Name = 
  3 active torsions:
  status: ('A' for Active; 'I' for Inactive)
    1  A    between atoms: C_4  and  C_37
    2  A    between atoms: N_21  and  C_27
    3  A    between atoms: C_23  and  C_30
                            x       y       z     vdW  Elec       q    Type
                         _______ _______ _______ _____ _____    ______ ____

>  <TORSDO>
F 3

$$$$
=
 OpenBabel11122411243D

 37 42  0  0  1  0  0  0  0  0999 V2000
  184.7850  178.9950  143.9960 C   0  0  0  0  0  0  0  0  0  0  0  0
  184.7530  178.3050  139.9020 C   0  0  0  0  0  0  0  0  0  0  0  0
  183.3630  175.6760  139.7990 F   0  0  0  0  0  0  0  0  0  0  0  0
  186.1050  178.6120  141.8410 C   0  0  0  0  0  0  0  0  0  0  0  0
  183.2970  178.0760  139.6270 C   0  0  1  0  0  3  0  0  0  0  0  0
  184.8800  178.5400  141.2140 C   0  0  0  0  0  0  0  0  0  0  0  0
  183.0660  176.7210  138.9410 C   0  0  1  0  0  3  0  0  0  0  0  0
  187.2280  178.4810  141.0750 N   0  0  0  0  0  0  0  0  0  0  0  0
  183.6470  178.4790  141.8630 N   0  0  0  0  0  0  0  0  0  0  0  0
  184.5760  180.4990  143.9460 C   0  0  0  0  0  1  0  0  0  0  0  0
  185.7780  177.7150  137.6560 C   0  0  0  0  0  2  0  0  0  0  0  0
  187.1410  178.2610  139.7210 C   0  0  0  0  0  3  0  0  0  0  0  0
  183.5910  178.2870  143.3110 C   0  0  0  0  0  2  0  0  0  0  0  0
  185.8830  178.1540  139.0910 C   0  0  0  0  0  0  0  0  0  0  0  0
  182.6190  178.1330  140.9580 N   0  0  1  0  0  0  0  0  0  0  0  0
  186.1490  178.6430  143.3460 C   0  0  0  0  0  2  0  0  0  0  0  0
  183.8590  176.5490  137.6290 C   0  0  2  0  0  3  0  0  0  0  0  0
  184.8220  178.5720  145.4490 C   0  0  0  0  0  1  0  0  0  0  0  0
  184.4510  177.7500  137.1940 O   0  0  0  0  0  0  0  0  0  0  0  0
  181.4810  180.0510  139.7230 C   0  0  0  0  0  2  0  0  0  0  0  0
  180.2800  180.9890  139.8100 C   0  0  2  0  0  3  0  0  0  0  0  0
  178.9310  178.7440  139.6680 C   0  0  2  0  0  3  0  0  0  0  0  0
  178.9310  180.2820  139.5920 C   0  0  0  0  0  2  0  0  0  0  0  0
  179.2750  178.1760  140.9910 N   0  0  0  0  0  0  0  0  0  0  0  0
  179.5740  176.8580  140.8840 O   0  0  0  0  0  1  0  0  0  0  0  0
  180.3330  178.8460  141.7630 C   0  0  0  0  0  2  0  0  0  0  0  0
  179.6240  178.0840  138.4770 C   0  0  0  0  0  1  0  0  0  0  0  0
  181.6200  179.2110  141.0020 C   0  0  1  0  0  3  0  0  0  0  0  0
  181.8000  182.2320  138.3700 N   0  0  0  0  0  1  0  0  0  0  0  0
  180.4180  182.1150  138.8020 C   0  0  0  0  0  2  0  0  0  0  0  0
  182.3670  176.8030  135.6140 C   0  0  0  0  0  3  0  0  0  0  0  0
  182.9870  175.9750  136.5600 C   0  0  0  0  0  0  0  0  0  0  0  0
  182.7680  174.5930  136.5220 C   0  0  0  0  0  3  0  0  0  0  0  0
  181.7340  172.7020  135.5030 F   0  0  0  0  0  0  0  0  0  0  0  0
  181.3280  174.8680  134.5940 C   0  0  0  0  0  3  0  0  0  0  0  0
  181.9410  174.0400  135.5390 C   0  0  0  0  0  0  0  0  0  0  0  0
  181.5400  176.2490  134.6320 C   0  0  0  0  0  3  0  0  0  0  0  0
  1 18  1  0  0  0  0
  2  6  1  0  0  0  0
  4 16  1  0  0  0  0
  5  2  1  1  0  0  0
  5 15  1  0  0  0  0
  6  4  2  0  0  0  0
  6  9  1  0  0  0  0
  7  5  1  0  0  0  0
  7  3  1  1  0  0  0
  8  4  1  0  0  0  0
  9 13  1  0  0  0  0
 10  1  1  0  0  0  0
 11 14  1  0  0  0  0
 12  8  2  0  0  0  0
 13  1  1  0  0  0  0
 14 12  1  0  0  0  0
 14  2  2  0  0  0  0
 15 28  1  0  0  0  0
 15  9  1  1  0  0  0
 16  1  1  0  0  0  0
 17 32  1  6  0  0  0
 17  7  1  0  0  0  0
 19 17  1  0  0  0  0
 19 11  1  0  0  0  0
 20 21  1  0  0  0  0
 21 30  1  6  0  0  0
 22 27  1  6  0  0  0
 22 24  1  0  0  0  0
 23 22  1  0  0  0  0
 23 21  1  0  0  0  0
 24 26  1  0  0  0  0
 25 24  1  0  0  0  0
 28 20  1  6  0  0  0
 28 26  1  0  0  0  0
 29 30  1  0  0  0  0
 31 32  1  0  0  0  0
 33 32  2  0  0  0  0
 34 36  1  0  0  0  0
 35 37  1  0  0  0  0
 35 36  2  0  0  0  0
 36 33  1  0  0  0  0
 37 31  2  0  0  0  0
M  END
>  <MODEL>
3

>  <REMARK>
 VINA RESULT:      -5.5      4.824      8.749
  Name = 
  3 active torsions:
  status: ('A' for Active; 'I' for Inactive)
    1  A    between atoms: C_4  and  C_37
    2  A    between atoms: N_21  and  C_27
    3  A    between atoms: C_23  and  C_30
                            x       y       z     vdW  Elec       q    Type
                         _______ _______ _______ _____ _____    ______ ____

>  <TORSDO>
F 3

$$$$
=
 OpenBabel11122411243D

 37 42  0  0  1  0  0  0  0  0999 V2000
  188.1550  178.1460  142.4140 C   0  0  0  0  0  0  0  0  0  0  0  0
  184.3090  178.3060  140.8590 C   0  0  0  0  0  0  0  0  0  0  0  0
  184.5030  180.7430  139.1630 F   0  0  0  0  0  0  0  0  0  0  0  0
  185.6450  178.3880  142.8310 C   0  0  0  0  0  0  0  0  0  0  0  0
  184.5610  178.3460  139.3820 C   0  0  1  0  0  3  0  0  0  0  0  0
  185.5000  178.2530  141.4680 C   0  0  0  0  0  0  0  0  0  0  0  0
  183.8980  179.5730  138.7360 C   0  0  1  0  0  3  0  0  0  0  0  0
  184.5160  178.5360  143.5860 N   0  0  0  0  0  0  0  0  0  0  0  0
  186.5440  178.2670  140.5420 N   0  0  0  0  0  0  0  0  0  0  0  0
  188.3060  176.6330  142.4160 C   0  0  0  0  0  1  0  0  0  0  0  0
  181.8030  178.7100  140.9410 C   0  0  0  0  0  2  0  0  0  0  0  0
  183.2720  178.5730  143.0020 C   0  0  0  0  0  3  0  0  0  0  0  0
  187.8930  178.6340  140.9690 C   0  0  0  0  0  2  0  0  0  0  0  0
  183.1340  178.4700  141.6010 C   0  0  0  0  0  0  0  0  0  0  0  0
  186.0470  178.3880  139.2260 N   0  0  1  0  0  0  0  0  0  0  0  0
  187.0290  178.5510  143.4010 C   0  0  0  0  0  2  0  0  0  0  0  0
  182.3780  179.6590  138.9890 C   0  0  2  0  0  3  0  0  0  0  0  0
  189.4560  178.7500  142.8950 C   0  0  0  0  0  1  0  0  0  0  0  0
  181.8580  178.4810  139.5560 O   0  0  0  0  0  0  0  0  0  0  0  0
  185.6430  176.7540  137.3110 C   0  0  0  0  0  2  0  0  0  0  0  0
  186.3480  175.6910  136.4720 C   0  0  2  0  0  3  0  0  0  0  0  0
  187.8720  177.7110  135.7820 C   0  0  2  0  0  3  0  0  0  0  0  0
  187.4170  176.2630  135.5250 C   0  0  0  0  0  2  0  0  0  0  0  0
  188.5650  177.9370  137.0710 N   0  0  0  0  0  0  0  0  0  0  0  0
  188.6270  179.2600  137.3570 O   0  0  0  0  0  1  0  0  0  0  0  0
  188.0600  177.2140  138.2490 C   0  0  0  0  0  2  0  0  0  0  0  0
  186.8060  178.7470  135.4280 C   0  0  0  0  0  1  0  0  0  0  0  0
  186.5370  177.2270  138.4680 C   0  0  1  0  0  3  0  0  0  0  0  0
  184.7570  175.7510  134.6300 N   0  0  0  0  0  1  0  0  0  0  0  0
  185.3350  174.9050  135.6600 C   0  0  0  0  0  2  0  0  0  0  0  0
  181.4700  179.0410  136.7210 C   0  0  0  0  0  3  0  0  0  0  0  0
  181.6550  180.0000  137.7270 C   0  0  0  0  0  0  0  0  0  0  0  0
  181.1800  181.3030  137.5400 C   0  0  0  0  0  3  0  0  0  0  0  0
  180.0550  182.9060  136.1810 F   0  0  0  0  0  0  0  0  0  0  0  0
  180.3280  180.6860  135.3580 C   0  0  0  0  0  3  0  0  0  0  0  0
  180.5160  181.6450  136.3580 C   0  0  0  0  0  0  0  0  0  0  0  0
  180.8050  179.3840  135.5390 C   0  0  0  0  0  3  0  0  0  0  0  0
  1 10  1  0  0  0  0
  1 18  1  0  0  0  0
  1 16  1  0  0  0  0
  2  6  2  0  0  0  0
  2 14  1  0  0  0  0
  4 16  1  0  0  0  0
  4  8  2  0  0  0  0
  5  2  1  1  0  0  0
  6  4  1  0  0  0  0
  7 17  1  0  0  0  0
  7  3  1  1  0  0  0
  7  5  1  0  0  0  0
  9 13  1  0  0  0  0
  9  6  1  0  0  0  0
 11 14  1  0  0  0  0
 12  8  1  0  0  0  0
 13  1  1  0  0  0  0
 14 12  2  0  0  0  0
 15  5  1  0  0  0  0
 15  9  1  1  0  0  0
 17 32  1  6  0  0  0
 17 19  1  0  0  0  0
 19 11  1  0  0  0  0
 21 30  1  6  0  0  0
 21 20  1  0  0  0  0
 22 27  1  1  0  0  0
 22 24  1  0  0  0  0
 23 22  1  0  0  0  0
 23 21  1  0  0  0  0
 24 25  1  0  0  0  0
 24 26  1  0  0  0  0
 26 28  1  0  0  0  0
 28 20  1  6  0  0  0
 28 15  1  0  0  0  0
 29 30  1  0  0  0  0
 31 32  1  0  0  0  0
 33 32  2  0  0  0  0
 34 36  1  0  0  0  0
 35 37  1  0  0  0  0
 35 36  2  0  0  0  0
 36 33  1  0  0  0  0
 37 31  2  0  0  0  0
M  END
>  <MODEL>
4

>  <REMARK>
 VINA RESULT:      -5.4      3.512      6.411
  Name = 
  3 active torsions:
  status: ('A' for Active; 'I' for Inactive)
    1  A    between atoms: C_4  and  C_37
    2  A    between atoms: N_21  and  C_27
    3  A    between atoms: C_23  and  C_30
                            x       y       z     vdW  Elec       q    Type
                         _______ _______ _______ _____ _____    ______ ____

>  <TORSDO>
F 3

$$$$
=
 OpenBabel11122411243D

 37 42  0  0  1  0  0  0  0  0999 V2000
  192.9500  176.5150  137.4800 C   0  0  0  0  0  0  0  0  0  0  0  0
  189.7480  177.0110  140.0760 C   0  0  0  0  0  0  0  0  0  0  0  0
  188.2680  179.2020  138.7100 F   0  0  0  0  0  0  0  0  0  0  0  0
  192.1140  177.1310  139.8160 C   0  0  0  0  0  0  0  0  0  0  0  0
  188.5690  176.8570  139.1630 C   0  0  1  0  0  3  0  0  0  0  0  0
  190.8520  176.8680  139.3320 C   0  0  0  0  0  0  0  0  0  0  0  0
  187.6450  178.0820  139.2350 C   0  0  1  0  0  3  0  0  0  0  0  0
  192.2360  177.5080  141.1230 N   0  0  0  0  0  0  0  0  0  0  0  0
  190.5350  176.6440  137.9910 N   0  0  0  0  0  0  0  0  0  0  0  0
  193.0750  175.0060  137.6030 C   0  0  0  0  0  1  0  0  0  0  0  0
  188.6150  177.7490  142.2250 C   0  0  0  0  0  2  0  0  0  0  0  0
  191.1300  177.6460  141.9270 C   0  0  0  0  0  3  0  0  0  0  0  0
  191.5390  176.8730  136.9550 C   0  0  0  0  0  2  0  0  0  0  0  0
  189.8370  177.4090  141.4140 C   0  0  0  0  0  0  0  0  0  0  0  0
  189.1370  176.6850  137.7920 N   0  0  1  0  0  0  0  0  0  0  0  0
  193.2690  177.1720  138.8490 C   0  0  0  0  0  2  0  0  0  0  0  0
  187.1410  178.3950  140.6590 C   0  0  2  0  0  3  0  0  0  0  0  0
  193.9720  176.9920  136.4710 C   0  0  0  0  0  1  0  0  0  0  0  0
  187.4310  177.3650  141.5730 O   0  0  0  0  0  0  0  0  0  0  0  0
  187.3680  174.8560  137.6340 C   0  0  0  0  0  2  0  0  0  0  0  0
  186.9790  173.6310  136.8110 C   0  0  2  0  0  3  0  0  0  0  0  0
  186.7970  175.3930  134.8770 C   0  0  2  0  0  3  0  0  0  0  0  0
  186.5000  173.9720  135.3890 C   0  0  0  0  0  2  0  0  0  0  0  0
  188.2320  175.7220  134.7190 N   0  0  0  0  0  0  0  0  0  0  0  0
  188.4060  177.0600  134.5940 O   0  0  0  0  0  1  0  0  0  0  0  0
  189.1610  175.2120  135.7390 C   0  0  0  0  0  2  0  0  0  0  0  0
  185.9560  176.4670  135.5650 C   0  0  0  0  0  1  0  0  0  0  0  0
  188.7430  175.3930  137.2090 C   0  0  1  0  0  3  0  0  0  0  0  0
  184.5840  173.2900  137.0880 N   0  0  0  0  0  1  0  0  0  0  0  0
  185.8950  172.8410  137.5230 C   0  0  0  0  0  2  0  0  0  0  0  0
  185.0540  179.1970  139.4950 C   0  0  0  0  0  3  0  0  0  0  0  0
  185.6760  178.6890  140.6450 C   0  0  0  0  0  0  0  0  0  0  0  0
  184.9230  178.4780  141.8050 C   0  0  0  0  0  3  0  0  0  0  0  0
  182.8280  178.5560  142.9390 F   0  0  0  0  0  0  0  0  0  0  0  0
  182.9360  179.2660  140.6660 C   0  0  0  0  0  3  0  0  0  0  0  0
  183.5550  178.7640  141.8150 C   0  0  0  0  0  0  0  0  0  0  0  0
  183.6860  179.4830  139.5070 C   0  0  0  0  0  3  0  0  0  0  0  0
  1 10  1  0  0  0  0
  1 16  1  0  0  0  0
  2 14  1  0  0  0  0
  4  8  2  0  0  0  0
  5  7  1  0  0  0  0
  5  2  1  1  0  0  0
  6  4  1  0  0  0  0
  6  2  2  0  0  0  0
  7  3  1  1  0  0  0
  7 17  1  0  0  0  0
  8 12  1  0  0  0  0
  9  6  1  0  0  0  0
 13  1  1  0  0  0  0
 13  9  1  0  0  0  0
 14 12  2  0  0  0  0
 14 11  1  0  0  0  0
 15  9  1  1  0  0  0
 15  5  1  0  0  0  0
 16  4  1  0  0  0  0
 17 32  1  6  0  0  0
 17 19  1  0  0  0  0
 18  1  1  0  0  0  0
 19 11  1  0  0  0  0
 21 30  1  1  0  0  0
 21 20  1  0  0  0  0
 22 23  1  0  0  0  0
 22 27  1  1  0  0  0
 23 21  1  0  0  0  0
 24 22  1  0  0  0  0
 24 26  1  0  0  0  0
 25 24  1  0  0  0  0
 28 26  1  6  0  0  0
 28 20  1  0  0  0  0
 28 15  1  0  0  0  0
 29 30  1  0  0  0  0
 31 37  2  0  0  0  0
 31 32  1  0  0  0  0
 32 33  2  0  0  0  0
 33 36  1  0  0  0  0
 35 36  2  0  0  0  0
 36 34  1  0  0  0  0
 37 35  1  0  0  0  0
M  END
>  <MODEL>
5

>  <REMARK>
 VINA RESULT:      -5.4      1.280      1.673
  Name = 
  3 active torsions:
  status: ('A' for Active; 'I' for Inactive)
    1  A    between atoms: C_4  and  C_37
    2  A    between atoms: N_21  and  C_27
    3  A    between atoms: C_23  and  C_30
                            x       y       z     vdW  Elec       q    Type
                         _______ _______ _______ _____ _____    ______ ____

>  <TORSDO>
F 3

$$$$
=
 OpenBabel11122411243D

 37 42  0  0  1  0  0  0  0  0999 V2000
  188.4710  177.6960  136.0490 C   0  0  0  0  0  0  0  0  0  0  0  0
  185.8790  177.9510  139.2820 C   0  0  0  0  0  0  0  0  0  0  0  0
  184.0380  180.0920  138.3430 F   0  0  0  0  0  0  0  0  0  0  0  0
  188.1260  178.2050  138.5290 C   0  0  0  0  0  0  0  0  0  0  0  0
  184.5400  177.7560  138.6360 C   0  0  1  0  0  3  0  0  0  0  0  0
  186.8030  177.8870  138.3150 C   0  0  0  0  0  0  0  0  0  0  0  0
  183.5960  178.9270  138.9470 C   0  0  1  0  0  3  0  0  0  0  0  0
  188.5070  178.5550  139.7940 N   0  0  0  0  0  0  0  0  0  0  0  0
  186.2180  177.6800  137.0660 N   0  0  0  0  0  0  0  0  0  0  0  0
  188.6910  176.1930  136.0880 C   0  0  0  0  0  1  0  0  0  0  0  0
  185.1990  178.5710  141.6480 C   0  0  0  0  0  2  0  0  0  0  0  0
  187.5940  178.6120  140.8190 C   0  0  0  0  0  3  0  0  0  0  0  0
  186.9650  177.9900  135.8490 C   0  0  0  0  0  2  0  0  0  0  0  0
  186.2330  178.3180  140.5850 C   0  0  0  0  0  0  0  0  0  0  0  0
  184.8090  177.6500  137.1700 N   0  0  1  0  0  0  0  0  0  0  0  0
  189.0440  178.3340  137.3420 C   0  0  0  0  0  2  0  0  0  0  0  0
  183.3940  179.1750  140.4560 C   0  0  2  0  0  3  0  0  0  0  0  0
  189.2290  178.2530  134.8630 C   0  0  0  0  0  1  0  0  0  0  0  0
  183.9220  178.1390  141.2490 O   0  0  0  0  0  0  0  0  0  0  0  0
  184.5960  175.1370  137.5460 C   0  0  0  0  0  2  0  0  0  0  0  0
  183.9050  173.8960  136.9880 C   0  0  2  0  0  3  0  0  0  0  0  0
  181.7320  175.2110  137.6380 C   0  0  2  0  0  3  0  0  0  0  0  0
  182.3840  173.8810  137.2180 C   0  0  0  0  0  2  0  0  0  0  0  0
  181.7990  176.2950  136.6310 N   0  0  0  0  0  0  0  0  0  0  0  0
  181.5110  177.4920  137.1960 O   0  0  0  0  0  1  0  0  0  0  0  0
  183.0400  176.4190  135.8510 C   0  0  0  0  0  2  0  0  0  0  0  0
  182.0810  175.6280  139.0660 C   0  0  0  0  0  1  0  0  0  0  0  0
  184.3620  176.3540  136.6370 C   0  0  1  0  0  3  0  0  0  0  0  0
  185.8920  172.8850  137.9680 N   0  0  0  0  0  1  0  0  0  0  0  0
  184.5100  172.6420  137.5940 C   0  0  0  0  0  2  0  0  0  0  0  0
  181.3950  178.9430  141.9730 C   0  0  0  0  0  3  0  0  0  0  0  0
  181.9480  179.3900  140.7640 C   0  0  0  0  0  0  0  0  0  0  0  0
  181.1320  180.0220  139.8200 C   0  0  0  0  0  3  0  0  0  0  0  0
  178.9860  180.8320  139.1700 F   0  0  0  0  0  0  0  0  0  0  0  0
  179.2250  179.7740  141.2930 C   0  0  0  0  0  3  0  0  0  0  0  0
  179.7730  180.2160  140.0850 C   0  0  0  0  0  0  0  0  0  0  0  0
  180.0360  179.1370  142.2360 C   0  0  0  0  0  3  0  0  0  0  0  0
  1 10  1  0  0  0  0
  1 16  1  0  0  0  0
  2 14  1  0  0  0  0
  4  8  2  0  0  0  0
  5  7  1  0  0  0  0
  5  2  1  1  0  0  0
  6  4  1  0  0  0  0
  6  2  2  0  0  0  0
  7  3  1  1  0  0  0
  7 17  1  0  0  0  0
  8 12  1  0  0  0  0
  9  6  1  0  0  0  0
 13  1  1  0  0  0  0
 13  9  1  0  0  0  0
 14 12  2  0  0  0  0
 14 11  1  0  0  0  0
 15  9  1  1  0  0  0
 15  5  1  0  0  0  0
 16  4  1  0  0  0  0
 17 32  1  6  0  0  0
 17 19  1  0  0  0  0
 18  1  1  0  0  0  0
 19 11  1  0  0  0  0
 21 23  1  0  0  0  0
 21 20  1  0  0  0  0
 21 30  1  1  0  0  0
 22 27  1  1  0  0  0
 23 22  1  0  0  0  0
 24 25  1  0  0  0  0
 24 22  1  0  0  0  0
 26 24  1  0  0  0  0
 28 26  1  1  0  0  0
 28 15  1  0  0  0  0
 28 20  1  0  0  0  0
 30 29  1  0  0  0  0
 31 37  1  0  0  0  0
 32 31  2  0  0  0  0
 33 36  2  0  0  0  0
 33 32  1  0  0  0  0
 34 36  1  0  0  0  0
 35 37  2  0  0  0  0
 36 35  1  0  0  0  0
M  END
>  <MODEL>
6

>  <REMARK>
 VINA RESULT:      -5.3      3.226      4.806
  Name = 
  3 active torsions:
  status: ('A' for Active; 'I' for Inactive)
    1  A    between atoms: C_4  and  C_37
    2  A    between atoms: N_21  and  C_27
    3  A    between atoms: C_23  and  C_30
                            x       y       z     vdW  Elec       q    Type
                         _______ _______ _______ _____ _____    ______ ____

>  <TORSDO>
F 3

$$$$
=
 OpenBabel11122411243D

 37 42  0  0  1  0  0  0  0  0999 V2000
  180.3900  176.1910  135.6140 C   0  0  0  0  0  0  0  0  0  0  0  0
  181.6360  178.2620  138.9890 C   0  0  0  0  0  0  0  0  0  0  0  0
  182.8860  176.0620  140.5540 F   0  0  0  0  0  0  0  0  0  0  0  0
  179.7730  177.5770  137.6700 C   0  0  0  0  0  0  0  0  0  0  0  0
  183.0970  177.9290  139.0490 C   0  0  1  0  0  3  0  0  0  0  0  0
  181.1260  177.6360  137.9210 C   0  0  0  0  0  0  0  0  0  0  0  0
  183.4710  177.3080  140.4040 C   0  0  1  0  0  3  0  0  0  0  0  0
  178.9310  178.2270  138.5280 N   0  0  0  0  0  0  0  0  0  0  0  0
  182.1010  176.8940  137.2540 N   0  0  0  0  0  0  0  0  0  0  0  0
  180.6640  177.2860  134.5960 C   0  0  0  0  0  1  0  0  0  0  0  0
  181.3190  179.4850  141.1910 C   0  0  0  0  0  2  0  0  0  0  0  0
  179.4160  178.8990  139.6240 C   0  0  0  0  0  3  0  0  0  0  0  0
  181.7060  175.8240  136.3410 C   0  0  0  0  0  2  0  0  0  0  0  0
  180.8010  178.9260  139.8940 C   0  0  0  0  0  0  0  0  0  0  0  0
  183.3400  176.9720  137.9270 N   0  0  1  0  0  0  0  0  0  0  0  0
  179.2750  176.6590  136.5850 C   0  0  0  0  0  2  0  0  0  0  0  0
  183.1080  178.1940  141.6130 C   0  0  2  0  0  3  0  0  0  0  0  0
  179.8970  174.9690  134.8700 C   0  0  0  0  0  1  0  0  0  0  0  0
  182.7240  179.4940  141.2330 O   0  0  0  0  0  0  0  0  0  0  0  0
  185.6990  177.8650  137.5510 C   0  0  0  0  0  2  0  0  0  0  0  0
  186.6900  178.2060  136.4420 C   0  0  2  0  0  3  0  0  0  0  0  0
  186.4740  175.6470  135.9100 C   0  0  2  0  0  3  0  0  0  0  0  0
  187.2290  176.9710  135.6980 C   0  0  0  0  0  2  0  0  0  0  0  0
  185.0800  175.6250  135.4090 N   0  0  0  0  0  0  0  0  0  0  0  0
  184.4020  174.5710  135.9240 O   0  0  0  0  0  1  0  0  0  0  0  0
  184.2770  176.8440  135.5840 C   0  0  0  0  0  2  0  0  0  0  0  0
  186.6700  175.0610  137.3070 C   0  0  0  0  0  1  0  0  0  0  0  0
  184.3210  177.5090  136.9720 C   0  0  1  0  0  3  0  0  0  0  0  0
  188.0880  178.6270  138.3900 N   0  0  0  0  0  1  0  0  0  0  0  0
  187.8580  178.9950  137.0040 C   0  0  0  0  0  2  0  0  0  0  0  0
  185.5420  177.9010  142.1960 C   0  0  0  0  0  3  0  0  0  0  0  0
  184.2390  178.2430  142.5860 C   0  0  0  0  0  0  0  0  0  0  0  0
  183.9880  178.6110  143.9130 C   0  0  0  0  0  3  0  0  0  0  0  0
  184.7850  179.0050  146.1250 F   0  0  0  0  0  0  0  0  0  0  0  0
  186.3300  178.3090  144.4490 C   0  0  0  0  0  3  0  0  0  0  0  0
  185.0320  178.6450  144.8420 C   0  0  0  0  0  0  0  0  0  0  0  0
  186.5850  177.9360  143.1260 C   0  0  0  0  0  3  0  0  0  0  0  0
  1 13  1  0  0  0  0
  1 16  1  0  0  0  0
  2 14  1  0  0  0  0
  4  6  1  0  0  0  0
  4  8  2  0  0  0  0
  5  2  1  1  0  0  0
  5  7  1  0  0  0  0
  6  2  2  0  0  0  0
  7  3  1  1  0  0  0
  7 17  1  0  0  0  0
  8 12  1  0  0  0  0
  9  6  1  0  0  0  0
 10  1  1  0  0  0  0
 11 19  1  0  0  0  0
 12 14  2  0  0  0  0
 13  9  1  0  0  0  0
 14 11  1  0  0  0  0
 15  9  1  6  0  0  0
 15  5  1  0  0  0  0
 16  4  1  0  0  0  0
 17 32  1  1  0  0  0
 18  1  1  0  0  0  0
 19 17  1  0  0  0  0
 21 30  1  1  0  0  0
 21 20  1  0  0  0  0
 22 27  1  1  0  0  0
 23 22  1  0  0  0  0
 23 21  1  0  0  0  0
 24 26  1  0  0  0  0
 24 22  1  0  0  0  0
 24 25  1  0  0  0  0
 28 26  1  6  0  0  0
 28 20  1  0  0  0  0
 28 15  1  0  0  0  0
 30 29  1  0  0  0  0
 31 32  2  0  0  0  0
 31 37  1  0  0  0  0
 32 33  1  0  0  0  0
 33 36  2  0  0  0  0
 35 36  1  0  0  0  0
 36 34  1  0  0  0  0
 37 35  2  0  0  0  0
M  END
>  <MODEL>
7

>  <REMARK>
 VINA RESULT:      -5.0      4.027      8.091
  Name = 
  3 active torsions:
  status: ('A' for Active; 'I' for Inactive)
    1  A    between atoms: C_4  and  C_37
    2  A    between atoms: N_21  and  C_27
    3  A    between atoms: C_23  and  C_30
                            x       y       z     vdW  Elec       q    Type
                         _______ _______ _______ _____ _____    ______ ____

>  <TORSDO>
F 3

$$$$
=
 OpenBabel11122411243D

 37 42  0  0  1  0  0  0  0  0999 V2000
  190.4120  176.1750  135.8820 C   0  0  0  0  0  0  0  0  0  0  0  0
  187.5500  177.2240  138.7010 C   0  0  0  0  0  0  0  0  0  0  0  0
  186.1720  179.4470  137.2830 F   0  0  0  0  0  0  0  0  0  0  0  0
  189.8790  177.0620  138.2190 C   0  0  0  0  0  0  0  0  0  0  0  0
  186.2770  177.1270  137.9160 C   0  0  1  0  0  3  0  0  0  0  0  0
  188.5550  176.9020  137.8760 C   0  0  0  0  0  0  0  0  0  0  0  0
  185.4930  178.4480  137.9600 C   0  0  1  0  0  3  0  0  0  0  0  0
  190.1670  177.5270  139.4710 N   0  0  0  0  0  0  0  0  0  0  0  0
  188.0850  176.6080  136.5950 N   0  0  0  0  0  0  0  0  0  0  0  0
  190.3950  174.6760  136.1290 C   0  0  0  0  0  1  0  0  0  0  0  0
  186.7170  178.2510  140.8680 C   0  0  0  0  0  2  0  0  0  0  0  0
  189.1660  177.8490  140.3560 C   0  0  0  0  0  3  0  0  0  0  0  0
  189.0000  176.6420  135.4560 C   0  0  0  0  0  2  0  0  0  0  0  0
  187.8110  177.7150  139.9850 C   0  0  0  0  0  0  0  0  0  0  0  0
  186.6860  176.7850  136.5200 N   0  0  1  0  0  0  0  0  0  0  0  0
  190.9300  176.8990  137.1520 C   0  0  0  0  0  2  0  0  0  0  0  0
  185.1670  178.9270  139.3900 C   0  0  2  0  0  3  0  0  0  0  0  0
  191.3720  176.4540  134.7460 C   0  0  0  0  0  1  0  0  0  0  0  0
  185.4410  177.9480  140.3630 O   0  0  0  0  0  0  0  0  0  0  0  0
  185.3830  174.6960  137.1830 C   0  0  0  0  0  2  0  0  0  0  0  0
  184.6470  173.5010  136.5840 C   0  0  2  0  0  3  0  0  0  0  0  0
  183.1200  175.3700  135.5590 C   0  0  2  0  0  3  0  0  0  0  0  0
  183.3350  173.8790  135.8740 C   0  0  0  0  0  2  0  0  0  0  0  0
  184.0780  175.9590  134.5950 N   0  0  0  0  0  0  0  0  0  0  0  0
  184.0270  177.3130  134.6340 O   0  0  0  0  0  1  0  0  0  0  0  0
  185.4820  175.5290  134.6870 C   0  0  0  0  0  2  0  0  0  0  0  0
  182.8490  176.2140  136.8040 C   0  0  0  0  0  1  0  0  0  0  0  0
  186.1070  175.5020  136.0930 C   0  0  1  0  0  3  0  0  0  0  0  0
  183.3380  171.5400  137.1950 N   0  0  0  0  0  1  0  0  0  0  0  0
  184.3500  172.4730  137.6600 C   0  0  0  0  0  2  0  0  0  0  0  0
  182.8420  178.7410  140.3430 C   0  0  0  0  0  3  0  0  0  0  0  0
  183.7460  179.3780  139.4810 C   0  0  0  0  0  0  0  0  0  0  0  0
  183.3080  180.4340  138.6750 C   0  0  0  0  0  3  0  0  0  0  0  0
  181.5570  181.8840  137.9550 F   0  0  0  0  0  0  0  0  0  0  0  0
  181.0790  180.2240  139.5990 C   0  0  0  0  0  3  0  0  0  0  0  0
  181.9770  180.8580  138.7350 C   0  0  0  0  0  0  0  0  0  0  0  0
  181.5110  179.1650  140.4020 C   0  0  0  0  0  3  0  0  0  0  0  0
  1 10  1  0  0  0  0
  1 16  1  0  0  0  0
  2 14  1  0  0  0  0
  4  8  2  0  0  0  0
  5  7  1  0  0  0  0
  5  2  1  1  0  0  0
  6  4  1  0  0  0  0
  6  2  2  0  0  0  0
  7  3  1  1  0  0  0
  7 17  1  0  0  0  0
  8 12  1  0  0  0  0
  9  6  1  0  0  0  0
 13  1  1  0  0  0  0
 13  9  1  0  0  0  0
 14 12  2  0  0  0  0
 14 11  1  0  0  0  0
 15  9  1  1  0  0  0
 15  5  1  0  0  0  0
 16  4  1  0  0  0  0
 17 32  1  6  0  0  0
 17 19  1  0  0  0  0
 18  1  1  0  0  0  0
 19 11  1  0  0  0  0
 21 20  1  0  0  0  0
 21 30  1  1  0  0  0
 22 23  1  0  0  0  0
 22 27  1  1  0  0  0
 23 21  1  0  0  0  0
 24 25  1  0  0  0  0
 24 26  1  0  0  0  0
 24 22  1  0  0  0  0
 28 26  1  6  0  0  0
 28 15  1  0  0  0  0
 28 20  1  0  0  0  0
 29 30  1  0  0  0  0
 31 37  1  0  0  0  0
 32 31  2  0  0  0  0
 33 36  2  0  0  0  0
 33 32  1  0  0  0  0
 34 36  1  0  0  0  0
 35 37  2  0  0  0  0
 36 35  1  0  0  0  0
M  END
>  <MODEL>
8

>  <REMARK>
 VINA RESULT:      -4.6      2.158      3.093
  Name = 
  3 active torsions:
  status: ('A' for Active; 'I' for Inactive)
    1  A    between atoms: C_4  and  C_37
    2  A    between atoms: N_21  and  C_27
    3  A    between atoms: C_23  and  C_30
                            x       y       z     vdW  Elec       q    Type
                         _______ _______ _______ _____ _____    ______ ____

>  <TORSDO>
F 3

$$$$
=
 OpenBabel11122411243D

 37 42  0  0  1  0  0  0  0  0999 V2000
  188.5160  177.6970  136.2130 C   0  0  0  0  0  0  0  0  0  0  0  0
  185.6960  177.9490  139.2500 C   0  0  0  0  0  0  0  0  0  0  0  0
  183.9260  180.0880  138.1790 F   0  0  0  0  0  0  0  0  0  0  0  0
  187.9920  178.2060  138.6620 C   0  0  0  0  0  0  0  0  0  0  0  0
  184.4080  177.7530  138.5080 C   0  0  1  0  0  3  0  0  0  0  0  0
  186.6880  177.8860  138.3530 C   0  0  0  0  0  0  0  0  0  0  0  0
  183.4420  178.9230  138.7500 C   0  0  1  0  0  3  0  0  0  0  0  0
  188.2790  178.5570  139.9510 N   0  0  0  0  0  0  0  0  0  0  0  0
  186.1950  177.6780  137.0640 N   0  0  0  0  0  0  0  0  0  0  0  0
  188.7340  176.1940  136.2690 C   0  0  0  0  0  1  0  0  0  0  0  0
  184.8450  178.5700  141.5600 C   0  0  0  0  0  2  0  0  0  0  0  0
  187.2940  178.6130  140.9070 C   0  0  0  0  0  3  0  0  0  0  0  0
  187.0280  177.9890  135.9050 C   0  0  0  0  0  2  0  0  0  0  0  0
  185.9540  178.3170  140.5750 C   0  0  0  0  0  0  0  0  0  0  0  0
  184.7830  177.6470  137.0660 N   0  0  1  0  0  0  0  0  0  0  0  0
  188.9930  178.3350  137.5440 C   0  0  0  0  0  2  0  0  0  0  0  0
  183.1310  179.1720  140.2400 C   0  0  2  0  0  3  0  0  0  0  0  0
  189.3580  178.2540  135.0860 C   0  0  0  0  0  1  0  0  0  0  0  0
  183.6010  178.1370  141.0700 O   0  0  0  0  0  0  0  0  0  0  0  0
  183.4670  175.4870  137.3910 C   0  0  0  0  0  2  0  0  0  0  0  0
  182.9420  174.2760  136.6250 C   0  0  2  0  0  3  0  0  0  0  0  0
  181.5940  176.1010  135.3090 C   0  0  2  0  0  3  0  0  0  0  0  0
  181.8050  174.6130  135.6440 C   0  0  0  0  0  2  0  0  0  0  0  0
  182.7140  176.7540  134.5940 N   0  0  0  0  0  0  0  0  0  0  0  0
  182.5910  178.1030  134.6380 O   0  0  0  0  0  1  0  0  0  0  0  0
  184.0810  176.3840  134.9920 C   0  0  0  0  0  2  0  0  0  0  0  0
  181.0120  176.9020  136.4730 C   0  0  0  0  0  1  0  0  0  0  0  0
  184.3770  176.3500  136.5030 C   0  0  1  0  0  3  0  0  0  0  0  0
  181.0680  172.8900  137.3310 N   0  0  0  0  0  1  0  0  0  0  0  0
  182.4610  173.2100  137.5930 C   0  0  0  0  0  2  0  0  0  0  0  0
  180.8870  180.0100  139.4590 C   0  0  0  0  0  3  0  0  0  0  0  0
  181.6670  179.3850  140.4420 C   0  0  0  0  0  0  0  0  0  0  0  0
  181.0730  178.9760  141.6420 C   0  0  0  0  0  3  0  0  0  0  0  0
  179.1350  178.7830  143.0170 F   0  0  0  0  0  0  0  0  0  0  0  0
  178.9310  179.8020  140.8710 C   0  0  0  0  0  3  0  0  0  0  0  0
  179.7070  179.1830  141.8550 C   0  0  0  0  0  0  0  0  0  0  0  0
  179.5210  180.2170  139.6740 C   0  0  0  0  0  3  0  0  0  0  0  0
  1 10  1  0  0  0  0
  1 16  1  0  0  0  0
  2 14  1  0  0  0  0
  4  8  2  0  0  0  0
  5  7  1  0  0  0  0
  5  2  1  1  0  0  0
  6  4  1  0  0  0  0
  6  2  2  0  0  0  0
  7  3  1  1  0  0  0
  7 17  1  0  0  0  0
  8 12  1  0  0  0  0
  9  6  1  0  0  0  0
 13  1  1  0  0  0  0
 13  9  1  0  0  0  0
 14 12  2  0  0  0  0
 14 11  1  0  0  0  0
 15  9  1  1  0  0  0
 15  5  1  0  0  0  0
 16  4  1  0  0  0  0
 17 32  1  6  0  0  0
 17 19  1  0  0  0  0
 18  1  1  0  0  0  0
 19 11  1  0  0  0  0
 21 20  1  0  0  0  0
 21 30  1  1  0  0  0
 22 23  1  0  0  0  0
 22 27  1  1  0  0  0
 23 21  1  0  0  0  0
 24 25  1  0  0  0  0
 24 26  1  0  0  0  0
 24 22  1  0  0  0  0
 28 26  1  6  0  0  0
 28 15  1  0  0  0  0
 28 20  1  0  0  0  0
 29 30  1  0  0  0  0
 31 37  2  0  0  0  0
 31 32  1  0  0  0  0
 32 33  2  0  0  0  0
 33 36  1  0  0  0  0
 35 36  2  0  0  0  0
 36 34  1  0  0  0  0
 37 35  1  0  0  0  0
M  END
>  <MODEL>
9

>  <REMARK>
 VINA RESULT:      -4.4      3.329      5.030
  Name = 
  3 active torsions:
  status: ('A' for Active; 'I' for Inactive)
    1  A    between atoms: C_4  and  C_37
    2  A    between atoms: N_21  and  C_27
    3  A    between atoms: C_23  and  C_30
                            x       y       z     vdW  Elec       q    Type
                         _______ _______ _______ _____ _____    ______ ____

>  <TORSDO>
F 3

$$$$
