=
 OpenBabel11122410283D

 30 35  0  0  1  0  0  0  0  0999 V2000
  186.1570  178.4410  141.8670 C   0  0  0  0  0  0  0  0  0  0  0  0
  183.6860  178.9270  141.6980 C   0  0  0  0  0  0  0  0  0  0  0  0
  185.8800  178.0020  145.9490 N   0  0  0  0  0  2  0  0  0  0  0  0
  187.2900  178.0890  142.6680 C   0  0  0  0  0  0  0  0  0  0  0  0
  186.3410  178.5990  140.5320 N   0  0  0  0  0  0  0  0  0  0  0  0
  189.7240  177.7440  140.1240 O   0  0  0  0  0  0  0  0  0  0  0  0
  190.1740  178.0970  143.8110 C   0  0  1  0  0  3  0  0  0  0  0  0
  188.6210  177.9720  140.6930 C   0  0  0  0  0  0  0  0  0  0  0  0
  189.4360  178.0670  145.1370 C   0  0  2  0  0  3  0  0  0  0  0  0
  187.1980  177.8500  146.1940 C   0  0  0  0  0  0  0  0  0  0  0  0
  187.5380  178.4000  139.9300 C   0  0  0  0  0  0  0  0  0  0  0  0
  188.4810  177.7900  142.0440 N   0  0  0  0  0  0  0  0  0  0  0  0
  182.4520  179.0410  142.3440 C   0  0  0  0  0  3  0  0  0  0  0  0
  190.1510  177.0290  145.9790 C   0  0  0  0  0  2  0  0  0  0  0  0
  191.6000  177.6800  144.1320 C   0  0  0  0  0  2  0  0  0  0  0  0
  183.6490  179.2180  139.9620 Cl  0  0  0  0  0  0  0  0  0  0  0  0
  185.8390  178.1120  144.6100 C   0  0  0  0  0  0  0  0  0  0  0  0
  182.3360  178.8420  143.7150 C   0  0  0  0  0  3  0  0  0  0  0  0
  184.8570  178.5970  142.4470 C   0  0  0  0  0  0  0  0  0  0  0  0
  187.0930  178.0020  144.0670 C   0  0  0  0  0  0  0  0  0  0  0  0
  187.6570  177.7780  147.3650 O   0  0  0  0  0  0  0  0  0  0  0  0
  187.9810  177.8440  145.0840 N   0  0  0  0  0  0  0  0  0  0  0  0
  191.5980  177.1050  145.5410 C   0  0  0  0  0  2  0  0  0  0  0  0
  189.2880  175.7440  143.1910 C   0  0  0  0  0  1  0  0  0  0  0  0
  183.4620  178.5240  144.4660 C   0  0  0  0  0  3  0  0  0  0  0  0
  184.7110  178.3990  143.8490 C   0  0  0  0  0  0  0  0  0  0  0  0
  189.6020  177.1720  142.7470 C   0  0  2  0  0  3  0  0  0  0  0  0
  187.6860  178.5970  138.5540 O   0  0  0  0  0  0  0  0  0  0  0  0
  187.4990  176.5010  137.4100 C   0  0  0  0  0  1  0  0  0  0  0  0
  186.9110  177.8830  137.6030 C   0  0  0  0  0  2  0  0  0  0  0  0
  1 19  2  0  0  0  0
  1  4  1  0  0  0  0
  2 13  2  0  0  0  0
  2 19  1  0  0  0  0
  3 10  1  0  0  0  0
  4 20  2  0  0  0  0
  5  1  1  0  0  0  0
  6  8  2  0  0  0  0
  7 15  1  1  0  0  0
  7  9  1  0  0  0  0
  8 12  1  0  0  0  0
  9 14  1  1  0  0  0
 10 21  2  0  0  0  0
 11  5  2  0  0  0  0
 11  8  1  0  0  0  0
 12  4  1  0  0  0  0
 12 27  1  0  0  0  0
 13 18  1  0  0  0  0
 15 23  1  0  0  0  0
 16  2  1  0  0  0  0
 17  3  1  0  0  0  0
 18 25  2  0  0  0  0
 19 26  1  0  0  0  0
 20 17  1  0  0  0  0
 20 22  1  0  0  0  0
 22  9  1  0  0  0  0
 22 10  1  0  0  0  0
 23 14  1  0  0  0  0
 26 25  1  0  0  0  0
 26 17  2  0  0  0  0
 27 24  1  1  0  0  0
 27  7  1  0  0  0  0
 28 11  1  0  0  0  0
 29 30  1  0  0  0  0
 30 28  1  0  0  0  0
M  END
>  <MODEL>
1

>  <REMARK>
 VINA RESULT:     -10.8      0.000      0.000
  Name = 
  2 active torsions:
  status: ('A' for Active; 'I' for Inactive)
    1  A    between atoms: C_11  and  O_28
    2  A    between atoms: O_28  and  C_30
                            x       y       z     vdW  Elec       q    Type
                         _______ _______ _______ _____ _____    ______ ____

>  <TORSDO>
F 2

$$$$
=
 OpenBabel11122410283D

 30 35  0  0  1  0  0  0  0  0999 V2000
  188.8980  177.4620  143.4610 C   0  0  0  0  0  0  0  0  0  0  0  0
  190.9910  176.7820  144.6970 C   0  0  0  0  0  0  0  0  0  0  0  0
  186.8390  177.8770  147.0000 N   0  0  0  0  0  2  0  0  0  0  0  0
  187.5370  177.9020  143.4970 C   0  0  0  0  0  0  0  0  0  0  0  0
  189.4930  177.3180  142.2510 N   0  0  0  0  0  0  0  0  0  0  0  0
  187.0010  178.4380  140.0410 O   0  0  0  0  0  0  0  0  0  0  0  0
  184.5190  178.1210  142.8080 C   0  0  1  0  0  3  0  0  0  0  0  0
  187.5700  178.1230  141.1230 C   0  0  0  0  0  0  0  0  0  0  0  0
  184.3750  178.0920  144.3190 C   0  0  2  0  0  3  0  0  0  0  0  0
  185.6280  178.1310  146.4650 C   0  0  0  0  0  0  0  0  0  0  0  0
  188.8640  177.6110  141.0870 C   0  0  0  0  0  0  0  0  0  0  0  0
  186.9310  178.2930  142.3230 N   0  0  0  0  0  0  0  0  0  0  0  0
  191.6310  176.5710  145.9210 C   0  0  0  0  0  3  0  0  0  0  0  0
  183.3780  179.1830  144.6550 C   0  0  0  0  0  2  0  0  0  0  0  0
  183.1930  178.6480  142.2860 C   0  0  0  0  0  2  0  0  0  0  0  0
  191.9870  176.4900  143.2750 Cl  0  0  0  0  0  0  0  0  0  0  0  0
  187.6260  177.7640  145.9160 C   0  0  0  0  0  0  0  0  0  0  0  0
  190.9620  176.7600  147.1250 C   0  0  0  0  0  3  0  0  0  0  0  0
  189.6270  177.2040  144.6670 C   0  0  0  0  0  0  0  0  0  0  0  0
  186.9100  177.9720  144.7640 C   0  0  0  0  0  0  0  0  0  0  0  0
  184.5920  178.2400  147.1730 O   0  0  0  0  0  0  0  0  0  0  0  0
  185.6150  178.2000  145.1070 N   0  0  0  0  0  0  0  0  0  0  0  0
  182.4330  179.2210  143.4730 C   0  0  0  0  0  2  0  0  0  0  0  0
  185.7510  180.3960  142.9040 C   0  0  0  0  0  1  0  0  0  0  0  0
  189.6320  177.1650  147.1220 C   0  0  0  0  0  3  0  0  0  0  0  0
  188.9650  177.3890  145.9130 C   0  0  0  0  0  0  0  0  0  0  0  0
  185.6520  178.9980  142.2960 C   0  0  2  0  0  3  0  0  0  0  0  0
  189.5090  177.4270  139.8610 O   0  0  0  0  0  0  0  0  0  0  0  0
  191.2070  176.3930  138.5230 C   0  0  0  0  0  1  0  0  0  0  0  0
  190.9070  177.1940  139.7730 C   0  0  0  0  0  2  0  0  0  0  0  0
  1  4  2  0  0  0  0
  1 19  1  0  0  0  0
  2 13  1  0  0  0  0
  4 20  1  0  0  0  0
  5  1  1  0  0  0  0
  6  8  2  0  0  0  0
  7 15  1  6  0  0  0
  7  9  1  0  0  0  0
  8 12  1  0  0  0  0
  9 14  1  1  0  0  0
  9 22  1  0  0  0  0
 10  3  1  0  0  0  0
 10 21  2  0  0  0  0
 11  8  1  0  0  0  0
 11  5  2  0  0  0  0
 12  4  1  0  0  0  0
 13 18  2  0  0  0  0
 15 23  1  0  0  0  0
 16  2  1  0  0  0  0
 17  3  1  0  0  0  0
 19  2  2  0  0  0  0
 19 26  1  0  0  0  0
 20 22  1  0  0  0  0
 20 17  2  0  0  0  0
 22 10  1  0  0  0  0
 23 14  1  0  0  0  0
 25 18  1  0  0  0  0
 26 17  1  0  0  0  0
 26 25  2  0  0  0  0
 27 12  1  0  0  0  0
 27  7  1  0  0  0  0
 27 24  1  1  0  0  0
 28 11  1  0  0  0  0
 29 30  1  0  0  0  0
 30 28  1  0  0  0  0
M  END
>  <MODEL>
2

>  <REMARK>
 VINA RESULT:     -10.0      2.295      5.450
  Name = 
  2 active torsions:
  status: ('A' for Active; 'I' for Inactive)
    1  A    between atoms: C_11  and  O_28
    2  A    between atoms: O_28  and  C_30
                            x       y       z     vdW  Elec       q    Type
                         _______ _______ _______ _____ _____    ______ ____

>  <TORSDO>
F 2

$$$$
=
 OpenBabel11122410283D

 30 35  0  0  1  0  0  0  0  0999 V2000
  186.7550  177.8750  144.6260 C   0  0  0  0  0  0  0  0  0  0  0  0
  184.3490  178.4430  145.1350 C   0  0  0  0  0  0  0  0  0  0  0  0
  186.2160  178.7760  140.6470 N   0  0  0  0  0  2  0  0  0  0  0  0
  187.8280  177.8020  143.6830 C   0  0  0  0  0  0  0  0  0  0  0  0
  187.0080  177.5290  145.9130 N   0  0  0  0  0  0  0  0  0  0  0  0
  190.4580  176.8640  145.8550 O   0  0  0  0  0  0  0  0  0  0  0  0
  190.2820  176.7090  142.1320 C   0  0  1  0  0  3  0  0  0  0  0  0
  189.3040  177.1680  145.4450 C   0  0  0  0  0  0  0  0  0  0  0  0
  189.4780  177.1670  140.9290 C   0  0  2  0  0  3  0  0  0  0  0  0
  187.4350  178.3900  140.2180 C   0  0  0  0  0  0  0  0  0  0  0  0
  188.2380  177.1560  146.3410 C   0  0  0  0  0  0  0  0  0  0  0  0
  189.0970  177.5190  144.1370 N   0  0  0  0  0  0  0  0  0  0  0  0
  183.1160  178.9120  144.6730 C   0  0  0  0  0  3  0  0  0  0  0  0
  190.4610  177.8900  140.0310 C   0  0  0  0  0  2  0  0  0  0  0  0
  191.7020  176.5260  141.6210 C   0  0  0  0  0  2  0  0  0  0  0  0
  184.3940  178.0300  146.8460 Cl  0  0  0  0  0  0  0  0  0  0  0  0
  186.2870  178.5660  141.9730 C   0  0  0  0  0  0  0  0  0  0  0  0
  182.9360  179.2700  143.3410 C   0  0  0  0  0  3  0  0  0  0  0  0
  185.4520  178.3280  144.2370 C   0  0  0  0  0  0  0  0  0  0  0  0
  187.5250  178.0940  142.3310 C   0  0  0  0  0  0  0  0  0  0  0  0
  187.7420  178.3770  138.9960 O   0  0  0  0  0  0  0  0  0  0  0  0
  188.2710  177.9660  141.2020 N   0  0  0  0  0  0  0  0  0  0  0  0
  191.7800  177.1810  140.2500 C   0  0  0  0  0  2  0  0  0  0  0  0
  190.5540  179.1460  142.9610 C   0  0  0  0  0  1  0  0  0  0  0  0
  183.9950  179.1630  142.4460 C   0  0  0  0  0  3  0  0  0  0  0  0
  185.2420  178.7000  142.8790 C   0  0  0  0  0  0  0  0  0  0  0  0
  190.2840  177.6810  143.3010 C   0  0  2  0  0  3  0  0  0  0  0  0
  188.4480  176.7850  147.6720 O   0  0  0  0  0  0  0  0  0  0  0  0
  189.4380  178.6490  148.8070 C   0  0  0  0  0  1  0  0  0  0  0  0
  188.2630  177.6960  148.7460 C   0  0  0  0  0  2  0  0  0  0  0  0
  1  5  1  0  0  0  0
  2 16  1  0  0  0  0
  3 17  1  0  0  0  0
  4 12  1  0  0  0  0
  4  1  2  0  0  0  0
  5 11  2  0  0  0  0
  7 15  1  6  0  0  0
  7 27  1  0  0  0  0
  8  6  2  0  0  0  0
  8 11  1  0  0  0  0
  9 14  1  6  0  0  0
  9 22  1  0  0  0  0
  9  7  1  0  0  0  0
 10  3  1  0  0  0  0
 10 22  1  0  0  0  0
 11 28  1  0  0  0  0
 12  8  1  0  0  0  0
 13  2  1  0  0  0  0
 14 23  1  0  0  0  0
 17 20  2  0  0  0  0
 17 26  1  0  0  0  0
 18 13  2  0  0  0  0
 19  1  1  0  0  0  0
 19  2  2  0  0  0  0
 20  4  1  0  0  0  0
 21 10  2  0  0  0  0
 22 20  1  0  0  0  0
 23 15  1  0  0  0  0
 25 26  2  0  0  0  0
 25 18  1  0  0  0  0
 26 19  1  0  0  0  0
 27 24  1  6  0  0  0
 27 12  1  0  0  0  0
 28 30  1  0  0  0  0
 30 29  1  0  0  0  0
M  END
>  <MODEL>
3

>  <REMARK>
 VINA RESULT:      -9.2      1.991      5.310
  Name = 
  2 active torsions:
  status: ('A' for Active; 'I' for Inactive)
    1  A    between atoms: C_11  and  O_28
    2  A    between atoms: O_28  and  C_30
                            x       y       z     vdW  Elec       q    Type
                         _______ _______ _______ _____ _____    ______ ____

>  <TORSDO>
F 2

$$$$
=
 OpenBabel11122410283D

 30 35  0  0  1  0  0  0  0  0999 V2000
  187.5850  177.5960  142.6580 C   0  0  0  0  0  0  0  0  0  0  0  0
  186.4340  178.0840  144.8500 C   0  0  0  0  0  0  0  0  0  0  0  0
  184.4920  179.3100  140.5530 N   0  0  0  0  0  2  0  0  0  0  0  0
  187.6090  177.7020  141.2310 C   0  0  0  0  0  0  0  0  0  0  0  0
  188.6290  176.9860  143.2730 N   0  0  0  0  0  0  0  0  0  0  0  0
  190.7900  176.2920  140.5910 O   0  0  0  0  0  0  0  0  0  0  0  0
  187.9520  176.9150  138.2500 C   0  0  1  0  0  3  0  0  0  0  0  0
  189.7690  176.6930  141.2150 C   0  0  0  0  0  0  0  0  0  0  0  0
  186.6180  177.6260  138.1140 C   0  0  2  0  0  3  0  0  0  0  0  0
  184.9360  179.0030  139.3170 C   0  0  0  0  0  0  0  0  0  0  0  0
  189.7020  176.5130  142.5950 C   0  0  0  0  0  0  0  0  0  0  0  0
  188.7420  177.3110  140.5530 N   0  0  0  0  0  0  0  0  0  0  0  0
  185.3500  178.6590  145.5200 C   0  0  0  0  0  3  0  0  0  0  0  0
  186.7460  178.5040  136.8850 C   0  0  0  0  0  2  0  0  0  0  0  0
  188.5050  176.8190  136.8370 C   0  0  0  0  0  2  0  0  0  0  0  0
  187.6350  177.3250  145.8900 Cl  0  0  0  0  0  0  0  0  0  0  0  0
  185.4650  178.8290  141.3460 C   0  0  0  0  0  0  0  0  0  0  0  0
  184.3250  179.2880  144.8230 C   0  0  0  0  0  3  0  0  0  0  0  0
  186.5050  178.1400  143.4250 C   0  0  0  0  0  0  0  0  0  0  0  0
  186.4760  178.2730  140.6040 C   0  0  0  0  0  0  0  0  0  0  0  0
  184.2550  179.2380  138.2830 O   0  0  0  0  0  0  0  0  0  0  0  0
  186.1380  178.3700  139.2910 N   0  0  0  0  0  0  0  0  0  0  0  0
  187.6720  177.7430  135.9600 C   0  0  0  0  0  2  0  0  0  0  0  0
  189.1350  179.1230  138.9050 C   0  0  0  0  0  1  0  0  0  0  0  0
  184.3690  179.3520  143.4350 C   0  0  0  0  0  3  0  0  0  0  0  0
  185.4420  178.7890  142.7360 C   0  0  0  0  0  0  0  0  0  0  0  0
  188.9600  177.6240  139.1420 C   0  0  2  0  0  3  0  0  0  0  0  0
  190.7450  175.8710  143.2680 O   0  0  0  0  0  0  0  0  0  0  0  0
  191.4640  176.5890  145.4370 C   0  0  0  0  0  1  0  0  0  0  0  0
  191.7580  176.5940  143.9520 C   0  0  0  0  0  2  0  0  0  0  0  0
  1  5  1  0  0  0  0
  1 19  1  0  0  0  0
  2 13  1  0  0  0  0
  2 16  1  0  0  0  0
  3 17  1  0  0  0  0
  4  1  2  0  0  0  0
  6  8  2  0  0  0  0
  7 15  1  6  0  0  0
  7 27  1  0  0  0  0
  8 11  1  0  0  0  0
  9 14  1  6  0  0  0
  9  7  1  0  0  0  0
  9 22  1  0  0  0  0
 10  3  1  0  0  0  0
 11 28  1  0  0  0  0
 11  5  2  0  0  0  0
 12  8  1  0  0  0  0
 12  4  1  0  0  0  0
 17 26  1  0  0  0  0
 18 13  2  0  0  0  0
 19  2  2  0  0  0  0
 20  4  1  0  0  0  0
 20 17  2  0  0  0  0
 21 10  2  0  0  0  0
 22 10  1  0  0  0  0
 22 20  1  0  0  0  0
 23 15  1  0  0  0  0
 23 14  1  0  0  0  0
 25 18  1  0  0  0  0
 26 19  1  0  0  0  0
 26 25  2  0  0  0  0
 27 24  1  1  0  0  0
 27 12  1  0  0  0  0
 28 30  1  0  0  0  0
 30 29  1  0  0  0  0
M  END
>  <MODEL>
4

>  <REMARK>
 VINA RESULT:      -8.8      2.348      5.730
  Name = 
  2 active torsions:
  status: ('A' for Active; 'I' for Inactive)
    1  A    between atoms: C_11  and  O_28
    2  A    between atoms: O_28  and  C_30
                            x       y       z     vdW  Elec       q    Type
                         _______ _______ _______ _____ _____    ______ ____

>  <TORSDO>
F 2

$$$$
=
 OpenBabel11122410283D

 30 35  0  0  1  0  0  0  0  0999 V2000
  185.8530  178.3700  142.2270 C   0  0  0  0  0  0  0  0  0  0  0  0
  186.5540  178.3220  144.6500 C   0  0  0  0  0  0  0  0  0  0  0  0
  181.9020  178.8160  143.2900 N   0  0  0  0  0  2  0  0  0  0  0  0
  184.8180  178.5140  141.2490 C   0  0  0  0  0  0  0  0  0  0  0  0
  187.1260  178.1940  141.7920 N   0  0  0  0  0  0  0  0  0  0  0  0
  186.7800  178.4530  138.3050 O   0  0  0  0  0  0  0  0  0  0  0  0
  183.1000  177.9960  138.7180 C   0  0  1  0  0  3  0  0  0  0  0  0
  186.4640  178.4140  139.5260 C   0  0  0  0  0  0  0  0  0  0  0  0
  181.9570  178.1420  139.7050 C   0  0  2  0  0  3  0  0  0  0  0  0
  181.3810  178.7340  142.0490 C   0  0  0  0  0  0  0  0  0  0  0  0
  187.4550  178.1870  140.4780 C   0  0  0  0  0  0  0  0  0  0  0  0
  185.1660  178.6060  139.9190 N   0  0  0  0  0  0  0  0  0  0  0  0
  186.1860  178.4180  145.9960 C   0  0  0  0  0  3  0  0  0  0  0  0
  180.9390  179.0320  139.0230 C   0  0  0  0  0  2  0  0  0  0  0  0
  182.4700  178.1550  137.3440 C   0  0  0  0  0  2  0  0  0  0  0  0
  188.2720  178.0570  144.3650 Cl  0  0  0  0  0  0  0  0  0  0  0  0
  183.2240  178.7260  143.0630 C   0  0  0  0  0  0  0  0  0  0  0  0
  184.8620  178.6230  146.3660 C   0  0  0  0  0  3  0  0  0  0  0  0
  185.5650  178.4370  143.6280 C   0  0  0  0  0  0  0  0  0  0  0  0
  183.4880  178.6210  141.7210 C   0  0  0  0  0  0  0  0  0  0  0  0
  180.1380  178.7160  141.8440 O   0  0  0  0  0  0  0  0  0  0  0  0
  182.3020  178.6140  141.0570 N   0  0  0  0  0  0  0  0  0  0  0  0
  181.0680  178.7100  137.5490 C   0  0  0  0  0  2  0  0  0  0  0  0
  183.7840  180.4710  139.0440 C   0  0  0  0  0  1  0  0  0  0  0  0
  183.8790  178.7340  145.3890 C   0  0  0  0  0  3  0  0  0  0  0  0
  184.2160  178.6450  144.0340 C   0  0  0  0  0  0  0  0  0  0  0  0
  184.2170  179.0150  138.8860 C   0  0  2  0  0  3  0  0  0  0  0  0
  188.7770  177.9790  140.0750 O   0  0  0  0  0  0  0  0  0  0  0  0
  191.0070  177.1070  140.1550 C   0  0  0  0  0  1  0  0  0  0  0  0
  189.7470  177.4090  140.9400 C   0  0  0  0  0  2  0  0  0  0  0  0
  1 19  1  0  0  0  0
  2 13  1  0  0  0  0
  4 20  1  0  0  0  0
  4  1  2  0  0  0  0
  5  1  1  0  0  0  0
  6  8  2  0  0  0  0
  7 15  1  6  0  0  0
  7 27  1  0  0  0  0
  7  9  1  0  0  0  0
  8 12  1  0  0  0  0
  8 11  1  0  0  0  0
  9 14  1  6  0  0  0
  9 22  1  0  0  0  0
 10  3  1  0  0  0  0
 11  5  2  0  0  0  0
 12  4  1  0  0  0  0
 13 18  2  0  0  0  0
 15 23  1  0  0  0  0
 16  2  1  0  0  0  0
 17  3  1  0  0  0  0
 17 26  1  0  0  0  0
 19 26  1  0  0  0  0
 19  2  2  0  0  0  0
 20 17  2  0  0  0  0
 21 10  2  0  0  0  0
 22 20  1  0  0  0  0
 22 10  1  0  0  0  0
 23 14  1  0  0  0  0
 25 18  1  0  0  0  0
 26 25  2  0  0  0  0
 27 24  1  1  0  0  0
 27 12  1  0  0  0  0
 28 11  1  0  0  0  0
 28 30  1  0  0  0  0
 29 30  1  0  0  0  0
M  END
>  <MODEL>
5

>  <REMARK>
 VINA RESULT:      -8.5      3.007      6.211
  Name = 
  2 active torsions:
  status: ('A' for Active; 'I' for Inactive)
    1  A    between atoms: C_11  and  O_28
    2  A    between atoms: O_28  and  C_30
                            x       y       z     vdW  Elec       q    Type
                         _______ _______ _______ _____ _____    ______ ____

>  <TORSDO>
F 2

$$$$
=
 OpenBabel11122410283D

 30 35  0  0  1  0  0  0  0  0999 V2000
  188.0270  177.9830  141.8860 C   0  0  0  0  0  0  0  0  0  0  0  0
  188.8920  177.6280  144.2300 C   0  0  0  0  0  0  0  0  0  0  0  0
  191.5740  176.6480  140.2820 N   0  0  0  0  0  2  0  0  0  0  0  0
  188.2250  177.8790  140.4730 C   0  0  0  0  0  0  0  0  0  0  0  0
  186.8400  178.4650  142.3320 N   0  0  0  0  0  0  0  0  0  0  0  0
  185.0310  178.9090  139.3520 O   0  0  0  0  0  0  0  0  0  0  0  0
  188.2360  178.6280  137.4620 C   0  0  1  0  0  3  0  0  0  0  0  0
  185.9890  178.6280  140.1260 C   0  0  0  0  0  0  0  0  0  0  0  0
  189.6490  178.0780  137.5330 C   0  0  2  0  0  3  0  0  0  0  0  0
  191.2840  176.9050  138.9900 C   0  0  0  0  0  0  0  0  0  0  0  0
  185.8310  178.8110  141.4970 C   0  0  0  0  0  0  0  0  0  0  0  0
  187.1670  178.1360  139.6290 N   0  0  0  0  0  0  0  0  0  0  0  0
  189.9240  177.1820  145.0600 C   0  0  0  0  0  3  0  0  0  0  0  0
  189.8060  177.1950  136.3120 C   0  0  0  0  0  2  0  0  0  0  0  0
  187.8900  178.6620  135.9820 C   0  0  0  0  0  2  0  0  0  0  0  0
  187.4710  178.2390  145.0710 Cl  0  0  0  0  0  0  0  0  0  0  0  0
  190.4450  177.0100  140.9170 C   0  0  0  0  0  0  0  0  0  0  0  0
  191.1070  176.6780  144.5290 C   0  0  0  0  0  3  0  0  0  0  0  0
  189.0380  177.5670  142.8110 C   0  0  0  0  0  0  0  0  0  0  0  0
  189.4970  177.4460  140.0260 C   0  0  0  0  0  0  0  0  0  0  0  0
  192.1330  176.7530  138.0710 O   0  0  0  0  0  0  0  0  0  0  0  0
  190.0330  177.3920  138.7780 N   0  0  0  0  0  0  0  0  0  0  0  0
  188.9440  177.8440  135.2500 C   0  0  0  0  0  2  0  0  0  0  0  0
  187.2340  176.2950  137.9690 C   0  0  0  0  0  1  0  0  0  0  0  0
  191.2750  176.6140  143.1510 C   0  0  0  0  0  3  0  0  0  0  0  0
  190.2590  177.0480  142.2940 C   0  0  0  0  0  0  0  0  0  0  0  0
  187.1970  177.8030  138.2070 C   0  0  2  0  0  3  0  0  0  0  0  0
  184.6320  179.3250  142.0000 O   0  0  0  0  0  0  0  0  0  0  0  0
  183.9510  179.3460  144.2970 C   0  0  0  0  0  1  0  0  0  0  0  0
  183.8610  178.6280  142.9670 C   0  0  0  0  0  2  0  0  0  0  0  0
  1  5  1  0  0  0  0
  1 19  1  0  0  0  0
  2 13  1  0  0  0  0
  2 16  1  0  0  0  0
  3 17  1  0  0  0  0
  4  1  2  0  0  0  0
  6  8  2  0  0  0  0
  7 15  1  6  0  0  0
  7  9  1  0  0  0  0
  7 27  1  0  0  0  0
  8 11  1  0  0  0  0
  9 14  1  6  0  0  0
  9 22  1  0  0  0  0
 10  3  1  0  0  0  0
 11 28  1  0  0  0  0
 11  5  2  0  0  0  0
 12  8  1  0  0  0  0
 12  4  1  0  0  0  0
 17 26  1  0  0  0  0
 18 13  2  0  0  0  0
 19  2  2  0  0  0  0
 20  4  1  0  0  0  0
 20 17  2  0  0  0  0
 21 10  2  0  0  0  0
 22 10  1  0  0  0  0
 22 20  1  0  0  0  0
 23 15  1  0  0  0  0
 23 14  1  0  0  0  0
 25 18  1  0  0  0  0
 26 19  1  0  0  0  0
 26 25  2  0  0  0  0
 27 24  1  1  0  0  0
 27 12  1  0  0  0  0
 28 30  1  0  0  0  0
 30 29  1  0  0  0  0
M  END
>  <MODEL>
6

>  <REMARK>
 VINA RESULT:      -8.4      2.412      6.651
  Name = 
  2 active torsions:
  status: ('A' for Active; 'I' for Inactive)
    1  A    between atoms: C_11  and  O_28
    2  A    between atoms: O_28  and  C_30
                            x       y       z     vdW  Elec       q    Type
                         _______ _______ _______ _____ _____    ______ ____

>  <TORSDO>
F 2

$$$$
=
 OpenBabel11122410283D

 30 35  0  0  1  0  0  0  0  0999 V2000
  187.9360  178.0860  140.7400 C   0  0  0  0  0  0  0  0  0  0  0  0
  190.1650  177.5680  139.6770 C   0  0  0  0  0  0  0  0  0  0  0  0
  189.5080  177.5440  144.5040 N   0  0  0  0  0  2  0  0  0  0  0  0
  187.1520  178.2790  141.9210 C   0  0  0  0  0  0  0  0  0  0  0  0
  187.3330  178.2520  139.5360 N   0  0  0  0  0  0  0  0  0  0  0  0
  184.1020  179.2960  140.4440 O   0  0  0  0  0  0  0  0  0  0  0  0
  184.7800  178.1020  143.9130 C   0  0  1  0  0  3  0  0  0  0  0  0
  185.2960  178.9020  140.5610 C   0  0  0  0  0  0  0  0  0  0  0  0
  185.8900  177.7950  144.9010 C   0  0  2  0  0  3  0  0  0  0  0  0
  188.3550  177.6790  145.1920 C   0  0  0  0  0  0  0  0  0  0  0  0
  186.0370  178.6280  139.4140 C   0  0  0  0  0  0  0  0  0  0  0  0
  185.8660  178.7560  141.7980 N   0  0  0  0  0  0  0  0  0  0  0  0
  191.5190  177.2630  139.8450 C   0  0  0  0  0  3  0  0  0  0  0  0
  185.5880  178.6290  146.1290 C   0  0  0  0  0  2  0  0  0  0  0  0
  183.5770  178.4800  144.7620 C   0  0  0  0  0  2  0  0  0  0  0  0
  189.6320  177.6920  138.0030 Cl  0  0  0  0  0  0  0  0  0  0  0  0
  189.1210  177.7500  143.2340 C   0  0  0  0  0  0  0  0  0  0  0  0
  192.0740  177.1300  141.1130 C   0  0  0  0  0  3  0  0  0  0  0  0
  189.3270  177.7530  140.8170 C   0  0  0  0  0  0  0  0  0  0  0  0
  187.7800  178.0280  143.1650 C   0  0  0  0  0  0  0  0  0  0  0  0
  188.2920  177.4900  146.4360 O   0  0  0  0  0  0  0  0  0  0  0  0
  187.2720  177.9730  144.4250 N   0  0  0  0  0  0  0  0  0  0  0  0
  184.0770  178.7080  146.1810 C   0  0  0  0  0  2  0  0  0  0  0  0
  185.6810  180.5020  143.5500 C   0  0  0  0  0  1  0  0  0  0  0  0
  191.2770  177.3010  142.2390 C   0  0  0  0  0  3  0  0  0  0  0  0
  189.9200  177.6110  142.1040 C   0  0  0  0  0  0  0  0  0  0  0  0
  185.0910  179.2310  142.9420 C   0  0  2  0  0  3  0  0  0  0  0  0
  185.4500  178.7650  138.1530 O   0  0  0  0  0  0  0  0  0  0  0  0
  186.0630  177.4560  136.2420 C   0  0  0  0  0  1  0  0  0  0  0  0
  185.0720  177.6400  137.3720 C   0  0  0  0  0  2  0  0  0  0  0  0
  1 19  2  0  0  0  0
  1  4  1  0  0  0  0
  2 13  2  0  0  0  0
  2 19  1  0  0  0  0
  3 10  1  0  0  0  0
  4 20  2  0  0  0  0
  5  1  1  0  0  0  0
  6  8  2  0  0  0  0
  7 15  1  1  0  0  0
  7  9  1  0  0  0  0
  8 12  1  0  0  0  0
  9 14  1  1  0  0  0
 10 21  2  0  0  0  0
 11  5  2  0  0  0  0
 11  8  1  0  0  0  0
 12  4  1  0  0  0  0
 12 27  1  0  0  0  0
 13 18  1  0  0  0  0
 14 23  1  0  0  0  0
 15 23  1  0  0  0  0
 16  2  1  0  0  0  0
 17  3  1  0  0  0  0
 18 25  2  0  0  0  0
 19 26  1  0  0  0  0
 20 17  1  0  0  0  0
 20 22  1  0  0  0  0
 22  9  1  0  0  0  0
 22 10  1  0  0  0  0
 26 25  1  0  0  0  0
 26 17  2  0  0  0  0
 27 24  1  1  0  0  0
 27  7  1  0  0  0  0
 28 11  1  0  0  0  0
 29 30  1  0  0  0  0
 30 28  1  0  0  0  0
M  END
>  <MODEL>
7

>  <REMARK>
 VINA RESULT:      -8.3      2.169      5.064
  Name = 
  2 active torsions:
  status: ('A' for Active; 'I' for Inactive)
    1  A    between atoms: C_11  and  O_28
    2  A    between atoms: O_28  and  C_30
                            x       y       z     vdW  Elec       q    Type
                         _______ _______ _______ _____ _____    ______ ____

>  <TORSDO>
F 2

$$$$
=
 OpenBabel11122410283D

 30 35  0  0  1  0  0  0  0  0999 V2000
  186.6530  178.2350  141.8250 C   0  0  0  0  0  0  0  0  0  0  0  0
  186.7100  178.0270  144.3390 C   0  0  0  0  0  0  0  0  0  0  0  0
  190.5610  176.9730  141.5470 N   0  0  0  0  0  2  0  0  0  0  0  0
  187.3070  178.0720  140.5630 C   0  0  0  0  0  0  0  0  0  0  0  0
  185.3740  178.6880  141.8310 N   0  0  0  0  0  0  0  0  0  0  0  0
  184.6340  178.9150  138.4030 O   0  0  0  0  0  0  0  0  0  0  0  0
  188.2870  178.6770  137.6820 C   0  0  1  0  0  3  0  0  0  0  0  0
  185.2910  178.7110  139.4610 C   0  0  0  0  0  0  0  0  0  0  0  0
  189.6110  178.1910  138.2420 C   0  0  2  0  0  3  0  0  0  0  0  0
  190.7050  177.1560  140.2190 C   0  0  0  0  0  0  0  0  0  0  0  0
  184.6880  178.9520  140.6930 C   0  0  0  0  0  0  0  0  0  0  0  0
  186.5780  178.2450  139.4070 N   0  0  0  0  0  0  0  0  0  0  0  0
  187.4230  177.6650  145.4860 C   0  0  0  0  0  3  0  0  0  0  0  0
  190.1800  177.2570  137.1930 C   0  0  0  0  0  2  0  0  0  0  0  0
  188.4450  178.6270  136.1710 C   0  0  0  0  0  2  0  0  0  0  0  0
  185.0770  178.6180  144.6340 Cl  0  0  0  0  0  0  0  0  0  0  0  0
  189.2780  177.3180  141.7560 C   0  0  0  0  0  0  0  0  0  0  0  0
  188.7260  177.1860  145.4000 C   0  0  0  0  0  3  0  0  0  0  0  0
  187.3150  177.9060  143.0520 C   0  0  0  0  0  0  0  0  0  0  0  0
  188.6650  177.6710  140.5810 C   0  0  0  0  0  0  0  0  0  0  0  0
  191.8110  176.9960  139.6370 O   0  0  0  0  0  0  0  0  0  0  0  0
  189.5820  177.5810  139.5820 N   0  0  0  0  0  0  0  0  0  0  0  0
  189.7000  177.8200  135.8720 C   0  0  0  0  0  2  0  0  0  0  0  0
  187.2300  176.3320  137.9690 C   0  0  0  0  0  1  0  0  0  0  0  0
  189.3380  177.0630  144.1580 C   0  0  0  0  0  3  0  0  0  0  0  0
  188.6490  177.4140  142.9930 C   0  0  0  0  0  0  0  0  0  0  0  0
  187.0810  177.8470  138.0940 C   0  0  2  0  0  3  0  0  0  0  0  0
  183.3790  179.4390  140.7470 O   0  0  0  0  0  0  0  0  0  0  0  0
  181.8870  179.0030  142.5710 C   0  0  0  0  0  1  0  0  0  0  0  0
  182.2890  178.6280  141.1600 C   0  0  0  0  0  2  0  0  0  0  0  0
  1  5  1  0  0  0  0
  1 19  1  0  0  0  0
  2 16  1  0  0  0  0
  2 13  1  0  0  0  0
  3 17  1  0  0  0  0
  4 20  1  0  0  0  0
  4  1  2  0  0  0  0
  6  8  2  0  0  0  0
  7 15  1  6  0  0  0
  7 27  1  0  0  0  0
  7  9  1  0  0  0  0
  8 11  1  0  0  0  0
  9 14  1  6  0  0  0
  9 22  1  0  0  0  0
 10  3  1  0  0  0  0
 11 28  1  0  0  0  0
 11  5  2  0  0  0  0
 12  8  1  0  0  0  0
 12  4  1  0  0  0  0
 17 26  1  0  0  0  0
 18 13  2  0  0  0  0
 19  2  2  0  0  0  0
 20 17  2  0  0  0  0
 21 10  2  0  0  0  0
 22 10  1  0  0  0  0
 22 20  1  0  0  0  0
 23 15  1  0  0  0  0
 23 14  1  0  0  0  0
 25 18  1  0  0  0  0
 26 19  1  0  0  0  0
 26 25  2  0  0  0  0
 27 24  1  1  0  0  0
 27 12  1  0  0  0  0
 28 30  1  0  0  0  0
 30 29  1  0  0  0  0
M  END
>  <MODEL>
8

>  <REMARK>
 VINA RESULT:      -8.2      2.512      5.812
  Name = 
  2 active torsions:
  status: ('A' for Active; 'I' for Inactive)
    1  A    between atoms: C_11  and  O_28
    2  A    between atoms: O_28  and  C_30
                            x       y       z     vdW  Elec       q    Type
                         _______ _______ _______ _____ _____    ______ ____

>  <TORSDO>
F 2

$$$$
=
 OpenBabel11122410283D

 30 35  0  0  1  0  0  0  0  0999 V2000
  186.0780  178.0960  142.8750 C   0  0  0  0  0  0  0  0  0  0  0  0
  183.7700  178.7010  142.0510 C   0  0  0  0  0  0  0  0  0  0  0  0
  187.6270  178.4760  139.0820 N   0  0  0  0  0  2  0  0  0  0  0  0
  187.4710  177.9130  142.6060 C   0  0  0  0  0  0  0  0  0  0  0  0
  185.6420  177.9190  144.1480 N   0  0  0  0  0  0  0  0  0  0  0  0
  188.6270  177.2840  145.8910 O   0  0  0  0  0  0  0  0  0  0  0  0
  190.3060  176.6530  142.6190 C   0  0  1  0  0  3  0  0  0  0  0  0
  187.8450  177.5230  144.9280 C   0  0  0  0  0  0  0  0  0  0  0  0
  190.2280  176.9470  141.1320 C   0  0  2  0  0  3  0  0  0  0  0  0
  188.8750  178.0510  139.3640 C   0  0  0  0  0  0  0  0  0  0  0  0
  186.4770  177.6160  145.1710 C   0  0  0  0  0  0  0  0  0  0  0  0
  188.3320  177.7020  143.6610 N   0  0  0  0  0  0  0  0  0  0  0  0
  182.9550  179.0960  140.9860 C   0  0  0  0  0  3  0  0  0  0  0  0
  191.5650  177.5590  140.7660 C   0  0  0  0  0  2  0  0  0  0  0  0
  191.7800  176.4200  142.9070 C   0  0  0  0  0  2  0  0  0  0  0  0
  182.9410  178.5110  143.5930 Cl  0  0  0  0  0  0  0  0  0  0  0  0
  187.0220  178.4380  140.2820 C   0  0  0  0  0  0  0  0  0  0  0  0
  183.4770  179.2800  139.7110 C   0  0  0  0  0  3  0  0  0  0  0  0
  185.1660  178.4830  141.8410 C   0  0  0  0  0  0  0  0  0  0  0  0
  187.8920  178.0270  141.2590 C   0  0  0  0  0  0  0  0  0  0  0  0
  189.7450  177.8850  138.4670 O   0  0  0  0  0  0  0  0  0  0  0  0
  189.0910  177.7640  140.6750 N   0  0  0  0  0  0  0  0  0  0  0  0
  192.5620  176.8960  141.6910 C   0  0  0  0  0  2  0  0  0  0  0  0
  190.2670  179.1790  143.1860 C   0  0  0  0  0  1  0  0  0  0  0  0
  184.8320  179.0690  139.4800 C   0  0  0  0  0  3  0  0  0  0  0  0
  185.6740  178.6770  140.5260 C   0  0  0  0  0  0  0  0  0  0  0  0
  189.7840  177.7680  143.5130 C   0  0  2  0  0  3  0  0  0  0  0  0
  185.9810  177.4200  146.4630 O   0  0  0  0  0  0  0  0  0  0  0  0
  186.1210  179.6240  147.3910 C   0  0  0  0  0  1  0  0  0  0  0  0
  185.2380  178.4200  147.1440 C   0  0  0  0  0  2  0  0  0  0  0  0
  1  5  1  0  0  0  0
  2 16  1  0  0  0  0
  3 10  1  0  0  0  0
  3 17  1  0  0  0  0
  4  1  1  0  0  0  0
  4 12  1  0  0  0  0
  5 11  2  0  0  0  0
  7 15  1  1  0  0  0
  7 27  1  0  0  0  0
  8 11  1  0  0  0  0
  8  6  2  0  0  0  0
  9 14  1  1  0  0  0
  9  7  1  0  0  0  0
 10 22  1  0  0  0  0
 11 28  1  0  0  0  0
 12  8  1  0  0  0  0
 13  2  2  0  0  0  0
 14 23  1  0  0  0  0
 17 26  2  0  0  0  0
 17 20  1  0  0  0  0
 18 13  1  0  0  0  0
 19  2  1  0  0  0  0
 19  1  2  0  0  0  0
 20  4  2  0  0  0  0
 21 10  2  0  0  0  0
 22  9  1  0  0  0  0
 22 20  1  0  0  0  0
 23 15  1  0  0  0  0
 25 18  2  0  0  0  0
 25 26  1  0  0  0  0
 26 19  1  0  0  0  0
 27 24  1  6  0  0  0
 27 12  1  0  0  0  0
 28 30  1  0  0  0  0
 30 29  1  0  0  0  0
M  END
>  <MODEL>
9

>  <REMARK>
 VINA RESULT:      -8.2      1.805      5.042
  Name = 
  2 active torsions:
  status: ('A' for Active; 'I' for Inactive)
    1  A    between atoms: C_11  and  O_28
    2  A    between atoms: O_28  and  C_30
                            x       y       z     vdW  Elec       q    Type
                         _______ _______ _______ _____ _____    ______ ____

>  <TORSDO>
F 2

$$$$
