=
 OpenBabel11122410473D

 32 37  0  0  1  0  0  0  0  0999 V2000
  188.9560  177.2210  141.8780 C   0  0  0  0  0  0  0  0  0  0  0  0
  184.5630  178.6780  140.6960 C   0  0  0  0  0  3  0  0  0  0  0  0
  184.2840  179.1260  142.0830 C   0  0  0  0  0  3  0  0  0  0  0  0
  189.4740  176.7900  144.2230 C   0  0  0  0  0  0  0  0  0  0  0  0
  189.0550  176.8950  145.5500 C   0  0  0  0  0  0  0  0  0  0  0  0
  190.7680  176.8240  140.1370 C   0  0  2  0  0  3  0  0  0  0  0  0
  188.8190  178.3260  139.6380 C   0  0  0  0  0  2  0  0  0  0  0  0
  187.7660  177.3890  147.3900 C   0  0  1  0  0  3  0  0  0  0  0  0
  185.8110  178.3980  140.3000 C   0  0  0  0  0  3  0  0  0  0  0  0
  188.1610  177.8790  140.8650 N   0  0  0  0  0  0  0  0  0  0  0  0
  186.9720  178.6520  141.2310 C   0  0  2  0  0  3  0  0  0  0  0  0
  187.4040  177.9730  143.5850 C   0  0  0  0  0  0  0  0  0  0  0  0
  189.0320  176.7780  147.8600 N   0  0  0  0  0  0  0  0  0  0  0  0
  189.7530  177.2550  139.0650 C   0  0  2  0  0  3  0  0  0  0  0  0
  189.7550  176.4640  146.6930 N   0  0  0  0  0  0  0  0  0  0  0  0
  185.2230  179.0370  143.0300 C   0  0  0  0  0  3  0  0  0  0  0  0
  186.5700  178.5130  142.6770 C   0  0  0  0  0  0  0  0  0  0  0  0
  187.0360  178.0110  144.9550 C   0  0  0  0  0  3  0  0  0  0  0  0
  190.0590  176.3040  141.3920 C   0  0  0  0  0  2  0  0  0  0  0  0
  190.7090  176.2020  143.9670 O   0  0  0  0  0  1  0  0  0  0  0  0
  187.5820  178.7660  147.9970 C   0  0  0  0  0  1  0  0  0  0  0  0
  188.6370  177.3360  143.1990 C   0  0  0  0  0  0  0  0  0  0  0  0
  187.8900  177.4630  145.9020 C   0  0  0  0  0  0  0  0  0  0  0  0
  187.9270  176.4210  137.6860 O   0  0  0  0  0  0  0  0  0  0  0  0
  188.9770  176.0430  138.5470 C   0  0  1  0  0  3  0  0  0  0  0  0
  189.1160  175.9780  137.0810 C   0  0  1  0  0  3  0  0  0  0  0  0
  188.9920  174.5800  136.6650 N   0  0  0  0  0  2  0  0  0  0  0  0
  190.1020  173.8180  136.1890 C   0  0  0  0  0  0  0  0  0  0  0  0
  191.4950  174.3510  136.2280 C   0  0  0  0  0  1  0  0  0  0  0  0
  189.9060  172.6620  135.7290 O   0  0  0  0  0  0  0  0  0  0  0  0
  193.1700  177.5410  140.2230 C   0  0  0  0  0  1  0  0  0  0  0  0
  191.7350  177.9430  140.5270 C   0  0  0  0  0  2  0  0  0  0  0  0
  1 22  2  0  0  0  0
  2  3  1  0  0  0  0
  3 16  2  0  0  0  0
  4  5  2  0  0  0  0
  5 23  1  0  0  0  0
  5 15  1  0  0  0  0
  6 32  1  1  0  0  0
  6 19  1  0  0  0  0
  7 10  1  0  0  0  0
  8 13  1  0  0  0  0
  8 21  1  1  0  0  0
  9  2  2  0  0  0  0
 10 11  1  0  0  0  0
 10  1  1  0  0  0  0
 11  9  1  6  0  0  0
 11 17  1  0  0  0  0
 12 18  1  0  0  0  0
 14  7  1  1  0  0  0
 14  6  1  0  0  0  0
 15 13  2  0  0  0  0
 17 16  1  0  0  0  0
 17 12  2  0  0  0  0
 18 23  2  0  0  0  0
 19  1  1  0  0  0  0
 20  4  1  0  0  0  0
 22 12  1  0  0  0  0
 22  4  1  0  0  0  0
 23  8  1  0  0  0  0
 25 24  1  6  0  0  0
 25 14  1  0  0  0  0
 26 27  1  1  0  0  0
 26 24  1  0  0  0  0
 26 25  1  0  0  0  0
 28 29  1  0  0  0  0
 28 27  1  0  0  0  0
 30 28  2  0  0  0  0
 31 32  1  0  0  0  0
M  END
>  <MODEL>
1

>  <REMARK>
 VINA RESULT:      -8.0      0.000      0.000
  Name = 
  3 active torsions:
  status: ('A' for Active; 'I' for Inactive)
    1  A    between atoms: C_7  and  C_19
    2  A    between atoms: C_10  and  C_17
    3  A    between atoms: C_20  and  N_29
                            x       y       z     vdW  Elec       q    Type
                         _______ _______ _______ _____ _____    ______ ____

>  <TORSDO>
F 3

$$$$
=
 OpenBabel11122410473D

 32 37  0  0  1  0  0  0  0  0999 V2000
  188.8580  177.2170  141.2800 C   0  0  0  0  0  0  0  0  0  0  0  0
  184.9270  178.5390  138.9080 C   0  0  0  0  0  3  0  0  0  0  0  0
  184.3160  179.1050  140.1360 C   0  0  0  0  0  3  0  0  0  0  0  0
  188.7630  176.9970  143.7080 C   0  0  0  0  0  0  0  0  0  0  0  0
  188.0250  177.2160  144.8730 C   0  0  0  0  0  0  0  0  0  0  0  0
  191.0430  176.6800  140.0920 C   0  0  2  0  0  3  0  0  0  0  0  0
  189.3060  178.1200  138.9910 C   0  0  0  0  0  2  0  0  0  0  0  0
  186.3230  177.8610  146.2780 C   0  0  1  0  0  3  0  0  0  0  0  0
  186.2290  178.2330  138.8650 C   0  0  0  0  0  3  0  0  0  0  0  0
  188.3530  177.7790  140.0460 N   0  0  0  0  0  0  0  0  0  0  0  0
  187.1240  178.5740  140.0330 C   0  0  2  0  0  3  0  0  0  0  0  0
  186.9390  178.1070  142.4700 C   0  0  0  0  0  0  0  0  0  0  0  0
  187.4200  177.3020  147.1040 N   0  0  0  0  0  0  0  0  0  0  0  0
  190.3360  177.0090  138.7650 C   0  0  2  0  0  3  0  0  0  0  0  0
  188.4080  176.8910  146.1880 N   0  0  0  0  0  0  0  0  0  0  0  0
  184.9850  179.1060  141.2940 C   0  0  0  0  0  3  0  0  0  0  0  0
  186.3690  178.5610  141.3380 C   0  0  0  0  0  0  0  0  0  0  0  0
  186.2390  178.2630  143.6950 C   0  0  0  0  0  3  0  0  0  0  0  0
  190.0330  176.2680  141.1680 C   0  0  0  0  0  2  0  0  0  0  0  0
  190.0120  176.3960  143.8230 O   0  0  0  0  0  1  0  0  0  0  0  0
  186.0160  179.2860  146.6980 C   0  0  0  0  0  1  0  0  0  0  0  0
  188.2190  177.4460  142.4630 C   0  0  0  0  0  0  0  0  0  0  0  0
  186.8190  177.8050  144.8690 C   0  0  0  0  0  0  0  0  0  0  0  0
  188.8250  176.0570  137.1100 O   0  0  0  0  0  0  0  0  0  0  0  0
  189.6960  175.7520  138.1760 C   0  0  1  0  0  3  0  0  0  0  0  0
  190.1150  175.6160  136.7700 C   0  0  1  0  0  3  0  0  0  0  0  0
  190.0980  174.1960  136.4150 N   0  0  0  0  0  2  0  0  0  0  0  0
  191.2040  173.5470  135.7870 C   0  0  0  0  0  0  0  0  0  0  0  0
  192.5110  174.2380  135.5880 C   0  0  0  0  0  1  0  0  0  0  0  0
  191.0800  172.3570  135.3950 O   0  0  0  0  0  0  0  0  0  0  0  0
  193.3650  177.6070  140.2840 C   0  0  0  0  0  1  0  0  0  0  0  0
  191.8980  177.8340  140.6140 C   0  0  0  0  0  2  0  0  0  0  0  0
  1 22  2  0  0  0  0
  2  3  1  0  0  0  0
  3 16  2  0  0  0  0
  4 20  1  0  0  0  0
  4  5  2  0  0  0  0
  5 15  1  0  0  0  0
  6 32  1  1  0  0  0
  6 19  1  0  0  0  0
  7 10  1  0  0  0  0
  8 21  1  1  0  0  0
  8 13  1  0  0  0  0
  9  2  2  0  0  0  0
 10  1  1  0  0  0  0
 11  9  1  6  0  0  0
 11 10  1  0  0  0  0
 11 17  1  0  0  0  0
 12 18  1  0  0  0  0
 14  7  1  1  0  0  0
 14  6  1  0  0  0  0
 15 13  2  0  0  0  0
 16 17  1  0  0  0  0
 17 12  2  0  0  0  0
 18 23  2  0  0  0  0
 19  1  1  0  0  0  0
 22 12  1  0  0  0  0
 22  4  1  0  0  0  0
 23  5  1  0  0  0  0
 23  8  1  0  0  0  0
 25 24  1  6  0  0  0
 25 14  1  0  0  0  0
 26 27  1  6  0  0  0
 26 24  1  0  0  0  0
 26 25  1  0  0  0  0
 28 27  1  0  0  0  0
 29 28  1  0  0  0  0
 30 28  2  0  0  0  0
 31 32  1  0  0  0  0
M  END
>  <MODEL>
2

>  <REMARK>
 VINA RESULT:      -8.0      1.068      1.261
  Name = 
  3 active torsions:
  status: ('A' for Active; 'I' for Inactive)
    1  A    between atoms: C_7  and  C_19
    2  A    between atoms: C_10  and  C_17
    3  A    between atoms: C_20  and  N_29
                            x       y       z     vdW  Elec       q    Type
                         _______ _______ _______ _____ _____    ______ ____

>  <TORSDO>
F 3

$$$$
=
 OpenBabel11122410473D

 32 37  0  0  1  0  0  0  0  0999 V2000
  182.5630  178.6400  141.2940 C   0  0  0  0  0  0  0  0  0  0  0  0
  186.1870  178.7910  138.1840 C   0  0  0  0  0  3  0  0  0  0  0  0
  187.1680  178.4220  139.2340 C   0  0  0  0  0  3  0  0  0  0  0  0
  183.0390  178.8000  143.6820 C   0  0  0  0  0  0  0  0  0  0  0  0
  184.0150  178.8030  144.6800 C   0  0  0  0  0  0  0  0  0  0  0  0
  180.1390  178.4520  140.5440 C   0  0  2  0  0  3  0  0  0  0  0  0
  182.0070  177.7140  139.0380 C   0  0  0  0  0  2  0  0  0  0  0  0
  186.0670  178.7200  145.7150 C   0  0  1  0  0  3  0  0  0  0  0  0
  184.8720  178.6430  138.3880 C   0  0  0  0  0  3  0  0  0  0  0  0
  182.9790  178.3200  139.9460 N   0  0  0  0  0  0  0  0  0  0  0  0
  184.3730  177.9840  139.6520 C   0  0  2  0  0  3  0  0  0  0  0  0
  184.8550  178.4060  142.0570 C   0  0  0  0  0  0  0  0  0  0  0  0
  185.0250  178.8530  146.7610 N   0  0  0  0  0  0  0  0  0  0  0  0
  180.6500  178.4220  139.0930 C   0  0  2  0  0  3  0  0  0  0  0  0
  183.8020  178.9380  146.0660 N   0  0  0  0  0  0  0  0  0  0  0  0
  186.7670  178.1600  140.4820 C   0  0  0  0  0  3  0  0  0  0  0  0
  185.3160  178.2070  140.8080 C   0  0  0  0  0  0  0  0  0  0  0  0
  185.7860  178.4550  143.1270 C   0  0  0  0  0  3  0  0  0  0  0  0
  181.1460  179.1440  141.4700 C   0  0  0  0  0  2  0  0  0  0  0  0
  181.7080  178.9430  144.0600 O   0  0  0  0  0  1  0  0  0  0  0  0
  186.8920  177.4690  145.9420 C   0  0  0  0  0  1  0  0  0  0  0  0
  183.4530  178.6000  142.3260 C   0  0  0  0  0  0  0  0  0  0  0  0
  185.3230  178.6530  144.4200 C   0  0  0  0  0  0  0  0  0  0  0  0
  181.4720  179.8870  137.3310 O   0  0  0  0  0  0  0  0  0  0  0  0
  180.7250  179.8400  138.5250 C   0  0  1  0  0  3  0  0  0  0  0  0
  180.0730  179.8610  137.2040 C   0  0  1  0  0  3  0  0  0  0  0  0
  179.5510  181.2070  136.9650 N   0  0  0  0  0  2  0  0  0  0  0  0
  179.8020  181.9260  135.7580 C   0  0  0  0  0  0  0  0  0  0  0  0
  180.4880  181.2930  134.5940 C   0  0  0  0  0  1  0  0  0  0  0  0
  179.4320  183.1270  135.6650 O   0  0  0  0  0  0  0  0  0  0  0  0
  178.9310  176.2950  140.1240 C   0  0  0  0  0  1  0  0  0  0  0  0
  179.8180  177.0610  141.0920 C   0  0  0  0  0  2  0  0  0  0  0  0
  1 19  1  0  0  0  0
  1 22  2  0  0  0  0
  2  9  2  0  0  0  0
  2  3  1  0  0  0  0
  3 16  2  0  0  0  0
  4 20  1  0  0  0  0
  4  5  2  0  0  0  0
  5 15  1  0  0  0  0
  6 32  1  1  0  0  0
  6 19  1  0  0  0  0
  7 10  1  0  0  0  0
  8 21  1  1  0  0  0
  8 13  1  0  0  0  0
 10  1  1  0  0  0  0
 11  9  1  6  0  0  0
 11 10  1  0  0  0  0
 11 17  1  0  0  0  0
 12 22  1  0  0  0  0
 12 18  1  0  0  0  0
 14  7  1  1  0  0  0
 14  6  1  0  0  0  0
 15 13  2  0  0  0  0
 16 17  1  0  0  0  0
 17 12  2  0  0  0  0
 18 23  2  0  0  0  0
 22  4  1  0  0  0  0
 23  5  1  0  0  0  0
 23  8  1  0  0  0  0
 25 24  1  6  0  0  0
 25 14  1  0  0  0  0
 26 27  1  1  0  0  0
 26 24  1  0  0  0  0
 26 25  1  0  0  0  0
 28 27  1  0  0  0  0
 29 28  1  0  0  0  0
 30 28  2  0  0  0  0
 31 32  1  0  0  0  0
M  END
>  <MODEL>
3

>  <REMARK>
 VINA RESULT:      -7.2      4.920      7.970
  Name = 
  3 active torsions:
  status: ('A' for Active; 'I' for Inactive)
    1  A    between atoms: C_7  and  C_19
    2  A    between atoms: C_10  and  C_17
    3  A    between atoms: C_20  and  N_29
                            x       y       z     vdW  Elec       q    Type
                         _______ _______ _______ _____ _____    ______ ____

>  <TORSDO>
F 3

$$$$
=
 OpenBabel11122410473D

 32 37  0  0  1  0  0  0  0  0999 V2000
  187.1130  177.7560  139.4020 C   0  0  0  0  0  0  0  0  0  0  0  0
  183.4480  178.5210  142.3690 C   0  0  0  0  0  3  0  0  0  0  0  0
  184.3560  178.9600  143.4570 C   0  0  0  0  0  3  0  0  0  0  0  0
  189.3520  177.4670  140.3290 C   0  0  0  0  0  0  0  0  0  0  0  0
  190.1670  177.5450  141.4600 C   0  0  0  0  0  0  0  0  0  0  0  0
  186.8060  177.5820  136.8820 C   0  0  2  0  0  3  0  0  0  0  0  0
  185.1080  178.7690  138.3020 C   0  0  0  0  0  2  0  0  0  0  0  0
  190.8470  177.8930  143.6290 C   0  0  1  0  0  3  0  0  0  0  0  0
  183.8850  178.4170  141.1080 C   0  0  0  0  0  3  0  0  0  0  0  0
  185.7630  178.2630  139.5070 N   0  0  0  0  0  0  0  0  0  0  0  0
  185.2830  178.8620  140.7540 C   0  0  2  0  0  3  0  0  0  0  0  0
  187.5060  178.3170  141.7300 C   0  0  0  0  0  0  0  0  0  0  0  0
  192.0290  177.4870  142.8310 N   0  0  0  0  0  0  0  0  0  0  0  0
  185.3040  177.8320  137.1060 C   0  0  2  0  0  3  0  0  0  0  0  0
  191.5420  177.2520  141.5300 N   0  0  0  0  0  0  0  0  0  0  0  0
  185.6760  179.0350  143.2570 C   0  0  0  0  0  3  0  0  0  0  0  0
  186.2310  178.7050  141.9160 C   0  0  0  0  0  0  0  0  0  0  0  0
  188.3930  178.3360  142.8380 C   0  0  0  0  0  3  0  0  0  0  0  0
  187.4610  176.9980  138.1380 C   0  0  0  0  0  2  0  0  0  0  0  0
  189.9270  177.0600  139.1290 O   0  0  0  0  0  1  0  0  0  0  0  0
  191.0820  179.2440  144.2760 C   0  0  0  0  0  1  0  0  0  0  0  0
  187.9810  177.8580  140.4490 C   0  0  0  0  0  0  0  0  0  0  0  0
  189.7120  177.9450  142.6570 C   0  0  0  0  0  0  0  0  0  0  0  0
  183.2390  176.7020  137.7300 O   0  0  0  0  0  0  0  0  0  0  0  0
  184.5670  176.5060  137.2960 C   0  0  1  0  0  3  0  0  0  0  0  0
  183.4290  176.4530  136.3600 C   0  0  1  0  0  3  0  0  0  0  0  0
  183.1510  175.0510  136.0460 N   0  0  0  0  0  2  0  0  0  0  0  0
  181.8360  174.5730  135.7620 C   0  0  0  0  0  0  0  0  0  0  0  0
  180.6780  175.5010  135.6150 C   0  0  0  0  0  1  0  0  0  0  0  0
  181.6450  173.3350  135.6240 O   0  0  0  0  0  0  0  0  0  0  0  0
  189.0590  178.5760  136.4030 C   0  0  0  0  0  1  0  0  0  0  0  0
  187.5620  178.8410  136.4540 C   0  0  0  0  0  2  0  0  0  0  0  0
  1 10  1  0  0  0  0
  1 22  2  0  0  0  0
  2  3  1  0  0  0  0
  4 22  1  0  0  0  0
  4  5  2  0  0  0  0
  5 15  1  0  0  0  0
  5 23  1  0  0  0  0
  6 32  1  1  0  0  0
  6 14  1  0  0  0  0
  6 19  1  0  0  0  0
  7 10  1  0  0  0  0
  8 21  1  6  0  0  0
  9  2  2  0  0  0  0
 10 11  1  0  0  0  0
 11  9  1  1  0  0  0
 11 17  1  0  0  0  0
 12 17  2  0  0  0  0
 12 18  1  0  0  0  0
 13  8  1  0  0  0  0
 14 25  1  0  0  0  0
 14  7  1  1  0  0  0
 15 13  2  0  0  0  0
 16  3  2  0  0  0  0
 17 16  1  0  0  0  0
 19  1  1  0  0  0  0
 20  4  1  0  0  0  0
 22 12  1  0  0  0  0
 23 18  2  0  0  0  0
 23  8  1  0  0  0  0
 25 24  1  1  0  0  0
 26 27  1  1  0  0  0
 26 25  1  0  0  0  0
 26 24  1  0  0  0  0
 28 27  1  0  0  0  0
 29 28  1  0  0  0  0
 30 28  2  0  0  0  0
 31 32  1  0  0  0  0
M  END
>  <MODEL>
4

>  <REMARK>
 VINA RESULT:      -7.0      3.385      4.867
  Name = 
  3 active torsions:
  status: ('A' for Active; 'I' for Inactive)
    1  A    between atoms: C_7  and  C_19
    2  A    between atoms: C_10  and  C_17
    3  A    between atoms: C_20  and  N_29
                            x       y       z     vdW  Elec       q    Type
                         _______ _______ _______ _____ _____    ______ ____

>  <TORSDO>
F 3

$$$$
=
 OpenBabel11122410473D

 32 37  0  0  1  0  0  0  0  0999 V2000
  189.4030  176.9910  138.5190 C   0  0  0  0  0  0  0  0  0  0  0  0
  192.0310  177.6830  142.4480 C   0  0  0  0  0  3  0  0  0  0  0  0
  190.8240  177.9540  143.2680 C   0  0  0  0  0  3  0  0  0  0  0  0
  187.1310  177.8780  138.4370 C   0  0  0  0  0  0  0  0  0  0  0  0
  186.0820  178.4690  139.1440 C   0  0  0  0  0  0  0  0  0  0  0  0
  190.3100  175.7740  136.4780 C   0  0  2  0  0  3  0  0  0  0  0  0
  191.3340  175.4170  138.7420 C   0  0  0  0  0  2  0  0  0  0  0  0
  184.8640  179.3780  140.8690 C   0  0  1  0  0  3  0  0  0  0  0  0
  191.9290  177.1280  141.2350 C   0  0  0  0  0  3  0  0  0  0  0  0
  190.5480  176.5300  139.2730 N   0  0  0  0  0  0  0  0  0  0  0  0
  190.5860  176.6570  140.7310 C   0  0  2  0  0  3  0  0  0  0  0  0
  188.3740  177.7850  140.5690 C   0  0  0  0  0  0  0  0  0  0  0  0
  184.0150  179.3740  139.6540 N   0  0  0  0  0  0  0  0  0  0  0  0
  191.6280  175.5820  137.2480 C   0  0  2  0  0  3  0  0  0  0  0  0
  184.8270  178.8460  138.6300 N   0  0  0  0  0  0  0  0  0  0  0  0
  189.6020  177.8720  142.7320 C   0  0  0  0  0  3  0  0  0  0  0  0
  189.4550  177.4720  141.3060 C   0  0  0  0  0  0  0  0  0  0  0  0
  187.2750  178.4180  141.2050 C   0  0  0  0  0  3  0  0  0  0  0  0
  189.5290  176.9800  137.0100 C   0  0  0  0  0  2  0  0  0  0  0  0
  186.9500  177.6200  137.0820 O   0  0  0  0  0  1  0  0  0  0  0  0
  184.1960  178.5980  141.9860 C   0  0  0  0  0  1  0  0  0  0  0  0
  188.3180  177.5210  139.1530 C   0  0  0  0  0  0  0  0  0  0  0  0
  186.1520  178.7400  140.4570 C   0  0  0  0  0  0  0  0  0  0  0  0
  193.6540  176.7720  137.8900 O   0  0  0  0  0  0  0  0  0  0  0  0
  192.5750  176.7530  136.9820 C   0  0  1  0  0  3  0  0  0  0  0  0
  193.9020  176.2220  136.6210 C   0  0  1  0  0  3  0  0  0  0  0  0
  194.5730  177.1950  135.7590 N   0  0  0  0  0  2  0  0  0  0  0  0
  195.8790  176.9780  135.2240 C   0  0  0  0  0  0  0  0  0  0  0  0
  196.5860  175.6750  135.3840 C   0  0  0  0  0  1  0  0  0  0  0  0
  196.4510  177.9070  134.5940 O   0  0  0  0  0  0  0  0  0  0  0  0
  188.2320  174.7010  135.5700 C   0  0  0  0  0  1  0  0  0  0  0  0
  189.4150  174.5340  136.5110 C   0  0  0  0  0  2  0  0  0  0  0  0
  1 22  2  0  0  0  0
  1 10  1  0  0  0  0
  2  3  1  0  0  0  0
  4  5  2  0  0  0  0
  4 22  1  0  0  0  0
  5 23  1  0  0  0  0
  6 32  1  1  0  0  0
  6 19  1  0  0  0  0
  6 14  1  0  0  0  0
  7 10  1  0  0  0  0
  8 21  1  1  0  0  0
  9  2  2  0  0  0  0
 10 11  1  0  0  0  0
 11  9  1  6  0  0  0
 11 17  1  0  0  0  0
 12 18  1  0  0  0  0
 12 17  2  0  0  0  0
 13  8  1  0  0  0  0
 14  7  1  1  0  0  0
 15  5  1  0  0  0  0
 15 13  2  0  0  0  0
 16  3  2  0  0  0  0
 17 16  1  0  0  0  0
 19  1  1  0  0  0  0
 20  4  1  0  0  0  0
 22 12  1  0  0  0  0
 23  8  1  0  0  0  0
 23 18  2  0  0  0  0
 25 14  1  0  0  0  0
 25 24  1  1  0  0  0
 26 27  1  6  0  0  0
 26 25  1  0  0  0  0
 26 24  1  0  0  0  0
 28 29  1  0  0  0  0
 28 27  1  0  0  0  0
 30 28  2  0  0  0  0
 31 32  1  0  0  0  0
M  END
>  <MODEL>
5

>  <REMARK>
 VINA RESULT:      -6.9      3.357      5.985
  Name = 
  3 active torsions:
  status: ('A' for Active; 'I' for Inactive)
    1  A    between atoms: C_7  and  C_19
    2  A    between atoms: C_10  and  C_17
    3  A    between atoms: C_20  and  N_29
                            x       y       z     vdW  Elec       q    Type
                         _______ _______ _______ _____ _____    ______ ____

>  <TORSDO>
F 3

$$$$
=
 OpenBabel11122410473D

 32 37  0  0  1  0  0  0  0  0999 V2000
  188.7110  177.4810  141.7560 C   0  0  0  0  0  0  0  0  0  0  0  0
  186.1690  177.9910  137.7430 C   0  0  0  0  0  3  0  0  0  0  0  0
  185.0350  178.6010  138.4800 C   0  0  0  0  0  3  0  0  0  0  0  0
  187.5570  177.5170  143.9060 C   0  0  0  0  0  0  0  0  0  0  0  0
  186.3630  177.7610  144.5860 C   0  0  0  0  0  0  0  0  0  0  0  0
  191.2290  177.1150  141.7300 C   0  0  2  0  0  3  0  0  0  0  0  0
  190.0670  178.1790  139.7740 C   0  0  0  0  0  2  0  0  0  0  0  0
  184.1710  178.3210  144.9980 C   0  0  1  0  0  3  0  0  0  0  0  0
  187.3720  177.8610  138.3160 C   0  0  0  0  0  3  0  0  0  0  0  0
  188.7720  177.8300  140.3540 N   0  0  0  0  0  0  0  0  0  0  0  0
  187.6240  178.4450  139.6850 C   0  0  2  0  0  3  0  0  0  0  0  0
  186.4040  178.2280  141.8430 C   0  0  0  0  0  0  0  0  0  0  0  0
  184.8210  178.0080  146.2930 N   0  0  0  0  0  0  0  0  0  0  0  0
  191.1670  177.1990  140.1950 C   0  0  2  0  0  3  0  0  0  0  0  0
  186.1410  177.6370  145.9710 N   0  0  0  0  0  0  0  0  0  0  0  0
  185.1140  178.8190  139.7970 C   0  0  0  0  0  3  0  0  0  0  0  0
  186.3680  178.4740  140.5200 C   0  0  0  0  0  0  0  0  0  0  0  0
  185.2210  178.4210  142.6040 C   0  0  0  0  0  3  0  0  0  0  0  0
  189.8770  176.6920  142.3140 C   0  0  0  0  0  2  0  0  0  0  0  0
  188.6640  177.1070  144.6430 O   0  0  0  0  0  1  0  0  0  0  0  0
  183.6060  179.7280  145.0120 C   0  0  0  0  0  1  0  0  0  0  0  0
  187.5960  177.7500  142.4940 C   0  0  0  0  0  0  0  0  0  0  0  0
  185.2470  178.1780  143.9690 C   0  0  0  0  0  0  0  0  0  0  0  0
  190.0380  175.8400  138.5200 O   0  0  0  0  0  0  0  0  0  0  0  0
  190.9510  175.8100  139.5940 C   0  0  1  0  0  3  0  0  0  0  0  0
  191.4050  175.8190  138.1920 C   0  0  1  0  0  3  0  0  0  0  0  0
  191.8290  174.4660  137.8320 N   0  0  0  0  0  2  0  0  0  0  0  0
  193.0210  174.2050  137.0900 C   0  0  0  0  0  0  0  0  0  0  0  0
  193.9940  175.2860  136.7630 C   0  0  0  0  0  1  0  0  0  0  0  0
  193.2640  173.0310  136.7040 O   0  0  0  0  0  0  0  0  0  0  0  0
  191.8360  178.2500  143.8830 C   0  0  0  0  0  1  0  0  0  0  0  0
  191.6750  178.4250  142.3810 C   0  0  0  0  0  2  0  0  0  0  0  0
  1 19  1  0  0  0  0
  1 22  2  0  0  0  0
  2  9  2  0  0  0  0
  2  3  1  0  0  0  0
  3 16  2  0  0  0  0
  4  5  2  0  0  0  0
  4 20  1  0  0  0  0
  5 15  1  0  0  0  0
  6 19  1  0  0  0  0
  6 32  1  1  0  0  0
  7 10  1  0  0  0  0
  8 21  1  1  0  0  0
  8 13  1  0  0  0  0
 10  1  1  0  0  0  0
 11  9  1  6  0  0  0
 11 10  1  0  0  0  0
 11 17  1  0  0  0  0
 12 22  1  0  0  0  0
 12 18  1  0  0  0  0
 14  7  1  1  0  0  0
 14  6  1  0  0  0  0
 15 13  2  0  0  0  0
 16 17  1  0  0  0  0
 17 12  2  0  0  0  0
 18 23  2  0  0  0  0
 22  4  1  0  0  0  0
 23  5  1  0  0  0  0
 23  8  1  0  0  0  0
 25 24  1  6  0  0  0
 25 14  1  0  0  0  0
 26 27  1  6  0  0  0
 26 24  1  0  0  0  0
 26 25  1  0  0  0  0
 28 27  1  0  0  0  0
 29 28  1  0  0  0  0
 30 28  2  0  0  0  0
 32 31  1  0  0  0  0
M  END
>  <MODEL>
6

>  <REMARK>
 VINA RESULT:      -6.9      2.092      2.859
  Name = 
  3 active torsions:
  status: ('A' for Active; 'I' for Inactive)
    1  A    between atoms: C_7  and  C_19
    2  A    between atoms: C_10  and  C_17
    3  A    between atoms: C_20  and  N_29
                            x       y       z     vdW  Elec       q    Type
                         _______ _______ _______ _____ _____    ______ ____

>  <TORSDO>
F 3

$$$$
=
 OpenBabel11122410473D

 32 37  0  0  1  0  0  0  0  0999 V2000
  187.4970  177.6220  140.9140 C   0  0  0  0  0  0  0  0  0  0  0  0
  183.0320  178.4840  142.3770 C   0  0  0  0  0  3  0  0  0  0  0  0
  183.4820  178.7320  143.7690 C   0  0  0  0  0  3  0  0  0  0  0  0
  189.1950  177.0310  142.5640 C   0  0  0  0  0  0  0  0  0  0  0  0
  189.5220  176.9270  143.9170 C   0  0  0  0  0  0  0  0  0  0  0  0
  188.1600  177.7040  138.4590 C   0  0  2  0  0  3  0  0  0  0  0  0
  186.1240  178.9230  139.2780 C   0  0  0  0  0  2  0  0  0  0  0  0
  189.3470  177.0110  146.2080 C   0  0  1  0  0  3  0  0  0  0  0  0
  183.9080  178.4490  141.3660 C   0  0  0  0  0  3  0  0  0  0  0  0
  186.2400  178.2500  140.5700 N   0  0  0  0  0  0  0  0  0  0  0  0
  185.3600  178.7820  141.6120 C   0  0  2  0  0  3  0  0  0  0  0  0
  187.0090  177.9330  143.2710 C   0  0  0  0  0  0  0  0  0  0  0  0
  190.7170  176.5620  145.8640 N   0  0  0  0  0  0  0  0  0  0  0  0
  186.7040  178.0820  138.1370 C   0  0  2  0  0  3  0  0  0  0  0  0
  190.7480  176.4930  144.4570 N   0  0  0  0  0  0  0  0  0  0  0  0
  184.7820  178.6920  144.0830 C   0  0  0  0  0  3  0  0  0  0  0  0
  185.7840  178.4280  143.0150 C   0  0  0  0  0  0  0  0  0  0  0  0
  187.4080  177.7660  144.6220 C   0  0  0  0  0  3  0  0  0  0  0  0
  188.2540  176.9490  139.7880 C   0  0  0  0  0  2  0  0  0  0  0  0
  190.1580  176.6760  141.6240 O   0  0  0  0  0  1  0  0  0  0  0  0
  189.3980  178.2700  147.0530 C   0  0  0  0  0  1  0  0  0  0  0  0
  187.9060  177.5440  142.2130 C   0  0  0  0  0  0  0  0  0  0  0  0
  188.6710  177.2620  144.8990 C   0  0  0  0  0  0  0  0  0  0  0  0
  184.4970  177.1170  137.7770 O   0  0  0  0  0  0  0  0  0  0  0  0
  185.8730  176.8240  137.8800 C   0  0  1  0  0  3  0  0  0  0  0  0
  185.2030  176.9530  136.5730 C   0  0  1  0  0  3  0  0  0  0  0  0
  184.9880  175.6130  136.0270 N   0  0  0  0  0  2  0  0  0  0  0  0
  183.9090  175.3050  135.1440 C   0  0  0  0  0  0  0  0  0  0  0  0
  183.0160  176.3670  134.5960 C   0  0  0  0  0  1  0  0  0  0  0  0
  183.7050  174.1080  134.8100 O   0  0  0  0  0  0  0  0  0  0  0  0
  189.1540  179.5890  137.1340 C   0  0  0  0  0  1  0  0  0  0  0  0
  189.0950  178.9140  138.4960 C   0  0  0  0  0  2  0  0  0  0  0  0
  1 22  2  0  0  0  0
  2  3  1  0  0  0  0
  3 16  2  0  0  0  0
  4  5  2  0  0  0  0
  5 15  1  0  0  0  0
  5 23  1  0  0  0  0
  6 32  1  1  0  0  0
  6 19  1  0  0  0  0
  7 10  1  0  0  0  0
  8 21  1  1  0  0  0
  9  2  2  0  0  0  0
 10  1  1  0  0  0  0
 10 11  1  0  0  0  0
 11  9  1  6  0  0  0
 11 17  1  0  0  0  0
 12 18  1  0  0  0  0
 13  8  1  0  0  0  0
 14  6  1  0  0  0  0
 14  7  1  1  0  0  0
 15 13  2  0  0  0  0
 17 12  2  0  0  0  0
 17 16  1  0  0  0  0
 18 23  2  0  0  0  0
 19  1  1  0  0  0  0
 20  4  1  0  0  0  0
 22  4  1  0  0  0  0
 22 12  1  0  0  0  0
 23  8  1  0  0  0  0
 25 24  1  1  0  0  0
 25 14  1  0  0  0  0
 26 27  1  1  0  0  0
 26 24  1  0  0  0  0
 26 25  1  0  0  0  0
 28 27  1  0  0  0  0
 29 28  1  0  0  0  0
 30 28  2  0  0  0  0
 31 32  1  0  0  0  0
M  END
>  <MODEL>
7

>  <REMARK>
 VINA RESULT:      -6.7      2.613      3.346
  Name = 
  3 active torsions:
  status: ('A' for Active; 'I' for Inactive)
    1  A    between atoms: C_7  and  C_19
    2  A    between atoms: C_10  and  C_17
    3  A    between atoms: C_20  and  N_29
                            x       y       z     vdW  Elec       q    Type
                         _______ _______ _______ _____ _____    ______ ____

>  <TORSDO>
F 3

$$$$
=
 OpenBabel11122410473D

 32 37  0  0  1  0  0  0  0  0999 V2000
  182.9950  176.7180  138.8340 C   0  0  0  0  0  0  0  0  0  0  0  0
  186.8840  176.9040  136.0670 C   0  0  0  0  0  3  0  0  0  0  0  0
  186.2600  176.0290  135.0440 C   0  0  0  0  0  3  0  0  0  0  0  0
  181.3940  174.9050  138.5140 C   0  0  0  0  0  0  0  0  0  0  0  0
  180.9900  173.8300  137.7190 C   0  0  0  0  0  0  0  0  0  0  0  0
  182.5570  178.4190  140.6760 C   0  0  2  0  0  3  0  0  0  0  0  0
  184.0830  178.9690  138.7590 C   0  0  0  0  0  2  0  0  0  0  0  0
  180.9290  172.2930  136.0100 C   0  0  1  0  0  3  0  0  0  0  0  0
  186.1480  177.4730  137.0290 C   0  0  0  0  0  3  0  0  0  0  0  0
  184.0480  177.5720  138.3300 N   0  0  0  0  0  0  0  0  0  0  0  0
  184.6450  177.3270  137.0160 C   0  0  0  0  0  0  0  0  0  0  0  0
  183.1630  175.3360  136.8470 C   0  0  0  0  0  0  0  0  0  0  0  0
  179.7790  172.0340  136.9080 N   0  0  0  0  0  0  0  0  0  0  0  0
  183.8700  179.1110  140.2700 C   0  0  2  0  0  3  0  0  0  0  0  0
  179.8950  172.9760  137.9490 N   0  0  0  0  0  0  0  0  0  0  0  0
  185.0030  175.5990  135.1900 C   0  0  0  0  0  2  0  0  0  0  0  0
  184.2150  176.0310  136.3770 C   0  0  0  0  0  0  0  0  0  0  0  0
  182.7090  174.2090  136.1140 C   0  0  0  0  0  3  0  0  0  0  0  0
  182.5630  176.9420  140.2690 C   0  0  0  0  0  2  0  0  0  0  0  0
  180.6590  175.1890  139.6600 O   0  0  0  0  0  1  0  0  0  0  0  0
  180.4500  172.5620  134.5960 C   0  0  0  0  0  1  0  0  0  0  0  0
  182.5100  175.6890  138.0820 C   0  0  0  0  0  0  0  0  0  0  0  0
  181.6210  173.4880  136.5850 C   0  0  0  0  0  0  0  0  0  0  0  0
  186.1330  179.4300  141.1090 O   0  0  0  0  0  0  0  0  0  0  0  0
  185.0430  178.5380  141.0660 C   0  0  1  0  0  3  0  0  0  0  0  0
  185.2940  179.3990  142.2350 C   0  0  1  0  0  3  0  0  0  0  0  0
  185.8830  178.5810  143.2960 N   0  0  0  0  0  2  0  0  0  0  0  0
  185.2750  178.4310  144.5790 C   0  0  0  0  0  0  0  0  0  0  0  0
  183.9180  178.9760  144.8740 C   0  0  0  0  0  1  0  0  0  0  0  0
  185.8950  177.8180  145.4880 O   0  0  0  0  0  0  0  0  0  0  0  0
  180.0510  178.5310  140.7120 C   0  0  0  0  0  1  0  0  0  0  0  0
  181.3190  179.1010  140.0930 C   0  0  0  0  0  2  0  0  0  0  0  0
  1 19  1  0  0  0  0
  2  9  1  0  0  0  0
  3 16  1  0  0  0  0
  3  2  2  0  0  0  0
  4 20  1  0  0  0  0
  5 15  1  0  0  0  0
  5  4  2  0  0  0  0
  6 32  1  6  0  0  0
  8 21  1  6  0  0  0
  8 23  1  0  0  0  0
  8 13  1  0  0  0  0
 10  7  1  0  0  0  0
 10  1  1  0  0  0  0
 11  9  2  0  0  0  0
 11 10  1  0  0  0  0
 12 22  1  0  0  0  0
 13 15  2  0  0  0  0
 14  7  1  6  0  0  0
 14  6  1  0  0  0  0
 14 25  1  0  0  0  0
 16 17  1  0  0  0  0
 17 12  2  0  0  0  0
 17 11  1  0  0  0  0
 18 23  2  0  0  0  0
 18 12  1  0  0  0  0
 19  6  1  0  0  0  0
 22  4  1  0  0  0  0
 22  1  2  0  0  0  0
 23  5  1  0  0  0  0
 24 26  1  0  0  0  0
 25 24  1  6  0  0  0
 25 26  1  0  0  0  0
 26 27  1  1  0  0  0
 27 28  1  0  0  0  0
 28 29  1  0  0  0  0
 28 30  2  0  0  0  0
 32 31  1  0  0  0  0
M  END
>  <MODEL>
8

>  <REMARK>
 VINA RESULT:      -6.3      5.197      9.701
  Name = 
  3 active torsions:
  status: ('A' for Active; 'I' for Inactive)
    1  A    between atoms: C_7  and  C_19
    2  A    between atoms: C_10  and  C_17
    3  A    between atoms: C_20  and  N_29
                            x       y       z     vdW  Elec       q    Type
                         _______ _______ _______ _____ _____    ______ ____

>  <TORSDO>
F 3

$$$$
=
 OpenBabel11122410473D

 32 37  0  0  1  0  0  0  0  0999 V2000
  185.7200  178.0960  139.1350 C   0  0  0  0  0  0  0  0  0  0  0  0
  184.2430  176.6770  134.8190 C   0  0  0  0  0  3  0  0  0  0  0  0
  185.4870  175.9000  134.5940 C   0  0  0  0  0  3  0  0  0  0  0  0
  188.0990  177.9990  139.6680 C   0  0  0  0  0  0  0  0  0  0  0  0
  189.3660  177.5590  139.2800 C   0  0  0  0  0  0  0  0  0  0  0  0
  184.1140  179.0050  140.8870 C   0  0  2  0  0  3  0  0  0  0  0  0
  183.2840  177.5400  139.0250 C   0  0  0  0  0  2  0  0  0  0  0  0
  191.0420  176.5670  138.0580 C   0  0  1  0  0  3  0  0  0  0  0  0
  183.9200  177.1210  136.0400 C   0  0  0  0  0  3  0  0  0  0  0  0
  184.5830  177.6440  138.3630 N   0  0  0  0  0  0  0  0  0  0  0  0
  184.7610  176.7330  137.2320 C   0  0  0  0  0  0  0  0  0  0  0  0
  187.2080  176.8670  137.6630 C   0  0  0  0  0  0  0  0  0  0  0  0
  191.6390  177.1310  139.2920 N   0  0  0  0  0  0  0  0  0  0  0  0
  182.9740  178.7730  139.8800 C   0  0  2  0  0  3  0  0  0  0  0  0
  190.5760  177.7550  139.9730 N   0  0  0  0  0  0  0  0  0  0  0  0
  186.4260  175.8250  135.5430 C   0  0  0  0  0  2  0  0  0  0  0  0
  186.2020  176.5020  136.8480 C   0  0  0  0  0  0  0  0  0  0  0  0
  188.5320  176.4870  137.3240 C   0  0  0  0  0  3  0  0  0  0  0  0
  185.4590  179.1700  140.1700 C   0  0  0  0  0  2  0  0  0  0  0  0
  187.9840  178.7090  140.8600 O   0  0  0  0  0  1  0  0  0  0  0  0
  191.3100  175.0770  137.9710 C   0  0  0  0  0  1  0  0  0  0  0  0
  186.9780  177.6550  138.8480 C   0  0  0  0  0  0  0  0  0  0  0  0
  189.5780  176.8510  138.1590 C   0  0  0  0  0  0  0  0  0  0  0  0
  181.9720  179.7440  137.8850 O   0  0  0  0  0  0  0  0  0  0  0  0
  182.7580  180.0200  139.0230 C   0  0  1  0  0  3  0  0  0  0  0  0
  181.3180  180.3290  138.9820 C   0  0  1  0  0  3  0  0  0  0  0  0
  181.1570  181.7690  138.7800 N   0  0  0  0  0  2  0  0  0  0  0  0
  180.0660  182.3260  138.0470 C   0  0  0  0  0  0  0  0  0  0  0  0
  178.9310  181.4850  137.5680 C   0  0  0  0  0  1  0  0  0  0  0  0
  180.0530  183.5620  137.8010 O   0  0  0  0  0  0  0  0  0  0  0  0
  185.2270  178.2680  143.0110 C   0  0  0  0  0  1  0  0  0  0  0  0
  184.2280  177.8910  141.9280 C   0  0  0  0  0  2  0  0  0  0  0  0
  1 19  1  0  0  0  0
  2  9  1  0  0  0  0
  3  2  2  0  0  0  0
  3 16  1  0  0  0  0
  4 20  1  0  0  0  0
  5  4  2  0  0  0  0
  5 15  1  0  0  0  0
  6 32  1  1  0  0  0
  8 21  1  1  0  0  0
  8 23  1  0  0  0  0
  8 13  1  0  0  0  0
  9 11  2  0  0  0  0
 10  7  1  0  0  0  0
 10  1  1  0  0  0  0
 11 10  1  0  0  0  0
 12 22  1  0  0  0  0
 13 15  2  0  0  0  0
 14  7  1  6  0  0  0
 14  6  1  0  0  0  0
 16 17  1  0  0  0  0
 17 11  1  0  0  0  0
 17 12  2  0  0  0  0
 18 12  1  0  0  0  0
 18 23  2  0  0  0  0
 19  6  1  0  0  0  0
 22  1  2  0  0  0  0
 22  4  1  0  0  0  0
 23  5  1  0  0  0  0
 24 26  1  0  0  0  0
 25 24  1  6  0  0  0
 25 14  1  0  0  0  0
 26 27  1  6  0  0  0
 26 25  1  0  0  0  0
 28 27  1  0  0  0  0
 29 28  1  0  0  0  0
 30 28  2  0  0  0  0
 32 31  1  0  0  0  0
M  END
>  <MODEL>
9

>  <REMARK>
 VINA RESULT:      -6.1      4.083      8.148
  Name = 
  3 active torsions:
  status: ('A' for Active; 'I' for Inactive)
    1  A    between atoms: C_7  and  C_19
    2  A    between atoms: C_10  and  C_17
    3  A    between atoms: C_20  and  N_29
                            x       y       z     vdW  Elec       q    Type
                         _______ _______ _______ _____ _____    ______ ____

>  <TORSDO>
F 3

$$$$
