=
 OpenBabel11122410473D

 32 37  0  0  1  0  0  0  0  0999 V2000
  187.0890  178.1010  141.9880 C   0  0  0  0  0  0  0  0  0  0  0  0
  185.1760  178.3110  146.5420 C   0  0  0  0  0  3  0  0  0  0  0  0
  183.9320  178.6500  146.0120 C   0  0  0  0  0  3  0  0  0  0  0  0
  185.5310  178.5950  140.0060 C   0  0  0  0  0  0  0  0  0  0  0  0
  184.2500  178.9340  139.5900 C   0  0  0  0  0  0  0  0  0  0  0  0
  189.4260  177.5430  141.7690 N   0  0  0  0  0  0  0  0  0  0  0  0
  188.5170  177.6290  143.9810 C   0  0  0  0  0  3  0  0  0  0  0  0
  182.1260  179.4420  139.8350 N   0  0  0  0  0  0  0  0  0  0  0  0
  186.2610  178.0910  145.6900 C   0  0  0  0  0  3  0  0  0  0  0  0
  187.2380  177.9790  143.4210 N   0  0  0  0  0  0  0  0  0  0  0  0
  186.1150  178.2070  144.2960 C   0  0  0  0  0  0  0  0  0  0  0  0
  184.6660  178.6780  142.3040 C   0  0  0  0  0  0  0  0  0  0  0  0
  182.3810  179.4530  138.5320 N   0  0  0  0  0  0  0  0  0  0  0  0
  189.5720  177.3980  143.1950 C   0  0  0  0  0  0  0  0  0  0  0  0
  183.6910  179.1410  138.3400 C   0  0  0  0  0  3  0  0  0  0  0  0
  183.7730  178.7680  144.6300 C   0  0  0  0  0  3  0  0  0  0  0  0
  184.8550  178.5490  143.7640 C   0  0  0  0  0  0  0  0  0  0  0  0
  183.4290  179.0100  141.8180 N   0  0  0  0  0  2  0  0  0  0  0  0
  188.1540  177.8900  141.2070 C   0  0  0  0  0  3  0  0  0  0  0  0
  186.4410  178.4180  139.1520 O   0  0  0  0  0  0  0  0  0  0  0  0
  180.8280  179.7290  140.4220 C   0  0  0  0  0  1  0  0  0  0  0  0
  185.7610  178.4590  141.4090 C   0  0  0  0  0  0  0  0  0  0  0  0
  183.2520  179.1290  140.4820 C   0  0  0  0  0  0  0  0  0  0  0  0
  191.3320  178.1520  144.6240 O   0  0  0  0  0  0  0  0  0  0  0  0
  190.9020  177.0790  143.8160 C   0  0  1  0  0  3  0  0  0  0  0  0
  190.7890  177.0430  145.2940 C   0  0  1  0  0  3  0  0  0  0  0  0
  191.9180  176.2170  145.8770 C   0  0  0  0  0  2  0  0  0  0  0  0
  191.9060  176.3130  147.3610 C   0  0  0  0  0  0  0  0  0  0  0  0
  192.7650  175.6930  148.0410 O   0  0  0  0  0  1  0  0  0  0  0  0
  190.9700  177.1180  147.9970 O   0  0  0  0  0  0  0  0  0  0  0  0
  190.1030  177.5170  139.4260 C   0  0  0  0  0  1  0  0  0  0  0  0
  190.5530  177.3500  140.8660 C   0  0  0  0  0  2  0  0  0  0  0  0
  1 10  1  0  0  0  0
  3  2  1  0  0  0  0
  4 22  1  0  0  0  0
  5  4  1  0  0  0  0
  5 23  2  0  0  0  0
  6 14  1  0  0  0  0
  8 21  1  0  0  0  0
  8 23  1  0  0  0  0
  9  2  2  0  0  0  0
 10  7  1  0  0  0  0
 10 11  1  0  0  0  0
 11  9  1  0  0  0  0
 12 17  1  0  0  0  0
 13  8  1  0  0  0  0
 14  7  2  0  0  0  0
 15 13  2  0  0  0  0
 15  5  1  0  0  0  0
 16  3  2  0  0  0  0
 17 11  2  0  0  0  0
 17 16  1  0  0  0  0
 18 12  1  0  0  0  0
 19  6  1  0  0  0  0
 19  1  2  0  0  0  0
 20  4  2  0  0  0  0
 22  1  1  0  0  0  0
 22 12  2  0  0  0  0
 23 18  1  0  0  0  0
 24 26  1  0  0  0  0
 25 14  1  6  0  0  0
 25 24  1  0  0  0  0
 25 26  1  0  0  0  0
 26 27  1  1  0  0  0
 27 28  1  0  0  0  0
 28 30  2  0  0  0  0
 28 29  1  0  0  0  0
 31 32  1  0  0  0  0
 32  6  1  0  0  0  0
M  END
>  <MODEL>
1

>  <REMARK>
 VINA RESULT:      -9.7      0.000      0.000
  Name = 
  4 active torsions:
  status: ('A' for Active; 'I' for Inactive)
    1  A    between atoms: N_7  and  C_19
    2  A    between atoms: C_10  and  C_17
    3  A    between atoms: C_20  and  C_29
    4  A    between atoms: C_29  and  C_30
                            x       y       z     vdW  Elec       q    Type
                         _______ _______ _______ _____ _____    ______ ____

>  <TORSDO>
F 4

$$$$
=
 OpenBabel11122410473D

 32 37  0  0  1  0  0  0  0  0999 V2000
  188.3550  177.8120  141.4050 C   0  0  0  0  0  0  0  0  0  0  0  0
  191.7400  176.5000  144.7610 C   0  0  0  0  0  3  0  0  0  0  0  0
  190.8130  176.6960  145.7830 C   0  0  0  0  0  3  0  0  0  0  0  0
  186.0130  178.4480  142.2460 C   0  0  0  0  0  0  0  0  0  0  0  0
  185.1750  178.6090  143.3410 C   0  0  0  0  0  0  0  0  0  0  0  0
  189.0100  177.8160  139.0830 N   0  0  0  0  0  0  0  0  0  0  0  0
  190.6600  177.1670  140.6900 C   0  0  0  0  0  3  0  0  0  0  0  0
  184.6220  178.5970  145.4680 N   0  0  0  0  0  0  0  0  0  0  0  0
  191.3710  176.7220  143.4330 C   0  0  0  0  0  3  0  0  0  0  0  0
  189.6930  177.3740  141.7370 N   0  0  0  0  0  0  0  0  0  0  0  0
  190.0690  177.1450  143.1100 C   0  0  0  0  0  0  0  0  0  0  0  0
  187.7580  177.7860  143.8430 C   0  0  0  0  0  0  0  0  0  0  0  0
  183.5470  178.9790  144.7900 N   0  0  0  0  0  0  0  0  0  0  0  0
  190.3360  177.3570  139.4090 C   0  0  0  0  0  0  0  0  0  0  0  0
  183.8510  178.9990  143.4630 C   0  0  0  0  0  3  0  0  0  0  0  0
  189.5180  177.1150  145.4780 C   0  0  0  0  0  3  0  0  0  0  0  0
  189.1350  177.3420  144.1470 C   0  0  0  0  0  0  0  0  0  0  0  0
  186.8720  177.9660  144.8730 N   0  0  0  0  0  2  0  0  0  0  0  0
  188.0440  178.0220  140.1210 C   0  0  0  0  0  3  0  0  0  0  0  0
  185.5790  178.6770  141.0850 O   0  0  0  0  0  0  0  0  0  0  0  0
  184.6760  178.4580  146.9140 C   0  0  0  0  0  1  0  0  0  0  0  0
  187.3530  178.0220  142.4910 C   0  0  0  0  0  0  0  0  0  0  0  0
  185.6110  178.3710  144.6000 C   0  0  0  0  0  0  0  0  0  0  0  0
  192.5790  176.6940  138.9200 O   0  0  0  0  0  0  0  0  0  0  0  0
  191.3830  177.1740  138.3470 C   0  0  1  0  0  3  0  0  0  0  0  0
  191.7820  175.7500  138.2520 C   0  0  1  0  0  3  0  0  0  0  0  0
  192.3840  175.4730  136.8880 C   0  0  0  0  0  2  0  0  0  0  0  0
  193.7490  174.9030  137.0390 C   0  0  0  0  0  0  0  0  0  0  0  0
  193.8980  173.7180  137.4370 O   0  0  0  0  0  1  0  0  0  0  0  0
  194.8610  175.6660  136.7060 O   0  0  0  0  0  0  0  0  0  0  0  0
  187.1060  178.0000  137.5700 C   0  0  0  0  0  1  0  0  0  0  0  0
  188.6150  178.0850  137.7060 C   0  0  0  0  0  2  0  0  0  0  0  0
  1 10  1  0  0  0  0
  1 22  1  0  0  0  0
  2  3  1  0  0  0  0
  4 22  1  0  0  0  0
  4  5  1  0  0  0  0
  5 15  1  0  0  0  0
  5 23  2  0  0  0  0
  6 14  1  0  0  0  0
  6 19  1  0  0  0  0
  7 10  1  0  0  0  0
  8 21  1  0  0  0  0
  9  2  2  0  0  0  0
 10 11  1  0  0  0  0
 11  9  1  0  0  0  0
 11 17  2  0  0  0  0
 12 17  1  0  0  0  0
 12 18  1  0  0  0  0
 13  8  1  0  0  0  0
 14  7  2  0  0  0  0
 15 13  2  0  0  0  0
 16  3  2  0  0  0  0
 17 16  1  0  0  0  0
 19  1  2  0  0  0  0
 20  4  2  0  0  0  0
 22 12  2  0  0  0  0
 23 18  1  0  0  0  0
 23  8  1  0  0  0  0
 25 24  1  0  0  0  0
 25 14  1  1  0  0  0
 26 27  1  6  0  0  0
 26 25  1  0  0  0  0
 26 24  1  0  0  0  0
 27 28  1  0  0  0  0
 28 29  1  0  0  0  0
 30 28  2  0  0  0  0
 31 32  1  0  0  0  0
 32  6  1  0  0  0  0
M  END
>  <MODEL>
2

>  <REMARK>
 VINA RESULT:      -9.6      3.333      5.893
  Name = 
  4 active torsions:
  status: ('A' for Active; 'I' for Inactive)
    1  A    between atoms: N_7  and  C_19
    2  A    between atoms: C_10  and  C_17
    3  A    between atoms: C_20  and  C_29
    4  A    between atoms: C_29  and  C_30
                            x       y       z     vdW  Elec       q    Type
                         _______ _______ _______ _____ _____    ______ ____

>  <TORSDO>
F 4

$$$$
=
 OpenBabel11122410473D

 32 37  0  0  1  0  0  0  0  0999 V2000
  186.6020  178.1490  143.0040 C   0  0  0  0  0  0  0  0  0  0  0  0
  189.8500  177.8240  139.2910 C   0  0  0  0  0  3  0  0  0  0  0  0
  190.8510  177.4590  140.1900 C   0  0  0  0  0  3  0  0  0  0  0  0
  187.4350  177.6300  145.3780 C   0  0  0  0  0  0  0  0  0  0  0  0
  188.5060  177.2580  146.1790 C   0  0  0  0  0  0  0  0  0  0  0  0
  184.3370  178.7890  142.4700 N   0  0  0  0  0  0  0  0  0  0  0  0
  185.8910  178.6260  140.6580 C   0  0  0  0  0  3  0  0  0  0  0  0
  190.5810  176.6840  146.6210 N   0  0  0  0  0  0  0  0  0  0  0  0
  188.5590  178.0830  139.7540 C   0  0  0  0  0  3  0  0  0  0  0  0
  186.9170  178.2510  141.5960 N   0  0  0  0  0  0  0  0  0  0  0  0
  188.2520  177.9810  141.1230 C   0  0  0  0  0  0  0  0  0  0  0  0
  188.9800  177.4950  143.4730 C   0  0  0  0  0  0  0  0  0  0  0  0
  189.9260  176.6950  147.7760 N   0  0  0  0  0  0  0  0  0  0  0  0
  184.6430  178.8680  141.0650 C   0  0  0  0  0  0  0  0  0  0  0  0
  188.6330  177.0470  147.5420 C   0  0  0  0  0  3  0  0  0  0  0  0
  190.5620  177.3540  141.5500 C   0  0  0  0  0  3  0  0  0  0  0  0
  189.2680  177.6120  142.0280 C   0  0  0  0  0  0  0  0  0  0  0  0
  189.9880  177.1320  144.3270 N   0  0  0  0  0  2  0  0  0  0  0  0
  185.3550  178.4140  143.4080 C   0  0  0  0  0  3  0  0  0  0  0  0
  186.3060  177.8410  145.8980 O   0  0  0  0  0  0  0  0  0  0  0  0
  191.9880  176.3520  146.4770 C   0  0  0  0  0  1  0  0  0  0  0  0
  187.6660  177.7570  143.9750 C   0  0  0  0  0  0  0  0  0  0  0  0
  189.7290  177.0230  145.6500 C   0  0  0  0  0  0  0  0  0  0  0  0
  184.2130  180.0540  139.0350 O   0  0  0  0  0  0  0  0  0  0  0  0
  183.6090  179.3000  140.0640 C   0  0  1  0  0  3  0  0  0  0  0  0
  183.9010  178.7180  138.7320 C   0  0  1  0  0  3  0  0  0  0  0  0
  182.6370  178.6830  137.8960 C   0  0  0  0  0  2  0  0  0  0  0  0
  182.5920  177.4330  137.0920 C   0  0  0  0  0  0  0  0  0  0  0  0
  183.0840  177.4100  135.9330 O   0  0  0  0  0  0  0  0  0  0  0  0
  182.0410  176.2790  137.6330 O   0  0  0  0  0  1  0  0  0  0  0  0
  182.9770  178.9480  144.4890 C   0  0  0  0  0  1  0  0  0  0  0  0
  183.0040  179.0880  142.9770 C   0  0  0  0  0  2  0  0  0  0  0  0
  1 19  2  0  0  0  0
  1 22  1  0  0  0  0
  2  9  2  0  0  0  0
  2  3  1  0  0  0  0
  3 16  2  0  0  0  0
  4 20  2  0  0  0  0
  4  5  1  0  0  0  0
  5 15  1  0  0  0  0
  6 32  1  0  0  0  0
  6 19  1  0  0  0  0
  7 14  2  0  0  0  0
  7 10  1  0  0  0  0
  8 13  1  0  0  0  0
  9 11  1  0  0  0  0
 10  1  1  0  0  0  0
 11 10  1  0  0  0  0
 11 17  2  0  0  0  0
 12 22  2  0  0  0  0
 12 18  1  0  0  0  0
 14  6  1  0  0  0  0
 15 13  2  0  0  0  0
 16 17  1  0  0  0  0
 17 12  1  0  0  0  0
 18 23  1  0  0  0  0
 21  8  1  0  0  0  0
 22  4  1  0  0  0  0
 23  5  2  0  0  0  0
 23  8  1  0  0  0  0
 24 25  1  0  0  0  0
 25 14  1  1  0  0  0
 26 27  1  6  0  0  0
 26 24  1  0  0  0  0
 26 25  1  0  0  0  0
 28 30  1  0  0  0  0
 28 27  1  0  0  0  0
 29 28  2  0  0  0  0
 32 31  1  0  0  0  0
M  END
>  <MODEL>
3

>  <REMARK>
 VINA RESULT:      -9.6      2.449      8.709
  Name = 
  4 active torsions:
  status: ('A' for Active; 'I' for Inactive)
    1  A    between atoms: N_7  and  C_19
    2  A    between atoms: C_10  and  C_17
    3  A    between atoms: C_20  and  C_29
    4  A    between atoms: C_29  and  C_30
                            x       y       z     vdW  Elec       q    Type
                         _______ _______ _______ _____ _____    ______ ____

>  <TORSDO>
F 4

$$$$
=
 OpenBabel11122410473D

 32 37  0  0  1  0  0  0  0  0999 V2000
  187.3830  178.0240  141.9740 C   0  0  0  0  0  0  0  0  0  0  0  0
  183.6600  178.9320  145.0970 C   0  0  0  0  0  3  0  0  0  0  0  0
  184.4850  178.6280  146.1790 C   0  0  0  0  0  3  0  0  0  0  0  0
  189.6410  177.3110  142.9700 C   0  0  0  0  0  0  0  0  0  0  0  0
  190.3690  177.0330  144.1190 C   0  0  0  0  0  0  0  0  0  0  0  0
  186.9630  178.2760  139.6110 N   0  0  0  0  0  0  0  0  0  0  0  0
  185.1510  178.7310  141.1060 C   0  0  0  0  0  3  0  0  0  0  0  0
  190.7080  176.8110  146.2800 N   0  0  0  0  0  0  0  0  0  0  0  0
  184.1630  178.8620  143.7960 C   0  0  0  0  0  3  0  0  0  0  0  0
  186.0120  178.4140  142.2160 N   0  0  0  0  0  0  0  0  0  0  0  0
  185.4980  178.4850  143.5610 C   0  0  0  0  0  0  0  0  0  0  0  0
  187.7360  177.7800  144.4470 C   0  0  0  0  0  0  0  0  0  0  0  0
  191.8510  176.5130  145.6740 N   0  0  0  0  0  0  0  0  0  0  0  0
  185.6030  178.6870  139.8510 C   0  0  0  0  0  0  0  0  0  0  0  0
  191.6800  176.6400  144.3300 C   0  0  0  0  0  3  0  0  0  0  0  0
  185.8110  178.2530  145.9610 C   0  0  0  0  0  3  0  0  0  0  0  0
  186.3280  178.1790  144.6590 C   0  0  0  0  0  0  0  0  0  0  0  0
  188.5170  177.4910  145.5350 N   0  0  0  0  0  2  0  0  0  0  0  0
  187.8240  177.9600  140.7120 C   0  0  0  0  0  3  0  0  0  0  0  0
  190.1920  177.2160  141.8410 O   0  0  0  0  0  0  0  0  0  0  0  0
  190.5080  176.7860  147.7190 C   0  0  0  0  0  1  0  0  0  0  0  0
  188.2760  177.6990  143.1250 C   0  0  0  0  0  0  0  0  0  0  0  0
  189.8060  177.1260  145.3460 C   0  0  0  0  0  0  0  0  0  0  0  0
  184.1440  177.7810  138.1890 O   0  0  0  0  0  0  0  0  0  0  0  0
  184.6640  178.9820  138.7160 C   0  0  1  0  0  3  0  0  0  0  0  0
  183.2960  178.5120  139.0390 C   0  0  1  0  0  3  0  0  0  0  0  0
  182.2820  179.2610  138.1980 C   0  0  0  0  0  2  0  0  0  0  0  0
  181.4520  180.1410  139.0640 C   0  0  0  0  0  0  0  0  0  0  0  0
  181.1260  179.7640  140.2190 O   0  0  0  0  0  1  0  0  0  0  0  0
  181.0670  181.3960  138.6110 O   0  0  0  0  0  0  0  0  0  0  0  0
  188.9730  178.5180  138.2510 C   0  0  0  0  0  1  0  0  0  0  0  0
  187.4970  178.1650  138.2600 C   0  0  0  0  0  2  0  0  0  0  0  0
  1 10  1  0  0  0  0
  1 22  1  0  0  0  0
  2  3  1  0  0  0  0
  4 22  1  0  0  0  0
  4  5  1  0  0  0  0
  5 15  1  0  0  0  0
  5 23  2  0  0  0  0
  6 14  1  0  0  0  0
  6 19  1  0  0  0  0
  7 10  1  0  0  0  0
  8 21  1  0  0  0  0
  9  2  2  0  0  0  0
 10 11  1  0  0  0  0
 11  9  1  0  0  0  0
 11 17  2  0  0  0  0
 12 17  1  0  0  0  0
 12 18  1  0  0  0  0
 13  8  1  0  0  0  0
 14  7  2  0  0  0  0
 15 13  2  0  0  0  0
 16  3  2  0  0  0  0
 17 16  1  0  0  0  0
 19  1  2  0  0  0  0
 20  4  2  0  0  0  0
 22 12  2  0  0  0  0
 23 18  1  0  0  0  0
 23  8  1  0  0  0  0
 24 25  1  0  0  0  0
 24 26  1  0  0  0  0
 25 26  1  0  0  0  0
 25 14  1  1  0  0  0
 26 27  1  6  0  0  0
 27 28  1  0  0  0  0
 28 29  1  0  0  0  0
 30 28  2  0  0  0  0
 31 32  1  0  0  0  0
 32  6  1  0  0  0  0
M  END
>  <MODEL>
4

>  <REMARK>
 VINA RESULT:      -9.5      2.483      7.749
  Name = 
  4 active torsions:
  status: ('A' for Active; 'I' for Inactive)
    1  A    between atoms: N_7  and  C_19
    2  A    between atoms: C_10  and  C_17
    3  A    between atoms: C_20  and  C_29
    4  A    between atoms: C_29  and  C_30
                            x       y       z     vdW  Elec       q    Type
                         _______ _______ _______ _____ _____    ______ ____

>  <TORSDO>
F 4

$$$$
=
 OpenBabel11122410473D

 32 37  0  0  1  0  0  0  0  0999 V2000
  189.2870  177.5990  141.9100 C   0  0  0  0  0  0  0  0  0  0  0  0
  184.5180  178.8960  142.0220 C   0  0  0  0  0  3  0  0  0  0  0  0
  184.5170  178.8000  143.4120 C   0  0  0  0  0  3  0  0  0  0  0  0
  190.4570  177.1280  144.1480 C   0  0  0  0  0  0  0  0  0  0  0  0
  190.3410  177.0660  145.5300 C   0  0  0  0  0  0  0  0  0  0  0  0
  190.3660  177.4440  139.7570 N   0  0  0  0  0  0  0  0  0  0  0  0
  188.0610  178.0850  139.7900 C   0  0  0  0  0  3  0  0  0  0  0  0
  189.3190  177.2140  147.4700 N   0  0  0  0  0  0  0  0  0  0  0  0
  185.6860  178.6270  141.3050 C   0  0  0  0  0  3  0  0  0  0  0  0
  188.0720  177.9810  141.2260 N   0  0  0  0  0  0  0  0  0  0  0  0
  186.8690  178.2580  141.9710 C   0  0  0  0  0  0  0  0  0  0  0  0
  188.0890  177.7770  144.1090 C   0  0  0  0  0  0  0  0  0  0  0  0
  190.5730  176.8550  147.7180 N   0  0  0  0  0  0  0  0  0  0  0  0
  189.1630  177.8480  139.0750 C   0  0  0  0  0  0  0  0  0  0  0  0
  191.2400  176.7530  146.5370 C   0  0  0  0  0  3  0  0  0  0  0  0
  185.6830  178.4350  144.0860 C   0  0  0  0  0  3  0  0  0  0  0  0
  186.8630  178.1620  143.3770 C   0  0  0  0  0  0  0  0  0  0  0  0
  188.0510  177.6950  145.4760 N   0  0  0  0  0  2  0  0  0  0  0  0
  190.3830  177.3410  141.1870 C   0  0  0  0  0  3  0  0  0  0  0  0
  191.5610  176.8660  143.5990 O   0  0  0  0  0  0  0  0  0  0  0  0
  188.3050  177.4210  148.4910 C   0  0  0  0  0  1  0  0  0  0  0  0
  189.2990  177.4950  143.3990 C   0  0  0  0  0  0  0  0  0  0  0  0
  189.1700  177.3440  146.1490 C   0  0  0  0  0  0  0  0  0  0  0  0
  189.0600  176.6250  137.0240 O   0  0  0  0  0  0  0  0  0  0  0  0
  189.1020  177.9230  137.5760 C   0  0  1  0  0  3  0  0  0  0  0  0
  187.8420  177.3250  137.0770 C   0  0  1  0  0  3  0  0  0  0  0  0
  187.5250  177.8670  135.6970 C   0  0  0  0  0  2  0  0  0  0  0  0
  186.4960  177.0170  135.0400 C   0  0  0  0  0  0  0  0  0  0  0  0
  185.3720  177.5010  134.7440 O   0  0  0  0  0  1  0  0  0  0  0  0
  186.7880  175.6980  134.7180 O   0  0  0  0  0  0  0  0  0  0  0  0
  192.7920  177.2710  139.9360 C   0  0  0  0  0  1  0  0  0  0  0  0
  191.5860  177.1280  139.0250 C   0  0  0  0  0  2  0  0  0  0  0  0
  1 22  1  0  0  0  0
  2  3  1  0  0  0  0
  3 16  2  0  0  0  0
  4  5  1  0  0  0  0
  5 23  2  0  0  0  0
  5 15  1  0  0  0  0
  6 19  1  0  0  0  0
  7 10  1  0  0  0  0
  8 13  1  0  0  0  0
  8 21  1  0  0  0  0
  9 11  1  0  0  0  0
  9  2  2  0  0  0  0
 10  1  1  0  0  0  0
 10 11  1  0  0  0  0
 11 17  2  0  0  0  0
 12 18  1  0  0  0  0
 14  6  1  0  0  0  0
 14  7  2  0  0  0  0
 15 13  2  0  0  0  0
 17 16  1  0  0  0  0
 17 12  1  0  0  0  0
 18 23  1  0  0  0  0
 19  1  2  0  0  0  0
 20  4  2  0  0  0  0
 22 12  2  0  0  0  0
 22  4  1  0  0  0  0
 23  8  1  0  0  0  0
 24 26  1  0  0  0  0
 24 25  1  0  0  0  0
 25 14  1  1  0  0  0
 26 27  1  6  0  0  0
 26 25  1  0  0  0  0
 28 27  1  0  0  0  0
 29 28  1  0  0  0  0
 30 28  2  0  0  0  0
 32  6  1  0  0  0  0
 32 31  1  0  0  0  0
M  END
>  <MODEL>
5

>  <REMARK>
 VINA RESULT:      -9.4      2.724      7.686
  Name = 
  4 active torsions:
  status: ('A' for Active; 'I' for Inactive)
    1  A    between atoms: N_7  and  C_19
    2  A    between atoms: C_10  and  C_17
    3  A    between atoms: C_20  and  C_29
    4  A    between atoms: C_29  and  C_30
                            x       y       z     vdW  Elec       q    Type
                         _______ _______ _______ _____ _____    ______ ____

>  <TORSDO>
F 4

$$$$
=
 OpenBabel11122410473D

 32 37  0  0  1  0  0  0  0  0999 V2000
  185.1360  178.5270  141.4620 C   0  0  0  0  0  0  0  0  0  0  0  0
  186.5080  178.2860  146.2060 C   0  0  0  0  0  3  0  0  0  0  0  0
  185.1810  178.4330  146.6050 C   0  0  0  0  0  3  0  0  0  0  0  0
  182.6370  178.8190  140.9480 C   0  0  0  0  0  0  0  0  0  0  0  0
  181.3530  178.9570  141.4580 C   0  0  0  0  0  0  0  0  0  0  0  0
  186.8580  178.3640  139.7790 N   0  0  0  0  0  0  0  0  0  0  0  0
  187.5410  178.2340  142.0690 C   0  0  0  0  0  3  0  0  0  0  0  0
  179.8180  179.1060  143.0240 N   0  0  0  0  0  0  0  0  0  0  0  0
  186.8300  178.2710  144.8470 C   0  0  0  0  0  3  0  0  0  0  0  0
  186.1660  178.3870  142.4680 N   0  0  0  0  0  0  0  0  0  0  0  0
  185.8280  178.4030  143.8690 C   0  0  0  0  0  0  0  0  0  0  0  0
  183.4090  178.6920  143.2760 C   0  0  0  0  0  0  0  0  0  0  0  0
  179.1920  179.1970  141.8560 N   0  0  0  0  0  0  0  0  0  0  0  0
  187.8820  178.2020  140.7780 C   0  0  0  0  0  0  0  0  0  0  0  0
  180.1140  179.1080  140.8590 C   0  0  0  0  0  3  0  0  0  0  0  0
  184.1760  178.5650  145.6460 C   0  0  0  0  0  3  0  0  0  0  0  0
  184.4870  178.5510  144.2770 C   0  0  0  0  0  0  0  0  0  0  0  0
  182.1150  178.8320  143.7050 N   0  0  0  0  0  2  0  0  0  0  0  0
  185.4870  178.5160  140.1710 C   0  0  0  0  0  3  0  0  0  0  0  0
  182.8190  178.8190  139.7010 O   0  0  0  0  0  0  0  0  0  0  0  0
  179.1570  179.1590  144.3170 C   0  0  0  0  0  1  0  0  0  0  0  0
  183.7110  178.6810  141.8780 C   0  0  0  0  0  0  0  0  0  0  0  0
  181.1250  178.9610  142.7920 C   0  0  0  0  0  0  0  0  0  0  0  0
  190.0120  177.2640  141.3240 O   0  0  0  0  0  0  0  0  0  0  0  0
  189.3320  178.0850  140.3990 C   0  0  1  0  0  3  0  0  0  0  0  0
  189.6760  176.6770  140.0920 C   0  0  1  0  0  3  0  0  0  0  0  0
  190.9120  176.6280  139.2160 C   0  0  0  0  0  2  0  0  0  0  0  0
  190.7020  175.6750  138.0920 C   0  0  0  0  0  0  0  0  0  0  0  0
  191.3220  174.5800  138.0690 O   0  0  0  0  0  1  0  0  0  0  0  0
  189.7940  175.9790  137.0860 O   0  0  0  0  0  0  0  0  0  0  0  0
  185.9570  177.9970  137.5430 C   0  0  0  0  0  1  0  0  0  0  0  0
  187.1770  178.3840  138.3580 C   0  0  0  0  0  2  0  0  0  0  0  0
  1 22  1  0  0  0  0
  1 10  1  0  0  0  0
  2  3  1  0  0  0  0
  4  5  1  0  0  0  0
  4 22  1  0  0  0  0
  5 23  2  0  0  0  0
  6 19  1  0  0  0  0
  6 14  1  0  0  0  0
  7 10  1  0  0  0  0
  8 21  1  0  0  0  0
  9  2  2  0  0  0  0
 10 11  1  0  0  0  0
 11 17  2  0  0  0  0
 11  9  1  0  0  0  0
 12 18  1  0  0  0  0
 12 17  1  0  0  0  0
 13  8  1  0  0  0  0
 14  7  2  0  0  0  0
 15  5  1  0  0  0  0
 15 13  2  0  0  0  0
 16  3  2  0  0  0  0
 17 16  1  0  0  0  0
 19  1  2  0  0  0  0
 20  4  2  0  0  0  0
 22 12  2  0  0  0  0
 23  8  1  0  0  0  0
 23 18  1  0  0  0  0
 25 14  1  1  0  0  0
 25 24  1  0  0  0  0
 26 27  1  6  0  0  0
 26 25  1  0  0  0  0
 26 24  1  0  0  0  0
 28 27  1  0  0  0  0
 29 28  1  0  0  0  0
 30 28  2  0  0  0  0
 31 32  1  0  0  0  0
 32  6  1  0  0  0  0
M  END
>  <MODEL>
6

>  <REMARK>
 VINA RESULT:      -9.2      3.095      4.449
  Name = 
  4 active torsions:
  status: ('A' for Active; 'I' for Inactive)
    1  A    between atoms: N_7  and  C_19
    2  A    between atoms: C_10  and  C_17
    3  A    between atoms: C_20  and  C_29
    4  A    between atoms: C_29  and  C_30
                            x       y       z     vdW  Elec       q    Type
                         _______ _______ _______ _____ _____    ______ ____

>  <TORSDO>
F 4

$$$$
=
 OpenBabel11122410473D

 32 37  0  0  1  0  0  0  0  0999 V2000
  187.5440  178.1320  142.9040 C   0  0  0  0  0  0  0  0  0  0  0  0
  183.3810  178.8610  145.4690 C   0  0  0  0  0  3  0  0  0  0  0  0
  182.6600  178.9710  144.2820 C   0  0  0  0  0  3  0  0  0  0  0  0
  187.3900  178.1270  140.3390 C   0  0  0  0  0  0  0  0  0  0  0  0
  186.5730  178.2520  139.2240 C   0  0  0  0  0  0  0  0  0  0  0  0
  189.5900  177.8060  144.1400 N   0  0  0  0  0  0  0  0  0  0  0  0
  187.5850  178.1460  145.4010 C   0  0  0  0  0  3  0  0  0  0  0  0
  184.6870  178.5580  138.1370 N   0  0  0  0  0  0  0  0  0  0  0  0
  184.7570  178.6270  145.4300 C   0  0  0  0  0  3  0  0  0  0  0  0
  186.8510  178.2590  144.1670 N   0  0  0  0  0  0  0  0  0  0  0  0
  185.4300  178.5000  144.2010 C   0  0  0  0  0  0  0  0  0  0  0  0
  185.3720  178.4840  141.6940 C   0  0  0  0  0  0  0  0  0  0  0  0
  185.6370  178.3870  137.2260 N   0  0  0  0  0  0  0  0  0  0  0  0
  188.8990  177.9090  145.3990 C   0  0  0  0  0  0  0  0  0  0  0  0
  186.8240  178.1930  137.8630 C   0  0  0  0  0  3  0  0  0  0  0  0
  183.3140  178.8480  143.0550 C   0  0  0  0  0  3  0  0  0  0  0  0
  184.6970  178.6130  143.0030 C   0  0  0  0  0  0  0  0  0  0  0  0
  184.6310  178.5950  140.5480 N   0  0  0  0  0  2  0  0  0  0  0  0
  188.8640  177.9160  142.9090 C   0  0  0  0  0  3  0  0  0  0  0  0
  188.6230  177.9160  140.1930 O   0  0  0  0  0  0  0  0  0  0  0  0
  183.2860  178.7910  137.8300 C   0  0  0  0  0  1  0  0  0  0  0  0
  186.7810  178.2450  141.6260 C   0  0  0  0  0  0  0  0  0  0  0  0
  185.2450  178.4780  139.3480 C   0  0  0  0  0  0  0  0  0  0  0  0
  189.0410  176.8870  147.5550 O   0  0  0  0  0  0  0  0  0  0  0  0
  189.6390  177.8410  146.7050 C   0  0  1  0  0  3  0  0  0  0  0  0
  190.2220  176.4930  146.9020 C   0  0  1  0  0  3  0  0  0  0  0  0
  191.3760  176.5690  147.8820 C   0  0  0  0  0  2  0  0  0  0  0  0
  192.5070  175.7300  147.4030 C   0  0  0  0  0  0  0  0  0  0  0  0
  193.5540  175.6280  148.0940 O   0  0  0  0  0  1  0  0  0  0  0  0
  192.3940  175.0290  146.2090 O   0  0  0  0  0  0  0  0  0  0  0  0
  191.7490  178.9270  143.9680 C   0  0  0  0  0  1  0  0  0  0  0  0
  191.0310  177.5950  144.0780 C   0  0  0  0  0  2  0  0  0  0  0  0
  1 19  2  0  0  0  0
  1 10  1  0  0  0  0
  3  2  2  0  0  0  0
  4 22  1  0  0  0  0
  5 23  2  0  0  0  0
  5  4  1  0  0  0  0
  6 14  1  0  0  0  0
  8 23  1  0  0  0  0
  9  2  1  0  0  0  0
 10 11  1  0  0  0  0
 10  7  1  0  0  0  0
 11  9  2  0  0  0  0
 12 17  1  0  0  0  0
 13 15  2  0  0  0  0
 13  8  1  0  0  0  0
 14  7  2  0  0  0  0
 15  5  1  0  0  0  0
 16  3  1  0  0  0  0
 17 16  2  0  0  0  0
 17 11  1  0  0  0  0
 18 12  1  0  0  0  0
 19  6  1  0  0  0  0
 20  4  2  0  0  0  0
 21  8  1  0  0  0  0
 22 12  2  0  0  0  0
 22  1  1  0  0  0  0
 23 18  1  0  0  0  0
 25 14  1  6  0  0  0
 25 26  1  0  0  0  0
 25 24  1  0  0  0  0
 26 24  1  0  0  0  0
 26 27  1  1  0  0  0
 28 27  1  0  0  0  0
 28 29  1  0  0  0  0
 30 28  2  0  0  0  0
 31 32  1  0  0  0  0
 32  6  1  0  0  0  0
M  END
>  <MODEL>
7

>  <REMARK>
 VINA RESULT:      -8.8      1.780      2.444
  Name = 
  4 active torsions:
  status: ('A' for Active; 'I' for Inactive)
    1  A    between atoms: N_7  and  C_19
    2  A    between atoms: C_10  and  C_17
    3  A    between atoms: C_20  and  C_29
    4  A    between atoms: C_29  and  C_30
                            x       y       z     vdW  Elec       q    Type
                         _______ _______ _______ _____ _____    ______ ____

>  <TORSDO>
F 4

$$$$
=
 OpenBabel11122410473D

 32 37  0  0  1  0  0  0  0  0999 V2000
  185.0740  178.4430  141.7760 C   0  0  0  0  0  0  0  0  0  0  0  0
  185.0620  178.2780  146.7170 C   0  0  0  0  0  3  0  0  0  0  0  0
  186.4400  178.0720  146.7200 C   0  0  0  0  0  3  0  0  0  0  0  0
  187.3230  178.1540  140.5690 C   0  0  0  0  0  0  0  0  0  0  0  0
  188.6910  177.9470  140.6930 C   0  0  0  0  0  0  0  0  0  0  0  0
  182.9660  178.7870  140.6520 N   0  0  0  0  0  0  0  0  0  0  0  0
  182.9410  178.7220  143.0440 C   0  0  0  0  0  3  0  0  0  0  0  0
  190.5880  177.6310  141.7560 N   0  0  0  0  0  0  0  0  0  0  0  0
  184.3820  178.4210  145.5060 C   0  0  0  0  0  3  0  0  0  0  0  0
  184.3650  178.5090  143.0350 N   0  0  0  0  0  0  0  0  0  0  0  0
  185.0720  178.3600  144.2820 C   0  0  0  0  0  0  0  0  0  0  0  0
  187.2230  178.0830  143.0230 C   0  0  0  0  0  0  0  0  0  0  0  0
  190.8660  177.6350  140.4580 N   0  0  0  0  0  0  0  0  0  0  0  0
  182.2610  178.8760  141.9050 C   0  0  0  0  0  0  0  0  0  0  0  0
  189.7120  177.8290  139.7640 C   0  0  0  0  0  3  0  0  0  0  0  0
  187.1390  178.0100  145.5140 C   0  0  0  0  0  3  0  0  0  0  0  0
  186.4660  178.1520  144.2910 C   0  0  0  0  0  0  0  0  0  0  0  0
  188.5770  177.8830  143.0650 N   0  0  0  0  0  2  0  0  0  0  0  0
  184.3840  178.5760  140.6370 C   0  0  0  0  0  3  0  0  0  0  0  0
  186.8070  178.2700  139.4250 O   0  0  0  0  0  0  0  0  0  0  0  0
  191.5740  177.4490  142.8080 C   0  0  0  0  0  1  0  0  0  0  0  0
  186.5510  178.2260  141.7680 C   0  0  0  0  0  0  0  0  0  0  0  0
  189.2740  177.8190  141.9070 C   0  0  0  0  0  0  0  0  0  0  0  0
  180.4080  179.8460  143.0610 O   0  0  0  0  0  0  0  0  0  0  0  0
  180.7700  179.0530  141.9520 C   0  0  1  0  0  3  0  0  0  0  0  0
  180.4120  180.4840  141.8090 C   0  0  1  0  0  3  0  0  0  0  0  0
  178.9840  180.6110  141.3160 C   0  0  0  0  0  2  0  0  0  0  0  0
  178.9640  181.2490  139.9720 C   0  0  0  0  0  0  0  0  0  0  0  0
  178.9330  180.5370  138.9350 O   0  0  0  0  0  0  0  0  0  0  0  0
  178.9410  182.6340  139.8630 O   0  0  0  0  0  1  0  0  0  0  0  0
  182.5840  180.2370  138.7290 C   0  0  0  0  0  1  0  0  0  0  0  0
  182.2700  178.9010  139.3770 C   0  0  0  0  0  2  0  0  0  0  0  0
  1 10  1  0  0  0  0
  2  3  1  0  0  0  0
  4  5  1  0  0  0  0
  4 22  1  0  0  0  0
  5 23  2  0  0  0  0
  6 14  1  0  0  0  0
  8 23  1  0  0  0  0
  8 21  1  0  0  0  0
  9  2  2  0  0  0  0
 10  7  1  0  0  0  0
 10 11  1  0  0  0  0
 11 17  2  0  0  0  0
 11  9  1  0  0  0  0
 12 18  1  0  0  0  0
 12 17  1  0  0  0  0
 13  8  1  0  0  0  0
 14  7  2  0  0  0  0
 15 13  2  0  0  0  0
 15  5  1  0  0  0  0
 16  3  2  0  0  0  0
 17 16  1  0  0  0  0
 19  6  1  0  0  0  0
 19  1  2  0  0  0  0
 20  4  2  0  0  0  0
 22  1  1  0  0  0  0
 22 12  2  0  0  0  0
 23 18  1  0  0  0  0
 25 14  1  1  0  0  0
 25 24  1  0  0  0  0
 26 27  1  6  0  0  0
 26 25  1  0  0  0  0
 26 24  1  0  0  0  0
 28 27  1  0  0  0  0
 29 28  2  0  0  0  0
 30 28  1  0  0  0  0
 31 32  1  0  0  0  0
 32  6  1  0  0  0  0
M  END
>  <MODEL>
8

>  <REMARK>
 VINA RESULT:      -8.7      3.222      8.129
  Name = 
  4 active torsions:
  status: ('A' for Active; 'I' for Inactive)
    1  A    between atoms: N_7  and  C_19
    2  A    between atoms: C_10  and  C_17
    3  A    between atoms: C_20  and  C_29
    4  A    between atoms: C_29  and  C_30
                            x       y       z     vdW  Elec       q    Type
                         _______ _______ _______ _____ _____    ______ ____

>  <TORSDO>
F 4

$$$$
=
 OpenBabel11122410473D

 32 37  0  0  1  0  0  0  0  0999 V2000
  187.6000  177.9230  142.2350 C   0  0  0  0  0  0  0  0  0  0  0  0
  182.9850  179.0590  143.5960 C   0  0  0  0  0  3  0  0  0  0  0  0
  183.3480  178.9560  144.9380 C   0  0  0  0  0  3  0  0  0  0  0  0
  189.3250  177.4820  144.0870 C   0  0  0  0  0  0  0  0  0  0  0  0
  189.5730  177.4090  145.4510 C   0  0  0  0  0  0  0  0  0  0  0  0
  188.0870  177.8160  139.8740 N   0  0  0  0  0  0  0  0  0  0  0  0
  185.8510  178.3780  140.5120 C   0  0  0  0  0  3  0  0  0  0  0  0
  189.0850  177.5130  147.5910 N   0  0  0  0  0  0  0  0  0  0  0  0
  183.9350  178.8330  142.5980 C   0  0  0  0  0  3  0  0  0  0  0  0
  186.2380  178.2680  141.8940 N   0  0  0  0  0  0  0  0  0  0  0  0
  185.2610  178.5000  142.9290 C   0  0  0  0  0  0  0  0  0  0  0  0
  187.0080  178.0510  144.6710 C   0  0  0  0  0  0  0  0  0  0  0  0
  190.3710  177.1950  147.5010 N   0  0  0  0  0  0  0  0  0  0  0  0
  186.7370  178.1820  139.5330 C   0  0  0  0  0  0  0  0  0  0  0  0
  190.7120  177.1220  146.1850 C   0  0  0  0  0  3  0  0  0  0  0  0
  184.6600  178.6270  145.2820 C   0  0  0  0  0  3  0  0  0  0  0  0
  185.6230  178.3980  144.2880 C   0  0  0  0  0  0  0  0  0  0  0  0
  187.3290  177.9610  146.0000 N   0  0  0  0  0  2  0  0  0  0  0  0
  188.4780  177.7060  141.2490 C   0  0  0  0  0  3  0  0  0  0  0  0
  190.2560  177.2590  143.2670 O   0  0  0  0  0  0  0  0  0  0  0  0
  188.3660  177.6810  148.8420 C   0  0  0  0  0  1  0  0  0  0  0  0
  188.0010  177.8130  143.6690 C   0  0  0  0  0  0  0  0  0  0  0  0
  188.5950  177.6440  146.3560 C   0  0  0  0  0  0  0  0  0  0  0  0
  186.4810  177.0210  137.4600 O   0  0  0  0  0  0  0  0  0  0  0  0
  186.2870  178.2620  138.1010 C   0  0  1  0  0  3  0  0  0  0  0  0
  185.1670  177.3230  137.8560 C   0  0  1  0  0  3  0  0  0  0  0  0
  184.3760  177.7710  136.6430 C   0  0  0  0  0  2  0  0  0  0  0  0
  182.9270  177.5050  136.8530 C   0  0  0  0  0  0  0  0  0  0  0  0
  182.0900  177.8450  135.9770 O   0  0  0  0  0  0  0  0  0  0  0  0
  182.5020  176.8470  137.9990 O   0  0  0  0  0  1  0  0  0  0  0  0
  189.4300  178.8220  138.1040 C   0  0  0  0  0  1  0  0  0  0  0  0
  189.0850  177.5440  138.8470 C   0  0  0  0  0  2  0  0  0  0  0  0
  1 22  1  0  0  0  0
  2  3  1  0  0  0  0
  3 16  2  0  0  0  0
  4  5  1  0  0  0  0
  5 15  1  0  0  0  0
  5 23  2  0  0  0  0
  6 19  1  0  0  0  0
  7 10  1  0  0  0  0
  8 21  1  0  0  0  0
  9 11  1  0  0  0  0
  9  2  2  0  0  0  0
 10  1  1  0  0  0  0
 10 11  1  0  0  0  0
 11 17  2  0  0  0  0
 12 18  1  0  0  0  0
 13  8  1  0  0  0  0
 14  6  1  0  0  0  0
 14  7  2  0  0  0  0
 15 13  2  0  0  0  0
 17 12  1  0  0  0  0
 17 16  1  0  0  0  0
 18 23  1  0  0  0  0
 19  1  2  0  0  0  0
 20  4  2  0  0  0  0
 22  4  1  0  0  0  0
 22 12  2  0  0  0  0
 23  8  1  0  0  0  0
 24 26  1  0  0  0  0
 24 25  1  0  0  0  0
 25 14  1  1  0  0  0
 26 27  1  6  0  0  0
 26 25  1  0  0  0  0
 27 28  1  0  0  0  0
 28 30  1  0  0  0  0
 29 28  2  0  0  0  0
 31 32  1  0  0  0  0
 32  6  1  0  0  0  0
M  END
>  <MODEL>
9

>  <REMARK>
 VINA RESULT:      -8.6      2.402      7.600
  Name = 
  4 active torsions:
  status: ('A' for Active; 'I' for Inactive)
    1  A    between atoms: N_7  and  C_19
    2  A    between atoms: C_10  and  C_17
    3  A    between atoms: C_20  and  C_29
    4  A    between atoms: C_29  and  C_30
                            x       y       z     vdW  Elec       q    Type
                         _______ _______ _______ _____ _____    ______ ____

>  <TORSDO>
F 4

$$$$
