=
 OpenBabel11122412243D

 34 40  0  0  1  0  0  0  0  0999 V2000
  186.0020  178.5150  139.4810 C   0  0  0  0  0  0  0  0  0  0  0  0
  184.9870  177.6790  137.3650 C   0  0  0  0  0  2  0  0  0  0  0  0
  185.8400  178.8090  146.0570 C   0  0  1  0  0  3  0  0  0  0  0  0
  186.7900  178.4260  141.7590 C   0  0  0  0  0  0  0  0  0  0  0  0
  185.1070  178.8450  143.5940 C   0  0  2  0  0  3  0  0  0  0  0  0
  183.6000  179.3730  145.3640 O   0  0  0  0  0  1  0  0  0  0  0  0
  185.3190  179.0650  147.3280 O   0  0  0  0  0  1  0  0  0  0  0  0
  187.6210  177.4380  144.9110 C   0  0  0  0  0  2  0  0  0  0  0  0
  183.4680  178.6290  138.9630 C   0  0  2  0  0  3  0  0  0  0  0  0
  180.7240  177.0440  139.1290 C   0  0  0  0  0  2  0  0  0  0  0  0
  184.1610  178.1800  142.7000 N   0  0  0  0  0  2  0  0  0  0  0  0
  186.8450  177.1660  143.7790 O   0  0  0  0  0  0  0  0  0  0  0  0
  183.3050  178.0960  140.4080 C   0  0  1  0  0  3  0  0  0  0  0  0
  183.5810  177.6530  136.8210 C   0  0  0  0  0  2  0  0  0  0  0  0
  186.5490  178.4240  143.2430 C   0  0  1  0  0  3  0  0  0  0  0  0
  186.7340  177.5760  146.1440 C   0  0  0  0  0  2  0  0  0  0  0  0
  182.0010  176.7020  138.3710 C   0  0  2  0  0  3  0  0  0  0  0  0
  185.7190  178.5210  140.8540 C   0  0  0  0  0  0  0  0  0  0  0  0
  184.7020  178.5730  145.0510 C   0  0  2  0  0  3  0  0  0  0  0  0
  184.3150  178.7410  141.3560 C   0  0  2  0  0  3  0  0  0  0  0  0
  188.3130  178.2920  139.9570 C   0  0  0  0  0  3  0  0  0  0  0  0
  180.9940  177.1910  140.6170 C   0  0  0  0  0  2  0  0  0  0  0  0
  188.0580  178.3010  141.2900 N   0  0  0  0  0  0  0  0  0  0  0  0
  181.8930  178.3800  140.9010 C   0  0  0  0  0  2  0  0  0  0  0  0
  182.6550  177.9490  137.9190 N   0  0  1  0  0  0  0  0  0  0  0  0
  187.2940  178.4060  139.0670 N   0  0  0  0  0  0  0  0  0  0  0  0
  184.9150  178.7040  138.4570 C   0  0  1  0  0  3  0  0  0  0  0  0
  181.6520  175.8900  137.2830 O   0  0  0  0  0  0  0  0  0  0  0  0
  181.9510  174.5880  137.6960 C   0  0  0  0  0  2  0  0  0  0  0  0
  184.8170  172.5960  137.4910 C   0  0  0  0  0  2  0  0  0  0  0  0
  182.7510  172.6250  136.4870 N   0  0  0  0  0  2  0  0  0  0  0  0
  183.0570  174.0110  136.8310 C   0  0  2  0  0  3  0  0  0  0  0  0
  183.6350  171.8010  137.2110 N   0  0  0  0  0  2  0  0  0  0  0  0
  184.3500  174.0160  137.5970 C   0  0  0  0  0  2  0  0  0  0  0  0
  1 18  1  0  0  0  0
  2 27  1  0  0  0  0
  3 16  1  0  0  0  0
  3  7  1  1  0  0  0
  4 15  1  0  0  0  0
  5 11  1  6  0  0  0
  5 19  1  0  0  0  0
  8 16  1  0  0  0  0
  9 13  1  0  0  0  0
 10 22  1  0  0  0  0
 12  8  1  0  0  0  0
 13 24  1  0  0  0  0
 13 20  1  0  0  0  0
 14  2  1  0  0  0  0
 14 25  1  0  0  0  0
 15  5  1  0  0  0  0
 15 12  1  0  0  0  0
 17 10  1  0  0  0  0
 18 20  1  0  0  0  0
 18  4  2  0  0  0  0
 19  6  1  0  0  0  0
 19  3  1  0  0  0  0
 20 11  1  0  0  0  0
 21 23  2  0  0  0  0
 22 24  1  0  0  0  0
 23  4  1  0  0  0  0
 25 17  1  0  0  0  0
 25  9  1  0  0  0  0
 26  1  2  0  0  0  0
 26 21  1  0  0  0  0
 27  9  1  0  0  0  0
 27  1  1  0  0  0  0
 28 29  1  0  0  0  0
 28 17  1  0  0  0  0
 30 34  1  0  0  0  0
 31 32  1  0  0  0  0
 31 33  1  0  0  0  0
 32 34  1  0  0  0  0
 32 29  1  0  0  0  0
 33 30  1  0  0  0  0
M  END
>  <MODEL>
1

>  <REMARK>
 VINA RESULT:      -8.7      0.000      0.000
  Name = 
  3 active torsions:
  status: ('A' for Active; 'I' for Inactive)
    1  A    between atoms: C_17  and  O_28
    2  A    between atoms: O_28  and  C_29
    3  A    between atoms: C_29  and  C_32
                            x       y       z     vdW  Elec       q    Type
                         _______ _______ _______ _____ _____    ______ ____

>  <TORSDO>
F 3

$$$$
=
 OpenBabel11122412243D

 34 40  0  0  1  0  0  0  0  0999 V2000
  188.1330  178.1130  138.6570 C   0  0  0  0  0  0  0  0  0  0  0  0
  186.5740  178.3930  140.5800 C   0  0  0  0  0  2  0  0  0  0  0  0
  193.3100  175.0050  136.0280 C   0  0  1  0  0  3  0  0  0  0  0  0
  189.4630  176.9390  137.0220 C   0  0  0  0  0  0  0  0  0  0  0  0
  191.7900  176.2310  137.7000 C   0  0  2  0  0  3  0  0  0  0  0  0
  194.0440  175.6650  138.2290 O   0  0  0  0  0  1  0  0  0  0  0  0
  194.6210  174.5370  135.9260 O   0  0  0  0  0  1  0  0  0  0  0  0
  190.9940  174.5530  135.1330 C   0  0  0  0  0  2  0  0  0  0  0  0
  188.9090  178.2740  141.1220 C   0  0  2  0  0  3  0  0  0  0  0  0
  189.4640  176.6140  143.7690 C   0  0  0  0  0  2  0  0  0  0  0  0
  191.2060  176.0420  139.0260 N   0  0  0  0  0  2  0  0  0  0  0  0
  190.3470  174.8350  136.3420 O   0  0  0  0  0  0  0  0  0  0  0  0
  189.8110  177.0690  140.7560 C   0  0  1  0  0  3  0  0  0  0  0  0
  186.7670  178.5370  142.0680 C   0  0  0  0  0  2  0  0  0  0  0  0
  190.6870  176.1630  136.6240 C   0  0  1  0  0  3  0  0  0  0  0  0
  192.3810  173.9740  135.3940 C   0  0  0  0  0  2  0  0  0  0  0  0
  188.1650  176.8080  142.9960 C   0  0  2  0  0  3  0  0  0  0  0  0
  189.2960  177.3970  138.3410 C   0  0  0  0  0  0  0  0  0  0  0  0
  192.9340  175.2250  137.5030 C   0  0  2  0  0  3  0  0  0  0  0  0
  190.3980  177.2190  139.3540 C   0  0  2  0  0  3  0  0  0  0  0  0
  187.3700  177.8620  136.4270 C   0  0  0  0  0  3  0  0  0  0  0  0
  190.5400  176.0040  142.8870 C   0  0  0  0  0  2  0  0  0  0  0  0
  188.4920  177.1710  136.1020 N   0  0  0  0  0  0  0  0  0  0  0  0
  190.9400  176.9510  141.7690 C   0  0  0  0  0  2  0  0  0  0  0  0
  188.1470  178.1580  142.3930 N   0  0  1  0  0  0  0  0  0  0  0  0
  187.2010  178.3320  137.6900 N   0  0  0  0  0  0  0  0  0  0  0  0
  187.9300  178.7100  140.0240 C   0  0  1  0  0  3  0  0  0  0  0  0
  187.1010  176.6380  143.8910 O   0  0  0  0  0  0  0  0  0  0  0  0
  187.5820  177.1110  145.1160 C   0  0  0  0  0  2  0  0  0  0  0  0
  185.9790  179.3500  147.2700 C   0  0  0  0  0  2  0  0  0  0  0  0
  185.4040  178.1810  145.3790 N   0  0  0  0  0  2  0  0  0  0  0  0
  186.4230  177.3840  146.0580 C   0  0  2  0  0  3  0  0  0  0  0  0
  185.4420  179.4780  145.9280 N   0  0  0  0  0  2  0  0  0  0  0  0
  186.9080  178.1750  147.2390 C   0  0  0  0  0  2  0  0  0  0  0  0
  1 27  1  0  0  0  0
  2 14  1  0  0  0  0
  3  7  1  1  0  0  0
  3 19  1  0  0  0  0
  4 18  2  0  0  0  0
  5 11  1  1  0  0  0
  8 16  1  0  0  0  0
  8 12  1  0  0  0  0
  9 25  1  0  0  0  0
 11 20  1  0  0  0  0
 12 15  1  0  0  0  0
 13  9  1  0  0  0  0
 13 24  1  0  0  0  0
 14 25  1  0  0  0  0
 15  4  1  0  0  0  0
 15  5  1  0  0  0  0
 16  3  1  0  0  0  0
 17 10  1  0  0  0  0
 17 28  1  0  0  0  0
 18  1  1  0  0  0  0
 18 20  1  0  0  0  0
 19  5  1  0  0  0  0
 19  6  1  0  0  0  0
 20 13  1  0  0  0  0
 21 26  1  0  0  0  0
 22 10  1  0  0  0  0
 23 21  2  0  0  0  0
 23  4  1  0  0  0  0
 24 22  1  0  0  0  0
 25 17  1  0  0  0  0
 26  1  2  0  0  0  0
 27  2  1  0  0  0  0
 27  9  1  0  0  0  0
 28 29  1  0  0  0  0
 29 32  1  0  0  0  0
 31 33  1  0  0  0  0
 31 32  1  0  0  0  0
 32 34  1  0  0  0  0
 33 30  1  0  0  0  0
 34 30  1  0  0  0  0
M  END
>  <MODEL>
2

>  <REMARK>
 VINA RESULT:      -8.5      4.385      8.996
  Name = 
  3 active torsions:
  status: ('A' for Active; 'I' for Inactive)
    1  A    between atoms: C_17  and  O_28
    2  A    between atoms: O_28  and  C_29
    3  A    between atoms: C_29  and  C_32
                            x       y       z     vdW  Elec       q    Type
                         _______ _______ _______ _____ _____    ______ ____

>  <TORSDO>
F 3

$$$$
=
 OpenBabel11122412243D

 34 40  0  0  1  0  0  0  0  0999 V2000
  182.3430  178.9190  143.4710 C   0  0  0  0  0  0  0  0  0  0  0  0
  183.7950  178.7870  145.4920 C   0  0  0  0  0  2  0  0  0  0  0  0
  181.3570  177.3580  137.1500 C   0  0  1  0  0  3  0  0  0  0  0  0
  181.2000  178.1350  141.4970 C   0  0  0  0  0  0  0  0  0  0  0  0
  182.4850  178.1380  139.3240 C   0  0  2  0  0  3  0  0  0  0  0  0
  183.5970  178.2510  137.2180 O   0  0  0  0  0  1  0  0  0  0  0  0
  181.6210  177.2810  135.7810 O   0  0  0  0  0  1  0  0  0  0  0  0
  179.9750  176.2430  138.9430 C   0  0  0  0  0  2  0  0  0  0  0  0
  184.8950  179.3530  143.4350 C   0  0  2  0  0  3  0  0  0  0  0  0
  187.7440  177.9820  143.1590 C   0  0  0  0  0  2  0  0  0  0  0  0
  183.6420  177.8210  140.1590 N   0  0  0  0  0  2  0  0  0  0  0  0
  180.9580  176.3560  139.9330 O   0  0  0  0  0  0  0  0  0  0  0  0
  184.8760  178.4460  142.1790 C   0  0  1  0  0  3  0  0  0  0  0  0
  185.2650  179.0150  145.7370 C   0  0  0  0  0  2  0  0  0  0  0  0
  181.1850  177.7320  140.0490 C   0  0  1  0  0  3  0  0  0  0  0  0
  180.6180  176.0900  137.5680 C   0  0  0  0  0  2  0  0  0  0  0  0
  186.6650  177.7790  144.2150 C   0  0  2  0  0  3  0  0  0  0  0  0
  182.3880  178.5580  142.1170 C   0  0  0  0  0  0  0  0  0  0  0  0
  182.6680  177.4960  137.9400 C   0  0  2  0  0  3  0  0  0  0  0  0
  183.6500  178.7250  141.3110 C   0  0  2  0  0  3  0  0  0  0  0  0
  180.0290  178.4080  143.5330 C   0  0  0  0  0  3  0  0  0  0  0  0
  187.2120  177.6850  141.7680 C   0  0  0  0  0  2  0  0  0  0  0  0
  180.0530  178.0590  142.2220 N   0  0  0  0  0  0  0  0  0  0  0  0
  186.1390  178.6790  141.3620 C   0  0  0  0  0  2  0  0  0  0  0  0
  185.9500  179.0530  144.4400 N   0  0  1  0  0  0  0  0  0  0  0  0
  181.1630  178.8400  144.1440 N   0  0  0  0  0  0  0  0  0  0  0  0
  183.5560  179.4650  144.1760 C   0  0  1  0  0  3  0  0  0  0  0  0
  187.2880  177.3330  145.3880 O   0  0  0  0  0  0  0  0  0  0  0  0
  188.6090  177.0660  145.0150 C   0  0  0  0  0  2  0  0  0  0  0  0
  191.1420  176.6600  147.3900 C   0  0  0  0  0  2  0  0  0  0  0  0
  190.9020  177.8010  145.4120 N   0  0  0  0  0  2  0  0  0  0  0  0
  189.5670  177.7150  145.9980 C   0  0  2  0  0  3  0  0  0  0  0  0
  191.7190  176.8650  146.0740 N   0  0  0  0  0  2  0  0  0  0  0  0
  189.6660  176.8710  147.2370 C   0  0  0  0  0  2  0  0  0  0  0  0
  1 26  1  0  0  0  0
  1 27  1  0  0  0  0
  2 14  1  0  0  0  0
  3  7  1  6  0  0  0
  3 16  1  0  0  0  0
  3 19  1  0  0  0  0
  4 18  1  0  0  0  0
  4 23  2  0  0  0  0
  5 15  1  0  0  0  0
  5 11  1  1  0  0  0
  6 19  1  0  0  0  0
  8 12  1  0  0  0  0
  9 27  1  0  0  0  0
  9 25  1  0  0  0  0
 10 17  1  0  0  0  0
 11 20  1  0  0  0  0
 12 15  1  0  0  0  0
 13  9  1  0  0  0  0
 15  4  1  0  0  0  0
 16  8  1  0  0  0  0
 17 25  1  0  0  0  0
 17 28  1  0  0  0  0
 18  1  2  0  0  0  0
 19  5  1  0  0  0  0
 20 18  1  0  0  0  0
 20 13  1  0  0  0  0
 21 26  2  0  0  0  0
 22 10  1  0  0  0  0
 23 21  1  0  0  0  0
 24 22  1  0  0  0  0
 24 13  1  0  0  0  0
 25 14  1  0  0  0  0
 27  2  1  0  0  0  0
 29 28  1  0  0  0  0
 29 32  1  0  0  0  0
 31 32  1  0  0  0  0
 31 33  1  0  0  0  0
 32 34  1  0  0  0  0
 33 30  1  0  0  0  0
 34 30  1  0  0  0  0
M  END
>  <MODEL>
3

>  <REMARK>
 VINA RESULT:      -8.4      2.778      8.424
  Name = 
  3 active torsions:
  status: ('A' for Active; 'I' for Inactive)
    1  A    between atoms: C_17  and  O_28
    2  A    between atoms: O_28  and  C_29
    3  A    between atoms: C_29  and  C_32
                            x       y       z     vdW  Elec       q    Type
                         _______ _______ _______ _____ _____    ______ ____

>  <TORSDO>
F 3

$$$$
=
 OpenBabel11122412243D

 34 40  0  0  1  0  0  0  0  0999 V2000
  188.0830  177.8540  139.8330 C   0  0  0  0  0  0  0  0  0  0  0  0
  185.8950  177.8570  138.6410 C   0  0  0  0  0  2  0  0  0  0  0  0
  191.4240  176.9870  145.4400 C   0  0  1  0  0  3  0  0  0  0  0  0
  189.7990  177.0640  141.3320 C   0  0  0  0  0  0  0  0  0  0  0  0
  189.6320  177.7410  143.7590 C   0  0  2  0  0  3  0  0  0  0  0  0
  189.6100  178.4630  146.0310 O   0  0  0  0  0  1  0  0  0  0  0  0
  191.7820  177.1830  146.7760 O   0  0  0  0  0  1  0  0  0  0  0  0
  191.6230  175.2820  143.5910 C   0  0  0  0  0  2  0  0  0  0  0  0
  185.9500  178.9980  140.7520 C   0  0  2  0  0  3  0  0  0  0  0  0
  183.3060  178.5510  142.4500 C   0  0  0  0  0  2  0  0  0  0  0  0
  188.1890  177.6520  143.5490 N   0  0  0  0  0  2  0  0  0  0  0  0
  190.3490  175.5300  143.0690 O   0  0  0  0  0  0  0  0  0  0  0  0
  186.3420  178.3110  142.0840 C   0  0  1  0  0  3  0  0  0  0  0  0
  184.5440  178.4580  138.9400 C   0  0  0  0  0  2  0  0  0  0  0  0
  190.3700  176.8830  142.7100 C   0  0  1  0  0  3  0  0  0  0  0  0
  191.6370  175.5150  145.0980 C   0  0  0  0  0  2  0  0  0  0  0  0
  183.7460  177.9010  141.1430 C   0  0  2  0  0  3  0  0  0  0  0  0
  188.5690  177.7160  141.1400 C   0  0  0  0  0  0  0  0  0  0  0  0
  189.9550  177.3800  145.2170 C   0  0  2  0  0  3  0  0  0  0  0  0
  187.8530  178.3490  142.3060 C   0  0  2  0  0  3  0  0  0  0  0  0
  189.9800  176.7010  139.0030 C   0  0  0  0  0  3  0  0  0  0  0  0
  184.3270  178.3140  143.5500 C   0  0  0  0  0  2  0  0  0  0  0  0
  190.4680  176.5630  140.2620 N   0  0  0  0  0  0  0  0  0  0  0  0
  185.6410  179.0080  143.2430 C   0  0  0  0  0  2  0  0  0  0  0  0
  184.5240  178.8730  140.3470 N   0  0  1  0  0  0  0  0  0  0  0  0
  188.8040  177.3480  138.7960 N   0  0  0  0  0  0  0  0  0  0  0  0
  186.8180  178.6180  139.5450 C   0  0  1  0  0  3  0  0  0  0  0  0
  182.5940  177.4900  140.4580 O   0  0  0  0  0  0  0  0  0  0  0  0
  181.5550  178.2370  141.0200 C   0  0  0  0  0  2  0  0  0  0  0  0
  179.4910  175.5800  140.0720 C   0  0  0  0  0  2  0  0  0  0  0  0
  179.3410  177.3470  141.5310 N   0  0  0  0  0  2  0  0  0  0  0  0
  180.2230  177.7820  140.4510 C   0  0  2  0  0  3  0  0  0  0  0  0
  179.2320  175.9450  141.4530 N   0  0  0  0  0  2  0  0  0  0  0  0
  180.4400  176.6090  139.5370 C   0  0  0  0  0  2  0  0  0  0  0  0
  1 18  1  0  0  0  0
  2 14  1  0  0  0  0
  2 27  1  0  0  0  0
  3  7  1  1  0  0  0
  4 15  1  0  0  0  0
  5 11  1  1  0  0  0
  5 19  1  0  0  0  0
  8 16  1  0  0  0  0
  9 13  1  0  0  0  0
 10 22  1  0  0  0  0
 12  8  1  0  0  0  0
 13 20  1  0  0  0  0
 13 24  1  0  0  0  0
 14 25  1  0  0  0  0
 15 12  1  0  0  0  0
 15  5  1  0  0  0  0
 16  3  1  0  0  0  0
 17 10  1  0  0  0  0
 18  4  2  0  0  0  0
 18 20  1  0  0  0  0
 19  3  1  0  0  0  0
 19  6  1  0  0  0  0
 20 11  1  0  0  0  0
 21 23  2  0  0  0  0
 23  4  1  0  0  0  0
 24 22  1  0  0  0  0
 25  9  1  0  0  0  0
 25 17  1  0  0  0  0
 26 21  1  0  0  0  0
 26  1  2  0  0  0  0
 27  1  1  0  0  0  0
 27  9  1  0  0  0  0
 28 29  1  0  0  0  0
 28 17  1  0  0  0  0
 30 33  1  0  0  0  0
 32 29  1  0  0  0  0
 32 31  1  0  0  0  0
 33 31  1  0  0  0  0
 34 30  1  0  0  0  0
 34 32  1  0  0  0  0
M  END
>  <MODEL>
4

>  <REMARK>
 VINA RESULT:      -8.4      3.124      4.549
  Name = 
  3 active torsions:
  status: ('A' for Active; 'I' for Inactive)
    1  A    between atoms: C_17  and  O_28
    2  A    between atoms: O_28  and  C_29
    3  A    between atoms: C_29  and  C_32
                            x       y       z     vdW  Elec       q    Type
                         _______ _______ _______ _____ _____    ______ ____

>  <TORSDO>
F 3

$$$$
=
 OpenBabel11122412243D

 34 40  0  0  1  0  0  0  0  0999 V2000
  185.9990  178.5160  139.4950 C   0  0  0  0  0  0  0  0  0  0  0  0
  184.9760  177.7090  137.3710 C   0  0  0  0  0  2  0  0  0  0  0  0
  185.8250  178.7740  146.0720 C   0  0  1  0  0  3  0  0  0  0  0  0
  186.7790  178.4010  141.7740 C   0  0  0  0  0  0  0  0  0  0  0  0
  185.0990  178.8350  143.6080 C   0  0  2  0  0  3  0  0  0  0  0  0
  183.5960  179.3770  145.3770 O   0  0  0  0  0  1  0  0  0  0  0  0
  185.3060  179.0300  147.3430 O   0  0  0  0  0  1  0  0  0  0  0  0
  187.5870  177.3810  144.9230 C   0  0  0  0  0  2  0  0  0  0  0  0
  183.4680  178.6730  138.9710 C   0  0  2  0  0  3  0  0  0  0  0  0
  180.6990  177.1300  139.1220 C   0  0  0  0  0  2  0  0  0  0  0  0
  184.1450  178.1910  142.7080 N   0  0  0  0  0  2  0  0  0  0  0  0
  186.8100  177.1280  143.7860 O   0  0  0  0  0  0  0  0  0  0  0  0
  183.2930  178.1340  140.4130 C   0  0  1  0  0  3  0  0  0  0  0  0
  183.5700  177.7080  136.8240 C   0  0  0  0  0  2  0  0  0  0  0  0
  186.5350  178.3940  143.2570 C   0  0  1  0  0  3  0  0  0  0  0  0
  186.7000  177.5260  146.1540 C   0  0  0  0  0  2  0  0  0  0  0  0
  181.9720  176.7730  138.3640 C   0  0  2  0  0  3  0  0  0  0  0  0
  185.7120  178.5190  140.8670 C   0  0  0  0  0  0  0  0  0  0  0  0
  184.6860  178.5620  145.0620 C   0  0  2  0  0  3  0  0  0  0  0  0
  184.3110  178.7570  141.3670 C   0  0  2  0  0  3  0  0  0  0  0  0
  188.3050  178.2530  139.9750 C   0  0  0  0  0  3  0  0  0  0  0  0
  180.9670  177.2650  140.6110 C   0  0  0  0  0  2  0  0  0  0  0  0
  188.0470  178.2590  141.3070 N   0  0  0  0  0  0  0  0  0  0  0  0
  181.8850  178.4380  140.9040 C   0  0  0  0  0  2  0  0  0  0  0  0
  182.6470  178.0120  137.9220 N   0  0  1  0  0  0  0  0  0  0  0  0
  187.2890  178.3890  139.0830 N   0  0  0  0  0  0  0  0  0  0  0  0
  184.9170  178.7280  138.4690 C   0  0  1  0  0  3  0  0  0  0  0  0
  181.6130  175.9730  137.2710 O   0  0  0  0  0  0  0  0  0  0  0  0
  181.6490  174.6630  137.7570 C   0  0  0  0  0  2  0  0  0  0  0  0
  180.9430  171.6140  136.2000 C   0  0  0  0  0  2  0  0  0  0  0  0
  180.0330  172.8400  137.9150 N   0  0  0  0  0  2  0  0  0  0  0  0
  180.6480  173.8040  137.0050 C   0  0  2  0  0  3  0  0  0  0  0  0
  180.5420  171.5660  137.5940 N   0  0  0  0  0  2  0  0  0  0  0  0
  181.3570  173.0280  135.9300 C   0  0  0  0  0  2  0  0  0  0  0  0
  1 18  1  0  0  0  0
  2 27  1  0  0  0  0
  3 16  1  0  0  0  0
  3  7  1  1  0  0  0
  4 15  1  0  0  0  0
  5 11  1  6  0  0  0
  5 19  1  0  0  0  0
  8 16  1  0  0  0  0
  9 13  1  0  0  0  0
 10 22  1  0  0  0  0
 12  8  1  0  0  0  0
 13 24  1  0  0  0  0
 13 20  1  0  0  0  0
 14  2  1  0  0  0  0
 14 25  1  0  0  0  0
 15  5  1  0  0  0  0
 15 12  1  0  0  0  0
 17 10  1  0  0  0  0
 18 20  1  0  0  0  0
 18  4  2  0  0  0  0
 19  6  1  0  0  0  0
 19  3  1  0  0  0  0
 20 11  1  0  0  0  0
 21 23  2  0  0  0  0
 22 24  1  0  0  0  0
 23  4  1  0  0  0  0
 25 17  1  0  0  0  0
 25  9  1  0  0  0  0
 26  1  2  0  0  0  0
 26 21  1  0  0  0  0
 27  9  1  0  0  0  0
 27  1  1  0  0  0  0
 28 29  1  0  0  0  0
 28 17  1  0  0  0  0
 30 33  1  0  0  0  0
 32 29  1  0  0  0  0
 32 31  1  0  0  0  0
 33 31  1  0  0  0  0
 34 30  1  0  0  0  0
 34 32  1  0  0  0  0
M  END
>  <MODEL>
5

>  <REMARK>
 VINA RESULT:      -8.2      1.119      1.279
  Name = 
  3 active torsions:
  status: ('A' for Active; 'I' for Inactive)
    1  A    between atoms: C_17  and  O_28
    2  A    between atoms: O_28  and  C_29
    3  A    between atoms: C_29  and  C_32
                            x       y       z     vdW  Elec       q    Type
                         _______ _______ _______ _____ _____    ______ ____

>  <TORSDO>
F 3

$$$$
=
 OpenBabel11122412243D

 34 40  0  0  1  0  0  0  0  0999 V2000
  190.0200  177.7640  139.6330 C   0  0  0  0  0  0  0  0  0  0  0  0
  190.3800  176.8950  137.3250 C   0  0  0  0  0  2  0  0  0  0  0  0
  185.9630  178.5970  144.7520 C   0  0  1  0  0  3  0  0  0  0  0  0
  189.2470  177.7590  141.9170 C   0  0  0  0  0  0  0  0  0  0  0  0
  186.8820  178.5270  142.3530 C   0  0  2  0  0  3  0  0  0  0  0  0
  184.7100  179.3780  142.8450 O   0  0  0  0  0  1  0  0  0  0  0  0
  184.8250  179.0150  145.4460 O   0  0  0  0  0  1  0  0  0  0  0  0
  187.8490  176.9290  144.9110 C   0  0  0  0  0  2  0  0  0  0  0  0
  188.3640  178.1500  137.6790 C   0  0  2  0  0  3  0  0  0  0  0  0
  185.8820  176.9350  136.1200 C   0  0  0  0  0  2  0  0  0  0  0  0
  186.5840  177.9170  141.0590 N   0  0  0  0  0  2  0  0  0  0  0  0
  187.8860  176.6660  143.5370 O   0  0  0  0  0  0  0  0  0  0  0  0
  187.2850  177.7570  138.7200 C   0  0  1  0  0  3  0  0  0  0  0  0
  189.6030  177.0010  136.0370 C   0  0  0  0  0  2  0  0  0  0  0  0
  188.1620  177.9050  142.9470 C   0  0  1  0  0  3  0  0  0  0  0  0
  186.4300  177.2730  145.3500 C   0  0  0  0  0  2  0  0  0  0  0  0
  187.2900  176.3790  136.2920 C   0  0  2  0  0  3  0  0  0  0  0  0
  188.9690  177.9150  140.5490 C   0  0  0  0  0  0  0  0  0  0  0  0
  185.6450  178.4250  143.2580 C   0  0  2  0  0  3  0  0  0  0  0  0
  187.5980  178.3450  140.0940 C   0  0  2  0  0  3  0  0  0  0  0  0
  191.5100  177.2950  141.4150 C   0  0  0  0  0  3  0  0  0  0  0  0
  185.2160  177.1650  137.4660 C   0  0  0  0  0  2  0  0  0  0  0  0
  190.5060  177.4410  142.3160 N   0  0  0  0  0  0  0  0  0  0  0  0
  185.9230  178.2530  138.2530 C   0  0  0  0  0  2  0  0  0  0  0  0
  188.2580  177.4950  136.3480 N   0  0  1  0  0  0  0  0  0  0  0  0
  191.2650  177.4640  140.0890 N   0  0  0  0  0  0  0  0  0  0  0  0
  189.8140  178.0050  138.1610 C   0  0  1  0  0  3  0  0  0  0  0  0
  187.5550  175.5330  135.2070 O   0  0  0  0  0  0  0  0  0  0  0  0
  186.9040  174.3350  135.5180 C   0  0  0  0  0  2  0  0  0  0  0  0
  190.2350  173.3580  135.9350 C   0  0  0  0  0  2  0  0  0  0  0  0
  188.2430  172.9220  136.9910 N   0  0  0  0  0  2  0  0  0  0  0  0
  187.9130  173.2020  135.5960 C   0  0  2  0  0  3  0  0  0  0  0  0
  189.5570  173.3780  137.2180 N   0  0  0  0  0  2  0  0  0  0  0  0
  189.1820  173.6080  134.9000 C   0  0  0  0  0  2  0  0  0  0  0  0
  1 26  2  0  0  0  0
  1 18  1  0  0  0  0
  2 27  1  0  0  0  0
  3 16  1  0  0  0  0
  3  7  1  1  0  0  0
  4 23  1  0  0  0  0
  4 15  1  0  0  0  0
  5 11  1  6  0  0  0
  5 15  1  0  0  0  0
  5 19  1  0  0  0  0
  6 19  1  0  0  0  0
  8 16  1  0  0  0  0
  9 27  1  0  0  0  0
  9 13  1  0  0  0  0
 10 17  1  0  0  0  0
 10 22  1  0  0  0  0
 12  8  1  0  0  0  0
 13 20  1  0  0  0  0
 14 25  1  0  0  0  0
 14  2  1  0  0  0  0
 15 12  1  0  0  0  0
 17 25  1  0  0  0  0
 18  4  2  0  0  0  0
 19  3  1  0  0  0  0
 20 18  1  0  0  0  0
 20 11  1  0  0  0  0
 21 23  2  0  0  0  0
 22 24  1  0  0  0  0
 24 13  1  0  0  0  0
 25  9  1  0  0  0  0
 26 21  1  0  0  0  0
 27  1  1  0  0  0  0
 28 29  1  0  0  0  0
 28 17  1  0  0  0  0
 29 32  1  0  0  0  0
 30 33  1  0  0  0  0
 31 33  1  0  0  0  0
 32 31  1  0  0  0  0
 34 32  1  0  0  0  0
 34 30  1  0  0  0  0
M  END
>  <MODEL>
6

>  <REMARK>
 VINA RESULT:      -7.9      3.053      4.328
  Name = 
  3 active torsions:
  status: ('A' for Active; 'I' for Inactive)
    1  A    between atoms: C_17  and  O_28
    2  A    between atoms: O_28  and  C_29
    3  A    between atoms: C_29  and  C_32
                            x       y       z     vdW  Elec       q    Type
                         _______ _______ _______ _____ _____    ______ ____

>  <TORSDO>
F 3

$$$$
=
 OpenBabel11122412243D

 34 40  0  0  1  0  0  0  0  0999 V2000
  185.4130  178.8370  140.4100 C   0  0  0  0  0  0  0  0  0  0  0  0
  183.6450  178.4280  138.7020 C   0  0  0  0  0  2  0  0  0  0  0  0
  187.4350  178.2650  146.6510 C   0  0  1  0  0  3  0  0  0  0  0  0
  186.8680  178.3430  142.2690 C   0  0  0  0  0  0  0  0  0  0  0  0
  185.9610  178.7230  144.5950 C   0  0  2  0  0  3  0  0  0  0  0  0
  185.2160  179.1980  146.8090 O   0  0  0  0  0  1  0  0  0  0  0  0
  187.4020  178.4120  148.0390 O   0  0  0  0  0  1  0  0  0  0  0  0
  188.4980  176.8440  144.8580 C   0  0  0  0  0  2  0  0  0  0  0  0
  182.9020  179.3410  140.7950 C   0  0  2  0  0  3  0  0  0  0  0  0
  180.1380  178.1110  141.7500 C   0  0  0  0  0  2  0  0  0  0  0  0
  184.6820  178.3110  144.0230 N   0  0  0  0  0  2  0  0  0  0  0  0
  187.3640  176.8270  144.0370 O   0  0  0  0  0  0  0  0  0  0  0  0
  183.1300  178.6440  142.1590 C   0  0  1  0  0  3  0  0  0  0  0  0
  182.1550  178.6550  138.6680 C   0  0  0  0  0  2  0  0  0  0  0  0
  187.1220  178.1730  143.7410 C   0  0  1  0  0  3  0  0  0  0  0  0
  188.0920  176.9270  146.3260 C   0  0  0  0  0  2  0  0  0  0  0  0
  181.0260  177.7140  140.5770 C   0  0  2  0  0  3  0  0  0  0  0  0
  185.5930  178.6950  141.7930 C   0  0  0  0  0  0  0  0  0  0  0  0
  186.0100  178.3130  146.0750 C   0  0  2  0  0  3  0  0  0  0  0  0
  184.4830  179.0220  142.7580 C   0  0  2  0  0  3  0  0  0  0  0  0
  187.6830  178.2590  140.0530 C   0  0  0  0  0  3  0  0  0  0  0  0
  180.8940  178.0220  143.0640 C   0  0  0  0  0  2  0  0  0  0  0  0
  187.8780  178.1220  141.3890 N   0  0  0  0  0  0  0  0  0  0  0  0
  182.0200  179.0380  143.1240 C   0  0  0  0  0  2  0  0  0  0  0  0
  181.6950  178.9160  140.0370 N   0  0  1  0  0  0  0  0  0  0  0  0
  186.4640  178.6210  139.5750 N   0  0  0  0  0  0  0  0  0  0  0  0
  184.1000  179.2980  139.8360 C   0  0  1  0  0  3  0  0  0  0  0  0
  180.2160  177.1060  139.6090 O   0  0  0  0  0  0  0  0  0  0  0  0
  179.8910  175.8560  140.1440 C   0  0  0  0  0  2  0  0  0  0  0  0
  180.0050  174.3410  136.9960 C   0  0  0  0  0  2  0  0  0  0  0  0
  179.6770  173.6350  139.1560 N   0  0  0  0  0  2  0  0  0  0  0  0
  179.1890  175.0110  139.0970 C   0  0  2  0  0  3  0  0  0  0  0  0
  180.4690  173.4150  138.0120 N   0  0  0  0  0  2  0  0  0  0  0  0
  179.4960  175.5460  137.7270 C   0  0  0  0  0  2  0  0  0  0  0  0
  1 18  1  0  0  0  0
  2 27  1  0  0  0  0
  3  7  1  1  0  0  0
  4 15  1  0  0  0  0
  5 11  1  6  0  0  0
  5 19  1  0  0  0  0
  8 16  1  0  0  0  0
  9 13  1  0  0  0  0
 10 22  1  0  0  0  0
 12  8  1  0  0  0  0
 13 20  1  0  0  0  0
 13 24  1  0  0  0  0
 14  2  1  0  0  0  0
 14 25  1  0  0  0  0
 15 12  1  0  0  0  0
 15  5  1  0  0  0  0
 16  3  1  0  0  0  0
 17 10  1  0  0  0  0
 18  4  2  0  0  0  0
 18 20  1  0  0  0  0
 19  3  1  0  0  0  0
 19  6  1  0  0  0  0
 20 11  1  0  0  0  0
 21 23  2  0  0  0  0
 22 24  1  0  0  0  0
 23  4  1  0  0  0  0
 25 17  1  0  0  0  0
 25  9  1  0  0  0  0
 26 21  1  0  0  0  0
 26  1  2  0  0  0  0
 27  1  1  0  0  0  0
 27  9  1  0  0  0  0
 28 29  1  0  0  0  0
 28 17  1  0  0  0  0
 30 34  1  0  0  0  0
 30 33  1  0  0  0  0
 32 31  1  0  0  0  0
 32 29  1  0  0  0  0
 33 31  1  0  0  0  0
 34 32  1  0  0  0  0
M  END
>  <MODEL>
7

>  <REMARK>
 VINA RESULT:      -7.8      1.995      2.487
  Name = 
  3 active torsions:
  status: ('A' for Active; 'I' for Inactive)
    1  A    between atoms: C_17  and  O_28
    2  A    between atoms: O_28  and  C_29
    3  A    between atoms: C_29  and  C_32
                            x       y       z     vdW  Elec       q    Type
                         _______ _______ _______ _____ _____    ______ ____

>  <TORSDO>
F 3

$$$$
=
 OpenBabel11122412243D

 34 40  0  0  1  0  0  0  0  0999 V2000
  188.6850  177.9390  139.4330 C   0  0  0  0  0  0  0  0  0  0  0  0
  188.4790  177.1030  137.0940 C   0  0  0  0  0  2  0  0  0  0  0  0
  185.9130  178.8610  145.3340 C   0  0  1  0  0  3  0  0  0  0  0  0
  188.4390  177.9220  141.8320 C   0  0  0  0  0  0  0  0  0  0  0  0
  186.2730  178.7970  142.7900 C   0  0  2  0  0  3  0  0  0  0  0  0
  184.3120  179.7430  143.7610 O   0  0  0  0  0  1  0  0  0  0  0  0
  184.9810  179.3190  146.2670 O   0  0  0  0  0  1  0  0  0  0  0  0
  187.6970  177.0980  145.0530 C   0  0  0  0  0  2  0  0  0  0  0  0
  186.6610  178.4480  137.9000 C   0  0  2  0  0  3  0  0  0  0  0  0
  183.8340  177.3910  136.9190 C   0  0  0  0  0  2  0  0  0  0  0  0
  185.6640  178.2300  141.5890 N   0  0  0  0  0  2  0  0  0  0  0  0
  187.4140  176.8630  143.7020 O   0  0  0  0  0  0  0  0  0  0  0  0
  185.8200  178.0860  139.1500 C   0  0  1  0  0  3  0  0  0  0  0  0
  187.4430  177.2750  136.0120 C   0  0  0  0  0  2  0  0  0  0  0  0
  187.6180  178.0990  143.0780 C   0  0  1  0  0  3  0  0  0  0  0  0
  186.4300  177.5030  145.8000 C   0  0  0  0  0  2  0  0  0  0  0  0
  185.2140  176.7620  136.7680 C   0  0  2  0  0  3  0  0  0  0  0  0
  187.8730  178.1210  140.5610 C   0  0  0  0  0  0  0  0  0  0  0  0
  185.2640  178.7360  143.9470 C   0  0  2  0  0  3  0  0  0  0  0  0
  186.4610  178.6290  140.4260 C   0  0  2  0  0  3  0  0  0  0  0  0
  190.5060  177.3580  140.8340 C   0  0  0  0  0  3  0  0  0  0  0  0
  183.4960  177.6250  138.3820 C   0  0  0  0  0  2  0  0  0  0  0  0
  189.7360  177.5340  141.9380 N   0  0  0  0  0  0  0  0  0  0  0  0
  184.4170  178.6590  139.0040 C   0  0  0  0  0  2  0  0  0  0  0  0
  186.2280  177.8280  136.6190 N   0  0  1  0  0  0  0  0  0  0  0  0
  189.9840  177.5670  139.5980 N   0  0  0  0  0  0  0  0  0  0  0  0
  188.1720  178.2210  138.0450 C   0  0  1  0  0  3  0  0  0  0  0  0
  185.1870  175.9280  135.6430 O   0  0  0  0  0  0  0  0  0  0  0  0
  184.1400  175.0330  135.8840 C   0  0  0  0  0  2  0  0  0  0  0  0
  186.6980  172.8970  136.9390 C   0  0  0  0  0  2  0  0  0  0  0  0
  184.4390  173.0730  137.3080 N   0  0  0  0  0  2  0  0  0  0  0  0
  184.6780  173.6160  135.9730 C   0  0  2  0  0  3  0  0  0  0  0  0
  185.6800  173.0030  137.9690 N   0  0  0  0  0  2  0  0  0  0  0  0
  186.1640  173.6260  135.7450 C   0  0  0  0  0  2  0  0  0  0  0  0
  1 26  2  0  0  0  0
  1 18  1  0  0  0  0
  2 27  1  0  0  0  0
  3 16  1  0  0  0  0
  3  7  1  1  0  0  0
  4 23  1  0  0  0  0
  4 15  1  0  0  0  0
  5 11  1  6  0  0  0
  5 15  1  0  0  0  0
  5 19  1  0  0  0  0
  6 19  1  0  0  0  0
  8 16  1  0  0  0  0
  9 27  1  0  0  0  0
  9 13  1  0  0  0  0
 10 22  1  0  0  0  0
 12  8  1  0  0  0  0
 13 20  1  0  0  0  0
 14 25  1  0  0  0  0
 14  2  1  0  0  0  0
 15 12  1  0  0  0  0
 17 10  1  0  0  0  0
 18  4  2  0  0  0  0
 19  3  1  0  0  0  0
 20 18  1  0  0  0  0
 20 11  1  0  0  0  0
 21 23  2  0  0  0  0
 22 24  1  0  0  0  0
 24 13  1  0  0  0  0
 25 17  1  0  0  0  0
 25  9  1  0  0  0  0
 26 21  1  0  0  0  0
 27  1  1  0  0  0  0
 28 29  1  0  0  0  0
 28 17  1  0  0  0  0
 29 32  1  0  0  0  0
 30 33  1  0  0  0  0
 31 33  1  0  0  0  0
 32 31  1  0  0  0  0
 34 32  1  0  0  0  0
 34 30  1  0  0  0  0
M  END
>  <MODEL>
8

>  <REMARK>
 VINA RESULT:      -7.6      1.903      2.563
  Name = 
  3 active torsions:
  status: ('A' for Active; 'I' for Inactive)
    1  A    between atoms: C_17  and  O_28
    2  A    between atoms: O_28  and  C_29
    3  A    between atoms: C_29  and  C_32
                            x       y       z     vdW  Elec       q    Type
                         _______ _______ _______ _____ _____    ______ ____

>  <TORSDO>
F 3

$$$$
=
 OpenBabel11122412243D

 34 40  0  0  1  0  0  0  0  0999 V2000
  189.5950  176.5080  136.7340 C   0  0  0  0  0  0  0  0  0  0  0  0
  187.7290  177.3830  138.1350 C   0  0  0  0  0  2  0  0  0  0  0  0
  195.4480  173.5100  136.4090 C   0  0  1  0  0  3  0  0  0  0  0  0
  191.2930  174.9590  136.0050 C   0  0  0  0  0  0  0  0  0  0  0  0
  193.5510  175.0870  137.1290 C   0  0  2  0  0  3  0  0  0  0  0  0
  195.7440  175.2540  138.0480 O   0  0  0  0  0  1  0  0  0  0  0  0
  196.8050  173.2920  136.6570 O   0  0  0  0  0  1  0  0  0  0  0  0
  193.3720  172.2810  135.6700 C   0  0  0  0  0  2  0  0  0  0  0  0
  189.9480  177.9560  138.8520 C   0  0  2  0  0  3  0  0  0  0  0  0
  190.2680  177.8810  142.0080 C   0  0  0  0  0  2  0  0  0  0  0  0
  192.7910  175.4490  138.3230 N   0  0  0  0  0  2  0  0  0  0  0  0
  192.5140  172.9810  136.5260 O   0  0  0  0  0  0  0  0  0  0  0  0
  191.0300  176.9050  139.2020 C   0  0  1  0  0  3  0  0  0  0  0  0
  187.6670  178.2480  139.3690 C   0  0  0  0  0  2  0  0  0  0  0  0
  192.6470  174.3200  136.1420 C   0  0  1  0  0  3  0  0  0  0  0  0
  194.7580  172.1540  136.2930 C   0  0  0  0  0  2  0  0  0  0  0  0
  189.0930  177.4490  141.1380 C   0  0  2  0  0  3  0  0  0  0  0  0
  190.8690  175.9500  136.9070 C   0  0  0  0  0  0  0  0  0  0  0  0
  194.8220  174.3320  137.5470 C   0  0  2  0  0  3  0  0  0  0  0  0
  191.8090  176.4740  137.9610 C   0  0  2  0  0  3  0  0  0  0  0  0
  189.2270  175.0970  134.8660 C   0  0  0  0  0  3  0  0  0  0  0  0
  191.5330  177.1290  141.6320 C   0  0  0  0  0  2  0  0  0  0  0  0
  190.4590  174.5480  135.0150 N   0  0  0  0  0  0  0  0  0  0  0  0
  191.9920  177.4860  140.2290 C   0  0  0  0  0  2  0  0  0  0  0  0
  189.0130  178.3230  139.9490 N   0  0  1  0  0  0  0  0  0  0  0  0
  188.8080  176.0720  135.7140 N   0  0  0  0  0  0  0  0  0  0  0  0
  189.1090  177.6350  137.6070 C   0  0  1  0  0  3  0  0  0  0  0  0
  187.9290  177.5370  141.9120 O   0  0  0  0  0  0  0  0  0  0  0  0
  188.3630  177.9710  143.1680 C   0  0  0  0  0  2  0  0  0  0  0  0
  187.6340  177.5060  146.5550 C   0  0  0  0  0  2  0  0  0  0  0  0
  186.4450  177.4700  144.5910 N   0  0  0  0  0  2  0  0  0  0  0  0
  187.8070  177.0650  144.2510 C   0  0  2  0  0  3  0  0  0  0  0  0
  186.4820  178.0620  145.8690 N   0  0  0  0  0  2  0  0  0  0  0  0
  188.6430  177.1910  145.4930 C   0  0  0  0  0  2  0  0  0  0  0  0
  1 18  1  0  0  0  0
  1 27  1  0  0  0  0
  2 14  1  0  0  0  0
  3  7  1  1  0  0  0
  3 19  1  0  0  0  0
  4 15  1  0  0  0  0
  4 18  2  0  0  0  0
  5 19  1  0  0  0  0
  5 11  1  1  0  0  0
  8 16  1  0  0  0  0
  8 12  1  0  0  0  0
  9 13  1  0  0  0  0
  9 25  1  0  0  0  0
 13 24  1  0  0  0  0
 14 25  1  0  0  0  0
 15 12  1  0  0  0  0
 15  5  1  0  0  0  0
 16  3  1  0  0  0  0
 17 28  1  0  0  0  0
 17 10  1  0  0  0  0
 18 20  1  0  0  0  0
 19  6  1  0  0  0  0
 20 11  1  0  0  0  0
 20 13  1  0  0  0  0
 21 23  2  0  0  0  0
 21 26  1  0  0  0  0
 22 10  1  0  0  0  0
 23  4  1  0  0  0  0
 24 22  1  0  0  0  0
 25 17  1  0  0  0  0
 26  1  2  0  0  0  0
 27  2  1  0  0  0  0
 27  9  1  0  0  0  0
 28 29  1  0  0  0  0
 29 32  1  0  0  0  0
 31 33  1  0  0  0  0
 32 31  1  0  0  0  0
 32 34  1  0  0  0  0
 33 30  1  0  0  0  0
 34 30  1  0  0  0  0
M  END
>  <MODEL>
9

>  <REMARK>
 VINA RESULT:      -7.4      5.748      9.736
  Name = 
  3 active torsions:
  status: ('A' for Active; 'I' for Inactive)
    1  A    between atoms: C_17  and  O_28
    2  A    between atoms: O_28  and  C_29
    3  A    between atoms: C_29  and  C_32
                            x       y       z     vdW  Elec       q    Type
                         _______ _______ _______ _____ _____    ______ ____

>  <TORSDO>
F 3

$$$$
