=
 OpenBabel11122412003D

 28 32  0  0  1  0  0  0  0  0999 V2000
  181.4700  179.1640  141.7280 C   0  0  0  0  0  0  0  0  0  0  0  0
  183.9290  180.7190  138.7990 O   0  0  0  0  0  0  0  0  0  0  0  0
  180.1170  175.4010  136.9440 O   0  0  0  0  0  0  0  0  0  0  0  0
  183.5330  178.2810  143.4090 C   0  0  0  0  0  3  0  0  0  0  0  0
  182.3980  175.5440  137.5090 N   0  0  0  0  0  0  0  0  0  0  0  0
  180.3120  179.5990  140.8700 C   0  0  0  0  0  2  0  0  0  0  0  0
  185.2360  179.3730  140.4060 O   0  0  0  0  0  0  0  0  0  0  0  0
  184.5910  179.3930  139.0500 S   0  0  0  0  0  0  0  0  0  0  0  0
  185.7630  177.8350  137.0860 C   0  0  0  0  0  0  0  0  0  0  0  0
  183.4340  178.0740  138.8230 C   0  0  1  0  0  3  0  0  0  0  0  0
  179.2800  176.4280  141.6540 O   0  0  0  0  0  0  0  0  0  0  0  0
  182.1420  176.2250  139.7820 C   0  0  2  0  0  3  0  0  0  0  0  0
  185.0030  176.8270  137.4270 N   0  0  0  0  0  0  0  0  0  0  0  0
  185.7790  179.0670  137.8320 N   0  0  0  0  0  2  0  0  0  0  0  0
  179.3410  177.2940  140.7410 C   0  0  0  0  0  0  0  0  0  0  0  0
  182.4540  178.2800  141.2330 C   0  0  0  0  0  0  0  0  0  0  0  0
  181.0130  175.6070  137.8040 C   0  0  0  0  0  0  0  0  0  0  0  0
  186.5980  177.7250  135.8620 C   0  0  0  0  0  1  0  0  0  0  0  0
  179.7750  176.9280  139.4280 N   0  0  0  0  0  2  0  0  0  0  0  0
  183.4690  177.8280  142.0880 C   0  0  0  0  0  3  0  0  0  0  0  0
  181.5400  179.6090  143.0520 C   0  0  0  0  0  3  0  0  0  0  0  0
  182.5720  179.1750  143.8870 C   0  0  0  0  0  3  0  0  0  0  0  0
  179.0690  178.7250  141.0690 C   0  0  0  0  0  2  0  0  0  0  0  0
  183.1620  175.6990  138.7410 C   0  0  2  0  0  3  0  0  0  0  0  0
  180.7430  175.8500  139.2380 C   0  0  2  0  0  3  0  0  0  0  0  0
  184.2050  176.8080  138.6530 C   0  0  2  0  0  3  0  0  0  0  0  0
  182.9260  174.9150  136.3100 C   0  0  0  0  0  1  0  0  0  0  0  0
  182.3420  177.7530  139.8300 C   0  0  1  0  0  3  0  0  0  0  0  0
  1 21  1  0  0  0  0
  2  8  2  0  0  0  0
  3 17  2  0  0  0  0
  4 22  1  0  0  0  0
  5 17  1  0  0  0  0
  5 24  1  0  0  0  0
  6 23  1  0  0  0  0
  6  1  1  0  0  0  0
  8  7  2  0  0  0  0
  9 13  2  0  0  0  0
  9 14  1  0  0  0  0
 10  8  1  1  0  0  0
 10 28  1  0  0  0  0
 12 28  1  0  0  0  0
 13 26  1  0  0  0  0
 14  8  1  0  0  0  0
 15 23  1  0  0  0  0
 15 11  2  0  0  0  0
 16  1  2  0  0  0  0
 16 20  1  0  0  0  0
 17 25  1  0  0  0  0
 18  9  1  0  0  0  0
 19 15  1  0  0  0  0
 20  4  2  0  0  0  0
 21 22  2  0  0  0  0
 24 12  1  0  0  0  0
 25 19  1  0  0  0  0
 25 12  1  0  0  0  0
 26 24  1  0  0  0  0
 26 10  1  0  0  0  0
 27  5  1  0  0  0  0
 28 16  1  0  0  0  0
M  END
>  <MODEL>
1

>  <REMARK>
 VINA RESULT:      -6.1      0.000      0.000
  Name = 
  0 active torsions:
  status: ('A' for Active; 'I' for Inactive)
                            x       y       z     vdW  Elec       q    Type
                         _______ _______ _______ _____ _____    ______ ____

>  <TORSDO>
F 0

$$$$
=
 OpenBabel11122412003D

 28 32  0  0  1  0  0  0  0  0999 V2000
  190.7400  177.4990  147.3470 C   0  0  0  0  0  0  0  0  0  0  0  0
  191.5800  179.4880  143.8280 O   0  0  0  0  0  0  0  0  0  0  0  0
  184.9880  178.8990  145.3920 O   0  0  0  0  0  0  0  0  0  0  0  0
  191.7210  175.0070  146.5200 C   0  0  0  0  0  3  0  0  0  0  0  0
  186.3230  177.7160  143.8550 N   0  0  0  0  0  0  0  0  0  0  0  0
  190.1850  178.8030  147.8540 C   0  0  0  0  0  2  0  0  0  0  0  0
  191.8510  177.0510  143.5330 O   0  0  0  0  0  0  0  0  0  0  0  0
  190.9510  178.2300  143.2990 S   0  0  0  0  0  0  0  0  0  0  0  0
  189.3030  178.1210  141.0790 C   0  0  0  0  0  0  0  0  0  0  0  0
  189.3380  178.0090  143.9920 C   0  0  1  0  0  3  0  0  0  0  0  0
  187.6720  176.6920  148.8360 O   0  0  0  0  0  0  0  0  0  0  0  0
  187.8230  176.7090  145.4130 C   0  0  2  0  0  3  0  0  0  0  0  0
  188.3670  177.5560  141.7970 N   0  0  0  0  0  0  0  0  0  0  0  0
  190.6180  178.3830  141.6060 N   0  0  0  0  0  2  0  0  0  0  0  0
  187.9330  177.8260  148.3540 C   0  0  0  0  0  0  0  0  0  0  0  0
  190.2340  176.8950  146.1750 C   0  0  0  0  0  0  0  0  0  0  0  0
  185.9310  178.0970  145.1620 C   0  0  0  0  0  0  0  0  0  0  0  0
  188.9850  178.5510  139.6920 C   0  0  0  0  0  1  0  0  0  0  0  0
  187.2070  178.3120  147.2220 N   0  0  0  0  0  2  0  0  0  0  0  0
  190.7160  175.6380  145.7830 C   0  0  0  0  0  3  0  0  0  0  0  0
  191.7450  176.8570  148.0800 C   0  0  0  0  0  3  0  0  0  0  0  0
  192.2380  175.6190  147.6640 C   0  0  0  0  0  3  0  0  0  0  0  0
  189.0830  178.6070  148.9010 C   0  0  0  0  0  2  0  0  0  0  0  0
  187.3480  176.6820  143.9390 C   0  0  2  0  0  3  0  0  0  0  0  0
  186.6890  177.3880  146.2170 C   0  0  2  0  0  3  0  0  0  0  0  0
  188.6010  177.0290  143.1410 C   0  0  2  0  0  3  0  0  0  0  0  0
  185.4870  177.9240  142.6840 C   0  0  0  0  0  1  0  0  0  0  0  0
  189.1120  177.5550  145.4240 C   0  0  1  0  0  3  0  0  0  0  0  0
  1  6  1  0  0  0  0
  1 21  1  0  0  0  0
  4 22  1  0  0  0  0
  5 24  1  0  0  0  0
  5 17  1  0  0  0  0
  6 23  1  0  0  0  0
  8  7  2  0  0  0  0
  8  2  2  0  0  0  0
  9 14  1  0  0  0  0
  9 13  2  0  0  0  0
 10  8  1  6  0  0  0
 10 28  1  0  0  0  0
 12 28  1  0  0  0  0
 12 25  1  0  0  0  0
 13 26  1  0  0  0  0
 14  8  1  0  0  0  0
 15 11  2  0  0  0  0
 15 23  1  0  0  0  0
 16  1  2  0  0  0  0
 17  3  2  0  0  0  0
 17 25  1  0  0  0  0
 18  9  1  0  0  0  0
 19 15  1  0  0  0  0
 20 16  1  0  0  0  0
 20  4  2  0  0  0  0
 22 21  2  0  0  0  0
 24 12  1  0  0  0  0
 25 19  1  0  0  0  0
 26 24  1  0  0  0  0
 26 10  1  0  0  0  0
 27  5  1  0  0  0  0
 28 16  1  0  0  0  0
M  END
>  <MODEL>
2

>  <REMARK>
 VINA RESULT:      -6.1      6.881      9.081
  Name = 
  0 active torsions:
  status: ('A' for Active; 'I' for Inactive)
                            x       y       z     vdW  Elec       q    Type
                         _______ _______ _______ _____ _____    ______ ____

>  <TORSDO>
F 0

$$$$
=
 OpenBabel11122412003D

 28 32  0  0  1  0  0  0  0  0999 V2000
  182.7490  177.2390  138.1370 C   0  0  0  0  0  0  0  0  0  0  0  0
  184.1920  173.4030  137.6410 O   0  0  0  0  0  0  0  0  0  0  0  0
  188.7760  178.0700  139.4980 O   0  0  0  0  0  0  0  0  0  0  0  0
  182.0530  177.6430  135.4500 C   0  0  0  0  0  3  0  0  0  0  0  0
  188.3340  177.0860  137.4060 N   0  0  0  0  0  0  0  0  0  0  0  0
  183.1080  177.0980  139.5910 C   0  0  0  0  0  2  0  0  0  0  0  0
  183.8090  174.4760  135.4490 O   0  0  0  0  0  0  0  0  0  0  0  0
  184.8380  174.1010  136.4780 S   0  0  0  0  0  0  0  0  0  0  0  0
  187.3890  173.5610  135.5530 C   0  0  0  0  0  0  0  0  0  0  0  0
  185.7830  175.4880  137.0390 C   0  0  1  0  0  3  0  0  0  0  0  0
  184.4050  180.2090  138.9830 O   0  0  0  0  0  0  0  0  0  0  0  0
  186.1180  177.9150  137.1010 C   0  0  2  0  0  3  0  0  0  0  0  0
  187.7120  174.8200  135.6970 N   0  0  0  0  0  0  0  0  0  0  0  0
  186.0440  173.0890  135.7560 N   0  0  0  0  0  2  0  0  0  0  0  0
  184.5920  179.1150  139.5790 C   0  0  0  0  0  0  0  0  0  0  0  0
  183.7220  177.0850  137.1250 C   0  0  0  0  0  0  0  0  0  0  0  0
  188.0090  177.9080  138.5130 C   0  0  0  0  0  0  0  0  0  0  0  0
  188.4530  172.5790  135.2180 C   0  0  0  0  0  1  0  0  0  0  0  0
  185.8670  178.4710  139.5200 N   0  0  0  0  0  2  0  0  0  0  0  0
  183.3680  177.3110  135.7870 C   0  0  0  0  0  3  0  0  0  0  0  0
  181.4350  177.5750  137.7900 C   0  0  0  0  0  3  0  0  0  0  0  0
  181.0870  177.7700  136.4520 C   0  0  0  0  0  3  0  0  0  0  0  0
  183.4400  178.4410  140.2500 C   0  0  0  0  0  2  0  0  0  0  0  0
  187.3010  177.2180  136.3850 C   0  0  2  0  0  3  0  0  0  0  0  0
  186.7200  178.6150  138.3430 C   0  0  2  0  0  3  0  0  0  0  0  0
  186.7280  175.8720  135.9490 C   0  0  2  0  0  3  0  0  0  0  0  0
  189.6860  176.6320  137.1240 C   0  0  0  0  0  1  0  0  0  0  0  0
  185.1450  176.7870  137.5020 C   0  0  1  0  0  3  0  0  0  0  0  0
  1  6  1  0  0  0  0
  4 20  2  0  0  0  0
  4 22  1  0  0  0  0
  5 17  1  0  0  0  0
  6 23  1  0  0  0  0
  7  8  2  0  0  0  0
  8  2  2  0  0  0  0
  9 13  2  0  0  0  0
  9 14  1  0  0  0  0
 10  8  1  6  0  0  0
 10 28  1  0  0  0  0
 11 15  2  0  0  0  0
 12 28  1  0  0  0  0
 12 25  1  0  0  0  0
 13 26  1  0  0  0  0
 14  8  1  0  0  0  0
 15 23  1  0  0  0  0
 16 28  1  0  0  0  0
 16  1  2  0  0  0  0
 17  3  2  0  0  0  0
 18  9  1  0  0  0  0
 19 15  1  0  0  0  0
 20 16  1  0  0  0  0
 21  1  1  0  0  0  0
 22 21  2  0  0  0  0
 24 12  1  0  0  0  0
 24  5  1  0  0  0  0
 25 17  1  0  0  0  0
 25 19  1  0  0  0  0
 26 24  1  0  0  0  0
 26 10  1  0  0  0  0
 27  5  1  0  0  0  0
M  END
>  <MODEL>
3

>  <REMARK>
 VINA RESULT:      -5.8      3.241      6.000
  Name = 
  0 active torsions:
  status: ('A' for Active; 'I' for Inactive)
                            x       y       z     vdW  Elec       q    Type
                         _______ _______ _______ _____ _____    ______ ____

>  <TORSDO>
F 0

$$$$
=
 OpenBabel11122412003D

 28 32  0  0  1  0  0  0  0  0999 V2000
  180.7100  176.6780  137.4980 C   0  0  0  0  0  0  0  0  0  0  0  0
  184.4490  174.9860  137.0480 O   0  0  0  0  0  0  0  0  0  0  0  0
  183.4030  178.3420  142.8690 O   0  0  0  0  0  0  0  0  0  0  0  0
  180.9650  178.5210  135.4000 C   0  0  0  0  0  3  0  0  0  0  0  0
  184.5650  178.9600  140.9170 N   0  0  0  0  0  0  0  0  0  0  0  0
  180.5080  175.7250  138.6450 C   0  0  0  0  0  2  0  0  0  0  0  0
  184.2570  177.0390  135.6900 O   0  0  0  0  0  0  0  0  0  0  0  0
  184.7880  176.4470  136.9630 S   0  0  0  0  0  0  0  0  0  0  0  0
  187.0880  177.5800  138.0040 C   0  0  0  0  0  0  0  0  0  0  0  0
  184.2140  177.2970  138.4060 C   0  0  1  0  0  3  0  0  0  0  0  0
  179.3790  178.6140  140.0990 O   0  0  0  0  0  0  0  0  0  0  0  0
  182.7170  178.9590  139.4080 C   0  0  2  0  0  3  0  0  0  0  0  0
  186.3640  178.4170  138.7010 N   0  0  0  0  0  0  0  0  0  0  0  0
  186.5020  176.6780  137.0450 N   0  0  0  0  0  2  0  0  0  0  0  0
  180.0390  177.5570  140.2870 C   0  0  0  0  0  0  0  0  0  0  0  0
  181.7890  177.5890  137.4870 C   0  0  0  0  0  0  0  0  0  0  0  0
  183.3930  178.6410  141.6460 C   0  0  0  0  0  0  0  0  0  0  0  0
  188.5530  177.5230  138.2440 C   0  0  0  0  0  1  0  0  0  0  0  0
  181.3030  177.6060  140.9540 N   0  0  0  0  0  2  0  0  0  0  0  0
  181.8940  178.5210  136.4440 C   0  0  0  0  0  3  0  0  0  0  0  0
  179.7820  176.6880  136.4500 C   0  0  0  0  0  3  0  0  0  0  0  0
  179.9130  177.6010  135.4020 C   0  0  0  0  0  3  0  0  0  0  0  0
  179.5470  176.2730  139.7060 C   0  0  0  0  0  2  0  0  0  0  0  0
  184.1970  179.3860  139.5720 C   0  0  2  0  0  3  0  0  0  0  0  0
  182.1600  178.7840  140.8400 C   0  0  2  0  0  3  0  0  0  0  0  0
  184.9290  178.6040  138.4850 C   0  0  2  0  0  3  0  0  0  0  0  0
  185.8250  179.3090  141.5530 C   0  0  0  0  0  1  0  0  0  0  0  0
  182.7480  177.6210  138.6430 C   0  0  1  0  0  3  0  0  0  0  0  0
  1  6  1  0  0  0  0
  4 22  2  0  0  0  0
  4 20  1  0  0  0  0
  5 27  1  0  0  0  0
  5 17  1  0  0  0  0
  6 23  1  0  0  0  0
  7  8  2  0  0  0  0
  8 14  1  0  0  0  0
  8  2  2  0  0  0  0
  9 18  1  0  0  0  0
  9 13  2  0  0  0  0
 10  8  1  6  0  0  0
 10 26  1  0  0  0  0
 10 28  1  0  0  0  0
 11 15  2  0  0  0  0
 12 24  1  0  0  0  0
 12 25  1  0  0  0  0
 14  9  1  0  0  0  0
 15 19  1  0  0  0  0
 16  1  1  0  0  0  0
 16 28  1  0  0  0  0
 17  3  2  0  0  0  0
 20 16  2  0  0  0  0
 21  1  2  0  0  0  0
 22 21  1  0  0  0  0
 23 15  1  0  0  0  0
 24  5  1  0  0  0  0
 25 19  1  0  0  0  0
 25 17  1  0  0  0  0
 26 13  1  0  0  0  0
 26 24  1  0  0  0  0
 28 12  1  0  0  0  0
M  END
>  <MODEL>
4

>  <REMARK>
 VINA RESULT:      -5.7      2.446      4.769
  Name = 
  0 active torsions:
  status: ('A' for Active; 'I' for Inactive)
                            x       y       z     vdW  Elec       q    Type
                         _______ _______ _______ _____ _____    ______ ____

>  <TORSDO>
F 0

$$$$
=
 OpenBabel11122412003D

 28 32  0  0  1  0  0  0  0  0999 V2000
  190.4860  177.2970  144.3810 C   0  0  0  0  0  0  0  0  0  0  0  0
  189.0490  179.6140  141.2810 O   0  0  0  0  0  0  0  0  0  0  0  0
  185.2350  179.5110  146.9110 O   0  0  0  0  0  0  0  0  0  0  0  0
  190.2420  174.8400  143.0530 C   0  0  0  0  0  3  0  0  0  0  0  0
  184.9800  178.3990  144.8520 N   0  0  0  0  0  0  0  0  0  0  0  0
  190.6330  178.5770  145.1590 C   0  0  0  0  0  2  0  0  0  0  0  0
  188.6570  177.2180  140.8280 O   0  0  0  0  0  0  0  0  0  0  0  0
  188.0370  178.5030  141.2960 S   0  0  0  0  0  0  0  0  0  0  0  0
  185.3360  178.8410  140.7980 C   0  0  0  0  0  0  0  0  0  0  0  0
  187.3000  178.3630  142.8990 C   0  0  1  0  0  3  0  0  0  0  0  0
  189.1370  176.6270  147.5450 O   0  0  0  0  0  0  0  0  0  0  0  0
  186.9500  177.0570  144.9430 C   0  0  2  0  0  3  0  0  0  0  0  0
  185.0510  178.2900  141.9490 N   0  0  0  0  0  0  0  0  0  0  0  0
  186.6840  178.8990  140.2910 N   0  0  0  0  0  2  0  0  0  0  0  0
  189.1840  177.7800  147.0400 C   0  0  0  0  0  0  0  0  0  0  0  0
  189.2360  176.8990  143.8580 C   0  0  0  0  0  0  0  0  0  0  0  0
  185.6350  178.6510  146.0820 C   0  0  0  0  0  0  0  0  0  0  0  0
  184.2450  179.4710  140.0120 C   0  0  0  0  0  1  0  0  0  0  0  0
  187.9760  178.4760  146.7200 N   0  0  0  0  0  2  0  0  0  0  0  0
  189.1200  175.6580  143.2150 C   0  0  0  0  0  3  0  0  0  0  0  0
  191.6020  176.4690  144.2170 C   0  0  0  0  0  3  0  0  0  0  0  0
  191.4820  175.2490  143.5490 C   0  0  0  0  0  3  0  0  0  0  0  0
  190.5080  178.3660  146.6720 C   0  0  0  0  0  2  0  0  0  0  0  0
  185.6130  177.2640  144.1900 C   0  0  2  0  0  3  0  0  0  0  0  0
  186.7780  177.7420  146.3190 C   0  0  2  0  0  3  0  0  0  0  0  0
  186.0390  177.5770  142.7590 C   0  0  2  0  0  3  0  0  0  0  0  0
  183.6220  178.8360  144.5710 C   0  0  0  0  0  1  0  0  0  0  0  0
  188.0260  177.7590  144.0900 C   0  0  1  0  0  3  0  0  0  0  0  0
  1  6  1  0  0  0  0
  2  8  2  0  0  0  0
  4 20  2  0  0  0  0
  4 22  1  0  0  0  0
  5 17  1  0  0  0  0
  6 23  1  0  0  0  0
  7  8  2  0  0  0  0
  9 13  2  0  0  0  0
 10  8  1  6  0  0  0
 10 28  1  0  0  0  0
 12 25  1  0  0  0  0
 13 26  1  0  0  0  0
 14  9  1  0  0  0  0
 14  8  1  0  0  0  0
 15 11  2  0  0  0  0
 16 28  1  0  0  0  0
 16  1  2  0  0  0  0
 17 25  1  0  0  0  0
 17  3  2  0  0  0  0
 18  9  1  0  0  0  0
 19 15  1  0  0  0  0
 20 16  1  0  0  0  0
 21  1  1  0  0  0  0
 22 21  2  0  0  0  0
 23 15  1  0  0  0  0
 24  5  1  0  0  0  0
 24 12  1  0  0  0  0
 25 19  1  0  0  0  0
 26 10  1  0  0  0  0
 26 24  1  0  0  0  0
 27  5  1  0  0  0  0
 28 12  1  0  0  0  0
M  END
>  <MODEL>
5

>  <REMARK>
 VINA RESULT:      -5.7      5.702      8.330
  Name = 
  0 active torsions:
  status: ('A' for Active; 'I' for Inactive)
                            x       y       z     vdW  Elec       q    Type
                         _______ _______ _______ _____ _____    ______ ____

>  <TORSDO>
F 0

$$$$
=
 OpenBabel11122412003D

 28 32  0  0  1  0  0  0  0  0999 V2000
  181.6680  178.6160  140.5710 C   0  0  0  0  0  0  0  0  0  0  0  0
  180.3410  174.7160  140.2910 O   0  0  0  0  0  0  0  0  0  0  0  0
  186.0870  176.1340  136.9410 O   0  0  0  0  0  0  0  0  0  0  0  0
  179.4990  179.7650  139.2160 C   0  0  0  0  0  3  0  0  0  0  0  0
  183.8770  175.8700  136.1740 N   0  0  0  0  0  0  0  0  0  0  0  0
  182.8680  178.0680  141.2960 C   0  0  0  0  0  2  0  0  0  0  0  0
  178.9920  176.1980  138.8460 O   0  0  0  0  0  0  0  0  0  0  0  0
  180.1100  175.1960  138.8850 S   0  0  0  0  0  0  0  0  0  0  0  0
  180.4740  173.6420  136.6250 C   0  0  0  0  0  0  0  0  0  0  0  0
  181.6140  175.8200  138.1920 C   0  0  1  0  0  3  0  0  0  0  0  0
  184.4390  180.1940  139.1180 O   0  0  0  0  0  0  0  0  0  0  0  0
  182.8960  177.7180  137.3210 C   0  0  2  0  0  3  0  0  0  0  0  0
  181.2970  174.5340  136.1400 N   0  0  0  0  0  0  0  0  0  0  0  0
  179.7370  173.8640  137.8430 N   0  0  0  0  0  2  0  0  0  0  0  0
  184.4950  179.0650  139.6750 C   0  0  0  0  0  0  0  0  0  0  0  0
  181.3400  178.1810  139.2690 C   0  0  0  0  0  0  0  0  0  0  0  0
  184.8960  176.5410  136.8930 C   0  0  0  0  0  0  0  0  0  0  0  0
  180.3300  172.3390  135.9250 C   0  0  0  0  0  1  0  0  0  0  0  0
  184.8120  177.8990  138.9100 N   0  0  0  0  0  2  0  0  0  0  0  0
  180.2670  178.7780  138.5910 C   0  0  0  0  0  3  0  0  0  0  0  0
  180.8950  179.6070  141.1870 C   0  0  0  0  0  3  0  0  0  0  0  0
  179.8110  180.1740  140.5140 C   0  0  0  0  0  3  0  0  0  0  0  0
  184.1160  178.9380  141.1140 C   0  0  0  0  0  2  0  0  0  0  0  0
  182.6550  176.6650  136.2110 C   0  0  2  0  0  3  0  0  0  0  0  0
  184.4300  177.8060  137.5020 C   0  0  2  0  0  3  0  0  0  0  0  0
  181.4510  175.8730  136.7100 C   0  0  2  0  0  3  0  0  0  0  0  0
  184.1510  174.8670  135.1580 C   0  0  0  0  0  1  0  0  0  0  0  0
  182.2070  177.1630  138.5840 C   0  0  1  0  0  3  0  0  0  0  0  0
  1 21  1  0  0  0  0
  1  6  1  0  0  0  0
  4 22  1  0  0  0  0
  5 24  1  0  0  0  0
  5 17  1  0  0  0  0
  7  8  2  0  0  0  0
  8  2  2  0  0  0  0
  9 14  1  0  0  0  0
 10 28  1  0  0  0  0
 10  8  1  1  0  0  0
 11 15  2  0  0  0  0
 12 25  1  0  0  0  0
 12 28  1  0  0  0  0
 13  9  2  0  0  0  0
 13 26  1  0  0  0  0
 14  8  1  0  0  0  0
 15 23  1  0  0  0  0
 16  1  2  0  0  0  0
 17  3  2  0  0  0  0
 17 25  1  0  0  0  0
 18  9  1  0  0  0  0
 19 15  1  0  0  0  0
 20  4  2  0  0  0  0
 20 16  1  0  0  0  0
 22 21  2  0  0  0  0
 23  6  1  0  0  0  0
 24 26  1  0  0  0  0
 24 12  1  0  0  0  0
 25 19  1  0  0  0  0
 26 10  1  0  0  0  0
 27  5  1  0  0  0  0
 28 16  1  0  0  0  0
M  END
>  <MODEL>
6

>  <REMARK>
 VINA RESULT:      -5.3      2.308      4.956
  Name = 
  0 active torsions:
  status: ('A' for Active; 'I' for Inactive)
                            x       y       z     vdW  Elec       q    Type
                         _______ _______ _______ _____ _____    ______ ____

>  <TORSDO>
F 0

$$$$
=
 OpenBabel11122412003D

 28 32  0  0  1  0  0  0  0  0999 V2000
  181.4980  176.7030  138.0080 C   0  0  0  0  0  0  0  0  0  0  0  0
  184.2020  173.6150  137.5600 O   0  0  0  0  0  0  0  0  0  0  0  0
  186.2520  178.8000  141.4530 O   0  0  0  0  0  0  0  0  0  0  0  0
  181.5130  177.5010  135.3200 C   0  0  0  0  0  3  0  0  0  0  0  0
  186.7820  178.2340  139.2300 N   0  0  0  0  0  0  0  0  0  0  0  0
  181.4490  176.3380  139.4670 C   0  0  0  0  0  2  0  0  0  0  0  0
  184.1360  175.0120  135.5240 O   0  0  0  0  0  0  0  0  0  0  0  0
  184.8880  174.7060  136.7880 S   0  0  0  0  0  0  0  0  0  0  0  0
  187.6270  175.1000  136.7370 C   0  0  0  0  0  0  0  0  0  0  0  0
  185.1200  176.1320  137.8100 C   0  0  1  0  0  3  0  0  0  0  0  0
  181.7660  179.7380  139.7390 O   0  0  0  0  0  0  0  0  0  0  0  0
  184.6030  178.4790  138.2880 C   0  0  2  0  0  3  0  0  0  0  0  0
  187.4600  176.3320  137.1410 N   0  0  0  0  0  0  0  0  0  0  0  0
  186.5130  174.2480  136.4030 N   0  0  0  0  0  2  0  0  0  0  0  0
  182.1220  178.6290  140.2200 C   0  0  0  0  0  0  0  0  0  0  0  0
  182.7150  177.0510  137.3810 C   0  0  0  0  0  0  0  0  0  0  0  0
  185.8990  178.6640  140.2510 C   0  0  0  0  0  0  0  0  0  0  0  0
  189.0030  174.5440  136.6680 C   0  0  0  0  0  1  0  0  0  0  0  0
  183.4980  178.3840  140.5230 N   0  0  0  0  0  2  0  0  0  0  0  0
  182.7080  177.4700  136.0430 C   0  0  0  0  0  3  0  0  0  0  0  0
  180.3060  176.7410  137.2750 C   0  0  0  0  0  3  0  0  0  0  0  0
  180.3140  177.1320  135.9350 C   0  0  0  0  0  3  0  0  0  0  0  0
  181.1160  177.5350  140.3630 C   0  0  0  0  0  2  0  0  0  0  0  0
  186.1030  178.3090  137.9410 C   0  0  2  0  0  3  0  0  0  0  0  0
  184.5570  179.0160  139.7390 C   0  0  2  0  0  3  0  0  0  0  0  0
  186.1560  176.9940  137.1690 C   0  0  2  0  0  3  0  0  0  0  0  0
  188.2280  178.2380  139.3760 C   0  0  0  0  0  1  0  0  0  0  0  0
  183.9850  177.0710  138.1840 C   0  0  1  0  0  3  0  0  0  0  0  0
  1  6  1  0  0  0  0
  4 22  2  0  0  0  0
  4 20  1  0  0  0  0
  5 27  1  0  0  0  0
  5 17  1  0  0  0  0
  6 23  1  0  0  0  0
  7  8  2  0  0  0  0
  8  2  2  0  0  0  0
  9 13  2  0  0  0  0
 10  8  1  6  0  0  0
 10 28  1  0  0  0  0
 11 15  2  0  0  0  0
 12 25  1  0  0  0  0
 13 26  1  0  0  0  0
 14  9  1  0  0  0  0
 14  8  1  0  0  0  0
 15 23  1  0  0  0  0
 15 19  1  0  0  0  0
 16  1  1  0  0  0  0
 16 28  1  0  0  0  0
 17  3  2  0  0  0  0
 18  9  1  0  0  0  0
 20 16  2  0  0  0  0
 21  1  2  0  0  0  0
 22 21  1  0  0  0  0
 24 12  1  0  0  0  0
 24  5  1  0  0  0  0
 25 17  1  0  0  0  0
 25 19  1  0  0  0  0
 26 10  1  0  0  0  0
 26 24  1  0  0  0  0
 28 12  1  0  0  0  0
M  END
>  <MODEL>
7

>  <REMARK>
 VINA RESULT:      -5.1      2.662      5.247
  Name = 
  0 active torsions:
  status: ('A' for Active; 'I' for Inactive)
                            x       y       z     vdW  Elec       q    Type
                         _______ _______ _______ _____ _____    ______ ____

>  <TORSDO>
F 0

$$$$
=
 OpenBabel11122412003D

 28 32  0  0  1  0  0  0  0  0999 V2000
  189.5950  175.5280  136.3800 C   0  0  0  0  0  0  0  0  0  0  0  0
  188.2800  177.5960  139.7020 O   0  0  0  0  0  0  0  0  0  0  0  0
  184.2570  172.5390  137.5830 O   0  0  0  0  0  0  0  0  0  0  0  0
  189.3960  177.6800  134.5940 C   0  0  0  0  0  3  0  0  0  0  0  0
  184.0770  174.8720  137.3160 N   0  0  0  0  0  0  0  0  0  0  0  0
  189.7150  174.3270  137.2780 C   0  0  0  0  0  2  0  0  0  0  0  0
  187.9010  178.9180  137.6500 O   0  0  0  0  0  0  0  0  0  0  0  0
  187.2660  178.0280  138.6800 S   0  0  0  0  0  0  0  0  0  0  0  0
  184.5870  178.4580  139.2220 C   0  0  0  0  0  0  0  0  0  0  0  0
  186.4690  176.6180  137.9690 C   0  0  1  0  0  3  0  0  0  0  0  0
  188.1260  172.8850  134.6080 O   0  0  0  0  0  0  0  0  0  0  0  0
  186.0400  175.2170  136.0040 C   0  0  2  0  0  3  0  0  0  0  0  0
  184.2570  177.6040  138.2880 N   0  0  0  0  0  0  0  0  0  0  0  0
  185.9520  178.8610  139.4420 N   0  0  0  0  0  2  0  0  0  0  0  0
  188.1940  172.9260  135.8650 C   0  0  0  0  0  0  0  0  0  0  0  0
  188.3650  176.2040  136.2240 C   0  0  0  0  0  0  0  0  0  0  0  0
  184.6860  173.6140  137.0850 C   0  0  0  0  0  0  0  0  0  0  0  0
  183.5260  178.9920  140.1150 C   0  0  0  0  0  1  0  0  0  0  0  0
  187.0010  173.0070  136.6490 N   0  0  0  0  0  2  0  0  0  0  0  0
  188.2700  177.2640  135.3110 C   0  0  0  0  0  3  0  0  0  0  0  0
  190.7150  175.9490  135.6540 C   0  0  0  0  0  3  0  0  0  0  0  0
  190.6170  177.0250  134.7690 C   0  0  0  0  0  3  0  0  0  0  0  0
  189.5320  173.0050  136.5240 C   0  0  0  0  0  2  0  0  0  0  0  0
  184.7320  175.8840  136.4960 C   0  0  2  0  0  3  0  0  0  0  0  0
  185.8170  173.6910  136.1350 C   0  0  2  0  0  3  0  0  0  0  0  0
  185.2130  177.0820  137.3110 C   0  0  2  0  0  3  0  0  0  0  0  0
  182.7310  175.0160  137.8470 C   0  0  0  0  0  1  0  0  0  0  0  0
  187.1480  175.7110  136.9550 C   0  0  1  0  0  3  0  0  0  0  0  0
  1  6  1  0  0  0  0
  4 22  2  0  0  0  0
  4 20  1  0  0  0  0
  5 27  1  0  0  0  0
  7  8  2  0  0  0  0
  8 14  1  0  0  0  0
  8  2  2  0  0  0  0
  9 14  1  0  0  0  0
  9 18  1  0  0  0  0
 10  8  1  6  0  0  0
 11 15  2  0  0  0  0
 12 25  1  0  0  0  0
 12 24  1  0  0  0  0
 12 28  1  0  0  0  0
 13  9  2  0  0  0  0
 15 23  1  0  0  0  0
 15 19  1  0  0  0  0
 16  1  1  0  0  0  0
 16 28  1  0  0  0  0
 17  5  1  0  0  0  0
 17  3  2  0  0  0  0
 20 16  2  0  0  0  0
 21  1  2  0  0  0  0
 22 21  1  0  0  0  0
 23  6  1  0  0  0  0
 24 26  1  0  0  0  0
 24  5  1  0  0  0  0
 25 19  1  0  0  0  0
 25 17  1  0  0  0  0
 26 10  1  0  0  0  0
 26 13  1  0  0  0  0
 28 10  1  0  0  0  0
M  END
>  <MODEL>
8

>  <REMARK>
 VINA RESULT:      -5.0      3.572      7.462
  Name = 
  0 active torsions:
  status: ('A' for Active; 'I' for Inactive)
                            x       y       z     vdW  Elec       q    Type
                         _______ _______ _______ _____ _____    ______ ____

>  <TORSDO>
F 0

$$$$
=
 OpenBabel11122412003D

 28 32  0  0  1  0  0  0  0  0999 V2000
  181.7810  178.2680  138.6770 C   0  0  0  0  0  0  0  0  0  0  0  0
  181.6960  174.1860  138.0710 O   0  0  0  0  0  0  0  0  0  0  0  0
  187.8720  177.0290  138.1890 O   0  0  0  0  0  0  0  0  0  0  0  0
  180.4940  178.9500  136.2810 C   0  0  0  0  0  3  0  0  0  0  0  0
  186.5410  176.3010  136.3890 N   0  0  0  0  0  0  0  0  0  0  0  0
  182.4880  177.9780  139.9740 C   0  0  0  0  0  2  0  0  0  0  0  0
  181.0530  175.3830  136.0090 O   0  0  0  0  0  0  0  0  0  0  0  0
  182.1590  174.6620  136.7240 S   0  0  0  0  0  0  0  0  0  0  0  0
  184.0080  173.3350  135.1480 C   0  0  0  0  0  0  0  0  0  0  0  0
  183.6230  175.6440  136.8870 C   0  0  1  0  0  3  0  0  0  0  0  0
  184.4790  180.5020  138.7930 O   0  0  0  0  0  0  0  0  0  0  0  0
  184.7250  177.8220  136.6730 C   0  0  2  0  0  3  0  0  0  0  0  0
  184.7460  174.4130  135.1020 N   0  0  0  0  0  0  0  0  0  0  0  0
  182.7050  173.3280  135.7630 N   0  0  0  0  0  2  0  0  0  0  0  0
  184.4700  179.3920  139.3890 C   0  0  0  0  0  0  0  0  0  0  0  0
  182.3090  177.8290  137.4430 C   0  0  0  0  0  0  0  0  0  0  0  0
  186.8390  177.1550  137.4800 C   0  0  0  0  0  0  0  0  0  0  0  0
  184.5490  172.0670  134.5960 C   0  0  0  0  0  1  0  0  0  0  0  0
  185.3920  178.3650  139.0150 N   0  0  0  0  0  2  0  0  0  0  0  0
  181.6700  178.1940  136.2490 C   0  0  0  0  0  3  0  0  0  0  0  0
  180.6060  179.0280  138.6980 C   0  0  0  0  0  3  0  0  0  0  0  0
  179.9620  179.3620  137.5050 C   0  0  0  0  0  3  0  0  0  0  0  0
  183.4140  179.1180  140.4100 C   0  0  0  0  0  2  0  0  0  0  0  0
  185.3530  176.7930  135.7010 C   0  0  2  0  0  3  0  0  0  0  0  0
  185.8580  178.2510  137.6350 C   0  0  2  0  0  3  0  0  0  0  0  0
  184.2750  175.7240  135.5480 C   0  0  2  0  0  3  0  0  0  0  0  0
  187.5280  175.4340  135.7670 C   0  0  0  0  0  1  0  0  0  0  0  0
  183.6040  177.0680  137.4170 C   0  0  1  0  0  3  0  0  0  0  0  0
  1 21  1  0  0  0  0
  1  6  1  0  0  0  0
  4 22  1  0  0  0  0
  5 17  1  0  0  0  0
  6 23  1  0  0  0  0
  7  8  2  0  0  0  0
  8  2  2  0  0  0  0
  9 14  1  0  0  0  0
 10  8  1  6  0  0  0
 10 28  1  0  0  0  0
 11 15  2  0  0  0  0
 12 28  1  0  0  0  0
 12 25  1  0  0  0  0
 13  9  2  0  0  0  0
 13 26  1  0  0  0  0
 14  8  1  0  0  0  0
 15 23  1  0  0  0  0
 16  1  2  0  0  0  0
 17 25  1  0  0  0  0
 17  3  2  0  0  0  0
 18  9  1  0  0  0  0
 19 15  1  0  0  0  0
 20  4  2  0  0  0  0
 20 16  1  0  0  0  0
 22 21  2  0  0  0  0
 24  5  1  0  0  0  0
 24 12  1  0  0  0  0
 25 19  1  0  0  0  0
 26 24  1  0  0  0  0
 26 10  1  0  0  0  0
 27  5  1  0  0  0  0
 28 16  1  0  0  0  0
M  END
>  <MODEL>
9

>  <REMARK>
 VINA RESULT:      -4.8      2.725      5.452
  Name = 
  0 active torsions:
  status: ('A' for Active; 'I' for Inactive)
                            x       y       z     vdW  Elec       q    Type
                         _______ _______ _______ _____ _____    ______ ____

>  <TORSDO>
F 0

$$$$
