=
 OpenBabel11122410323D

 30 35  0  0  1  0  0  0  0  0999 V2000
  187.9850  178.0300  142.9610 C   0  0  2  0  0  3  0  0  0  0  0  0
  189.3630  177.4210  145.0240 C   0  0  2  0  0  3  0  0  0  0  0  0
  184.6100  178.9530  145.4200 N   0  0  0  0  0  2  0  0  0  0  0  0
  186.5660  178.1160  142.3730 C   0  0  2  0  0  3  0  0  0  0  0  0
  188.8520  177.1840  142.0380 C   0  0  0  0  0  2  0  0  0  0  0  0
  187.6500  178.6720  138.8250 O   0  0  0  0  0  1  0  0  0  0  0  0
  184.1600  177.8440  140.9200 C   0  0  1  0  0  3  0  0  0  0  0  0
  187.5470  177.9950  140.0450 C   0  0  1  0  0  3  0  0  0  0  0  0
  183.5240  178.2540  142.1970 N   0  0  2  0  0  0  0  0  0  0  0  0
  183.6560  179.4600  144.4290 C   0  0  2  0  0  3  0  0  0  0  0  0
  188.9430  177.8440  140.6640 C   0  0  2  0  0  3  0  0  0  0  0  0
  186.6000  178.7630  140.9830 C   0  0  1  0  0  3  0  0  0  0  0  0
  189.3050  176.7770  146.4120 C   0  0  0  0  0  2  0  0  0  0  0  0
  182.2390  178.8130  141.7650 C   0  0  0  0  0  2  0  0  0  0  0  0
  183.0480  177.6810  139.9440 C   0  0  0  0  0  2  0  0  0  0  0  0
  189.8910  178.7120  145.1150 O   0  0  0  0  0  1  0  0  0  0  0  0
  185.5920  178.2070  144.6540 C   0  0  1  0  0  3  0  0  0  0  0  0
  188.2940  177.4880  147.3110 C   0  0  0  0  0  2  0  0  0  0  0  0
  187.9640  177.4440  144.3890 C   0  0  1  0  0  3  0  0  0  0  0  0
  185.6900  178.9130  143.3380 C   0  0  2  0  0  3  0  0  0  0  0  0
  182.2890  178.8410  144.6850 C   0  0  0  0  0  1  0  0  0  0  0  0
  184.2450  179.2750  143.0000 C   0  0  1  0  0  3  0  0  0  0  0  0
  181.9550  178.2340  140.4290 C   0  0  0  0  0  2  0  0  0  0  0  0
  184.9350  179.6670  139.5820 O   0  0  0  0  0  0  0  0  0  0  0  0
  186.9110  177.4870  146.6650 C   0  0  0  0  0  2  0  0  0  0  0  0
  186.9680  178.1880  145.3100 C   0  0  2  0  0  3  0  0  0  0  0  0
  185.2140  178.8070  140.4050 C   0  0  0  0  0  0  0  0  0  0  0  0
  189.8270  177.0030  139.7570 C   0  0  0  0  0  2  0  0  0  0  0  0
  192.2910  176.8500  138.9090 O   0  0  0  0  0  0  0  0  0  0  0  0
  191.5620  177.2310  140.1890 S   0  0  0  0  0  3  0  0  0  0  0  0
  1  5  1  6  0  0  0
  1 19  1  0  0  0  0
  2 16  1  1  0  0  0
  2 13  1  0  0  0  0
  4  1  1  0  0  0  0
  4 20  1  0  0  0  0
  6  8  1  0  0  0  0
  7  9  1  0  0  0  0
  8 11  1  0  0  0  0
  8 12  1  0  0  0  0
  9 22  1  0  0  0  0
 10 21  1  0  0  0  0
 10  3  1  0  0  0  0
 11  5  1  0  0  0  0
 12  4  1  0  0  0  0
 13 18  1  0  0  0  0
 14  9  1  0  0  0  0
 15 23  1  0  0  0  0
 15  7  1  0  0  0  0
 17 26  1  0  0  0  0
 17  3  1  0  0  0  0
 19  2  1  0  0  0  0
 19 26  1  0  0  0  0
 20 17  1  0  0  0  0
 22 20  1  0  0  0  0
 22 10  1  0  0  0  0
 23 14  1  0  0  0  0
 24 27  2  0  0  0  0
 25 18  1  0  0  0  0
 26 25  1  0  0  0  0
 27  7  1  0  0  0  0
 27 12  1  0  0  0  0
 28 30  1  0  0  0  0
 28 11  1  0  0  0  0
 29 30  2  0  0  0  0
M  END
>  <MODEL>
1

>  <REMARK>
 VINA RESULT:     -10.3      0.000      0.000
  Name = 
  2 active torsions:
  status: ('A' for Active; 'I' for Inactive)
    1  A    between atoms: C_11  and  C_28
    2  A    between atoms: C_28  and  S_30
                            x       y       z     vdW  Elec       q    Type
                         _______ _______ _______ _____ _____    ______ ____

>  <TORSDO>
F 2

$$$$
=
 OpenBabel11122410323D

 30 35  0  0  1  0  0  0  0  0999 V2000
  189.3420  177.6160  143.2540 C   0  0  2  0  0  3  0  0  0  0  0  0
  191.1370  176.7410  144.8470 C   0  0  2  0  0  3  0  0  0  0  0  0
  186.7630  178.4900  146.5520 N   0  0  0  0  0  2  0  0  0  0  0  0
  187.8320  177.8340  143.0540 C   0  0  2  0  0  3  0  0  0  0  0  0
  189.8850  176.8140  142.0790 C   0  0  0  0  0  2  0  0  0  0  0  0
  188.0420  178.6600  139.4010 O   0  0  0  0  0  1  0  0  0  0  0  0
  185.1270  177.8320  142.2420 C   0  0  1  0  0  3  0  0  0  0  0  0
  188.1920  177.8780  140.5510 C   0  0  1  0  0  3  0  0  0  0  0  0
  184.8610  178.1560  143.6660 N   0  0  2  0  0  0  0  0  0  0  0  0
  185.6350  179.1390  145.8770 C   0  0  2  0  0  3  0  0  0  0  0  0
  189.6830  177.5930  140.7820 C   0  0  2  0  0  3  0  0  0  0  0  0
  187.5700  178.6060  141.7540 C   0  0  1  0  0  3  0  0  0  0  0  0
  191.3760  175.9750  146.1500 C   0  0  0  0  0  2  0  0  0  0  0  0
  183.5560  178.8230  143.6190 C   0  0  0  0  0  2  0  0  0  0  0  0
  183.7990  177.8230  141.5700 C   0  0  0  0  0  2  0  0  0  0  0  0
  191.7690  177.9880  144.9000 O   0  0  0  0  0  1  0  0  0  0  0  0
  187.4640  177.7650  145.5070 C   0  0  1  0  0  3  0  0  0  0  0  0
  190.6770  176.6540  147.3290 C   0  0  0  0  0  2  0  0  0  0  0  0
  189.6300  176.9010  144.5920 C   0  0  1  0  0  3  0  0  0  0  0  0
  187.2860  178.5850  144.2670 C   0  0  2  0  0  3  0  0  0  0  0  0
  184.3310  178.5740  146.4230 C   0  0  0  0  0  1  0  0  0  0  0  0
  185.8350  179.0560  144.3360 C   0  0  1  0  0  3  0  0  0  0  0  0
  182.9060  178.3870  142.3580 C   0  0  0  0  0  2  0  0  0  0  0  0
  185.6840  179.7280  140.8950 O   0  0  0  0  0  0  0  0  0  0  0  0
  189.1810  176.7890  147.0570 C   0  0  0  0  0  2  0  0  0  0  0  0
  188.9540  177.6090  145.7890 C   0  0  2  0  0  3  0  0  0  0  0  0
  186.0920  178.7800  141.5510 C   0  0  0  0  0  0  0  0  0  0  0  0
  190.2470  176.7930  139.6180 C   0  0  0  0  0  2  0  0  0  0  0  0
  192.3590  176.4170  138.1310 O   0  0  0  0  0  0  0  0  0  0  0  0
  192.0130  177.1100  139.4410 S   0  0  0  0  0  3  0  0  0  0  0  0
  1  5  1  6  0  0  0
  1 19  1  0  0  0  0
  2 16  1  1  0  0  0
  2 13  1  0  0  0  0
  4  1  1  0  0  0  0
  4 20  1  0  0  0  0
  6  8  1  0  0  0  0
  7  9  1  0  0  0  0
  8 11  1  0  0  0  0
  8 12  1  0  0  0  0
  9 22  1  0  0  0  0
 10 21  1  0  0  0  0
 10  3  1  0  0  0  0
 11  5  1  0  0  0  0
 12  4  1  0  0  0  0
 13 18  1  0  0  0  0
 14  9  1  0  0  0  0
 15  7  1  0  0  0  0
 15 23  1  0  0  0  0
 17 26  1  0  0  0  0
 17  3  1  0  0  0  0
 19  2  1  0  0  0  0
 19 26  1  0  0  0  0
 20 22  1  0  0  0  0
 20 17  1  0  0  0  0
 22 10  1  0  0  0  0
 23 14  1  0  0  0  0
 24 27  2  0  0  0  0
 25 18  1  0  0  0  0
 26 25  1  0  0  0  0
 27 12  1  0  0  0  0
 27  7  1  0  0  0  0
 28 11  1  0  0  0  0
 29 30  2  0  0  0  0
 30 28  1  0  0  0  0
M  END
>  <MODEL>
2

>  <REMARK>
 VINA RESULT:      -9.8      1.328      1.817
  Name = 
  2 active torsions:
  status: ('A' for Active; 'I' for Inactive)
    1  A    between atoms: C_11  and  C_28
    2  A    between atoms: C_28  and  S_30
                            x       y       z     vdW  Elec       q    Type
                         _______ _______ _______ _____ _____    ______ ____

>  <TORSDO>
F 2

$$$$
=
 OpenBabel11122410323D

 30 35  0  0  1  0  0  0  0  0999 V2000
  186.2980  177.9720  141.6160 C   0  0  2  0  0  3  0  0  0  0  0  0
  183.8530  178.7040  141.5020 C   0  0  2  0  0  3  0  0  0  0  0  0
  186.0550  177.6280  145.8710 N   0  0  0  0  0  2  0  0  0  0  0  0
  187.5640  177.9360  142.4890 C   0  0  2  0  0  3  0  0  0  0  0  0
  186.6370  178.6290  140.2840 C   0  0  0  0  0  2  0  0  0  0  0  0
  189.8960  176.8780  139.7490 O   0  0  0  0  0  1  0  0  0  0  0  0
  190.1130  178.2330  143.6690 C   0  0  1  0  0  3  0  0  0  0  0  0
  188.9730  177.7000  140.4020 C   0  0  1  0  0  3  0  0  0  0  0  0
  189.3760  178.0310  144.9420 N   0  0  2  0  0  0  0  0  0  0  0  0
  187.3780  177.0880  146.1970 C   0  0  2  0  0  3  0  0  0  0  0  0
  187.6970  177.8070  139.5550 C   0  0  2  0  0  3  0  0  0  0  0  0
  188.6700  177.1290  141.7970 C   0  0  1  0  0  3  0  0  0  0  0  0
  182.7630  179.5090  142.2120 C   0  0  0  0  0  2  0  0  0  0  0  0
  190.4120  177.5330  145.8520 C   0  0  0  0  0  2  0  0  0  0  0  0
  191.5460  178.3720  144.0450 C   0  0  0  0  0  2  0  0  0  0  0  0
  183.4190  177.3930  141.2850 O   0  0  0  0  0  1  0  0  0  0  0  0
  186.1930  178.1950  144.5420 C   0  0  1  0  0  3  0  0  0  0  0  0
  182.5310  178.9950  143.6340 C   0  0  0  0  0  2  0  0  0  0  0  0
  185.1510  178.7220  142.3250 C   0  0  1  0  0  3  0  0  0  0  0  0
  187.1990  177.3330  143.8450 C   0  0  2  0  0  3  0  0  0  0  0  0
  187.9490  177.8450  147.3890 C   0  0  0  0  0  1  0  0  0  0  0  0
  188.2550  177.0550  144.9120 C   0  0  1  0  0  3  0  0  0  0  0  0
  191.7130  177.9720  145.2890 C   0  0  0  0  0  2  0  0  0  0  0  0
  190.7060  176.2070  142.5470 O   0  0  0  0  0  0  0  0  0  0  0  0
  183.8290  179.0350  144.4340 C   0  0  0  0  0  2  0  0  0  0  0  0
  184.8910  178.1770  143.7490 C   0  0  2  0  0  3  0  0  0  0  0  0
  189.9110  177.1320  142.6430 C   0  0  0  0  0  0  0  0  0  0  0  0
  188.0120  178.4590  138.2180 C   0  0  0  0  0  2  0  0  0  0  0  0
  187.5170  175.9830  137.5560 O   0  0  0  0  0  0  0  0  0  0  0  0
  187.6130  177.3360  136.8660 S   0  0  0  0  0  3  0  0  0  0  0  0
  1  5  1  6  0  0  0
  1 19  1  0  0  0  0
  1  4  1  0  0  0  0
  2 16  1  1  0  0  0
  2 13  1  0  0  0  0
  2 19  1  0  0  0  0
  3 10  1  0  0  0  0
  4 20  1  0  0  0  0
  6  8  1  0  0  0  0
  7 15  1  0  0  0  0
  7  9  1  0  0  0  0
  8 12  1  0  0  0  0
  9 14  1  0  0  0  0
 10 21  1  0  0  0  0
 11  5  1  0  0  0  0
 11  8  1  0  0  0  0
 12  4  1  0  0  0  0
 12 27  1  0  0  0  0
 13 18  1  0  0  0  0
 15 23  1  0  0  0  0
 17  3  1  0  0  0  0
 18 25  1  0  0  0  0
 19 26  1  0  0  0  0
 20 17  1  0  0  0  0
 20 22  1  0  0  0  0
 22  9  1  0  0  0  0
 22 10  1  0  0  0  0
 23 14  1  0  0  0  0
 24 27  2  0  0  0  0
 26 25  1  0  0  0  0
 26 17  1  0  0  0  0
 27  7  1  0  0  0  0
 28 11  1  0  0  0  0
 30 29  2  0  0  0  0
 30 28  1  0  0  0  0
M  END
>  <MODEL>
3

>  <REMARK>
 VINA RESULT:      -8.8      2.059      5.520
  Name = 
  2 active torsions:
  status: ('A' for Active; 'I' for Inactive)
    1  A    between atoms: C_11  and  C_28
    2  A    between atoms: C_28  and  S_30
                            x       y       z     vdW  Elec       q    Type
                         _______ _______ _______ _____ _____    ______ ____

>  <TORSDO>
F 2

$$$$
=
 OpenBabel11122410323D

 30 35  0  0  1  0  0  0  0  0999 V2000
  187.4420  178.2940  143.9200 C   0  0  2  0  0  3  0  0  0  0  0  0
  185.1110  178.5610  144.9330 C   0  0  2  0  0  3  0  0  0  0  0  0
  185.8620  178.8850  139.9900 N   0  0  0  0  0  2  0  0  0  0  0  0
  188.2320  177.8740  142.6680 C   0  0  2  0  0  3  0  0  0  0  0  0
  187.9540  177.5010  145.1150 C   0  0  0  0  0  2  0  0  0  0  0  0
  191.5950  177.8300  144.3290 O   0  0  0  0  0  1  0  0  0  0  0  0
  189.8870  176.6630  140.7270 C   0  0  1  0  0  3  0  0  0  0  0  0
  190.2630  177.4580  144.1160 C   0  0  1  0  0  3  0  0  0  0  0  0
  188.8830  177.1890  139.7680 N   0  0  2  0  0  0  0  0  0  0  0  0
  187.0830  178.8830  139.1810 C   0  0  2  0  0  3  0  0  0  0  0  0
  189.4290  177.8170  145.3530 C   0  0  2  0  0  3  0  0  0  0  0  0
  189.7270  178.1600  142.8570 C   0  0  1  0  0  3  0  0  0  0  0  0
  183.6240  178.2710  144.7210 C   0  0  0  0  0  2  0  0  0  0  0  0
  189.6370  177.2850  138.5140 C   0  0  0  0  0  2  0  0  0  0  0  0
  190.9300  175.9970  139.9000 C   0  0  0  0  0  2  0  0  0  0  0  0
  185.3090  179.9280  145.1520 O   0  0  0  0  0  1  0  0  0  0  0  0
  186.2350  178.2530  141.2430 C   0  0  1  0  0  3  0  0  0  0  0  0
  183.1170  178.8950  143.4200 C   0  0  0  0  0  2  0  0  0  0  0  0
  185.9260  178.0770  143.7230 C   0  0  1  0  0  3  0  0  0  0  0  0
  187.6680  178.6280  141.4650 C   0  0  2  0  0  3  0  0  0  0  0  0
  186.8670  178.0160  137.9480 C   0  0  0  0  0  1  0  0  0  0  0  0
  188.3010  178.5200  140.0800 C   0  0  1  0  0  3  0  0  0  0  0  0
  190.7850  176.3530  138.6400 C   0  0  0  0  0  2  0  0  0  0  0  0
  191.5530  178.2530  141.3700 O   0  0  0  0  0  0  0  0  0  0  0  0
  183.9320  178.3900  142.2330 C   0  0  0  0  0  2  0  0  0  0  0  0
  185.4070  178.7400  142.4260 C   0  0  2  0  0  3  0  0  0  0  0  0
  190.4910  177.7120  141.6440 C   0  0  0  0  0  0  0  0  0  0  0  0
  189.9250  177.0380  146.5600 C   0  0  0  0  0  2  0  0  0  0  0  0
  189.0280  178.2530  148.6900 O   0  0  0  0  0  0  0  0  0  0  0  0
  188.6720  177.0300  147.8570 S   0  0  0  0  0  3  0  0  0  0  0  0
  1  5  1  1  0  0  0
  2 16  1  6  0  0  0
  3 17  1  0  0  0  0
  4 12  1  0  0  0  0
  4  1  1  0  0  0  0
  5 11  1  0  0  0  0
  7 27  1  0  0  0  0
  8  6  1  0  0  0  0
  8 11  1  0  0  0  0
  9 22  1  0  0  0  0
  9  7  1  0  0  0  0
 10  3  1  0  0  0  0
 10 22  1  0  0  0  0
 11 28  1  0  0  0  0
 12  8  1  0  0  0  0
 13  2  1  0  0  0  0
 14 23  1  0  0  0  0
 14  9  1  0  0  0  0
 15  7  1  0  0  0  0
 17 20  1  0  0  0  0
 17 26  1  0  0  0  0
 18 13  1  0  0  0  0
 19  1  1  0  0  0  0
 19  2  1  0  0  0  0
 20  4  1  0  0  0  0
 21 10  1  0  0  0  0
 22 20  1  0  0  0  0
 23 15  1  0  0  0  0
 24 27  2  0  0  0  0
 25 26  1  0  0  0  0
 25 18  1  0  0  0  0
 26 19  1  0  0  0  0
 27 12  1  0  0  0  0
 28 30  1  0  0  0  0
 30 29  2  0  0  0  0
M  END
>  <MODEL>
4

>  <REMARK>
 VINA RESULT:      -8.1      2.699      5.948
  Name = 
  2 active torsions:
  status: ('A' for Active; 'I' for Inactive)
    1  A    between atoms: C_11  and  C_28
    2  A    between atoms: C_28  and  S_30
                            x       y       z     vdW  Elec       q    Type
                         _______ _______ _______ _____ _____    ______ ____

>  <TORSDO>
F 2

$$$$
=
 OpenBabel11122410323D

 30 35  0  0  1  0  0  0  0  0999 V2000
  187.7800  178.0840  141.6020 C   0  0  2  0  0  3  0  0  0  0  0  0
  185.3440  178.6060  142.1730 C   0  0  2  0  0  3  0  0  0  0  0  0
  186.9780  178.6270  137.4370 N   0  0  0  0  0  2  0  0  0  0  0  0
  188.7330  177.5370  140.5260 C   0  0  2  0  0  3  0  0  0  0  0  0
  187.9960  177.3070  142.8940 C   0  0  0  0  0  2  0  0  0  0  0  0
  191.7320  177.2710  142.7630 O   0  0  0  0  0  1  0  0  0  0  0  0
  190.5790  176.0920  138.9500 C   0  0  1  0  0  3  0  0  0  0  0  0
  190.4290  177.0100  142.3260 C   0  0  1  0  0  3  0  0  0  0  0  0
  189.8140  176.6600  137.8110 N   0  0  2  0  0  0  0  0  0  0  0  0
  188.3170  178.4780  136.8590 C   0  0  2  0  0  3  0  0  0  0  0  0
  189.4300  177.5010  143.3820 C   0  0  2  0  0  3  0  0  0  0  0  0
  190.1920  177.6970  140.9710 C   0  0  1  0  0  3  0  0  0  0  0  0
  183.8960  178.4410  141.7060 C   0  0  0  0  0  2  0  0  0  0  0  0
  190.7830  176.6280  136.7100 C   0  0  0  0  0  2  0  0  0  0  0  0
  191.6820  175.2970  138.3460 C   0  0  0  0  0  2  0  0  0  0  0  0
  185.6310  179.9590  142.3820 O   0  0  0  0  0  1  0  0  0  0  0  0
  187.0640  178.0240  138.7550 C   0  0  1  0  0  3  0  0  0  0  0  0
  183.6880  179.0450  140.3170 C   0  0  0  0  0  2  0  0  0  0  0  0
  186.3080  177.9940  141.1430 C   0  0  1  0  0  3  0  0  0  0  0  0
  188.4640  178.2800  139.2180 C   0  0  2  0  0  3  0  0  0  0  0  0
  188.2380  177.5760  135.6350 C   0  0  0  0  0  1  0  0  0  0  0  0
  189.3170  178.0510  137.9730 C   0  0  1  0  0  3  0  0  0  0  0  0
  191.7950  175.6040  137.0700 C   0  0  0  0  0  2  0  0  0  0  0  0
  192.2520  177.5560  139.8330 O   0  0  0  0  0  0  0  0  0  0  0  0
  184.6470  178.4130  139.3110 C   0  0  0  0  0  2  0  0  0  0  0  0
  186.0910  178.6390  139.7540 C   0  0  2  0  0  3  0  0  0  0  0  0
  191.1100  177.1260  139.9280 C   0  0  0  0  0  0  0  0  0  0  0  0
  189.6290  176.7390  144.6820 C   0  0  0  0  0  2  0  0  0  0  0  0
  189.1430  176.7460  147.2470 O   0  0  0  0  0  0  0  0  0  0  0  0
  188.7090  177.5280  146.0160 S   0  0  0  0  0  3  0  0  0  0  0  0
  1  5  1  1  0  0  0
  2 16  1  6  0  0  0
  3 17  1  0  0  0  0
  4 12  1  0  0  0  0
  4  1  1  0  0  0  0
  5 11  1  0  0  0  0
  7 27  1  0  0  0  0
  8  6  1  0  0  0  0
  8 11  1  0  0  0  0
  9 22  1  0  0  0  0
  9  7  1  0  0  0  0
 10  3  1  0  0  0  0
 10 22  1  0  0  0  0
 11 28  1  0  0  0  0
 12  8  1  0  0  0  0
 13  2  1  0  0  0  0
 14 23  1  0  0  0  0
 14  9  1  0  0  0  0
 15  7  1  0  0  0  0
 17 20  1  0  0  0  0
 17 26  1  0  0  0  0
 18 13  1  0  0  0  0
 19  1  1  0  0  0  0
 19  2  1  0  0  0  0
 20  4  1  0  0  0  0
 21 10  1  0  0  0  0
 22 20  1  0  0  0  0
 23 15  1  0  0  0  0
 24 27  2  0  0  0  0
 25 26  1  0  0  0  0
 25 18  1  0  0  0  0
 26 19  1  0  0  0  0
 27 12  1  0  0  0  0
 28 30  1  0  0  0  0
 30 29  2  0  0  0  0
M  END
>  <MODEL>
5

>  <REMARK>
 VINA RESULT:      -8.0      2.987      6.838
  Name = 
  2 active torsions:
  status: ('A' for Active; 'I' for Inactive)
    1  A    between atoms: C_11  and  C_28
    2  A    between atoms: C_28  and  S_30
                            x       y       z     vdW  Elec       q    Type
                         _______ _______ _______ _____ _____    ______ ____

>  <TORSDO>
F 2

$$$$
=
 OpenBabel11122410323D

 30 35  0  0  1  0  0  0  0  0999 V2000
  189.5300  177.5570  140.6090 C   0  0  2  0  0  3  0  0  0  0  0  0
  190.7710  176.9550  142.7600 C   0  0  2  0  0  3  0  0  0  0  0  0
  186.0630  178.6650  142.8530 N   0  0  0  0  0  2  0  0  0  0  0  0
  188.1500  177.6760  139.9410 C   0  0  2  0  0  3  0  0  0  0  0  0
  190.4140  176.6550  139.7570 C   0  0  0  0  0  2  0  0  0  0  0  0
  189.4440  178.0960  136.4460 O   0  0  0  0  0  1  0  0  0  0  0  0
  185.8170  177.4490  138.3650 C   0  0  1  0  0  3  0  0  0  0  0  0
  189.2500  177.4570  137.6750 C   0  0  1  0  0  3  0  0  0  0  0  0
  185.1280  177.9160  139.5940 N   0  0  2  0  0  0  0  0  0  0  0  0
  185.1840  179.1780  141.7990 C   0  0  2  0  0  3  0  0  0  0  0  0
  190.6040  177.2730  138.3740 C   0  0  2  0  0  3  0  0  0  0  0  0
  188.2830  178.2830  138.5390 C   0  0  1  0  0  3  0  0  0  0  0  0
  190.6140  176.3520  144.1580 C   0  0  0  0  0  2  0  0  0  0  0  0
  183.8900  178.5090  139.0780 C   0  0  0  0  0  2  0  0  0  0  0  0
  184.7550  177.2990  137.3330 C   0  0  0  0  0  2  0  0  0  0  0  0
  191.3400  178.2290  142.8470 O   0  0  0  0  0  1  0  0  0  0  0  0
  187.0570  177.8640  142.1620 C   0  0  1  0  0  3  0  0  0  0  0  0
  189.5820  177.1240  144.9820 C   0  0  0  0  0  2  0  0  0  0  0  0
  189.4100  177.0100  142.0480 C   0  0  1  0  0  3  0  0  0  0  0  0
  187.2520  178.5300  140.8360 C   0  0  2  0  0  3  0  0  0  0  0  0
  183.7830  178.6150  141.9940 C   0  0  0  0  0  1  0  0  0  0  0  0
  185.8420  178.9330  140.4100 C   0  0  1  0  0  3  0  0  0  0  0  0
  183.6580  177.9030  137.7430 C   0  0  0  0  0  2  0  0  0  0  0  0
  186.7300  179.2070  137.0260 O   0  0  0  0  0  0  0  0  0  0  0  0
  188.2380  177.1540  144.2610 C   0  0  0  0  0  2  0  0  0  0  0  0
  188.3940  177.8140  142.8930 C   0  0  2  0  0  3  0  0  0  0  0  0
  186.9330  178.3600  137.8850 C   0  0  0  0  0  0  0  0  0  0  0  0
  191.5040  176.3770  137.5380 C   0  0  0  0  0  2  0  0  0  0  0  0
  194.0360  176.4680  136.9100 O   0  0  0  0  0  0  0  0  0  0  0  0
  193.1910  176.4190  138.1740 S   0  0  0  0  0  3  0  0  0  0  0  0
  1  5  1  6  0  0  0
  1 19  1  0  0  0  0
  2 16  1  1  0  0  0
  2 13  1  0  0  0  0
  4  1  1  0  0  0  0
  4 20  1  0  0  0  0
  6  8  1  0  0  0  0
  7  9  1  0  0  0  0
  8 11  1  0  0  0  0
  8 12  1  0  0  0  0
  9 22  1  0  0  0  0
 10 21  1  0  0  0  0
 10  3  1  0  0  0  0
 11  5  1  0  0  0  0
 12  4  1  0  0  0  0
 13 18  1  0  0  0  0
 14  9  1  0  0  0  0
 15 23  1  0  0  0  0
 15  7  1  0  0  0  0
 17  3  1  0  0  0  0
 17 26  1  0  0  0  0
 19  2  1  0  0  0  0
 19 26  1  0  0  0  0
 20 17  1  0  0  0  0
 22 20  1  0  0  0  0
 22 10  1  0  0  0  0
 23 14  1  0  0  0  0
 24 27  2  0  0  0  0
 25 18  1  0  0  0  0
 26 25  1  0  0  0  0
 27  7  1  0  0  0  0
 27 12  1  0  0  0  0
 28 30  1  0  0  0  0
 28 11  1  0  0  0  0
 29 30  2  0  0  0  0
M  END
>  <MODEL>
6

>  <REMARK>
 VINA RESULT:      -8.0      1.980      2.933
  Name = 
  2 active torsions:
  status: ('A' for Active; 'I' for Inactive)
    1  A    between atoms: C_11  and  C_28
    2  A    between atoms: C_28  and  S_30
                            x       y       z     vdW  Elec       q    Type
                         _______ _______ _______ _____ _____    ______ ____

>  <TORSDO>
F 2

$$$$
=
 OpenBabel11122410323D

 30 35  0  0  1  0  0  0  0  0999 V2000
  185.0710  178.7050  141.7470 C   0  0  2  0  0  3  0  0  0  0  0  0
  184.8380  178.5560  139.2070 C   0  0  2  0  0  3  0  0  0  0  0  0
  189.3030  178.1690  141.4480 N   0  0  0  0  0  2  0  0  0  0  0  0
  185.9120  178.2800  142.9630 C   0  0  2  0  0  3  0  0  0  0  0  0
  183.6230  178.2930  141.9800 C   0  0  0  0  0  2  0  0  0  0  0  0
  183.4310  179.3780  145.5530 O   0  0  0  0  0  1  0  0  0  0  0  0
  186.9590  177.1960  145.3520 C   0  0  1  0  0  3  0  0  0  0  0  0
  183.9040  178.6520  144.4550 C   0  0  1  0  0  3  0  0  0  0  0  0
  188.2570  177.2730  144.6340 N   0  0  2  0  0  0  0  0  0  0  0  0
  189.7180  178.3290  142.8440 C   0  0  2  0  0  3  0  0  0  0  0  0
  183.0740  179.0060  143.2140 C   0  0  2  0  0  3  0  0  0  0  0  0
  185.3940  178.9600  144.2370 C   0  0  1  0  0  3  0  0  0  0  0  0
  185.3740  177.8690  137.9490 C   0  0  0  0  0  2  0  0  0  0  0  0
  189.2370  177.3290  145.7240 C   0  0  0  0  0  2  0  0  0  0  0  0
  187.2740  176.6760  146.7100 C   0  0  0  0  0  2  0  0  0  0  0  0
  184.9180  179.9450  139.0680 O   0  0  0  0  0  1  0  0  0  0  0  0
  187.8800  177.8850  141.5040 C   0  0  1  0  0  3  0  0  0  0  0  0
  186.8770  178.1040  137.7860 C   0  0  0  0  0  2  0  0  0  0  0  0
  185.6180  178.0830  140.4440 C   0  0  1  0  0  3  0  0  0  0  0  0
  187.3710  178.6410  142.6920 C   0  0  2  0  0  3  0  0  0  0  0  0
  190.7080  177.2290  143.2030 C   0  0  0  0  0  1  0  0  0  0  0  0
  188.4570  178.4490  143.7490 C   0  0  1  0  0  3  0  0  0  0  0  0
  188.5720  176.7530  146.9190 C   0  0  0  0  0  2  0  0  0  0  0  0
  186.2950  179.2410  146.3970 O   0  0  0  0  0  0  0  0  0  0  0  0
  187.6300  177.6150  139.0200 C   0  0  0  0  0  2  0  0  0  0  0  0
  187.1300  178.3520  140.2620 C   0  0  2  0  0  3  0  0  0  0  0  0
  186.2000  178.5090  145.4220 C   0  0  0  0  0  0  0  0  0  0  0  0
  181.6220  178.6050  143.4250 C   0  0  0  0  0  2  0  0  0  0  0  0
  180.0560  180.6100  142.8440 O   0  0  0  0  0  0  0  0  0  0  0  0
  180.5770  179.3530  142.1620 S   0  0  0  0  0  3  0  0  0  0  0  0
  1  5  1  1  0  0  0
  1  4  1  0  0  0  0
  2 16  1  6  0  0  0
  2 19  1  0  0  0  0
  3 17  1  0  0  0  0
  3 10  1  0  0  0  0
  4 12  1  0  0  0  0
  5 11  1  0  0  0  0
  7 27  1  0  0  0  0
  7 15  1  0  0  0  0
  8  6  1  0  0  0  0
  9  7  1  0  0  0  0
  9 14  1  0  0  0  0
 10 21  1  0  0  0  0
 10 22  1  0  0  0  0
 11 28  1  0  0  0  0
 11  8  1  0  0  0  0
 12  8  1  0  0  0  0
 12 27  1  0  0  0  0
 13  2  1  0  0  0  0
 14 23  1  0  0  0  0
 15 23  1  0  0  0  0
 17 20  1  0  0  0  0
 18 13  1  0  0  0  0
 18 25  1  0  0  0  0
 19  1  1  0  0  0  0
 20  4  1  0  0  0  0
 20 22  1  0  0  0  0
 22  9  1  0  0  0  0
 25 26  1  0  0  0  0
 26 19  1  0  0  0  0
 26 17  1  0  0  0  0
 27 24  2  0  0  0  0
 30 29  2  0  0  0  0
 30 28  1  0  0  0  0
M  END
>  <MODEL>
7

>  <REMARK>
 VINA RESULT:      -7.7      3.207      7.146
  Name = 
  2 active torsions:
  status: ('A' for Active; 'I' for Inactive)
    1  A    between atoms: C_11  and  C_28
    2  A    between atoms: C_28  and  S_30
                            x       y       z     vdW  Elec       q    Type
                         _______ _______ _______ _____ _____    ______ ____

>  <TORSDO>
F 2

$$$$
=
 OpenBabel11122410323D

 30 35  0  0  1  0  0  0  0  0999 V2000
  187.6140  178.2320  141.6250 C   0  0  2  0  0  3  0  0  0  0  0  0
  188.6290  177.7400  139.3320 C   0  0  2  0  0  3  0  0  0  0  0  0
  191.3930  177.5480  143.5060 N   0  0  0  0  0  2  0  0  0  0  0  0
  187.7180  177.9570  143.1350 C   0  0  2  0  0  3  0  0  0  0  0  0
  186.2040  177.8950  141.1580 C   0  0  0  0  0  2  0  0  0  0  0  0
  184.4050  179.4670  144.0340 O   0  0  0  0  0  1  0  0  0  0  0  0
  187.3750  177.1850  145.8300 C   0  0  1  0  0  3  0  0  0  0  0  0
  185.2820  178.5840  143.3960 C   0  0  1  0  0  3  0  0  0  0  0  0
  188.8580  177.1290  145.8410 N   0  0  2  0  0  0  0  0  0  0  0  0
  191.0930  177.8880  144.8990 C   0  0  2  0  0  3  0  0  0  0  0  0
  185.1930  178.7850  141.8780 C   0  0  2  0  0  3  0  0  0  0  0  0
  186.7130  178.8200  143.9080 C   0  0  1  0  0  3  0  0  0  0  0  0
  189.6420  176.8730  138.5830 C   0  0  0  0  0  2  0  0  0  0  0  0
  189.1890  177.3090  147.2580 C   0  0  0  0  0  2  0  0  0  0  0  0
  186.9440  176.8500  147.2150 C   0  0  0  0  0  2  0  0  0  0  0  0
  188.8910  179.0940  139.1030 O   0  0  0  0  0  1  0  0  0  0  0  0
  190.1020  177.3120  142.8850 C   0  0  1  0  0  3  0  0  0  0  0  0
  191.0500  177.0420  139.1560 C   0  0  0  0  0  2  0  0  0  0  0  0
  188.6660  177.4220  140.8360 C   0  0  1  0  0  3  0  0  0  0  0  0
  189.1530  178.2380  143.5800 C   0  0  2  0  0  3  0  0  0  0  0  0
  191.6800  176.8230  145.8150 C   0  0  0  0  0  1  0  0  0  0  0  0
  189.5680  178.1660  145.0480 C   0  0  1  0  0  3  0  0  0  0  0  0
  187.9790  176.9200  148.0260 C   0  0  0  0  0  2  0  0  0  0  0  0
  186.4760  179.3720  146.1870 O   0  0  0  0  0  0  0  0  0  0  0  0
  191.0630  176.7090  140.6450 C   0  0  0  0  0  2  0  0  0  0  0  0
  190.0940  177.6230  141.3930 C   0  0  2  0  0  3  0  0  0  0  0  0
  186.8000  178.5150  145.3760 C   0  0  0  0  0  0  0  0  0  0  0  0
  183.7920  178.4560  141.3890 C   0  0  0  0  0  2  0  0  0  0  0  0
  184.3640  180.1280  139.4690 O   0  0  0  0  0  0  0  0  0  0  0  0
  183.6490  178.7940  139.6240 S   0  0  0  0  0  3  0  0  0  0  0  0
  1  5  1  6  0  0  0
  1  4  1  0  0  0  0
  2 16  1  1  0  0  0
  2 19  1  0  0  0  0
  3 10  1  0  0  0  0
  4 20  1  0  0  0  0
  4 12  1  0  0  0  0
  5 11  1  0  0  0  0
  7  9  1  0  0  0  0
  7 15  1  0  0  0  0
  8 12  1  0  0  0  0
  8  6  1  0  0  0  0
  9 14  1  0  0  0  0
 10 22  1  0  0  0  0
 10 21  1  0  0  0  0
 11  8  1  0  0  0  0
 12 27  1  0  0  0  0
 13 18  1  0  0  0  0
 13  2  1  0  0  0  0
 14 23  1  0  0  0  0
 15 23  1  0  0  0  0
 17  3  1  0  0  0  0
 17 20  1  0  0  0  0
 18 25  1  0  0  0  0
 19 26  1  0  0  0  0
 19  1  1  0  0  0  0
 20 22  1  0  0  0  0
 22  9  1  0  0  0  0
 25 26  1  0  0  0  0
 26 17  1  0  0  0  0
 27  7  1  0  0  0  0
 27 24  2  0  0  0  0
 28 11  1  0  0  0  0
 29 30  2  0  0  0  0
 30 28  1  0  0  0  0
M  END
>  <MODEL>
8

>  <REMARK>
 VINA RESULT:      -7.7      2.638      6.433
  Name = 
  2 active torsions:
  status: ('A' for Active; 'I' for Inactive)
    1  A    between atoms: C_11  and  C_28
    2  A    between atoms: C_28  and  S_30
                            x       y       z     vdW  Elec       q    Type
                         _______ _______ _______ _____ _____    ______ ____

>  <TORSDO>
F 2

$$$$
=
 OpenBabel11122410323D

 30 35  0  0  1  0  0  0  0  0999 V2000
  187.6630  177.9720  138.9280 C   0  0  2  0  0  3  0  0  0  0  0  0
  189.0010  177.1500  136.9130 C   0  0  2  0  0  3  0  0  0  0  0  0
  191.0620  177.4510  141.4690 N   0  0  0  0  0  2  0  0  0  0  0  0
  187.5150  177.9000  140.4580 C   0  0  2  0  0  3  0  0  0  0  0  0
  186.3290  177.6110  138.2870 C   0  0  0  0  0  2  0  0  0  0  0  0
  184.1760  179.6030  140.6060 O   0  0  0  0  0  1  0  0  0  0  0  0
  186.7160  177.5080  143.1380 C   0  0  1  0  0  3  0  0  0  0  0  0
  185.1000  178.6200  140.2380 C   0  0  1  0  0  3  0  0  0  0  0  0
  188.1750  177.4150  143.3960 N   0  0  2  0  0  0  0  0  0  0  0  0
  190.5630  177.9830  142.7400 C   0  0  2  0  0  3  0  0  0  0  0  0
  185.2610  178.6160  138.7110 C   0  0  2  0  0  3  0  0  0  0  0  0
  186.4430  178.8860  140.9400 C   0  0  1  0  0  3  0  0  0  0  0  0
  190.0780  176.1640  136.4560 C   0  0  0  0  0  2  0  0  0  0  0  0
  188.2870  177.7760  144.8140 C   0  0  0  0  0  2  0  0  0  0  0  0
  186.0570  177.3740  144.4660 C   0  0  0  0  0  2  0  0  0  0  0  0
  189.3600  178.4530  136.5560 O   0  0  0  0  0  1  0  0  0  0  0  0
  189.8750  177.1670  140.6830 C   0  0  1  0  0  3  0  0  0  0  0  0
  191.3840  176.3730  137.2230 C   0  0  0  0  0  2  0  0  0  0  0  0
  188.7860  177.0370  138.4310 C   0  0  1  0  0  3  0  0  0  0  0  0
  188.8730  178.2020  141.0900 C   0  0  2  0  0  3  0  0  0  0  0  0
  190.9480  177.0360  143.8680 C   0  0  0  0  0  1  0  0  0  0  0  0
  189.0490  178.3180  142.6020 C   0  0  1  0  0  3  0  0  0  0  0  0
  186.9540  177.5260  145.4180 C   0  0  0  0  0  2  0  0  0  0  0  0
  185.8760  179.7460  143.0600 O   0  0  0  0  0  0  0  0  0  0  0  0
  191.1460  176.2430  138.7250 C   0  0  0  0  0  2  0  0  0  0  0  0
  190.1170  177.2740  139.1820 C   0  0  2  0  0  3  0  0  0  0  0  0
  186.2820  178.7800  142.4300 C   0  0  0  0  0  0  0  0  0  0  0  0
  183.9400  178.2600  138.0490 C   0  0  0  0  0  2  0  0  0  0  0  0
  183.0530  176.0450  139.1070 O   0  0  0  0  0  0  0  0  0  0  0  0
  183.8000  176.4740  137.8530 S   0  0  0  0  0  3  0  0  0  0  0  0
  1  5  1  6  0  0  0
  1  4  1  0  0  0  0
  2 16  1  1  0  0  0
  2 19  1  0  0  0  0
  3 10  1  0  0  0  0
  4 12  1  0  0  0  0
  4 20  1  0  0  0  0
  5 11  1  0  0  0  0
  7  9  1  0  0  0  0
  7 15  1  0  0  0  0
  8  6  1  0  0  0  0
  8 12  1  0  0  0  0
  9 14  1  0  0  0  0
 10 21  1  0  0  0  0
 11  8  1  0  0  0  0
 12 27  1  0  0  0  0
 13  2  1  0  0  0  0
 13 18  1  0  0  0  0
 14 23  1  0  0  0  0
 15 23  1  0  0  0  0
 17 20  1  0  0  0  0
 17  3  1  0  0  0  0
 18 25  1  0  0  0  0
 19  1  1  0  0  0  0
 19 26  1  0  0  0  0
 20 22  1  0  0  0  0
 22 10  1  0  0  0  0
 22  9  1  0  0  0  0
 25 26  1  0  0  0  0
 26 17  1  0  0  0  0
 27 24  2  0  0  0  0
 27  7  1  0  0  0  0
 28 11  1  0  0  0  0
 30 28  1  0  0  0  0
 30 29  2  0  0  0  0
M  END
>  <MODEL>
9

>  <REMARK>
 VINA RESULT:      -7.6      2.871      6.428
  Name = 
  2 active torsions:
  status: ('A' for Active; 'I' for Inactive)
    1  A    between atoms: C_11  and  C_28
    2  A    between atoms: C_28  and  S_30
                            x       y       z     vdW  Elec       q    Type
                         _______ _______ _______ _____ _____    ______ ____

>  <TORSDO>
F 2

$$$$
