=
 OpenBabel11122412033D

 34 41  0  0  1  0  0  0  0  0999 V2000
  190.8890  177.8010  142.7560 C   0  0  1  0  0  3  0  0  0  0  0  0
  192.5590  176.9370  140.9800 C   0  0  0  0  0  3  0  0  0  0  0  0
  184.9830  179.1770  144.6400 C   0  0  1  0  0  3  0  0  0  0  0  0
  188.9260  177.8870  144.4260 C   0  0  0  0  0  0  0  0  0  0  0  0
  186.6610  177.8900  143.6290 N   0  0  0  0  0  0  0  0  0  0  0  0
  184.2350  178.2510  142.8910 C   0  0  0  0  0  2  0  0  0  0  0  0
  183.7260  179.3550  143.8200 C   0  0  0  0  0  2  0  0  0  0  0  0
  186.0190  178.3790  146.7410 C   0  0  0  0  0  3  0  0  0  0  0  0
  190.3390  177.1710  140.4080 C   0  0  0  0  0  0  0  0  0  0  0  0
  189.4780  178.0000  137.6020 C   0  0  0  0  0  3  0  0  0  0  0  0
  187.0990  177.7190  142.3060 N   0  0  0  0  0  2  0  0  0  0  0  0
  187.1950  178.0110  146.1690 C   0  0  0  0  0  2  0  0  0  0  0  0
  188.8990  177.5430  140.5510 C   0  0  1  0  0  3  0  0  0  0  0  0
  192.3690  176.7800  139.5390 N   0  0  0  0  0  0  0  0  0  0  0  0
  187.6150  177.9460  144.7190 C   0  0  0  0  0  0  0  0  0  0  0  0
  184.8590  178.8810  146.0450 N   0  0  0  0  0  0  0  0  0  0  0  0
  190.4080  177.0860  137.9130 C   0  0  0  0  0  0  0  0  0  0  0  0
  189.3920  177.7690  143.0170 C   0  0  0  0  0  0  0  0  0  0  0  0
  185.2520  177.8820  143.9540 C   0  0  2  0  0  3  0  0  0  0  0  0
  188.4960  177.6800  142.0030 C   0  0  0  0  0  0  0  0  0  0  0  0
  191.3340  177.9610  145.1970 C   0  0  0  0  0  2  0  0  0  0  0  0
  188.8270  178.9750  138.5050 C   0  0  0  0  0  3  0  0  0  0  0  0
  189.9060  177.8840  145.4770 N   0  0  0  0  0  2  0  0  0  0  0  0
  188.5990  178.8090  139.8100 C   0  0  0  0  0  3  0  0  0  0  0  0
  190.9840  176.9710  139.2780 C   0  0  0  0  0  0  0  0  0  0  0  0
  191.6620  177.1910  143.9230 C   0  0  0  0  0  2  0  0  0  0  0  0
  191.2150  177.1140  141.5140 N   0  0  0  0  0  0  0  0  0  0  0  0
  190.8880  176.2700  136.8380 N   0  0  0  0  0  2  0  0  0  0  0  0
  191.2660  174.8650  136.9390 C   0  0  0  0  0  2  0  0  0  0  0  0
  194.7430  175.9110  136.4490 N   0  0  0  0  0  2  0  0  0  0  0  0
  193.5840  174.1140  137.5470 C   0  0  0  0  0  2  0  0  0  0  0  0
  192.6960  174.6490  136.4590 C   0  0  2  0  0  3  0  0  0  0  0  0
  194.9410  174.6600  137.1780 C   0  0  0  0  0  2  0  0  0  0  0  0
  193.3270  175.9730  136.0970 C   0  0  0  0  0  2  0  0  0  0  0  0
  1 18  1  0  0  0  0
  1 26  1  1  0  0  0
  2 27  1  0  0  0  0
  3  7  1  6  0  0  0
  3 16  1  0  0  0  0
  4 15  2  0  0  0  0
  4 23  1  0  0  0  0
  5 19  1  0  0  0  0
  5 15  1  0  0  0  0
  6  7  1  0  0  0  0
  9 13  1  0  0  0  0
  9 27  1  0  0  0  0
 10 17  2  0  0  0  0
 10 22  1  0  0  0  0
 11  5  1  0  0  0  0
 12  8  1  0  0  0  0
 13 24  1  6  0  0  0
 13 20  1  0  0  0  0
 14  2  2  0  0  0  0
 15 12  1  0  0  0  0
 16  8  2  0  0  0  0
 17 25  1  0  0  0  0
 18  4  1  0  0  0  0
 19  6  1  6  0  0  0
 19  3  1  0  0  0  0
 20 11  1  0  0  0  0
 20 18  2  0  0  0  0
 21 23  1  0  0  0  0
 22 24  2  0  0  0  0
 25 14  1  0  0  0  0
 25  9  2  0  0  0  0
 26 21  1  0  0  0  0
 27  1  1  0  0  0  0
 28 29  1  0  0  0  0
 28 17  1  0  0  0  0
 30 33  1  0  0  0  0
 32 29  1  1  0  0  0
 32 31  1  0  0  0  0
 33 31  1  0  0  0  0
 34 30  1  0  0  0  0
 34 32  1  0  0  0  0
M  END
>  <MODEL>
1

>  <REMARK>
 VINA RESULT:      -9.4      0.000      0.000
  Name = 
  3 active torsions:
  status: ('A' for Active; 'I' for Inactive)
    1  A    between atoms: C_17  and  N_28
    2  A    between atoms: N_28  and  C_29
    3  A    between atoms: C_29  and  C_32
                            x       y       z     vdW  Elec       q    Type
                         _______ _______ _______ _____ _____    ______ ____

>  <TORSDO>
F 3

$$$$
=
 OpenBabel11122412033D

 34 41  0  0  1  0  0  0  0  0999 V2000
  186.8910  178.6300  141.1160 C   0  0  1  0  0  3  0  0  0  0  0  0
  184.7280  178.6550  139.6960 C   0  0  0  0  0  3  0  0  0  0  0  0
  189.9230  177.7650  146.6280 C   0  0  1  0  0  3  0  0  0  0  0  0
  188.8130  177.8060  142.6250 C   0  0  0  0  0  0  0  0  0  0  0  0
  188.3930  177.2590  144.9250 N   0  0  0  0  0  0  0  0  0  0  0  0
  188.1390  176.9870  147.4590 C   0  0  0  0  0  2  0  0  0  0  0  0
  189.3690  177.6940  148.0320 C   0  0  0  0  0  2  0  0  0  0  0  0
  191.5940  176.9570  144.9920 C   0  0  0  0  0  3  0  0  0  0  0  0
  184.5720  178.2970  141.9680 C   0  0  0  0  0  0  0  0  0  0  0  0
  182.2050  179.3160  143.5990 C   0  0  0  0  0  3  0  0  0  0  0  0
  187.0170  177.4730  144.7520 N   0  0  0  0  0  2  0  0  0  0  0  0
  190.7790  177.0770  143.9110 C   0  0  0  0  0  3  0  0  0  0  0  0
  185.0170  178.1780  143.3890 C   0  0  1  0  0  3  0  0  0  0  0  0
  183.3370  178.7110  140.1420 N   0  0  0  0  0  0  0  0  0  0  0  0
  189.3070  177.4070  143.8090 C   0  0  0  0  0  0  0  0  0  0  0  0
  191.2200  177.1960  146.3640 N   0  0  0  0  0  2  0  0  0  0  0  0
  182.1470  178.6910  142.4150 C   0  0  0  0  0  0  0  0  0  0  0  0
  187.3620  178.0940  142.4570 C   0  0  0  0  0  0  0  0  0  0  0  0
  188.9180  176.7610  146.1770 C   0  0  2  0  0  3  0  0  0  0  0  0
  186.5040  177.9190  143.4940 C   0  0  0  0  0  0  0  0  0  0  0  0
  189.2040  178.4740  140.2160 C   0  0  0  0  0  2  0  0  0  0  0  0
  183.4010  179.8640  144.2780 C   0  0  0  0  0  3  0  0  0  0  0  0
  189.6710  177.9130  141.4780 N   0  0  0  0  0  2  0  0  0  0  0  0
  184.6490  179.4030  144.1680 C   0  0  0  0  0  3  0  0  0  0  0  0
  183.3420  178.5120  141.5510 C   0  0  0  0  0  0  0  0  0  0  0  0
  187.7500  178.0850  139.9760 C   0  0  0  0  0  2  0  0  0  0  0  0
  185.4870  178.3120  140.8920 N   0  0  0  0  0  0  0  0  0  0  0  0
  180.8500  178.2690  141.9770 N   0  0  0  0  0  2  0  0  0  0  0  0
  179.6760  179.1250  141.8460 C   0  0  0  0  0  2  0  0  0  0  0  0
  179.3760  181.0810  138.7630 N   0  0  0  0  0  2  0  0  0  0  0  0
  178.9320  181.4050  141.1030 C   0  0  0  0  0  2  0  0  0  0  0  0
  179.9770  180.3330  140.9680 C   0  0  2  0  0  3  0  0  0  0  0  0
  178.9510  182.0720  139.7500 C   0  0  0  0  0  2  0  0  0  0  0  0
  179.9090  179.9450  139.5090 C   0  0  0  0  0  2  0  0  0  0  0  0
  1 26  1  6  0  0  0
  1 18  1  0  0  0  0
  2 14  2  0  0  0  0
  2 27  1  0  0  0  0
  3  7  1  1  0  0  0
  4 15  2  0  0  0  0
  5 19  1  0  0  0  0
  6  7  1  0  0  0  0
  8 16  1  0  0  0  0
  9 13  1  0  0  0  0
 10 22  1  0  0  0  0
 11  5  1  0  0  0  0
 12  8  2  0  0  0  0
 13 20  1  0  0  0  0
 13 24  1  1  0  0  0
 14 25  1  0  0  0  0
 15 12  1  0  0  0  0
 15  5  1  0  0  0  0
 16  3  1  0  0  0  0
 17 10  2  0  0  0  0
 18  4  1  0  0  0  0
 18 20  2  0  0  0  0
 19  3  1  0  0  0  0
 19  6  1  1  0  0  0
 20 11  1  0  0  0  0
 21 23  1  0  0  0  0
 23  4  1  0  0  0  0
 24 22  2  0  0  0  0
 25  9  2  0  0  0  0
 25 17  1  0  0  0  0
 26 21  1  0  0  0  0
 27  1  1  0  0  0  0
 27  9  1  0  0  0  0
 28 17  1  0  0  0  0
 29 28  1  0  0  0  0
 30 34  1  0  0  0  0
 30 33  1  0  0  0  0
 32 31  1  0  0  0  0
 32 29  1  1  0  0  0
 33 31  1  0  0  0  0
 34 32  1  0  0  0  0
M  END
>  <MODEL>
2

>  <REMARK>
 VINA RESULT:      -9.3      3.379      8.665
  Name = 
  3 active torsions:
  status: ('A' for Active; 'I' for Inactive)
    1  A    between atoms: C_17  and  N_28
    2  A    between atoms: N_28  and  C_29
    3  A    between atoms: C_29  and  C_32
                            x       y       z     vdW  Elec       q    Type
                         _______ _______ _______ _____ _____    ______ ____

>  <TORSDO>
F 3

$$$$
=
 OpenBabel11122412033D

 34 41  0  0  1  0  0  0  0  0999 V2000
  190.9030  177.7540  142.6620 C   0  0  1  0  0  3  0  0  0  0  0  0
  192.5050  176.8880  140.8240 C   0  0  0  0  0  3  0  0  0  0  0  0
  185.0810  179.1990  144.7420 C   0  0  1  0  0  3  0  0  0  0  0  0
  188.9930  177.8470  144.3910 C   0  0  0  0  0  0  0  0  0  0  0  0
  186.7060  177.8990  143.6630 N   0  0  0  0  0  0  0  0  0  0  0  0
  184.2650  178.3100  143.0030 C   0  0  0  0  0  2  0  0  0  0  0  0
  183.8020  179.4090  143.9630 C   0  0  0  0  0  2  0  0  0  0  0  0
  186.1650  178.3530  146.8000 C   0  0  0  0  0  3  0  0  0  0  0  0
  190.2730  177.1670  140.3220 C   0  0  0  0  0  0  0  0  0  0  0  0
  189.3430  178.0520  137.5550 C   0  0  0  0  0  3  0  0  0  0  0  0
  187.1000  177.7400  142.3250 N   0  0  0  0  0  2  0  0  0  0  0  0
  187.3170  177.9740  146.1870 C   0  0  0  0  0  2  0  0  0  0  0  0
  188.8440  177.5610  140.5150 C   0  0  1  0  0  3  0  0  0  0  0  0
  192.2690  176.7560  139.3870 N   0  0  0  0  0  0  0  0  0  0  0  0
  187.6930  177.9230  144.7240 C   0  0  0  0  0  0  0  0  0  0  0  0
  184.9940  178.8840  146.1460 N   0  0  0  0  0  0  0  0  0  0  0  0
  190.2660  177.1180  137.8250 C   0  0  0  0  0  0  0  0  0  0  0  0
  189.4150  177.7420  142.9670 C   0  0  0  0  0  0  0  0  0  0  0  0
  185.3070  177.9100  144.0300 C   0  0  2  0  0  3  0  0  0  0  0  0
  188.4870  177.6830  141.9800 C   0  0  0  0  0  0  0  0  0  0  0  0
  191.4240  177.8700  145.0900 C   0  0  0  0  0  2  0  0  0  0  0  0
  188.7350  179.0230  138.4920 C   0  0  0  0  0  3  0  0  0  0  0  0
  190.0030  177.8120  145.4110 N   0  0  0  0  0  2  0  0  0  0  0  0
  188.5440  178.8430  139.8000 C   0  0  0  0  0  3  0  0  0  0  0  0
  190.8800  176.9730  139.1710 C   0  0  0  0  0  0  0  0  0  0  0  0
  191.7010  177.1140  143.7960 C   0  0  0  0  0  2  0  0  0  0  0  0
  191.1810  177.0800  141.4000 N   0  0  0  0  0  0  0  0  0  0  0  0
  190.6990  176.3100  136.7250 N   0  0  0  0  0  2  0  0  0  0  0  0
  189.8700  175.3680  135.9820 C   0  0  0  0  0  2  0  0  0  0  0  0
  186.8580  173.5660  137.0330 N   0  0  0  0  0  2  0  0  0  0  0  0
  189.1410  173.0250  136.5120 C   0  0  0  0  0  2  0  0  0  0  0  0
  189.0850  174.4680  136.9280 C   0  0  2  0  0  3  0  0  0  0  0  0
  187.8290  172.4740  137.0130 C   0  0  0  0  0  2  0  0  0  0  0  0
  187.6140  174.8050  136.8640 C   0  0  0  0  0  2  0  0  0  0  0  0
  1 18  1  0  0  0  0
  1 26  1  1  0  0  0
  2 27  1  0  0  0  0
  3  7  1  6  0  0  0
  3 16  1  0  0  0  0
  4 15  2  0  0  0  0
  4 23  1  0  0  0  0
  5 19  1  0  0  0  0
  5 15  1  0  0  0  0
  6  7  1  0  0  0  0
  9 13  1  0  0  0  0
  9 27  1  0  0  0  0
 10 17  2  0  0  0  0
 10 22  1  0  0  0  0
 11  5  1  0  0  0  0
 12  8  1  0  0  0  0
 13 24  1  6  0  0  0
 13 20  1  0  0  0  0
 14  2  2  0  0  0  0
 15 12  1  0  0  0  0
 16  8  2  0  0  0  0
 17 25  1  0  0  0  0
 18  4  1  0  0  0  0
 19  6  1  6  0  0  0
 19  3  1  0  0  0  0
 20 11  1  0  0  0  0
 20 18  2  0  0  0  0
 21 23  1  0  0  0  0
 22 24  2  0  0  0  0
 25 14  1  0  0  0  0
 25  9  2  0  0  0  0
 26 21  1  0  0  0  0
 27  1  1  0  0  0  0
 28 17  1  0  0  0  0
 29 28  1  0  0  0  0
 31 32  1  0  0  0  0
 31 33  1  0  0  0  0
 32 29  1  6  0  0  0
 33 30  1  0  0  0  0
 34 32  1  0  0  0  0
 34 30  1  0  0  0  0
M  END
>  <MODEL>
3

>  <REMARK>
 VINA RESULT:      -9.2      1.554      2.406
  Name = 
  3 active torsions:
  status: ('A' for Active; 'I' for Inactive)
    1  A    between atoms: C_17  and  N_28
    2  A    between atoms: N_28  and  C_29
    3  A    between atoms: C_29  and  C_32
                            x       y       z     vdW  Elec       q    Type
                         _______ _______ _______ _____ _____    ______ ____

>  <TORSDO>
F 3

$$$$
=
 OpenBabel11122412033D

 34 41  0  0  1  0  0  0  0  0999 V2000
  188.5000  178.2010  139.4250 C   0  0  1  0  0  3  0  0  0  0  0  0
  187.0460  178.4480  141.5510 C   0  0  0  0  0  3  0  0  0  0  0  0
  193.5640  175.8710  136.3840 C   0  0  1  0  0  3  0  0  0  0  0  0
  189.7530  177.1520  137.4320 C   0  0  0  0  0  0  0  0  0  0  0  0
  191.7010  175.7980  137.8060 N   0  0  0  0  0  0  0  0  0  0  0  0
  193.9720  174.6400  138.0570 C   0  0  0  0  0  2  0  0  0  0  0  0
  194.8250  175.2530  136.9430 C   0  0  0  0  0  2  0  0  0  0  0  0
  191.8540  175.8880  134.5950 C   0  0  0  0  0  3  0  0  0  0  0  0
  189.0470  177.3120  141.6890 C   0  0  0  0  0  0  0  0  0  0  0  0
  190.7820  177.4080  144.1960 C   0  0  0  0  0  3  0  0  0  0  0  0
  191.5280  175.8870  139.1960 N   0  0  0  0  0  2  0  0  0  0  0  0
  190.8310  176.2720  135.4030 C   0  0  0  0  0  2  0  0  0  0  0  0
  190.3680  176.7670  141.2530 C   0  0  1  0  0  3  0  0  0  0  0  0
  187.3990  178.1750  142.9430 N   0  0  0  0  0  0  0  0  0  0  0  0
  190.7590  176.4330  136.9040 C   0  0  0  0  0  0  0  0  0  0  0  0
  193.2020  175.5920  135.0180 N   0  0  0  0  0  0  0  0  0  0  0  0
  189.4540  177.2270  144.1520 C   0  0  0  0  0  0  0  0  0  0  0  0
  189.6060  177.2980  138.9060 C   0  0  0  0  0  0  0  0  0  0  0  0
  192.7400  174.9680  137.2360 C   0  0  2  0  0  3  0  0  0  0  0  0
  190.4680  176.6740  139.7460 C   0  0  0  0  0  0  0  0  0  0  0  0
  187.7430  178.6510  137.1000 C   0  0  0  0  0  2  0  0  0  0  0  0
  191.6770  177.8310  143.0960 C   0  0  0  0  0  3  0  0  0  0  0  0
  188.7650  177.7520  136.5790 N   0  0  0  0  0  2  0  0  0  0  0  0
  191.4920  177.5940  141.7950 C   0  0  0  0  0  3  0  0  0  0  0  0
  188.6550  177.5050  142.9310 C   0  0  0  0  0  0  0  0  0  0  0  0
  187.2980  178.1930  138.4840 C   0  0  0  0  0  2  0  0  0  0  0  0
  188.0980  177.8100  140.7700 N   0  0  0  0  0  0  0  0  0  0  0  0
  188.8220  176.8250  145.3730 N   0  0  0  0  0  2  0  0  0  0  0  0
  188.7580  177.6150  146.5980 C   0  0  0  0  0  2  0  0  0  0  0  0
  185.6650  179.4000  147.4160 N   0  0  0  0  0  2  0  0  0  0  0  0
  186.3140  177.5490  146.0270 C   0  0  0  0  0  2  0  0  0  0  0  0
  187.3300  177.6900  147.1240 C   0  0  2  0  0  3  0  0  0  0  0  0
  185.1440  178.3530  146.5400 C   0  0  0  0  0  2  0  0  0  0  0  0
  187.0580  179.0630  147.6940 C   0  0  0  0  0  2  0  0  0  0  0  0
  1 26  1  6  0  0  0
  1 27  1  0  0  0  0
  2 14  2  0  0  0  0
  3  7  1  6  0  0  0
  3 19  1  0  0  0  0
  4 18  1  0  0  0  0
  5 11  1  0  0  0  0
  7  6  1  0  0  0  0
  8 16  2  0  0  0  0
  8 12  1  0  0  0  0
  9 25  2  0  0  0  0
 11 20  1  0  0  0  0
 12 15  1  0  0  0  0
 13  9  1  0  0  0  0
 13 24  1  6  0  0  0
 15  4  2  0  0  0  0
 15  5  1  0  0  0  0
 16  3  1  0  0  0  0
 17 10  2  0  0  0  0
 17 28  1  0  0  0  0
 18  1  1  0  0  0  0
 18 20  2  0  0  0  0
 19  5  1  0  0  0  0
 19  6  1  1  0  0  0
 20 13  1  0  0  0  0
 21 26  1  0  0  0  0
 22 10  1  0  0  0  0
 23 21  1  0  0  0  0
 23  4  1  0  0  0  0
 24 22  2  0  0  0  0
 25 14  1  0  0  0  0
 25 17  1  0  0  0  0
 27  2  1  0  0  0  0
 27  9  1  0  0  0  0
 28 29  1  0  0  0  0
 30 34  1  0  0  0  0
 31 33  1  0  0  0  0
 31 32  1  0  0  0  0
 32 29  1  6  0  0  0
 32 34  1  0  0  0  0
 33 30  1  0  0  0  0
M  END
>  <MODEL>
4

>  <REMARK>
 VINA RESULT:      -9.2      1.486      9.206
  Name = 
  3 active torsions:
  status: ('A' for Active; 'I' for Inactive)
    1  A    between atoms: C_17  and  N_28
    2  A    between atoms: N_28  and  C_29
    3  A    between atoms: C_29  and  C_32
                            x       y       z     vdW  Elec       q    Type
                         _______ _______ _______ _____ _____    ______ ____

>  <TORSDO>
F 3

$$$$
=
 OpenBabel11122412033D

 34 41  0  0  1  0  0  0  0  0999 V2000
  186.7860  178.6320  141.0010 C   0  0  1  0  0  3  0  0  0  0  0  0
  184.5850  178.6780  139.6430 C   0  0  0  0  0  3  0  0  0  0  0  0
  189.9640  177.7260  146.4230 C   0  0  1  0  0  3  0  0  0  0  0  0
  188.7430  177.7890  142.4520 C   0  0  0  0  0  0  0  0  0  0  0  0
  188.3840  177.2370  144.7620 N   0  0  0  0  0  0  0  0  0  0  0  0
  188.1980  176.9580  147.3020 C   0  0  0  0  0  2  0  0  0  0  0  0
  189.4490  177.6550  147.8420 C   0  0  0  0  0  2  0  0  0  0  0  0
  191.5820  176.9100  144.7380 C   0  0  0  0  0  3  0  0  0  0  0  0
  184.4900  178.3140  141.9170 C   0  0  0  0  0  0  0  0  0  0  0  0
  182.1770  179.3460  143.6170 C   0  0  0  0  0  3  0  0  0  0  0  0
  187.0040  177.4620  144.6280 N   0  0  0  0  0  2  0  0  0  0  0  0
  190.7380  177.0400  143.6800 C   0  0  0  0  0  3  0  0  0  0  0  0
  184.9730  178.1870  143.3250 C   0  0  1  0  0  3  0  0  0  0  0  0
  183.2060  178.7430  140.1280 N   0  0  0  0  0  0  0  0  0  0  0  0
  189.2670  177.3810  143.6220 C   0  0  0  0  0  0  0  0  0  0  0  0
  191.2490  177.1480  146.1210 N   0  0  0  0  0  2  0  0  0  0  0  0
  182.0810  178.7250  142.4330 C   0  0  0  0  0  0  0  0  0  0  0  0
  187.2900  178.0880  142.3270 C   0  0  0  0  0  0  0  0  0  0  0  0
  188.9390  176.7320  145.9980 C   0  0  2  0  0  3  0  0  0  0  0  0
  186.4600  177.9170  143.3860 C   0  0  0  0  0  0  0  0  0  0  0  0
  189.0720  178.4610  140.0360 C   0  0  0  0  0  2  0  0  0  0  0  0
  183.3960  179.8820  144.2630 C   0  0  0  0  0  3  0  0  0  0  0  0
  189.5700  177.8920  141.2830 N   0  0  0  0  0  2  0  0  0  0  0  0
  184.6370  179.4130  144.1170 C   0  0  0  0  0  3  0  0  0  0  0  0
  183.2500  178.5400  141.5350 C   0  0  0  0  0  0  0  0  0  0  0  0
  187.6080  178.0840  139.8360 C   0  0  0  0  0  2  0  0  0  0  0  0
  185.3740  178.3260  140.8160 N   0  0  0  0  0  0  0  0  0  0  0  0
  180.7690  178.3150  142.0310 N   0  0  0  0  0  2  0  0  0  0  0  0
  179.8270  179.1150  141.2560 C   0  0  0  0  0  2  0  0  0  0  0  0
  180.1860  177.9540  137.7990 N   0  0  0  0  0  2  0  0  0  0  0  0
  179.9040  176.9600  139.9700 C   0  0  0  0  0  2  0  0  0  0  0  0
  179.3560  178.3590  140.0200 C   0  0  2  0  0  3  0  0  0  0  0  0
  179.9900  176.6810  138.4890 C   0  0  0  0  0  2  0  0  0  0  0  0
  179.9090  179.0070  138.7720 C   0  0  0  0  0  2  0  0  0  0  0  0
  1 26  1  6  0  0  0
  1 18  1  0  0  0  0
  2 14  2  0  0  0  0
  2 27  1  0  0  0  0
  3  7  1  1  0  0  0
  4 15  2  0  0  0  0
  5 19  1  0  0  0  0
  6  7  1  0  0  0  0
  8 16  1  0  0  0  0
  9 13  1  0  0  0  0
 10 22  1  0  0  0  0
 11  5  1  0  0  0  0
 12  8  2  0  0  0  0
 13 20  1  0  0  0  0
 13 24  1  1  0  0  0
 14 25  1  0  0  0  0
 15 12  1  0  0  0  0
 15  5  1  0  0  0  0
 16  3  1  0  0  0  0
 17 10  2  0  0  0  0
 18  4  1  0  0  0  0
 18 20  2  0  0  0  0
 19  3  1  0  0  0  0
 19  6  1  1  0  0  0
 20 11  1  0  0  0  0
 21 23  1  0  0  0  0
 23  4  1  0  0  0  0
 24 22  2  0  0  0  0
 25  9  2  0  0  0  0
 25 17  1  0  0  0  0
 26 21  1  0  0  0  0
 27  1  1  0  0  0  0
 27  9  1  0  0  0  0
 28 17  1  0  0  0  0
 29 28  1  0  0  0  0
 30 33  1  0  0  0  0
 30 34  1  0  0  0  0
 31 32  1  0  0  0  0
 32 29  1  1  0  0  0
 33 31  1  0  0  0  0
 34 32  1  0  0  0  0
M  END
>  <MODEL>
5

>  <REMARK>
 VINA RESULT:      -9.1      3.354      8.271
  Name = 
  3 active torsions:
  status: ('A' for Active; 'I' for Inactive)
    1  A    between atoms: C_17  and  N_28
    2  A    between atoms: N_28  and  C_29
    3  A    between atoms: C_29  and  C_32
                            x       y       z     vdW  Elec       q    Type
                         _______ _______ _______ _____ _____    ______ ____

>  <TORSDO>
F 3

$$$$
=
 OpenBabel11122412033D

 34 41  0  0  1  0  0  0  0  0999 V2000
  185.6790  177.8780  144.1110 C   0  0  1  0  0  3  0  0  0  0  0  0
  183.3900  178.7050  144.9890 C   0  0  0  0  0  3  0  0  0  0  0  0
  189.8860  177.0870  139.4210 C   0  0  1  0  0  3  0  0  0  0  0  0
  188.0310  177.8680  143.0550 C   0  0  0  0  0  0  0  0  0  0  0  0
  188.3000  178.2470  140.7000 N   0  0  0  0  0  0  0  0  0  0  0  0
  188.6770  178.2880  138.1660 C   0  0  0  0  0  2  0  0  0  0  0  0
  189.6890  177.1660  137.9250 C   0  0  0  0  0  2  0  0  0  0  0  0
  191.3590  177.5110  141.3650 C   0  0  0  0  0  3  0  0  0  0  0  0
  183.8320  178.8260  142.7300 C   0  0  0  0  0  0  0  0  0  0  0  0
  181.6480  178.4250  140.6390 C   0  0  0  0  0  3  0  0  0  0  0  0
  186.9270  178.5020  140.5570 N   0  0  0  0  0  2  0  0  0  0  0  0
  190.3470  177.7820  142.2310 C   0  0  0  0  0  2  0  0  0  0  0  0
  184.5730  178.6310  141.4470 C   0  0  1  0  0  3  0  0  0  0  0  0
  182.1830  179.0410  144.2350 N   0  0  0  0  0  0  0  0  0  0  0  0
  188.8630  177.9490  142.0020 C   0  0  0  0  0  0  0  0  0  0  0  0
  191.2160  177.2430  139.9540 N   0  0  0  0  0  0  0  0  0  0  0  0
  181.5610  179.1710  141.7490 C   0  0  0  0  0  0  0  0  0  0  0  0
  186.5660  178.0770  142.8940 C   0  0  0  0  0  0  0  0  0  0  0  0
  189.2060  178.4030  139.5830 C   0  0  2  0  0  3  0  0  0  0  0  0
  186.0480  178.3910  141.6800 C   0  0  0  0  0  0  0  0  0  0  0  0
  187.6740  177.3970  145.5150 C   0  0  0  0  0  2  0  0  0  0  0  0
  182.7040  177.4510  140.2810 C   0  0  0  0  0  3  0  0  0  0  0  0
  188.5500  177.6300  144.3730 N   0  0  0  0  0  2  0  0  0  0  0  0
  183.9840  177.5020  140.6580 C   0  0  0  0  0  3  0  0  0  0  0  0
  182.5430  179.0610  142.8590 C   0  0  0  0  0  0  0  0  0  0  0  0
  186.4170  178.2520  145.3940 C   0  0  0  0  0  2  0  0  0  0  0  0
  184.4480  178.6470  143.9880 N   0  0  0  0  0  0  0  0  0  0  0  0
  180.4200  180.0290  141.8560 N   0  0  0  0  0  2  0  0  0  0  0  0
  179.4140  180.2410  140.8200 C   0  0  0  0  0  2  0  0  0  0  0  0
  179.4040  181.8760  137.5420 N   0  0  0  0  0  2  0  0  0  0  0  0
  178.9310  182.4910  139.8170 C   0  0  0  0  0  2  0  0  0  0  0  0
  179.8630  181.3120  139.8350 C   0  0  2  0  0  3  0  0  0  0  0  0
  179.0560  183.0040  138.4040 C   0  0  0  0  0  2  0  0  0  0  0  0
  179.7960  180.7790  138.4220 C   0  0  0  0  0  2  0  0  0  0  0  0
  1 26  1  1  0  0  0
  3  7  1  6  0  0  0
  3 19  1  0  0  0  0
  3 16  1  0  0  0  0
  4 23  1  0  0  0  0
  5 15  1  0  0  0  0
  7  6  1  0  0  0  0
  8 12  1  0  0  0  0
  9 25  2  0  0  0  0
  9 27  1  0  0  0  0
 10 17  2  0  0  0  0
 11  5  1  0  0  0  0
 11 20  1  0  0  0  0
 13 24  1  1  0  0  0
 13 20  1  0  0  0  0
 13  9  1  0  0  0  0
 14  2  2  0  0  0  0
 15 12  1  0  0  0  0
 15  4  2  0  0  0  0
 16  8  2  0  0  0  0
 17 28  1  0  0  0  0
 17 25  1  0  0  0  0
 18  4  1  0  0  0  0
 18  1  1  0  0  0  0
 19  6  1  6  0  0  0
 19  5  1  0  0  0  0
 20 18  2  0  0  0  0
 22 10  1  0  0  0  0
 22 24  2  0  0  0  0
 23 21  1  0  0  0  0
 25 14  1  0  0  0  0
 26 21  1  0  0  0  0
 27  1  1  0  0  0  0
 27  2  1  0  0  0  0
 29 28  1  0  0  0  0
 30 33  1  0  0  0  0
 30 34  1  0  0  0  0
 31 32  1  0  0  0  0
 32 29  1  1  0  0  0
 33 31  1  0  0  0  0
 34 32  1  0  0  0  0
M  END
>  <MODEL>
6

>  <REMARK>
 VINA RESULT:      -8.9      3.631      9.113
  Name = 
  3 active torsions:
  status: ('A' for Active; 'I' for Inactive)
    1  A    between atoms: C_17  and  N_28
    2  A    between atoms: N_28  and  C_29
    3  A    between atoms: C_29  and  C_32
                            x       y       z     vdW  Elec       q    Type
                         _______ _______ _______ _____ _____    ______ ____

>  <TORSDO>
F 3

$$$$
=
 OpenBabel11122412033D

 34 41  0  0  1  0  0  0  0  0999 V2000
  182.0930  179.3500  142.9090 C   0  0  1  0  0  3  0  0  0  0  0  0
  183.4330  179.0440  145.1000 C   0  0  0  0  0  3  0  0  0  0  0  0
  181.2890  178.3500  136.6900 C   0  0  1  0  0  3  0  0  0  0  0  0
  180.7380  178.8200  140.7810 C   0  0  0  0  0  0  0  0  0  0  0  0
  181.8000  177.7670  138.9020 N   0  0  0  0  0  0  0  0  0  0  0  0
  182.8980  176.9760  136.7270 C   0  0  0  0  0  2  0  0  0  0  0  0
  182.2810  177.8740  135.6530 C   0  0  0  0  0  2  0  0  0  0  0  0
  178.9560  178.3410  137.5160 C   0  0  0  0  0  3  0  0  0  0  0  0
  184.3180  178.2470  143.1270 C   0  0  0  0  0  0  0  0  0  0  0  0
  187.3200  178.2660  142.5850 C   0  0  0  0  0  3  0  0  0  0  0  0
  182.9950  177.6250  139.6240 N   0  0  0  0  0  2  0  0  0  0  0  0
  179.2890  178.4310  138.8310 C   0  0  0  0  0  2  0  0  0  0  0  0
  184.4360  177.9950  141.6590 C   0  0  1  0  0  3  0  0  0  0  0  0
  184.8260  178.6360  145.2770 N   0  0  0  0  0  0  0  0  0  0  0  0
  180.6310  178.3600  139.5220 C   0  0  0  0  0  0  0  0  0  0  0  0
  179.8810  178.2140  136.4160 N   0  0  0  0  0  0  0  0  0  0  0  0
  186.7160  177.8760  143.7170 C   0  0  0  0  0  0  0  0  0  0  0  0
  182.0230  178.7260  141.5250 C   0  0  0  0  0  0  0  0  0  0  0  0
  181.6620  177.2100  137.5740 C   0  0  2  0  0  3  0  0  0  0  0  0
  183.1040  178.1380  140.9550 C   0  0  0  0  0  0  0  0  0  0  0  0
  179.6970  179.9980  142.7620 C   0  0  0  0  0  2  0  0  0  0  0  0
  186.7200  178.9840  141.4390 C   0  0  0  0  0  3  0  0  0  0  0  0
  179.5910  179.3650  141.4540 N   0  0  0  0  0  2  0  0  0  0  0  0
  185.4480  178.9100  141.0410 C   0  0  0  0  0  3  0  0  0  0  0  0
  185.2940  178.1920  144.0090 C   0  0  0  0  0  0  0  0  0  0  0  0
  180.7390  179.2790  143.6110 C   0  0  0  0  0  2  0  0  0  0  0  0
  183.1210  178.7080  143.7170 N   0  0  0  0  0  0  0  0  0  0  0  0
  187.5360  177.2040  144.6800 N   0  0  0  0  0  2  0  0  0  0  0  0
  187.9240  177.7320  145.9840 C   0  0  0  0  0  2  0  0  0  0  0  0
  191.2390  176.5490  147.0010 N   0  0  0  0  0  2  0  0  0  0  0  0
  190.1460  177.1790  144.9550 C   0  0  0  0  0  2  0  0  0  0  0  0
  189.4380  177.8590  146.0920 C   0  0  2  0  0  3  0  0  0  0  0  0
  191.4580  176.7590  145.5710 C   0  0  0  0  0  2  0  0  0  0  0  0
  189.9340  177.1240  147.3160 C   0  0  0  0  0  2  0  0  0  0  0  0
  1 26  1  1  0  0  0
  1 27  1  0  0  0  0
  2 14  2  0  0  0  0
  3  7  1  6  0  0  0
  3 19  1  0  0  0  0
  4 23  1  0  0  0  0
  4 18  1  0  0  0  0
  5 15  1  0  0  0  0
  5 11  1  0  0  0  0
  7  6  1  0  0  0  0
  8 12  1  0  0  0  0
  9 27  1  0  0  0  0
  9 25  2  0  0  0  0
 10 17  2  0  0  0  0
 11 20  1  0  0  0  0
 12 15  1  0  0  0  0
 13 24  1  6  0  0  0
 13  9  1  0  0  0  0
 15  4  2  0  0  0  0
 16  3  1  0  0  0  0
 16  8  2  0  0  0  0
 17 25  1  0  0  0  0
 17 28  1  0  0  0  0
 18  1  1  0  0  0  0
 19  6  1  6  0  0  0
 19  5  1  0  0  0  0
 20 18  2  0  0  0  0
 20 13  1  0  0  0  0
 21 26  1  0  0  0  0
 22 10  1  0  0  0  0
 23 21  1  0  0  0  0
 24 22  2  0  0  0  0
 25 14  1  0  0  0  0
 27  2  1  0  0  0  0
 28 29  1  0  0  0  0
 30 34  1  0  0  0  0
 31 33  1  0  0  0  0
 31 32  1  0  0  0  0
 32 29  1  6  0  0  0
 32 34  1  0  0  0  0
 33 30  1  0  0  0  0
M  END
>  <MODEL>
7

>  <REMARK>
 VINA RESULT:      -8.6      4.956      8.765
  Name = 
  3 active torsions:
  status: ('A' for Active; 'I' for Inactive)
    1  A    between atoms: C_17  and  N_28
    2  A    between atoms: N_28  and  C_29
    3  A    between atoms: C_29  and  C_32
                            x       y       z     vdW  Elec       q    Type
                         _______ _______ _______ _____ _____    ______ ____

>  <TORSDO>
F 3

$$$$
=
 OpenBabel11122412033D

 34 41  0  0  1  0  0  0  0  0999 V2000
  183.6490  178.4860  142.0880 C   0  0  1  0  0  3  0  0  0  0  0  0
  181.2750  179.3800  141.5760 C   0  0  0  0  0  3  0  0  0  0  0  0
  189.5910  177.1290  140.3070 C   0  0  1  0  0  3  0  0  0  0  0  0
  186.2090  178.3770  142.3720 C   0  0  0  0  0  0  0  0  0  0  0  0
  187.6410  178.4240  140.4450 N   0  0  0  0  0  0  0  0  0  0  0  0
  189.2380  178.1130  138.4660 C   0  0  0  0  0  2  0  0  0  0  0  0
  190.1740  176.9900  138.9190 C   0  0  0  0  0  2  0  0  0  0  0  0
  189.9120  177.8560  142.6500 C   0  0  0  0  0  3  0  0  0  0  0  0
  182.7950  179.1880  139.8530 C   0  0  0  0  0  0  0  0  0  0  0  0
  181.9350  178.4480  137.0220 C   0  0  0  0  0  3  0  0  0  0  0  0
  186.5400  178.6270  139.5990 N   0  0  0  0  0  2  0  0  0  0  0  0
  188.6180  178.2250  142.8450 C   0  0  0  0  0  2  0  0  0  0  0  0
  184.0670  178.8300  139.1560 C   0  0  1  0  0  3  0  0  0  0  0  0
  180.6280  179.5790  140.2790 N   0  0  0  0  0  0  0  0  0  0  0  0
  187.4590  178.3260  141.8800 C   0  0  0  0  0  0  0  0  0  0  0  0
  190.4800  177.3880  141.4100 N   0  0  0  0  0  0  0  0  0  0  0  0
  181.3430  179.3420  137.8270 C   0  0  0  0  0  0  0  0  0  0  0  0
  185.0350  178.5290  141.4680 C   0  0  0  0  0  0  0  0  0  0  0  0
  188.9920  178.4400  139.9270 C   0  0  2  0  0  3  0  0  0  0  0  0
  185.2130  178.6570  140.1300 C   0  0  0  0  0  0  0  0  0  0  0  0
  184.6430  178.2520  144.3550 C   0  0  0  0  0  2  0  0  0  0  0  0
  182.9750  177.4570  137.3770 C   0  0  0  0  0  3  0  0  0  0  0  0
  185.9840  178.3400  143.7900 N   0  0  0  0  0  2  0  0  0  0  0  0
  183.8940  177.5880  138.3360 C   0  0  0  0  0  3  0  0  0  0  0  0
  181.6300  179.4120  139.2830 C   0  0  0  0  0  0  0  0  0  0  0  0
  183.6630  179.0540  143.5050 C   0  0  0  0  0  2  0  0  0  0  0  0
  182.6870  179.2030  141.2610 N   0  0  0  0  0  0  0  0  0  0  0  0
  180.3490  180.1820  137.2290 N   0  0  0  0  0  2  0  0  0  0  0  0
  180.5490  181.0430  136.0690 C   0  0  0  0  0  2  0  0  0  0  0  0
  181.6080  184.2740  137.4320 N   0  0  0  0  0  2  0  0  0  0  0  0
  180.7770  183.4340  135.3380 C   0  0  0  0  0  2  0  0  0  0  0  0
  180.3230  182.5060  136.4290 C   0  0  2  0  0  3  0  0  0  0  0  0
  181.1790  184.6770  136.0940 C   0  0  0  0  0  2  0  0  0  0  0  0
  181.1850  182.8880  137.6100 C   0  0  0  0  0  2  0  0  0  0  0  0
  1 26  1  1  0  0  0
  3  7  1  6  0  0  0
  3 16  1  0  0  0  0
  4 23  1  0  0  0  0
  5 15  1  0  0  0  0
  6  7  1  0  0  0  0
  8 12  1  0  0  0  0
  9 27  1  0  0  0  0
 10 22  1  0  0  0  0
 10 17  2  0  0  0  0
 11 20  1  0  0  0  0
 11  5  1  0  0  0  0
 13 24  1  1  0  0  0
 13  9  1  0  0  0  0
 13 20  1  0  0  0  0
 14  2  2  0  0  0  0
 15  4  2  0  0  0  0
 15 12  1  0  0  0  0
 16  8  2  0  0  0  0
 17 25  1  0  0  0  0
 18  1  1  0  0  0  0
 18  4  1  0  0  0  0
 19  6  1  6  0  0  0
 19  3  1  0  0  0  0
 19  5  1  0  0  0  0
 20 18  2  0  0  0  0
 22 24  2  0  0  0  0
 23 21  1  0  0  0  0
 25  9  2  0  0  0  0
 25 14  1  0  0  0  0
 26 21  1  0  0  0  0
 27  2  1  0  0  0  0
 27  1  1  0  0  0  0
 28 17  1  0  0  0  0
 29 28  1  0  0  0  0
 30 34  1  0  0  0  0
 31 33  1  0  0  0  0
 31 32  1  0  0  0  0
 32 29  1  6  0  0  0
 32 34  1  0  0  0  0
 33 30  1  0  0  0  0
M  END
>  <MODEL>
8

>  <REMARK>
 VINA RESULT:      -8.6      5.030      9.047
  Name = 
  3 active torsions:
  status: ('A' for Active; 'I' for Inactive)
    1  A    between atoms: C_17  and  N_28
    2  A    between atoms: N_28  and  C_29
    3  A    between atoms: C_29  and  C_32
                            x       y       z     vdW  Elec       q    Type
                         _______ _______ _______ _____ _____    ______ ____

>  <TORSDO>
F 3

$$$$
=
 OpenBabel11122412033D

 34 41  0  0  1  0  0  0  0  0999 V2000
  185.7240  178.1480  142.3610 C   0  0  1  0  0  3  0  0  0  0  0  0
  185.2990  178.8270  139.9010 C   0  0  0  0  0  3  0  0  0  0  0  0
  189.6520  176.7630  147.1550 C   0  0  1  0  0  3  0  0  0  0  0  0
  186.5460  178.2080  144.8040 C   0  0  0  0  0  0  0  0  0  0  0  0
  188.8840  177.9730  145.2990 N   0  0  0  0  0  0  0  0  0  0  0  0
  191.2870  177.3840  145.9630 C   0  0  0  0  0  2  0  0  0  0  0  0
  191.1200  176.4040  147.1260 C   0  0  0  0  0  2  0  0  0  0  0  0
  187.8000  177.9130  148.3260 C   0  0  0  0  0  3  0  0  0  0  0  0
  187.4570  178.3980  140.5870 C   0  0  0  0  0  0  0  0  0  0  0  0
  189.5130  177.1230  138.7290 C   0  0  0  0  0  3  0  0  0  0  0  0
  189.2000  177.9700  143.9310 N   0  0  0  0  0  2  0  0  0  0  0  0
  187.1280  178.2530  147.1940 C   0  0  0  0  0  3  0  0  0  0  0  0
  188.5700  177.9780  141.4910 C   0  0  1  0  0  3  0  0  0  0  0  0
  186.2100  178.7610  138.7590 N   0  0  0  0  0  0  0  0  0  0  0  0
  187.5110  178.1260  145.7370 C   0  0  0  0  0  0  0  0  0  0  0  0
  189.0830  177.2560  148.3830 N   0  0  0  0  0  2  0  0  0  0  0  0
  188.6700  178.1190  138.4220 C   0  0  0  0  0  0  0  0  0  0  0  0
  186.8750  178.1420  143.3540 C   0  0  0  0  0  0  0  0  0  0  0  0
  189.9250  177.9560  146.3030 C   0  0  2  0  0  3  0  0  0  0  0  0
  188.1640  178.0350  142.9470 C   0  0  0  0  0  0  0  0  0  0  0  0
  184.0900  178.3720  144.2220 C   0  0  0  0  0  2  0  0  0  0  0  0
  189.4960  176.2590  139.9320 C   0  0  0  0  0  3  0  0  0  0  0  0
  185.1780  178.4160  145.1910 N   0  0  0  0  0  2  0  0  0  0  0  0
  189.0500  176.6030  141.1420 C   0  0  0  0  0  3  0  0  0  0  0  0
  187.5020  178.4630  139.2730 C   0  0  0  0  0  0  0  0  0  0  0  0
  184.5460  178.9620  142.8930 C   0  0  0  0  0  2  0  0  0  0  0  0
  186.1560  178.6610  141.0680 N   0  0  0  0  0  0  0  0  0  0  0  0
  188.9020  178.7920  137.1790 N   0  0  0  0  0  2  0  0  0  0  0  0
  189.4650  178.1890  135.9760 C   0  0  0  0  0  2  0  0  0  0  0  0
  186.7190  175.8630  135.2860 N   0  0  0  0  0  2  0  0  0  0  0  0
  187.0340  178.2450  135.3510 C   0  0  0  0  0  2  0  0  0  0  0  0
  188.3680  177.6030  135.0950 C   0  0  2  0  0  3  0  0  0  0  0  0
  186.0570  177.1410  135.0310 C   0  0  0  0  0  2  0  0  0  0  0  0
  188.1420  176.1500  135.4450 C   0  0  0  0  0  2  0  0  0  0  0  0
  1 26  1  1  0  0  0
  1 18  1  0  0  0  0
  2 27  1  0  0  0  0
  3  7  1  1  0  0  0
  3 16  1  0  0  0  0
  4 23  1  0  0  0  0
  4 15  2  0  0  0  0
  5 15  1  0  0  0  0
  5 19  1  0  0  0  0
  6  7  1  0  0  0  0
  8 16  1  0  0  0  0
  9 27  1  0  0  0  0
  9 13  1  0  0  0  0
 10 22  1  0  0  0  0
 11  5  1  0  0  0  0
 12  8  2  0  0  0  0
 13 24  1  6  0  0  0
 13 20  1  0  0  0  0
 14 25  1  0  0  0  0
 14  2  2  0  0  0  0
 15 12  1  0  0  0  0
 17 10  2  0  0  0  0
 17 25  1  0  0  0  0
 18  4  1  0  0  0  0
 19  6  1  6  0  0  0
 19  3  1  0  0  0  0
 20 18  2  0  0  0  0
 20 11  1  0  0  0  0
 21 23  1  0  0  0  0
 22 24  2  0  0  0  0
 25  9  2  0  0  0  0
 26 21  1  0  0  0  0
 27  1  1  0  0  0  0
 28 17  1  0  0  0  0
 29 28  1  0  0  0  0
 30 34  1  0  0  0  0
 32 31  1  0  0  0  0
 32 34  1  0  0  0  0
 32 29  1  1  0  0  0
 33 30  1  0  0  0  0
 33 31  1  0  0  0  0
M  END
>  <MODEL>
9

>  <REMARK>
 VINA RESULT:      -8.4      2.766      5.131
  Name = 
  3 active torsions:
  status: ('A' for Active; 'I' for Inactive)
    1  A    between atoms: C_17  and  N_28
    2  A    between atoms: N_28  and  C_29
    3  A    between atoms: C_29  and  C_32
                            x       y       z     vdW  Elec       q    Type
                         _______ _______ _______ _____ _____    ______ ____

>  <TORSDO>
F 3

$$$$
