=
 OpenBabel11122410443D

 32 37  0  0  1  0  0  0  0  0999 V2000
  181.2760  178.2370  138.9190 C   0  0  0  0  0  2  0  0  0  0  0  0
  185.8000  178.7160  141.9420 C   0  0  2  0  0  3  0  0  0  0  0  0
  185.2850  179.3130  146.5500 C   0  0  0  0  0  2  0  0  0  0  0  0
  185.8950  177.9580  146.9460 C   0  0  0  0  0  2  0  0  0  0  0  0
  188.1680  178.2650  141.1380 C   0  0  0  0  0  0  0  0  0  0  0  0
  189.4320  177.5800  141.3440 C   0  0  0  0  0  0  0  0  0  0  0  0
  183.8660  179.0170  140.3480 C   0  0  2  0  0  3  0  0  0  0  0  0
  183.3910  178.7340  142.6940 C   0  0  0  0  0  2  0  0  0  0  0  0
  190.9830  176.5200  142.4520 N   0  0  0  0  0  0  0  0  0  0  0  0
  181.6620  179.1940  141.2410 C   0  0  0  0  0  2  0  0  0  0  0  0
  184.7590  179.3180  145.0980 C   0  0  0  0  0  2  0  0  0  0  0  0
  184.7800  178.1340  142.9300 C   0  0  2  0  0  3  0  0  0  0  0  0
  185.2080  178.1340  144.3480 N   0  0  1  0  0  0  0  0  0  0  0  0
  187.3820  177.3250  143.3810 C   0  0  2  0  0  3  0  0  0  0  0  0
  191.4780  176.7720  141.2470 N   0  0  0  0  0  0  0  0  0  0  0  0
  182.2140  179.2220  138.5850 O   0  0  0  0  0  0  0  0  0  0  0  0
  182.9180  178.4550  141.3360 N   0  0  1  0  0  0  0  0  0  0  0  0
  190.5400  177.4350  140.5280 C   0  0  0  0  0  3  0  0  0  0  0  0
  183.4500  178.6580  138.9160 C   0  0  0  0  0  2  0  0  0  0  0  0
  180.6720  178.5020  140.2990 C   0  0  1  0  0  3  0  0  0  0  0  0
  186.9520  177.4780  145.9360 C   0  0  0  0  0  2  0  0  0  0  0  0
  186.6620  178.0300  144.5350 C   0  0  2  0  0  3  0  0  0  0  0  0
  188.8820  177.1480  143.7380 C   0  0  0  0  0  2  0  0  0  0  0  0
  185.2640  178.4260  140.5410 C   0  0  0  0  0  2  0  0  0  0  0  0
  187.9980  178.9880  140.1180 O   0  0  0  0  0  0  0  0  0  0  0  0
  191.7330  175.8850  143.5210 C   0  0  0  0  0  1  0  0  0  0  0  0
  187.1350  178.1120  142.1410 N   0  0  0  0  0  0  0  0  0  0  0  0
  189.7300  176.9890  142.5230 C   0  0  0  0  0  0  0  0  0  0  0  0
  179.4200  179.3520  140.1460 C   0  0  0  0  0  2  0  0  0  0  0  0
  179.7050  180.7770  140.4720 C   0  0  0  0  0  0  0  0  0  0  0  0
  180.2150  181.6250  139.4980 O   0  0  0  0  0  0  0  0  0  0  0  0
  179.4580  181.2220  141.6230 O   0  0  0  0  0  1  0  0  0  0  0  0
  1 20  1  0  0  0  0
  2 24  1  6  0  0  0
  2 27  1  0  0  0  0
  2 12  1  0  0  0  0
  3  4  1  0  0  0  0
  5  6  1  0  0  0  0
  5 27  1  0  0  0  0
  6 28  2  0  0  0  0
  7 19  1  6  0  0  0
  7 24  1  0  0  0  0
  7 17  1  0  0  0  0
  9 28  1  0  0  0  0
  9 26  1  0  0  0  0
 11  3  1  0  0  0  0
 12  8  1  1  0  0  0
 12 13  1  0  0  0  0
 13 22  1  0  0  0  0
 13 11  1  6  0  0  0
 14 23  1  1  0  0  0
 14 22  1  0  0  0  0
 15  9  1  0  0  0  0
 16 19  1  0  0  0  0
 16  1  1  0  0  0  0
 17 10  1  1  0  0  0
 17  8  1  0  0  0  0
 18 15  2  0  0  0  0
 18  6  1  0  0  0  0
 20 29  1  6  0  0  0
 20 10  1  0  0  0  0
 21  4  1  0  0  0  0
 22 21  1  1  0  0  0
 25  5  2  0  0  0  0
 27 14  1  0  0  0  0
 28 23  1  0  0  0  0
 29 30  1  0  0  0  0
 30 32  1  0  0  0  0
 31 30  2  0  0  0  0
M  END
>  <MODEL>
1

>  <REMARK>
 VINA RESULT:      -8.9      0.000      0.000
  Name = 
  2 active torsions:
  status: ('A' for Active; 'I' for Inactive)
    1  A    between atoms: C_20  and  C_29
    2  A    between atoms: C_29  and  C_30
                            x       y       z     vdW  Elec       q    Type
                         _______ _______ _______ _____ _____    ______ ____

>  <TORSDO>
F 2

$$$$
=
 OpenBabel11122410443D

 32 37  0  0  1  0  0  0  0  0999 V2000
  188.8870  176.7480  146.6300 C   0  0  0  0  0  2  0  0  0  0  0  0
  189.0910  177.8390  141.2820 C   0  0  2  0  0  3  0  0  0  0  0  0
  193.1900  177.2830  139.1030 C   0  0  0  0  0  2  0  0  0  0  0  0
  192.7350  176.1050  138.2260 C   0  0  0  0  0  2  0  0  0  0  0  0
  187.0830  178.2560  139.7830 C   0  0  0  0  0  0  0  0  0  0  0  0
  186.3630  177.9290  138.5630 C   0  0  0  0  0  0  0  0  0  0  0  0
  188.9340  177.9090  143.8010 C   0  0  2  0  0  3  0  0  0  0  0  0
  190.9350  177.0170  142.7960 C   0  0  0  0  0  2  0  0  0  0  0  0
  186.0820  177.1430  136.5490 N   0  0  0  0  0  0  0  0  0  0  0  0
  190.8370  177.2630  145.0850 C   0  0  0  0  0  2  0  0  0  0  0  0
  192.3180  177.4450  140.3680 C   0  0  0  0  0  2  0  0  0  0  0  0
  190.2040  176.7990  141.4690 C   0  0  2  0  0  3  0  0  0  0  0  0
  191.1000  176.6220  140.3030 N   0  0  1  0  0  0  0  0  0  0  0  0
  188.9440  176.6820  139.0130 C   0  0  2  0  0  3  0  0  0  0  0  0
  184.9600  177.7710  136.8740 N   0  0  0  0  0  0  0  0  0  0  0  0
  188.4670  178.0050  146.1780 O   0  0  0  0  0  0  0  0  0  0  0  0
  190.0170  176.9070  143.9310 N   0  0  1  0  0  0  0  0  0  0  0  0
  185.0990  178.2780  138.1230 C   0  0  0  0  0  3  0  0  0  0  0  0
  187.9010  177.7560  144.9240 C   0  0  0  0  0  2  0  0  0  0  0  0
  190.3760  176.5350  146.3510 C   0  0  1  0  0  3  0  0  0  0  0  0
  191.2320  176.1670  137.9010 C   0  0  0  0  0  2  0  0  0  0  0  0
  190.4620  176.8950  139.0090 C   0  0  2  0  0  3  0  0  0  0  0  0
  188.3910  176.8650  137.5750 C   0  0  0  0  0  2  0  0  0  0  0  0
  188.1670  177.7100  142.4920 C   0  0  0  0  0  2  0  0  0  0  0  0
  186.6080  179.0990  140.5920 O   0  0  0  0  0  0  0  0  0  0  0  0
  186.3250  176.5350  135.2520 C   0  0  0  0  0  1  0  0  0  0  0  0
  188.3570  177.6100  140.0200 N   0  0  0  0  0  0  0  0  0  0  0  0
  186.9420  177.2120  137.5740 C   0  0  0  0  0  0  0  0  0  0  0  0
  191.1850  177.0080  147.5480 C   0  0  0  0  0  2  0  0  0  0  0  0
  192.3460  176.1060  147.7920 C   0  0  0  0  0  0  0  0  0  0  0  0
  193.1790  176.3240  148.8820 O   0  0  0  0  0  1  0  0  0  0  0  0
  192.5590  175.1310  147.0260 O   0  0  0  0  0  0  0  0  0  0  0  0
  2 12  1  0  0  0  0
  2 24  1  1  0  0  0
  3 11  1  0  0  0  0
  4  3  1  0  0  0  0
  5 27  1  0  0  0  0
  5 25  2  0  0  0  0
  6  5  1  0  0  0  0
  7 24  1  6  0  0  0
  7 17  1  0  0  0  0
  7 19  1  0  0  0  0
  9 15  1  0  0  0  0
  9 28  1  0  0  0  0
 10 20  1  0  0  0  0
 12  8  1  1  0  0  0
 13 11  1  1  0  0  0
 13 12  1  0  0  0  0
 14 23  1  6  0  0  0
 14 27  1  0  0  0  0
 15 18  2  0  0  0  0
 16  1  1  0  0  0  0
 17  8  1  6  0  0  0
 17 10  1  0  0  0  0
 18  6  1  0  0  0  0
 19 16  1  0  0  0  0
 20  1  1  0  0  0  0
 20 29  1  1  0  0  0
 21  4  1  0  0  0  0
 22 21  1  6  0  0  0
 22 14  1  0  0  0  0
 22 13  1  0  0  0  0
 26  9  1  0  0  0  0
 27  2  1  0  0  0  0
 28 23  1  0  0  0  0
 28  6  2  0  0  0  0
 29 30  1  0  0  0  0
 30 31  1  0  0  0  0
 32 30  2  0  0  0  0
M  END
>  <MODEL>
2

>  <REMARK>
 VINA RESULT:      -8.9      3.838      8.974
  Name = 
  2 active torsions:
  status: ('A' for Active; 'I' for Inactive)
    1  A    between atoms: C_20  and  C_29
    2  A    between atoms: C_29  and  C_30
                            x       y       z     vdW  Elec       q    Type
                         _______ _______ _______ _____ _____    ______ ____

>  <TORSDO>
F 2

$$$$
=
 OpenBabel11122410443D

 32 37  0  0  1  0  0  0  0  0999 V2000
  191.7830  175.5080  137.4580 C   0  0  0  0  0  2  0  0  0  0  0  0
  189.6070  177.7840  141.9200 C   0  0  2  0  0  3  0  0  0  0  0  0
  185.2210  179.3780  141.6320 C   0  0  0  0  0  2  0  0  0  0  0  0
  184.6240  178.3500  142.6070 C   0  0  0  0  0  2  0  0  0  0  0  0
  190.6150  177.7180  144.2520 C   0  0  0  0  0  0  0  0  0  0  0  0
  190.4400  177.4260  145.6650 C   0  0  0  0  0  0  0  0  0  0  0  0
  190.9410  177.2090  139.8560 C   0  0  2  0  0  3  0  0  0  0  0  0
  188.5480  177.4200  139.6590 C   0  0  0  0  0  2  0  0  0  0  0  0
  189.3530  177.0750  147.5230 N   0  0  0  0  0  0  0  0  0  0  0  0
  189.8090  177.0790  137.7610 C   0  0  0  0  0  2  0  0  0  0  0  0
  186.5500  178.8950  141.0110 C   0  0  0  0  0  2  0  0  0  0  0  0
  188.3810  177.2450  141.1710 C   0  0  2  0  0  3  0  0  0  0  0  0
  187.0730  177.7010  141.6950 N   0  0  1  0  0  0  0  0  0  0  0  0
  188.1310  177.2120  143.9220 C   0  0  2  0  0  3  0  0  0  0  0  0
  190.6410  177.1260  147.8370 N   0  0  0  0  0  0  0  0  0  0  0  0
  192.4560  176.5700  138.0740 O   0  0  0  0  0  0  0  0  0  0  0  0
  189.7290  176.7060  139.1700 N   0  0  1  0  0  0  0  0  0  0  0  0
  191.3510  177.3470  146.7040 C   0  0  0  0  0  3  0  0  0  0  0  0
  192.1840  176.4150  139.4370 C   0  0  0  0  0  2  0  0  0  0  0  0
  190.4260  175.9590  136.9160 C   0  0  1  0  0  3  0  0  0  0  0  0
  185.6400  177.8950  143.6700 C   0  0  0  0  0  2  0  0  0  0  0  0
  187.0730  177.9930  143.1350 C   0  0  2  0  0  3  0  0  0  0  0  0
  187.9580  177.4900  145.4390 C   0  0  0  0  0  2  0  0  0  0  0  0
  190.8190  177.0330  141.3710 C   0  0  0  0  0  2  0  0  0  0  0  0
  191.7350  178.1010  143.8180 O   0  0  0  0  0  0  0  0  0  0  0  0
  188.2850  176.9240  148.4950 C   0  0  0  0  0  1  0  0  0  0  0  0
  189.4680  177.5820  143.3780 N   0  0  0  0  0  0  0  0  0  0  0  0
  189.2130  177.2370  146.2000 C   0  0  0  0  0  0  0  0  0  0  0  0
  190.5870  176.4230  135.4770 C   0  0  0  0  0  2  0  0  0  0  0  0
  189.2600  176.6960  134.8570 C   0  0  0  0  0  0  0  0  0  0  0  0
  188.3860  175.6500  134.5950 O   0  0  0  0  0  1  0  0  0  0  0  0
  188.9190  177.8790  134.5940 O   0  0  0  0  0  0  0  0  0  0  0  0
  1 16  1  0  0  0  0
  2 24  1  6  0  0  0
  2 27  1  0  0  0  0
  3  4  1  0  0  0  0
  4 21  1  0  0  0  0
  5  6  1  0  0  0  0
  6 28  2  0  0  0  0
  6 18  1  0  0  0  0
  7 19  1  6  0  0  0
  7 24  1  0  0  0  0
  9 15  1  0  0  0  0
  9 26  1  0  0  0  0
 11  3  1  0  0  0  0
 12  8  1  6  0  0  0
 12 13  1  0  0  0  0
 12  2  1  0  0  0  0
 13 11  1  6  0  0  0
 13 22  1  0  0  0  0
 14 23  1  1  0  0  0
 16 19  1  0  0  0  0
 17 10  1  6  0  0  0
 17  8  1  0  0  0  0
 17  7  1  0  0  0  0
 18 15  2  0  0  0  0
 20 29  1  6  0  0  0
 20  1  1  0  0  0  0
 20 10  1  0  0  0  0
 22 21  1  1  0  0  0
 22 14  1  0  0  0  0
 23 28  1  0  0  0  0
 25  5  2  0  0  0  0
 27 14  1  0  0  0  0
 27  5  1  0  0  0  0
 28  9  1  0  0  0  0
 30 29  1  0  0  0  0
 31 30  1  0  0  0  0
 32 30  2  0  0  0  0
M  END
>  <MODEL>
3

>  <REMARK>
 VINA RESULT:      -8.5      4.236      7.106
  Name = 
  2 active torsions:
  status: ('A' for Active; 'I' for Inactive)
    1  A    between atoms: C_20  and  C_29
    2  A    between atoms: C_29  and  C_30
                            x       y       z     vdW  Elec       q    Type
                         _______ _______ _______ _____ _____    ______ ____

>  <TORSDO>
F 2

$$$$
=
 OpenBabel11122410443D

 32 37  0  0  1  0  0  0  0  0999 V2000
  188.4310  176.7520  147.9710 C   0  0  0  0  0  2  0  0  0  0  0  0
  185.9660  178.7370  143.5200 C   0  0  2  0  0  3  0  0  0  0  0  0
  188.4610  178.9700  139.5720 C   0  0  0  0  0  2  0  0  0  0  0  0
  187.6400  177.9150  138.8130 C   0  0  0  0  0  2  0  0  0  0  0  0
  183.4770  179.1920  143.2900 C   0  0  0  0  0  0  0  0  0  0  0  0
  182.2520  179.0030  142.5320 C   0  0  0  0  0  0  0  0  0  0  0  0
  187.0710  178.3690  145.7590 C   0  0  2  0  0  3  0  0  0  0  0  0
  188.3210  177.8640  143.7620 C   0  0  0  0  0  2  0  0  0  0  0  0
  181.0180  178.5400  140.7940 N   0  0  0  0  0  0  0  0  0  0  0  0
  189.3630  177.7140  145.8120 C   0  0  0  0  0  2  0  0  0  0  0  0
  188.3250  178.8290  141.1050 C   0  0  0  0  0  2  0  0  0  0  0  0
  187.0320  177.7980  142.9390 C   0  0  2  0  0  3  0  0  0  0  0  0
  187.2380  177.9090  141.4770 N   0  0  1  0  0  0  0  0  0  0  0  0
  184.7260  177.9660  141.4280 C   0  0  2  0  0  3  0  0  0  0  0  0
  180.1990  178.9880  141.7360 N   0  0  0  0  0  0  0  0  0  0  0  0
  187.8360  178.0180  148.0330 O   0  0  0  0  0  0  0  0  0  0  0  0
  188.0820  177.4740  145.1530 N   0  0  1  0  0  0  0  0  0  0  0  0
  180.9330  179.2910  142.8340 C   0  0  0  0  0  3  0  0  0  0  0  0
  186.7260  177.9270  147.1870 C   0  0  0  0  0  2  0  0  0  0  0  0
  189.5900  176.7410  146.9730 C   0  0  1  0  0  3  0  0  0  0  0  0
  186.1720  177.8780  139.2740 C   0  0  0  0  0  2  0  0  0  0  0  0
  186.0430  178.3290  140.7330 C   0  0  2  0  0  3  0  0  0  0  0  0
  183.5350  178.3300  140.5020 C   0  0  0  0  0  2  0  0  0  0  0  0
  185.7590  178.3150  144.9730 C   0  0  0  0  0  2  0  0  0  0  0  0
  183.4580  179.8360  144.3740 O   0  0  0  0  0  0  0  0  0  0  0  0
  180.5950  178.1850  139.4510 C   0  0  0  0  0  1  0  0  0  0  0  0
  184.7060  178.6480  142.7510 N   0  0  0  0  0  0  0  0  0  0  0  0
  182.2720  178.5240  141.2680 C   0  0  0  0  0  0  0  0  0  0  0  0
  190.8820  177.0870  147.6970 C   0  0  0  0  0  2  0  0  0  0  0  0
  191.9610  176.1230  147.3430 C   0  0  0  0  0  0  0  0  0  0  0  0
  192.0550  175.6280  146.0500 O   0  0  0  0  0  0  0  0  0  0  0  0
  192.8050  175.7760  148.2100 O   0  0  0  0  0  1  0  0  0  0  0  0
  1 16  1  0  0  0  0
  2 24  1  1  0  0  0
  3 11  1  0  0  0  0
  4 21  1  0  0  0  0
  4  3  1  0  0  0  0
  5 25  2  0  0  0  0
  6 18  1  0  0  0  0
  6  5  1  0  0  0  0
  7 24  1  6  0  0  0
  7 19  1  0  0  0  0
  9 28  1  0  0  0  0
  9 15  1  0  0  0  0
 10 20  1  0  0  0  0
 12  2  1  0  0  0  0
 12  8  1  1  0  0  0
 13 11  1  1  0  0  0
 13 12  1  0  0  0  0
 14 23  1  6  0  0  0
 14 27  1  0  0  0  0
 15 18  2  0  0  0  0
 17  8  1  6  0  0  0
 17  7  1  0  0  0  0
 17 10  1  0  0  0  0
 19 16  1  0  0  0  0
 20 29  1  1  0  0  0
 20  1  1  0  0  0  0
 22 21  1  6  0  0  0
 22 14  1  0  0  0  0
 22 13  1  0  0  0  0
 23 28  1  0  0  0  0
 26  9  1  0  0  0  0
 27  5  1  0  0  0  0
 27  2  1  0  0  0  0
 28  6  2  0  0  0  0
 30 29  1  0  0  0  0
 30 32  1  0  0  0  0
 31 30  2  0  0  0  0
M  END
>  <MODEL>
4

>  <REMARK>
 VINA RESULT:      -8.3      3.337      8.875
  Name = 
  2 active torsions:
  status: ('A' for Active; 'I' for Inactive)
    1  A    between atoms: C_20  and  C_29
    2  A    between atoms: C_29  and  C_30
                            x       y       z     vdW  Elec       q    Type
                         _______ _______ _______ _____ _____    ______ ____

>  <TORSDO>
F 2

$$$$
=
 OpenBabel11122410443D

 32 37  0  0  1  0  0  0  0  0999 V2000
  189.1400  176.8390  145.4860 C   0  0  0  0  0  2  0  0  0  0  0  0
  186.6300  178.6290  140.9780 C   0  0  2  0  0  3  0  0  0  0  0  0
  189.1800  179.0280  137.0790 C   0  0  0  0  0  2  0  0  0  0  0  0
  188.4510  177.9150  136.3090 C   0  0  0  0  0  2  0  0  0  0  0  0
  184.1200  178.9050  140.6970 C   0  0  0  0  0  0  0  0  0  0  0  0
  182.9270  178.6270  139.9160 C   0  0  0  0  0  0  0  0  0  0  0  0
  187.7130  178.3470  143.2410 C   0  0  2  0  0  3  0  0  0  0  0  0
  189.0360  177.9280  141.2700 C   0  0  0  0  0  2  0  0  0  0  0  0
  181.7640  178.0710  138.1560 N   0  0  0  0  0  0  0  0  0  0  0  0
  190.0450  177.8580  143.3410 C   0  0  0  0  0  2  0  0  0  0  0  0
  189.0240  178.8820  138.6100 C   0  0  0  0  0  2  0  0  0  0  0  0
  187.7720  177.7670  140.4220 C   0  0  2  0  0  3  0  0  0  0  0  0
  187.9990  177.8880  138.9640 N   0  0  1  0  0  0  0  0  0  0  0  0
  185.4900  177.7660  138.8650 C   0  0  2  0  0  3  0  0  0  0  0  0
  180.8970  178.4630  139.0800 N   0  0  0  0  0  0  0  0  0  0  0  0
  188.4560  178.0590  145.5310 O   0  0  0  0  0  0  0  0  0  0  0  0
  188.7980  177.5250  142.6580 N   0  0  1  0  0  0  0  0  0  0  0  0
  181.5850  178.8210  140.1910 C   0  0  0  0  0  3  0  0  0  0  0  0
  187.3720  177.8860  144.6630 C   0  0  0  0  0  2  0  0  0  0  0  0
  190.3170  176.9070  144.5110 C   0  0  1  0  0  3  0  0  0  0  0  0
  186.9810  177.7740  136.7410 C   0  0  0  0  0  2  0  0  0  0  0  0
  186.7910  178.2200  138.1950 C   0  0  2  0  0  3  0  0  0  0  0  0
  184.2950  178.0410  137.9140 C   0  0  0  0  0  2  0  0  0  0  0  0
  186.4250  178.1980  142.4290 C   0  0  0  0  0  2  0  0  0  0  0  0
  184.0330  179.5490  141.7780 O   0  0  0  0  0  0  0  0  0  0  0  0
  181.3940  177.6830  136.8060 C   0  0  0  0  0  1  0  0  0  0  0  0
  185.3950  178.4490  140.1850 N   0  0  0  0  0  0  0  0  0  0  0  0
  183.0060  178.1460  138.6550 C   0  0  0  0  0  0  0  0  0  0  0  0
  191.5660  177.3460  145.2580 C   0  0  0  0  0  2  0  0  0  0  0  0
  191.8420  176.4400  146.4080 C   0  0  0  0  0  0  0  0  0  0  0  0
  191.7320  176.9140  147.7090 O   0  0  0  0  0  1  0  0  0  0  0  0
  192.1480  175.2370  146.2030 O   0  0  0  0  0  0  0  0  0  0  0  0
  1 16  1  0  0  0  0
  2 24  1  1  0  0  0
  3 11  1  0  0  0  0
  4 21  1  0  0  0  0
  4  3  1  0  0  0  0
  5 25  2  0  0  0  0
  6 18  1  0  0  0  0
  6  5  1  0  0  0  0
  7 24  1  6  0  0  0
  7 19  1  0  0  0  0
  9 28  1  0  0  0  0
  9 15  1  0  0  0  0
 10 20  1  0  0  0  0
 12  2  1  0  0  0  0
 12  8  1  1  0  0  0
 13 11  1  1  0  0  0
 13 12  1  0  0  0  0
 14 23  1  6  0  0  0
 14 27  1  0  0  0  0
 15 18  2  0  0  0  0
 17  8  1  6  0  0  0
 17  7  1  0  0  0  0
 17 10  1  0  0  0  0
 19 16  1  0  0  0  0
 20 29  1  1  0  0  0
 20  1  1  0  0  0  0
 22 21  1  6  0  0  0
 22 14  1  0  0  0  0
 22 13  1  0  0  0  0
 23 28  1  0  0  0  0
 26  9  1  0  0  0  0
 27  5  1  0  0  0  0
 27  2  1  0  0  0  0
 28  6  2  0  0  0  0
 29 30  1  0  0  0  0
 30 31  1  0  0  0  0
 32 30  2  0  0  0  0
M  END
>  <MODEL>
5

>  <REMARK>
 VINA RESULT:      -8.0      3.268      8.857
  Name = 
  2 active torsions:
  status: ('A' for Active; 'I' for Inactive)
    1  A    between atoms: C_20  and  C_29
    2  A    between atoms: C_29  and  C_30
                            x       y       z     vdW  Elec       q    Type
                         _______ _______ _______ _____ _____    ______ ____

>  <TORSDO>
F 2

$$$$
=
 OpenBabel11122410443D

 32 37  0  0  1  0  0  0  0  0999 V2000
  180.3930  180.1100  141.5730 C   0  0  0  0  0  2  0  0  0  0  0  0
  185.4280  177.9950  141.5300 C   0  0  2  0  0  3  0  0  0  0  0  0
  187.5240  177.4490  137.3860 C   0  0  0  0  0  2  0  0  0  0  0  0
  188.6230  178.4950  137.6350 C   0  0  0  0  0  2  0  0  0  0  0  0
  186.8940  177.6310  143.5730 C   0  0  0  0  0  0  0  0  0  0  0  0
  188.1780  177.8300  144.2230 C   0  0  0  0  0  0  0  0  0  0  0  0
  182.9490  178.4360  141.7080 C   0  0  2  0  0  3  0  0  0  0  0  0
  184.0310  178.7810  139.5820 C   0  0  0  0  0  2  0  0  0  0  0  0
  190.3140  178.2510  144.3610 N   0  0  0  0  0  0  0  0  0  0  0  0
  181.7410  178.9980  139.7290 C   0  0  0  0  0  2  0  0  0  0  0  0
  186.2830  177.6770  138.2790 C   0  0  0  0  0  2  0  0  0  0  0  0
  185.4010  178.8570  140.2600 C   0  0  2  0  0  3  0  0  0  0  0  0
  186.5460  178.6590  139.3420 N   0  0  1  0  0  0  0  0  0  0  0  0
  187.8780  178.7040  141.4730 C   0  0  2  0  0  3  0  0  0  0  0  0
  189.9170  177.8880  145.5730 N   0  0  0  0  0  0  0  0  0  0  0  0
  180.6150  178.8750  142.1940 O   0  0  0  0  0  0  0  0  0  0  0  0
  182.9710  179.2550  140.4740 N   0  0  1  0  0  0  0  0  0  0  0  0
  188.5900  177.6140  145.5260 C   0  0  0  0  0  3  0  0  0  0  0  0
  181.9130  178.9670  142.7060 C   0  0  0  0  0  2  0  0  0  0  0  0
  180.6530  180.0210  140.0680 C   0  0  1  0  0  3  0  0  0  0  0  0
  188.9840  178.6180  139.1260 C   0  0  0  0  0  2  0  0  0  0  0  0
  187.7880  178.2500  140.0120 C   0  0  2  0  0  3  0  0  0  0  0  0
  189.2750  178.3410  142.0420 C   0  0  0  0  0  2  0  0  0  0  0  0
  184.2990  178.5020  142.4250 C   0  0  0  0  0  2  0  0  0  0  0  0
  185.9580  177.0470  144.1850 O   0  0  0  0  0  0  0  0  0  0  0  0
  191.6920  178.5510  144.0140 C   0  0  0  0  0  1  0  0  0  0  0  0
  186.7370  178.0950  142.2110 N   0  0  0  0  0  0  0  0  0  0  0  0
  189.2640  178.2400  143.5290 C   0  0  0  0  0  0  0  0  0  0  0  0
  179.3600  179.6610  139.3540 C   0  0  0  0  0  2  0  0  0  0  0  0
  179.3470  180.2150  137.9710 C   0  0  0  0  0  0  0  0  0  0  0  0
  179.6800  181.5450  137.7520 O   0  0  0  0  0  1  0  0  0  0  0  0
  179.0590  179.4720  136.9970 O   0  0  0  0  0  0  0  0  0  0  0  0
  1 16  1  0  0  0  0
  2 27  1  0  0  0  0
  2 24  1  1  0  0  0
  3  4  1  0  0  0  0
  3 11  1  0  0  0  0
  4 21  1  0  0  0  0
  5 25  2  0  0  0  0
  5  6  1  0  0  0  0
  6 18  1  0  0  0  0
  7 24  1  1  0  0  0
  7 19  1  0  0  0  0
  9 15  1  0  0  0  0
 10 20  1  0  0  0  0
 10 17  1  0  0  0  0
 12  8  1  6  0  0  0
 12  2  1  0  0  0  0
 13 11  1  6  0  0  0
 13 22  1  0  0  0  0
 13 12  1  0  0  0  0
 14 23  1  1  0  0  0
 14 27  1  0  0  0  0
 16 19  1  0  0  0  0
 17  8  1  6  0  0  0
 17  7  1  0  0  0  0
 18 15  2  0  0  0  0
 20 29  1  6  0  0  0
 20  1  1  0  0  0  0
 22 21  1  6  0  0  0
 22 14  1  0  0  0  0
 23 28  1  0  0  0  0
 26  9  1  0  0  0  0
 27  5  1  0  0  0  0
 28  6  2  0  0  0  0
 28  9  1  0  0  0  0
 30 29  1  0  0  0  0
 31 30  1  0  0  0  0
 32 30  2  0  0  0  0
M  END
>  <MODEL>
6

>  <REMARK>
 VINA RESULT:      -8.0      2.163      4.228
  Name = 
  2 active torsions:
  status: ('A' for Active; 'I' for Inactive)
    1  A    between atoms: C_20  and  C_29
    2  A    between atoms: C_29  and  C_30
                            x       y       z     vdW  Elec       q    Type
                         _______ _______ _______ _____ _____    ______ ____

>  <TORSDO>
F 2

$$$$
=
 OpenBabel11122410443D

 32 37  0  0  1  0  0  0  0  0999 V2000
  187.8090  177.1070  145.3340 C   0  0  0  0  0  2  0  0  0  0  0  0
  186.0500  178.5960  140.3820 C   0  0  2  0  0  3  0  0  0  0  0  0
  189.2250  178.9970  136.9740 C   0  0  0  0  0  2  0  0  0  0  0  0
  188.6970  177.8190  136.1380 C   0  0  0  0  0  2  0  0  0  0  0  0
  183.6180  178.7240  139.6560 C   0  0  0  0  0  0  0  0  0  0  0  0
  182.5960  178.3520  138.6930 C   0  0  0  0  0  0  0  0  0  0  0  0
  186.7290  178.4550  142.8090 C   0  0  2  0  0  3  0  0  0  0  0  0
  188.3970  178.0390  141.1200 C   0  0  0  0  0  2  0  0  0  0  0  0
  181.7900  177.6720  136.7830 N   0  0  0  0  0  0  0  0  0  0  0  0
  189.0280  178.0980  143.3360 C   0  0  0  0  0  2  0  0  0  0  0  0
  188.8080  178.8980  138.4580 C   0  0  0  0  0  2  0  0  0  0  0  0
  187.3110  177.7790  140.0730 C   0  0  2  0  0  3  0  0  0  0  0  0
  187.7850  177.8620  138.6720 N   0  0  1  0  0  0  0  0  0  0  0  0
  185.3420  177.5970  138.1440 C   0  0  2  0  0  3  0  0  0  0  0  0
  180.7550  178.0480  137.5240 N   0  0  0  0  0  0  0  0  0  0  0  0
  187.0700  178.2890  145.2040 O   0  0  0  0  0  0  0  0  0  0  0  0
  187.9380  177.6740  142.4610 N   0  0  1  0  0  0  0  0  0  0  0  0
  181.2180  178.4820  138.7210 C   0  0  0  0  0  3  0  0  0  0  0  0
  186.1660  178.0260  144.1700 C   0  0  0  0  0  2  0  0  0  0  0  0
  189.1350  177.2050  144.5760 C   0  0  1  0  0  3  0  0  0  0  0  0
  187.1820  177.6130  136.3130 C   0  0  0  0  0  2  0  0  0  0  0  0
  186.7180  178.0990  137.6910 C   0  0  2  0  0  3  0  0  0  0  0  0
  184.3210  177.7730  136.9880 C   0  0  0  0  0  2  0  0  0  0  0  0
  185.6130  178.2060  141.7930 C   0  0  0  0  0  2  0  0  0  0  0  0
  183.3110  179.4000  140.6760 O   0  0  0  0  0  0  0  0  0  0  0  0
  181.6820  177.2170  135.4090 C   0  0  0  0  0  1  0  0  0  0  0  0
  184.9840  178.3200  139.3960 N   0  0  0  0  0  0  0  0  0  0  0  0
  182.9190  177.8330  137.4870 C   0  0  0  0  0  0  0  0  0  0  0  0
  190.2100  177.7390  145.5090 C   0  0  0  0  0  2  0  0  0  0  0  0
  191.3540  176.7890  145.5970 C   0  0  0  0  0  0  0  0  0  0  0  0
  191.6990  176.0130  144.4990 O   0  0  0  0  0  0  0  0  0  0  0  0
  192.0260  176.7080  146.6580 O   0  0  0  0  0  1  0  0  0  0  0  0
  2 24  1  1  0  0  0
  3 11  1  0  0  0  0
  4 21  1  0  0  0  0
  4  3  1  0  0  0  0
  5 25  2  0  0  0  0
  6 18  1  0  0  0  0
  6  5  1  0  0  0  0
  7 24  1  6  0  0  0
  7 19  1  0  0  0  0
  9 28  1  0  0  0  0
  9 15  1  0  0  0  0
 10 20  1  0  0  0  0
 12  2  1  0  0  0  0
 12  8  1  1  0  0  0
 13 11  1  1  0  0  0
 13 12  1  0  0  0  0
 14 23  1  6  0  0  0
 14 27  1  0  0  0  0
 15 18  2  0  0  0  0
 16  1  1  0  0  0  0
 17  8  1  6  0  0  0
 17  7  1  0  0  0  0
 17 10  1  0  0  0  0
 19 16  1  0  0  0  0
 20  1  1  0  0  0  0
 20 29  1  1  0  0  0
 22 21  1  6  0  0  0
 22 14  1  0  0  0  0
 22 13  1  0  0  0  0
 23 28  1  0  0  0  0
 26  9  1  0  0  0  0
 27  5  1  0  0  0  0
 27  2  1  0  0  0  0
 28  6  2  0  0  0  0
 29 30  1  0  0  0  0
 30 32  1  0  0  0  0
 31 30  2  0  0  0  0
M  END
>  <MODEL>
7

>  <REMARK>
 VINA RESULT:      -7.7      3.209      8.676
  Name = 
  2 active torsions:
  status: ('A' for Active; 'I' for Inactive)
    1  A    between atoms: C_20  and  C_29
    2  A    between atoms: C_29  and  C_30
                            x       y       z     vdW  Elec       q    Type
                         _______ _______ _______ _____ _____    ______ ____

>  <TORSDO>
F 2

$$$$
=
 OpenBabel11122410443D

 32 37  0  0  1  0  0  0  0  0999 V2000
  188.3860  178.8180  137.2380 C   0  0  0  0  0  2  0  0  0  0  0  0
  184.7650  177.9200  141.2270 C   0  0  2  0  0  3  0  0  0  0  0  0
  186.4050  177.3660  145.5700 C   0  0  0  0  0  2  0  0  0  0  0  0
  185.7870  178.6580  146.1300 C   0  0  0  0  0  2  0  0  0  0  0  0
  182.2440  178.1520  141.0120 C   0  0  0  0  0  0  0  0  0  0  0  0
  181.0080  178.7170  141.5260 C   0  0  0  0  0  0  0  0  0  0  0  0
  186.2870  177.8010  139.2170 C   0  0  2  0  0  3  0  0  0  0  0  0
  187.2750  178.1230  141.3910 C   0  0  0  0  0  2  0  0  0  0  0  0
  179.6740  179.6280  142.9920 N   0  0  0  0  0  0  0  0  0  0  0  0
  188.6460  177.8270  139.5630 C   0  0  0  0  0  2  0  0  0  0  0  0
  186.5710  177.4120  144.0350 C   0  0  0  0  0  2  0  0  0  0  0  0
  185.9330  178.5920  141.9620 C   0  0  2  0  0  3  0  0  0  0  0  0
  185.8540  178.5500  143.4400 N   0  0  1  0  0  0  0  0  0  0  0  0
  183.4490  179.1570  143.0290 C   0  0  2  0  0  3  0  0  0  0  0  0
  178.9330  179.3340  141.9310 N   0  0  0  0  0  0  0  0  0  0  0  0
  187.4880  177.7510  137.1110 O   0  0  0  0  0  0  0  0  0  0  0  0
  187.3870  178.4470  139.9680 N   0  0  1  0  0  0  0  0  0  0  0  0
  179.7300  178.7610  140.9970 C   0  0  0  0  0  3  0  0  0  0  0  0
  186.3190  178.1990  137.7360 C   0  0  0  0  0  2  0  0  0  0  0  0
  189.3210  178.6080  138.4310 C   0  0  1  0  0  3  0  0  0  0  0  0
  184.4830  179.0410  145.4070 C   0  0  0  0  0  2  0  0  0  0  0  0
  184.4820  178.5200  143.9660 C   0  0  2  0  0  3  0  0  0  0  0  0
  182.0670  179.1950  143.7330 C   0  0  0  0  0  2  0  0  0  0  0  0
  184.9270  178.2610  139.7470 C   0  0  0  0  0  2  0  0  0  0  0  0
  182.2320  177.4490  139.9650 O   0  0  0  0  0  0  0  0  0  0  0  0
  179.1440  180.1900  144.2210 C   0  0  0  0  0  1  0  0  0  0  0  0
  183.4670  178.3980  141.7480 N   0  0  0  0  0  0  0  0  0  0  0  0
  180.9450  179.2760  142.7550 C   0  0  0  0  0  0  0  0  0  0  0  0
  190.5710  177.8780  137.9680 C   0  0  0  0  0  2  0  0  0  0  0  0
  191.0770  176.9680  139.0340 C   0  0  0  0  0  0  0  0  0  0  0  0
  191.7000  177.4920  140.1580 O   0  0  0  0  0  1  0  0  0  0  0  0
  190.9170  175.7240  138.9290 O   0  0  0  0  0  0  0  0  0  0  0  0
  1 20  1  0  0  0  0
  2 24  1  6  0  0  0
  2 27  1  0  0  0  0
  2 12  1  0  0  0  0
  3  4  1  0  0  0  0
  5  6  1  0  0  0  0
  5 27  1  0  0  0  0
  6 28  2  0  0  0  0
  7 19  1  6  0  0  0
  7 24  1  0  0  0  0
  7 17  1  0  0  0  0
  9 26  1  0  0  0  0
 11  3  1  0  0  0  0
 12  8  1  1  0  0  0
 12 13  1  0  0  0  0
 13 22  1  0  0  0  0
 13 11  1  6  0  0  0
 14 23  1  1  0  0  0
 14 22  1  0  0  0  0
 15  9  1  0  0  0  0
 16  1  1  0  0  0  0
 16 19  1  0  0  0  0
 17 10  1  6  0  0  0
 17  8  1  0  0  0  0
 18  6  1  0  0  0  0
 18 15  2  0  0  0  0
 20 29  1  6  0  0  0
 20 10  1  0  0  0  0
 21  4  1  0  0  0  0
 22 21  1  1  0  0  0
 25  5  2  0  0  0  0
 27 14  1  0  0  0  0
 28  9  1  0  0  0  0
 28 23  1  0  0  0  0
 29 30  1  0  0  0  0
 30 31  1  0  0  0  0
 32 30  2  0  0  0  0
M  END
>  <MODEL>
8

>  <REMARK>
 VINA RESULT:      -7.6      2.371      7.529
  Name = 
  2 active torsions:
  status: ('A' for Active; 'I' for Inactive)
    1  A    between atoms: C_20  and  C_29
    2  A    between atoms: C_29  and  C_30
                            x       y       z     vdW  Elec       q    Type
                         _______ _______ _______ _____ _____    ______ ____

>  <TORSDO>
F 2

$$$$
=
 OpenBabel11122410443D

 32 37  0  0  1  0  0  0  0  0999 V2000
  189.2940  176.9650  145.2280 C   0  0  0  0  0  2  0  0  0  0  0  0
  187.3950  178.2760  140.2780 C   0  0  2  0  0  3  0  0  0  0  0  0
  190.1810  177.5030  136.6030 C   0  0  0  0  0  2  0  0  0  0  0  0
  189.3050  176.4040  135.9800 C   0  0  0  0  0  2  0  0  0  0  0  0
  184.9950  178.9130  139.7380 C   0  0  0  0  0  0  0  0  0  0  0  0
  183.8150  178.6970  138.9180 C   0  0  0  0  0  0  0  0  0  0  0  0
  188.2860  178.2440  142.6390 C   0  0  2  0  0  3  0  0  0  0  0  0
  189.6150  177.2470  140.8940 C   0  0  0  0  0  2  0  0  0  0  0  0
  182.6680  178.0260  137.1890 N   0  0  0  0  0  0  0  0  0  0  0  0
  190.4820  177.3970  143.0240 C   0  0  0  0  0  2  0  0  0  0  0  0
  189.9190  177.6750  138.1160 C   0  0  0  0  0  2  0  0  0  0  0  0
  188.3900  177.1450  139.9810 C   0  0  2  0  0  3  0  0  0  0  0  0
  188.7130  176.9520  138.5490 N   0  0  1  0  0  0  0  0  0  0  0  0
  186.2330  177.2360  138.2580 C   0  0  2  0  0  3  0  0  0  0  0  0
  181.8370  178.7240  137.9520 N   0  0  0  0  0  0  0  0  0  0  0  0
  188.8400  178.2690  145.0000 O   0  0  0  0  0  0  0  0  0  0  0  0
  189.2340  177.1570  142.3050 N   0  0  1  0  0  0  0  0  0  0  0  0
  182.5180  179.1630  139.0390 C   0  0  0  0  0  3  0  0  0  0  0  0
  187.7910  178.1220  144.0860 C   0  0  0  0  0  2  0  0  0  0  0  0
  190.5140  176.6500  144.3610 C   0  0  1  0  0  3  0  0  0  0  0  0
  187.8130  176.5960  136.3010 C   0  0  0  0  0  2  0  0  0  0  0  0
  187.6290  177.3310  137.6330 C   0  0  2  0  0  3  0  0  0  0  0  0
  185.1600  177.5260  137.1750 C   0  0  0  0  0  2  0  0  0  0  0  0
  187.0370  178.1640  141.7580 C   0  0  0  0  0  2  0  0  0  0  0  0
  184.9690  179.7530  140.6790 O   0  0  0  0  0  0  0  0  0  0  0  0
  182.3060  177.4600  135.9020 C   0  0  0  0  0  1  0  0  0  0  0  0
  186.1930  178.1600  139.4260 N   0  0  0  0  0  0  0  0  0  0  0  0
  183.8740  177.9830  137.7720 C   0  0  0  0  0  0  0  0  0  0  0  0
  191.7800  177.0050  145.1240 C   0  0  0  0  0  2  0  0  0  0  0  0
  191.7790  176.3740  146.4740 C   0  0  0  0  0  0  0  0  0  0  0  0
  191.4450  177.1260  147.5930 O   0  0  0  0  0  1  0  0  0  0  0  0
  192.0550  175.1530  146.5990 O   0  0  0  0  0  0  0  0  0  0  0  0
  2 24  1  1  0  0  0
  3 11  1  0  0  0  0
  4 21  1  0  0  0  0
  4  3  1  0  0  0  0
  5 25  2  0  0  0  0
  6 18  1  0  0  0  0
  6  5  1  0  0  0  0
  7 24  1  6  0  0  0
  7 19  1  0  0  0  0
  9 28  1  0  0  0  0
  9 15  1  0  0  0  0
 10 20  1  0  0  0  0
 12  2  1  0  0  0  0
 12  8  1  1  0  0  0
 13 11  1  6  0  0  0
 13 12  1  0  0  0  0
 14 23  1  6  0  0  0
 14 27  1  0  0  0  0
 15 18  2  0  0  0  0
 16  1  1  0  0  0  0
 17  8  1  6  0  0  0
 17  7  1  0  0  0  0
 17 10  1  0  0  0  0
 19 16  1  0  0  0  0
 20 29  1  1  0  0  0
 20  1  1  0  0  0  0
 22 21  1  6  0  0  0
 22 14  1  0  0  0  0
 22 13  1  0  0  0  0
 23 28  1  0  0  0  0
 26  9  1  0  0  0  0
 27  5  1  0  0  0  0
 27  2  1  0  0  0  0
 28  6  2  0  0  0  0
 29 30  1  0  0  0  0
 30 32  2  0  0  0  0
 30 31  1  0  0  0  0
M  END
>  <MODEL>
9

>  <REMARK>
 VINA RESULT:      -7.4      3.442      8.956
  Name = 
  2 active torsions:
  status: ('A' for Active; 'I' for Inactive)
    1  A    between atoms: C_20  and  C_29
    2  A    between atoms: C_29  and  C_30
                            x       y       z     vdW  Elec       q    Type
                         _______ _______ _______ _____ _____    ______ ____

>  <TORSDO>
F 2

$$$$
