=
 OpenBabel11122410493D

 32 37  0  0  1  0  0  0  0  0999 V2000
  186.9580  178.2180  140.8710 C   0  0  1  0  0  3  0  0  0  0  0  0
  184.1120  179.0040  144.7180 C   0  0  0  0  0  2  0  0  0  0  0  0
  185.0420  178.0360  145.4540 C   0  0  0  0  0  2  0  0  0  0  0  0
  189.4110  177.5580  141.0590 C   0  0  2  0  0  3  0  0  0  0  0  0
  190.4990  177.1600  142.0750 C   0  0  2  0  0  3  0  0  0  0  0  0
  185.9220  178.0390  138.8880 C   0  0  2  0  0  3  0  0  0  0  0  0
  184.9070  179.6110  140.5540 O   0  0  0  0  0  0  0  0  0  0  0  0
  191.1430  176.8410  144.2800 C   0  0  2  0  0  3  0  0  0  0  0  0
  184.2780  178.8470  143.2180 C   0  0  0  0  0  2  0  0  0  0  0  0
  186.0190  179.3040  141.3880 C   0  0  1  0  0  3  0  0  0  0  0  0
  185.7110  179.2310  142.8910 C   0  0  2  0  0  3  0  0  0  0  0  0
  188.0230  177.9490  143.1050 C   0  0  2  0  0  3  0  0  0  0  0  0
  190.6130  175.6020  143.8840 O   0  0  0  0  0  0  0  0  0  0  0  0
  184.6540  178.6070  139.5790 C   0  0  2  0  0  3  0  0  0  0  0  0
  190.3510  175.7120  142.5020 C   0  0  0  0  0  2  0  0  0  0  0  0
  186.3590  177.9080  144.8450 N   0  0  0  0  0  0  0  0  0  0  0  0
  186.6950  178.3860  143.6900 C   0  0  0  0  0  0  0  0  0  0  0  0
  189.2050  178.4480  143.9190 C   0  0  0  0  0  2  0  0  0  0  0  0
  187.1270  178.4420  139.5020 O   0  0  0  0  0  0  0  0  0  0  0  0
  189.9960  178.2810  140.0190 O   0  0  0  0  0  1  0  0  0  0  0  0
  190.9440  177.0700  145.7720 C   0  0  0  0  0  1  0  0  0  0  0  0
  188.2530  178.3630  141.6550 C   0  0  2  0  0  3  0  0  0  0  0  0
  190.5650  177.9260  143.3880 C   0  0  2  0  0  3  0  0  0  0  0  0
  182.5170  177.9610  140.4350 O   0  0  0  0  0  0  0  0  0  0  0  0
  183.8110  177.4830  140.1630 C   0  0  1  0  0  3  0  0  0  0  0  0
  182.6730  177.1920  139.2670 C   0  0  1  0  0  3  0  0  0  0  0  0
  182.1680  175.7860  139.5240 C   0  0  0  0  0  2  0  0  0  0  0  0
  180.6800  175.7760  139.5230 C   0  0  0  0  0  0  0  0  0  0  0  0
  180.0550  175.0440  140.3330 O   0  0  0  0  0  1  0  0  0  0  0  0
  179.9800  176.6010  138.6520 O   0  0  0  0  0  0  0  0  0  0  0  0
  187.1530  179.0310  137.1040 O   0  0  0  0  0  1  0  0  0  0  0  0
  185.9280  178.4500  137.4280 C   0  0  0  0  0  2  0  0  0  0  0  0
  1 19  1  6  0  0  0
  1 10  1  0  0  0  0
  1 22  1  0  0  0  0
  2  3  1  0  0  0  0
  4 20  1  6  0  0  0
  4 22  1  0  0  0  0
  4  5  1  0  0  0  0
  5 15  1  1  0  0  0
  5 23  1  0  0  0  0
  6 32  1  6  0  0  0
  6 19  1  0  0  0  0
  6 14  1  0  0  0  0
  8 21  1  1  0  0  0
  9  2  1  0  0  0  0
 10  7  1  6  0  0  0
 10 11  1  0  0  0  0
 11  9  1  6  0  0  0
 11 17  1  0  0  0  0
 12 17  1  0  0  0  0
 12 18  1  1  0  0  0
 13  8  1  0  0  0  0
 14 25  1  0  0  0  0
 14  7  1  1  0  0  0
 15 13  1  0  0  0  0
 16  3  1  0  0  0  0
 17 16  2  0  0  0  0
 22 12  1  0  0  0  0
 23 18  1  0  0  0  0
 23  8  1  0  0  0  0
 25 24  1  0  0  0  0
 26 27  1  0  0  0  0
 26 25  1  0  0  0  0
 26 24  1  0  0  0  0
 28 27  1  0  0  0  0
 28 29  1  0  0  0  0
 30 28  2  0  0  0  0
 31 32  1  0  0  0  0
M  END
>  <MODEL>
1

>  <REMARK>
 VINA RESULT:      -7.4      0.000      0.000
  Name = 
  4 active torsions:
  status: ('A' for Active; 'I' for Inactive)
    1  A    between atoms: C_7  and  C_19
    2  A    between atoms: C_10  and  C_17
    3  A    between atoms: C_20  and  C_29
    4  A    between atoms: C_29  and  C_30
                            x       y       z     vdW  Elec       q    Type
                         _______ _______ _______ _____ _____    ______ ____

>  <TORSDO>
F 4

$$$$
=
 OpenBabel11122410493D

 32 37  0  0  1  0  0  0  0  0999 V2000
  183.5010  178.1800  140.8740 C   0  0  1  0  0  3  0  0  0  0  0  0
  186.7400  177.8210  137.2830 C   0  0  0  0  0  2  0  0  0  0  0  0
  185.8960  176.6360  136.8010 C   0  0  0  0  0  2  0  0  0  0  0  0
  181.0840  177.4060  140.6600 C   0  0  2  0  0  3  0  0  0  0  0  0
  180.1120  176.6680  139.7180 C   0  0  2  0  0  3  0  0  0  0  0  0
  184.3200  178.6720  142.9060 C   0  0  2  0  0  3  0  0  0  0  0  0
  185.5020  179.6760  140.9380 O   0  0  0  0  0  0  0  0  0  0  0  0
  179.7090  175.6480  137.6740 C   0  0  2  0  0  3  0  0  0  0  0  0
  186.4140  178.1370  138.7310 C   0  0  0  0  0  2  0  0  0  0  0  0
  184.4870  179.0820  140.1370 C   0  0  1  0  0  3  0  0  0  0  0  0
  184.9540  178.5520  138.7730 C   0  0  2  0  0  3  0  0  0  0  0  0
  182.6810  177.1830  138.7450 C   0  0  2  0  0  3  0  0  0  0  0  0
  180.1960  174.6170  138.4930 O   0  0  0  0  0  0  0  0  0  0  0  0
  185.6530  179.0400  142.2010 C   0  0  2  0  0  3  0  0  0  0  0  0
  180.3090  175.1660  139.7880 C   0  0  0  0  0  2  0  0  0  0  0  0
  184.5220  176.6580  137.2840 N   0  0  0  0  0  0  0  0  0  0  0  0
  184.0630  177.4620  138.1880 C   0  0  0  0  0  0  0  0  0  0  0  0
  181.5920  177.3580  137.7010 C   0  0  0  0  0  2  0  0  0  0  0  0
  183.1860  178.8170  142.0780 O   0  0  0  0  0  0  0  0  0  0  0  0
  180.3890  178.3970  141.3530 O   0  0  0  0  0  1  0  0  0  0  0  0
  180.0650  175.4050  136.2150 C   0  0  0  0  0  1  0  0  0  0  0  0
  182.2960  178.0240  139.9590 C   0  0  2  0  0  3  0  0  0  0  0  0
  180.1840  176.9800  138.2300 C   0  0  2  0  0  3  0  0  0  0  0  0
  187.8920  178.2400  141.9490 O   0  0  0  0  0  0  0  0  0  0  0  0
  186.5560  177.8210  142.0900 C   0  0  1  0  0  3  0  0  0  0  0  0
  187.5020  177.7930  143.2250 C   0  0  1  0  0  3  0  0  0  0  0  0
  188.0060  176.3780  143.4350 C   0  0  0  0  0  2  0  0  0  0  0  0
  189.4930  176.3750  143.4870 C   0  0  0  0  0  0  0  0  0  0  0  0
  190.0920  177.0190  144.3870 O   0  0  0  0  0  1  0  0  0  0  0  0
  190.2200  175.6330  142.5650 O   0  0  0  0  0  0  0  0  0  0  0  0
  183.3670  178.8470  145.0830 O   0  0  0  0  0  1  0  0  0  0  0  0
  184.1570  179.5200  144.1520 C   0  0  0  0  0  2  0  0  0  0  0  0
  1 19  1  1  0  0  0
  2  9  1  0  0  0  0
  3  2  1  0  0  0  0
  3 16  1  0  0  0  0
  4 20  1  6  0  0  0
  5 15  1  6  0  0  0
  5  4  1  0  0  0  0
  6 32  1  1  0  0  0
  8 21  1  6  0  0  0
  8 23  1  0  0  0  0
  8 13  1  0  0  0  0
 10  1  1  0  0  0  0
 10  7  1  1  0  0  0
 11  9  1  1  0  0  0
 11 10  1  0  0  0  0
 12 18  1  6  0  0  0
 12 22  1  0  0  0  0
 13 15  1  0  0  0  0
 14  7  1  6  0  0  0
 14  6  1  0  0  0  0
 16 17  2  0  0  0  0
 17 12  1  0  0  0  0
 17 11  1  0  0  0  0
 18 23  1  0  0  0  0
 19  6  1  0  0  0  0
 22  4  1  0  0  0  0
 22  1  1  0  0  0  0
 23  5  1  0  0  0  0
 24 25  1  0  0  0  0
 24 26  1  0  0  0  0
 25 14  1  0  0  0  0
 25 26  1  0  0  0  0
 26 27  1  0  0  0  0
 27 28  1  0  0  0  0
 28 29  1  0  0  0  0
 30 28  2  0  0  0  0
 32 31  1  0  0  0  0
M  END
>  <MODEL>
2

>  <REMARK>
 VINA RESULT:      -7.4      2.237      8.250
  Name = 
  4 active torsions:
  status: ('A' for Active; 'I' for Inactive)
    1  A    between atoms: C_7  and  C_19
    2  A    between atoms: C_10  and  C_17
    3  A    between atoms: C_20  and  C_29
    4  A    between atoms: C_29  and  C_30
                            x       y       z     vdW  Elec       q    Type
                         _______ _______ _______ _____ _____    ______ ____

>  <TORSDO>
F 4

$$$$
=
 OpenBabel11122410493D

 32 37  0  0  1  0  0  0  0  0999 V2000
  189.4080  177.4130  139.8360 C   0  0  1  0  0  3  0  0  0  0  0  0
  185.0160  178.7920  141.3600 C   0  0  0  0  0  2  0  0  0  0  0  0
  185.3920  178.1110  142.6800 C   0  0  0  0  0  2  0  0  0  0  0  0
  191.3820  177.0480  141.4050 C   0  0  2  0  0  3  0  0  0  0  0  0
  191.7700  176.9990  142.8960 C   0  0  2  0  0  3  0  0  0  0  0  0
  189.5430  176.6850  137.7170 C   0  0  2  0  0  3  0  0  0  0  0  0
  187.8760  178.4970  138.1860 O   0  0  0  0  0  0  0  0  0  0  0  0
  191.1650  177.2570  145.1200 C   0  0  2  0  0  3  0  0  0  0  0  0
  185.9290  178.3100  140.2470 C   0  0  0  0  0  2  0  0  0  0  0  0
  188.3820  178.4950  139.5160 C   0  0  1  0  0  3  0  0  0  0  0  0
  187.3380  178.7420  140.6160 C   0  0  2  0  0  3  0  0  0  0  0  0
  189.1520  177.7660  142.2870 C   0  0  2  0  0  3  0  0  0  0  0  0
  190.8690  175.9160  144.8270 O   0  0  0  0  0  0  0  0  0  0  0  0
  188.1240  177.2760  137.4990 C   0  0  2  0  0  3  0  0  0  0  0  0
  191.3640  175.6800  143.5280 C   0  0  0  0  0  2  0  0  0  0  0  0
  186.8270  177.9710  142.8810 N   0  0  0  0  0  0  0  0  0  0  0  0
  187.7320  178.2000  141.9840 C   0  0  0  0  0  0  0  0  0  0  0  0
  189.7610  178.5480  143.4380 C   0  0  0  0  0  2  0  0  0  0  0  0
  190.2710  177.3310  138.7390 O   0  0  0  0  0  0  0  0  0  0  0  0
  192.4490  177.5640  140.6700 O   0  0  0  0  0  1  0  0  0  0  0  0
  190.2330  177.8040  146.1910 C   0  0  0  0  0  1  0  0  0  0  0  0
  190.1160  177.8560  141.1080 C   0  0  2  0  0  3  0  0  0  0  0  0
  191.1770  178.0490  143.8240 C   0  0  2  0  0  3  0  0  0  0  0  0
  185.9320  176.4560  137.0090 O   0  0  0  0  0  0  0  0  0  0  0  0
  187.0570  176.2420  137.8260 C   0  0  1  0  0  3  0  0  0  0  0  0
  186.7890  175.4040  136.6390 C   0  0  1  0  0  3  0  0  0  0  0  0
  186.1780  174.0860  137.0720 C   0  0  0  0  0  2  0  0  0  0  0  0
  187.1030  172.9680  136.7420 C   0  0  0  0  0  0  0  0  0  0  0  0
  186.6510  171.9010  136.2530 O   0  0  0  0  0  0  0  0  0  0  0  0
  188.4700  173.1160  136.9400 O   0  0  0  0  0  1  0  0  0  0  0  0
  189.5480  177.3690  135.4340 O   0  0  0  0  0  1  0  0  0  0  0  0
  190.3200  176.7480  136.4160 C   0  0  0  0  0  2  0  0  0  0  0  0
  1 19  1  6  0  0  0
  1 22  1  0  0  0  0
  2  3  1  0  0  0  0
  3 16  1  0  0  0  0
  4 20  1  6  0  0  0
  4  5  1  0  0  0  0
  5 15  1  1  0  0  0
  5 23  1  0  0  0  0
  6 32  1  6  0  0  0
  6 19  1  0  0  0  0
  8 21  1  1  0  0  0
  9  2  1  0  0  0  0
 10  7  1  6  0  0  0
 10  1  1  0  0  0  0
 10 11  1  0  0  0  0
 11  9  1  6  0  0  0
 11 17  1  0  0  0  0
 12 18  1  1  0  0  0
 13  8  1  0  0  0  0
 14  6  1  0  0  0  0
 14 25  1  0  0  0  0
 14  7  1  1  0  0  0
 15 13  1  0  0  0  0
 17 12  1  0  0  0  0
 17 16  2  0  0  0  0
 18 23  1  0  0  0  0
 22  4  1  0  0  0  0
 22 12  1  0  0  0  0
 23  8  1  0  0  0  0
 24 25  1  0  0  0  0
 26 24  1  0  0  0  0
 26 27  1  0  0  0  0
 26 25  1  0  0  0  0
 28 30  1  0  0  0  0
 28 27  1  0  0  0  0
 29 28  2  0  0  0  0
 31 32  1  0  0  0  0
M  END
>  <MODEL>
3

>  <REMARK>
 VINA RESULT:      -6.9      2.816      3.941
  Name = 
  4 active torsions:
  status: ('A' for Active; 'I' for Inactive)
    1  A    between atoms: C_7  and  C_19
    2  A    between atoms: C_10  and  C_17
    3  A    between atoms: C_20  and  C_29
    4  A    between atoms: C_29  and  C_30
                            x       y       z     vdW  Elec       q    Type
                         _______ _______ _______ _____ _____    ______ ____

>  <TORSDO>
F 4

$$$$
=
 OpenBabel11122410493D

 32 37  0  0  1  0  0  0  0  0999 V2000
  189.3900  177.4330  139.8310 C   0  0  1  0  0  3  0  0  0  0  0  0
  185.0030  178.8120  141.3670 C   0  0  0  0  0  2  0  0  0  0  0  0
  185.3780  178.1220  142.6830 C   0  0  0  0  0  2  0  0  0  0  0  0
  191.3640  177.0530  141.3960 C   0  0  2  0  0  3  0  0  0  0  0  0
  191.7530  176.9930  142.8860 C   0  0  2  0  0  3  0  0  0  0  0  0
  189.5210  176.7190  137.7070 C   0  0  2  0  0  3  0  0  0  0  0  0
  187.8590  178.5310  138.1900 O   0  0  0  0  0  0  0  0  0  0  0  0
  191.1520  177.2380  145.1120 C   0  0  2  0  0  3  0  0  0  0  0  0
  185.9130  178.3360  140.2510 C   0  0  0  0  0  2  0  0  0  0  0  0
  188.3660  178.5200  139.5190 C   0  0  1  0  0  3  0  0  0  0  0  0
  187.3240  178.7620  140.6210 C   0  0  2  0  0  3  0  0  0  0  0  0
  189.1370  177.7710  142.2840 C   0  0  2  0  0  3  0  0  0  0  0  0
  190.8520  175.9000  144.8110 O   0  0  0  0  0  0  0  0  0  0  0  0
  188.1030  177.3140  137.4940 C   0  0  2  0  0  3  0  0  0  0  0  0
  191.3450  175.6710  143.5100 C   0  0  0  0  0  2  0  0  0  0  0  0
  186.8130  177.9770  142.8820 N   0  0  0  0  0  0  0  0  0  0  0  0
  187.7170  178.2090  141.9860 C   0  0  0  0  0  0  0  0  0  0  0  0
  189.7490  178.5440  143.4400 C   0  0  0  0  0  2  0  0  0  0  0  0
  190.2520  177.3560  138.7320 O   0  0  0  0  0  0  0  0  0  0  0  0
  192.4320  177.5710  140.6620 O   0  0  0  0  0  1  0  0  0  0  0  0
  190.2210  177.7810  146.1870 C   0  0  0  0  0  1  0  0  0  0  0  0
  190.1000  177.8660  141.1040 C   0  0  2  0  0  3  0  0  0  0  0  0
  191.1640  178.0380  143.8210 C   0  0  2  0  0  3  0  0  0  0  0  0
  185.8230  176.6560  137.2060 O   0  0  0  0  0  0  0  0  0  0  0  0
  187.0340  176.2810  137.8160 C   0  0  1  0  0  3  0  0  0  0  0  0
  186.5620  175.6420  136.5690 C   0  0  1  0  0  3  0  0  0  0  0  0
  185.9420  174.2960  136.8880 C   0  0  0  0  0  2  0  0  0  0  0  0
  184.7060  174.1070  136.0830 C   0  0  0  0  0  0  0  0  0  0  0  0
  184.6790  174.4680  134.8780 O   0  0  0  0  0  0  0  0  0  0  0  0
  183.5940  173.4980  136.6490 O   0  0  0  0  0  1  0  0  0  0  0  0
  189.5050  177.3660  135.4130 O   0  0  0  0  0  1  0  0  0  0  0  0
  190.2970  176.7880  136.4050 C   0  0  0  0  0  2  0  0  0  0  0  0
  1 19  1  6  0  0  0
  1 22  1  0  0  0  0
  2  3  1  0  0  0  0
  3 16  1  0  0  0  0
  4 20  1  6  0  0  0
  4  5  1  0  0  0  0
  5 15  1  1  0  0  0
  5 23  1  0  0  0  0
  6 32  1  6  0  0  0
  6 19  1  0  0  0  0
  8 21  1  1  0  0  0
  9  2  1  0  0  0  0
 10  7  1  6  0  0  0
 10  1  1  0  0  0  0
 10 11  1  0  0  0  0
 11  9  1  6  0  0  0
 11 17  1  0  0  0  0
 12 18  1  1  0  0  0
 13  8  1  0  0  0  0
 14  6  1  0  0  0  0
 14 25  1  0  0  0  0
 14  7  1  1  0  0  0
 15 13  1  0  0  0  0
 17 12  1  0  0  0  0
 17 16  2  0  0  0  0
 18 23  1  0  0  0  0
 22  4  1  0  0  0  0
 22 12  1  0  0  0  0
 23  8  1  0  0  0  0
 24 25  1  0  0  0  0
 26 27  1  0  0  0  0
 26 24  1  0  0  0  0
 26 25  1  0  0  0  0
 28 30  1  0  0  0  0
 28 27  1  0  0  0  0
 29 28  2  0  0  0  0
 31 32  1  0  0  0  0
M  END
>  <MODEL>
4

>  <REMARK>
 VINA RESULT:      -6.9      2.590      3.459
  Name = 
  4 active torsions:
  status: ('A' for Active; 'I' for Inactive)
    1  A    between atoms: C_7  and  C_19
    2  A    between atoms: C_10  and  C_17
    3  A    between atoms: C_20  and  C_29
    4  A    between atoms: C_29  and  C_30
                            x       y       z     vdW  Elec       q    Type
                         _______ _______ _______ _____ _____    ______ ____

>  <TORSDO>
F 4

$$$$
=
 OpenBabel11122410493D

 32 37  0  0  1  0  0  0  0  0999 V2000
  184.1820  177.2580  138.4210 C   0  0  1  0  0  3  0  0  0  0  0  0
  188.9440  178.1630  138.5430 C   0  0  0  0  0  2  0  0  0  0  0  0
  189.1150  176.6730  138.2300 C   0  0  0  0  0  2  0  0  0  0  0  0
  183.1520  175.3740  137.0490 C   0  0  2  0  0  3  0  0  0  0  0  0
  183.5110  174.1580  136.1720 C   0  0  2  0  0  3  0  0  0  0  0  0
  182.9310  178.3000  139.9650 C   0  0  2  0  0  3  0  0  0  0  0  0
  184.9290  179.5430  139.1020 O   0  0  0  0  0  0  0  0  0  0  0  0
  185.1280  172.8620  135.1310 C   0  0  2  0  0  3  0  0  0  0  0  0
  187.5430  178.4290  139.0620 C   0  0  0  0  0  2  0  0  0  0  0  0
  185.1190  178.4440  138.2180 C   0  0  1  0  0  3  0  0  0  0  0  0
  186.5830  178.0720  137.9400 C   0  0  2  0  0  3  0  0  0  0  0  0
  185.6240  175.7670  137.0440 C   0  0  2  0  0  3  0  0  0  0  0  0
  184.9940  172.2990  136.4110 O   0  0  0  0  0  0  0  0  0  0  0  0
  184.1630  179.2010  140.2510 C   0  0  2  0  0  3  0  0  0  0  0  0
  183.9100  172.9650  137.0200 C   0  0  0  0  0  2  0  0  0  0  0  0
  187.9460  176.0660  137.6080 N   0  0  0  0  0  0  0  0  0  0  0  0
  186.7870  176.6300  137.4900 C   0  0  0  0  0  0  0  0  0  0  0  0
  185.7890  175.2690  135.6180 C   0  0  0  0  0  2  0  0  0  0  0  0
  182.9060  177.7800  138.6540 O   0  0  0  0  0  0  0  0  0  0  0  0
  181.9830  175.9610  136.5650 O   0  0  0  0  0  1  0  0  0  0  0  0
  186.5390  172.6730  134.5940 C   0  0  0  0  0  1  0  0  0  0  0  0
  184.2540  176.4320  137.1450 C   0  0  2  0  0  3  0  0  0  0  0  0
  184.6560  174.3050  135.1810 C   0  0  2  0  0  3  0  0  0  0  0  0
  185.9180  179.5590  141.8340 O   0  0  0  0  0  0  0  0  0  0  0  0
  185.0420  178.5820  141.3270 C   0  0  1  0  0  3  0  0  0  0  0  0
  184.7950  179.2490  142.6220 C   0  0  1  0  0  3  0  0  0  0  0  0
  185.2170  178.3350  143.7560 C   0  0  0  0  0  2  0  0  0  0  0  0
  184.8290  178.9370  145.0600 C   0  0  0  0  0  0  0  0  0  0  0  0
  185.7160  179.2670  145.8880 O   0  0  0  0  0  1  0  0  0  0  0  0
  183.4900  179.1680  145.3480 O   0  0  0  0  0  0  0  0  0  0  0  0
  181.4370  179.1750  141.6030 O   0  0  0  0  0  1  0  0  0  0  0  0
  181.6600  179.0850  140.2290 C   0  0  0  0  0  2  0  0  0  0  0  0
  1 19  1  6  0  0  0
  2  9  1  0  0  0  0
  3  2  1  0  0  0  0
  4 20  1  6  0  0  0
  4 22  1  0  0  0  0
  5 15  1  1  0  0  0
  5  4  1  0  0  0  0
  6 32  1  6  0  0  0
  6 14  1  0  0  0  0
  8 21  1  1  0  0  0
  8 23  1  0  0  0  0
  8 13  1  0  0  0  0
 10  1  1  0  0  0  0
 10  7  1  1  0  0  0
 11 10  1  0  0  0  0
 11  9  1  1  0  0  0
 12 18  1  6  0  0  0
 12 22  1  0  0  0  0
 12 17  1  0  0  0  0
 13 15  1  0  0  0  0
 14  7  1  6  0  0  0
 14 25  1  0  0  0  0
 16  3  1  0  0  0  0
 17 16  2  0  0  0  0
 17 11  1  0  0  0  0
 19  6  1  0  0  0  0
 22  1  1  0  0  0  0
 23 18  1  0  0  0  0
 23  5  1  0  0  0  0
 24 26  1  0  0  0  0
 25 24  1  0  0  0  0
 25 26  1  0  0  0  0
 26 27  1  0  0  0  0
 27 28  1  0  0  0  0
 28 30  2  0  0  0  0
 28 29  1  0  0  0  0
 32 31  1  0  0  0  0
M  END
>  <MODEL>
5

>  <REMARK>
 VINA RESULT:      -6.8      3.497      7.301
  Name = 
  4 active torsions:
  status: ('A' for Active; 'I' for Inactive)
    1  A    between atoms: C_7  and  C_19
    2  A    between atoms: C_10  and  C_17
    3  A    between atoms: C_20  and  C_29
    4  A    between atoms: C_29  and  C_30
                            x       y       z     vdW  Elec       q    Type
                         _______ _______ _______ _____ _____    ______ ____

>  <TORSDO>
F 4

$$$$
=
 OpenBabel11122410493D

 32 37  0  0  1  0  0  0  0  0999 V2000
  183.5960  178.1620  140.8590 C   0  0  1  0  0  3  0  0  0  0  0  0
  179.3410  178.7900  143.0970 C   0  0  0  0  0  2  0  0  0  0  0  0
  180.0520  178.2530  144.3440 C   0  0  0  0  0  2  0  0  0  0  0  0
  185.8370  178.2390  142.0690 C   0  0  2  0  0  3  0  0  0  0  0  0
  186.4710  178.3330  143.4710 C   0  0  2  0  0  3  0  0  0  0  0  0
  183.5100  177.3700  138.7610 C   0  0  2  0  0  3  0  0  0  0  0  0
  181.6340  178.8680  139.4820 O   0  0  0  0  0  0  0  0  0  0  0  0
  186.2090  178.5850  145.7610 C   0  0  2  0  0  3  0  0  0  0  0  0
  180.1290  178.4290  141.8520 C   0  0  0  0  0  2  0  0  0  0  0  0
  182.3460  179.0230  140.7040 C   0  0  1  0  0  3  0  0  0  0  0  0
  181.4730  179.1280  141.9640 C   0  0  2  0  0  3  0  0  0  0  0  0
  183.6910  178.5810  143.3120 C   0  0  2  0  0  3  0  0  0  0  0  0
  186.1250  177.1990  145.5460 O   0  0  0  0  0  0  0  0  0  0  0  0
  181.9890  177.6810  138.7830 C   0  0  2  0  0  3  0  0  0  0  0  0
  186.4310  176.9950  144.1850 C   0  0  0  0  0  2  0  0  0  0  0  0
  181.5020  178.3870  144.2960 N   0  0  0  0  0  0  0  0  0  0  0  0
  182.1850  178.7330  143.2520 C   0  0  0  0  0  0  0  0  0  0  0  0
  184.3260  179.5150  144.3270 C   0  0  0  0  0  2  0  0  0  0  0  0
  184.2640  178.1860  139.6310 O   0  0  0  0  0  0  0  0  0  0  0  0
  186.6500  178.9050  141.1510 O   0  0  0  0  0  1  0  0  0  0  0  0
  185.3820  179.0030  146.9690 C   0  0  0  0  0  1  0  0  0  0  0  0
  184.4110  178.7870  141.9820 C   0  0  2  0  0  3  0  0  0  0  0  0
  185.8550  179.3010  144.4700 C   0  0  2  0  0  3  0  0  0  0  0  0
  179.8560  176.6080  138.9230 O   0  0  0  0  0  0  0  0  0  0  0  0
  181.2040  176.4870  139.3060 C   0  0  1  0  0  3  0  0  0  0  0  0
  180.6470  175.7170  138.1750 C   0  0  1  0  0  3  0  0  0  0  0  0
  180.3550  174.2970  138.6180 C   0  0  0  0  0  2  0  0  0  0  0  0
  180.7980  173.3400  137.5680 C   0  0  0  0  0  0  0  0  0  0  0  0
  181.5970  173.7150  136.6720 O   0  0  0  0  0  0  0  0  0  0  0  0
  180.3600  172.0230  137.5990 O   0  0  0  0  0  1  0  0  0  0  0  0
  185.3850  177.8490  137.3700 O   0  0  0  0  0  1  0  0  0  0  0  0
  184.0320  177.5100  137.3440 C   0  0  0  0  0  2  0  0  0  0  0  0
  1 19  1  6  0  0  0
  1 22  1  0  0  0  0
  2  3  1  0  0  0  0
  4 20  1  6  0  0  0
  4  5  1  0  0  0  0
  5 15  1  1  0  0  0
  5 23  1  0  0  0  0
  6 32  1  6  0  0  0
  6 14  1  0  0  0  0
  6 19  1  0  0  0  0
  8 21  1  1  0  0  0
  9  2  1  0  0  0  0
 10  7  1  6  0  0  0
 10  1  1  0  0  0  0
 10 11  1  0  0  0  0
 11  9  1  6  0  0  0
 11 17  1  0  0  0  0
 12 18  1  1  0  0  0
 13  8  1  0  0  0  0
 14 25  1  0  0  0  0
 14  7  1  1  0  0  0
 15 13  1  0  0  0  0
 16  3  1  0  0  0  0
 17 12  1  0  0  0  0
 17 16  2  0  0  0  0
 18 23  1  0  0  0  0
 22  4  1  0  0  0  0
 22 12  1  0  0  0  0
 23  8  1  0  0  0  0
 24 25  1  0  0  0  0
 26 27  1  0  0  0  0
 26 24  1  0  0  0  0
 26 25  1  0  0  0  0
 28 30  1  0  0  0  0
 28 27  1  0  0  0  0
 29 28  2  0  0  0  0
 32 31  1  0  0  0  0
M  END
>  <MODEL>
6

>  <REMARK>
 VINA RESULT:      -6.4      2.735      4.069
  Name = 
  4 active torsions:
  status: ('A' for Active; 'I' for Inactive)
    1  A    between atoms: C_7  and  C_19
    2  A    between atoms: C_10  and  C_17
    3  A    between atoms: C_20  and  C_29
    4  A    between atoms: C_29  and  C_30
                            x       y       z     vdW  Elec       q    Type
                         _______ _______ _______ _____ _____    ______ ____

>  <TORSDO>
F 4

$$$$
=
 OpenBabel11122410493D

 32 37  0  0  1  0  0  0  0  0999 V2000
  183.8580  177.9410  140.2050 C   0  0  1  0  0  3  0  0  0  0  0  0
  188.1010  178.2200  137.8760 C   0  0  0  0  0  2  0  0  0  0  0  0
  187.6290  176.9770  137.1140 C   0  0  0  0  0  2  0  0  0  0  0  0
  181.7700  176.8960  139.1860 C   0  0  2  0  0  3  0  0  0  0  0  0
  181.2650  176.1130  137.9590 C   0  0  2  0  0  3  0  0  0  0  0  0
  183.8990  178.3880  142.4040 C   0  0  2  0  0  3  0  0  0  0  0  0
  185.5060  179.6600  140.9620 O   0  0  0  0  0  0  0  0  0  0  0  0
  181.6880  175.1920  135.8720 C   0  0  2  0  0  3  0  0  0  0  0  0
  187.2850  178.3960  139.1420 C   0  0  0  0  0  2  0  0  0  0  0  0
  184.8960  179.0030  139.8570 C   0  0  1  0  0  3  0  0  0  0  0  0
  185.8470  178.6270  138.7110 C   0  0  2  0  0  3  0  0  0  0  0  0
  183.9150  176.9990  137.9010 C   0  0  2  0  0  3  0  0  0  0  0  0
  182.0200  174.1740  136.7810 O   0  0  0  0  0  0  0  0  0  0  0  0
  185.3250  178.9620  142.1880 C   0  0  2  0  0  3  0  0  0  0  0  0
  181.6320  174.6430  138.0540 C   0  0  0  0  0  2  0  0  0  0  0  0
  186.1830  176.8010  137.1170 N   0  0  0  0  0  0  0  0  0  0  0  0
  185.3510  177.4800  137.8380 C   0  0  0  0  0  0  0  0  0  0  0  0
  183.2090  177.1110  136.5610 C   0  0  0  0  0  2  0  0  0  0  0  0
  183.0860  178.4520  141.2530 O   0  0  0  0  0  0  0  0  0  0  0  0
  180.7590  177.7470  139.6360 O   0  0  0  0  0  1  0  0  0  0  0  0
  182.5280  175.0930  134.6070 C   0  0  0  0  0  1  0  0  0  0  0  0
  183.0470  177.7030  138.9400 C   0  0  2  0  0  3  0  0  0  0  0  0
  181.7720  176.5300  136.5870 C   0  0  2  0  0  3  0  0  0  0  0  0
  187.6550  178.4510  142.3520 O   0  0  0  0  0  0  0  0  0  0  0  0
  186.3730  177.8720  142.3520 C   0  0  1  0  0  3  0  0  0  0  0  0
  187.1280  178.0850  143.6040 C   0  0  1  0  0  3  0  0  0  0  0  0
  187.7580  176.7800  144.0500 C   0  0  0  0  0  2  0  0  0  0  0  0
  188.9470  177.0590  144.9000 C   0  0  0  0  0  0  0  0  0  0  0  0
  189.9960  177.5200  144.3830 O   0  0  0  0  0  0  0  0  0  0  0  0
  188.8860  176.8430  146.2710 O   0  0  0  0  0  1  0  0  0  0  0  0
  181.8820  179.3380  143.2480 O   0  0  0  0  0  1  0  0  0  0  0  0
  183.2270  179.1250  143.5480 C   0  0  0  0  0  2  0  0  0  0  0  0
  1 19  1  1  0  0  0
  2  9  1  0  0  0  0
  3 16  1  0  0  0  0
  3  2  1  0  0  0  0
  4 20  1  6  0  0  0
  5 15  1  1  0  0  0
  5  4  1  0  0  0  0
  6 32  1  1  0  0  0
  8 21  1  6  0  0  0
  8 23  1  0  0  0  0
  8 13  1  0  0  0  0
 10  1  1  0  0  0  0
 10  7  1  1  0  0  0
 11  9  1  1  0  0  0
 11 10  1  0  0  0  0
 12 18  1  6  0  0  0
 12 22  1  0  0  0  0
 13 15  1  0  0  0  0
 14  7  1  6  0  0  0
 14 25  1  0  0  0  0
 14  6  1  0  0  0  0
 16 17  2  0  0  0  0
 17 12  1  0  0  0  0
 17 11  1  0  0  0  0
 18 23  1  0  0  0  0
 19  6  1  0  0  0  0
 22  4  1  0  0  0  0
 22  1  1  0  0  0  0
 23  5  1  0  0  0  0
 24 25  1  0  0  0  0
 24 26  1  0  0  0  0
 25 26  1  0  0  0  0
 26 27  1  0  0  0  0
 27 28  1  0  0  0  0
 28 30  1  0  0  0  0
 29 28  2  0  0  0  0
 31 32  1  0  0  0  0
M  END
>  <MODEL>
7

>  <REMARK>
 VINA RESULT:      -6.4      2.524      8.056
  Name = 
  4 active torsions:
  status: ('A' for Active; 'I' for Inactive)
    1  A    between atoms: C_7  and  C_19
    2  A    between atoms: C_10  and  C_17
    3  A    between atoms: C_20  and  C_29
    4  A    between atoms: C_29  and  C_30
                            x       y       z     vdW  Elec       q    Type
                         _______ _______ _______ _____ _____    ______ ____

>  <TORSDO>
F 4

$$$$
=
 OpenBabel11122410493D

 32 37  0  0  1  0  0  0  0  0999 V2000
  187.5280  177.7770  139.6560 C   0  0  1  0  0  3  0  0  0  0  0  0
  183.8020  179.0030  142.5070 C   0  0  0  0  0  2  0  0  0  0  0  0
  184.5370  178.2230  143.6010 C   0  0  0  0  0  2  0  0  0  0  0  0
  189.8690  177.3020  140.5420 C   0  0  2  0  0  3  0  0  0  0  0  0
  190.6770  177.1380  141.8440 C   0  0  2  0  0  3  0  0  0  0  0  0
  187.0220  177.2180  137.5420 C   0  0  2  0  0  3  0  0  0  0  0  0
  185.5970  178.9760  138.6190 O   0  0  0  0  0  0  0  0  0  0  0  0
  190.7580  177.2180  144.1600 C   0  0  2  0  0  3  0  0  0  0  0  0
  184.3390  178.6160  141.1410 C   0  0  0  0  0  2  0  0  0  0  0  0
  186.4720  178.8740  139.7370 C   0  0  1  0  0  3  0  0  0  0  0  0
  185.8010  179.0270  141.1110 C   0  0  2  0  0  3  0  0  0  0  0  0
  188.0100  177.9350  142.0940 C   0  0  2  0  0  3  0  0  0  0  0  0
  190.3660  175.9020  143.8660 O   0  0  0  0  0  0  0  0  0  0  0  0
  185.6110  177.8150  137.7980 C   0  0  2  0  0  3  0  0  0  0  0  0
  190.4530  175.7720  142.4640 C   0  0  0  0  0  2  0  0  0  0  0  0
  185.9660  178.0770  143.3600 N   0  0  0  0  0  0  0  0  0  0  0  0
  186.5710  178.3810  142.2570 C   0  0  0  0  0  0  0  0  0  0  0  0
  188.9430  178.6280  143.0710 C   0  0  0  0  0  2  0  0  0  0  0  0
  188.0290  177.7860  138.3510 O   0  0  0  0  0  0  0  0  0  0  0  0
  190.6810  177.8810  139.5670 O   0  0  0  0  0  1  0  0  0  0  0  0
  190.1910  177.6730  145.4970 C   0  0  0  0  0  1  0  0  0  0  0  0
  188.5860  178.1230  140.6930 C   0  0  2  0  0  3  0  0  0  0  0  0
  190.4020  178.1090  142.9830 C   0  0  2  0  0  3  0  0  0  0  0  0
  183.3390  177.1670  138.1610 O   0  0  0  0  0  0  0  0  0  0  0  0
  184.6700  176.7520  138.3440 C   0  0  1  0  0  3  0  0  0  0  0  0
  183.8330  176.2130  137.2520 C   0  0  1  0  0  3  0  0  0  0  0  0
  183.3140  174.8420  137.6350 C   0  0  0  0  0  2  0  0  0  0  0  0
  181.9310  174.6620  137.1160 C   0  0  0  0  0  0  0  0  0  0  0  0
  181.7450  174.4140  135.8970 O   0  0  0  0  0  0  0  0  0  0  0  0
  180.8480  174.7330  137.9820 O   0  0  0  0  0  1  0  0  0  0  0  0
  188.7650  177.2980  135.9180 O   0  0  0  0  0  1  0  0  0  0  0  0
  187.3820  177.3880  136.0790 C   0  0  0  0  0  2  0  0  0  0  0  0
  1 19  1  6  0  0  0
  1 10  1  0  0  0  0
  1 22  1  0  0  0  0
  2  3  1  0  0  0  0
  4 20  1  6  0  0  0
  4 22  1  0  0  0  0
  4  5  1  0  0  0  0
  5 15  1  1  0  0  0
  5 23  1  0  0  0  0
  6 32  1  6  0  0  0
  6 14  1  0  0  0  0
  6 19  1  0  0  0  0
  8 21  1  1  0  0  0
  9  2  1  0  0  0  0
 10  7  1  6  0  0  0
 10 11  1  0  0  0  0
 11  9  1  6  0  0  0
 11 17  1  0  0  0  0
 12 17  1  0  0  0  0
 12 18  1  1  0  0  0
 13  8  1  0  0  0  0
 14 25  1  0  0  0  0
 14  7  1  1  0  0  0
 15 13  1  0  0  0  0
 16  3  1  0  0  0  0
 17 16  2  0  0  0  0
 22 12  1  0  0  0  0
 23 18  1  0  0  0  0
 23  8  1  0  0  0  0
 24 25  1  0  0  0  0
 26 27  1  0  0  0  0
 26 24  1  0  0  0  0
 26 25  1  0  0  0  0
 28 27  1  0  0  0  0
 28 30  1  0  0  0  0
 29 28  2  0  0  0  0
 31 32  1  0  0  0  0
M  END
>  <MODEL>
8

>  <REMARK>
 VINA RESULT:      -6.2      1.662      1.929
  Name = 
  4 active torsions:
  status: ('A' for Active; 'I' for Inactive)
    1  A    between atoms: C_7  and  C_19
    2  A    between atoms: C_10  and  C_17
    3  A    between atoms: C_20  and  C_29
    4  A    between atoms: C_29  and  C_30
                            x       y       z     vdW  Elec       q    Type
                         _______ _______ _______ _____ _____    ______ ____

>  <TORSDO>
F 4

$$$$
=
 OpenBabel11122410493D

 32 37  0  0  1  0  0  0  0  0999 V2000
  188.4520  177.1040  139.0920 C   0  0  1  0  0  3  0  0  0  0  0  0
  184.2890  179.0020  140.6970 C   0  0  0  0  0  2  0  0  0  0  0  0
  184.7140  178.4710  142.0700 C   0  0  0  0  0  2  0  0  0  0  0  0
  190.5070  176.7950  140.5650 C   0  0  2  0  0  3  0  0  0  0  0  0
  191.0010  176.9100  142.0200 C   0  0  2  0  0  3  0  0  0  0  0  0
  188.3790  176.0980  137.0860 C   0  0  2  0  0  3  0  0  0  0  0  0
  186.8780  178.0780  137.4140 O   0  0  0  0  0  0  0  0  0  0  0  0
  190.5830  177.5010  144.2240 C   0  0  2  0  0  3  0  0  0  0  0  0
  185.0810  178.3110  139.6030 C   0  0  0  0  0  2  0  0  0  0  0  0
  187.4800  178.2110  138.6960 C   0  0  1  0  0  3  0  0  0  0  0  0
  186.5390  178.6780  139.8170 C   0  0  2  0  0  3  0  0  0  0  0  0
  188.4030  177.7910  141.4840 C   0  0  2  0  0  3  0  0  0  0  0  0
  190.1750  176.1610  144.1350 O   0  0  0  0  0  0  0  0  0  0  0  0
  186.9910  176.7630  136.8830 C   0  0  2  0  0  3  0  0  0  0  0  0
  190.5560  175.7200  142.8500 C   0  0  0  0  0  2  0  0  0  0  0  0
  186.1480  178.2490  142.1950 N   0  0  0  0  0  0  0  0  0  0  0  0
  186.9960  178.2890  141.2180 C   0  0  0  0  0  0  0  0  0  0  0  0
  189.1470  178.6670  142.4780 C   0  0  0  0  0  2  0  0  0  0  0  0
  189.2230  176.8140  137.9630 O   0  0  0  0  0  0  0  0  0  0  0  0
  191.5490  177.1280  139.6990 O   0  0  0  0  0  1  0  0  0  0  0  0
  189.7710  178.2530  145.2690 C   0  0  0  0  0  1  0  0  0  0  0  0
  189.2800  177.6520  140.2440 C   0  0  2  0  0  3  0  0  0  0  0  0
  190.5510  178.1140  142.8340 C   0  0  2  0  0  3  0  0  0  0  0  0
  184.9890  175.5580  136.3740 O   0  0  0  0  0  0  0  0  0  0  0  0
  185.8840  175.8650  137.4150 C   0  0  1  0  0  3  0  0  0  0  0  0
  185.9180  174.5610  136.7220 C   0  0  1  0  0  3  0  0  0  0  0  0
  185.2300  173.5120  137.5730 C   0  0  0  0  0  2  0  0  0  0  0  0
  184.4830  172.5660  136.7010 C   0  0  0  0  0  0  0  0  0  0  0  0
  183.2270  172.5140  136.7600 O   0  0  0  0  0  1  0  0  0  0  0  0
  185.1680  171.7660  135.7960 O   0  0  0  0  0  0  0  0  0  0  0  0
  189.4180  177.1800  135.2340 O   0  0  0  0  0  1  0  0  0  0  0  0
  189.0590  175.9320  135.7410 C   0  0  0  0  0  2  0  0  0  0  0  0
  1 19  1  6  0  0  0
  1 22  1  0  0  0  0
  2  3  1  0  0  0  0
  3 16  1  0  0  0  0
  4 20  1  6  0  0  0
  4  5  1  0  0  0  0
  5 23  1  0  0  0  0
  5 15  1  1  0  0  0
  6 32  1  6  0  0  0
  6 19  1  0  0  0  0
  8 21  1  1  0  0  0
  9  2  1  0  0  0  0
 10  7  1  6  0  0  0
 10  1  1  0  0  0  0
 10 11  1  0  0  0  0
 11  9  1  6  0  0  0
 11 17  1  0  0  0  0
 12 18  1  1  0  0  0
 13  8  1  0  0  0  0
 14  6  1  0  0  0  0
 14  7  1  1  0  0  0
 14 25  1  0  0  0  0
 15 13  1  0  0  0  0
 17 12  1  0  0  0  0
 17 16  2  0  0  0  0
 18 23  1  0  0  0  0
 22  4  1  0  0  0  0
 22 12  1  0  0  0  0
 23  8  1  0  0  0  0
 24 26  1  0  0  0  0
 24 25  1  0  0  0  0
 26 25  1  0  0  0  0
 26 27  1  0  0  0  0
 28 29  1  0  0  0  0
 28 27  1  0  0  0  0
 30 28  2  0  0  0  0
 31 32  1  0  0  0  0
M  END
>  <MODEL>
9

>  <REMARK>
 VINA RESULT:      -6.1      2.828      3.508
  Name = 
  4 active torsions:
  status: ('A' for Active; 'I' for Inactive)
    1  A    between atoms: C_7  and  C_19
    2  A    between atoms: C_10  and  C_17
    3  A    between atoms: C_20  and  C_29
    4  A    between atoms: C_29  and  C_30
                            x       y       z     vdW  Elec       q    Type
                         _______ _______ _______ _____ _____    ______ ____

>  <TORSDO>
F 4

$$$$
