=
 OpenBabel11122410233D

 30 35  0  0  1  0  0  0  0  0999 V2000
  185.1960  178.1320  142.2890 C   0  0  0  0  0  0  0  0  0  0  0  0
  186.1490  178.2060  144.6060 C   0  0  0  0  0  0  0  0  0  0  0  0
  181.0110  179.1140  143.8850 S   0  0  0  0  0  0  0  0  0  0  0  0
  184.0700  178.2470  141.4330 C   0  0  0  0  0  0  0  0  0  0  0  0
  186.5210  177.8270  141.6650 C   0  0  0  0  0  2  0  0  0  0  0  0
  185.7190  179.1460  138.3020 O   0  0  0  0  0  1  0  0  0  0  0  0
  182.0950  176.7710  139.8370 C   0  0  1  0  0  3  0  0  0  0  0  0
  185.6830  178.2620  139.3830 C   0  0  1  0  0  3  0  0  0  0  0  0
  181.3740  178.0660  139.9540 C   0  0  1  0  0  3  0  0  0  0  0  0
  180.4510  179.0580  142.1410 C   0  0  1  0  0  3  0  0  0  0  0  0
  186.7060  178.6880  140.4300 C   0  0  2  0  0  3  0  0  0  0  0  0
  184.2350  178.1580  139.9120 C   0  0  1  0  0  3  0  0  0  0  0  0
  185.9490  178.4110  145.9730 C   0  0  0  0  0  3  0  0  0  0  0  0
  179.9550  177.6330  139.6690 C   0  0  0  0  0  2  0  0  0  0  0  0
  181.2390  175.9260  139.0300 N   0  0  0  0  0  2  0  0  0  0  0  0
  187.4350  177.8910  144.1860 O   0  0  0  0  0  1  0  0  0  0  0  0
  182.6830  178.7530  143.3630 C   0  0  0  0  0  0  0  0  0  0  0  0
  184.6870  178.7280  146.4690 C   0  0  0  0  0  3  0  0  0  0  0  0
  185.0600  178.3170  143.6970 C   0  0  0  0  0  0  0  0  0  0  0  0
  182.8110  178.5470  142.0090 C   0  0  0  0  0  0  0  0  0  0  0  0
  180.0110  180.4450  141.7120 C   0  0  0  0  0  1  0  0  0  0  0  0
  181.5650  178.6100  141.3040 N   0  0  0  0  0  0  0  0  0  0  0  0
  179.9530  176.2570  139.3490 O   0  0  0  0  0  0  0  0  0  0  0  0
  183.4450  177.1490  137.7400 C   0  0  0  0  0  1  0  0  0  0  0  0
  183.6090  178.8410  145.5980 C   0  0  0  0  0  3  0  0  0  0  0  0
  183.7790  178.6420  144.2230 C   0  0  0  0  0  0  0  0  0  0  0  0
  183.5010  176.9630  139.2550 C   0  0  2  0  0  3  0  0  0  0  0  0
  188.1130  178.5050  139.8830 C   0  0  0  0  0  2  0  0  0  0  0  0
  190.0800  177.0330  140.1840 C   0  0  0  0  0  1  0  0  0  0  0  0
  188.9870  177.7970  140.9010 C   0  0  0  0  0  2  0  0  0  0  0  0
  1 19  1  0  0  0  0
  2 13  1  0  0  0  0
  4 20  1  0  0  0  0
  4  1  2  0  0  0  0
  5  1  1  0  0  0  0
  7 15  1  6  0  0  0
  7  9  1  0  0  0  0
  8  6  1  6  0  0  0
  8 12  1  0  0  0  0
  8 11  1  0  0  0  0
  9 14  1  1  0  0  0
  9 22  1  0  0  0  0
 10 21  1  6  0  0  0
 10  3  1  0  0  0  0
 11 28  1  6  0  0  0
 11  5  1  0  0  0  0
 12  4  1  1  0  0  0
 13 18  2  0  0  0  0
 15 23  1  0  0  0  0
 16  2  1  0  0  0  0
 17  3  1  0  0  0  0
 17 26  1  0  0  0  0
 19 26  1  0  0  0  0
 19  2  2  0  0  0  0
 20 17  2  0  0  0  0
 22 20  1  0  0  0  0
 22 10  1  0  0  0  0
 23 14  1  0  0  0  0
 25 18  1  0  0  0  0
 26 25  2  0  0  0  0
 27 24  1  6  0  0  0
 27  7  1  0  0  0  0
 27 12  1  0  0  0  0
 28 30  1  0  0  0  0
 29 30  1  0  0  0  0
M  END
>  <MODEL>
1

>  <REMARK>
 VINA RESULT:      -7.7      0.000      0.000
  Name = 
  2 active torsions:
  status: ('A' for Active; 'I' for Inactive)
    1  A    between atoms: C_11  and  C_28
    2  A    between atoms: C_28  and  C_30
                            x       y       z     vdW  Elec       q    Type
                         _______ _______ _______ _____ _____    ______ ____

>  <TORSDO>
F 2

$$$$
=
 OpenBabel11122410233D

 30 35  0  0  1  0  0  0  0  0999 V2000
  186.6560  178.1420  143.2740 C   0  0  0  0  0  0  0  0  0  0  0  0
  186.0840  178.0580  140.8350 C   0  0  0  0  0  0  0  0  0  0  0  0
  191.1380  178.2140  142.3100 S   0  0  0  0  0  0  0  0  0  0  0  0
  187.6450  178.1870  144.2900 C   0  0  0  0  0  0  0  0  0  0  0  0
  185.2190  178.1400  143.6950 C   0  0  0  0  0  2  0  0  0  0  0  0
  185.7420  179.7500  146.9850 O   0  0  0  0  0  1  0  0  0  0  0  0
  189.0640  176.6390  146.3430 C   0  0  1  0  0  3  0  0  0  0  0  0
  185.7760  178.7360  146.0260 C   0  0  1  0  0  3  0  0  0  0  0  0
  190.0160  177.7730  146.2120 C   0  0  1  0  0  3  0  0  0  0  0  0
  191.4150  178.3020  144.1200 C   0  0  1  0  0  3  0  0  0  0  0  0
  185.0130  179.1770  144.7830 C   0  0  2  0  0  3  0  0  0  0  0  0
  187.2440  178.3290  145.7630 C   0  0  1  0  0  3  0  0  0  0  0  0
  186.5170  178.0440  139.5070 C   0  0  0  0  0  3  0  0  0  0  0  0
  191.2760  177.1580  146.7770 C   0  0  0  0  0  2  0  0  0  0  0  0
  189.6250  175.7820  147.3680 N   0  0  0  0  0  2  0  0  0  0  0  0
  184.7140  178.0140  141.0640 O   0  0  0  0  0  1  0  0  0  0  0  0
  189.3690  178.2000  142.5790 C   0  0  0  0  0  0  0  0  0  0  0  0
  187.8740  178.0840  139.2000 C   0  0  0  0  0  3  0  0  0  0  0  0
  187.0290  178.1130  141.8970 C   0  0  0  0  0  0  0  0  0  0  0  0
  189.0080  178.2000  143.9050 C   0  0  0  0  0  0  0  0  0  0  0  0
  192.0300  179.6450  144.4670 C   0  0  0  0  0  1  0  0  0  0  0  0
  190.1280  178.1560  144.8000 N   0  0  0  0  0  0  0  0  0  0  0  0
  190.9820  175.8560  147.2370 O   0  0  0  0  0  0  0  0  0  0  0  0
  187.5100  177.5060  148.1310 C   0  0  0  0  0  1  0  0  0  0  0  0
  188.8150  178.1370  140.2230 C   0  0  0  0  0  3  0  0  0  0  0  0
  188.4110  178.1530  141.5630 C   0  0  0  0  0  0  0  0  0  0  0  0
  187.6450  177.1300  146.6560 C   0  0  2  0  0  3  0  0  0  0  0  0
  183.5310  179.2980  145.1010 C   0  0  0  0  0  2  0  0  0  0  0  0
  181.3400  178.6450  144.1540 C   0  0  0  0  0  1  0  0  0  0  0  0
  182.7090  179.2050  143.8300 C   0  0  0  0  0  2  0  0  0  0  0  0
  1  5  1  0  0  0  0
  1  4  1  0  0  0  0
  2 16  1  0  0  0  0
  2 19  1  0  0  0  0
  3 17  1  0  0  0  0
  3 10  1  0  0  0  0
  5 11  1  0  0  0  0
  7 27  1  0  0  0  0
  7 15  1  1  0  0  0
  8  6  1  1  0  0  0
  9  7  1  0  0  0  0
  9 14  1  6  0  0  0
 10 21  1  6  0  0  0
 10 22  1  0  0  0  0
 11 28  1  1  0  0  0
 11  8  1  0  0  0  0
 12  4  1  6  0  0  0
 12  8  1  0  0  0  0
 12 27  1  0  0  0  0
 13  2  2  0  0  0  0
 14 23  1  0  0  0  0
 17 20  1  0  0  0  0
 18 13  1  0  0  0  0
 18 25  2  0  0  0  0
 19  1  2  0  0  0  0
 20  4  2  0  0  0  0
 20 22  1  0  0  0  0
 22  9  1  0  0  0  0
 23 15  1  0  0  0  0
 25 26  1  0  0  0  0
 26 19  1  0  0  0  0
 26 17  2  0  0  0  0
 27 24  1  1  0  0  0
 30 29  1  0  0  0  0
 30 28  1  0  0  0  0
M  END
>  <MODEL>
2

>  <REMARK>
 VINA RESULT:      -7.6      4.060      8.366
  Name = 
  2 active torsions:
  status: ('A' for Active; 'I' for Inactive)
    1  A    between atoms: C_11  and  C_28
    2  A    between atoms: C_28  and  C_30
                            x       y       z     vdW  Elec       q    Type
                         _______ _______ _______ _____ _____    ______ ____

>  <TORSDO>
F 2

$$$$
=
 OpenBabel11122410233D

 30 35  0  0  1  0  0  0  0  0999 V2000
  188.4820  177.5640  141.6710 C   0  0  0  0  0  0  0  0  0  0  0  0
  186.7060  177.9910  143.3870 C   0  0  0  0  0  0  0  0  0  0  0  0
  185.6010  178.6860  138.2840 S   0  0  0  0  0  0  0  0  0  0  0  0
  188.8720  177.5320  140.3070 C   0  0  0  0  0  0  0  0  0  0  0  0
  189.5050  177.1970  142.7000 C   0  0  0  0  0  2  0  0  0  0  0  0
  192.4770  178.0000  140.6490 O   0  0  0  0  0  1  0  0  0  0  0  0
  189.4300  175.8030  137.9990 C   0  0  1  0  0  3  0  0  0  0  0  0
  191.3550  177.2820  141.0680 C   0  0  1  0  0  3  0  0  0  0  0  0
  189.2230  177.0870  137.2790 C   0  0  1  0  0  3  0  0  0  0  0  0
  186.9970  178.3670  137.1390 C   0  0  1  0  0  3  0  0  0  0  0  0
  190.8210  177.8740  142.3660 C   0  0  2  0  0  3  0  0  0  0  0  0
  190.3230  177.2270  139.9180 C   0  0  1  0  0  3  0  0  0  0  0  0
  185.3990  178.3880  143.6800 C   0  0  0  0  0  3  0  0  0  0  0  0
  188.9100  176.5890  135.8870 C   0  0  0  0  0  2  0  0  0  0  0  0
  189.7520  174.8340  136.9720 N   0  0  0  0  0  2  0  0  0  0  0  0
  187.5260  177.6430  144.4550 O   0  0  0  0  0  1  0  0  0  0  0  0
  186.6500  178.2850  139.6770 C   0  0  0  0  0  0  0  0  0  0  0  0
  184.5200  178.7490  142.6620 C   0  0  0  0  0  3  0  0  0  0  0  0
  187.1590  177.9480  142.0390 C   0  0  0  0  0  0  0  0  0  0  0  0
  187.9180  177.8880  139.3230 C   0  0  0  0  0  0  0  0  0  0  0  0
  187.4070  179.6690  136.4770 C   0  0  0  0  0  1  0  0  0  0  0  0
  188.1190  177.8250  137.9050 N   0  0  0  0  0  0  0  0  0  0  0  0
  189.0290  175.1830  135.8680 O   0  0  0  0  0  0  0  0  0  0  0  0
  191.9060  175.8990  138.4730 C   0  0  0  0  0  1  0  0  0  0  0  0
  184.9410  178.7140  141.3370 C   0  0  0  0  0  3  0  0  0  0  0  0
  186.2450  178.3210  141.0140 C   0  0  0  0  0  0  0  0  0  0  0  0
  190.5070  175.9360  139.0840 C   0  0  2  0  0  3  0  0  0  0  0  0
  191.8170  177.6410  143.4900 C   0  0  0  0  0  2  0  0  0  0  0  0
  191.6390  176.5740  145.7160 C   0  0  0  0  0  1  0  0  0  0  0  0
  191.1170  177.6900  144.8350 C   0  0  0  0  0  2  0  0  0  0  0  0
  1 19  1  0  0  0  0
  1  5  1  0  0  0  0
  2 13  1  0  0  0  0
  2 16  1  0  0  0  0
  3 17  1  0  0  0  0
  4  1  2  0  0  0  0
  7 15  1  6  0  0  0
  7 27  1  0  0  0  0
  8  6  1  6  0  0  0
  8 11  1  0  0  0  0
  9 14  1  6  0  0  0
  9 22  1  0  0  0  0
  9  7  1  0  0  0  0
 10 21  1  1  0  0  0
 10 22  1  0  0  0  0
 10  3  1  0  0  0  0
 11  5  1  0  0  0  0
 11 28  1  1  0  0  0
 12  4  1  1  0  0  0
 12  8  1  0  0  0  0
 17 26  1  0  0  0  0
 18 13  2  0  0  0  0
 19  2  2  0  0  0  0
 20 17  2  0  0  0  0
 20  4  1  0  0  0  0
 22 20  1  0  0  0  0
 23 14  1  0  0  0  0
 23 15  1  0  0  0  0
 25 18  1  0  0  0  0
 26 25  2  0  0  0  0
 26 19  1  0  0  0  0
 27 24  1  6  0  0  0
 27 12  1  0  0  0  0
 28 30  1  0  0  0  0
 30 29  1  0  0  0  0
M  END
>  <MODEL>
3

>  <REMARK>
 VINA RESULT:      -7.4      3.840      6.282
  Name = 
  2 active torsions:
  status: ('A' for Active; 'I' for Inactive)
    1  A    between atoms: C_11  and  C_28
    2  A    between atoms: C_28  and  C_30
                            x       y       z     vdW  Elec       q    Type
                         _______ _______ _______ _____ _____    ______ ____

>  <TORSDO>
F 2

$$$$
=
 OpenBabel11122410233D

 30 35  0  0  1  0  0  0  0  0999 V2000
  186.5490  178.4720  145.1140 C   0  0  0  0  0  0  0  0  0  0  0  0
  186.8380  178.8810  147.5700 C   0  0  0  0  0  0  0  0  0  0  0  0
  190.6310  176.3940  144.8910 S   0  0  0  0  0  0  0  0  0  0  0  0
  187.0640  177.9500  143.8990 C   0  0  0  0  0  0  0  0  0  0  0  0
  185.1980  179.1140  145.0820 C   0  0  0  0  0  2  0  0  0  0  0  0
  183.9580  177.3440  142.0790 O   0  0  0  0  0  1  0  0  0  0  0  0
  188.3100  178.6180  141.3250 C   0  0  1  0  0  3  0  0  0  0  0  0
  184.7110  178.2600  142.8170 C   0  0  1  0  0  3  0  0  0  0  0  0
  188.6770  177.1790  141.3910 C   0  0  1  0  0  3  0  0  0  0  0  0
  190.2800  176.1350  143.1110 C   0  0  1  0  0  3  0  0  0  0  0  0
  184.2500  178.2530  144.2700 C   0  0  2  0  0  3  0  0  0  0  0  0
  186.2150  177.9610  142.6230 C   0  0  1  0  0  3  0  0  0  0  0  0
  187.6160  178.7370  148.7210 C   0  0  0  0  0  3  0  0  0  0  0  0
  189.8420  177.1350  140.4290 C   0  0  0  0  0  2  0  0  0  0  0  0
  188.8410  179.0930  140.0640 N   0  0  0  0  0  2  0  0  0  0  0  0
  185.6200  179.5370  147.6970 O   0  0  0  0  0  1  0  0  0  0  0  0
  189.0480  177.2050  145.0880 C   0  0  0  0  0  0  0  0  0  0  0  0
  188.8490  178.0920  148.6710 C   0  0  0  0  0  3  0  0  0  0  0  0
  187.2970  178.3700  146.3240 C   0  0  0  0  0  0  0  0  0  0  0  0
  188.3370  177.3290  143.9170 C   0  0  0  0  0  0  0  0  0  0  0  0
  190.1270  174.6500  142.8430 C   0  0  0  0  0  1  0  0  0  0  0  0
  189.0390  176.8310  142.7710 N   0  0  0  0  0  0  0  0  0  0  0  0
  190.0060  178.4130  139.8520 O   0  0  0  0  0  0  0  0  0  0  0  0
  186.0730  178.5010  140.1650 C   0  0  0  0  0  1  0  0  0  0  0  0
  189.3170  177.5850  147.4630 C   0  0  0  0  0  3  0  0  0  0  0  0
  188.5590  177.7140  146.2940 C   0  0  0  0  0  0  0  0  0  0  0  0
  186.7960  178.8170  141.4720 C   0  0  2  0  0  3  0  0  0  0  0  0
  182.8380  178.8110  144.3670 C   0  0  0  0  0  2  0  0  0  0  0  0
  180.9480  179.0420  142.7860 C   0  0  0  0  0  1  0  0  0  0  0  0
  182.4030  179.3820  143.0310 C   0  0  0  0  0  2  0  0  0  0  0  0
  1 19  1  0  0  0  0
  2 16  1  0  0  0  0
  2 13  1  0  0  0  0
  3 17  1  0  0  0  0
  4 20  1  0  0  0  0
  4  1  2  0  0  0  0
  5  1  1  0  0  0  0
  7 15  1  6  0  0  0
  7  9  1  0  0  0  0
  7 27  1  0  0  0  0
  8  6  1  6  0  0  0
  8 11  1  0  0  0  0
  9 14  1  6  0  0  0
  9 22  1  0  0  0  0
 10 21  1  1  0  0  0
 10  3  1  0  0  0  0
 11 28  1  6  0  0  0
 11  5  1  0  0  0  0
 12  8  1  0  0  0  0
 12  4  1  1  0  0  0
 17 26  1  0  0  0  0
 18 13  2  0  0  0  0
 19  2  2  0  0  0  0
 20 17  2  0  0  0  0
 22 10  1  0  0  0  0
 22 20  1  0  0  0  0
 23 15  1  0  0  0  0
 23 14  1  0  0  0  0
 25 18  1  0  0  0  0
 26 19  1  0  0  0  0
 26 25  2  0  0  0  0
 27 24  1  6  0  0  0
 27 12  1  0  0  0  0
 29 30  1  0  0  0  0
 30 28  1  0  0  0  0
M  END
>  <MODEL>
4

>  <REMARK>
 VINA RESULT:      -7.1      3.541      6.663
  Name = 
  2 active torsions:
  status: ('A' for Active; 'I' for Inactive)
    1  A    between atoms: C_11  and  C_28
    2  A    between atoms: C_28  and  C_30
                            x       y       z     vdW  Elec       q    Type
                         _______ _______ _______ _____ _____    ______ ____

>  <TORSDO>
F 2

$$$$
=
 OpenBabel11122410233D

 30 35  0  0  1  0  0  0  0  0999 V2000
  185.6370  178.5830  140.0750 C   0  0  0  0  0  0  0  0  0  0  0  0
  188.1380  178.4170  140.0760 C   0  0  0  0  0  0  0  0  0  0  0  0
  185.4430  176.9340  135.8000 S   0  0  0  0  0  0  0  0  0  0  0  0
  184.4070  178.4060  139.3900 C   0  0  0  0  0  0  0  0  0  0  0  0
  185.5890  179.1100  141.4750 C   0  0  0  0  0  2  0  0  0  0  0  0
  182.1340  178.0160  142.2200 O   0  0  0  0  0  1  0  0  0  0  0  0
  182.2230  179.7590  137.9680 C   0  0  1  0  0  3  0  0  0  0  0  0
  183.1470  178.7850  141.6430 C   0  0  1  0  0  3  0  0  0  0  0  0
  182.0030  178.3780  137.4640 C   0  0  1  0  0  3  0  0  0  0  0  0
  183.6210  177.0800  135.9440 C   0  0  1  0  0  3  0  0  0  0  0  0
  184.4930  178.3970  142.2440 C   0  0  2  0  0  3  0  0  0  0  0  0
  183.0740  178.6550  140.1040 C   0  0  1  0  0  3  0  0  0  0  0  0
  189.3110  178.0620  139.4070 C   0  0  0  0  0  3  0  0  0  0  0  0
  181.2050  178.6530  136.2110 C   0  0  0  0  0  2  0  0  0  0  0  0
  181.1770  180.5600  137.3640 N   0  0  0  0  0  2  0  0  0  0  0  0
  188.2620  178.9300  141.3620 O   0  0  0  0  0  1  0  0  0  0  0  0
  185.6260  177.5520  137.4700 C   0  0  0  0  0  0  0  0  0  0  0  0
  189.2650  177.5430  138.1160 C   0  0  0  0  0  3  0  0  0  0  0  0
  186.8740  178.2530  139.4450 C   0  0  0  0  0  0  0  0  0  0  0  0
  184.4370  177.8960  138.0690 C   0  0  0  0  0  0  0  0  0  0  0  0
  183.0060  175.6940  135.9170 C   0  0  0  0  0  1  0  0  0  0  0  0
  183.3010  177.7400  137.2080 N   0  0  0  0  0  0  0  0  0  0  0  0
  180.9590  180.0400  136.1200 O   0  0  0  0  0  0  0  0  0  0  0  0
  180.8040  179.7520  140.0530 C   0  0  0  0  0  1  0  0  0  0  0  0
  188.0400  177.3750  137.4790 C   0  0  0  0  0  3  0  0  0  0  0  0
  186.8470  177.7210  138.1260 C   0  0  0  0  0  0  0  0  0  0  0  0
  182.2270  179.8030  139.5010 C   0  0  2  0  0  3  0  0  0  0  0  0
  184.5430  178.8070  143.7070 C   0  0  0  0  0  2  0  0  0  0  0  0
  185.7930  178.6260  145.8360 C   0  0  0  0  0  1  0  0  0  0  0  0
  185.7910  178.2530  144.3680 C   0  0  0  0  0  2  0  0  0  0  0  0
  1  5  1  0  0  0  0
  2 16  1  0  0  0  0
  3 10  1  0  0  0  0
  3 17  1  0  0  0  0
  4  1  2  0  0  0  0
  5 11  1  0  0  0  0
  7 15  1  6  0  0  0
  7 27  1  0  0  0  0
  8  6  1  1  0  0  0
  8 11  1  0  0  0  0
  9 14  1  6  0  0  0
  9  7  1  0  0  0  0
 10 21  1  1  0  0  0
 10 22  1  0  0  0  0
 11 28  1  1  0  0  0
 12  4  1  6  0  0  0
 12  8  1  0  0  0  0
 13  2  2  0  0  0  0
 17 20  2  0  0  0  0
 17 26  1  0  0  0  0
 18 13  1  0  0  0  0
 19  1  1  0  0  0  0
 19  2  1  0  0  0  0
 20  4  1  0  0  0  0
 22  9  1  0  0  0  0
 22 20  1  0  0  0  0
 23 14  1  0  0  0  0
 23 15  1  0  0  0  0
 25 18  2  0  0  0  0
 25 26  1  0  0  0  0
 26 19  2  0  0  0  0
 27 24  1  1  0  0  0
 27 12  1  0  0  0  0
 28 30  1  0  0  0  0
 30 29  1  0  0  0  0
M  END
>  <MODEL>
5

>  <REMARK>
 VINA RESULT:      -7.0      2.822      5.500
  Name = 
  2 active torsions:
  status: ('A' for Active; 'I' for Inactive)
    1  A    between atoms: C_11  and  C_28
    2  A    between atoms: C_28  and  C_30
                            x       y       z     vdW  Elec       q    Type
                         _______ _______ _______ _____ _____    ______ ____

>  <TORSDO>
F 2

$$$$
=
 OpenBabel11122410233D

 30 35  0  0  1  0  0  0  0  0999 V2000
  187.4290  178.2450  140.8690 C   0  0  0  0  0  0  0  0  0  0  0  0
  188.7280  178.5270  138.7440 C   0  0  0  0  0  0  0  0  0  0  0  0
  183.4780  178.1500  138.5420 S   0  0  0  0  0  0  0  0  0  0  0  0
  186.1750  178.1010  141.5170 C   0  0  0  0  0  0  0  0  0  0  0  0
  188.6610  178.2450  141.7190 C   0  0  0  0  0  2  0  0  0  0  0  0
  187.2100  176.3780  144.5650 O   0  0  0  0  0  1  0  0  0  0  0  0
  184.1200  179.4570  143.1170 C   0  0  1  0  0  3  0  0  0  0  0  0
  187.4320  177.4620  143.7120 C   0  0  1  0  0  3  0  0  0  0  0  0
  183.3070  178.3160  142.6200 C   0  0  1  0  0  3  0  0  0  0  0  0
  182.6560  177.9180  140.1640 C   0  0  1  0  0  3  0  0  0  0  0  0
  188.5640  177.1330  142.7460 C   0  0  2  0  0  3  0  0  0  0  0  0
  186.1030  177.8550  143.0280 C   0  0  1  0  0  3  0  0  0  0  0  0
  188.7310  178.6330  137.3510 C   0  0  0  0  0  3  0  0  0  0  0  0
  181.9080  178.8590  142.7990 C   0  0  0  0  0  2  0  0  0  0  0  0
  183.2290  180.2210  143.9680 N   0  0  0  0  0  2  0  0  0  0  0  0
  189.9550  178.5830  139.3940 O   0  0  0  0  0  1  0  0  0  0  0  0
  185.0730  178.1810  139.3540 C   0  0  0  0  0  0  0  0  0  0  0  0
  187.5400  178.5870  136.6310 C   0  0  0  0  0  3  0  0  0  0  0  0
  187.5030  178.3710  139.4500 C   0  0  0  0  0  0  0  0  0  0  0  0
  185.0020  178.0880  140.7240 C   0  0  0  0  0  0  0  0  0  0  0  0
  182.0230  176.5400  140.2110 C   0  0  0  0  0  1  0  0  0  0  0  0
  183.6580  178.0400  141.2220 N   0  0  0  0  0  0  0  0  0  0  0  0
  181.9860  180.1280  143.4120 O   0  0  0  0  0  0  0  0  0  0  0  0
  185.0760  178.4900  145.2420 C   0  0  0  0  0  1  0  0  0  0  0  0
  186.3310  178.4360  137.3010 C   0  0  0  0  0  3  0  0  0  0  0  0
  186.2970  178.3260  138.6960 C   0  0  0  0  0  0  0  0  0  0  0  0
  185.3900  178.9740  143.8280 C   0  0  2  0  0  3  0  0  0  0  0  0
  189.8760  177.0200  143.5050 C   0  0  0  0  0  2  0  0  0  0  0  0
  191.4980  178.8310  143.9680 C   0  0  0  0  0  1  0  0  0  0  0  0
  190.1300  178.2800  144.3100 C   0  0  0  0  0  2  0  0  0  0  0  0
  1  4  1  0  0  0  0
  1  5  1  0  0  0  0
  2 16  1  0  0  0  0
  2 19  1  0  0  0  0
  3 17  1  0  0  0  0
  3 10  1  0  0  0  0
  5 11  1  0  0  0  0
  7 27  1  0  0  0  0
  7 15  1  1  0  0  0
  8  6  1  6  0  0  0
  9 14  1  6  0  0  0
  9  7  1  0  0  0  0
 10 21  1  6  0  0  0
 10 22  1  0  0  0  0
 11 28  1  1  0  0  0
 11  8  1  0  0  0  0
 12  4  1  6  0  0  0
 12  8  1  0  0  0  0
 12 27  1  0  0  0  0
 13  2  2  0  0  0  0
 14 23  1  0  0  0  0
 17 20  1  0  0  0  0
 18 25  2  0  0  0  0
 18 13  1  0  0  0  0
 19  1  2  0  0  0  0
 20 22  1  0  0  0  0
 20  4  2  0  0  0  0
 22  9  1  0  0  0  0
 23 15  1  0  0  0  0
 25 26  1  0  0  0  0
 26 17  2  0  0  0  0
 26 19  1  0  0  0  0
 27 24  1  1  0  0  0
 28 30  1  0  0  0  0
 29 30  1  0  0  0  0
M  END
>  <MODEL>
6

>  <REMARK>
 VINA RESULT:      -6.9      2.538      5.414
  Name = 
  2 active torsions:
  status: ('A' for Active; 'I' for Inactive)
    1  A    between atoms: C_11  and  C_28
    2  A    between atoms: C_28  and  C_30
                            x       y       z     vdW  Elec       q    Type
                         _______ _______ _______ _____ _____    ______ ____

>  <TORSDO>
F 2

$$$$
=
 OpenBabel11122410233D

 30 35  0  0  1  0  0  0  0  0999 V2000
  191.2600  176.4020  138.8980 C   0  0  0  0  0  0  0  0  0  0  0  0
  193.5880  175.7320  138.2540 C   0  0  0  0  0  0  0  0  0  0  0  0
  189.5050  173.9360  135.4530 S   0  0  0  0  0  0  0  0  0  0  0  0
  189.8640  176.3340  138.6530 C   0  0  0  0  0  0  0  0  0  0  0  0
  191.7280  177.2190  140.0610 C   0  0  0  0  0  2  0  0  0  0  0  0
  188.5800  177.0430  141.9970 O   0  0  0  0  0  1  0  0  0  0  0  0
  187.5330  177.7630  137.5790 C   0  0  1  0  0  3  0  0  0  0  0  0
  189.4460  177.4440  140.9770 C   0  0  1  0  0  3  0  0  0  0  0  0
  186.9890  176.3790  137.5470 C   0  0  1  0  0  3  0  0  0  0  0  0
  187.8580  174.4790  136.0480 C   0  0  1  0  0  3  0  0  0  0  0  0
  190.8520  176.9300  141.2650 C   0  0  2  0  0  3  0  0  0  0  0  0
  188.8710  177.0000  139.6130 C   0  0  1  0  0  3  0  0  0  0  0  0
  194.4310  175.0080  137.4080 C   0  0  0  0  0  3  0  0  0  0  0  0
  185.8760  176.5320  136.5370 C   0  0  0  0  0  2  0  0  0  0  0  0
  186.4610  178.6090  137.0950 N   0  0  0  0  0  2  0  0  0  0  0  0
  194.1800  176.4770  139.2680 O   0  0  0  0  0  1  0  0  0  0  0  0
  190.2870  174.8520  136.7760 C   0  0  0  0  0  0  0  0  0  0  0  0
  193.9100  174.2410  136.3700 C   0  0  0  0  0  3  0  0  0  0  0  0
  192.1780  175.6970  138.0650 C   0  0  0  0  0  0  0  0  0  0  0  0
  189.4060  175.5540  137.5640 C   0  0  0  0  0  0  0  0  0  0  0  0
  187.0930  173.2750  136.5670 C   0  0  0  0  0  1  0  0  0  0  0  0
  188.0450  175.4500  137.1250 N   0  0  0  0  0  0  0  0  0  0  0  0
  185.7940  177.8860  136.1480 O   0  0  0  0  0  0  0  0  0  0  0  0
  186.8640  178.4990  139.8970 C   0  0  0  0  0  1  0  0  0  0  0  0
  192.5350  174.1930  136.1660 C   0  0  0  0  0  3  0  0  0  0  0  0
  191.6650  174.9070  136.9980 C   0  0  0  0  0  0  0  0  0  0  0  0
  188.0310  178.1370  138.9810 C   0  0  2  0  0  3  0  0  0  0  0  0
  191.4180  177.6300  142.4910 C   0  0  0  0  0  2  0  0  0  0  0  0
  191.2180  177.3200  144.9380 C   0  0  0  0  0  1  0  0  0  0  0  0
  191.5810  176.6440  143.6320 C   0  0  0  0  0  2  0  0  0  0  0  0
  1  5  1  0  0  0  0
  2 16  1  0  0  0  0
  3 10  1  0  0  0  0
  3 17  1  0  0  0  0
  4  1  1  0  0  0  0
  5 11  1  0  0  0  0
  7 15  1  1  0  0  0
  7 27  1  0  0  0  0
  8 11  1  0  0  0  0
  8  6  1  1  0  0  0
  9 14  1  6  0  0  0
  9  7  1  0  0  0  0
 10 21  1  1  0  0  0
 10 22  1  0  0  0  0
 11 28  1  1  0  0  0
 12  4  1  6  0  0  0
 12  8  1  0  0  0  0
 13  2  2  0  0  0  0
 17 26  2  0  0  0  0
 17 20  1  0  0  0  0
 18 13  1  0  0  0  0
 19  2  1  0  0  0  0
 19  1  2  0  0  0  0
 20  4  2  0  0  0  0
 22  9  1  0  0  0  0
 22 20  1  0  0  0  0
 23 14  1  0  0  0  0
 23 15  1  0  0  0  0
 25 18  2  0  0  0  0
 25 26  1  0  0  0  0
 26 19  1  0  0  0  0
 27 12  1  0  0  0  0
 27 24  1  1  0  0  0
 28 30  1  0  0  0  0
 30 29  1  0  0  0  0
M  END
>  <MODEL>
7

>  <REMARK>
 VINA RESULT:      -6.8      5.186      8.433
  Name = 
  2 active torsions:
  status: ('A' for Active; 'I' for Inactive)
    1  A    between atoms: C_11  and  C_28
    2  A    between atoms: C_28  and  C_30
                            x       y       z     vdW  Elec       q    Type
                         _______ _______ _______ _____ _____    ______ ____

>  <TORSDO>
F 2

$$$$
=
 OpenBabel11122410233D

 30 35  0  0  1  0  0  0  0  0999 V2000
  187.8010  177.7040  140.6710 C   0  0  0  0  0  0  0  0  0  0  0  0
  188.7040  176.9900  138.4450 C   0  0  0  0  0  0  0  0  0  0  0  0
  192.0210  177.7500  142.4660 S   0  0  0  0  0  0  0  0  0  0  0  0
  188.0410  178.0480  142.0270 C   0  0  0  0  0  0  0  0  0  0  0  0
  186.3880  177.7390  140.1790 C   0  0  0  0  0  2  0  0  0  0  0  0
  185.1230  180.1390  142.6960 O   0  0  0  0  0  1  0  0  0  0  0  0
  187.8780  177.1280  144.8110 C   0  0  1  0  0  3  0  0  0  0  0  0
  185.5880  178.9210  142.1950 C   0  0  1  0  0  3  0  0  0  0  0  0
  188.8500  178.2390  144.9930 C   0  0  1  0  0  3  0  0  0  0  0  0
  191.2330  178.2970  144.0270 C   0  0  1  0  0  3  0  0  0  0  0  0
  185.7120  179.0030  140.6780 C   0  0  2  0  0  3  0  0  0  0  0  0
  186.8950  178.5330  142.9230 C   0  0  1  0  0  3  0  0  0  0  0  0
  189.8080  176.6680  137.6520 C   0  0  0  0  0  3  0  0  0  0  0  0
  189.4970  177.8440  146.3000 C   0  0  0  0  0  2  0  0  0  0  0  0
  187.6670  176.5810  146.1360 N   0  0  0  0  0  2  0  0  0  0  0  0
  187.4490  176.9390  137.8500 O   0  0  0  0  0  1  0  0  0  0  0  0
  190.4200  177.7180  141.6660 C   0  0  0  0  0  0  0  0  0  0  0  0
  191.0960  176.6950  138.1790 C   0  0  0  0  0  3  0  0  0  0  0  0
  188.8820  177.3520  139.8090 C   0  0  0  0  0  0  0  0  0  0  0  0
  189.3740  178.0310  142.5030 C   0  0  0  0  0  0  0  0  0  0  0  0
  191.6800  179.7120  144.3430 C   0  0  0  0  0  1  0  0  0  0  0  0
  189.7800  178.2630  143.8580 N   0  0  0  0  0  0  0  0  0  0  0  0
  188.8600  176.6850  146.7930 O   0  0  0  0  0  0  0  0  0  0  0  0
  185.6870  178.3370  145.1270 C   0  0  0  0  0  1  0  0  0  0  0  0
  191.2920  177.0460  139.5110 C   0  0  0  0  0  3  0  0  0  0  0  0
  190.2060  177.3750  140.3290 C   0  0  0  0  0  0  0  0  0  0  0  0
  186.5920  177.6140  144.1310 C   0  0  2  0  0  3  0  0  0  0  0  0
  184.3330  179.1280  140.0510 C   0  0  0  0  0  2  0  0  0  0  0  0
  182.1010  178.5680  140.9620 C   0  0  0  0  0  1  0  0  0  0  0  0
  183.4340  178.0010  140.5240 C   0  0  0  0  0  2  0  0  0  0  0  0
  1  4  1  0  0  0  0
  2 19  1  0  0  0  0
  3 10  1  0  0  0  0
  4 20  2  0  0  0  0
  5  1  1  0  0  0  0
  5 11  1  0  0  0  0
  7  9  1  0  0  0  0
  7 15  1  1  0  0  0
  8  6  1  1  0  0  0
  8 12  1  0  0  0  0
  9 14  1  1  0  0  0
 10 21  1  6  0  0  0
 11 28  1  6  0  0  0
 11  8  1  0  0  0  0
 12  4  1  6  0  0  0
 12 27  1  0  0  0  0
 13 18  1  0  0  0  0
 13  2  2  0  0  0  0
 14 23  1  0  0  0  0
 15 23  1  0  0  0  0
 16  2  1  0  0  0  0
 17  3  1  0  0  0  0
 17 20  1  0  0  0  0
 18 25  2  0  0  0  0
 19 26  1  0  0  0  0
 19  1  2  0  0  0  0
 20 22  1  0  0  0  0
 22 10  1  0  0  0  0
 22  9  1  0  0  0  0
 25 26  1  0  0  0  0
 26 17  2  0  0  0  0
 27  7  1  0  0  0  0
 27 24  1  1  0  0  0
 28 30  1  0  0  0  0
 30 29  1  0  0  0  0
M  END
>  <MODEL>
8

>  <REMARK>
 VINA RESULT:      -6.8      3.762      7.811
  Name = 
  2 active torsions:
  status: ('A' for Active; 'I' for Inactive)
    1  A    between atoms: C_11  and  C_28
    2  A    between atoms: C_28  and  C_30
                            x       y       z     vdW  Elec       q    Type
                         _______ _______ _______ _____ _____    ______ ____

>  <TORSDO>
F 2

$$$$
=
 OpenBabel11122410233D

 30 35  0  0  1  0  0  0  0  0999 V2000
  186.0330  178.1840  141.8140 C   0  0  0  0  0  0  0  0  0  0  0  0
  185.6270  178.2530  144.2870 C   0  0  0  0  0  0  0  0  0  0  0  0
  181.6850  179.3790  140.9800 S   0  0  0  0  0  0  0  0  0  0  0  0
  185.5320  178.3360  140.4960 C   0  0  0  0  0  0  0  0  0  0  0  0
  187.4730  177.8100  141.9780 C   0  0  0  0  0  2  0  0  0  0  0  0
  188.6210  179.1100  138.7100 O   0  0  0  0  0  1  0  0  0  0  0  0
  184.6260  176.9250  138.0850 C   0  0  1  0  0  3  0  0  0  0  0  0
  187.9820  178.2460  139.6010 C   0  0  1  0  0  3  0  0  0  0  0  0
  184.0120  178.2530  137.8180 C   0  0  1  0  0  3  0  0  0  0  0  0
  182.1250  179.3190  139.2010 C   0  0  1  0  0  3  0  0  0  0  0  0
  188.3200  178.6430  141.0340 C   0  0  2  0  0  3  0  0  0  0  0  0
  186.4680  178.2150  139.2880 C   0  0  1  0  0  3  0  0  0  0  0  0
  184.7480  178.4890  145.3470 C   0  0  0  0  0  3  0  0  0  0  0  0
  182.9370  177.8780  136.8250 C   0  0  0  0  0  2  0  0  0  0  0  0
  184.2840  176.1060  136.9390 N   0  0  0  0  0  2  0  0  0  0  0  0
  186.9260  177.8740  144.6030 O   0  0  0  0  0  1  0  0  0  0  0  0
  183.3630  178.9340  141.4120 C   0  0  0  0  0  0  0  0  0  0  0  0
  183.4310  178.8700  145.1070 C   0  0  0  0  0  3  0  0  0  0  0  0
  185.1860  178.3980  142.9420 C   0  0  0  0  0  0  0  0  0  0  0  0
  184.1750  178.7010  140.3260 C   0  0  0  0  0  0  0  0  0  0  0  0
  182.0410  180.7180  138.6190 C   0  0  0  0  0  1  0  0  0  0  0  0
  183.4900  178.8090  139.0710 N   0  0  0  0  0  0  0  0  0  0  0  0
  183.0400  176.5000  136.5380 O   0  0  0  0  0  0  0  0  0  0  0  0
  186.8930  177.2080  137.0160 C   0  0  0  0  0  1  0  0  0  0  0  0
  182.9780  179.0170  143.8000 C   0  0  0  0  0  3  0  0  0  0  0  0
  183.8360  178.7880  142.7190 C   0  0  0  0  0  0  0  0  0  0  0  0
  186.1350  177.0440  138.3320 C   0  0  2  0  0  3  0  0  0  0  0  0
  189.7930  178.3880  141.3070 C   0  0  0  0  0  2  0  0  0  0  0  0
  190.7100  178.6280  143.5940 C   0  0  0  0  0  1  0  0  0  0  0  0
  189.9710  177.7040  142.6490 C   0  0  0  0  0  2  0  0  0  0  0  0
  1  5  1  0  0  0  0
  1 19  1  0  0  0  0
  2 16  1  0  0  0  0
  2 13  1  0  0  0  0
  3 17  1  0  0  0  0
  4  1  2  0  0  0  0
  7 15  1  6  0  0  0
  7 27  1  0  0  0  0
  8  6  1  6  0  0  0
  8 11  1  0  0  0  0
  9 14  1  6  0  0  0
  9  7  1  0  0  0  0
  9 22  1  0  0  0  0
 10 21  1  1  0  0  0
 10  3  1  0  0  0  0
 11 28  1  1  0  0  0
 11  5  1  0  0  0  0
 12  8  1  0  0  0  0
 12  4  1  1  0  0  0
 17 26  1  0  0  0  0
 18 13  2  0  0  0  0
 19  2  2  0  0  0  0
 20  4  1  0  0  0  0
 20 17  2  0  0  0  0
 22 10  1  0  0  0  0
 22 20  1  0  0  0  0
 23 14  1  0  0  0  0
 23 15  1  0  0  0  0
 25 18  1  0  0  0  0
 26 19  1  0  0  0  0
 26 25  2  0  0  0  0
 27 24  1  6  0  0  0
 27 12  1  0  0  0  0
 28 30  1  0  0  0  0
 30 29  1  0  0  0  0
M  END
>  <MODEL>
9

>  <REMARK>
 VINA RESULT:      -6.7      1.964      2.613
  Name = 
  2 active torsions:
  status: ('A' for Active; 'I' for Inactive)
    1  A    between atoms: C_11  and  C_28
    2  A    between atoms: C_28  and  C_30
                            x       y       z     vdW  Elec       q    Type
                         _______ _______ _______ _____ _____    ______ ____

>  <TORSDO>
F 2

$$$$
