=
 OpenBabel11122411103D

 31 35  0  0  0  0  0  0  0  0999 V2000
  184.7710  178.7710  144.9200 C   0  0  0  0  0  0  0  0  0  0  0  0
  188.2540  177.5600  144.1470 C   0  0  0  0  0  0  0  0  0  0  0  0
  188.9410  177.4490  145.3920 C   0  0  0  0  0  0  0  0  0  0  0  0
  189.0550  177.6330  147.8260 C   0  0  0  0  0  0  0  0  0  0  0  0
  186.8980  177.9910  144.0010 C   0  0  0  0  0  0  0  0  0  0  0  0
  184.2240  178.8330  143.6390 C   0  0  0  0  0  3  0  0  0  0  0  0
  188.3460  177.7570  146.6300 C   0  0  0  0  0  3  0  0  0  0  0  0
  188.3870  177.2940  141.7000 C   0  0  0  0  0  0  0  0  0  0  0  0
  184.0020  179.1230  146.0210 O   0  0  0  0  0  1  0  0  0  0  0  0
  190.9010  176.7030  144.2330 N   0  0  0  0  0  0  0  0  0  0  0  0
  188.4410  177.9450  149.0310 O   0  0  0  0  0  1  0  0  0  0  0  0
  187.0640  177.7170  141.5840 C   0  0  0  0  0  3  0  0  0  0  0  0
  188.9800  177.2160  142.9700 C   0  0  0  0  0  0  0  0  0  0  0  0
  186.0920  178.3550  145.0950 C   0  0  0  0  0  3  0  0  0  0  0  0
  190.3800  177.1990  147.8090 C   0  0  0  0  0  3  0  0  0  0  0  0
  186.3220  178.0620  142.7060 C   0  0  0  0  0  0  0  0  0  0  0  0
  184.9990  178.4790  142.5340 C   0  0  0  0  0  3  0  0  0  0  0  0
  190.2720  176.8020  143.0660 N   0  0  0  0  0  0  0  0  0  0  0  0
  190.2860  177.0090  145.3970 C   0  0  0  0  0  0  0  0  0  0  0  0
  190.9940  176.8870  146.5970 C   0  0  0  0  0  3  0  0  0  0  0  0
  188.8920  178.8910  139.2790 O   0  0  0  0  0  0  0  0  0  0  0  0
  189.3880  177.7360  139.3700 C   0  0  0  0  0  0  0  0  0  0  0  0
  189.1570  176.9360  140.5410 N   0  0  0  0  0  2  0  0  0  0  0  0
  191.7230  176.1640  136.1290 C   0  0  0  0  0  0  0  0  0  0  0  0
  189.6410  177.0340  136.9990 C   0  0  0  0  0  3  0  0  0  0  0  0
  192.1730  176.9550  139.6630 F   0  0  0  0  0  0  0  0  0  0  0  0
  192.4490  175.6690  135.0990 F   0  0  0  0  0  0  0  0  0  0  0  0
  190.3880  176.5240  135.9350 C   0  0  0  0  0  3  0  0  0  0  0  0
  191.5660  176.8240  138.4580 C   0  0  0  0  0  0  0  0  0  0  0  0
  190.2160  177.1910  138.2700 C   0  0  0  0  0  0  0  0  0  0  0  0
  192.3090  176.3140  137.3880 C   0  0  0  0  0  3  0  0  0  0  0  0
  1 14  1  0  0  0  0
  1  9  1  0  0  0  0
  2  3  1  0  0  0  0
  3 19  2  0  0  0  0
  3  7  1  0  0  0  0
  4 11  1  0  0  0  0
  5  2  1  0  0  0  0
  5 14  2  0  0  0  0
  6  1  2  0  0  0  0
  7  4  2  0  0  0  0
  8 13  1  0  0  0  0
 10 19  1  0  0  0  0
 12  8  2  0  0  0  0
 12 16  1  0  0  0  0
 13 18  1  0  0  0  0
 13  2  2  0  0  0  0
 15  4  1  0  0  0  0
 16  5  1  0  0  0  0
 17 16  2  0  0  0  0
 17  6  1  0  0  0  0
 18 10  2  0  0  0  0
 19 20  1  0  0  0  0
 20 15  2  0  0  0  0
 21 22  2  0  0  0  0
 22 23  1  0  0  0  0
 23  8  1  0  0  0  0
 24 31  1  0  0  0  0
 25 30  2  0  0  0  0
 27 24  1  0  0  0  0
 28 24  2  0  0  0  0
 28 25  1  0  0  0  0
 29 26  1  0  0  0  0
 30 29  1  0  0  0  0
 30 22  1  0  0  0  0
 31 29  2  0  0  0  0
M  END
>  <MODEL>
1

>  <REMARK>
 VINA RESULT:     -11.2      0.000      0.000
  Name = 
  2 active torsions:
  status: ('A' for Active; 'I' for Inactive)
    1  A    between atoms: C_5  and  C_30
    2  A    between atoms: C_10  and  N_16
                            x       y       z     vdW  Elec       q    Type
                         _______ _______ _______ _____ _____    ______ ____

>  <TORSDO>
F 2

$$$$
=
 OpenBabel11122411103D

 31 35  0  0  0  0  0  0  0  0999 V2000
  190.1550  177.1920  147.2280 C   0  0  0  0  0  0  0  0  0  0  0  0
  188.3840  177.4640  143.9130 C   0  0  0  0  0  0  0  0  0  0  0  0
  187.0720  177.9520  144.1830 C   0  0  0  0  0  0  0  0  0  0  0  0
  185.3180  178.7270  145.6980 C   0  0  0  0  0  0  0  0  0  0  0  0
  189.3820  177.2190  144.9080 C   0  0  0  0  0  0  0  0  0  0  0  0
  191.4010  176.7130  146.8220 C   0  0  0  0  0  3  0  0  0  0  0  0
  186.6120  178.2500  145.4790 C   0  0  0  0  0  3  0  0  0  0  0  0
  189.9830  176.7220  142.1910 C   0  0  0  0  0  0  0  0  0  0  0  0
  189.9050  177.4220  148.5740 O   0  0  0  0  0  1  0  0  0  0  0  0
  186.5740  177.8790  141.8400 N   0  0  0  0  0  0  0  0  0  0  0  0
  184.8930  179.0110  146.9890 O   0  0  0  0  0  1  0  0  0  0  0  0
  190.9380  176.4910  143.1790 C   0  0  0  0  0  3  0  0  0  0  0  0
  188.7150  177.2040  142.5520 C   0  0  0  0  0  0  0  0  0  0  0  0
  189.1610  177.4400  146.2810 C   0  0  0  0  0  3  0  0  0  0  0  0
  184.4530  178.9160  144.6220 C   0  0  0  0  0  3  0  0  0  0  0  0
  190.6560  176.7310  144.5170 C   0  0  0  0  0  0  0  0  0  0  0  0
  191.6490  176.4830  145.4690 C   0  0  0  0  0  3  0  0  0  0  0  0
  187.7940  177.4240  141.5760 N   0  0  0  0  0  0  0  0  0  0  0  0
  186.1790  178.1520  143.1040 C   0  0  0  0  0  0  0  0  0  0  0  0
  184.8830  178.6300  143.3260 C   0  0  0  0  0  3  0  0  0  0  0  0
  192.1660  177.8320  140.5560 O   0  0  0  0  0  0  0  0  0  0  0  0
  191.3470  177.0300  140.0300 C   0  0  0  0  0  0  0  0  0  0  0  0
  190.2730  176.4750  140.8050 N   0  0  0  0  0  2  0  0  0  0  0  0
  191.8290  175.9220  135.9110 C   0  0  0  0  0  0  0  0  0  0  0  0
  192.7440  176.2590  138.1230 C   0  0  0  0  0  3  0  0  0  0  0  0
  189.1540  177.0500  138.1220 F   0  0  0  0  0  0  0  0  0  0  0  0
  191.9930  175.5710  134.6130 F   0  0  0  0  0  0  0  0  0  0  0  0
  192.9150  175.8960  136.7860 C   0  0  0  0  0  3  0  0  0  0  0  0
  190.3910  176.6780  137.7120 C   0  0  0  0  0  0  0  0  0  0  0  0
  191.4860  176.6530  138.6040 C   0  0  0  0  0  0  0  0  0  0  0  0
  190.5700  176.3130  136.3740 C   0  0  0  0  0  3  0  0  0  0  0  0
  1  9  1  0  0  0  0
  2  3  1  0  0  0  0
  2  5  1  0  0  0  0
  3  7  2  0  0  0  0
  4 11  1  0  0  0  0
  5 14  1  0  0  0  0
  6  1  1  0  0  0  0
  7  4  1  0  0  0  0
  8 13  1  0  0  0  0
  8 12  2  0  0  0  0
 10 19  1  0  0  0  0
 12 16  1  0  0  0  0
 13  2  2  0  0  0  0
 14  1  2  0  0  0  0
 15  4  2  0  0  0  0
 16  5  2  0  0  0  0
 16 17  1  0  0  0  0
 17  6  2  0  0  0  0
 18 10  2  0  0  0  0
 18 13  1  0  0  0  0
 19 20  2  0  0  0  0
 19  3  1  0  0  0  0
 20 15  1  0  0  0  0
 22 21  2  0  0  0  0
 22 23  1  0  0  0  0
 23  8  1  0  0  0  0
 24 31  2  0  0  0  0
 24 28  1  0  0  0  0
 25 30  1  0  0  0  0
 27 24  1  0  0  0  0
 28 25  2  0  0  0  0
 29 26  1  0  0  0  0
 29 30  2  0  0  0  0
 30 22  1  0  0  0  0
 31 29  1  0  0  0  0
M  END
>  <MODEL>
2

>  <REMARK>
 VINA RESULT:     -10.8      1.479      4.147
  Name = 
  2 active torsions:
  status: ('A' for Active; 'I' for Inactive)
    1  A    between atoms: C_5  and  C_30
    2  A    between atoms: C_10  and  N_16
                            x       y       z     vdW  Elec       q    Type
                         _______ _______ _______ _____ _____    ______ ____

>  <TORSDO>
F 2

$$$$
=
 OpenBabel11122411103D

 31 35  0  0  0  0  0  0  0  0999 V2000
  186.8620  177.7590  145.9130 C   0  0  0  0  0  0  0  0  0  0  0  0
  187.0880  178.1880  142.1760 C   0  0  0  0  0  0  0  0  0  0  0  0
  188.4030  177.7900  141.7920 C   0  0  0  0  0  0  0  0  0  0  0  0
  190.6450  176.9540  142.2890 C   0  0  0  0  0  0  0  0  0  0  0  0
  186.5940  178.1760  143.5180 C   0  0  0  0  0  0  0  0  0  0  0  0
  185.5510  178.1760  146.1460 C   0  0  0  0  0  3  0  0  0  0  0  0
  189.3690  177.3340  142.7090 C   0  0  0  0  0  3  0  0  0  0  0  0
  184.9010  179.0390  141.4250 C   0  0  0  0  0  0  0  0  0  0  0  0
  187.6570  177.3430  146.9720 O   0  0  0  0  0  1  0  0  0  0  0  0
  187.8730  178.2810  139.5070 N   0  0  0  0  0  0  0  0  0  0  0  0
  191.5760  176.5100  143.2180 O   0  0  0  0  0  1  0  0  0  0  0  0
  184.4430  179.0180  142.7410 C   0  0  0  0  0  3  0  0  0  0  0  0
  186.2140  178.6280  141.1420 C   0  0  0  0  0  0  0  0  0  0  0  0
  187.3730  177.7610  144.6140 C   0  0  0  0  0  3  0  0  0  0  0  0
  190.9840  177.0210  140.9380 C   0  0  0  0  0  3  0  0  0  0  0  0
  185.2640  178.5960  143.7780 C   0  0  0  0  0  0  0  0  0  0  0  0
  184.7550  178.5940  145.0800 C   0  0  0  0  0  3  0  0  0  0  0  0
  186.6450  178.6550  139.8530 N   0  0  0  0  0  0  0  0  0  0  0  0
  188.7660  177.8500  140.4260 C   0  0  0  0  0  0  0  0  0  0  0  0
  190.0450  177.4680  140.0080 C   0  0  0  0  0  3  0  0  0  0  0  0
  182.6960  177.5790  140.1320 O   0  0  0  0  0  0  0  0  0  0  0  0
  182.9820  178.7410  139.7360 C   0  0  0  0  0  0  0  0  0  0  0  0
  184.0530  179.4750  140.3500 N   0  0  0  0  0  2  0  0  0  0  0  0
  180.7490  180.6110  136.5820 C   0  0  0  0  0  0  0  0  0  0  0  0
  181.7580  180.6820  138.7790 C   0  0  0  0  0  3  0  0  0  0  0  0
  182.3410  177.3940  137.2410 F   0  0  0  0  0  0  0  0  0  0  0  0
  180.0440  181.2110  135.5940 F   0  0  0  0  0  0  0  0  0  0  0  0
  181.0300  181.3030  137.7610 C   0  0  0  0  0  3  0  0  0  0  0  0
  181.9250  178.6690  137.4370 C   0  0  0  0  0  0  0  0  0  0  0  0
  182.2140  179.3620  138.6320 C   0  0  0  0  0  0  0  0  0  0  0  0
  181.1960  179.2970  136.4220 C   0  0  0  0  0  3  0  0  0  0  0  0
  1  6  1  0  0  0  0
  1  9  1  0  0  0  0
  2  5  1  0  0  0  0
  3  2  1  0  0  0  0
  3  7  2  0  0  0  0
  4  7  1  0  0  0  0
  4 11  1  0  0  0  0
  5 16  2  0  0  0  0
  5 14  1  0  0  0  0
  8 12  2  0  0  0  0
 10 18  2  0  0  0  0
 10 19  1  0  0  0  0
 12 16  1  0  0  0  0
 13  8  1  0  0  0  0
 13  2  2  0  0  0  0
 14  1  2  0  0  0  0
 15  4  2  0  0  0  0
 16 17  1  0  0  0  0
 17  6  2  0  0  0  0
 18 13  1  0  0  0  0
 19  3  1  0  0  0  0
 20 19  2  0  0  0  0
 20 15  1  0  0  0  0
 22 21  2  0  0  0  0
 22 23  1  0  0  0  0
 23  8  1  0  0  0  0
 24 28  1  0  0  0  0
 26 29  1  0  0  0  0
 27 24  1  0  0  0  0
 28 25  2  0  0  0  0
 29 30  2  0  0  0  0
 30 25  1  0  0  0  0
 30 22  1  0  0  0  0
 31 24  2  0  0  0  0
 31 29  1  0  0  0  0
M  END
>  <MODEL>
3

>  <REMARK>
 VINA RESULT:     -10.5      4.693      6.752
  Name = 
  2 active torsions:
  status: ('A' for Active; 'I' for Inactive)
    1  A    between atoms: C_5  and  C_30
    2  A    between atoms: C_10  and  N_16
                            x       y       z     vdW  Elec       q    Type
                         _______ _______ _______ _____ _____    ______ ____

>  <TORSDO>
F 2

$$$$
=
 OpenBabel11122411103D

 31 35  0  0  0  0  0  0  0  0999 V2000
  190.5120  176.9030  142.2880 C   0  0  0  0  0  0  0  0  0  0  0  0
  187.1590  178.1730  143.4470 C   0  0  0  0  0  0  0  0  0  0  0  0
  187.1430  178.0650  144.8690 C   0  0  0  0  0  0  0  0  0  0  0  0
  188.1680  177.4770  147.0080 C   0  0  0  0  0  0  0  0  0  0  0  0
  188.2570  177.7930  142.6140 C   0  0  0  0  0  0  0  0  0  0  0  0
  190.3910  177.0630  140.9080 C   0  0  0  0  0  3  0  0  0  0  0  0
  188.2260  177.5640  145.6160 C   0  0  0  0  0  3  0  0  0  0  0  0
  185.9150  178.8400  141.4270 C   0  0  0  0  0  0  0  0  0  0  0  0
  191.6810  176.3840  142.8270 O   0  0  0  0  0  1  0  0  0  0  0  0
  184.9220  178.9640  144.9030 N   0  0  0  0  0  0  0  0  0  0  0  0
  189.2530  176.9780  147.7160 O   0  0  0  0  0  1  0  0  0  0  0  0
  187.0000  178.4630  140.6360 C   0  0  0  0  0  3  0  0  0  0  0  0
  185.9920  178.6970  142.8210 C   0  0  0  0  0  0  0  0  0  0  0  0
  189.4560  177.2640  143.1270 C   0  0  0  0  0  3  0  0  0  0  0  0
  187.0220  177.8880  147.6850 C   0  0  0  0  0  3  0  0  0  0  0  0
  188.1550  177.9470  141.2070 C   0  0  0  0  0  0  0  0  0  0  0  0
  189.2140  177.5840  140.3690 C   0  0  0  0  0  3  0  0  0  0  0  0
  184.9250  179.0700  143.5780 N   0  0  0  0  0  0  0  0  0  0  0  0
  185.9890  178.4780  145.5760 C   0  0  0  0  0  0  0  0  0  0  0  0
  185.9340  178.3880  146.9700 C   0  0  0  0  0  3  0  0  0  0  0  0
  183.4710  177.4030  140.6350 O   0  0  0  0  0  0  0  0  0  0  0  0
  183.5360  178.6500  140.4610 C   0  0  0  0  0  0  0  0  0  0  0  0
  184.7180  179.3750  140.8380 N   0  0  0  0  0  2  0  0  0  0  0  0
  180.2770  180.7960  138.6750 C   0  0  0  0  0  0  0  0  0  0  0  0
  182.6070  180.1520  138.7120 C   0  0  0  0  0  3  0  0  0  0  0  0
  180.8350  178.5970  141.5330 F   0  0  0  0  0  0  0  0  0  0  0  0
  179.2560  181.4780  138.1020 F   0  0  0  0  0  0  0  0  0  0  0  0
  181.5560  180.8560  138.1200 C   0  0  0  0  0  3  0  0  0  0  0  0
  181.0970  179.3260  140.4200 C   0  0  0  0  0  0  0  0  0  0  0  0
  182.3950  179.3810  139.8650 C   0  0  0  0  0  0  0  0  0  0  0  0
  180.0500  180.0330  139.8220 C   0  0  0  0  0  3  0  0  0  0  0  0
  1  9  1  0  0  0  0
  1 14  1  0  0  0  0
  2  3  1  0  0  0  0
  3 19  2  0  0  0  0
  3  7  1  0  0  0  0
  4 15  1  0  0  0  0
  4 11  1  0  0  0  0
  5 14  2  0  0  0  0
  5  2  1  0  0  0  0
  6  1  2  0  0  0  0
  7  4  2  0  0  0  0
  8 13  1  0  0  0  0
 10 19  1  0  0  0  0
 12 16  1  0  0  0  0
 12  8  2  0  0  0  0
 13  2  2  0  0  0  0
 13 18  1  0  0  0  0
 16  5  1  0  0  0  0
 17  6  1  0  0  0  0
 17 16  2  0  0  0  0
 18 10  2  0  0  0  0
 19 20  1  0  0  0  0
 20 15  2  0  0  0  0
 22 21  2  0  0  0  0
 22 23  1  0  0  0  0
 23  8  1  0  0  0  0
 24 31  1  0  0  0  0
 25 30  2  0  0  0  0
 27 24  1  0  0  0  0
 28 24  2  0  0  0  0
 28 25  1  0  0  0  0
 29 26  1  0  0  0  0
 30 29  1  0  0  0  0
 30 22  1  0  0  0  0
 31 29  2  0  0  0  0
M  END
>  <MODEL>
4

>  <REMARK>
 VINA RESULT:     -10.0      4.687      6.989
  Name = 
  2 active torsions:
  status: ('A' for Active; 'I' for Inactive)
    1  A    between atoms: C_5  and  C_30
    2  A    between atoms: C_10  and  N_16
                            x       y       z     vdW  Elec       q    Type
                         _______ _______ _______ _____ _____    ______ ____

>  <TORSDO>
F 2

$$$$
=
 OpenBabel11122411103D

 31 35  0  0  0  0  0  0  0  0999 V2000
  190.9950  176.9380  146.2250 C   0  0  0  0  0  0  0  0  0  0  0  0
  188.9070  177.4550  143.1320 C   0  0  0  0  0  0  0  0  0  0  0  0
  189.8040  177.4660  142.0230 C   0  0  0  0  0  0  0  0  0  0  0  0
  192.0380  177.3220  141.0430 C   0  0  0  0  0  0  0  0  0  0  0  0
  189.3010  177.2830  144.4950 C   0  0  0  0  0  0  0  0  0  0  0  0
  190.0090  176.9480  147.2120 C   0  0  0  0  0  3  0  0  0  0  0  0
  191.1960  177.3050  142.1560 C   0  0  0  0  0  3  0  0  0  0  0  0
  186.5650  177.6330  143.8770 C   0  0  0  0  0  0  0  0  0  0  0  0
  192.3260  176.7630  146.5760 O   0  0  0  0  0  1  0  0  0  0  0  0
  187.9520  177.8050  140.5400 N   0  0  0  0  0  0  0  0  0  0  0  0
  193.4070  177.1610  141.2070 O   0  0  0  0  0  1  0  0  0  0  0  0
  186.9740  177.4640  145.1980 C   0  0  0  0  0  3  0  0  0  0  0  0
  187.5220  177.6300  142.8490 C   0  0  0  0  0  0  0  0  0  0  0  0
  190.6420  177.1040  144.8850 C   0  0  0  0  0  3  0  0  0  0  0  0
  191.5040  177.5010  139.7680 C   0  0  0  0  0  3  0  0  0  0  0  0
  188.3150  177.2910  145.5150 C   0  0  0  0  0  0  0  0  0  0  0  0
  188.6720  177.1250  146.8570 C   0  0  0  0  0  3  0  0  0  0  0  0
  187.1060  177.7970  141.5660 N   0  0  0  0  0  0  0  0  0  0  0  0
  189.2820  177.6460  140.7200 C   0  0  0  0  0  0  0  0  0  0  0  0
  190.1280  177.6620  139.6070 C   0  0  0  0  0  3  0  0  0  0  0  0
  184.9330  180.0740  144.1010 O   0  0  0  0  0  0  0  0  0  0  0  0
  184.4040  179.0160  143.6650 C   0  0  0  0  0  0  0  0  0  0  0  0
  185.1770  177.8120  143.5460 N   0  0  0  0  0  2  0  0  0  0  0  0
  180.2460  178.9850  142.6000 C   0  0  0  0  0  0  0  0  0  0  0  0
  181.9930  179.0030  144.2710 C   0  0  0  0  0  3  0  0  0  0  0  0
  183.4790  178.9990  140.9090 F   0  0  0  0  0  0  0  0  0  0  0  0
  178.9310  178.9750  142.2770 F   0  0  0  0  0  0  0  0  0  0  0  0
  180.6360  178.9930  143.9400 C   0  0  0  0  0  3  0  0  0  0  0  0
  182.5730  178.9970  141.9170 C   0  0  0  0  0  0  0  0  0  0  0  0
  182.9760  179.0050  143.2700 C   0  0  0  0  0  0  0  0  0  0  0  0
  181.2130  178.9870  141.5920 C   0  0  0  0  0  3  0  0  0  0  0  0
  1  9  1  0  0  0  0
  1  6  1  0  0  0  0
  2  5  1  0  0  0  0
  3  7  2  0  0  0  0
  3  2  1  0  0  0  0
  4 11  1  0  0  0  0
  4  7  1  0  0  0  0
  5 14  1  0  0  0  0
  5 16  2  0  0  0  0
  8 12  2  0  0  0  0
 10 19  1  0  0  0  0
 10 18  2  0  0  0  0
 12 16  1  0  0  0  0
 13  2  2  0  0  0  0
 13  8  1  0  0  0  0
 14  1  2  0  0  0  0
 15  4  2  0  0  0  0
 16 17  1  0  0  0  0
 17  6  2  0  0  0  0
 18 13  1  0  0  0  0
 19  3  1  0  0  0  0
 20 15  1  0  0  0  0
 20 19  2  0  0  0  0
 22 21  2  0  0  0  0
 23 22  1  0  0  0  0
 23  8  1  0  0  0  0
 24 28  1  0  0  0  0
 26 29  1  0  0  0  0
 27 24  1  0  0  0  0
 28 25  2  0  0  0  0
 29 30  2  0  0  0  0
 30 22  1  0  0  0  0
 30 25  1  0  0  0  0
 31 29  1  0  0  0  0
 31 24  2  0  0  0  0
M  END
>  <MODEL>
5

>  <REMARK>
 VINA RESULT:     -10.0      3.760      7.732
  Name = 
  2 active torsions:
  status: ('A' for Active; 'I' for Inactive)
    1  A    between atoms: C_5  and  C_30
    2  A    between atoms: C_10  and  N_16
                            x       y       z     vdW  Elec       q    Type
                         _______ _______ _______ _____ _____    ______ ____

>  <TORSDO>
F 2

$$$$
=
 OpenBabel11122411103D

 31 35  0  0  0  0  0  0  0  0999 V2000
  183.2490  178.9080  138.9340 C   0  0  0  0  0  0  0  0  0  0  0  0
  186.8990  178.2590  139.6060 C   0  0  0  0  0  0  0  0  0  0  0  0
  187.5390  178.1380  138.3370 C   0  0  0  0  0  0  0  0  0  0  0  0
  187.5210  178.1290  135.8940 C   0  0  0  0  0  0  0  0  0  0  0  0
  185.5040  178.5090  139.7930 C   0  0  0  0  0  0  0  0  0  0  0  0
  182.7550  179.0030  140.2350 C   0  0  0  0  0  3  0  0  0  0  0  0
  186.8540  178.2540  137.1140 C   0  0  0  0  0  3  0  0  0  0  0  0
  187.1750  178.2210  142.0550 C   0  0  0  0  0  0  0  0  0  0  0  0
  182.3910  179.0560  137.8530 O   0  0  0  0  0  1  0  0  0  0  0  0
  189.6340  177.7680  139.4410 N   0  0  0  0  0  0  0  0  0  0  0  0
  186.8160  178.2490  134.7040 O   0  0  0  0  0  1  0  0  0  0  0  0
  185.8110  178.4660  142.2100 C   0  0  0  0  0  3  0  0  0  0  0  0
  187.7170  178.1180  140.7640 C   0  0  0  0  0  0  0  0  0  0  0  0
  184.6060  178.6630  138.7190 C   0  0  0  0  0  3  0  0  0  0  0  0
  188.8920  177.8830  135.8710 C   0  0  0  0  0  3  0  0  0  0  0  0
  184.9800  178.6090  141.1080 C   0  0  0  0  0  0  0  0  0  0  0  0
  183.6200  178.8530  141.3190 C   0  0  0  0  0  3  0  0  0  0  0  0
  189.0490  177.8790  140.6300 N   0  0  0  0  0  0  0  0  0  0  0  0
  188.9320  177.8890  138.2930 C   0  0  0  0  0  0  0  0  0  0  0  0
  189.5970  177.7640  137.0690 C   0  0  0  0  0  3  0  0  0  0  0  0
  188.2530  175.7410  143.2190 O   0  0  0  0  0  0  0  0  0  0  0  0
  188.5510  176.8490  143.7430 C   0  0  0  0  0  0  0  0  0  0  0  0
  188.0380  178.0730  143.1950 N   0  0  0  0  0  2  0  0  0  0  0  0
  191.1750  176.9770  147.1370 C   0  0  0  0  0  0  0  0  0  0  0  0
  190.8150  176.7110  144.7610 C   0  0  0  0  0  3  0  0  0  0  0  0
  187.6070  177.3150  146.4520 F   0  0  0  0  0  0  0  0  0  0  0  0
  192.0140  177.0160  148.2000 F   0  0  0  0  0  0  0  0  0  0  0  0
  191.6800  176.7500  145.8560 C   0  0  0  0  0  3  0  0  0  0  0  0
  188.9310  177.1270  146.2300 C   0  0  0  0  0  0  0  0  0  0  0  0
  189.4340  176.8980  144.9310 C   0  0  0  0  0  0  0  0  0  0  0  0
  189.8040  177.1650  147.3220 C   0  0  0  0  0  3  0  0  0  0  0  0
  1  6  1  0  0  0  0
  2  5  2  0  0  0  0
  2 13  1  0  0  0  0
  3  2  1  0  0  0  0
  4  7  1  0  0  0  0
  5 16  1  0  0  0  0
  6 17  2  0  0  0  0
  7  3  2  0  0  0  0
  8 12  1  0  0  0  0
  8 23  1  0  0  0  0
  9  1  1  0  0  0  0
 10 18  2  0  0  0  0
 11  4  1  0  0  0  0
 13  8  2  0  0  0  0
 14  1  2  0  0  0  0
 14  5  1  0  0  0  0
 15  4  2  0  0  0  0
 15 20  1  0  0  0  0
 16 17  1  0  0  0  0
 16 12  2  0  0  0  0
 18 13  1  0  0  0  0
 19  3  1  0  0  0  0
 19 10  1  0  0  0  0
 20 19  2  0  0  0  0
 21 22  2  0  0  0  0
 22 30  1  0  0  0  0
 23 22  1  0  0  0  0
 24 31  1  0  0  0  0
 24 27  1  0  0  0  0
 25 30  2  0  0  0  0
 25 28  1  0  0  0  0
 28 24  2  0  0  0  0
 29 26  1  0  0  0  0
 29 31  2  0  0  0  0
 30 29  1  0  0  0  0
M  END
>  <MODEL>
6

>  <REMARK>
 VINA RESULT:      -9.9      3.636      7.727
  Name = 
  2 active torsions:
  status: ('A' for Active; 'I' for Inactive)
    1  A    between atoms: C_5  and  C_30
    2  A    between atoms: C_10  and  N_16
                            x       y       z     vdW  Elec       q    Type
                         _______ _______ _______ _____ _____    ______ ____

>  <TORSDO>
F 2

$$$$
=
 OpenBabel11122411103D

 31 35  0  0  0  0  0  0  0  0999 V2000
  187.4590  178.2070  136.6900 C   0  0  0  0  0  0  0  0  0  0  0  0
  185.5130  178.4610  139.9060 C   0  0  0  0  0  0  0  0  0  0  0  0
  184.1370  178.5740  139.5510 C   0  0  0  0  0  0  0  0  0  0  0  0
  182.3250  178.6920  137.9150 C   0  0  0  0  0  0  0  0  0  0  0  0
  186.5880  178.3420  138.9710 C   0  0  0  0  0  0  0  0  0  0  0  0
  188.7620  178.1040  137.1780 C   0  0  0  0  0  3  0  0  0  0  0  0
  183.6830  178.5800  138.2180 C   0  0  0  0  0  3  0  0  0  0  0  0
  187.1570  178.3630  141.7400 C   0  0  0  0  0  0  0  0  0  0  0  0
  187.2270  178.1920  135.3210 O   0  0  0  0  0  1  0  0  0  0  0  0
  183.5560  178.6850  141.8730 N   0  0  0  0  0  0  0  0  0  0  0  0
  181.9090  178.6960  136.5910 O   0  0  0  0  0  1  0  0  0  0  0  0
  188.1870  178.2480  140.8080 C   0  0  0  0  0  3  0  0  0  0  0  0
  185.8290  178.4690  141.2950 C   0  0  0  0  0  0  0  0  0  0  0  0
  186.3880  178.3250  137.5780 C   0  0  0  0  0  3  0  0  0  0  0  0
  181.3880  178.8020  138.9410 C   0  0  0  0  0  3  0  0  0  0  0  0
  187.9220  178.2370  139.4460 C   0  0  0  0  0  0  0  0  0  0  0  0
  188.9910  178.1190  138.5530 C   0  0  0  0  0  3  0  0  0  0  0  0
  184.8360  178.5800  142.2170 N   0  0  0  0  0  0  0  0  0  0  0  0
  183.1700  178.6850  140.5780 C   0  0  0  0  0  0  0  0  0  0  0  0
  181.8100  178.7970  140.2710 C   0  0  0  0  0  3  0  0  0  0  0  0
  187.8290  176.0910  143.4880 O   0  0  0  0  0  0  0  0  0  0  0  0
  187.7560  177.2490  143.9830 C   0  0  0  0  0  0  0  0  0  0  0  0
  187.4290  178.3740  143.1510 N   0  0  0  0  0  2  0  0  0  0  0  0
  188.4040  177.8900  148.1770 C   0  0  0  0  0  0  0  0  0  0  0  0
  186.9780  177.9840  146.2270 C   0  0  0  0  0  3  0  0  0  0  0  0
  190.2740  176.6440  145.3010 F   0  0  0  0  0  0  0  0  0  0  0  0
  188.5970  178.0960  149.5010 F   0  0  0  0  0  0  0  0  0  0  0  0
  187.1750  178.1980  147.5920 C   0  0  0  0  0  3  0  0  0  0  0  0
  189.2470  177.1520  146.0260 C   0  0  0  0  0  0  0  0  0  0  0  0
  188.0060  177.4600  145.4270 C   0  0  0  0  0  0  0  0  0  0  0  0
  189.4370  177.3680  147.3940 C   0  0  0  0  0  3  0  0  0  0  0  0
  1  6  2  0  0  0  0
  1 14  1  0  0  0  0
  2 13  1  0  0  0  0
  3  2  2  0  0  0  0
  3 19  1  0  0  0  0
  4  7  2  0  0  0  0
  4 15  1  0  0  0  0
  5 16  1  0  0  0  0
  5  2  1  0  0  0  0
  6 17  1  0  0  0  0
  7  3  1  0  0  0  0
  8 23  1  0  0  0  0
  9  1  1  0  0  0  0
 10 18  1  0  0  0  0
 11  4  1  0  0  0  0
 12  8  2  0  0  0  0
 13  8  1  0  0  0  0
 13 18  2  0  0  0  0
 14  5  2  0  0  0  0
 15 20  2  0  0  0  0
 16 12  1  0  0  0  0
 17 16  2  0  0  0  0
 19 10  2  0  0  0  0
 20 19  1  0  0  0  0
 21 22  2  0  0  0  0
 22 30  1  0  0  0  0
 23 22  1  0  0  0  0
 24 27  1  0  0  0  0
 25 28  2  0  0  0  0
 26 29  1  0  0  0  0
 28 24  1  0  0  0  0
 29 31  1  0  0  0  0
 30 29  2  0  0  0  0
 30 25  1  0  0  0  0
 31 24  2  0  0  0  0
M  END
>  <MODEL>
7

>  <REMARK>
 VINA RESULT:      -9.9      3.916      8.708
  Name = 
  2 active torsions:
  status: ('A' for Active; 'I' for Inactive)
    1  A    between atoms: C_5  and  C_30
    2  A    between atoms: C_10  and  N_16
                            x       y       z     vdW  Elec       q    Type
                         _______ _______ _______ _____ _____    ______ ____

>  <TORSDO>
F 2

$$$$
=
 OpenBabel11122411103D

 31 35  0  0  0  0  0  0  0  0999 V2000
  187.4310  178.2760  136.2460 C   0  0  0  0  0  0  0  0  0  0  0  0
  186.3160  178.3920  139.8430 C   0  0  0  0  0  0  0  0  0  0  0  0
  184.9050  178.5980  139.8340 C   0  0  0  0  0  0  0  0  0  0  0  0
  182.7710  178.9240  138.6880 C   0  0  0  0  0  0  0  0  0  0  0  0
  187.1310  178.2880  138.6730 C   0  0  0  0  0  0  0  0  0  0  0  0
  188.8020  178.0740  136.4020 C   0  0  0  0  0  3  0  0  0  0  0  0
  184.1520  178.7240  138.6510 C   0  0  0  0  0  3  0  0  0  0  0  0
  188.3340  178.0790  141.2230 C   0  0  0  0  0  0  0  0  0  0  0  0
  186.8840  178.3730  134.9740 O   0  0  0  0  0  1  0  0  0  0  0  0
  184.8950  178.5690  142.2300 N   0  0  0  0  0  0  0  0  0  0  0  0
  182.0570  179.0450  137.5040 O   0  0  0  0  0  1  0  0  0  0  0  0
  189.1070  177.9810  140.0670 C   0  0  0  0  0  3  0  0  0  0  0  0
  186.9490  178.2830  141.1150 C   0  0  0  0  0  0  0  0  0  0  0  0
  186.6090  178.3820  137.3690 C   0  0  0  0  0  3  0  0  0  0  0  0
  182.1110  179.0060  139.9130 C   0  0  0  0  0  3  0  0  0  0  0  0
  188.5290  178.0830  138.8090 C   0  0  0  0  0  0  0  0  0  0  0  0
  189.3490  177.9780  137.6820 C   0  0  0  0  0  3  0  0  0  0  0  0
  186.2100  178.3760  142.2520 N   0  0  0  0  0  0  0  0  0  0  0  0
  184.2150  178.6820  141.0670 C   0  0  0  0  0  0  0  0  0  0  0  0
  182.8320  178.8840  141.1010 C   0  0  0  0  0  3  0  0  0  0  0  0
  188.4200  175.7400  143.0090 O   0  0  0  0  0  0  0  0  0  0  0  0
  188.9590  176.8180  143.3790 C   0  0  0  0  0  0  0  0  0  0  0  0
  188.9310  177.9740  142.5260 N   0  0  0  0  0  2  0  0  0  0  0  0
  190.9680  177.0520  147.1640 C   0  0  0  0  0  0  0  0  0  0  0  0
  191.0190  176.7380  144.7670 C   0  0  0  0  0  3  0  0  0  0  0  0
  187.5630  177.3140  145.8790 F   0  0  0  0  0  0  0  0  0  0  0  0
  191.6130  177.1240  148.3530 F   0  0  0  0  0  0  0  0  0  0  0  0
  191.6860  176.8110  145.9920 C   0  0  0  0  0  3  0  0  0  0  0  0
  188.9080  177.1470  145.8880 C   0  0  0  0  0  0  0  0  0  0  0  0
  189.6270  176.9040  144.6970 C   0  0  0  0  0  0  0  0  0  0  0  0
  189.5820  177.2190  147.1110 C   0  0  0  0  0  3  0  0  0  0  0  0
  1  6  2  0  0  0  0
  1 14  1  0  0  0  0
  2 13  1  0  0  0  0
  3  2  2  0  0  0  0
  3 19  1  0  0  0  0
  4 15  1  0  0  0  0
  5 16  1  0  0  0  0
  5  2  1  0  0  0  0
  6 17  1  0  0  0  0
  7  4  2  0  0  0  0
  7  3  1  0  0  0  0
  8 23  1  0  0  0  0
  9  1  1  0  0  0  0
 10 18  1  0  0  0  0
 11  4  1  0  0  0  0
 12  8  2  0  0  0  0
 13  8  1  0  0  0  0
 13 18  2  0  0  0  0
 14  5  2  0  0  0  0
 15 20  2  0  0  0  0
 16 12  1  0  0  0  0
 17 16  2  0  0  0  0
 19 20  1  0  0  0  0
 19 10  2  0  0  0  0
 21 22  2  0  0  0  0
 22 30  1  0  0  0  0
 23 22  1  0  0  0  0
 24 27  1  0  0  0  0
 25 28  1  0  0  0  0
 26 29  1  0  0  0  0
 28 24  2  0  0  0  0
 29 31  2  0  0  0  0
 30 25  2  0  0  0  0
 30 29  1  0  0  0  0
 31 24  1  0  0  0  0
M  END
>  <MODEL>
8

>  <REMARK>
 VINA RESULT:      -9.8      3.655      8.121
  Name = 
  2 active torsions:
  status: ('A' for Active; 'I' for Inactive)
    1  A    between atoms: C_5  and  C_30
    2  A    between atoms: C_10  and  N_16
                            x       y       z     vdW  Elec       q    Type
                         _______ _______ _______ _____ _____    ______ ____

>  <TORSDO>
F 2

$$$$
=
 OpenBabel11122411103D

 31 35  0  0  0  0  0  0  0  0999 V2000
  185.5110  178.2510  146.4340 C   0  0  0  0  0  0  0  0  0  0  0  0
  185.7330  178.3380  142.6730 C   0  0  0  0  0  0  0  0  0  0  0  0
  184.4200  178.6090  142.1870 C   0  0  0  0  0  0  0  0  0  0  0  0
  182.0410  179.0610  142.5100 C   0  0  0  0  0  0  0  0  0  0  0  0
  186.0810  178.2220  144.0560 C   0  0  0  0  0  0  0  0  0  0  0  0
  186.8380  177.9810  146.7690 C   0  0  0  0  0  3  0  0  0  0  0  0
  183.3090  178.7960  143.0300 C   0  0  0  0  0  3  0  0  0  0  0  0
  188.0870  177.9000  142.0910 C   0  0  0  0  0  0  0  0  0  0  0  0
  184.5600  178.4010  147.4330 O   0  0  0  0  0  1  0  0  0  0  0  0
  185.2470  178.5260  139.9390 N   0  0  0  0  0  0  0  0  0  0  0  0
  180.9640  179.2390  143.3680 O   0  0  0  0  0  1  0  0  0  0  0  0
  188.4010  177.7930  143.4440 C   0  0  0  0  0  3  0  0  0  0  0  0
  186.7640  178.1710  141.7050 C   0  0  0  0  0  0  0  0  0  0  0  0
  185.1410  178.3680  145.0930 C   0  0  0  0  0  3  0  0  0  0  0  0
  181.8550  179.1440  141.1310 C   0  0  0  0  0  3  0  0  0  0  0  0
  187.4250  177.9480  144.4190 C   0  0  0  0  0  0  0  0  0  0  0  0
  187.7920  177.8300  145.7630 C   0  0  0  0  0  3  0  0  0  0  0  0
  186.4760  178.2730  140.3800 N   0  0  0  0  0  0  0  0  0  0  0  0
  184.2110  178.6990  140.7900 C   0  0  0  0  0  0  0  0  0  0  0  0
  182.9400  178.9640  140.2730 C   0  0  0  0  0  3  0  0  0  0  0  0
  190.2400  175.8960  141.9600 O   0  0  0  0  0  0  0  0  0  0  0  0
  190.1370  176.7510  141.0390 C   0  0  0  0  0  0  0  0  0  0  0  0
  189.0960  177.7400  141.0790 N   0  0  0  0  0  2  0  0  0  0  0  0
  192.9590  176.7570  137.8060 C   0  0  0  0  0  0  0  0  0  0  0  0
  192.4210  177.1300  140.1330 C   0  0  0  0  0  3  0  0  0  0  0  0
  189.4320  175.9810  138.3270 F   0  0  0  0  0  0  0  0  0  0  0  0
  193.8590  176.7630  136.7930 F   0  0  0  0  0  0  0  0  0  0  0  0
  193.3500  177.1360  139.0910 C   0  0  0  0  0  3  0  0  0  0  0  0
  190.7030  176.3620  138.6030 C   0  0  0  0  0  0  0  0  0  0  0  0
  191.0900  176.7440  139.9060 C   0  0  0  0  0  0  0  0  0  0  0  0
  191.6390  176.3710  137.5640 C   0  0  0  0  0  3  0  0  0  0  0  0
  1  6  1  0  0  0  0
  1  9  1  0  0  0  0
  2  5  1  0  0  0  0
  3  2  1  0  0  0  0
  3  7  2  0  0  0  0
  4  7  1  0  0  0  0
  4 11  1  0  0  0  0
  5 16  2  0  0  0  0
  5 14  1  0  0  0  0
  8 12  2  0  0  0  0
 10 18  2  0  0  0  0
 10 19  1  0  0  0  0
 12 16  1  0  0  0  0
 13  8  1  0  0  0  0
 13  2  2  0  0  0  0
 14  1  2  0  0  0  0
 15  4  2  0  0  0  0
 16 17  1  0  0  0  0
 17  6  2  0  0  0  0
 18 13  1  0  0  0  0
 19  3  1  0  0  0  0
 20 19  2  0  0  0  0
 20 15  1  0  0  0  0
 22 23  1  0  0  0  0
 22 21  2  0  0  0  0
 23  8  1  0  0  0  0
 24 28  1  0  0  0  0
 26 29  1  0  0  0  0
 27 24  1  0  0  0  0
 28 25  2  0  0  0  0
 29 30  2  0  0  0  0
 30 25  1  0  0  0  0
 30 22  1  0  0  0  0
 31 24  2  0  0  0  0
 31 29  1  0  0  0  0
M  END
>  <MODEL>
9

>  <REMARK>
 VINA RESULT:      -9.8      2.119      4.969
  Name = 
  2 active torsions:
  status: ('A' for Active; 'I' for Inactive)
    1  A    between atoms: C_5  and  C_30
    2  A    between atoms: C_10  and  N_16
                            x       y       z     vdW  Elec       q    Type
                         _______ _______ _______ _____ _____    ______ ____

>  <TORSDO>
F 2

$$$$
