=
 OpenBabel11122411383D

 37 42  0  0  1  0  0  0  0  0999 V2000
  188.9340  177.7660  147.7150 C   0  0  0  0  0  0  0  0  0  0  0  0
  189.5440  177.1900  143.6350 C   0  0  0  0  0  0  0  0  0  0  0  0
  187.1750  179.0280  141.1770 C   0  0  0  0  0  2  0  0  0  0  0  0
  190.5480  176.8930  145.9190 C   0  0  2  0  0  3  0  0  0  0  0  0
  188.4330  177.8390  142.9990 N   0  0  0  0  0  0  0  0  0  0  0  0
  189.5750  177.4690  144.9280 C   0  0  0  0  0  0  0  0  0  0  0  0
  188.0320  177.7940  141.5740 C   0  0  2  0  0  3  0  0  0  0  0  0
  191.1580  175.5930  145.3930 C   0  0  0  0  0  2  0  0  0  0  0  0
  188.5340  178.4580  145.2950 C   0  0  2  0  0  3  0  0  0  0  0  0
  189.7640  178.9930  148.0590 C   0  0  0  0  0  1  0  0  0  0  0  0
  190.9070  176.4420  141.6750 C   0  0  0  0  0  2  0  0  0  0  0  0
  191.5980  175.7620  143.9410 C   0  0  0  0  0  2  0  0  0  0  0  0
  187.8880  178.1000  146.6420 C   0  0  0  0  0  2  0  0  0  0  0  0
  185.3010  178.0950  142.0440 C   0  0  1  0  0  3  0  0  0  0  0  0
  186.0570  179.2740  141.9980 O   0  0  0  0  0  0  0  0  0  0  0  0
  190.3940  176.0840  143.0480 C   0  0  1  0  0  3  0  0  0  0  0  0
  187.6090  178.4370  144.0590 C   0  0  2  0  0  3  0  0  0  0  0  0
  189.8400  176.6140  147.2500 C   0  0  0  0  0  2  0  0  0  0  0  0
  189.2320  177.6590  140.6110 C   0  0  1  0  0  3  0  0  0  0  0  0
  188.2070  177.3200  148.9650 C   0  0  0  0  0  1  0  0  0  0  0  0
  185.3380  177.4890  143.4220 C   0  0  0  0  0  3  0  0  0  0  0  0
  186.3550  177.6140  144.2910 C   0  0  0  0  0  3  0  0  0  0  0  0
  189.8230  176.3380  140.7220 N   0  0  0  0  0  2  0  0  0  0  0  0
  189.3580  179.0310  138.5180 C   0  0  0  0  0  3  0  0  0  0  0  0
  188.8660  177.8960  139.1720 C   0  0  0  0  0  0  0  0  0  0  0  0
  188.0380  176.9980  138.4810 C   0  0  0  0  0  3  0  0  0  0  0  0
  186.8230  176.2900  136.4170 C   0  0  0  0  0  1  0  0  0  0  0  0
  188.1950  178.3750  136.4970 C   0  0  0  0  0  3  0  0  0  0  0  0
  187.7030  177.2390  137.1450 C   0  0  0  0  0  0  0  0  0  0  0  0
  189.0230  179.2700  137.1810 C   0  0  0  0  0  3  0  0  0  0  0  0
  183.8980  178.3560  141.6160 C   0  0  0  0  0  0  0  0  0  0  0  0
  183.5780  178.3310  140.2240 N   0  0  0  0  0  2  0  0  0  0  0  0
  183.0070  178.6050  142.4740 O   0  0  0  0  0  0  0  0  0  0  0  0
  181.8040  177.4090  138.8200 C   0  0  0  0  0  1  0  0  0  0  0  0
  182.2300  178.5560  139.7200 C   0  0  2  0  0  3  0  0  0  0  0  0
  183.4330  180.4550  138.8650 O   0  0  0  0  0  1  0  0  0  0  0  0
  182.1660  179.8780  138.9660 C   0  0  0  0  0  2  0  0  0  0  0  0
  1 10  1  0  0  0  0
  1 20  1  0  0  0  0
  2  6  2  0  0  0  0
  3 15  1  0  0  0  0
  4  8  1  6  0  0  0
  4 18  1  0  0  0  0
  5  2  1  0  0  0  0
  5 17  1  0  0  0  0
  6  9  1  0  0  0  0
  6  4  1  0  0  0  0
  7  3  1  6  0  0  0
  7  5  1  0  0  0  0
  9 13  1  1  0  0  0
 12  8  1  0  0  0  0
 13  1  1  0  0  0  0
 14 31  1  1  0  0  0
 14 21  1  0  0  0  0
 15 14  1  0  0  0  0
 16 11  1  6  0  0  0
 16  2  1  0  0  0  0
 16 12  1  0  0  0  0
 17 22  1  1  0  0  0
 17  9  1  0  0  0  0
 18  1  1  0  0  0  0
 19 25  1  6  0  0  0
 19 23  1  0  0  0  0
 19  7  1  0  0  0  0
 21 22  2  0  0  0  0
 23 11  1  0  0  0  0
 24 25  1  0  0  0  0
 26 25  2  0  0  0  0
 27 29  1  0  0  0  0
 28 29  2  0  0  0  0
 28 30  1  0  0  0  0
 29 26  1  0  0  0  0
 30 24  2  0  0  0  0
 31 33  2  0  0  0  0
 32 31  1  0  0  0  0
 35 34  1  6  0  0  0
 35 32  1  0  0  0  0
 36 37  1  0  0  0  0
 37 35  1  0  0  0  0
M  END
>  <MODEL>
1

>  <REMARK>
 VINA RESULT:      -7.5      0.000      0.000
  Name = 
  4 active torsions:
  status: ('A' for Active; 'I' for Inactive)
    1  A    between atoms: CA_4  and  N_12
    2  A    between atoms: CA_4  and  C_37
    3  A    between atoms: C_8  and  C_18
    4  A    between atoms: C_23  and  C_30
                            x       y       z     vdW  Elec       q    Type
                         _______ _______ _______ _____ _____    ______ ____

>  <TORSDO>
F 4

$$$$
=
 OpenBabel11122411383D

 37 42  0  0  1  0  0  0  0  0999 V2000
  190.1950  176.8070  147.2250 C   0  0  0  0  0  0  0  0  0  0  0  0
  186.8450  178.1850  145.1670 C   0  0  0  0  0  0  0  0  0  0  0  0
  186.5740  177.3500  141.3910 C   0  0  0  0  0  2  0  0  0  0  0  0
  187.8350  177.7960  147.4430 C   0  0  2  0  0  3  0  0  0  0  0  0
  187.1060  177.8820  143.7890 N   0  0  0  0  0  0  0  0  0  0  0  0
  187.7480  177.6210  145.9520 C   0  0  0  0  0  0  0  0  0  0  0  0
  186.3470  178.3100  142.5910 C   0  0  2  0  0  3  0  0  0  0  0  0
  187.1110  179.0670  147.8870 C   0  0  0  0  0  2  0  0  0  0  0  0
  188.6690  176.7520  145.1840 C   0  0  2  0  0  3  0  0  0  0  0  0
  189.8060  175.4190  147.7070 C   0  0  0  0  0  1  0  0  0  0  0  0
  184.5310  179.1310  145.0680 C   0  0  0  0  0  2  0  0  0  0  0  0
  185.7450  179.1640  147.2130 C   0  0  0  0  0  2  0  0  0  0  0  0
  190.1110  176.8940  145.6940 C   0  0  0  0  0  2  0  0  0  0  0  0
  188.5410  178.3470  140.8720 C   0  0  1  0  0  3  0  0  0  0  0  0
  187.9220  177.1050  141.0620 O   0  0  0  0  0  0  0  0  0  0  0  0
  185.9010  179.2460  145.6900 C   0  0  1  0  0  3  0  0  0  0  0  0
  188.4060  177.1980  143.7290 C   0  0  2  0  0  3  0  0  0  0  0  0
  189.3030  177.8760  147.8780 C   0  0  0  0  0  2  0  0  0  0  0  0
  184.8340  178.4670  142.8570 C   0  0  1  0  0  3  0  0  0  0  0  0
  191.6270  177.0680  147.6380 C   0  0  0  0  0  1  0  0  0  0  0  0
  189.5520  178.6130  141.9550 C   0  0  0  0  0  3  0  0  0  0  0  0
  189.4800  178.1350  143.2090 C   0  0  0  0  0  3  0  0  0  0  0  0
  184.5860  179.6180  143.7060 N   0  0  0  0  0  2  0  0  0  0  0  0
  184.6040  179.2390  140.4850 C   0  0  0  0  0  3  0  0  0  0  0  0
  184.0250  178.6220  141.6000 C   0  0  0  0  0  0  0  0  0  0  0  0
  182.7020  178.1620  141.5310 C   0  0  0  0  0  3  0  0  0  0  0  0
  180.5600  177.8380  140.2870 C   0  0  0  0  0  1  0  0  0  0  0  0
  182.5450  178.9400  139.2450 C   0  0  0  0  0  3  0  0  0  0  0  0
  181.9630  178.3220  140.3550 C   0  0  0  0  0  0  0  0  0  0  0  0
  183.8640  179.3970  139.3080 C   0  0  0  0  0  3  0  0  0  0  0  0
  189.1740  178.4160  139.5250 C   0  0  0  0  0  0  0  0  0  0  0  0
  189.8950  177.2850  139.0340 N   0  0  0  0  0  2  0  0  0  0  0  0
  189.0820  179.4670  138.8320 O   0  0  0  0  0  0  0  0  0  0  0  0
  189.5070  176.9230  136.6490 C   0  0  0  0  0  1  0  0  0  0  0  0
  190.5280  177.2610  137.7230 C   0  0  2  0  0  3  0  0  0  0  0  0
  191.2670  175.0400  138.2760 O   0  0  0  0  0  1  0  0  0  0  0  0
  191.6690  176.2520  137.7090 C   0  0  0  0  0  2  0  0  0  0  0  0
  1 20  1  0  0  0  0
  1 10  1  0  0  0  0
  1 18  1  0  0  0  0
  2 16  1  0  0  0  0
  2  6  2  0  0  0  0
  4 18  1  6  0  0  0
  4  8  1  0  0  0  0
  5  2  1  0  0  0  0
  6  4  1  0  0  0  0
  7  3  1  6  0  0  0
  7 19  1  0  0  0  0
  7  5  1  0  0  0  0
  9 13  1  1  0  0  0
  9  6  1  0  0  0  0
 12  8  1  0  0  0  0
 13  1  1  0  0  0  0
 14 31  1  6  0  0  0
 14 15  1  0  0  0  0
 14 21  1  0  0  0  0
 15  3  1  0  0  0  0
 16 11  1  6  0  0  0
 16 12  1  0  0  0  0
 17 22  1  1  0  0  0
 17  5  1  0  0  0  0
 17  9  1  0  0  0  0
 19 25  1  6  0  0  0
 19 23  1  0  0  0  0
 21 22  2  0  0  0  0
 23 11  1  0  0  0  0
 24 25  1  0  0  0  0
 26 25  2  0  0  0  0
 27 29  1  0  0  0  0
 28 30  1  0  0  0  0
 28 29  2  0  0  0  0
 29 26  1  0  0  0  0
 30 24  2  0  0  0  0
 32 31  1  0  0  0  0
 33 31  2  0  0  0  0
 35 34  1  6  0  0  0
 35 32  1  0  0  0  0
 37 35  1  0  0  0  0
 37 36  1  0  0  0  0
M  END
>  <MODEL>
2

>  <REMARK>
 VINA RESULT:      -7.4      2.224      5.503
  Name = 
  4 active torsions:
  status: ('A' for Active; 'I' for Inactive)
    1  A    between atoms: CA_4  and  N_12
    2  A    between atoms: CA_4  and  C_37
    3  A    between atoms: C_8  and  C_18
    4  A    between atoms: C_23  and  C_30
                            x       y       z     vdW  Elec       q    Type
                         _______ _______ _______ _____ _____    ______ ____

>  <TORSDO>
F 4

$$$$
=
 OpenBabel11122411383D

 37 42  0  0  1  0  0  0  0  0999 V2000
  181.5700  179.9540  138.3850 C   0  0  0  0  0  0  0  0  0  0  0  0
  184.5260  178.7510  141.0620 C   0  0  0  0  0  0  0  0  0  0  0  0
  188.1660  178.5110  139.7480 C   0  0  0  0  0  2  0  0  0  0  0  0
  182.1590  179.5660  140.8550 C   0  0  2  0  0  3  0  0  0  0  0  0
  185.7070  178.5900  140.2630 N   0  0  0  0  0  0  0  0  0  0  0  0
  183.5590  179.3220  140.3630 C   0  0  0  0  0  0  0  0  0  0  0  0
  187.0090  178.0000  140.6510 C   0  0  2  0  0  3  0  0  0  0  0  0
  181.8250  178.6470  142.0300 C   0  0  0  0  0  2  0  0  0  0  0  0
  184.0290  179.7310  139.0190 C   0  0  2  0  0  3  0  0  0  0  0  0
  181.5540  181.4710  138.4860 C   0  0  0  0  0  1  0  0  0  0  0  0
  185.3880  178.3030  143.3680 C   0  0  0  0  0  2  0  0  0  0  0  0
  182.9680  178.6390  143.0400 C   0  0  0  0  0  2  0  0  0  0  0  0
  182.9570  179.4530  137.9550 C   0  0  0  0  0  2  0  0  0  0  0  0
  187.6410  177.0320  138.1140 C   0  0  1  0  0  3  0  0  0  0  0  0
  187.9540  178.3750  138.3610 O   0  0  0  0  0  0  0  0  0  0  0  0
  184.2500  178.0960  142.3990 C   0  0  1  0  0  3  0  0  0  0  0  0
  185.3550  178.9510  138.8820 C   0  0  2  0  0  3  0  0  0  0  0  0
  181.1550  179.3190  139.7230 C   0  0  0  0  0  2  0  0  0  0  0  0
  187.3620  178.2330  142.1350 C   0  0  1  0  0  3  0  0  0  0  0  0
  180.5670  179.5390  137.3310 C   0  0  0  0  0  1  0  0  0  0  0  0
  186.2100  176.8880  137.6680 C   0  0  0  0  0  3  0  0  0  0  0  0
  185.2070  177.7080  138.0250 C   0  0  0  0  0  3  0  0  0  0  0  0
  186.4930  177.4470  142.9920 N   0  0  0  0  0  2  0  0  0  0  0  0
  189.3040  176.6510  142.0740 C   0  0  0  0  0  3  0  0  0  0  0  0
  188.7880  177.8920  142.4660 C   0  0  0  0  0  0  0  0  0  0  0  0
  189.6040  178.7960  143.1620 C   0  0  0  0  0  3  0  0  0  0  0  0
  191.7870  179.4160  144.2070 C   0  0  0  0  0  1  0  0  0  0  0  0
  191.4360  177.2160  143.0750 C   0  0  0  0  0  3  0  0  0  0  0  0
  190.9260  178.4580  143.4660 C   0  0  0  0  0  0  0  0  0  0  0  0
  190.6270  176.3140  142.3790 C   0  0  0  0  0  3  0  0  0  0  0  0
  188.5730  176.4560  137.1040 C   0  0  0  0  0  0  0  0  0  0  0  0
  189.0140  175.1050  137.2520 N   0  0  0  0  0  2  0  0  0  0  0  0
  188.9750  177.1580  136.1350 O   0  0  0  0  0  0  0  0  0  0  0  0
  189.2590  173.2090  135.7310 C   0  0  0  0  0  1  0  0  0  0  0  0
  189.9080  174.4580  136.3020 C   0  0  2  0  0  3  0  0  0  0  0  0
  191.3300  174.7350  138.2230 O   0  0  0  0  0  1  0  0  0  0  0  0
  191.2280  174.1110  136.9780 C   0  0  0  0  0  2  0  0  0  0  0  0
  1 10  1  0  0  0  0
  1 18  1  0  0  0  0
  2 16  1  0  0  0  0
  4 18  1  6  0  0  0
  4  8  1  0  0  0  0
  5  7  1  0  0  0  0
  5  2  1  0  0  0  0
  6  4  1  0  0  0  0
  6  2  2  0  0  0  0
  7  3  1  6  0  0  0
  7 19  1  0  0  0  0
  8 12  1  0  0  0  0
  9 13  1  6  0  0  0
  9  6  1  0  0  0  0
 13  1  1  0  0  0  0
 14 31  1  6  0  0  0
 14 15  1  0  0  0  0
 15  3  1  0  0  0  0
 16 12  1  1  0  0  0
 16 11  1  0  0  0  0
 17 22  1  6  0  0  0
 17  9  1  0  0  0  0
 17  5  1  0  0  0  0
 19 25  1  6  0  0  0
 19 23  1  0  0  0  0
 20  1  1  0  0  0  0
 21 22  2  0  0  0  0
 21 14  1  0  0  0  0
 23 11  1  0  0  0  0
 24 30  2  0  0  0  0
 24 25  1  0  0  0  0
 25 26  2  0  0  0  0
 26 29  1  0  0  0  0
 28 29  2  0  0  0  0
 29 27  1  0  0  0  0
 30 28  1  0  0  0  0
 31 32  1  0  0  0  0
 33 31  2  0  0  0  0
 35 34  1  1  0  0  0
 35 37  1  0  0  0  0
 35 32  1  0  0  0  0
 37 36  1  0  0  0  0
M  END
>  <MODEL>
3

>  <REMARK>
 VINA RESULT:      -7.3      2.825      7.929
  Name = 
  4 active torsions:
  status: ('A' for Active; 'I' for Inactive)
    1  A    between atoms: CA_4  and  N_12
    2  A    between atoms: CA_4  and  C_37
    3  A    between atoms: C_8  and  C_18
    4  A    between atoms: C_23  and  C_30
                            x       y       z     vdW  Elec       q    Type
                         _______ _______ _______ _____ _____    ______ ____

>  <TORSDO>
F 4

$$$$
=
 OpenBabel11122411383D

 37 42  0  0  1  0  0  0  0  0999 V2000
  189.6580  176.5200  136.8990 C   0  0  0  0  0  0  0  0  0  0  0  0
  190.4910  177.1280  140.9340 C   0  0  0  0  0  0  0  0  0  0  0  0
  187.5280  176.9980  143.4310 C   0  0  0  0  0  2  0  0  0  0  0  0
  191.4990  176.6410  138.6850 C   0  0  2  0  0  3  0  0  0  0  0  0
  189.2070  177.1970  141.5720 N   0  0  0  0  0  0  0  0  0  0  0  0
  190.3710  176.7400  139.6750 C   0  0  0  0  0  0  0  0  0  0  0  0
  188.8900  177.5830  142.9660 C   0  0  2  0  0  3  0  0  0  0  0  0
  192.6840  177.5040  139.1190 C   0  0  0  0  0  2  0  0  0  0  0  0
  188.9730  176.3780  139.3490 C   0  0  2  0  0  3  0  0  0  0  0  0
  189.7510  175.0150  136.7090 C   0  0  0  0  0  1  0  0  0  0  0  0
  192.0540  177.2850  142.8830 C   0  0  0  0  0  2  0  0  0  0  0  0
  192.9840  177.2880  140.5990 C   0  0  0  0  0  2  0  0  0  0  0  0
  188.5910  176.8710  137.9450 C   0  0  0  0  0  2  0  0  0  0  0  0
  186.3800  178.6520  142.3920 C   0  0  1  0  0  3  0  0  0  0  0  0
  186.4360  177.2650  142.5820 O   0  0  0  0  0  0  0  0  0  0  0  0
  191.7870  177.7090  141.4590 C   0  0  1  0  0  3  0  0  0  0  0  0
  188.1890  176.9890  140.5320 C   0  0  2  0  0  3  0  0  0  0  0  0
  191.0240  177.1000  137.3010 C   0  0  0  0  0  2  0  0  0  0  0  0
  189.9970  177.1950  143.9700 C   0  0  1  0  0  3  0  0  0  0  0  0
  189.2500  177.1400  135.5790 C   0  0  0  0  0  1  0  0  0  0  0  0
  186.7130  179.0120  140.9680 C   0  0  0  0  0  3  0  0  0  0  0  0
  187.5240  178.3020  140.1650 C   0  0  0  0  0  3  0  0  0  0  0  0
  191.1750  178.0190  143.7680 N   0  0  0  0  0  2  0  0  0  0  0  0
  190.4560  176.9580  146.4210 C   0  0  0  0  0  3  0  0  0  0  0  0
  189.5670  177.3240  145.4040 C   0  0  0  0  0  0  0  0  0  0  0  0
  188.2910  177.8030  145.7350 C   0  0  0  0  0  3  0  0  0  0  0  0
  186.5530  178.4130  147.4230 C   0  0  0  0  0  1  0  0  0  0  0  0
  188.7980  177.5410  148.0870 C   0  0  0  0  0  3  0  0  0  0  0  0
  187.9070  177.9100  147.0750 C   0  0  0  0  0  0  0  0  0  0  0  0
  190.0710  177.0660  147.7610 C   0  0  0  0  0  3  0  0  0  0  0  0
  185.0390  179.1790  142.7740 C   0  0  0  0  0  0  0  0  0  0  0  0
  183.8700  178.6010  142.1910 N   0  0  0  0  0  2  0  0  0  0  0  0
  184.9420  180.1320  143.5960 O   0  0  0  0  0  0  0  0  0  0  0  0
  182.1630  178.6270  143.9390 C   0  0  0  0  0  1  0  0  0  0  0  0
  182.5230  179.0430  142.5220 C   0  0  2  0  0  3  0  0  0  0  0  0
  182.1810  177.8550  140.4590 O   0  0  0  0  0  1  0  0  0  0  0  0
  181.5230  178.4680  141.5280 C   0  0  0  0  0  2  0  0  0  0  0  0
  1 18  1  0  0  0  0
  1 13  1  0  0  0  0
  2 16  1  0  0  0  0
  2  5  1  0  0  0  0
  4 18  1  6  0  0  0
  4  8  1  0  0  0  0
  4  6  1  0  0  0  0
  5  7  1  0  0  0  0
  6  2  2  0  0  0  0
  7  3  1  1  0  0  0
  7 19  1  0  0  0  0
  8 12  1  0  0  0  0
  9 13  1  6  0  0  0
  9  6  1  0  0  0  0
  9 17  1  0  0  0  0
 10  1  1  0  0  0  0
 11 23  1  0  0  0  0
 14 15  1  0  0  0  0
 14 31  1  6  0  0  0
 15  3  1  0  0  0  0
 16 12  1  6  0  0  0
 16 11  1  0  0  0  0
 17 22  1  6  0  0  0
 17  5  1  0  0  0  0
 19 25  1  1  0  0  0
 20  1  1  0  0  0  0
 21 14  1  0  0  0  0
 22 21  2  0  0  0  0
 23 19  1  0  0  0  0
 24 30  1  0  0  0  0
 25 26  1  0  0  0  0
 25 24  2  0  0  0  0
 26 29  2  0  0  0  0
 29 27  1  0  0  0  0
 29 28  1  0  0  0  0
 30 28  2  0  0  0  0
 31 33  2  0  0  0  0
 32 35  1  0  0  0  0
 32 31  1  0  0  0  0
 35 34  1  1  0  0  0
 36 37  1  0  0  0  0
 37 35  1  0  0  0  0
M  END
>  <MODEL>
4

>  <REMARK>
 VINA RESULT:      -7.2      1.822      6.626
  Name = 
  4 active torsions:
  status: ('A' for Active; 'I' for Inactive)
    1  A    between atoms: CA_4  and  N_12
    2  A    between atoms: CA_4  and  C_37
    3  A    between atoms: C_8  and  C_18
    4  A    between atoms: C_23  and  C_30
                            x       y       z     vdW  Elec       q    Type
                         _______ _______ _______ _____ _____    ______ ____

>  <TORSDO>
F 4

$$$$
=
 OpenBabel11122411383D

 37 42  0  0  1  0  0  0  0  0999 V2000
  188.1420  177.4400  146.3530 C   0  0  0  0  0  0  0  0  0  0  0  0
  186.9810  178.0840  142.4050 C   0  0  0  0  0  0  0  0  0  0  0  0
  189.0560  176.3780  139.6090 C   0  0  0  0  0  2  0  0  0  0  0  0
  186.2790  178.2980  144.8080 C   0  0  2  0  0  3  0  0  0  0  0  0
  188.0160  177.4860  141.6110 N   0  0  0  0  0  0  0  0  0  0  0  0
  187.1300  177.7760  143.6820 C   0  0  0  0  0  0  0  0  0  0  0  0
  188.2220  177.5740  140.1470 C   0  0  2  0  0  3  0  0  0  0  0  0
  185.5680  179.5890  144.4010 C   0  0  0  0  0  2  0  0  0  0  0  0
  188.2380  176.8140  143.8840 C   0  0  2  0  0  3  0  0  0  0  0  0
  187.4020  176.1800  146.7710 C   0  0  0  0  0  1  0  0  0  0  0  0
  185.3480  178.8300  140.6610 C   0  0  0  0  0  2  0  0  0  0  0  0
  184.9450  179.4380  143.0160 C   0  0  0  0  0  2  0  0  0  0  0  0
  189.0460  177.1630  145.1430 C   0  0  0  0  0  2  0  0  0  0  0  0
  190.9990  177.3520  140.2460 C   0  0  1  0  0  3  0  0  0  0  0  0
  190.2790  176.1500  140.2690 O   0  0  0  0  0  0  0  0  0  0  0  0
  186.0280  179.1750  141.9640 C   0  0  1  0  0  3  0  0  0  0  0  0
  188.9910  176.8920  142.5380 C   0  0  2  0  0  3  0  0  0  0  0  0
  187.1490  178.5720  146.0410 C   0  0  0  0  0  2  0  0  0  0  0  0
  186.9030  177.6910  139.3550 C   0  0  1  0  0  3  0  0  0  0  0  0
  189.0160  177.8810  147.5070 C   0  0  0  0  0  1  0  0  0  0  0  0
  191.1280  177.9270  141.6310 C   0  0  0  0  0  3  0  0  0  0  0  0
  190.2390  177.7500  142.6230 C   0  0  0  0  0  3  0  0  0  0  0  0
  186.2920  178.9900  139.5770 N   0  0  0  0  0  2  0  0  0  0  0  0
  187.8550  178.4130  137.1530 C   0  0  0  0  0  3  0  0  0  0  0  0
  187.0810  177.4980  137.8750 C   0  0  0  0  0  0  0  0  0  0  0  0
  186.4810  176.4180  137.2110 C   0  0  0  0  0  3  0  0  0  0  0  0
  186.0130  175.1170  135.1300 C   0  0  0  0  0  1  0  0  0  0  0  0
  187.4260  177.1770  135.1150 C   0  0  0  0  0  3  0  0  0  0  0  0
  186.6530  176.2590  135.8320 C   0  0  0  0  0  0  0  0  0  0  0  0
  188.0270  178.2520  135.7740 C   0  0  0  0  0  3  0  0  0  0  0  0
  192.3410  177.1470  139.6290 C   0  0  0  0  0  0  0  0  0  0  0  0
  192.4350  176.4760  138.3710 N   0  0  0  0  0  2  0  0  0  0  0  0
  193.3800  177.5520  140.2180 O   0  0  0  0  0  0  0  0  0  0  0  0
  193.5180  176.3480  136.1850 C   0  0  0  0  0  1  0  0  0  0  0  0
  193.7020  176.2500  137.6910 C   0  0  2  0  0  3  0  0  0  0  0  0
  195.3800  175.0240  138.9020 O   0  0  0  0  0  1  0  0  0  0  0  0
  194.2660  174.8880  138.0710 C   0  0  0  0  0  2  0  0  0  0  0  0
  1 10  1  0  0  0  0
  1 20  1  0  0  0  0
  2  6  2  0  0  0  0
  3 15  1  0  0  0  0
  4  8  1  6  0  0  0
  4 18  1  0  0  0  0
  5  2  1  0  0  0  0
  5 17  1  0  0  0  0
  6  9  1  0  0  0  0
  6  4  1  0  0  0  0
  7  3  1  6  0  0  0
  7  5  1  0  0  0  0
  9 13  1  1  0  0  0
 12  8  1  0  0  0  0
 13  1  1  0  0  0  0
 14 31  1  1  0  0  0
 14 15  1  0  0  0  0
 14 21  1  0  0  0  0
 16 11  1  6  0  0  0
 16  2  1  0  0  0  0
 16 12  1  0  0  0  0
 17 22  1  1  0  0  0
 17  9  1  0  0  0  0
 18  1  1  0  0  0  0
 19 25  1  6  0  0  0
 19 23  1  0  0  0  0
 19  7  1  0  0  0  0
 21 22  2  0  0  0  0
 23 11  1  0  0  0  0
 24 25  1  0  0  0  0
 26 25  2  0  0  0  0
 27 29  1  0  0  0  0
 28 30  1  0  0  0  0
 28 29  2  0  0  0  0
 29 26  1  0  0  0  0
 30 24  2  0  0  0  0
 31 33  2  0  0  0  0
 32 31  1  0  0  0  0
 35 34  1  6  0  0  0
 35 37  1  0  0  0  0
 35 32  1  0  0  0  0
 37 36  1  0  0  0  0
M  END
>  <MODEL>
5

>  <REMARK>
 VINA RESULT:      -7.0      3.129      6.072
  Name = 
  4 active torsions:
  status: ('A' for Active; 'I' for Inactive)
    1  A    between atoms: CA_4  and  N_12
    2  A    between atoms: CA_4  and  C_37
    3  A    between atoms: C_8  and  C_18
    4  A    between atoms: C_23  and  C_30
                            x       y       z     vdW  Elec       q    Type
                         _______ _______ _______ _____ _____    ______ ____

>  <TORSDO>
F 4

$$$$
=
 OpenBabel11122411383D

 37 42  0  0  1  0  0  0  0  0999 V2000
  189.6200  176.1900  136.0890 C   0  0  0  0  0  0  0  0  0  0  0  0
  190.9960  176.7580  139.9800 C   0  0  0  0  0  0  0  0  0  0  0  0
  188.3850  176.7040  142.8460 C   0  0  0  0  0  2  0  0  0  0  0  0
  191.6830  176.2510  137.6170 C   0  0  2  0  0  3  0  0  0  0  0  0
  189.8100  176.8620  140.7810 N   0  0  0  0  0  0  0  0  0  0  0  0
  190.7000  176.3790  138.7480 C   0  0  0  0  0  0  0  0  0  0  0  0
  189.6900  177.2520  142.2050 C   0  0  2  0  0  3  0  0  0  0  0  0
  192.9400  177.0780  137.8910 C   0  0  0  0  0  2  0  0  0  0  0  0
  189.2600  176.0580  138.6090 C   0  0  2  0  0  3  0  0  0  0  0  0
  189.6440  174.6830  135.8890 C   0  0  0  0  0  1  0  0  0  0  0  0
  192.8060  176.8630  141.7050 C   0  0  0  0  0  2  0  0  0  0  0  0
  193.4270  176.8480  139.3190 C   0  0  0  0  0  2  0  0  0  0  0  0
  188.7110  176.5680  137.2680 C   0  0  0  0  0  2  0  0  0  0  0  0
  187.1590  178.3950  141.9670 C   0  0  1  0  0  3  0  0  0  0  0  0
  187.1990  177.0060  142.1480 O   0  0  0  0  0  0  0  0  0  0  0  0
  192.3650  177.3000  140.3290 C   0  0  1  0  0  3  0  0  0  0  0  0
  188.6580  176.6870  139.8840 C   0  0  2  0  0  3  0  0  0  0  0  0
  191.0440  176.7290  136.3080 C   0  0  0  0  0  2  0  0  0  0  0  0
  190.9080  176.8280  143.0540 C   0  0  1  0  0  3  0  0  0  0  0  0
  189.0610  176.8260  134.8350 C   0  0  0  0  0  1  0  0  0  0  0  0
  187.3110  178.7500  140.5120 C   0  0  0  0  0  3  0  0  0  0  0  0
  187.9880  178.0210  139.6090 C   0  0  0  0  0  3  0  0  0  0  0  0
  192.0730  177.6190  142.6990 N   0  0  0  0  0  2  0  0  0  0  0  0
  189.5810  177.7080  144.9880 C   0  0  0  0  0  3  0  0  0  0  0  0
  190.6760  176.9650  144.5330 C   0  0  0  0  0  0  0  0  0  0  0  0
  191.5410  176.3610  145.4580 C   0  0  0  0  0  3  0  0  0  0  0  0
  192.2320  175.8700  147.8080 C   0  0  0  0  0  1  0  0  0  0  0  0
  190.2180  177.2510  147.2800 C   0  0  0  0  0  3  0  0  0  0  0  0
  191.3120  176.5060  146.8300 C   0  0  0  0  0  0  0  0  0  0  0  0
  189.3530  177.8500  146.3610 C   0  0  0  0  0  3  0  0  0  0  0  0
  185.8960  178.9590  142.5230 C   0  0  0  0  0  0  0  0  0  0  0  0
  185.4970  178.6040  143.8470 N   0  0  0  0  0  2  0  0  0  0  0  0
  185.1850  179.7330  141.8240 O   0  0  0  0  0  0  0  0  0  0  0  0
  184.2910  178.8180  145.9620 C   0  0  0  0  0  1  0  0  0  0  0  0
  184.2890  179.1240  144.4730 C   0  0  2  0  0  3  0  0  0  0  0  0
  182.1060  179.5160  143.5420 O   0  0  0  0  0  1  0  0  0  0  0  0
  183.0550  178.5270  143.8090 C   0  0  0  0  0  2  0  0  0  0  0  0
  1 18  1  0  0  0  0
  1 13  1  0  0  0  0
  2 16  1  0  0  0  0
  2  5  1  0  0  0  0
  4 18  1  6  0  0  0
  4  8  1  0  0  0  0
  4  6  1  0  0  0  0
  5  7  1  0  0  0  0
  6  2  2  0  0  0  0
  7  3  1  1  0  0  0
  7 19  1  0  0  0  0
  8 12  1  0  0  0  0
  9 13  1  6  0  0  0
  9  6  1  0  0  0  0
  9 17  1  0  0  0  0
 10  1  1  0  0  0  0
 11 23  1  0  0  0  0
 14 15  1  0  0  0  0
 14 31  1  6  0  0  0
 15  3  1  0  0  0  0
 16 12  1  6  0  0  0
 16 11  1  0  0  0  0
 17 22  1  6  0  0  0
 17  5  1  0  0  0  0
 19 25  1  1  0  0  0
 20  1  1  0  0  0  0
 21 14  1  0  0  0  0
 22 21  2  0  0  0  0
 23 19  1  0  0  0  0
 24 30  1  0  0  0  0
 25 24  2  0  0  0  0
 25 26  1  0  0  0  0
 26 29  2  0  0  0  0
 29 28  1  0  0  0  0
 29 27  1  0  0  0  0
 30 28  2  0  0  0  0
 31 32  1  0  0  0  0
 32 35  1  0  0  0  0
 33 31  2  0  0  0  0
 35 34  1  1  0  0  0
 36 37  1  0  0  0  0
 37 35  1  0  0  0  0
M  END
>  <MODEL>
6

>  <REMARK>
 VINA RESULT:      -6.8      2.247      7.145
  Name = 
  4 active torsions:
  status: ('A' for Active; 'I' for Inactive)
    1  A    between atoms: CA_4  and  N_12
    2  A    between atoms: CA_4  and  C_37
    3  A    between atoms: C_8  and  C_18
    4  A    between atoms: C_23  and  C_30
                            x       y       z     vdW  Elec       q    Type
                         _______ _______ _______ _____ _____    ______ ____

>  <TORSDO>
F 4

$$$$
=
 OpenBabel11122411383D

 37 42  0  0  1  0  0  0  0  0999 V2000
  190.2590  176.8320  147.3280 C   0  0  0  0  0  0  0  0  0  0  0  0
  186.8640  178.1320  145.2950 C   0  0  0  0  0  0  0  0  0  0  0  0
  186.5910  177.3020  141.5170 C   0  0  0  0  0  2  0  0  0  0  0  0
  187.8760  177.7590  147.5640 C   0  0  2  0  0  3  0  0  0  0  0  0
  187.1240  177.8400  143.9140 N   0  0  0  0  0  0  0  0  0  0  0  0
  187.7850  177.5870  146.0720 C   0  0  0  0  0  0  0  0  0  0  0  0
  186.3470  178.2520  142.7220 C   0  0  2  0  0  3  0  0  0  0  0  0
  187.1230  179.0110  148.0160 C   0  0  0  0  0  2  0  0  0  0  0  0
  188.7230  176.7450  145.2950 C   0  0  2  0  0  3  0  0  0  0  0  0
  189.9090  175.4320  147.8070 C   0  0  0  0  0  1  0  0  0  0  0  0
  184.5250  179.0190  145.2120 C   0  0  0  0  0  2  0  0  0  0  0  0
  185.7520  179.0750  147.3500 C   0  0  0  0  0  2  0  0  0  0  0  0
  190.1640  176.9220  145.7980 C   0  0  0  0  0  2  0  0  0  0  0  0
  188.5290  178.3510  140.9900 C   0  0  1  0  0  3  0  0  0  0  0  0
  187.9430  177.0930  141.1790 O   0  0  0  0  0  0  0  0  0  0  0  0
  185.8960  179.1670  145.8270 C   0  0  1  0  0  3  0  0  0  0  0  0
  188.4400  177.1890  143.8440 C   0  0  2  0  0  3  0  0  0  0  0  0
  189.3450  177.8760  147.9900 C   0  0  0  0  0  2  0  0  0  0  0  0
  184.8320  178.3700  142.9970 C   0  0  1  0  0  3  0  0  0  0  0  0
  191.6870  177.1280  147.7330 C   0  0  0  0  0  1  0  0  0  0  0  0
  189.5400  178.6390  142.0680 C   0  0  0  0  0  3  0  0  0  0  0  0
  189.4870  178.1550  143.3210 C   0  0  0  0  0  3  0  0  0  0  0  0
  184.5600  179.5120  143.8520 N   0  0  0  0  0  2  0  0  0  0  0  0
  182.6220  178.6270  141.8470 C   0  0  0  0  0  3  0  0  0  0  0  0
  184.0120  178.5100  141.7450 C   0  0  0  0  0  0  0  0  0  0  0  0
  184.6210  178.5210  140.4810 C   0  0  0  0  0  3  0  0  0  0  0  0
  184.4870  178.6500  137.9900 C   0  0  0  0  0  1  0  0  0  0  0  0
  182.4510  178.7590  139.4340 C   0  0  0  0  0  3  0  0  0  0  0  0
  183.8410  178.6440  139.3280 C   0  0  0  0  0  0  0  0  0  0  0  0
  181.8420  178.7510  140.6920 C   0  0  0  0  0  3  0  0  0  0  0  0
  189.1520  178.4410  139.6400 C   0  0  0  0  0  0  0  0  0  0  0  0
  189.8730  177.3190  139.1280 N   0  0  0  0  0  2  0  0  0  0  0  0
  189.0520  179.5010  138.9620 O   0  0  0  0  0  0  0  0  0  0  0  0
  189.4790  176.9480  136.7460 C   0  0  0  0  0  1  0  0  0  0  0  0
  190.4970  177.3150  137.8120 C   0  0  2  0  0  3  0  0  0  0  0  0
  191.3000  175.1090  138.3340 O   0  0  0  0  0  1  0  0  0  0  0  0
  191.6670  176.3410  137.7890 C   0  0  0  0  0  2  0  0  0  0  0  0
  1 20  1  0  0  0  0
  1 10  1  0  0  0  0
  1 18  1  0  0  0  0
  2 16  1  0  0  0  0
  2  6  2  0  0  0  0
  4 18  1  6  0  0  0
  4  8  1  0  0  0  0
  5  2  1  0  0  0  0
  6  4  1  0  0  0  0
  7  3  1  6  0  0  0
  7 19  1  0  0  0  0
  7  5  1  0  0  0  0
  9 13  1  1  0  0  0
  9  6  1  0  0  0  0
 12  8  1  0  0  0  0
 13  1  1  0  0  0  0
 14 31  1  6  0  0  0
 14 15  1  0  0  0  0
 14 21  1  0  0  0  0
 15  3  1  0  0  0  0
 16 11  1  6  0  0  0
 16 12  1  0  0  0  0
 17 22  1  1  0  0  0
 17  5  1  0  0  0  0
 17  9  1  0  0  0  0
 19 25  1  6  0  0  0
 19 23  1  0  0  0  0
 21 22  2  0  0  0  0
 23 11  1  0  0  0  0
 25 24  1  0  0  0  0
 26 25  2  0  0  0  0
 27 29  1  0  0  0  0
 28 30  1  0  0  0  0
 29 28  2  0  0  0  0
 29 26  1  0  0  0  0
 30 24  2  0  0  0  0
 32 31  1  0  0  0  0
 33 31  2  0  0  0  0
 35 34  1  6  0  0  0
 35 32  1  0  0  0  0
 37 35  1  0  0  0  0
 37 36  1  0  0  0  0
M  END
>  <MODEL>
7

>  <REMARK>
 VINA RESULT:      -6.7      2.244      5.443
  Name = 
  4 active torsions:
  status: ('A' for Active; 'I' for Inactive)
    1  A    between atoms: CA_4  and  N_12
    2  A    between atoms: CA_4  and  C_37
    3  A    between atoms: C_8  and  C_18
    4  A    between atoms: C_23  and  C_30
                            x       y       z     vdW  Elec       q    Type
                         _______ _______ _______ _____ _____    ______ ____

>  <TORSDO>
F 4

$$$$
=
 OpenBabel11122411383D

 37 42  0  0  1  0  0  0  0  0999 V2000
  193.8490  175.1270  136.1780 C   0  0  0  0  0  0  0  0  0  0  0  0
  189.6890  175.3180  136.2130 C   0  0  0  0  0  0  0  0  0  0  0  0
  188.0270  178.1650  138.2540 C   0  0  0  0  0  2  0  0  0  0  0  0
  191.6830  174.2980  135.0760 C   0  0  2  0  0  3  0  0  0  0  0  0
  189.3720  176.3400  137.1700 N   0  0  0  0  0  0  0  0  0  0  0  0
  190.9870  175.2940  135.9620 C   0  0  0  0  0  0  0  0  0  0  0  0
  188.0480  176.7040  137.7260 C   0  0  2  0  0  3  0  0  0  0  0  0
  190.8400  173.0340  134.9070 C   0  0  0  0  0  2  0  0  0  0  0  0
  191.6930  176.4030  136.6450 C   0  0  2  0  0  3  0  0  0  0  0  0
  194.2660  176.0110  135.0130 C   0  0  0  0  0  1  0  0  0  0  0  0
  187.4270  174.7030  135.3350 C   0  0  0  0  0  2  0  0  0  0  0  0
  189.3890  173.4000  134.6050 C   0  0  0  0  0  2  0  0  0  0  0  0
  193.0420  175.9300  137.2080 C   0  0  0  0  0  2  0  0  0  0  0  0
  189.0110  177.5520  140.2000 C   0  0  1  0  0  3  0  0  0  0  0  0
  189.0530  178.4920  139.1630 O   0  0  0  0  0  0  0  0  0  0  0  0
  188.7800  174.1920  135.7680 C   0  0  1  0  0  3  0  0  0  0  0  0
  190.6440  176.8760  137.6750 C   0  0  2  0  0  3  0  0  0  0  0  0
  193.0410  173.9180  135.6780 C   0  0  0  0  0  2  0  0  0  0  0  0
  186.8920  176.4920  136.7250 C   0  0  1  0  0  3  0  0  0  0  0  0
  195.1020  174.6130  136.8530 C   0  0  0  0  0  1  0  0  0  0  0  0
  190.2320  176.6710  140.1750 C   0  0  0  0  0  3  0  0  0  0  0  0
  190.9290  176.3530  139.0700 C   0  0  0  0  0  3  0  0  0  0  0  0
  186.6640  175.0750  136.5070 N   0  0  0  0  0  2  0  0  0  0  0  0
  184.4350  176.8840  136.4340 C   0  0  0  0  0  3  0  0  0  0  0  0
  185.6000  177.1160  137.1730 C   0  0  0  0  0  0  0  0  0  0  0  0
  185.5490  177.9280  138.3160 C   0  0  0  0  0  3  0  0  0  0  0  0
  184.2880  179.3690  139.9210 C   0  0  0  0  0  1  0  0  0  0  0  0
  183.1780  178.2720  137.9700 C   0  0  0  0  0  3  0  0  0  0  0  0
  184.3390  178.5060  138.7120 C   0  0  0  0  0  0  0  0  0  0  0  0
  183.2250  177.4620  136.8320 C   0  0  0  0  0  3  0  0  0  0  0  0
  188.8750  178.2330  141.5190 C   0  0  0  0  0  0  0  0  0  0  0  0
  189.8490  177.9890  142.5340 N   0  0  0  0  0  2  0  0  0  0  0  0
  187.9020  179.0070  141.7370 O   0  0  0  0  0  0  0  0  0  0  0  0
  191.1800  179.1330  144.2340 C   0  0  0  0  0  1  0  0  0  0  0  0
  189.8020  178.6260  143.8430 C   0  0  2  0  0  3  0  0  0  0  0  0
  187.9110  177.8320  145.0990 O   0  0  0  0  0  1  0  0  0  0  0  0
  189.2790  177.6470  144.8850 C   0  0  0  0  0  2  0  0  0  0  0  0
  1 20  1  0  0  0  0
  1 13  1  0  0  0  0
  2  5  1  0  0  0  0
  3 15  1  0  0  0  0
  4  8  1  1  0  0  0
  4 18  1  0  0  0  0
  4  6  1  0  0  0  0
  5 17  1  0  0  0  0
  5  7  1  0  0  0  0
  6  2  2  0  0  0  0
  6  9  1  0  0  0  0
  7  3  1  6  0  0  0
  9 13  1  1  0  0  0
  9 17  1  0  0  0  0
 10  1  1  0  0  0  0
 11 16  1  0  0  0  0
 11 23  1  0  0  0  0
 12  8  1  0  0  0  0
 14 31  1  1  0  0  0
 15 14  1  0  0  0  0
 16 12  1  6  0  0  0
 16  2  1  0  0  0  0
 17 22  1  1  0  0  0
 18  1  1  0  0  0  0
 19 25  1  1  0  0  0
 19  7  1  0  0  0  0
 21 14  1  0  0  0  0
 22 21  2  0  0  0  0
 23 19  1  0  0  0  0
 24 30  2  0  0  0  0
 24 25  1  0  0  0  0
 25 26  2  0  0  0  0
 26 29  1  0  0  0  0
 28 29  2  0  0  0  0
 29 27  1  0  0  0  0
 30 28  1  0  0  0  0
 31 33  2  0  0  0  0
 31 32  1  0  0  0  0
 32 35  1  0  0  0  0
 35 34  1  1  0  0  0
 35 37  1  0  0  0  0
 37 36  1  0  0  0  0
M  END
>  <MODEL>
8

>  <REMARK>
 VINA RESULT:      -6.6      3.543      8.090
  Name = 
  4 active torsions:
  status: ('A' for Active; 'I' for Inactive)
    1  A    between atoms: CA_4  and  N_12
    2  A    between atoms: CA_4  and  C_37
    3  A    between atoms: C_8  and  C_18
    4  A    between atoms: C_23  and  C_30
                            x       y       z     vdW  Elec       q    Type
                         _______ _______ _______ _____ _____    ______ ____

>  <TORSDO>
F 4

$$$$
=
 OpenBabel11122411383D

 37 42  0  0  1  0  0  0  0  0999 V2000
  190.0770  176.7630  143.3780 C   0  0  0  0  0  0  0  0  0  0  0  0
  186.2650  177.9760  144.5380 C   0  0  0  0  0  0  0  0  0  0  0  0
  183.4330  177.8090  141.8940 C   0  0  0  0  0  2  0  0  0  0  0  0
  188.5490  177.3310  145.3620 C   0  0  2  0  0  3  0  0  0  0  0  0
  185.4900  177.9700  143.3290 N   0  0  0  0  0  0  0  0  0  0  0  0
  187.4480  177.4190  144.3410 C   0  0  0  0  0  0  0  0  0  0  0  0
  184.1210  178.4900  143.1100 C   0  0  2  0  0  3  0  0  0  0  0  0
  188.3600  178.3790  146.4590 C   0  0  0  0  0  2  0  0  0  0  0  0
  187.5620  176.8520  142.9770 C   0  0  2  0  0  3  0  0  0  0  0  0
  190.1060  175.2680  143.6520 C   0  0  0  0  0  1  0  0  0  0  0  0
  184.5470  178.5670  146.2590 C   0  0  0  0  0  2  0  0  0  0  0  0
  186.9110  178.3910  146.9380 C   0  0  0  0  0  2  0  0  0  0  0  0
  188.9570  177.1130  142.3880 C   0  0  0  0  0  2  0  0  0  0  0  0
  184.5080  179.1660  140.4330 C   0  0  1  0  0  3  0  0  0  0  0  0
  184.1710  177.8320  140.6940 O   0  0  0  0  0  0  0  0  0  0  0  0
  185.9680  178.7710  145.7910 C   0  0  1  0  0  3  0  0  0  0  0  0
  186.3710  177.5110  142.2460 C   0  0  2  0  0  3  0  0  0  0  0  0
  189.9090  177.5500  144.6890 C   0  0  0  0  0  2  0  0  0  0  0  0
  183.2190  178.3690  144.3570 C   0  0  1  0  0  3  0  0  0  0  0  0
  191.4000  177.1560  142.7570 C   0  0  0  0  0  1  0  0  0  0  0  0
  185.9930  179.3790  140.5650 C   0  0  0  0  0  3  0  0  0  0  0  0
  186.8020  178.6760  141.3760 C   0  0  0  0  0  3  0  0  0  0  0  0
  183.6520  179.2960  145.3870 N   0  0  0  0  0  2  0  0  0  0  0  0
  180.7920  177.8670  144.7190 C   0  0  0  0  0  3  0  0  0  0  0  0
  181.7680  178.6270  144.0650 C   0  0  0  0  0  0  0  0  0  0  0  0
  181.3810  179.6160  143.1480 C   0  0  0  0  0  3  0  0  0  0  0  0
  179.6190  180.8810  141.9090 C   0  0  0  0  0  1  0  0  0  0  0  0
  179.0540  179.0730  143.5380 C   0  0  0  0  0  3  0  0  0  0  0  0
  180.0250  179.8370  142.8850 C   0  0  0  0  0  0  0  0  0  0  0  0
  179.4360  178.0900  144.4550 C   0  0  0  0  0  3  0  0  0  0  0  0
  184.0310  179.5730  139.0810 C   0  0  0  0  0  0  0  0  0  0  0  0
  182.6330  179.7730  138.8660 N   0  0  0  0  0  2  0  0  0  0  0  0
  184.8540  179.7270  138.1360 O   0  0  0  0  0  0  0  0  0  0  0  0
  181.1810  181.3970  137.7600 C   0  0  0  0  0  1  0  0  0  0  0  0
  182.0840  180.1880  137.5820 C   0  0  2  0  0  3  0  0  0  0  0  0
  182.1910  178.1240  136.3520 O   0  0  0  0  0  1  0  0  0  0  0  0
  181.3170  179.0380  136.9440 C   0  0  0  0  0  2  0  0  0  0  0  0
  1 10  1  0  0  0  0
  1 18  1  0  0  0  0
  2 16  1  0  0  0  0
  4 18  1  6  0  0  0
  4  8  1  0  0  0  0
  5  2  1  0  0  0  0
  6  2  2  0  0  0  0
  6  4  1  0  0  0  0
  7  3  1  6  0  0  0
  7  5  1  0  0  0  0
  7 19  1  0  0  0  0
  8 12  1  0  0  0  0
  9 13  1  6  0  0  0
  9  6  1  0  0  0  0
 13  1  1  0  0  0  0
 14 31  1  6  0  0  0
 14 21  1  0  0  0  0
 14 15  1  0  0  0  0
 15  3  1  0  0  0  0
 16 11  1  1  0  0  0
 16 12  1  0  0  0  0
 17 22  1  1  0  0  0
 17  9  1  0  0  0  0
 17  5  1  0  0  0  0
 19 25  1  6  0  0  0
 19 23  1  0  0  0  0
 20  1  1  0  0  0  0
 21 22  2  0  0  0  0
 23 11  1  0  0  0  0
 25 24  2  0  0  0  0
 26 25  1  0  0  0  0
 27 29  1  0  0  0  0
 28 30  2  0  0  0  0
 29 26  2  0  0  0  0
 29 28  1  0  0  0  0
 30 24  1  0  0  0  0
 32 31  1  0  0  0  0
 33 31  2  0  0  0  0
 35 34  1  1  0  0  0
 35 32  1  0  0  0  0
 36 37  1  0  0  0  0
 37 35  1  0  0  0  0
M  END
>  <MODEL>
9

>  <REMARK>
 VINA RESULT:      -6.6      2.570      6.018
  Name = 
  4 active torsions:
  status: ('A' for Active; 'I' for Inactive)
    1  A    between atoms: CA_4  and  N_12
    2  A    between atoms: CA_4  and  C_37
    3  A    between atoms: C_8  and  C_18
    4  A    between atoms: C_23  and  C_30
                            x       y       z     vdW  Elec       q    Type
                         _______ _______ _______ _____ _____    ______ ____

>  <TORSDO>
F 4

$$$$
