=
 OpenBabel11122411143D

 31 35  0  0  1  0  0  0  0  0999 V2000
  188.2650  177.3920  135.8580 C   0  0  0  0  0  0  0  0  0  0  0  0
  190.3070  175.8420  138.6760 C   0  0  2  0  0  3  0  0  0  0  0  0
  191.4170  175.2320  137.8760 C   0  0  0  0  0  0  0  0  0  0  0  0
  192.2160  173.5740  136.3100 C   0  0  0  0  0  0  0  0  0  0  0  0
  189.4900  176.8370  137.8810 C   0  0  0  0  0  0  0  0  0  0  0  0
  187.8460  178.5920  136.4470 C   0  0  0  0  0  3  0  0  0  0  0  0
  191.2050  174.0650  137.1350 C   0  0  0  0  0  3  0  0  0  0  0  0
  189.7700  177.1920  140.6530 N   0  0  0  0  0  0  0  0  0  0  0  0
  187.8750  177.0710  134.5940 F   0  0  0  0  0  0  0  0  0  0  0  0
  192.8600  177.0360  138.5570 O   0  0  0  0  0  0  0  0  0  0  0  0
  192.0020  172.3860  135.5530 N   0  0  0  0  0  1  0  0  0  0  0  0
  189.4200  178.3980  139.8920 C   0  0  0  0  0  2  0  0  0  0  0  0
  190.8630  176.4590  139.9730 C   0  0  2  0  0  3  0  0  0  0  0  0
  189.0760  176.5180  136.5740 C   0  0  0  0  0  3  0  0  0  0  0  0
  193.4320  174.2600  136.1980 C   0  0  0  0  0  3  0  0  0  0  0  0
  189.0250  178.0330  138.4840 C   0  0  0  0  0  0  0  0  0  0  0  0
  188.2250  178.9110  137.7580 C   0  0  0  0  0  3  0  0  0  0  0  0
  192.1460  177.3110  139.7780 C   0  0  0  0  0  2  0  0  0  0  0  0
  192.6450  175.8970  137.7930 C   0  0  0  0  0  0  0  0  0  0  0  0
  193.6460  175.4230  136.9370 C   0  0  0  0  0  3  0  0  0  0  0  0
  190.1890  177.5950  141.9860 C   0  0  0  0  0  2  0  0  0  0  0  0
  189.0030  175.9330  143.2370 O   0  0  0  0  0  1  0  0  0  0  0  0
  189.0700  177.3090  142.9850 C   0  0  1  0  0  3  0  0  0  0  0  0
  190.8350  176.7870  146.3340 C   0  0  0  0  0  0  0  0  0  0  0  0
  190.6450  178.5370  144.5580 C   0  0  0  0  0  2  0  0  0  0  0  0
  187.4170  177.2990  145.6620 O   0  0  0  0  0  0  0  0  0  0  0  0
  191.6640  176.1280  147.3570 C   0  0  0  0  0  1  0  0  0  0  0  0
  191.4940  177.3990  145.1330 C   0  0  0  0  0  2  0  0  0  0  0  0
  188.6580  177.3670  145.4950 C   0  0  0  0  0  0  0  0  0  0  0  0
  189.2050  178.0890  144.2980 C   0  0  2  0  0  3  0  0  0  0  0  0
  189.5410  176.7640  146.4540 N   0  0  0  0  0  0  0  0  0  0  0  0
  1  6  2  0  0  0  0
  1 14  1  0  0  0  0
  2  3  1  6  0  0  0
  2 13  1  0  0  0  0
  4  7  1  0  0  0  0
  5 16  1  0  0  0  0
  5  2  1  0  0  0  0
  6 17  1  0  0  0  0
  7  3  2  0  0  0  0
  8 21  1  0  0  0  0
  9  1  1  0  0  0  0
 10 18  1  0  0  0  0
 11  4  1  0  0  0  0
 12  8  1  0  0  0  0
 13 18  1  6  0  0  0
 13  8  1  0  0  0  0
 14  5  2  0  0  0  0
 15  4  2  0  0  0  0
 15 20  1  0  0  0  0
 16 12  1  0  0  0  0
 17 16  2  0  0  0  0
 19  3  1  0  0  0  0
 19 10  1  0  0  0  0
 20 19  2  0  0  0  0
 21 23  1  0  0  0  0
 23 22  1  1  0  0  0
 24 31  2  0  0  0  0
 24 27  1  0  0  0  0
 25 28  1  0  0  0  0
 28 24  1  0  0  0  0
 29 26  2  0  0  0  0
 29 31  1  0  0  0  0
 30 23  1  6  0  0  0
 30 25  1  0  0  0  0
 30 29  1  0  0  0  0
M  END
>  <MODEL>
1

>  <REMARK>
 VINA RESULT:      -8.2      0.000      0.000
  Name = 
  3 active torsions:
  status: ('A' for Active; 'I' for Inactive)
    1  A    between atoms: C_5  and  C_16
    2  A    between atoms: C_5  and  C_30
    3  A    between atoms: N_10  and  C_16
                            x       y       z     vdW  Elec       q    Type
                         _______ _______ _______ _____ _____    ______ ____

>  <TORSDO>
F 3

$$$$
=
 OpenBabel11122411143D

 31 35  0  0  1  0  0  0  0  0999 V2000
  186.7700  177.6840  145.8670 C   0  0  0  0  0  0  0  0  0  0  0  0
  190.1530  177.8190  144.1210 C   0  0  2  0  0  3  0  0  0  0  0  0
  190.9540  176.9680  145.0580 C   0  0  0  0  0  0  0  0  0  0  0  0
  192.0120  176.6240  147.2030 C   0  0  0  0  0  0  0  0  0  0  0  0
  188.6610  177.6920  144.3430 C   0  0  0  0  0  0  0  0  0  0  0  0
  185.8960  177.6180  144.7750 C   0  0  0  0  0  3  0  0  0  0  0  0
  191.3650  177.4650  146.2990 C   0  0  0  0  0  3  0  0  0  0  0  0
  189.6230  178.2520  141.7650 N   0  0  0  0  0  0  0  0  0  0  0  0
  186.2830  177.7160  147.1390 F   0  0  0  0  0  0  0  0  0  0  0  0
  190.8220  175.1550  143.4790 O   0  0  0  0  0  0  0  0  0  0  0  0
  192.4310  177.1280  148.4690 N   0  0  0  0  0  1  0  0  0  0  0  0
  188.2810  177.6610  141.8260 C   0  0  0  0  0  2  0  0  0  0  0  0
  190.5440  177.5180  142.6620 C   0  0  2  0  0  3  0  0  0  0  0  0
  188.1430  177.7280  145.6520 C   0  0  0  0  0  3  0  0  0  0  0  0
  192.2280  175.2780  146.8860 C   0  0  0  0  0  3  0  0  0  0  0  0
  187.7680  177.6690  143.2430 C   0  0  0  0  0  0  0  0  0  0  0  0
  186.3950  177.6110  143.4650 C   0  0  0  0  0  3  0  0  0  0  0  0
  190.6540  176.0060  142.3280 C   0  0  0  0  0  2  0  0  0  0  0  0
  191.2020  175.6320  144.7260 C   0  0  0  0  0  0  0  0  0  0  0  0
  191.8210  174.7800  145.6480 C   0  0  0  0  0  3  0  0  0  0  0  0
  190.0960  178.1790  140.3920 C   0  0  0  0  0  2  0  0  0  0  0  0
  189.0560  179.2480  138.5180 O   0  0  0  0  0  1  0  0  0  0  0  0
  188.9040  178.2020  139.4370 C   0  0  1  0  0  3  0  0  0  0  0  0
  189.6930  176.7900  135.9740 C   0  0  0  0  0  0  0  0  0  0  0  0
  189.9930  176.1640  138.3760 C   0  0  0  0  0  2  0  0  0  0  0  0
  186.5860  177.1390  137.5930 O   0  0  0  0  0  0  0  0  0  0  0  0
  190.2130  176.7520  134.5980 C   0  0  0  0  0  1  0  0  0  0  0  0
  190.6530  176.7530  137.1260 C   0  0  0  0  0  2  0  0  0  0  0  0
  187.8260  176.9920  137.4740 C   0  0  0  0  0  0  0  0  0  0  0  0
  188.6780  176.8730  138.7050 C   0  0  2  0  0  3  0  0  0  0  0  0
  188.4140  176.9280  136.1670 N   0  0  0  0  0  0  0  0  0  0  0  0
  1  9  1  0  0  0  0
  2  5  1  6  0  0  0
  2  3  1  0  0  0  0
  3  7  1  0  0  0  0
  4 11  1  0  0  0  0
  5 14  2  0  0  0  0
  6  1  2  0  0  0  0
  7  4  2  0  0  0  0
  8 12  1  0  0  0  0
  8 13  1  0  0  0  0
 10 19  1  0  0  0  0
 12 16  1  0  0  0  0
 13 18  1  6  0  0  0
 13  2  1  0  0  0  0
 14  1  1  0  0  0  0
 15  4  1  0  0  0  0
 16 17  2  0  0  0  0
 16  5  1  0  0  0  0
 17  6  1  0  0  0  0
 18 10  1  0  0  0  0
 19  3  2  0  0  0  0
 19 20  1  0  0  0  0
 20 15  2  0  0  0  0
 21  8  1  0  0  0  0
 23 22  1  6  0  0  0
 23 21  1  0  0  0  0
 24 31  2  0  0  0  0
 24 28  1  0  0  0  0
 25 30  1  0  0  0  0
 27 24  1  0  0  0  0
 28 25  1  0  0  0  0
 29 26  2  0  0  0  0
 29 30  1  0  0  0  0
 30 23  1  6  0  0  0
 31 29  1  0  0  0  0
M  END
>  <MODEL>
2

>  <REMARK>
 VINA RESULT:      -8.0      3.292      8.108
  Name = 
  3 active torsions:
  status: ('A' for Active; 'I' for Inactive)
    1  A    between atoms: C_5  and  C_16
    2  A    between atoms: C_5  and  C_30
    3  A    between atoms: N_10  and  C_16
                            x       y       z     vdW  Elec       q    Type
                         _______ _______ _______ _____ _____    ______ ____

>  <TORSDO>
F 3

$$$$
=
 OpenBabel11122411143D

 31 35  0  0  1  0  0  0  0  0999 V2000
  186.8790  177.6110  145.5980 C   0  0  0  0  0  0  0  0  0  0  0  0
  190.3980  177.7370  144.1460 C   0  0  2  0  0  3  0  0  0  0  0  0
  191.1280  176.9450  145.1870 C   0  0  0  0  0  0  0  0  0  0  0  0
  192.0010  176.7170  147.4290 C   0  0  0  0  0  0  0  0  0  0  0  0
  188.8950  177.5900  144.2450 C   0  0  0  0  0  0  0  0  0  0  0  0
  186.1040  177.4800  144.4390 C   0  0  0  0  0  3  0  0  0  0  0  0
  191.4210  177.5040  146.4350 C   0  0  0  0  0  3  0  0  0  0  0  0
  190.0690  178.0550  141.7360 N   0  0  0  0  0  0  0  0  0  0  0  0
  186.2820  177.6900  146.8200 F   0  0  0  0  0  0  0  0  0  0  0  0
  191.1640  175.0610  143.6870 O   0  0  0  0  0  0  0  0  0  0  0  0
  192.2990  177.2840  148.7020 N   0  0  0  0  0  1  0  0  0  0  0  0
  188.7360  177.4400  141.7080 C   0  0  0  0  0  2  0  0  0  0  0  0
  190.9200  177.3800  142.7420 C   0  0  2  0  0  3  0  0  0  0  0  0
  188.2640  177.6730  145.5000 C   0  0  0  0  0  3  0  0  0  0  0  0
  192.2660  175.3630  147.1930 C   0  0  0  0  0  3  0  0  0  0  0  0
  188.1020  177.5010  143.0730 C   0  0  0  0  0  0  0  0  0  0  0  0
  186.7150  177.4250  143.1780 C   0  0  0  0  0  3  0  0  0  0  0  0
  191.0830  175.8570  142.4880 C   0  0  0  0  0  2  0  0  0  0  0  0
  191.4260  175.6010  144.9390 C   0  0  0  0  0  0  0  0  0  0  0  0
  191.9760  174.8030  145.9490 C   0  0  0  0  0  3  0  0  0  0  0  0
  190.6600  177.9300  140.4130 C   0  0  0  0  0  2  0  0  0  0  0  0
  188.9940  179.1390  139.1890 O   0  0  0  0  0  1  0  0  0  0  0  0
  189.5560  177.8670  139.3610 C   0  0  1  0  0  3  0  0  0  0  0  0
  187.9970  175.7980  136.5510 C   0  0  0  0  0  0  0  0  0  0  0  0
  189.2770  177.9260  136.8340 C   0  0  0  0  0  2  0  0  0  0  0  0
  190.8330  175.1160  138.5230 O   0  0  0  0  0  0  0  0  0  0  0  0
  186.9690  175.0460  135.8140 C   0  0  0  0  0  1  0  0  0  0  0  0
  187.8980  177.2920  136.6380 C   0  0  0  0  0  2  0  0  0  0  0  0
  189.9640  175.8010  137.9330 C   0  0  0  0  0  0  0  0  0  0  0  0
  190.0220  177.2990  138.0150 C   0  0  2  0  0  3  0  0  0  0  0  0
  188.9340  175.1480  137.1760 N   0  0  0  0  0  0  0  0  0  0  0  0
  1  9  1  0  0  0  0
  2  5  1  6  0  0  0
  2  3  1  0  0  0  0
  3  7  1  0  0  0  0
  4 11  1  0  0  0  0
  5 14  2  0  0  0  0
  6  1  2  0  0  0  0
  7  4  2  0  0  0  0
  8 13  1  0  0  0  0
 10 19  1  0  0  0  0
 12  8  1  0  0  0  0
 12 16  1  0  0  0  0
 13 18  1  6  0  0  0
 13  2  1  0  0  0  0
 14  1  1  0  0  0  0
 15  4  1  0  0  0  0
 16 17  2  0  0  0  0
 16  5  1  0  0  0  0
 17  6  1  0  0  0  0
 18 10  1  0  0  0  0
 19  3  2  0  0  0  0
 19 20  1  0  0  0  0
 20 15  2  0  0  0  0
 21  8  1  0  0  0  0
 23 22  1  6  0  0  0
 23 21  1  0  0  0  0
 24 28  1  0  0  0  0
 24 31  2  0  0  0  0
 25 30  1  0  0  0  0
 27 24  1  0  0  0  0
 28 25  1  0  0  0  0
 29 30  1  0  0  0  0
 29 26  2  0  0  0  0
 30 23  1  1  0  0  0
 31 29  1  0  0  0  0
M  END
>  <MODEL>
3

>  <REMARK>
 VINA RESULT:      -7.9      3.129      8.122
  Name = 
  3 active torsions:
  status: ('A' for Active; 'I' for Inactive)
    1  A    between atoms: C_5  and  C_16
    2  A    between atoms: C_5  and  C_30
    3  A    between atoms: N_10  and  C_16
                            x       y       z     vdW  Elec       q    Type
                         _______ _______ _______ _____ _____    ______ ____

>  <TORSDO>
F 3

$$$$
=
 OpenBabel11122411143D

 31 35  0  0  1  0  0  0  0  0999 V2000
  190.9760  177.2460  142.0100 C   0  0  0  0  0  0  0  0  0  0  0  0
  190.2330  177.3880  138.2760 C   0  0  2  0  0  3  0  0  0  0  0  0
  191.1370  176.2930  137.7980 C   0  0  0  0  0  0  0  0  0  0  0  0
  193.3550  175.4290  137.3800 C   0  0  0  0  0  0  0  0  0  0  0  0
  190.0310  177.3680  139.7750 C   0  0  0  0  0  0  0  0  0  0  0  0
  189.7090  177.4850  142.5540 C   0  0  0  0  0  3  0  0  0  0  0  0
  192.5190  176.4910  137.7210 C   0  0  0  0  0  3  0  0  0  0  0  0
  187.9720  178.3290  138.1240 N   0  0  0  0  0  0  0  0  0  0  0  0
  192.0550  177.0750  142.8230 F   0  0  0  0  0  0  0  0  0  0  0  0
  189.2220  174.8500  137.5710 O   0  0  0  0  0  0  0  0  0  0  0  0
  194.7630  175.6280  137.3020 N   0  0  0  0  0  1  0  0  0  0  0  0
  187.5560  177.8730  139.4560 C   0  0  0  0  0  2  0  0  0  0  0  0
  188.8950  177.3440  137.5140 C   0  0  2  0  0  3  0  0  0  0  0  0
  191.1370  177.1960  140.6290 C   0  0  0  0  0  3  0  0  0  0  0  0
  192.8190  174.1570  137.1430 C   0  0  0  0  0  3  0  0  0  0  0  0
  188.7590  177.6520  140.3350 C   0  0  0  0  0  0  0  0  0  0  0  0
  188.6020  177.6880  141.7180 C   0  0  0  0  0  3  0  0  0  0  0  0
  188.2810  175.9250  137.3820 C   0  0  0  0  0  2  0  0  0  0  0  0
  190.5980  175.0320  137.5250 C   0  0  0  0  0  0  0  0  0  0  0  0
  191.4410  173.9570  137.2180 C   0  0  0  0  0  3  0  0  0  0  0  0
  186.7850  178.4820  137.2980 C   0  0  0  0  0  2  0  0  0  0  0  0
  185.1090  179.4230  138.7260 O   0  0  0  0  0  1  0  0  0  0  0  0
  185.5380  178.2250  138.1410 C   0  0  1  0  0  3  0  0  0  0  0  0
  182.3670  176.2750  139.0060 C   0  0  0  0  0  0  0  0  0  0  0  0
  183.0470  178.2470  137.6280 C   0  0  0  0  0  2  0  0  0  0  0  0
  185.1040  175.3230  137.0070 O   0  0  0  0  0  0  0  0  0  0  0  0
  181.3440  175.6280  139.8440 C   0  0  0  0  0  1  0  0  0  0  0  0
  182.4330  177.7730  138.9480 C   0  0  0  0  0  2  0  0  0  0  0  0
  184.2820  176.0870  137.5670 C   0  0  0  0  0  0  0  0  0  0  0  0
  184.3930  177.5700  137.3590 C   0  0  2  0  0  3  0  0  0  0  0  0
  183.2420  175.5380  138.3880 N   0  0  0  0  0  0  0  0  0  0  0  0
  1  6  1  0  0  0  0
  1  9  1  0  0  0  0
  2  3  1  6  0  0  0
  2  5  1  0  0  0  0
  4  7  2  0  0  0  0
  5 16  2  0  0  0  0
  5 14  1  0  0  0  0
  7  3  1  0  0  0  0
  8 12  1  0  0  0  0
 11  4  1  0  0  0  0
 12 16  1  0  0  0  0
 13 18  1  1  0  0  0
 13  8  1  0  0  0  0
 13  2  1  0  0  0  0
 14  1  2  0  0  0  0
 15 20  2  0  0  0  0
 15  4  1  0  0  0  0
 16 17  1  0  0  0  0
 17  6  2  0  0  0  0
 18 10  1  0  0  0  0
 19 10  1  0  0  0  0
 19  3  2  0  0  0  0
 20 19  1  0  0  0  0
 21  8  1  0  0  0  0
 21 23  1  0  0  0  0
 23 22  1  6  0  0  0
 24 27  1  0  0  0  0
 25 28  1  0  0  0  0
 26 29  2  0  0  0  0
 28 24  1  0  0  0  0
 29 31  1  0  0  0  0
 30 29  1  0  0  0  0
 30 25  1  0  0  0  0
 30 23  1  1  0  0  0
 31 24  2  0  0  0  0
M  END
>  <MODEL>
4

>  <REMARK>
 VINA RESULT:      -7.3      4.077      6.520
  Name = 
  3 active torsions:
  status: ('A' for Active; 'I' for Inactive)
    1  A    between atoms: C_5  and  C_16
    2  A    between atoms: C_5  and  C_30
    3  A    between atoms: N_10  and  C_16
                            x       y       z     vdW  Elec       q    Type
                         _______ _______ _______ _____ _____    ______ ____

>  <TORSDO>
F 3

$$$$
=
 OpenBabel11122411143D

 31 35  0  0  1  0  0  0  0  0999 V2000
  186.9760  177.3190  135.6720 C   0  0  0  0  0  0  0  0  0  0  0  0
  189.4010  175.6050  138.0570 C   0  0  2  0  0  3  0  0  0  0  0  0
  190.1340  174.7310  137.0850 C   0  0  0  0  0  0  0  0  0  0  0  0
  190.1860  172.8390  135.5830 C   0  0  0  0  0  0  0  0  0  0  0  0
  188.5840  176.6810  137.3760 C   0  0  0  0  0  0  0  0  0  0  0  0
  186.9420  178.6170  136.1960 C   0  0  0  0  0  3  0  0  0  0  0  0
  189.5340  173.5780  136.5690 C   0  0  0  0  0  3  0  0  0  0  0  0
  189.6550  177.1740  139.9260 N   0  0  0  0  0  0  0  0  0  0  0  0
  186.2110  176.9900  134.5940 F   0  0  0  0  0  0  0  0  0  0  0  0
  191.9940  176.2590  137.1580 O   0  0  0  0  0  0  0  0  0  0  0  0
  189.5760  171.6650  135.0540 N   0  0  0  0  0  1  0  0  0  0  0  0
  189.3260  178.3670  139.1350 C   0  0  0  0  0  2  0  0  0  0  0  0
  190.3820  176.1930  139.0880 C   0  0  2  0  0  3  0  0  0  0  0  0
  187.7860  176.3560  136.2630 C   0  0  0  0  0  3  0  0  0  0  0  0
  191.4260  173.2610  135.0880 C   0  0  0  0  0  3  0  0  0  0  0  0
  188.5110  177.9860  137.9260 C   0  0  0  0  0  0  0  0  0  0  0  0
  187.7080  178.9500  137.3210 C   0  0  0  0  0  3  0  0  0  0  0  0
  191.6920  176.7570  138.4760 C   0  0  0  0  0  2  0  0  0  0  0  0
  191.3890  175.1330  136.6170 C   0  0  0  0  0  0  0  0  0  0  0  0
  192.0270  174.4090  135.6020 C   0  0  0  0  0  3  0  0  0  0  0  0
  190.4790  177.5820  141.0520 C   0  0  0  0  0  2  0  0  0  0  0  0
  188.3210  178.2620  141.8370 O   0  0  0  0  0  1  0  0  0  0  0  0
  189.5930  177.8580  142.2640 C   0  0  1  0  0  3  0  0  0  0  0  0
  188.5490  177.3450  145.9050 C   0  0  0  0  0  0  0  0  0  0  0  0
  188.0370  176.3980  143.6480 C   0  0  0  0  0  2  0  0  0  0  0  0
  191.5980  176.5770  144.3220 O   0  0  0  0  0  0  0  0  0  0  0  0
  188.0700  177.6910  147.2530 C   0  0  0  0  0  1  0  0  0  0  0  0
  187.5840  177.3530  144.7550 C   0  0  0  0  0  2  0  0  0  0  0  0
  190.3660  176.7810  144.4360 C   0  0  0  0  0  0  0  0  0  0  0  0
  189.4830  176.6700  143.2270 C   0  0  2  0  0  3  0  0  0  0  0  0
  189.8140  177.1090  145.7200 N   0  0  0  0  0  0  0  0  0  0  0  0
  1  6  2  0  0  0  0
  1 14  1  0  0  0  0
  2  3  1  6  0  0  0
  2 13  1  0  0  0  0
  4  7  1  0  0  0  0
  5 16  1  0  0  0  0
  5  2  1  0  0  0  0
  6 17  1  0  0  0  0
  7  3  2  0  0  0  0
  8 21  1  0  0  0  0
  9  1  1  0  0  0  0
 10 18  1  0  0  0  0
 11  4  1  0  0  0  0
 12  8  1  0  0  0  0
 13 18  1  6  0  0  0
 13  8  1  0  0  0  0
 14  5  2  0  0  0  0
 15  4  2  0  0  0  0
 15 20  1  0  0  0  0
 16 12  1  0  0  0  0
 17 16  2  0  0  0  0
 19  3  1  0  0  0  0
 19 10  1  0  0  0  0
 20 19  2  0  0  0  0
 21 23  1  0  0  0  0
 23 22  1  6  0  0  0
 24 27  1  0  0  0  0
 25 28  1  0  0  0  0
 26 29  2  0  0  0  0
 28 24  1  0  0  0  0
 29 31  1  0  0  0  0
 30 23  1  1  0  0  0
 30 25  1  0  0  0  0
 30 29  1  0  0  0  0
 31 24  2  0  0  0  0
M  END
>  <MODEL>
5

>  <REMARK>
 VINA RESULT:      -7.3      1.666      2.110
  Name = 
  3 active torsions:
  status: ('A' for Active; 'I' for Inactive)
    1  A    between atoms: C_5  and  C_16
    2  A    between atoms: C_5  and  C_30
    3  A    between atoms: N_10  and  C_16
                            x       y       z     vdW  Elec       q    Type
                         _______ _______ _______ _____ _____    ______ ____

>  <TORSDO>
F 3

$$$$
=
 OpenBabel11122411143D

 31 35  0  0  1  0  0  0  0  0999 V2000
  186.2830  177.8010  144.9160 C   0  0  0  0  0  0  0  0  0  0  0  0
  189.5590  178.1410  143.0040 C   0  0  2  0  0  3  0  0  0  0  0  0
  190.4190  177.2190  143.8120 C   0  0  0  0  0  0  0  0  0  0  0  0
  191.6010  176.6940  145.8530 C   0  0  0  0  0  0  0  0  0  0  0  0
  188.0840  177.9740  143.2960 C   0  0  0  0  0  0  0  0  0  0  0  0
  185.3480  177.8250  143.8740 C   0  0  0  0  0  3  0  0  0  0  0  0
  190.8960  177.6050  145.0690 C   0  0  0  0  0  3  0  0  0  0  0  0
  188.8930  178.7810  140.7300 N   0  0  0  0  0  0  0  0  0  0  0  0
  185.8690  177.7110  146.2110 F   0  0  0  0  0  0  0  0  0  0  0  0
  190.2120  175.5560  142.0820 O   0  0  0  0  0  0  0  0  0  0  0  0
  192.0860  177.0850  147.1350 N   0  0  0  0  0  1  0  0  0  0  0  0
  187.5610  178.1680  140.8120 C   0  0  0  0  0  2  0  0  0  0  0  0
  189.8700  177.9800  141.5040 C   0  0  2  0  0  3  0  0  0  0  0  0
  187.6410  177.8830  144.6290 C   0  0  0  0  0  3  0  0  0  0  0  0
  191.8100  175.3850  145.4020 C   0  0  0  0  0  3  0  0  0  0  0  0
  187.1300  178.0400  142.2500 C   0  0  0  0  0  0  0  0  0  0  0  0
  185.7720  177.9440  142.5430 C   0  0  0  0  0  3  0  0  0  0  0  0
  189.9720  176.5070  141.0260 C   0  0  0  0  0  2  0  0  0  0  0  0
  190.6590  175.9220  143.3450 C   0  0  0  0  0  0  0  0  0  0  0  0
  191.3360  174.9980  144.1490 C   0  0  0  0  0  3  0  0  0  0  0  0
  189.2870  178.8400  139.3320 C   0  0  0  0  0  2  0  0  0  0  0  0
  187.1890  178.8230  138.1780 O   0  0  0  0  0  1  0  0  0  0  0  0
  188.3030  178.0330  138.4870 C   0  0  1  0  0  3  0  0  0  0  0  0
  188.7010  174.5590  136.9450 C   0  0  0  0  0  0  0  0  0  0  0  0
  187.8710  176.8260  136.2920 C   0  0  0  0  0  2  0  0  0  0  0  0
  191.1660  176.9190  137.8090 O   0  0  0  0  0  0  0  0  0  0  0  0
  188.5810  173.0980  136.8130 C   0  0  0  0  0  1  0  0  0  0  0  0
  187.4860  175.4190  136.7570 C   0  0  0  0  0  2  0  0  0  0  0  0
  190.0430  176.4860  137.4600 C   0  0  0  0  0  0  0  0  0  0  0  0
  188.9220  177.4540  137.2100 C   0  0  2  0  0  3  0  0  0  0  0  0
  189.8430  175.0740  137.2920 N   0  0  0  0  0  0  0  0  0  0  0  0
  1  9  1  0  0  0  0
  2  5  1  6  0  0  0
  2  3  1  0  0  0  0
  3  7  1  0  0  0  0
  4 11  1  0  0  0  0
  5 14  2  0  0  0  0
  6  1  2  0  0  0  0
  7  4  2  0  0  0  0
  8 12  1  0  0  0  0
  8 13  1  0  0  0  0
 10 19  1  0  0  0  0
 12 16  1  0  0  0  0
 13 18  1  6  0  0  0
 13  2  1  0  0  0  0
 14  1  1  0  0  0  0
 15  4  1  0  0  0  0
 16 17  2  0  0  0  0
 16  5  1  0  0  0  0
 17  6  1  0  0  0  0
 18 10  1  0  0  0  0
 19  3  2  0  0  0  0
 19 20  1  0  0  0  0
 20 15  2  0  0  0  0
 21  8  1  0  0  0  0
 23 22  1  6  0  0  0
 23 21  1  0  0  0  0
 24 31  2  0  0  0  0
 25 28  1  0  0  0  0
 25 30  1  0  0  0  0
 27 24  1  0  0  0  0
 28 24  1  0  0  0  0
 29 26  2  0  0  0  0
 30 29  1  0  0  0  0
 30 23  1  1  0  0  0
 31 29  1  0  0  0  0
M  END
>  <MODEL>
6

>  <REMARK>
 VINA RESULT:      -7.3      3.069      7.625
  Name = 
  3 active torsions:
  status: ('A' for Active; 'I' for Inactive)
    1  A    between atoms: C_5  and  C_16
    2  A    between atoms: C_5  and  C_30
    3  A    between atoms: N_10  and  C_16
                            x       y       z     vdW  Elec       q    Type
                         _______ _______ _______ _____ _____    ______ ____

>  <TORSDO>
F 3

$$$$
=
 OpenBabel11122411143D

 31 35  0  0  1  0  0  0  0  0999 V2000
  189.0500  178.0540  142.0810 C   0  0  0  0  0  0  0  0  0  0  0  0
  185.6490  177.6610  143.7520 C   0  0  2  0  0  3  0  0  0  0  0  0
  186.0170  178.0240  145.1580 C   0  0  0  0  0  0  0  0  0  0  0  0
  187.1540  177.5230  147.2300 C   0  0  0  0  0  0  0  0  0  0  0  0
  186.7150  178.0480  142.7500 C   0  0  0  0  0  0  0  0  0  0  0  0
  188.6910  178.6080  140.8460 C   0  0  0  0  0  3  0  0  0  0  0  0
  186.7250  177.1270  145.9650 C   0  0  0  0  0  3  0  0  0  0  0  0
  184.0220  178.0210  141.9510 N   0  0  0  0  0  0  0  0  0  0  0  0
  190.3550  177.7800  142.3610 F   0  0  0  0  0  0  0  0  0  0  0  0
  185.0020  180.1840  144.8370 O   0  0  0  0  0  0  0  0  0  0  0  0
  187.8770  176.6110  148.0530 N   0  0  0  0  0  1  0  0  0  0  0  0
  184.9170  178.8530  141.1370 C   0  0  0  0  0  2  0  0  0  0  0  0
  184.2760  178.2580  143.3900 C   0  0  2  0  0  3  0  0  0  0  0  0
  188.0670  177.7690  143.0230 C   0  0  0  0  0  3  0  0  0  0  0  0
  186.9050  178.8220  147.6870 C   0  0  0  0  0  3  0  0  0  0  0  0
  186.3560  178.5690  141.4810 C   0  0  0  0  0  0  0  0  0  0  0  0
  187.3460  178.8650  140.5470 C   0  0  0  0  0  3  0  0  0  0  0  0
  184.0920  179.7410  143.8110 C   0  0  0  0  0  2  0  0  0  0  0  0
  185.7350  179.3110  145.6290 C   0  0  0  0  0  0  0  0  0  0  0  0
  186.1980  179.7180  146.8860 C   0  0  0  0  0  3  0  0  0  0  0  0
  182.6490  178.3630  141.6200 C   0  0  0  0  0  2  0  0  0  0  0  0
  182.6800  176.4420  140.1910 O   0  0  0  0  0  1  0  0  0  0  0  0
  182.2910  177.7860  140.2520 C   0  0  1  0  0  3  0  0  0  0  0  0
  179.5560  180.3910  140.8330 C   0  0  0  0  0  0  0  0  0  0  0  0
  180.5560  179.1020  138.9390 C   0  0  0  0  0  2  0  0  0  0  0  0
  179.6370  176.9920  141.7450 O   0  0  0  0  0  0  0  0  0  0  0  0
  178.9310  181.6380  141.3050 C   0  0  0  0  0  1  0  0  0  0  0  0
  180.5200  180.4390  139.6850 C   0  0  0  0  0  2  0  0  0  0  0  0
  179.8980  178.0250  141.0850 C   0  0  0  0  0  0  0  0  0  0  0  0
  180.8070  177.9320  139.8930 C   0  0  2  0  0  3  0  0  0  0  0  0
  179.3170  179.2810  141.4670 N   0  0  0  0  0  0  0  0  0  0  0  0
  1  9  1  0  0  0  0
  1 14  1  0  0  0  0
  2  5  1  6  0  0  0
  2  3  1  0  0  0  0
  3 19  2  0  0  0  0
  3  7  1  0  0  0  0
  4 15  1  0  0  0  0
  4 11  1  0  0  0  0
  5 14  2  0  0  0  0
  6  1  2  0  0  0  0
  7  4  2  0  0  0  0
  8 13  1  0  0  0  0
 10 19  1  0  0  0  0
 12 16  1  0  0  0  0
 12  8  1  0  0  0  0
 13  2  1  0  0  0  0
 13 18  1  6  0  0  0
 16  5  1  0  0  0  0
 17  6  1  0  0  0  0
 17 16  2  0  0  0  0
 18 10  1  0  0  0  0
 19 20  1  0  0  0  0
 20 15  2  0  0  0  0
 21  8  1  0  0  0  0
 23 22  1  1  0  0  0
 23 21  1  0  0  0  0
 24 27  1  0  0  0  0
 24 31  2  0  0  0  0
 25 28  1  0  0  0  0
 25 30  1  0  0  0  0
 28 24  1  0  0  0  0
 29 31  1  0  0  0  0
 29 26  2  0  0  0  0
 30 23  1  1  0  0  0
 30 29  1  0  0  0  0
M  END
>  <MODEL>
7

>  <REMARK>
 VINA RESULT:      -7.2      5.891      9.644
  Name = 
  3 active torsions:
  status: ('A' for Active; 'I' for Inactive)
    1  A    between atoms: C_5  and  C_16
    2  A    between atoms: C_5  and  C_30
    3  A    between atoms: N_10  and  C_16
                            x       y       z     vdW  Elec       q    Type
                         _______ _______ _______ _____ _____    ______ ____

>  <TORSDO>
F 3

$$$$
=
 OpenBabel11122411143D

 31 35  0  0  1  0  0  0  0  0999 V2000
  189.0120  178.0730  142.0930 C   0  0  0  0  0  0  0  0  0  0  0  0
  185.6630  177.6620  143.8610 C   0  0  2  0  0  3  0  0  0  0  0  0
  186.0700  178.0230  145.2570 C   0  0  0  0  0  0  0  0  0  0  0  0
  187.2700  177.5230  147.2940 C   0  0  0  0  0  0  0  0  0  0  0  0
  186.6980  178.0550  142.8290 C   0  0  0  0  0  0  0  0  0  0  0  0
  188.6150  178.6280  140.8700 C   0  0  0  0  0  3  0  0  0  0  0  0
  186.8060  177.1280  146.0410 C   0  0  0  0  0  3  0  0  0  0  0  0
  183.9830  178.0170  142.1090 N   0  0  0  0  0  0  0  0  0  0  0  0
  190.3260  177.8050  142.3340 F   0  0  0  0  0  0  0  0  0  0  0  0
  185.0370  180.1790  144.9700 O   0  0  0  0  0  0  0  0  0  0  0  0
  188.0210  176.6130  148.0930 N   0  0  0  0  0  1  0  0  0  0  0  0
  184.8500  178.8550  141.2710 C   0  0  0  0  0  2  0  0  0  0  0  0
  184.2780  178.2530  143.5410 C   0  0  2  0  0  3  0  0  0  0  0  0
  188.0590  177.7820  143.0630 C   0  0  0  0  0  3  0  0  0  0  0  0
  187.0280  178.8210  147.7610 C   0  0  0  0  0  3  0  0  0  0  0  0
  186.3000  178.5770  141.5720 C   0  0  0  0  0  0  0  0  0  0  0  0
  187.2600  178.8790  140.6110 C   0  0  0  0  0  3  0  0  0  0  0  0
  184.0990  179.7340  143.9700 C   0  0  0  0  0  2  0  0  0  0  0  0
  185.7960  179.3080  145.7380 C   0  0  0  0  0  0  0  0  0  0  0  0
  186.2930  179.7140  146.9820 C   0  0  0  0  0  3  0  0  0  0  0  0
  182.5990  178.3540  141.8190 C   0  0  0  0  0  2  0  0  0  0  0  0
  182.6290  176.9900  139.8500 O   0  0  0  0  0  1  0  0  0  0  0  0
  182.3580  178.2840  140.3130 C   0  0  1  0  0  3  0  0  0  0  0  0
  180.8490  181.0770  138.1840 C   0  0  0  0  0  0  0  0  0  0  0  0
  180.7260  178.5880  138.3870 C   0  0  0  0  0  2  0  0  0  0  0  0
  180.2740  180.2810  141.5650 O   0  0  0  0  0  0  0  0  0  0  0  0
  180.8060  182.2640  137.3160 C   0  0  0  0  0  1  0  0  0  0  0  0
  181.3290  179.7710  137.6240 C   0  0  0  0  0  2  0  0  0  0  0  0
  180.5720  180.0960  140.3610 C   0  0  0  0  0  0  0  0  0  0  0  0
  180.9480  178.7190  139.8960 C   0  0  2  0  0  3  0  0  0  0  0  0
  180.5390  181.1980  139.4420 N   0  0  0  0  0  0  0  0  0  0  0  0
  1  9  1  0  0  0  0
  1 14  1  0  0  0  0
  2  5  1  6  0  0  0
  2  3  1  0  0  0  0
  3 19  2  0  0  0  0
  3  7  1  0  0  0  0
  4 15  1  0  0  0  0
  4 11  1  0  0  0  0
  5 14  2  0  0  0  0
  6  1  2  0  0  0  0
  7  4  2  0  0  0  0
  8 13  1  0  0  0  0
 10 19  1  0  0  0  0
 12 16  1  0  0  0  0
 12  8  1  0  0  0  0
 13  2  1  0  0  0  0
 13 18  1  6  0  0  0
 16  5  1  0  0  0  0
 17  6  1  0  0  0  0
 17 16  2  0  0  0  0
 18 10  1  0  0  0  0
 19 20  1  0  0  0  0
 20 15  2  0  0  0  0
 21  8  1  0  0  0  0
 23 22  1  1  0  0  0
 23 21  1  0  0  0  0
 24 31  2  0  0  0  0
 25 30  1  0  0  0  0
 27 24  1  0  0  0  0
 28 24  1  0  0  0  0
 28 25  1  0  0  0  0
 29 26  2  0  0  0  0
 30 23  1  6  0  0  0
 30 29  1  0  0  0  0
 31 29  1  0  0  0  0
M  END
>  <MODEL>
8

>  <REMARK>
 VINA RESULT:      -7.1      5.543      9.779
  Name = 
  3 active torsions:
  status: ('A' for Active; 'I' for Inactive)
    1  A    between atoms: C_5  and  C_16
    2  A    between atoms: C_5  and  C_30
    3  A    between atoms: N_10  and  C_16
                            x       y       z     vdW  Elec       q    Type
                         _______ _______ _______ _____ _____    ______ ____

>  <TORSDO>
F 3

$$$$
=
 OpenBabel11122411143D

 31 35  0  0  1  0  0  0  0  0999 V2000
  191.2370  177.4230  141.8890 C   0  0  0  0  0  0  0  0  0  0  0  0
  190.3300  177.4210  138.1900 C   0  0  2  0  0  3  0  0  0  0  0  0
  191.2430  176.3350  137.7080 C   0  0  0  0  0  0  0  0  0  0  0  0
  193.4630  175.5170  137.2200 C   0  0  0  0  0  0  0  0  0  0  0  0
  190.1930  177.4450  139.6960 C   0  0  0  0  0  0  0  0  0  0  0  0
  189.9880  177.6460  142.4820 C   0  0  0  0  0  3  0  0  0  0  0  0
  192.6140  176.5680  137.5630 C   0  0  0  0  0  3  0  0  0  0  0  0
  188.0390  178.2950  138.1070 N   0  0  0  0  0  0  0  0  0  0  0  0
  192.3550  177.3070  142.6590 F   0  0  0  0  0  0  0  0  0  0  0  0
  189.3610  174.8350  137.6110 O   0  0  0  0  0  0  0  0  0  0  0  0
  194.8610  175.7510  137.0740 N   0  0  0  0  0  1  0  0  0  0  0  0
  187.6930  177.8730  139.4700 C   0  0  0  0  0  2  0  0  0  0  0  0
  188.9620  177.3160  137.4900 C   0  0  2  0  0  3  0  0  0  0  0  0
  191.3390  177.3310  140.5060 C   0  0  0  0  0  3  0  0  0  0  0  0
  192.9540  174.2240  137.0480 C   0  0  0  0  0  3  0  0  0  0  0  0
  188.9390  177.7140  140.3020 C   0  0  0  0  0  0  0  0  0  0  0  0
  188.8410  177.7910  141.6890 C   0  0  0  0  0  3  0  0  0  0  0  0
  188.3820  175.8770  137.4300 C   0  0  0  0  0  2  0  0  0  0  0  0
  190.7280  175.0510  137.5000 C   0  0  0  0  0  0  0  0  0  0  0  0
  191.5870  173.9900  137.1900 C   0  0  0  0  0  3  0  0  0  0  0  0
  186.8140  178.3890  137.3300 C   0  0  0  0  0  2  0  0  0  0  0  0
  184.8250  179.3640  138.2420 O   0  0  0  0  0  1  0  0  0  0  0  0
  185.6080  178.2030  138.2490 C   0  0  1  0  0  3  0  0  0  0  0  0
  182.5320  177.5070  136.0900 C   0  0  0  0  0  0  0  0  0  0  0  0
  184.8440  176.6140  136.4170 C   0  0  0  0  0  2  0  0  0  0  0  0
  183.0190  176.9600  139.5340 O   0  0  0  0  0  0  0  0  0  0  0  0
  181.4150  177.7790  135.1710 C   0  0  0  0  0  1  0  0  0  0  0  0
  183.9370  177.5040  135.5630 C   0  0  0  0  0  2  0  0  0  0  0  0
  183.3190  177.0940  138.3240 C   0  0  0  0  0  0  0  0  0  0  0  0
  184.7550  176.9770  137.9000 C   0  0  2  0  0  3  0  0  0  0  0  0
  182.2880  177.3450  137.3570 N   0  0  0  0  0  0  0  0  0  0  0  0
  1  6  1  0  0  0  0
  1  9  1  0  0  0  0
  2  3  1  1  0  0  0
  2  5  1  0  0  0  0
  4  7  2  0  0  0  0
  5 16  2  0  0  0  0
  5 14  1  0  0  0  0
  7  3  1  0  0  0  0
  8 12  1  0  0  0  0
 11  4  1  0  0  0  0
 12 16  1  0  0  0  0
 13 18  1  1  0  0  0
 13  8  1  0  0  0  0
 13  2  1  0  0  0  0
 14  1  2  0  0  0  0
 15 20  2  0  0  0  0
 15  4  1  0  0  0  0
 16 17  1  0  0  0  0
 17  6  2  0  0  0  0
 18 10  1  0  0  0  0
 19 10  1  0  0  0  0
 19  3  2  0  0  0  0
 20 19  1  0  0  0  0
 21  8  1  0  0  0  0
 21 23  1  0  0  0  0
 23 22  1  6  0  0  0
 24 31  2  0  0  0  0
 25 30  1  0  0  0  0
 27 24  1  0  0  0  0
 28 24  1  0  0  0  0
 28 25  1  0  0  0  0
 29 26  2  0  0  0  0
 30 23  1  6  0  0  0
 30 29  1  0  0  0  0
 31 29  1  0  0  0  0
M  END
>  <MODEL>
9

>  <REMARK>
 VINA RESULT:      -7.0      3.923      6.899
  Name = 
  3 active torsions:
  status: ('A' for Active; 'I' for Inactive)
    1  A    between atoms: C_5  and  C_16
    2  A    between atoms: C_5  and  C_30
    3  A    between atoms: N_10  and  C_16
                            x       y       z     vdW  Elec       q    Type
                         _______ _______ _______ _____ _____    ______ ____

>  <TORSDO>
F 3

$$$$
