=
 OpenBabel11122410493D

 32 37  0  0  1  0  0  0  0  0999 V2000
  184.7310  177.9580  137.8540 C   0  0  1  0  0  3  0  0  0  0  0  0
  182.8760  175.4920  134.7810 C   0  0  0  0  0  2  0  0  0  0  0  0
  184.2350  174.8450  134.6280 C   0  0  0  0  0  2  0  0  0  0  0  0
  187.1300  177.9970  136.8870 C   0  0  0  0  0  0  0  0  0  0  0  0
  188.3340  177.1680  136.7930 C   0  0  2  0  0  3  0  0  0  0  0  0
  184.1490  179.0360  140.1070 C   0  0  2  0  0  3  0  0  0  0  0  0
  182.3880  177.6940  138.7500 C   0  0  0  0  0  2  0  0  0  0  0  0
  189.4960  175.1970  136.3340 C   0  0  1  0  0  3  0  0  0  0  0  0
  182.9460  176.5190  135.8960 C   0  0  0  0  0  2  0  0  0  0  0  0
  183.6440  176.9630  138.2750 C   0  0  1  0  0  3  0  0  0  0  0  0
  183.4020  175.8770  137.2200 C   0  0  2  0  0  3  0  0  0  0  0  0
  185.9160  175.7770  137.2390 C   0  0  1  0  0  3  0  0  0  0  0  0
  190.3470  176.4460  136.1020 C   0  0  0  0  0  2  0  0  0  0  0  0
  182.7190  179.0000  139.5060 C   0  0  2  0  0  3  0  0  0  0  0  0
  189.4340  177.5650  136.2590 N   0  0  0  0  0  2  0  0  0  0  0  0
  184.5810  174.1250  135.9240 C   0  0  0  0  0  2  0  0  0  0  0  0
  184.6300  175.0460  137.0720 N   0  0  2  0  0  0  0  0  0  0  0  0
  187.0360  175.1600  136.5120 N   0  0  0  0  0  2  0  0  0  0  0  0
  185.2660  178.6480  139.1120 C   0  0  0  0  0  2  0  0  0  0  0  0
  187.1990  179.2500  136.7780 O   0  0  0  0  0  0  0  0  0  0  0  0
  190.2480  174.2130  137.2060 C   0  0  0  0  0  1  0  0  0  0  0  0
  185.7960  177.2960  136.9540 C   0  0  1  0  0  3  0  0  0  0  0  0
  188.2700  175.7140  137.0670 C   0  0  2  0  0  3  0  0  0  0  0  0
  181.3920  179.8920  137.6000 C   0  0  0  0  0  2  0  0  0  0  0  0
  182.4950  180.1970  138.5950 C   0  0  1  0  0  3  0  0  0  0  0  0
  181.0980  180.7430  138.8160 C   0  0  1  0  0  3  0  0  0  0  0  0
  181.0740  182.2070  138.4210 C   0  0  0  0  0  2  0  0  0  0  0  0
  179.6700  182.6980  138.3820 C   0  0  0  0  0  0  0  0  0  0  0  0
  179.1660  183.2730  137.2220 O   0  0  0  0  0  0  0  0  0  0  0  0
  178.9480  182.6240  139.4100 O   0  0  0  0  0  1  0  0  0  0  0  0
  183.3230  178.6830  142.4340 C   0  0  0  0  0  1  0  0  0  0  0  0
  184.2420  178.1600  141.3450 C   0  0  0  0  0  2  0  0  0  0  0  0
  1 10  1  0  0  0  0
  1 19  1  1  0  0  0
  2  9  1  0  0  0  0
  3  2  1  0  0  0  0
  3 16  1  0  0  0  0
  5 15  1  6  0  0  0
  5  4  1  0  0  0  0
  5 23  1  0  0  0  0
  6 32  1  1  0  0  0
  8 23  1  0  0  0  0
  8 21  1  1  0  0  0
 10  7  1  6  0  0  0
 11  9  1  6  0  0  0
 11 10  1  0  0  0  0
 12 18  1  6  0  0  0
 13 15  1  0  0  0  0
 13  8  1  0  0  0  0
 14  7  1  6  0  0  0
 14  6  1  0  0  0  0
 17 16  1  6  0  0  0
 17 11  1  0  0  0  0
 17 12  1  0  0  0  0
 19  6  1  0  0  0  0
 20  4  2  0  0  0  0
 22  4  1  1  0  0  0
 22 12  1  0  0  0  0
 22  1  1  0  0  0  0
 23 18  1  6  0  0  0
 24 26  1  0  0  0  0
 25 24  1  6  0  0  0
 25 26  1  0  0  0  0
 25 14  1  0  0  0  0
 26 27  1  6  0  0  0
 28 27  1  0  0  0  0
 28 30  1  0  0  0  0
 29 28  2  0  0  0  0
 32 31  1  0  0  0  0
M  END
>  <MODEL>
1

>  <REMARK>
 VINA RESULT:      -5.9      0.000      0.000
  Name = 
  4 active torsions:
  status: ('A' for Active; 'I' for Inactive)
    1  A    between atoms: C_7  and  C_19
    2  A    between atoms: C_10  and  C_17
    3  A    between atoms: C_20  and  C_29
    4  A    between atoms: C_29  and  C_30
                            x       y       z     vdW  Elec       q    Type
                         _______ _______ _______ _____ _____    ______ ____

>  <TORSDO>
F 4

$$$$
=
 OpenBabel11122410493D

 32 37  0  0  1  0  0  0  0  0999 V2000
  183.7020  177.5120  137.8490 C   0  0  1  0  0  3  0  0  0  0  0  0
  180.6320  175.1010  135.9180 C   0  0  0  0  0  2  0  0  0  0  0  0
  181.7290  174.0840  135.6800 C   0  0  0  0  0  2  0  0  0  0  0  0
  185.7290  176.6920  136.4660 C   0  0  0  0  0  0  0  0  0  0  0  0
  186.6520  175.5590  136.3600 C   0  0  2  0  0  3  0  0  0  0  0  0
  183.9590  179.1320  139.8190 C   0  0  2  0  0  3  0  0  0  0  0  0
  181.6600  178.0910  139.2100 C   0  0  0  0  0  2  0  0  0  0  0  0
  187.1880  173.2930  136.2070 C   0  0  1  0  0  3  0  0  0  0  0  0
  181.2080  176.2670  136.6990 C   0  0  0  0  0  2  0  0  0  0  0  0
  182.5590  176.9620  138.7080 C   0  0  1  0  0  3  0  0  0  0  0  0
  181.8240  175.7990  138.0320 C   0  0  2  0  0  3  0  0  0  0  0  0
  184.1730  175.0120  137.5970 C   0  0  1  0  0  3  0  0  0  0  0  0
  188.2130  174.1860  135.5070 C   0  0  0  0  0  2  0  0  0  0  0  0
  182.4540  179.3770  139.5300 C   0  0  2  0  0  3  0  0  0  0  0  0
  187.6450  175.5220  135.5430 N   0  0  0  0  0  2  0  0  0  0  0  0
  182.2150  173.5680  137.0270 C   0  0  0  0  0  2  0  0  0  0  0  0
  182.7550  174.6480  137.8710 N   0  0  2  0  0  0  0  0  0  0  0  0
  184.9070  173.9770  136.8530 N   0  0  0  0  0  2  0  0  0  0  0  0
  184.6760  178.2610  138.7630 C   0  0  0  0  0  2  0  0  0  0  0  0
  186.0490  177.8290  136.0290 O   0  0  0  0  0  0  0  0  0  0  0  0
  187.8920  172.3320  137.1430 C   0  0  0  0  0  1  0  0  0  0  0  0
  184.3310  176.4160  136.9620 C   0  0  1  0  0  3  0  0  0  0  0  0
  186.3330  174.2640  137.0030 C   0  0  2  0  0  3  0  0  0  0  0  0
  180.9330  180.2010  137.7430 C   0  0  0  0  0  2  0  0  0  0  0  0
  182.2860  180.3840  138.4030 C   0  0  1  0  0  3  0  0  0  0  0  0
  181.1430  181.3240  138.7350 C   0  0  1  0  0  3  0  0  0  0  0  0
  181.3500  182.6300  137.9930 C   0  0  0  0  0  2  0  0  0  0  0  0
  180.0360  183.2750  137.7270 C   0  0  0  0  0  0  0  0  0  0  0  0
  179.0290  183.2220  138.6820 O   0  0  0  0  0  1  0  0  0  0  0  0
  179.8240  183.8400  136.6230 O   0  0  0  0  0  0  0  0  0  0  0  0
  185.4720  178.9980  141.7980 C   0  0  0  0  0  1  0  0  0  0  0  0
  184.1590  178.5280  141.1990 C   0  0  0  0  0  2  0  0  0  0  0  0
  1 10  1  0  0  0  0
  1 19  1  1  0  0  0
  2  9  1  0  0  0  0
  3  2  1  0  0  0  0
  3 16  1  0  0  0  0
  5 15  1  6  0  0  0
  5  4  1  0  0  0  0
  5 23  1  0  0  0  0
  6 32  1  1  0  0  0
  8 23  1  0  0  0  0
  8 21  1  1  0  0  0
 10  7  1  6  0  0  0
 11  9  1  6  0  0  0
 11 10  1  0  0  0  0
 12 18  1  6  0  0  0
 12 17  1  0  0  0  0
 13 15  1  0  0  0  0
 13  8  1  0  0  0  0
 14  7  1  6  0  0  0
 14  6  1  0  0  0  0
 17 16  1  6  0  0  0
 17 11  1  0  0  0  0
 19  6  1  0  0  0  0
 20  4  2  0  0  0  0
 22  4  1  1  0  0  0
 22 12  1  0  0  0  0
 22  1  1  0  0  0  0
 23 18  1  6  0  0  0
 24 26  1  0  0  0  0
 25 24  1  6  0  0  0
 25 26  1  0  0  0  0
 25 14  1  0  0  0  0
 26 27  1  6  0  0  0
 28 27  1  0  0  0  0
 28 29  1  0  0  0  0
 30 28  2  0  0  0  0
 32 31  1  0  0  0  0
M  END
>  <MODEL>
2

>  <REMARK>
 VINA RESULT:      -5.4      1.571      1.974
  Name = 
  4 active torsions:
  status: ('A' for Active; 'I' for Inactive)
    1  A    between atoms: C_7  and  C_19
    2  A    between atoms: C_10  and  C_17
    3  A    between atoms: C_20  and  C_29
    4  A    between atoms: C_29  and  C_30
                            x       y       z     vdW  Elec       q    Type
                         _______ _______ _______ _____ _____    ______ ____

>  <TORSDO>
F 4

$$$$
=
 OpenBabel11122410493D

 32 37  0  0  1  0  0  0  0  0999 V2000
  188.1250  176.2470  137.6190 C   0  0  1  0  0  3  0  0  0  0  0  0
  189.2240  177.2270  141.7180 C   0  0  0  0  0  2  0  0  0  0  0  0
  190.6300  176.8240  141.3260 C   0  0  0  0  0  2  0  0  0  0  0  0
  189.8890  174.4010  137.2030 C   0  0  0  0  0  0  0  0  0  0  0  0
  191.3090  174.2330  136.8870 C   0  0  2  0  0  3  0  0  0  0  0  0
  186.5400  177.0620  135.7760 C   0  0  2  0  0  3  0  0  0  0  0  0
  186.5740  178.1720  138.1230 C   0  0  0  0  0  2  0  0  0  0  0  0
  193.5890  174.6340  137.1840 C   0  0  1  0  0  3  0  0  0  0  0  0
  188.3260  177.1150  140.5000 C   0  0  0  0  0  2  0  0  0  0  0  0
  188.0300  177.7090  138.0700 C   0  0  1  0  0  3  0  0  0  0  0  0
  188.8450  177.9850  139.3400 C   0  0  2  0  0  3  0  0  0  0  0  0
  190.6000  176.6900  138.0860 C   0  0  1  0  0  3  0  0  0  0  0  0
  193.3070  173.2370  136.6300 C   0  0  0  0  0  2  0  0  0  0  0  0
  185.7180  177.5450  137.0000 C   0  0  2  0  0  3  0  0  0  0  0  0
  191.8630  173.0920  136.6750 N   0  0  0  0  0  2  0  0  0  0  0  0
  191.1350  177.7910  140.2640 C   0  0  0  0  0  2  0  0  0  0  0  0
  190.2920  177.7770  139.0570 N   0  0  2  0  0  0  0  0  0  0  0  0
  191.9310  176.0940  138.2820 N   0  0  0  0  0  2  0  0  0  0  0  0
  187.7540  176.1760  136.1350 C   0  0  0  0  0  2  0  0  0  0  0  0
  189.0570  173.4930  136.9400 O   0  0  0  0  0  0  0  0  0  0  0  0
  194.6360  175.3260  136.3350 C   0  0  0  0  0  1  0  0  0  0  0  0
  189.4840  175.6190  137.9960 C   0  0  1  0  0  3  0  0  0  0  0  0
  192.2580  175.3570  137.0620 C   0  0  2  0  0  3  0  0  0  0  0  0
  183.7500  176.9620  138.4050 C   0  0  0  0  0  2  0  0  0  0  0  0
  184.8800  176.4070  137.5610 C   0  0  1  0  0  3  0  0  0  0  0  0
  183.4760  176.4880  136.9940 C   0  0  1  0  0  3  0  0  0  0  0  0
  182.8500  175.1080  137.0310 C   0  0  0  0  0  2  0  0  0  0  0  0
  181.3800  175.2240  137.2330 C   0  0  0  0  0  0  0  0  0  0  0  0
  180.7840  174.6530  138.3500 O   0  0  0  0  0  1  0  0  0  0  0  0
  180.6720  175.8090  136.3740 O   0  0  0  0  0  0  0  0  0  0  0  0
  188.4750  178.1100  134.6020 C   0  0  0  0  0  1  0  0  0  0  0  0
  186.9980  178.2370  134.9280 C   0  0  0  0  0  2  0  0  0  0  0  0
  1 19  1  6  0  0  0
  1 22  1  0  0  0  0
  1 10  1  0  0  0  0
  3  2  1  0  0  0  0
  5 15  1  1  0  0  0
  5 23  1  0  0  0  0
  5  4  1  0  0  0  0
  6 32  1  1  0  0  0
  6 19  1  0  0  0  0
  6 14  1  0  0  0  0
  8 21  1  6  0  0  0
  9  2  1  0  0  0  0
 10  7  1  1  0  0  0
 10 11  1  0  0  0  0
 11  9  1  1  0  0  0
 12 18  1  1  0  0  0
 12 17  1  0  0  0  0
 13 15  1  0  0  0  0
 13  8  1  0  0  0  0
 14 25  1  0  0  0  0
 14  7  1  1  0  0  0
 16  3  1  0  0  0  0
 17 11  1  0  0  0  0
 17 16  1  1  0  0  0
 20  4  2  0  0  0  0
 22  4  1  6  0  0  0
 22 12  1  0  0  0  0
 23  8  1  0  0  0  0
 23 18  1  1  0  0  0
 25 24  1  1  0  0  0
 26 27  1  1  0  0  0
 26 25  1  0  0  0  0
 26 24  1  0  0  0  0
 27 28  1  0  0  0  0
 28 29  1  0  0  0  0
 30 28  2  0  0  0  0
 31 32  1  0  0  0  0
M  END
>  <MODEL>
3

>  <REMARK>
 VINA RESULT:      -4.6      3.729      6.136
  Name = 
  4 active torsions:
  status: ('A' for Active; 'I' for Inactive)
    1  A    between atoms: C_7  and  C_19
    2  A    between atoms: C_10  and  C_17
    3  A    between atoms: C_20  and  C_29
    4  A    between atoms: C_29  and  C_30
                            x       y       z     vdW  Elec       q    Type
                         _______ _______ _______ _____ _____    ______ ____

>  <TORSDO>
F 4

$$$$
=
 OpenBabel11122410493D

 32 37  0  0  1  0  0  0  0  0999 V2000
  185.1360  178.3250  139.2700 C   0  0  1  0  0  3  0  0  0  0  0  0
  187.9730  179.2010  136.0840 C   0  0  0  0  0  2  0  0  0  0  0  0
  189.0430  178.7470  137.0550 C   0  0  0  0  0  2  0  0  0  0  0  0
  186.6860  178.8200  141.2810 C   0  0  0  0  0  0  0  0  0  0  0  0
  187.7760  178.2200  142.0540 C   0  0  2  0  0  3  0  0  0  0  0  0
  182.7600  177.4100  139.5700 C   0  0  2  0  0  3  0  0  0  0  0  0
  183.8020  177.7300  137.2140 C   0  0  0  0  0  2  0  0  0  0  0  0
  189.8340  177.1480  142.3010 C   0  0  1  0  0  3  0  0  0  0  0  0
  186.6160  179.0330  136.7390 C   0  0  0  0  0  2  0  0  0  0  0  0
  185.0890  177.4730  137.9970 C   0  0  1  0  0  3  0  0  0  0  0  0
  186.3800  177.5740  137.1750 C   0  0  2  0  0  3  0  0  0  0  0  0
  187.4410  177.2300  139.4310 C   0  0  1  0  0  3  0  0  0  0  0  0
  189.4970  178.0500  143.4890 C   0  0  0  0  0  2  0  0  0  0  0  0
  182.5920  177.9870  138.1390 C   0  0  2  0  0  3  0  0  0  0  0  0
  188.2940  178.7630  143.0980 N   0  0  0  0  0  2  0  0  0  0  0  0
  188.8320  177.2700  137.3560 C   0  0  0  0  0  2  0  0  0  0  0  0
  187.5140  177.0100  137.9590 N   0  0  2  0  0  0  0  0  0  0  0  0
  188.7590  177.2500  140.0830 N   0  0  0  0  0  2  0  0  0  0  0  0
  184.0960  177.7810  140.2530 C   0  0  0  0  0  2  0  0  0  0  0  0
  185.9560  179.7170  141.7820 O   0  0  0  0  0  0  0  0  0  0  0  0
  190.2300  175.7710  142.7940 C   0  0  0  0  0  1  0  0  0  0  0  0
  186.5720  178.4510  139.8220 C   0  0  1  0  0  3  0  0  0  0  0  0
  188.5350  177.0680  141.5160 C   0  0  2  0  0  3  0  0  0  0  0  0
  181.3310  179.8560  137.0890 C   0  0  0  0  0  2  0  0  0  0  0  0
  182.2920  179.4760  138.1980 C   0  0  1  0  0  3  0  0  0  0  0  0
  180.8210  179.6810  138.5030 C   0  0  1  0  0  3  0  0  0  0  0  0
  180.6380  181.0400  139.1510 C   0  0  0  0  0  2  0  0  0  0  0  0
  179.9260  180.8900  140.4490 C   0  0  0  0  0  0  0  0  0  0  0  0
  180.2510  179.8450  141.3040 O   0  0  0  0  0  1  0  0  0  0  0  0
  179.0060  181.6910  140.7580 O   0  0  0  0  0  0  0  0  0  0  0  0
  181.2920  175.5130  138.8850 C   0  0  0  0  0  1  0  0  0  0  0  0
  182.5880  175.9000  139.5740 C   0  0  0  0  0  2  0  0  0  0  0  0
  1 22  1  0  0  0  0
  1 19  1  1  0  0  0
  2  9  1  0  0  0  0
  2  3  1  0  0  0  0
  3 16  1  0  0  0  0
  4 20  2  0  0  0  0
  5  4  1  6  0  0  0
  5 15  1  0  0  0  0
  6 32  1  6  0  0  0
  6 19  1  0  0  0  0
  8 21  1  1  0  0  0
  8 13  1  0  0  0  0
 10  7  1  6  0  0  0
 10  1  1  0  0  0  0
 11  9  1  1  0  0  0
 11 17  1  0  0  0  0
 11 10  1  0  0  0  0
 12 22  1  0  0  0  0
 12 18  1  6  0  0  0
 14  7  1  6  0  0  0
 14 25  1  0  0  0  0
 14  6  1  0  0  0  0
 15 13  1  0  0  0  0
 17 16  1  6  0  0  0
 17 12  1  0  0  0  0
 22  4  1  1  0  0  0
 23 18  1  6  0  0  0
 23  5  1  0  0  0  0
 23  8  1  0  0  0  0
 24 26  1  0  0  0  0
 25 24  1  6  0  0  0
 25 26  1  0  0  0  0
 26 27  1  1  0  0  0
 27 28  1  0  0  0  0
 28 30  2  0  0  0  0
 28 29  1  0  0  0  0
 31 32  1  0  0  0  0
M  END
>  <MODEL>
4

>  <REMARK>
 VINA RESULT:      -4.6      2.998      4.261
  Name = 
  4 active torsions:
  status: ('A' for Active; 'I' for Inactive)
    1  A    between atoms: C_7  and  C_19
    2  A    between atoms: C_10  and  C_17
    3  A    between atoms: C_20  and  C_29
    4  A    between atoms: C_29  and  C_30
                            x       y       z     vdW  Elec       q    Type
                         _______ _______ _______ _____ _____    ______ ____

>  <TORSDO>
F 4

$$$$
=
 OpenBabel11122410493D

 32 37  0  0  1  0  0  0  0  0999 V2000
  188.2590  176.1680  137.5760 C   0  0  1  0  0  3  0  0  0  0  0  0
  189.3920  177.3030  141.6250 C   0  0  0  0  0  2  0  0  0  0  0  0
  190.8010  176.9180  141.2260 C   0  0  0  0  0  2  0  0  0  0  0  0
  190.0570  174.3480  137.1950 C   0  0  0  0  0  0  0  0  0  0  0  0
  191.4760  174.1990  136.8640 C   0  0  2  0  0  3  0  0  0  0  0  0
  186.6310  176.8880  135.7310 C   0  0  2  0  0  3  0  0  0  0  0  0
  186.6740  178.0740  138.0410 C   0  0  0  0  0  2  0  0  0  0  0  0
  193.7500  174.6580  137.1140 C   0  0  1  0  0  3  0  0  0  0  0  0
  188.4800  177.1320  140.4250 C   0  0  0  0  0  2  0  0  0  0  0  0
  188.1380  177.6410  137.9820 C   0  0  1  0  0  3  0  0  0  0  0  0
  188.9640  177.9760  139.2300 C   0  0  2  0  0  3  0  0  0  0  0  0
  190.7300  176.6780  137.9940 C   0  0  1  0  0  3  0  0  0  0  0  0
  193.4910  173.2380  136.6100 C   0  0  0  0  0  2  0  0  0  0  0  0
  185.8150  177.3940  136.9510 C   0  0  2  0  0  3  0  0  0  0  0  0
  192.0510  173.0640  136.6800 N   0  0  0  0  0  2  0  0  0  0  0  0
  191.2710  177.8610  140.1270 C   0  0  0  0  0  2  0  0  0  0  0  0
  190.4120  177.7890  138.9330 N   0  0  2  0  0  0  0  0  0  0  0  0
  192.0760  176.1170  138.1890 N   0  0  0  0  0  2  0  0  0  0  0  0
  187.8690  176.0410  136.1010 C   0  0  0  0  0  2  0  0  0  0  0  0
  189.2410  173.4130  136.9730 O   0  0  0  0  0  0  0  0  0  0  0  0
  194.7700  175.3440  136.2290 C   0  0  0  0  0  1  0  0  0  0  0  0
  189.6360  175.5820  137.9540 C   0  0  1  0  0  3  0  0  0  0  0  0
  192.4020  175.3480  136.9890 C   0  0  2  0  0  3  0  0  0  0  0  0
  183.7630  176.8030  138.2250 C   0  0  0  0  0  2  0  0  0  0  0  0
  185.0110  176.2570  137.5600 C   0  0  1  0  0  3  0  0  0  0  0  0
  183.6700  176.1580  136.8590 C   0  0  1  0  0  3  0  0  0  0  0  0
  183.1450  174.7420  136.9990 C   0  0  0  0  0  2  0  0  0  0  0  0
  182.9420  174.1420  135.6520 C   0  0  0  0  0  0  0  0  0  0  0  0
  182.1350  173.0210  135.5040 O   0  0  0  0  0  1  0  0  0  0  0  0
  183.5280  174.6300  134.6510 O   0  0  0  0  0  0  0  0  0  0  0  0
  188.5500  178.0070  134.5950 C   0  0  0  0  0  1  0  0  0  0  0  0
  187.0520  178.0450  134.8390 C   0  0  0  0  0  2  0  0  0  0  0  0
  1 19  1  6  0  0  0
  1 22  1  0  0  0  0
  1 10  1  0  0  0  0
  3  2  1  0  0  0  0
  5 15  1  1  0  0  0
  5 23  1  0  0  0  0
  5  4  1  0  0  0  0
  6 32  1  1  0  0  0
  6 19  1  0  0  0  0
  6 14  1  0  0  0  0
  8 21  1  6  0  0  0
  9  2  1  0  0  0  0
 10  7  1  1  0  0  0
 10 11  1  0  0  0  0
 11  9  1  1  0  0  0
 12 18  1  1  0  0  0
 12 17  1  0  0  0  0
 13 15  1  0  0  0  0
 13  8  1  0  0  0  0
 14 25  1  0  0  0  0
 14  7  1  1  0  0  0
 16  3  1  0  0  0  0
 17 11  1  0  0  0  0
 17 16  1  1  0  0  0
 20  4  2  0  0  0  0
 22  4  1  6  0  0  0
 22 12  1  0  0  0  0
 23  8  1  0  0  0  0
 23 18  1  1  0  0  0
 25 24  1  1  0  0  0
 26 27  1  1  0  0  0
 26 25  1  0  0  0  0
 26 24  1  0  0  0  0
 28 27  1  0  0  0  0
 29 28  1  0  0  0  0
 30 28  2  0  0  0  0
 31 32  1  0  0  0  0
M  END
>  <MODEL>
5

>  <REMARK>
 VINA RESULT:      -4.5      4.114      6.536
  Name = 
  4 active torsions:
  status: ('A' for Active; 'I' for Inactive)
    1  A    between atoms: C_7  and  C_19
    2  A    between atoms: C_10  and  C_17
    3  A    between atoms: C_20  and  C_29
    4  A    between atoms: C_29  and  C_30
                            x       y       z     vdW  Elec       q    Type
                         _______ _______ _______ _____ _____    ______ ____

>  <TORSDO>
F 4

$$$$
=
 OpenBabel11122410493D

 32 37  0  0  1  0  0  0  0  0999 V2000
  181.3480  178.4920  139.5490 C   0  0  1  0  0  3  0  0  0  0  0  0
  180.1700  181.5680  136.7010 C   0  0  0  0  0  2  0  0  0  0  0  0
  181.1200  180.8910  135.7360 C   0  0  0  0  0  2  0  0  0  0  0  0
  183.7550  178.1020  138.6830 C   0  0  0  0  0  0  0  0  0  0  0  0
  184.4840  177.4210  137.6110 C   0  0  2  0  0  3  0  0  0  0  0  0
  180.3300  177.0850  141.4340 C   0  0  2  0  0  3  0  0  0  0  0  0
  178.9340  178.8730  140.1710 C   0  0  0  0  0  2  0  0  0  0  0  0
  184.9040  176.8580  135.3850 C   0  0  1  0  0  3  0  0  0  0  0  0
  180.1460  180.7820  137.9970 C   0  0  0  0  0  2  0  0  0  0  0  0
  179.9010  178.5040  139.0460 C   0  0  1  0  0  3  0  0  0  0  0  0
  179.7350  179.3160  137.7560 C   0  0  2  0  0  3  0  0  0  0  0  0
  181.7740  178.0110  137.0740 C   0  0  1  0  0  3  0  0  0  0  0  0
  186.1720  176.8530  136.2400 C   0  0  0  0  0  2  0  0  0  0  0  0
  179.3800  178.3080  141.5380 C   0  0  2  0  0  3  0  0  0  0  0  0
  185.7660  177.3880  137.5280 N   0  0  0  0  0  2  0  0  0  0  0  0
  180.5980  179.4920  135.4400 C   0  0  0  0  0  2  0  0  0  0  0  0
  180.5040  178.6680  136.6570 N   0  0  2  0  0  0  0  0  0  0  0  0
  182.7760  177.9450  135.9980 N   0  0  0  0  0  2  0  0  0  0  0  0
  181.5260  177.2870  140.4770 C   0  0  0  0  0  2  0  0  0  0  0  0
  184.3240  178.3890  139.7700 O   0  0  0  0  0  0  0  0  0  0  0  0
  184.7980  175.5620  134.6090 C   0  0  0  0  0  1  0  0  0  0  0  0
  182.3590  178.5910  138.3860 C   0  0  1  0  0  3  0  0  0  0  0  0
  183.7740  176.9550  136.3970 C   0  0  2  0  0  3  0  0  0  0  0  0
  179.4470  179.3990  143.7720 C   0  0  0  0  0  2  0  0  0  0  0  0
  180.0200  179.4090  142.3690 C   0  0  1  0  0  3  0  0  0  0  0  0
  180.8050  178.7870  143.5080 C   0  0  1  0  0  3  0  0  0  0  0  0
  181.8920  179.7530  143.9400 C   0  0  0  0  0  2  0  0  0  0  0  0
  183.1150  178.9980  144.3280 C   0  0  0  0  0  0  0  0  0  0  0  0
  183.8090  178.2620  143.3770 O   0  0  0  0  0  0  0  0  0  0  0  0
  183.5020  179.0000  145.5250 O   0  0  0  0  0  1  0  0  0  0  0  0
  180.3930  174.9850  140.0890 C   0  0  0  0  0  1  0  0  0  0  0  0
  179.5650  175.8330  141.0380 C   0  0  0  0  0  2  0  0  0  0  0  0
  1 19  1  6  0  0  0
  2  9  1  0  0  0  0
  3  2  1  0  0  0  0
  4 20  2  0  0  0  0
  5 15  1  6  0  0  0
  5  4  1  0  0  0  0
  6 32  1  6  0  0  0
  6 14  1  0  0  0  0
  8 21  1  1  0  0  0
  8 13  1  0  0  0  0
  8 23  1  0  0  0  0
 10  1  1  0  0  0  0
 10  7  1  1  0  0  0
 11  9  1  1  0  0  0
 11 10  1  0  0  0  0
 12 18  1  6  0  0  0
 12 22  1  0  0  0  0
 13 15  1  0  0  0  0
 14  7  1  6  0  0  0
 14 25  1  0  0  0  0
 16  3  1  0  0  0  0
 17 16  1  6  0  0  0
 17 12  1  0  0  0  0
 17 11  1  0  0  0  0
 19  6  1  0  0  0  0
 22  4  1  1  0  0  0
 22  1  1  0  0  0  0
 23 18  1  6  0  0  0
 23  5  1  0  0  0  0
 25 26  1  0  0  0  0
 25 24  1  1  0  0  0
 26 24  1  0  0  0  0
 26 27  1  1  0  0  0
 27 28  1  0  0  0  0
 28 30  1  0  0  0  0
 29 28  2  0  0  0  0
 31 32  1  0  0  0  0
M  END
>  <MODEL>
6

>  <REMARK>
 VINA RESULT:      -4.3      3.316      5.463
  Name = 
  4 active torsions:
  status: ('A' for Active; 'I' for Inactive)
    1  A    between atoms: C_7  and  C_19
    2  A    between atoms: C_10  and  C_17
    3  A    between atoms: C_20  and  C_29
    4  A    between atoms: C_29  and  C_30
                            x       y       z     vdW  Elec       q    Type
                         _______ _______ _______ _____ _____    ______ ____

>  <TORSDO>
F 4

$$$$
=
 OpenBabel11122410493D

 32 37  0  0  1  0  0  0  0  0999 V2000
  192.4460  175.4240  136.3560 C   0  0  1  0  0  3  0  0  0  0  0  0
  191.9700  171.4660  134.6010 C   0  0  0  0  0  2  0  0  0  0  0  0
  193.4820  171.3990  134.6030 C   0  0  0  0  0  2  0  0  0  0  0  0
  194.7130  176.0310  135.2680 C   0  0  0  0  0  0  0  0  0  0  0  0
  196.1480  175.7730  135.4050 C   0  0  2  0  0  3  0  0  0  0  0  0
  191.2990  176.9510  138.0670 C   0  0  2  0  0  3  0  0  0  0  0  0
  190.3240  174.6220  137.4600 C   0  0  0  0  0  2  0  0  0  0  0  0
  198.0220  174.4020  135.6430 C   0  0  1  0  0  3  0  0  0  0  0  0
  191.5380  172.7760  135.2330 C   0  0  0  0  0  2  0  0  0  0  0  0
  191.8010  174.3220  137.2040 C   0  0  1  0  0  3  0  0  0  0  0  0
  192.0940  172.9180  136.6630 C   0  0  2  0  0  3  0  0  0  0  0  0
  194.4360  173.8270  136.5280 C   0  0  1  0  0  3  0  0  0  0  0  0
  198.3340  175.6960  134.8910 C   0  0  0  0  0  2  0  0  0  0  0  0
  190.0530  176.1330  137.6340 C   0  0  2  0  0  3  0  0  0  0  0  0
  197.0470  176.3350  134.6790 N   0  0  0  0  0  2  0  0  0  0  0  0
  193.9690  171.4210  136.0450 C   0  0  0  0  0  2  0  0  0  0  0  0
  193.5560  172.6460  136.7500 N   0  0  2  0  0  0  0  0  0  0  0  0
  195.7660  173.4740  136.0080 N   0  0  0  0  0  2  0  0  0  0  0  0
  192.5590  176.6880  137.2130 C   0  0  0  0  0  2  0  0  0  0  0  0
  194.2960  177.0680  134.6860 O   0  0  0  0  0  0  0  0  0  0  0  0
  199.0200  174.2020  136.7650 C   0  0  0  0  0  1  0  0  0  0  0  0
  193.7570  174.9460  135.6980 C   0  0  1  0  0  3  0  0  0  0  0  0
  196.6330  174.6320  136.2160 C   0  0  2  0  0  3  0  0  0  0  0  0
  188.9020  175.5850  135.4980 C   0  0  0  0  0  2  0  0  0  0  0  0
  189.4590  176.7040  136.3560 C   0  0  1  0  0  3  0  0  0  0  0  0
  187.9670  176.4340  136.3310 C   0  0  1  0  0  3  0  0  0  0  0  0
  187.2950  177.4690  135.4490 C   0  0  0  0  0  2  0  0  0  0  0  0
  185.8230  177.4350  135.6600 C   0  0  0  0  0  0  0  0  0  0  0  0
  185.2940  177.6850  136.9190 O   0  0  0  0  0  1  0  0  0  0  0  0
  185.0570  177.1470  134.7040 O   0  0  0  0  0  0  0  0  0  0  0  0
  190.4710  177.1920  140.4070 C   0  0  0  0  0  1  0  0  0  0  0  0
  191.6200  176.7220  139.5340 C   0  0  0  0  0  2  0  0  0  0  0  0
  1 10  1  0  0  0  0
  1 19  1  1  0  0  0
  2  3  1  0  0  0  0
  2  9  1  0  0  0  0
  3 16  1  0  0  0  0
  4  5  1  0  0  0  0
  5 15  1  6  0  0  0
  5 23  1  0  0  0  0
  6 32  1  1  0  0  0
  8 23  1  0  0  0  0
  8 21  1  1  0  0  0
 10  7  1  6  0  0  0
 11  9  1  6  0  0  0
 11 17  1  0  0  0  0
 11 10  1  0  0  0  0
 12 18  1  6  0  0  0
 12 17  1  0  0  0  0
 13  8  1  0  0  0  0
 14  7  1  6  0  0  0
 14  6  1  0  0  0  0
 15 13  1  0  0  0  0
 17 16  1  6  0  0  0
 19  6  1  0  0  0  0
 20  4  2  0  0  0  0
 22  4  1  1  0  0  0
 22  1  1  0  0  0  0
 22 12  1  0  0  0  0
 23 18  1  6  0  0  0
 24 26  1  0  0  0  0
 25 24  1  6  0  0  0
 25 14  1  0  0  0  0
 26 27  1  6  0  0  0
 26 25  1  0  0  0  0
 27 28  1  0  0  0  0
 28 29  1  0  0  0  0
 30 28  2  0  0  0  0
 32 31  1  0  0  0  0
M  END
>  <MODEL>
7

>  <REMARK>
 VINA RESULT:      -4.3      5.036      8.577
  Name = 
  4 active torsions:
  status: ('A' for Active; 'I' for Inactive)
    1  A    between atoms: C_7  and  C_19
    2  A    between atoms: C_10  and  C_17
    3  A    between atoms: C_20  and  C_29
    4  A    between atoms: C_29  and  C_30
                            x       y       z     vdW  Elec       q    Type
                         _______ _______ _______ _____ _____    ______ ____

>  <TORSDO>
F 4

$$$$
=
 OpenBabel11122410493D

 32 37  0  0  1  0  0  0  0  0999 V2000
  183.4090  177.6490  139.0330 C   0  0  1  0  0  3  0  0  0  0  0  0
  185.3410  177.9280  142.9260 C   0  0  0  0  0  2  0  0  0  0  0  0
  186.6450  177.9680  142.1600 C   0  0  0  0  0  2  0  0  0  0  0  0
  185.3040  176.4120  137.7780 C   0  0  0  0  0  0  0  0  0  0  0  0
  186.6000  176.6600  137.1430 C   0  0  2  0  0  3  0  0  0  0  0  0
  181.2820  178.4510  137.8480 C   0  0  2  0  0  3  0  0  0  0  0  0
  181.7260  178.9890  140.3490 C   0  0  0  0  0  2  0  0  0  0  0  0
  188.7700  177.5140  137.0620 C   0  0  1  0  0  3  0  0  0  0  0  0
  184.1930  177.8780  141.9360 C   0  0  0  0  0  2  0  0  0  0  0  0
  183.1770  178.9080  139.8740 C   0  0  1  0  0  3  0  0  0  0  0  0
  184.2300  179.0820  140.9750 C   0  0  2  0  0  3  0  0  0  0  0  0
  185.8020  178.5500  139.0840 C   0  0  1  0  0  3  0  0  0  0  0  0
  188.6070  176.2490  136.2200 C   0  0  0  0  0  2  0  0  0  0  0  0
  180.7330  178.4420  139.2990 C   0  0  2  0  0  3  0  0  0  0  0  0
  187.2730  175.7590  136.5190 N   0  0  0  0  0  2  0  0  0  0  0  0
  186.6780  179.2370  141.3200 C   0  0  0  0  0  2  0  0  0  0  0  0
  185.5680  179.2910  140.3540 N   0  0  2  0  0  0  0  0  0  0  0  0
  187.2210  178.2590  138.8310 N   0  0  0  0  0  2  0  0  0  0  0  0
  182.6850  177.8220  137.6950 C   0  0  0  0  0  2  0  0  0  0  0  0
  184.6070  175.4140  137.4550 O   0  0  0  0  0  0  0  0  0  0  0  0
  189.4220  178.6050  136.2360 C   0  0  0  0  0  1  0  0  0  0  0  0
  184.9080  177.2930  138.9380 C   0  0  1  0  0  3  0  0  0  0  0  0
  187.3470  177.9090  137.4170 C   0  0  2  0  0  3  0  0  0  0  0  0
  178.9320  177.1020  140.3710 C   0  0  0  0  0  2  0  0  0  0  0  0
  180.2850  177.0430  139.6900 C   0  0  1  0  0  3  0  0  0  0  0  0
  179.0290  176.6830  138.9200 C   0  0  1  0  0  3  0  0  0  0  0  0
  178.9310  175.1740  138.8170 C   0  0  0  0  0  2  0  0  0  0  0  0
  179.5530  174.7100  137.5480 C   0  0  0  0  0  0  0  0  0  0  0  0
  180.1640  173.4640  137.4860 O   0  0  0  0  0  1  0  0  0  0  0  0
  179.5580  175.4610  136.5380 O   0  0  0  0  0  0  0  0  0  0  0  0
  179.9190  180.4960  137.4190 C   0  0  0  0  0  1  0  0  0  0  0  0
  181.2890  179.8580  137.2750 C   0  0  0  0  0  2  0  0  0  0  0  0
  1 19  1  6  0  0  0
  1 10  1  0  0  0  0
  3  2  1  0  0  0  0
  5 15  1  1  0  0  0
  5 23  1  0  0  0  0
  5  4  1  0  0  0  0
  6 32  1  1  0  0  0
  6 14  1  0  0  0  0
  8 21  1  6  0  0  0
  8 23  1  0  0  0  0
  9  2  1  0  0  0  0
 10  7  1  1  0  0  0
 10 11  1  0  0  0  0
 11  9  1  1  0  0  0
 12 18  1  1  0  0  0
 12 17  1  0  0  0  0
 13 15  1  0  0  0  0
 13  8  1  0  0  0  0
 14 25  1  0  0  0  0
 14  7  1  1  0  0  0
 16  3  1  0  0  0  0
 17 11  1  0  0  0  0
 17 16  1  1  0  0  0
 19  6  1  0  0  0  0
 20  4  2  0  0  0  0
 22  4  1  6  0  0  0
 22  1  1  0  0  0  0
 22 12  1  0  0  0  0
 23 18  1  1  0  0  0
 25 24  1  1  0  0  0
 26 27  1  1  0  0  0
 26 25  1  0  0  0  0
 26 24  1  0  0  0  0
 28 27  1  0  0  0  0
 29 28  1  0  0  0  0
 30 28  2  0  0  0  0
 32 31  1  0  0  0  0
M  END
>  <MODEL>
8

>  <REMARK>
 VINA RESULT:      -4.2      3.141      5.172
  Name = 
  4 active torsions:
  status: ('A' for Active; 'I' for Inactive)
    1  A    between atoms: C_7  and  C_19
    2  A    between atoms: C_10  and  C_17
    3  A    between atoms: C_20  and  C_29
    4  A    between atoms: C_29  and  C_30
                            x       y       z     vdW  Elec       q    Type
                         _______ _______ _______ _____ _____    ______ ____

>  <TORSDO>
F 4

$$$$
=
 OpenBabel11122410493D

 32 37  0  0  1  0  0  0  0  0999 V2000
  183.9790  176.8660  137.3230 C   0  0  1  0  0  3  0  0  0  0  0  0
  180.8110  175.4940  134.6690 C   0  0  0  0  0  2  0  0  0  0  0  0
  179.9300  176.5080  135.3670 C   0  0  0  0  0  2  0  0  0  0  0  0
  182.5000  177.5300  139.3390 C   0  0  0  0  0  0  0  0  0  0  0  0
  181.6170  178.6050  139.7990 C   0  0  2  0  0  3  0  0  0  0  0  0
  186.5100  177.2760  137.2920 C   0  0  2  0  0  3  0  0  0  0  0  0
  185.2650  176.3220  135.2230 C   0  0  0  0  0  2  0  0  0  0  0  0
  179.8540  180.1170  139.5730 C   0  0  1  0  0  3  0  0  0  0  0  0
  182.2150  175.5940  135.2340 C   0  0  0  0  0  2  0  0  0  0  0  0
  184.1180  177.1360  135.8210 C   0  0  1  0  0  3  0  0  0  0  0  0
  182.7820  177.0170  135.0770 C   0  0  2  0  0  3  0  0  0  0  0  0
  181.9750  178.4200  137.0030 C   0  0  1  0  0  3  0  0  0  0  0  0
  180.0720  179.6840  141.0230 C   0  0  0  0  0  2  0  0  0  0  0  0
  186.4540  176.1760  136.1990 C   0  0  2  0  0  3  0  0  0  0  0  0
  181.0680  178.6290  140.9610 N   0  0  0  0  0  2  0  0  0  0  0  0
  180.4680  177.9020  135.0780 C   0  0  0  0  0  2  0  0  0  0  0  0
  181.8490  178.0730  135.5610 N   0  0  2  0  0  0  0  0  0  0  0  0
  180.7300  178.9430  137.5870 N   0  0  0  0  0  2  0  0  0  0  0  0
  185.1760  177.4980  138.0390 C   0  0  0  0  0  2  0  0  0  0  0  0
  183.0560  176.7540  140.1610 O   0  0  0  0  0  0  0  0  0  0  0  0
  179.7930  181.6280  139.4870 C   0  0  0  0  0  1  0  0  0  0  0  0
  182.5900  177.2810  137.8530 C   0  0  1  0  0  3  0  0  0  0  0  0
  181.0840  179.6020  138.8430 C   0  0  2  0  0  3  0  0  0  0  0  0
  185.6460  173.8350  135.9670 C   0  0  0  0  0  2  0  0  0  0  0  0
  186.4350  174.7950  136.8350 C   0  0  1  0  0  3  0  0  0  0  0  0
  187.1580  173.8150  135.9300 C   0  0  1  0  0  3  0  0  0  0  0  0
  187.6740  172.6610  136.7680 C   0  0  0  0  0  2  0  0  0  0  0  0
  188.3050  171.6400  135.8900 C   0  0  0  0  0  0  0  0  0  0  0  0
  187.7020  170.4010  135.7180 O   0  0  0  0  0  1  0  0  0  0  0  0
  189.4040  171.8850  135.3280 O   0  0  0  0  0  0  0  0  0  0  0  0
  188.5060  178.7030  136.8440 C   0  0  0  0  0  1  0  0  0  0  0  0
  186.9970  178.5940  136.7150 C   0  0  0  0  0  2  0  0  0  0  0  0
  1 22  1  0  0  0  0
  1 19  1  1  0  0  0
  2  9  1  0  0  0  0
  2  3  1  0  0  0  0
  4 20  2  0  0  0  0
  5  4  1  6  0  0  0
  5 15  1  0  0  0  0
  6 32  1  6  0  0  0
  6 19  1  0  0  0  0
  8 21  1  1  0  0  0
  8 13  1  0  0  0  0
 10  7  1  6  0  0  0
 10  1  1  0  0  0  0
 11  9  1  1  0  0  0
 11 17  1  0  0  0  0
 11 10  1  0  0  0  0
 12 18  1  1  0  0  0
 12 22  1  0  0  0  0
 14  7  1  1  0  0  0
 14 25  1  0  0  0  0
 14  6  1  0  0  0  0
 15 13  1  0  0  0  0
 16  3  1  0  0  0  0
 17 16  1  1  0  0  0
 17 12  1  0  0  0  0
 22  4  1  1  0  0  0
 23 18  1  6  0  0  0
 23  8  1  0  0  0  0
 23  5  1  0  0  0  0
 25 24  1  6  0  0  0
 26 24  1  0  0  0  0
 26 27  1  1  0  0  0
 26 25  1  0  0  0  0
 28 27  1  0  0  0  0
 29 28  1  0  0  0  0
 30 28  2  0  0  0  0
 32 31  1  0  0  0  0
M  END
>  <MODEL>
9

>  <REMARK>
 VINA RESULT:      -4.2      3.312      8.071
  Name = 
  4 active torsions:
  status: ('A' for Active; 'I' for Inactive)
    1  A    between atoms: C_7  and  C_19
    2  A    between atoms: C_10  and  C_17
    3  A    between atoms: C_20  and  C_29
    4  A    between atoms: C_29  and  C_30
                            x       y       z     vdW  Elec       q    Type
                         _______ _______ _______ _____ _____    ______ ____

>  <TORSDO>
F 4

$$$$
