=
 OpenBabel11122410213D

 30 35  0  0  1  0  0  0  0  0999 V2000
  189.1940  177.3560  143.1440 C   0  0  1  0  0  3  0  0  0  0  0  0
  191.3120  176.7320  144.4500 C   0  0  0  0  0  0  0  0  0  0  0  0
  187.0910  177.5950  146.6960 N   0  0  0  0  0  2  0  0  0  0  0  0
  187.9070  178.1760  143.3680 C   0  0  1  0  0  3  0  0  0  0  0  0
  190.0000  178.0220  142.1980 O   0  0  0  0  0  0  0  0  0  0  0  0
  187.4550  178.6340  139.7710 O   0  0  0  0  0  0  0  0  0  0  0  0
  184.7720  177.9770  142.6120 C   0  0  1  0  0  3  0  0  0  0  0  0
  187.9770  178.3250  140.8770 C   0  0  0  0  0  0  0  0  0  0  0  0
  184.6450  177.9090  144.0780 N   0  0  2  0  0  0  0  0  0  0  0  0
  185.7550  178.0200  146.3120 C   0  0  1  0  0  3  0  0  0  0  0  0
  189.4130  177.8690  140.9160 C   0  0  2  0  0  3  0  0  0  0  0  0
  187.2050  178.3730  142.0910 N   0  0  0  0  0  0  0  0  0  0  0  0
  191.9540  176.4290  145.6550 C   0  0  0  0  0  3  0  0  0  0  0  0
  183.5650  178.8370  144.3820 C   0  0  0  0  0  2  0  0  0  0  0  0
  183.4100  178.3880  142.1050 C   0  0  0  0  0  2  0  0  0  0  0  0
  192.0510  176.6950  143.2740 O   0  0  0  0  0  1  0  0  0  0  0  0
  187.7750  177.2920  145.6480 C   0  0  1  0  0  3  0  0  0  0  0  0
  191.2420  176.4220  146.8550 C   0  0  0  0  0  3  0  0  0  0  0  0
  189.9390  177.0620  144.4420 C   0  0  0  0  0  0  0  0  0  0  0  0
  187.0350  177.4520  144.3800 C   0  0  1  0  0  3  0  0  0  0  0  0
  185.3870  179.2840  147.0630 C   0  0  0  0  0  1  0  0  0  0  0  0
  185.8550  178.3050  144.8080 C   0  0  1  0  0  3  0  0  0  0  0  0
  182.6540  178.8830  143.2450 N   0  0  0  0  0  2  0  0  0  0  0  0
  185.8010  180.3640  142.5670 C   0  0  0  0  0  1  0  0  0  0  0  0
  189.8770  176.7030  146.8580 C   0  0  0  0  0  3  0  0  0  0  0  0
  189.2170  177.0010  145.6600 C   0  0  0  0  0  0  0  0  0  0  0  0
  185.8500  178.9340  142.0380 C   0  0  2  0  0  3  0  0  0  0  0  0
  189.5600  176.4430  140.3780 C   0  0  0  0  0  2  0  0  0  0  0  0
  190.1820  177.1290  138.0630 C   0  0  0  0  0  1  0  0  0  0  0  0
  190.6290  176.3720  139.2990 C   0  0  0  0  0  2  0  0  0  0  0  0
  1  5  1  6  0  0  0
  1  4  1  0  0  0  0
  1 19  1  0  0  0  0
  2 13  1  0  0  0  0
  4 12  1  6  0  0  0
  4 20  1  0  0  0  0
  6  8  2  0  0  0  0
  7 15  1  6  0  0  0
  7  9  1  0  0  0  0
  8 11  1  0  0  0  0
  8 12  1  0  0  0  0
  9 14  1  1  0  0  0
  9 22  1  0  0  0  0
 10  3  1  0  0  0  0
 10 21  1  1  0  0  0
 11 28  1  1  0  0  0
 11  5  1  0  0  0  0
 13 18  2  0  0  0  0
 15 23  1  0  0  0  0
 16  2  1  0  0  0  0
 17 26  1  6  0  0  0
 17  3  1  0  0  0  0
 18 25  1  0  0  0  0
 19  2  2  0  0  0  0
 19 26  1  0  0  0  0
 20 22  1  0  0  0  0
 20 17  1  0  0  0  0
 22 10  1  0  0  0  0
 23 14  1  0  0  0  0
 26 25  2  0  0  0  0
 27 12  1  0  0  0  0
 27 24  1  0  0  0  0
 27  7  1  0  0  0  0
 29 30  1  0  0  0  0
 30 28  1  0  0  0  0
M  END
>  <MODEL>
1

>  <REMARK>
 VINA RESULT:      -8.2      0.000      0.000
  Name = 
  2 active torsions:
  status: ('A' for Active; 'I' for Inactive)
    1  A    between atoms: C_11  and  C_28
    2  A    between atoms: C_28  and  C_30
                            x       y       z     vdW  Elec       q    Type
                         _______ _______ _______ _____ _____    ______ ____

>  <TORSDO>
F 2

$$$$
=
 OpenBabel11122410213D

 30 35  0  0  1  0  0  0  0  0999 V2000
  187.4470  178.2260  140.3360 C   0  0  1  0  0  3  0  0  0  0  0  0
  185.0760  178.5940  139.4290 C   0  0  0  0  0  0  0  0  0  0  0  0
  185.9640  178.2840  144.1960 N   0  0  0  0  0  2  0  0  0  0  0  0
  188.1180  177.5740  141.5630 C   0  0  1  0  0  3  0  0  0  0  0  0
  187.7410  177.4550  139.1930 O   0  0  0  0  0  0  0  0  0  0  0  0
  191.2540  177.1400  139.7380 O   0  0  0  0  0  0  0  0  0  0  0  0
  190.6250  178.1520  143.5170 C   0  0  1  0  0  3  0  0  0  0  0  0
  190.0430  177.3930  139.9820 C   0  0  0  0  0  0  0  0  0  0  0  0
  189.5460  178.2500  144.5150 N   0  0  2  0  0  0  0  0  0  0  0  0
  187.1160  178.0240  145.0430 C   0  0  1  0  0  3  0  0  0  0  0  0
  189.0980  177.6670  138.8400 C   0  0  2  0  0  3  0  0  0  0  0  0
  189.5660  177.4530  141.3390 N   0  0  0  0  0  0  0  0  0  0  0  0
  183.7140  178.8280  139.6420 C   0  0  0  0  0  3  0  0  0  0  0  0
  190.0350  177.4660  145.6400 C   0  0  0  0  0  2  0  0  0  0  0  0
  191.8890  177.9080  144.3070 C   0  0  0  0  0  2  0  0  0  0  0  0
  185.5440  178.5280  138.1220 O   0  0  0  0  0  1  0  0  0  0  0  0
  186.3470  178.4890  142.9830 C   0  0  1  0  0  3  0  0  0  0  0  0
  183.2070  178.9350  140.9380 C   0  0  0  0  0  3  0  0  0  0  0  0
  185.9490  178.4380  140.5270 C   0  0  0  0  0  0  0  0  0  0  0  0
  187.8090  178.4090  142.7930 C   0  0  1  0  0  3  0  0  0  0  0  0
  186.8390  176.8230  145.9250 C   0  0  0  0  0  1  0  0  0  0  0  0
  188.2560  177.7140  144.0640 C   0  0  1  0  0  3  0  0  0  0  0  0
  191.4910  177.5220  145.6520 N   0  0  0  0  0  2  0  0  0  0  0  0
  190.1920  175.6550  142.9340 C   0  0  0  0  0  1  0  0  0  0  0  0
  184.0630  178.8250  142.0320 C   0  0  0  0  0  3  0  0  0  0  0  0
  185.4310  178.6000  141.8370 C   0  0  0  0  0  0  0  0  0  0  0  0
  190.4800  177.0630  142.4210 C   0  0  2  0  0  3  0  0  0  0  0  0
  189.3320  179.0580  138.2460 C   0  0  0  0  0  2  0  0  0  0  0  0
  189.1650  177.8990  136.0450 C   0  0  0  0  0  1  0  0  0  0  0  0
  188.7950  179.1440  136.8270 C   0  0  0  0  0  2  0  0  0  0  0  0
  1  5  1  6  0  0  0
  1 19  1  0  0  0  0
  1  4  1  0  0  0  0
  2 13  2  0  0  0  0
  2 19  1  0  0  0  0
  3 10  1  0  0  0  0
  4 12  1  6  0  0  0
  4 20  1  0  0  0  0
  6  8  2  0  0  0  0
  7 15  1  1  0  0  0
  7  9  1  0  0  0  0
  8 12  1  0  0  0  0
  9 14  1  1  0  0  0
 10 21  1  1  0  0  0
 11 28  1  1  0  0  0
 11  5  1  0  0  0  0
 11  8  1  0  0  0  0
 12 27  1  0  0  0  0
 13 18  1  0  0  0  0
 14 23  1  0  0  0  0
 15 23  1  0  0  0  0
 16  2  1  0  0  0  0
 17 26  1  6  0  0  0
 17  3  1  0  0  0  0
 18 25  2  0  0  0  0
 19 26  2  0  0  0  0
 20 17  1  0  0  0  0
 20 22  1  0  0  0  0
 22  9  1  0  0  0  0
 22 10  1  0  0  0  0
 26 25  1  0  0  0  0
 27 24  1  0  0  0  0
 27  7  1  0  0  0  0
 29 30  1  0  0  0  0
 30 28  1  0  0  0  0
M  END
>  <MODEL>
2

>  <REMARK>
 VINA RESULT:      -8.2      1.956      5.646
  Name = 
  2 active torsions:
  status: ('A' for Active; 'I' for Inactive)
    1  A    between atoms: C_11  and  C_28
    2  A    between atoms: C_28  and  C_30
                            x       y       z     vdW  Elec       q    Type
                         _______ _______ _______ _____ _____    ______ ____

>  <TORSDO>
F 2

$$$$
=
 OpenBabel11122410213D

 30 35  0  0  1  0  0  0  0  0999 V2000
  188.0610  177.7130  142.7260 C   0  0  1  0  0  3  0  0  0  0  0  0
  187.0800  178.1650  145.0530 C   0  0  0  0  0  0  0  0  0  0  0  0
  184.4380  178.7380  141.0150 N   0  0  0  0  0  2  0  0  0  0  0  0
  187.8630  178.2140  141.2800 C   0  0  1  0  0  3  0  0  0  0  0  0
  189.3160  178.1540  143.1940 O   0  0  0  0  0  0  0  0  0  0  0  0
  191.2400  177.1690  140.3540 O   0  0  0  0  0  0  0  0  0  0  0  0
  187.8610  176.9840  138.2930 C   0  0  1  0  0  3  0  0  0  0  0  0
  190.2240  177.4340  141.0530 C   0  0  0  0  0  0  0  0  0  0  0  0
  186.4610  177.4390  138.3410 N   0  0  2  0  0  0  0  0  0  0  0  0
  184.6620  178.6460  139.5820 C   0  0  1  0  0  3  0  0  0  0  0  0
  190.3290  177.3940  142.5560 C   0  0  2  0  0  3  0  0  0  0  0  0
  188.9640  177.7410  140.4280 N   0  0  0  0  0  0  0  0  0  0  0  0
  185.9990  178.5010  145.8740 C   0  0  0  0  0  3  0  0  0  0  0  0
  186.2670  178.1180  137.0660 C   0  0  0  0  0  2  0  0  0  0  0  0
  188.1880  176.8270  136.8270 C   0  0  0  0  0  2  0  0  0  0  0  0
  188.3020  177.8730  145.6470 O   0  0  0  0  0  1  0  0  0  0  0  0
  185.4430  178.2440  141.6500 C   0  0  1  0  0  3  0  0  0  0  0  0
  184.7460  178.7680  145.3220 C   0  0  0  0  0  3  0  0  0  0  0  0
  186.9180  178.1190  143.6510 C   0  0  0  0  0  0  0  0  0  0  0  0
  186.5150  177.7320  140.7740 C   0  0  1  0  0  3  0  0  0  0  0  0
  184.3110  179.9670  138.9260 C   0  0  0  0  0  1  0  0  0  0  0  0
  186.1630  178.3640  139.4410 C   0  0  1  0  0  3  0  0  0  0  0  0
  187.1460  177.5100  136.0750 N   0  0  0  0  0  2  0  0  0  0  0  0
  188.8970  179.3550  138.5430 C   0  0  0  0  0  1  0  0  0  0  0  0
  184.5590  178.6860  143.9430 C   0  0  0  0  0  3  0  0  0  0  0  0
  185.6280  178.3420  143.1070 C   0  0  0  0  0  0  0  0  0  0  0  0
  188.9240  177.8900  138.9680 C   0  0  2  0  0  3  0  0  0  0  0  0
  190.3840  175.9540  143.0720 C   0  0  0  0  0  2  0  0  0  0  0  0
  191.5260  176.4950  145.2220 C   0  0  0  0  0  1  0  0  0  0  0  0
  191.6250  175.7240  143.9200 C   0  0  0  0  0  2  0  0  0  0  0  0
  1  5  1  1  0  0  0
  1 19  1  0  0  0  0
  2 16  1  0  0  0  0
  2 13  1  0  0  0  0
  4 12  1  6  0  0  0
  4  1  1  0  0  0  0
  6  8  2  0  0  0  0
  7 15  1  6  0  0  0
  7  9  1  0  0  0  0
  7 27  1  0  0  0  0
  8 11  1  0  0  0  0
  9 14  1  6  0  0  0
  9 22  1  0  0  0  0
 10 21  1  6  0  0  0
 10  3  1  0  0  0  0
 11 28  1  1  0  0  0
 11  5  1  0  0  0  0
 12  8  1  0  0  0  0
 17  3  1  6  0  0  0
 17 26  1  0  0  0  0
 18 13  2  0  0  0  0
 19  2  2  0  0  0  0
 20  4  1  0  0  0  0
 20 17  1  0  0  0  0
 22 10  1  0  0  0  0
 22 20  1  0  0  0  0
 23 15  1  0  0  0  0
 23 14  1  0  0  0  0
 24 27  1  0  0  0  0
 25 18  1  0  0  0  0
 26 19  1  0  0  0  0
 26 25  2  0  0  0  0
 27 12  1  0  0  0  0
 28 30  1  0  0  0  0
 30 29  1  0  0  0  0
M  END
>  <MODEL>
3

>  <REMARK>
 VINA RESULT:      -7.6      2.388      5.319
  Name = 
  2 active torsions:
  status: ('A' for Active; 'I' for Inactive)
    1  A    between atoms: C_11  and  C_28
    2  A    between atoms: C_28  and  C_30
                            x       y       z     vdW  Elec       q    Type
                         _______ _______ _______ _____ _____    ______ ____

>  <TORSDO>
F 2

$$$$
=
 OpenBabel11122410213D

 30 35  0  0  1  0  0  0  0  0999 V2000
  186.3870  178.2050  142.5920 C   0  0  1  0  0  3  0  0  0  0  0  0
  187.0410  178.3540  145.0680 C   0  0  0  0  0  0  0  0  0  0  0  0
  182.4060  178.6160  143.6340 N   0  0  0  0  0  2  0  0  0  0  0  0
  185.2690  178.7290  141.6670 C   0  0  1  0  0  3  0  0  0  0  0  0
  187.5950  178.8490  142.2570 O   0  0  0  0  0  0  0  0  0  0  0  0
  187.4060  178.3770  138.7250 O   0  0  0  0  0  0  0  0  0  0  0  0
  183.5330  177.6630  139.1590 C   0  0  1  0  0  3  0  0  0  0  0  0
  187.0330  178.4140  139.9280 C   0  0  0  0  0  0  0  0  0  0  0  0
  182.4330  177.8470  140.1210 N   0  0  2  0  0  0  0  0  0  0  0  0
  181.6890  178.6360  142.3700 C   0  0  1  0  0  3  0  0  0  0  0  0
  188.0620  178.3230  141.0260 C   0  0  2  0  0  3  0  0  0  0  0  0
  185.6360  178.5100  140.2600 N   0  0  0  0  0  0  0  0  0  0  0  0
  186.6860  178.4430  146.4180 C   0  0  0  0  0  3  0  0  0  0  0  0
  181.4060  178.5370  139.3540 C   0  0  0  0  0  2  0  0  0  0  0  0
  182.8830  177.6410  137.7960 C   0  0  0  0  0  2  0  0  0  0  0  0
  188.3880  178.2670  144.7380 O   0  0  0  0  0  1  0  0  0  0  0  0
  183.6360  178.2880  143.4370 C   0  0  1  0  0  3  0  0  0  0  0  0
  185.3440  178.4970  146.7950 C   0  0  0  0  0  3  0  0  0  0  0  0
  186.0410  178.3450  144.0720 C   0  0  0  0  0  0  0  0  0  0  0  0
  183.9690  178.0270  142.0230 C   0  0  1  0  0  3  0  0  0  0  0  0
  180.8540  179.8980  142.2780 C   0  0  0  0  0  1  0  0  0  0  0  0
  182.7880  178.6460  141.3000 C   0  0  1  0  0  3  0  0  0  0  0  0
  181.5290  178.1520  137.9530 N   0  0  0  0  0  2  0  0  0  0  0  0
  184.2130  180.1720  139.0850 C   0  0  0  0  0  1  0  0  0  0  0  0
  184.3440  178.4470  145.8260 C   0  0  0  0  0  3  0  0  0  0  0  0
  184.6810  178.3500  144.4710 C   0  0  0  0  0  0  0  0  0  0  0  0
  184.6710  178.7190  139.1740 C   0  0  2  0  0  3  0  0  0  0  0  0
  188.5960  176.8960  141.1720 C   0  0  0  0  0  2  0  0  0  0  0  0
  190.1530  175.9020  142.8470 C   0  0  0  0  0  1  0  0  0  0  0  0
  190.0180  176.8950  141.7080 C   0  0  0  0  0  2  0  0  0  0  0  0
  1  5  1  1  0  0  0
  1 19  1  0  0  0  0
  2 13  1  0  0  0  0
  4 12  1  6  0  0  0
  4 20  1  0  0  0  0
  4  1  1  0  0  0  0
  6  8  2  0  0  0  0
  7 15  1  6  0  0  0
  7 27  1  0  0  0  0
  7  9  1  0  0  0  0
  8 12  1  0  0  0  0
  8 11  1  0  0  0  0
  9 14  1  6  0  0  0
  9 22  1  0  0  0  0
 10 21  1  1  0  0  0
 10  3  1  0  0  0  0
 11 28  1  1  0  0  0
 11  5  1  0  0  0  0
 13 18  2  0  0  0  0
 15 23  1  0  0  0  0
 16  2  1  0  0  0  0
 17  3  1  6  0  0  0
 17 26  1  0  0  0  0
 19 26  1  0  0  0  0
 19  2  2  0  0  0  0
 20 17  1  0  0  0  0
 22 20  1  0  0  0  0
 22 10  1  0  0  0  0
 23 14  1  0  0  0  0
 24 27  1  0  0  0  0
 25 18  1  0  0  0  0
 26 25  2  0  0  0  0
 27 12  1  0  0  0  0
 28 30  1  0  0  0  0
 30 29  1  0  0  0  0
M  END
>  <MODEL>
4

>  <REMARK>
 VINA RESULT:      -7.6      2.365      4.327
  Name = 
  2 active torsions:
  status: ('A' for Active; 'I' for Inactive)
    1  A    between atoms: C_11  and  C_28
    2  A    between atoms: C_28  and  C_30
                            x       y       z     vdW  Elec       q    Type
                         _______ _______ _______ _____ _____    ______ ____

>  <TORSDO>
F 2

$$$$
=
 OpenBabel11122410213D

 30 35  0  0  1  0  0  0  0  0999 V2000
  186.4450  178.2500  142.5470 C   0  0  1  0  0  3  0  0  0  0  0  0
  188.8750  177.6470  143.1040 C   0  0  0  0  0  0  0  0  0  0  0  0
  187.3220  177.9990  138.5140 N   0  0  0  0  0  2  0  0  0  0  0  0
  185.4230  177.9760  141.4240 C   0  0  1  0  0  3  0  0  0  0  0  0
  186.0330  177.5720  143.7130 O   0  0  0  0  0  0  0  0  0  0  0  0
  182.6240  178.6280  143.6800 O   0  0  0  0  0  0  0  0  0  0  0  0
  183.0900  179.5730  139.8610 C   0  0  1  0  0  3  0  0  0  0  0  0
  183.7970  178.4250  143.2650 C   0  0  0  0  0  0  0  0  0  0  0  0
  183.9860  179.3260  138.7180 N   0  0  2  0  0  0  0  0  0  0  0  0
  186.0580  178.2440  137.8400 C   0  0  1  0  0  3  0  0  0  0  0  0
  184.9150  178.2530  144.2610 C   0  0  2  0  0  3  0  0  0  0  0  0
  184.0790  178.3910  141.8540 N   0  0  0  0  0  0  0  0  0  0  0  0
  190.1840  177.3680  142.6980 C   0  0  0  0  0  3  0  0  0  0  0  0
  183.0940  178.8550  137.6670 C   0  0  0  0  0  2  0  0  0  0  0  0
  181.7370  179.8710  139.2600 C   0  0  0  0  0  2  0  0  0  0  0  0
  188.5920  177.6760  144.4640 O   0  0  0  0  0  1  0  0  0  0  0  0
  187.2080  178.2530  139.7710 C   0  0  1  0  0  3  0  0  0  0  0  0
  190.5200  177.3620  141.3440 C   0  0  0  0  0  3  0  0  0  0  0  0
  187.8730  177.8990  142.1420 C   0  0  0  0  0  0  0  0  0  0  0  0
  185.8630  178.7130  140.1710 C   0  0  1  0  0  3  0  0  0  0  0  0
  185.7420  177.0850  136.9150 C   0  0  0  0  0  1  0  0  0  0  0  0
  185.0230  178.3190  138.9710 C   0  0  1  0  0  3  0  0  0  0  0  0
  181.7790  179.4520  137.8670 N   0  0  0  0  0  2  0  0  0  0  0  0
  182.6170  177.0640  140.3480 C   0  0  0  0  0  1  0  0  0  0  0  0
  189.5510  177.6500  140.3840 C   0  0  0  0  0  3  0  0  0  0  0  0
  188.2380  177.9390  140.7730 C   0  0  0  0  0  0  0  0  0  0  0  0
  182.9540  178.4410  140.9120 C   0  0  2  0  0  3  0  0  0  0  0  0
  185.3060  179.5890  144.8970 C   0  0  0  0  0  2  0  0  0  0  0  0
  184.9300  178.2530  146.9690 C   0  0  0  0  0  1  0  0  0  0  0  0
  185.6980  179.4080  146.3540 C   0  0  0  0  0  2  0  0  0  0  0  0
  1 19  1  6  0  0  0
  1  5  1  0  0  0  0
  2 16  1  0  0  0  0
  4 12  1  1  0  0  0
  4  1  1  0  0  0  0
  5 11  1  0  0  0  0
  7 15  1  6  0  0  0
  7 27  1  0  0  0  0
  8  6  2  0  0  0  0
  8 11  1  0  0  0  0
  9 14  1  6  0  0  0
  9 22  1  0  0  0  0
  9  7  1  0  0  0  0
 10 21  1  6  0  0  0
 10  3  1  0  0  0  0
 10 22  1  0  0  0  0
 11 28  1  6  0  0  0
 12  8  1  0  0  0  0
 13  2  1  0  0  0  0
 14 23  1  0  0  0  0
 17  3  1  1  0  0  0
 17 20  1  0  0  0  0
 17 26  1  0  0  0  0
 18 13  2  0  0  0  0
 19  2  2  0  0  0  0
 20  4  1  0  0  0  0
 22 20  1  0  0  0  0
 23 15  1  0  0  0  0
 24 27  1  0  0  0  0
 25 26  2  0  0  0  0
 25 18  1  0  0  0  0
 26 19  1  0  0  0  0
 27 12  1  0  0  0  0
 28 30  1  0  0  0  0
 30 29  1  0  0  0  0
M  END
>  <MODEL>
5

>  <REMARK>
 VINA RESULT:      -7.4      2.854      5.868
  Name = 
  2 active torsions:
  status: ('A' for Active; 'I' for Inactive)
    1  A    between atoms: C_11  and  C_28
    2  A    between atoms: C_28  and  C_30
                            x       y       z     vdW  Elec       q    Type
                         _______ _______ _______ _____ _____    ______ ____

>  <TORSDO>
F 2

$$$$
=
 OpenBabel11122410213D

 30 35  0  0  1  0  0  0  0  0999 V2000
  187.7830  177.9390  141.1640 C   0  0  1  0  0  3  0  0  0  0  0  0
  189.6000  177.9140  142.9740 C   0  0  0  0  0  0  0  0  0  0  0  0
  184.8870  178.2910  144.0950 N   0  0  0  0  0  2  0  0  0  0  0  0
  186.3720  178.5290  140.9620 C   0  0  1  0  0  3  0  0  0  0  0  0
  188.6810  178.6010  140.3020 O   0  0  0  0  0  0  0  0  0  0  0  0
  186.7210  178.3740  137.3280 O   0  0  0  0  0  0  0  0  0  0  0  0
  183.5710  177.6450  139.6170 C   0  0  1  0  0  3  0  0  0  0  0  0
  187.0070  178.3290  138.5550 C   0  0  0  0  0  0  0  0  0  0  0  0
  183.1120  177.7660  141.0120 N   0  0  2  0  0  0  0  0  0  0  0  0
  183.6330  178.4000  143.3700 C   0  0  1  0  0  3  0  0  0  0  0  0
  188.4450  178.1590  138.9750 C   0  0  2  0  0  3  0  0  0  0  0  0
  185.9720  178.4070  139.5520 N   0  0  0  0  0  0  0  0  0  0  0  0
  189.9770  177.9110  144.3210 C   0  0  0  0  0  3  0  0  0  0  0  0
  181.8650  178.5110  140.9100 C   0  0  0  0  0  2  0  0  0  0  0  0
  182.3210  177.7190  138.7710 C   0  0  0  0  0  2  0  0  0  0  0  0
  190.5930  177.8460  142.0040 O   0  0  0  0  0  1  0  0  0  0  0  0
  185.8370  177.9730  143.2860 C   0  0  1  0  0  3  0  0  0  0  0  0
  189.0110  177.9440  145.3270 C   0  0  0  0  0  3  0  0  0  0  0  0
  188.2350  177.9780  142.6200 C   0  0  0  0  0  0  0  0  0  0  0  0
  185.4030  177.8090  141.8840 C   0  0  1  0  0  3  0  0  0  0  0  0
  182.9140  179.6690  143.7850 C   0  0  0  0  0  1  0  0  0  0  0  0
  184.0430  178.4800  141.8940 C   0  0  1  0  0  3  0  0  0  0  0  0
  181.2520  178.2230  139.6190 N   0  0  0  0  0  2  0  0  0  0  0  0
  184.2150  180.1510  139.3550 C   0  0  0  0  0  1  0  0  0  0  0  0
  187.6570  177.9650  144.9940 C   0  0  0  0  0  3  0  0  0  0  0  0
  187.2630  177.9600  143.6510 C   0  0  0  0  0  0  0  0  0  0  0  0
  184.5990  178.6940  139.1160 C   0  0  2  0  0  3  0  0  0  0  0  0
  188.9240  176.7230  138.7490 C   0  0  0  0  0  2  0  0  0  0  0  0
  191.3920  176.3690  138.8040 C   0  0  0  0  0  1  0  0  0  0  0  0
  190.2010  176.6960  137.9240 C   0  0  0  0  0  2  0  0  0  0  0  0
  1  5  1  6  0  0  0
  1 19  1  0  0  0  0
  2 13  1  0  0  0  0
  4 12  1  6  0  0  0
  4  1  1  0  0  0  0
  4 20  1  0  0  0  0
  6  8  2  0  0  0  0
  7 15  1  6  0  0  0
  7  9  1  0  0  0  0
  8 11  1  0  0  0  0
  8 12  1  0  0  0  0
  9 14  1  6  0  0  0
  9 22  1  0  0  0  0
 10 21  1  1  0  0  0
 10  3  1  0  0  0  0
 11 28  1  1  0  0  0
 11  5  1  0  0  0  0
 13 18  2  0  0  0  0
 15 23  1  0  0  0  0
 16  2  1  0  0  0  0
 17 26  1  6  0  0  0
 17  3  1  0  0  0  0
 19  2  2  0  0  0  0
 19 26  1  0  0  0  0
 20 22  1  0  0  0  0
 20 17  1  0  0  0  0
 22 10  1  0  0  0  0
 23 14  1  0  0  0  0
 25 18  1  0  0  0  0
 26 25  2  0  0  0  0
 27 24  1  0  0  0  0
 27 12  1  0  0  0  0
 27  7  1  0  0  0  0
 30 28  1  0  0  0  0
 30 29  1  0  0  0  0
M  END
>  <MODEL>
6

>  <REMARK>
 VINA RESULT:      -7.3      1.908      3.002
  Name = 
  2 active torsions:
  status: ('A' for Active; 'I' for Inactive)
    1  A    between atoms: C_11  and  C_28
    2  A    between atoms: C_28  and  C_30
                            x       y       z     vdW  Elec       q    Type
                         _______ _______ _______ _____ _____    ______ ____

>  <TORSDO>
F 2

$$$$
=
 OpenBabel11122410213D

 30 35  0  0  1  0  0  0  0  0999 V2000
  183.5560  178.5430  140.1910 C   0  0  1  0  0  3  0  0  0  0  0  0
  182.6150  178.8070  142.5630 C   0  0  0  0  0  0  0  0  0  0  0  0
  187.3950  178.5350  141.7300 N   0  0  0  0  0  2  0  0  0  0  0  0
  184.7930  177.9210  139.5100 C   0  0  1  0  0  3  0  0  0  0  0  0
  182.4170  177.7860  139.8480 O   0  0  0  0  0  0  0  0  0  0  0  0
  183.0130  177.6250  136.3320 O   0  0  0  0  0  0  0  0  0  0  0  0
  186.7820  178.6080  137.0590 C   0  0  1  0  0  3  0  0  0  0  0  0
  183.2400  177.8240  137.5560 C   0  0  0  0  0  0  0  0  0  0  0  0
  187.7640  178.6580  138.1550 N   0  0  2  0  0  0  0  0  0  0  0  0
  188.2580  178.3260  140.5800 C   0  0  1  0  0  3  0  0  0  0  0  0
  182.0850  178.0570  138.4960 C   0  0  2  0  0  3  0  0  0  0  0  0
  184.5900  177.8630  138.0540 N   0  0  0  0  0  0  0  0  0  0  0  0
  182.8090  178.9800  143.9370 C   0  0  0  0  0  3  0  0  0  0  0  0
  188.8970  177.8960  137.6480 C   0  0  0  0  0  2  0  0  0  0  0  0
  187.5900  178.4190  135.7960 C   0  0  0  0  0  2  0  0  0  0  0  0
  181.3160  178.7620  142.0740 O   0  0  0  0  0  1  0  0  0  0  0  0
  186.1880  178.7570  141.3400 C   0  0  1  0  0  3  0  0  0  0  0  0
  184.0970  179.0650  144.4660 C   0  0  0  0  0  3  0  0  0  0  0  0
  183.7260  178.6890  141.7000 C   0  0  0  0  0  0  0  0  0  0  0  0
  186.0180  178.7420  139.8730 C   0  0  1  0  0  3  0  0  0  0  0  0
  189.1370  177.1140  140.8160 C   0  0  0  0  0  1  0  0  0  0  0  0
  187.2960  178.0660  139.4130 C   0  0  1  0  0  3  0  0  0  0  0  0
  188.9300  178.0160  136.1960 N   0  0  0  0  0  2  0  0  0  0  0  0
  186.1940  176.0940  137.3730 C   0  0  0  0  0  1  0  0  0  0  0  0
  185.2040  178.9930  143.6220 C   0  0  0  0  0  3  0  0  0  0  0  0
  185.0280  178.8270  142.2430 C   0  0  0  0  0  0  0  0  0  0  0  0
  185.6850  177.5130  137.1400 C   0  0  2  0  0  3  0  0  0  0  0  0
  181.4930  179.4570  138.3150 C   0  0  0  0  0  2  0  0  0  0  0  0
  179.9570  180.8880  139.6610 C   0  0  0  0  0  1  0  0  0  0  0  0
  180.1170  179.5570  138.9520 C   0  0  0  0  0  2  0  0  0  0  0  0
  1  5  1  1  0  0  0
  1 19  1  0  0  0  0
  2 13  1  0  0  0  0
  4 12  1  6  0  0  0
  4 20  1  0  0  0  0
  4  1  1  0  0  0  0
  6  8  2  0  0  0  0
  7 15  1  6  0  0  0
  7 27  1  0  0  0  0
  7  9  1  0  0  0  0
  8 12  1  0  0  0  0
  8 11  1  0  0  0  0
  9 14  1  6  0  0  0
  9 22  1  0  0  0  0
 10 21  1  1  0  0  0
 10  3  1  0  0  0  0
 11 28  1  1  0  0  0
 11  5  1  0  0  0  0
 13 18  2  0  0  0  0
 15 23  1  0  0  0  0
 16  2  1  0  0  0  0
 17  3  1  1  0  0  0
 17 26  1  0  0  0  0
 19 26  1  0  0  0  0
 19  2  2  0  0  0  0
 20 17  1  0  0  0  0
 22 20  1  0  0  0  0
 22 10  1  0  0  0  0
 23 14  1  0  0  0  0
 25 18  1  0  0  0  0
 26 25  2  0  0  0  0
 27 24  1  0  0  0  0
 27 12  1  0  0  0  0
 28 30  1  0  0  0  0
 30 29  1  0  0  0  0
M  END
>  <MODEL>
7

>  <REMARK>
 VINA RESULT:      -7.2      4.042      7.424
  Name = 
  2 active torsions:
  status: ('A' for Active; 'I' for Inactive)
    1  A    between atoms: C_11  and  C_28
    2  A    between atoms: C_28  and  C_30
                            x       y       z     vdW  Elec       q    Type
                         _______ _______ _______ _____ _____    ______ ____

>  <TORSDO>
F 2

$$$$
=
 OpenBabel11122410213D

 30 35  0  0  1  0  0  0  0  0999 V2000
  187.8910  177.9840  142.2130 C   0  0  1  0  0  3  0  0  0  0  0  0
  188.8880  177.4860  144.5240 C   0  0  0  0  0  0  0  0  0  0  0  0
  191.4920  176.9640  140.4540 N   0  0  0  0  0  2  0  0  0  0  0  0
  188.0730  177.5070  140.7570 C   0  0  1  0  0  3  0  0  0  0  0  0
  186.6370  177.5440  142.6840 O   0  0  0  0  0  0  0  0  0  0  0  0
  184.6960  178.5910  139.8780 O   0  0  0  0  0  0  0  0  0  0  0  0
  188.0590  178.7890  137.7920 C   0  0  1  0  0  3  0  0  0  0  0  0
  185.7160  178.3070  140.5630 C   0  0  0  0  0  0  0  0  0  0  0  0
  189.4560  178.3230  137.8200 N   0  0  2  0  0  0  0  0  0  0  0  0
  191.2570  177.0830  139.0250 C   0  0  1  0  0  3  0  0  0  0  0  0
  185.6240  178.3220  142.0680 C   0  0  2  0  0  3  0  0  0  0  0  0
  186.9680  178.0020  139.9230 N   0  0  0  0  0  0  0  0  0  0  0  0
  189.9740  177.1280  145.3290 C   0  0  0  0  0  3  0  0  0  0  0  0
  189.6340  177.6650  136.5320 C   0  0  0  0  0  2  0  0  0  0  0  0
  187.7210  178.9730  136.3310 C   0  0  0  0  0  2  0  0  0  0  0  0
  187.6730  177.7760  145.1320 O   0  0  0  0  0  1  0  0  0  0  0  0
  190.4960  177.4540  141.1060 C   0  0  1  0  0  3  0  0  0  0  0  0
  191.2200  176.8620  144.7620 C   0  0  0  0  0  3  0  0  0  0  0  0
  189.0390  177.5550  143.1210 C   0  0  0  0  0  0  0  0  0  0  0  0
  189.4200  177.9890  140.2480 C   0  0  1  0  0  3  0  0  0  0  0  0
  191.5930  175.7710  138.3440 C   0  0  0  0  0  1  0  0  0  0  0  0
  189.7560  177.3770  138.9010 C   0  0  1  0  0  3  0  0  0  0  0  0
  188.7510  178.2960  135.5590 N   0  0  0  0  0  2  0  0  0  0  0  0
  187.0080  176.4200  138.0100 C   0  0  0  0  0  1  0  0  0  0  0  0
  191.3960  176.9670  143.3830 C   0  0  0  0  0  3  0  0  0  0  0  0
  190.3220  177.3320  142.5630 C   0  0  0  0  0  0  0  0  0  0  0  0
  186.9950  177.8780  138.4600 C   0  0  2  0  0  3  0  0  0  0  0  0
  185.5830  179.7530  142.6090 C   0  0  0  0  0  2  0  0  0  0  0  0
  183.6110  179.0020  143.9380 C   0  0  0  0  0  1  0  0  0  0  0  0
  184.8970  179.8060  143.9650 C   0  0  0  0  0  2  0  0  0  0  0  0
  1  5  1  1  0  0  0
  1 19  1  0  0  0  0
  2 16  1  0  0  0  0
  2 13  1  0  0  0  0
  4 12  1  6  0  0  0
  4  1  1  0  0  0  0
  6  8  2  0  0  0  0
  7 15  1  6  0  0  0
  7  9  1  0  0  0  0
  7 27  1  0  0  0  0
  8 11  1  0  0  0  0
  9 14  1  6  0  0  0
  9 22  1  0  0  0  0
 10 21  1  6  0  0  0
 10  3  1  0  0  0  0
 11 28  1  1  0  0  0
 11  5  1  0  0  0  0
 12  8  1  0  0  0  0
 17  3  1  6  0  0  0
 17 26  1  0  0  0  0
 18 13  2  0  0  0  0
 19  2  2  0  0  0  0
 20  4  1  0  0  0  0
 20 17  1  0  0  0  0
 22 10  1  0  0  0  0
 22 20  1  0  0  0  0
 23 15  1  0  0  0  0
 23 14  1  0  0  0  0
 24 27  1  0  0  0  0
 25 18  1  0  0  0  0
 26 19  1  0  0  0  0
 26 25  2  0  0  0  0
 27 12  1  0  0  0  0
 28 30  1  0  0  0  0
 29 30  1  0  0  0  0
M  END
>  <MODEL>
8

>  <REMARK>
 VINA RESULT:      -7.0      2.580      5.981
  Name = 
  2 active torsions:
  status: ('A' for Active; 'I' for Inactive)
    1  A    between atoms: C_11  and  C_28
    2  A    between atoms: C_28  and  C_30
                            x       y       z     vdW  Elec       q    Type
                         _______ _______ _______ _____ _____    ______ ____

>  <TORSDO>
F 2

$$$$
=
 OpenBabel11122410213D

 30 35  0  0  1  0  0  0  0  0999 V2000
  189.3770  177.4490  141.4970 C   0  0  1  0  0  3  0  0  0  0  0  0
  190.0790  177.3230  139.0320 C   0  0  0  0  0  0  0  0  0  0  0  0
  185.6640  178.8640  140.3530 N   0  0  0  0  0  2  0  0  0  0  0  0
  188.0820  177.3400  142.3280 C   0  0  1  0  0  3  0  0  0  0  0  0
  190.1850  176.3240  141.7610 O   0  0  0  0  0  0  0  0  0  0  0  0
  189.9680  176.4260  145.3220 O   0  0  0  0  0  0  0  0  0  0  0  0
  186.7760  178.7410  144.9300 C   0  0  1  0  0  3  0  0  0  0  0  0
  189.6960  176.6860  144.1190 C   0  0  0  0  0  0  0  0  0  0  0  0
  185.7670  179.1460  143.9360 N   0  0  2  0  0  0  0  0  0  0  0  0
  184.9190  179.0030  141.5930 C   0  0  1  0  0  3  0  0  0  0  0  0
  190.7430  176.4630  143.0580 C   0  0  2  0  0  3  0  0  0  0  0  0
  188.4100  177.2230  143.7570 N   0  0  0  0  0  0  0  0  0  0  0  0
  189.8110  177.5450  137.6770 C   0  0  0  0  0  3  0  0  0  0  0  0
  184.4960  178.8670  144.5910 C   0  0  0  0  0  2  0  0  0  0  0  0
  186.1020  178.8790  146.2740 C   0  0  0  0  0  2  0  0  0  0  0  0
  191.3150  176.7990  139.3900 O   0  0  0  0  0  1  0  0  0  0  0  0
  186.9020  178.6220  140.6080 C   0  0  1  0  0  3  0  0  0  0  0  0
  188.5960  178.1010  137.2770 C   0  0  0  0  0  3  0  0  0  0  0  0
  189.1060  177.6360  140.0070 C   0  0  0  0  0  0  0  0  0  0  0  0
  187.2160  178.5570  142.0500 C   0  0  1  0  0  3  0  0  0  0  0  0
  183.6320  178.2050  141.5050 C   0  0  0  0  0  1  0  0  0  0  0  0
  185.8390  178.4120  142.6680 C   0  0  1  0  0  3  0  0  0  0  0  0
  184.6720  179.0030  146.0320 N   0  0  0  0  0  2  0  0  0  0  0  0
  186.3510  176.1880  144.6820 C   0  0  0  0  0  1  0  0  0  0  0  0
  187.6420  178.4540  138.2300 C   0  0  0  0  0  3  0  0  0  0  0  0
  187.8970  178.2470  139.5910 C   0  0  0  0  0  0  0  0  0  0  0  0
  187.3730  177.3150  144.7920 C   0  0  2  0  0  3  0  0  0  0  0  0
  191.8270  177.5410  143.1090 C   0  0  0  0  0  2  0  0  0  0  0  0
  191.0590  179.7530  143.9690 C   0  0  0  0  0  1  0  0  0  0  0  0
  191.6710  178.4160  144.3420 C   0  0  0  0  0  2  0  0  0  0  0  0
  1 19  1  6  0  0  0
  1  5  1  0  0  0  0
  1  4  1  0  0  0  0
  2 16  1  0  0  0  0
  2 19  1  0  0  0  0
  3 17  1  0  0  0  0
  3 10  1  0  0  0  0
  4 12  1  1  0  0  0
  5 11  1  0  0  0  0
  7 15  1  1  0  0  0
  8  6  2  0  0  0  0
  9 14  1  1  0  0  0
  9  7  1  0  0  0  0
 10 21  1  6  0  0  0
 10 22  1  0  0  0  0
 11 28  1  6  0  0  0
 11  8  1  0  0  0  0
 12  8  1  0  0  0  0
 12 27  1  0  0  0  0
 13  2  2  0  0  0  0
 14 23  1  0  0  0  0
 17 26  1  6  0  0  0
 17 20  1  0  0  0  0
 18 13  1  0  0  0  0
 18 25  2  0  0  0  0
 20  4  1  0  0  0  0
 20 22  1  0  0  0  0
 22  9  1  0  0  0  0
 23 15  1  0  0  0  0
 24 27  1  0  0  0  0
 25 26  1  0  0  0  0
 26 19  2  0  0  0  0
 27  7  1  0  0  0  0
 28 30  1  0  0  0  0
 29 30  1  0  0  0  0
M  END
>  <MODEL>
9

>  <REMARK>
 VINA RESULT:      -7.0      1.838      5.018
  Name = 
  2 active torsions:
  status: ('A' for Active; 'I' for Inactive)
    1  A    between atoms: C_11  and  C_28
    2  A    between atoms: C_28  and  C_30
                            x       y       z     vdW  Elec       q    Type
                         _______ _______ _______ _____ _____    ______ ____

>  <TORSDO>
F 2

$$$$
