=
 OpenBabel11122412243D

 34 40  0  0  1  0  0  0  0  0999 V2000
  189.3430  177.6020  139.5330 C   0  0  1  0  0  3  0  0  0  0  0  0
  191.0390  176.6000  138.1080 C   0  0  0  0  0  2  0  0  0  0  0  0
  183.1220  178.1860  140.7610 C   0  0  0  0  0  0  0  0  0  0  0  0
  187.4660  178.4510  140.9790 C   0  0  2  0  0  3  0  0  0  0  0  0
  185.2860  179.1310  139.8580 C   0  0  2  0  0  3  0  0  0  0  0  0
  183.0510  179.6590  138.6970 C   0  0  0  0  0  1  0  0  0  0  0  0
  182.4210  177.3200  140.1690 O   0  0  0  0  0  0  0  0  0  0  0  0
  184.0910  179.0480  142.8640 C   0  0  0  0  0  2  0  0  0  0  0  0
  189.1440  177.4540  137.2010 C   0  0  2  0  0  3  0  0  0  0  0  0
  187.7610  176.1460  134.6270 C   0  0  0  0  0  2  0  0  0  0  0  0
  185.6530  178.2880  138.6320 C   0  0  0  0  0  2  0  0  0  0  0  0
  185.5530  179.2520  142.4180 C   0  0  0  0  0  2  0  0  0  0  0  0
  187.6040  177.5330  137.1870 C   0  0  1  0  0  3  0  0  0  0  0  0
  191.1560  176.3200  136.6120 C   0  0  0  0  0  2  0  0  0  0  0  0
  185.9400  178.5210  141.1260 C   0  0  2  0  0  3  0  0  0  0  0  0
  183.3960  178.0410  142.1240 O   0  0  0  0  0  0  0  0  0  0  0  0
  189.0480  175.6820  135.3340 C   0  0  1  0  0  3  0  0  0  0  0  0
  187.8190  177.6800  139.6990 C   0  0  1  0  0  3  0  0  0  0  0  0
  183.7630  179.3130  140.0000 C   0  0  1  0  0  3  0  0  0  0  0  0
  187.1680  178.2940  138.4520 C   0  0  2  0  0  3  0  0  0  0  0  0
  189.4250  177.8890  141.9970 C   0  0  0  0  0  2  0  0  0  0  0  0
  187.5750  177.6650  134.6000 C   0  0  0  0  0  2  0  0  0  0  0  0
  188.0230  177.7760  142.0890 O   0  0  0  0  0  0  0  0  0  0  0  0
  187.0630  178.2340  135.9300 C   0  0  0  0  0  2  0  0  0  0  0  0
  189.8500  176.8190  136.0120 C   0  0  1  0  0  3  0  0  0  0  0  0
  189.9470  177.0520  140.8260 C   0  0  0  0  0  2  0  0  0  0  0  0
  189.6150  176.7430  138.3810 N   0  0  2  0  0  0  0  0  0  0  0  0
  188.7230  174.6180  136.2750 N   0  0  0  0  0  2  0  0  0  0  0  0
  187.4870  174.1660  135.9570 O   0  0  0  0  0  0  0  0  0  0  0  0
  184.5230  173.9890  137.2620 C   0  0  0  0  0  3  0  0  0  0  0  0
  186.3440  172.6480  137.3610 C   0  0  0  0  0  3  0  0  0  0  0  0
  186.8300  174.0500  137.1850 C   0  0  2  0  0  3  0  0  0  0  0  0
  185.0220  172.6270  137.4000 C   0  0  0  0  0  3  0  0  0  0  0  0
  185.5510  174.8170  137.1410 C   0  0  0  0  0  3  0  0  0  0  0  0
  1 18  1  0  0  0  0
  1 26  1  1  0  0  0
  2 27  1  0  0  0  0
  3 16  1  0  0  0  0
  4 15  1  0  0  0  0
  4 23  1  1  0  0  0
  5 11  1  6  0  0  0
  5 19  1  0  0  0  0
  5 15  1  0  0  0  0
  6 19  1  0  0  0  0
  7  3  2  0  0  0  0
  9 27  1  0  0  0  0
 10 17  1  0  0  0  0
 12  8  1  0  0  0  0
 13  9  1  0  0  0  0
 13 20  1  0  0  0  0
 14  2  1  0  0  0  0
 15 12  1  0  0  0  0
 16  8  1  0  0  0  0
 17 25  1  0  0  0  0
 17 28  1  0  0  0  0
 18  4  1  0  0  0  0
 19  3  1  0  0  0  0
 20 11  1  0  0  0  0
 20 18  1  0  0  0  0
 21 23  1  0  0  0  0
 22 10  1  0  0  0  0
 22 24  1  0  0  0  0
 24 13  1  0  0  0  0
 25 14  1  0  0  0  0
 25  9  1  0  0  0  0
 26 21  1  0  0  0  0
 27  1  1  0  0  0  0
 29 28  1  0  0  0  0
 29 32  1  0  0  0  0
 30 33  1  0  0  0  0
 31 33  2  0  0  0  0
 32 31  1  0  0  0  0
 34 32  1  0  0  0  0
 34 30  2  0  0  0  0
M  END
>  <MODEL>
1

>  <REMARK>
 VINA RESULT:      -7.3      0.000      0.000
  Name = 
  3 active torsions:
  status: ('A' for Active; 'I' for Inactive)
    1  A    between atoms: C_17  and  N_28
    2  A    between atoms: N_28  and  O_29
    3  A    between atoms: O_29  and  C_32
                            x       y       z     vdW  Elec       q    Type
                         _______ _______ _______ _____ _____    ______ ____

>  <TORSDO>
F 3

$$$$
=
 OpenBabel11122412243D

 34 40  0  0  1  0  0  0  0  0999 V2000
  189.7220  177.6070  140.9040 C   0  0  1  0  0  3  0  0  0  0  0  0
  191.6880  176.6920  139.8050 C   0  0  0  0  0  2  0  0  0  0  0  0
  183.3670  178.0080  140.9300 C   0  0  0  0  0  0  0  0  0  0  0  0
  187.5800  178.3640  141.9870 C   0  0  2  0  0  3  0  0  0  0  0  0
  185.6360  179.0320  140.4870 C   0  0  2  0  0  3  0  0  0  0  0  0
  183.6500  179.5470  138.9340 C   0  0  0  0  0  1  0  0  0  0  0  0
  182.8170  177.1470  140.1910 O   0  0  0  0  0  0  0  0  0  0  0  0
  183.8910  178.8210  143.2050 C   0  0  0  0  0  2  0  0  0  0  0  0
  189.9770  177.5330  138.5750 C   0  0  2  0  0  3  0  0  0  0  0  0
  189.1510  176.2800  135.7470 C   0  0  0  0  0  2  0  0  0  0  0  0
  186.2550  178.2390  139.3310 C   0  0  0  0  0  2  0  0  0  0  0  0
  185.4040  179.0730  143.0530 C   0  0  0  0  0  2  0  0  0  0  0  0
  188.4670  177.5770  138.2670 C   0  0  1  0  0  3  0  0  0  0  0  0
  192.0970  176.4650  138.3510 C   0  0  0  0  0  2  0  0  0  0  0  0
  186.0530  178.3950  141.8400 C   0  0  2  0  0  3  0  0  0  0  0  0
  183.3790  177.8240  142.3170 O   0  0  0  0  0  0  0  0  0  0  0  0
  190.2910  175.8220  136.6750 C   0  0  1  0  0  3  0  0  0  0  0  0
  188.1940  177.6450  140.7770 C   0  0  1  0  0  3  0  0  0  0  0  0
  184.1090  179.1740  140.3390 C   0  0  1  0  0  3  0  0  0  0  0  0
  187.7750  178.2860  139.4460 C   0  0  2  0  0  3  0  0  0  0  0  0
  189.3230  177.8140  143.3450 C   0  0  0  0  0  2  0  0  0  0  0  0
  188.9300  177.7940  135.7280 C   0  0  0  0  0  2  0  0  0  0  0  0
  187.9330  177.6650  143.1640 O   0  0  0  0  0  0  0  0  0  0  0  0
  188.1570  178.3080  136.9510 C   0  0  0  0  0  2  0  0  0  0  0  0
  190.9150  176.9540  137.5260 C   0  0  1  0  0  3  0  0  0  0  0  0
  190.0830  177.0280  142.2740 C   0  0  0  0  0  2  0  0  0  0  0  0
  190.2340  176.7940  139.8020 N   0  0  2  0  0  0  0  0  0  0  0  0
  189.8230  174.7210  137.5040 N   0  0  0  0  0  2  0  0  0  0  0  0
  190.7300  173.7230  137.3970 O   0  0  0  0  0  0  0  0  0  0  0  0
  192.2210  171.8750  135.1860 C   0  0  0  0  0  3  0  0  0  0  0  0
  190.1100  172.6690  135.3760 C   0  0  0  0  0  3  0  0  0  0  0  0
  191.0190  173.6570  136.0310 C   0  0  2  0  0  3  0  0  0  0  0  0
  190.8100  171.6530  134.8990 C   0  0  0  0  0  3  0  0  0  0  0  0
  192.3550  173.0240  135.8330 C   0  0  0  0  0  3  0  0  0  0  0  0
  1 26  1  1  0  0  0
  3 16  1  0  0  0  0
  4 23  1  1  0  0  0
  5 11  1  6  0  0  0
  5 15  1  0  0  0  0
  6 19  1  0  0  0  0
  7  3  2  0  0  0  0
  9 27  1  0  0  0  0
 10 17  1  0  0  0  0
 11 20  1  0  0  0  0
 12  8  1  0  0  0  0
 13  9  1  0  0  0  0
 13 20  1  0  0  0  0
 14  2  1  0  0  0  0
 15  4  1  0  0  0  0
 15 12  1  0  0  0  0
 16  8  1  0  0  0  0
 17 28  1  0  0  0  0
 17 25  1  0  0  0  0
 18  1  1  0  0  0  0
 18  4  1  0  0  0  0
 19  5  1  0  0  0  0
 19  3  1  0  0  0  0
 20 18  1  0  0  0  0
 22 10  1  0  0  0  0
 22 24  1  0  0  0  0
 23 21  1  0  0  0  0
 24 13  1  0  0  0  0
 25 14  1  0  0  0  0
 25  9  1  0  0  0  0
 26 21  1  0  0  0  0
 27  2  1  0  0  0  0
 27  1  1  0  0  0  0
 29 28  1  0  0  0  0
 30 34  2  0  0  0  0
 31 32  1  0  0  0  0
 32 29  1  0  0  0  0
 33 30  1  0  0  0  0
 33 31  2  0  0  0  0
 34 32  1  0  0  0  0
M  END
>  <MODEL>
2

>  <REMARK>
 VINA RESULT:      -6.6      2.068      2.748
  Name = 
  3 active torsions:
  status: ('A' for Active; 'I' for Inactive)
    1  A    between atoms: C_17  and  N_28
    2  A    between atoms: N_28  and  O_29
    3  A    between atoms: O_29  and  C_32
                            x       y       z     vdW  Elec       q    Type
                         _______ _______ _______ _____ _____    ______ ____

>  <TORSDO>
F 3

$$$$
=
 OpenBabel11122412243D

 34 40  0  0  1  0  0  0  0  0999 V2000
  190.8450  177.0790  137.8660 C   0  0  1  0  0  3  0  0  0  0  0  0
  190.5090  176.4860  135.5320 C   0  0  0  0  0  2  0  0  0  0  0  0
  188.5030  176.8510  143.7830 C   0  0  0  0  0  0  0  0  0  0  0  0
  191.0890  177.4990  140.3350 C   0  0  2  0  0  3  0  0  0  0  0  0
  189.0150  178.1340  141.6650 C   0  0  2  0  0  3  0  0  0  0  0  0
  186.8660  178.6200  142.9950 C   0  0  0  0  0  1  0  0  0  0  0  0
  187.5570  176.0270  143.9060 O   0  0  0  0  0  0  0  0  0  0  0  0
  190.8560  177.4580  144.2400 C   0  0  0  0  0  2  0  0  0  0  0  0
  188.7830  177.2850  136.7690 C   0  0  2  0  0  3  0  0  0  0  0  0
  185.7770  176.2750  136.3310 C   0  0  0  0  0  2  0  0  0  0  0  0
  188.1270  177.5370  140.5680 C   0  0  0  0  0  2  0  0  0  0  0  0
  191.3020  177.8710  142.8230 C   0  0  0  0  0  2  0  0  0  0  0  0
  187.9340  177.2150  138.0530 C   0  0  1  0  0  3  0  0  0  0  0  0
  189.3050  176.4610  134.5940 C   0  0  0  0  0  2  0  0  0  0  0  0
  190.3800  177.3970  141.6920 C   0  0  2  0  0  3  0  0  0  0  0  0
  189.7770  176.5190  144.2550 O   0  0  0  0  0  0  0  0  0  0  0  0
  187.0340  175.8310  135.5590 C   0  0  1  0  0  3  0  0  0  0  0  0
  190.1540  176.9800  139.2330 C   0  0  1  0  0  3  0  0  0  0  0  0
  188.3120  178.1420  143.0370 C   0  0  1  0  0  3  0  0  0  0  0  0
  188.8080  177.7190  139.2150 C   0  0  2  0  0  3  0  0  0  0  0  0
  192.9640  176.9760  139.1540 C   0  0  0  0  0  2  0  0  0  0  0  0
  185.7750  177.7530  136.7270 C   0  0  0  0  0  2  0  0  0  0  0  0
  192.2640  176.7140  140.3480 O   0  0  0  0  0  0  0  0  0  0  0  0
  186.6480  178.0510  137.9540 C   0  0  0  0  0  2  0  0  0  0  0  0
  188.1290  176.9190  135.4450 C   0  0  1  0  0  3  0  0  0  0  0  0
  192.2090  176.3900  137.9580 C   0  0  0  0  0  2  0  0  0  0  0  0
  189.9660  176.4440  136.8840 N   0  0  2  0  0  0  0  0  0  0  0  0
  187.5520  174.6050  136.1500 N   0  0  0  0  0  2  0  0  0  0  0  0
  186.7750  174.3150  137.2180 O   0  0  0  0  0  0  0  0  0  0  0  0
  184.4200  172.1540  136.6590 C   0  0  0  0  0  3  0  0  0  0  0  0
  186.4210  172.5570  135.6800 C   0  0  0  0  0  3  0  0  0  0  0  0
  186.5430  172.9400  137.1190 C   0  0  2  0  0  3  0  0  0  0  0  0
  185.2010  172.1120  135.4300 C   0  0  0  0  0  3  0  0  0  0  0  0
  185.1810  172.6250  137.6380 C   0  0  0  0  0  3  0  0  0  0  0  0
  1 26  1  1  0  0  0
  1 18  1  0  0  0  0
  2 27  1  0  0  0  0
  3  7  2  0  0  0  0
  3 16  1  0  0  0  0
  4 23  1  1  0  0  0
  4 15  1  0  0  0  0
  5 11  1  6  0  0  0
  5 15  1  0  0  0  0
  5 19  1  0  0  0  0
  6 19  1  0  0  0  0
  8 16  1  0  0  0  0
  9 27  1  0  0  0  0
  9 13  1  0  0  0  0
 10 22  1  0  0  0  0
 12  8  1  0  0  0  0
 13 20  1  0  0  0  0
 14 25  1  0  0  0  0
 14  2  1  0  0  0  0
 15 12  1  0  0  0  0
 17 28  1  0  0  0  0
 17 10  1  0  0  0  0
 18  4  1  0  0  0  0
 19  3  1  0  0  0  0
 20 18  1  0  0  0  0
 20 11  1  0  0  0  0
 21 23  1  0  0  0  0
 22 24  1  0  0  0  0
 24 13  1  0  0  0  0
 25 17  1  0  0  0  0
 25  9  1  0  0  0  0
 26 21  1  0  0  0  0
 27  1  1  0  0  0  0
 28 29  1  0  0  0  0
 30 34  2  0  0  0  0
 31 32  1  0  0  0  0
 32 29  1  0  0  0  0
 32 34  1  0  0  0  0
 33 31  2  0  0  0  0
 33 30  1  0  0  0  0
M  END
>  <MODEL>
3

>  <REMARK>
 VINA RESULT:      -6.5      2.217      3.766
  Name = 
  3 active torsions:
  status: ('A' for Active; 'I' for Inactive)
    1  A    between atoms: C_17  and  N_28
    2  A    between atoms: N_28  and  O_29
    3  A    between atoms: O_29  and  C_32
                            x       y       z     vdW  Elec       q    Type
                         _______ _______ _______ _____ _____    ______ ____

>  <TORSDO>
F 3

$$$$
=
 OpenBabel11122412243D

 34 40  0  0  1  0  0  0  0  0999 V2000
  190.0070  177.6660  139.2480 C   0  0  1  0  0  3  0  0  0  0  0  0
  189.7870  177.1850  136.8750 C   0  0  0  0  0  2  0  0  0  0  0  0
  187.3800  177.1560  145.0260 C   0  0  0  0  0  0  0  0  0  0  0  0
  190.1290  177.9680  141.7440 C   0  0  2  0  0  3  0  0  0  0  0  0
  187.9910  178.5390  142.9990 C   0  0  2  0  0  3  0  0  0  0  0  0
  185.7780  178.9610  144.2430 C   0  0  0  0  0  1  0  0  0  0  0  0
  186.4310  176.3270  145.0630 O   0  0  0  0  0  0  0  0  0  0  0  0
  189.7050  177.7400  145.6250 C   0  0  0  0  0  2  0  0  0  0  0  0
  188.0010  177.9240  138.0620 C   0  0  2  0  0  3  0  0  0  0  0  0
  185.0220  176.9350  137.4300 C   0  0  0  0  0  2  0  0  0  0  0  0
  187.1600  177.9940  141.8330 C   0  0  0  0  0  2  0  0  0  0  0  0
  190.2190  178.2210  144.2540 C   0  0  0  0  0  2  0  0  0  0  0  0
  187.0900  177.7930  139.2990 C   0  0  1  0  0  3  0  0  0  0  0  0
  188.6300  177.2050  135.8790 C   0  0  0  0  0  2  0  0  0  0  0  0
  189.3550  177.8010  143.0580 C   0  0  2  0  0  3  0  0  0  0  0  0
  188.6300  176.8020  145.5430 O   0  0  0  0  0  0  0  0  0  0  0  0
  186.3160  176.5300  136.7010 C   0  0  1  0  0  3  0  0  0  0  0  0
  189.2510  177.5020  140.5730 C   0  0  1  0  0  3  0  0  0  0  0  0
  187.2220  178.4810  144.3330 C   0  0  1  0  0  3  0  0  0  0  0  0
  187.9060  178.2410  140.5250 C   0  0  2  0  0  3  0  0  0  0  0  0
  192.0610  177.5030  140.6320 C   0  0  0  0  0  2  0  0  0  0  0  0
  184.9970  178.3930  137.8960 C   0  0  0  0  0  2  0  0  0  0  0  0
  191.3040  177.1830  141.7770 O   0  0  0  0  0  0  0  0  0  0  0  0
  185.8080  178.6330  139.1760 C   0  0  0  0  0  2  0  0  0  0  0  0
  187.4140  177.6220  136.6920 C   0  0  1  0  0  3  0  0  0  0  0  0
  191.3660  176.9740  139.3740 C   0  0  0  0  0  2  0  0  0  0  0  0
  189.1790  177.0790  138.1950 N   0  0  2  0  0  0  0  0  0  0  0  0
  186.8090  175.2770  137.2570 N   0  0  0  0  0  2  0  0  0  0  0  0
  186.6470  174.3260  136.3080 O   0  0  0  0  0  0  0  0  0  0  0  0
  184.2140  172.3140  137.0540 C   0  0  0  0  0  3  0  0  0  0  0  0
  186.2350  172.0110  136.0800 C   0  0  0  0  0  3  0  0  0  0  0  0
  186.3630  173.1600  137.0260 C   0  0  2  0  0  3  0  0  0  0  0  0
  185.0000  171.5370  136.1040 C   0  0  0  0  0  3  0  0  0  0  0  0
  184.9860  173.2470  137.5930 C   0  0  0  0  0  3  0  0  0  0  0  0
  1 26  1  1  0  0  0
  1 18  1  0  0  0  0
  2 27  1  0  0  0  0
  3  7  2  0  0  0  0
  3 16  1  0  0  0  0
  4 23  1  1  0  0  0
  4 15  1  0  0  0  0
  5 11  1  6  0  0  0
  5 15  1  0  0  0  0
  5 19  1  0  0  0  0
  6 19  1  0  0  0  0
  9 27  1  0  0  0  0
  9 13  1  0  0  0  0
 10 22  1  0  0  0  0
 12  8  1  0  0  0  0
 13 20  1  0  0  0  0
 14 25  1  0  0  0  0
 14  2  1  0  0  0  0
 15 12  1  0  0  0  0
 16  8  1  0  0  0  0
 17 28  1  0  0  0  0
 17 10  1  0  0  0  0
 18  4  1  0  0  0  0
 19  3  1  0  0  0  0
 20 18  1  0  0  0  0
 20 11  1  0  0  0  0
 21 23  1  0  0  0  0
 22 24  1  0  0  0  0
 24 13  1  0  0  0  0
 25 17  1  0  0  0  0
 25  9  1  0  0  0  0
 26 21  1  0  0  0  0
 27  1  1  0  0  0  0
 29 32  1  0  0  0  0
 29 28  1  0  0  0  0
 30 34  2  0  0  0  0
 31 33  2  0  0  0  0
 31 32  1  0  0  0  0
 32 34  1  0  0  0  0
 33 30  1  0  0  0  0
M  END
>  <MODEL>
4

>  <REMARK>
 VINA RESULT:      -6.3      2.020      3.607
  Name = 
  3 active torsions:
  status: ('A' for Active; 'I' for Inactive)
    1  A    between atoms: C_17  and  N_28
    2  A    between atoms: N_28  and  O_29
    3  A    between atoms: O_29  and  C_32
                            x       y       z     vdW  Elec       q    Type
                         _______ _______ _______ _____ _____    ______ ____

>  <TORSDO>
F 3

$$$$
=
 OpenBabel11122412243D

 34 40  0  0  1  0  0  0  0  0999 V2000
  180.4810  176.1440  139.5760 C   0  0  1  0  0  3  0  0  0  0  0  0
  180.3540  177.9560  141.1920 C   0  0  0  0  0  2  0  0  0  0  0  0
  184.2670  172.1220  136.4070 C   0  0  0  0  0  0  0  0  0  0  0  0
  180.7860  174.1880  138.0220 C   0  0  2  0  0  3  0  0  0  0  0  0
  182.7990  174.1800  136.4660 C   0  0  2  0  0  3  0  0  0  0  0  0
  184.9300  174.1420  135.0250 C   0  0  0  0  0  1  0  0  0  0  0  0
  185.4320  172.0640  136.8850 O   0  0  0  0  0  0  0  0  0  0  0  0
  182.0640  171.0540  136.0610 C   0  0  0  0  0  2  0  0  0  0  0  0
  181.9730  177.9530  139.6030 C   0  0  2  0  0  3  0  0  0  0  0  0
  184.9070  179.1020  140.1720 C   0  0  0  0  0  2  0  0  0  0  0  0
  183.5050  175.1930  137.3740 C   0  0  0  0  0  2  0  0  0  0  0  0
  181.1400  172.2090  136.4950 C   0  0  0  0  0  2  0  0  0  0  0  0
  183.1090  177.2070  138.8750 C   0  0  1  0  0  3  0  0  0  0  0  0
  181.1950  179.1970  141.4810 C   0  0  0  0  0  2  0  0  0  0  0  0
  181.8260  173.3130  137.3090 C   0  0  2  0  0  3  0  0  0  0  0  0
  183.3580  171.0910  136.6680 O   0  0  0  0  0  0  0  0  0  0  0  0
  183.7160  179.0550  141.1470 C   0  0  1  0  0  3  0  0  0  0  0  0
  181.5060  175.2560  138.8580 C   0  0  1  0  0  3  0  0  0  0  0  0
  183.8000  173.3360  135.6540 C   0  0  1  0  0  3  0  0  0  0  0  0
  182.4640  176.1070  138.0120 C   0  0  2  0  0  3  0  0  0  0  0  0
  178.9540  174.1980  139.3750 C   0  0  0  0  0  2  0  0  0  0  0  0
  184.5140  179.3780  138.7190 C   0  0  0  0  0  2  0  0  0  0  0  0
  179.9960  173.3890  138.8810 O   0  0  0  0  0  0  0  0  0  0  0  0
  183.9580  178.1420  137.9980 C   0  0  0  0  0  2  0  0  0  0  0  0
  182.3290  179.1530  140.4670 C   0  0  1  0  0  3  0  0  0  0  0  0
  179.5100  175.2440  140.3440 C   0  0  0  0  0  2  0  0  0  0  0  0
  181.2230  177.0440  140.4580 N   0  0  2  0  0  0  0  0  0  0  0  0
  183.8230  177.8640  141.9790 N   0  0  0  0  0  2  0  0  0  0  0  0
  183.6380  178.2530  143.2620 O   0  0  0  0  0  0  0  0  0  0  0  0
  185.6820  178.6500  145.7500 C   0  0  0  0  0  3  0  0  0  0  0  0
  185.9400  177.8780  143.6370 C   0  0  0  0  0  3  0  0  0  0  0  0
  184.8350  178.8830  143.6130 C   0  0  2  0  0  3  0  0  0  0  0  0
  186.4140  177.7520  144.8660 C   0  0  0  0  0  3  0  0  0  0  0  0
  184.7740  179.3080  145.0420 C   0  0  0  0  0  3  0  0  0  0  0  0
  1 26  1  1  0  0  0
  1 27  1  0  0  0  0
  2 14  1  0  0  0  0
  3 16  1  0  0  0  0
  3  7  2  0  0  0  0
  4 18  1  0  0  0  0
  4 23  1  1  0  0  0
  5 15  1  0  0  0  0
  5 11  1  1  0  0  0
  6 19  1  0  0  0  0
  8 12  1  0  0  0  0
  8 16  1  0  0  0  0
  9 27  1  0  0  0  0
  9 25  1  0  0  0  0
 10 17  1  0  0  0  0
 11 20  1  0  0  0  0
 12 15  1  0  0  0  0
 13  9  1  0  0  0  0
 15  4  1  0  0  0  0
 17 28  1  0  0  0  0
 18  1  1  0  0  0  0
 19  3  1  0  0  0  0
 19  5  1  0  0  0  0
 20 18  1  0  0  0  0
 20 13  1  0  0  0  0
 21 26  1  0  0  0  0
 22 10  1  0  0  0  0
 23 21  1  0  0  0  0
 24 22  1  0  0  0  0
 24 13  1  0  0  0  0
 25 17  1  0  0  0  0
 25 14  1  0  0  0  0
 27  2  1  0  0  0  0
 28 29  1  0  0  0  0
 29 32  1  0  0  0  0
 31 33  2  0  0  0  0
 32 31  1  0  0  0  0
 32 34  1  0  0  0  0
 33 30  1  0  0  0  0
 34 30  2  0  0  0  0
M  END
>  <MODEL>
5

>  <REMARK>
 VINA RESULT:      -6.3      3.896      8.385
  Name = 
  3 active torsions:
  status: ('A' for Active; 'I' for Inactive)
    1  A    between atoms: C_17  and  N_28
    2  A    between atoms: N_28  and  O_29
    3  A    between atoms: O_29  and  C_32
                            x       y       z     vdW  Elec       q    Type
                         _______ _______ _______ _____ _____    ______ ____

>  <TORSDO>
F 3

$$$$
=
 OpenBabel11122412243D

 34 40  0  0  1  0  0  0  0  0999 V2000
  183.4650  178.7840  139.5530 C   0  0  1  0  0  3  0  0  0  0  0  0
  181.2830  178.6330  138.4920 C   0  0  0  0  0  2  0  0  0  0  0  0
  187.0210  177.2370  144.6040 C   0  0  0  0  0  0  0  0  0  0  0  0
  185.6860  178.7340  140.7350 C   0  0  2  0  0  3  0  0  0  0  0  0
  185.7140  178.9420  143.2710 C   0  0  2  0  0  3  0  0  0  0  0  0
  185.6810  178.9980  145.8430 C   0  0  0  0  0  1  0  0  0  0  0  0
  186.4990  176.3360  145.3150 O   0  0  0  0  0  0  0  0  0  0  0  0
  188.7710  177.9170  142.9970 C   0  0  0  0  0  2  0  0  0  0  0  0
  181.4460  179.0450  140.7170 C   0  0  2  0  0  3  0  0  0  0  0  0
  179.3000  177.9170  142.8080 C   0  0  0  0  0  2  0  0  0  0  0  0
  184.2460  178.5040  143.3230 C   0  0  0  0  0  2  0  0  0  0  0  0
  187.9000  178.6300  141.9440 C   0  0  0  0  0  2  0  0  0  0  0  0
  182.0260  178.6640  142.0920 C   0  0  1  0  0  3  0  0  0  0  0  0
  179.8410  178.7000  138.9880 C   0  0  0  0  0  2  0  0  0  0  0  0
  186.4010  178.3170  142.0270 C   0  0  2  0  0  3  0  0  0  0  0  0
  188.0740  176.9160  143.7410 O   0  0  0  0  0  0  0  0  0  0  0  0
  179.3050  177.7280  141.2800 C   0  0  1  0  0  3  0  0  0  0  0  0
  184.1980  178.3710  140.8370 C   0  0  1  0  0  3  0  0  0  0  0  0
  186.4570  178.6300  144.5840 C   0  0  1  0  0  3  0  0  0  0  0  0
  183.5290  178.9960  142.0690 C   0  0  2  0  0  3  0  0  0  0  0  0
  185.6860  178.5920  138.4620 C   0  0  0  0  0  2  0  0  0  0  0  0
  179.8050  179.2870  143.2700 C   0  0  0  0  0  2  0  0  0  0  0  0
  186.2510  178.0510  139.6340 O   0  0  0  0  0  0  0  0  0  0  0  0
  181.3350  179.4050  143.2480 C   0  0  0  0  0  2  0  0  0  0  0  0
  179.9480  178.8960  140.4930 C   0  0  1  0  0  3  0  0  0  0  0  0
  184.2110  178.1950  138.3540 C   0  0  0  0  0  2  0  0  0  0  0  0
  182.0920  178.2890  139.6540 N   0  0  2  0  0  0  0  0  0  0  0  0
  179.9290  176.4530  140.9560 N   0  0  0  0  0  2  0  0  0  0  0  0
  178.9600  175.6430  140.4710 O   0  0  0  0  0  0  0  0  0  0  0  0
  179.6840  174.2620  137.6260 C   0  0  0  0  0  3  0  0  0  0  0  0
  180.9440  175.0410  139.3380 C   0  0  0  0  0  3  0  0  0  0  0  0
  179.6520  174.5620  139.9160 C   0  0  2  0  0  3  0  0  0  0  0  0
  180.9480  174.8660  138.0270 C   0  0  0  0  0  3  0  0  0  0  0  0
  178.9310  174.0790  138.7020 C   0  0  0  0  0  3  0  0  0  0  0  0
  1 26  1  6  0  0  0
  1 27  1  0  0  0  0
  1 18  1  0  0  0  0
  2 14  1  0  0  0  0
  2 27  1  0  0  0  0
  3  7  2  0  0  0  0
  4 23  1  6  0  0  0
  4 18  1  0  0  0  0
  4 15  1  0  0  0  0
  5 11  1  1  0  0  0
  5 19  1  0  0  0  0
  8 16  1  0  0  0  0
  9 13  1  0  0  0  0
 10 22  1  0  0  0  0
 12 15  1  0  0  0  0
 12  8  1  0  0  0  0
 13 24  1  0  0  0  0
 14 25  1  0  0  0  0
 15  5  1  0  0  0  0
 16  3  1  0  0  0  0
 17 10  1  0  0  0  0
 18 20  1  0  0  0  0
 19  3  1  0  0  0  0
 19  6  1  0  0  0  0
 20 13  1  0  0  0  0
 20 11  1  0  0  0  0
 21 23  1  0  0  0  0
 24 22  1  0  0  0  0
 25  9  1  0  0  0  0
 25 17  1  0  0  0  0
 26 21  1  0  0  0  0
 27  9  1  0  0  0  0
 28 17  1  0  0  0  0
 29 28  1  0  0  0  0
 30 33  1  0  0  0  0
 30 34  2  0  0  0  0
 31 32  1  0  0  0  0
 32 29  1  0  0  0  0
 33 31  2  0  0  0  0
 34 32  1  0  0  0  0
M  END
>  <MODEL>
6

>  <REMARK>
 VINA RESULT:      -6.3      3.953      7.385
  Name = 
  3 active torsions:
  status: ('A' for Active; 'I' for Inactive)
    1  A    between atoms: C_17  and  N_28
    2  A    between atoms: N_28  and  O_29
    3  A    between atoms: O_29  and  C_32
                            x       y       z     vdW  Elec       q    Type
                         _______ _______ _______ _____ _____    ______ ____

>  <TORSDO>
F 3

$$$$
=
 OpenBabel11122412243D

 34 40  0  0  1  0  0  0  0  0999 V2000
  184.1470  178.4220  138.6420 C   0  0  1  0  0  3  0  0  0  0  0  0
  182.1580  178.0270  137.3000 C   0  0  0  0  0  2  0  0  0  0  0  0
  187.1000  177.3560  144.1820 C   0  0  0  0  0  0  0  0  0  0  0  0
  186.1770  178.6230  140.1160 C   0  0  2  0  0  3  0  0  0  0  0  0
  185.8310  178.8900  142.6220 C   0  0  2  0  0  3  0  0  0  0  0  0
  185.4360  179.0010  145.1630 C   0  0  0  0  0  1  0  0  0  0  0  0
  186.5730  176.4240  144.8480 O   0  0  0  0  0  0  0  0  0  0  0  0
  188.9820  178.1720  142.8040 C   0  0  0  0  0  2  0  0  0  0  0  0
  181.9700  178.5040  139.5090 C   0  0  2  0  0  3  0  0  0  0  0  0
  179.6730  177.2140  141.3290 C   0  0  0  0  0  2  0  0  0  0  0  0
  184.4200  178.3080  142.4900 C   0  0  0  0  0  2  0  0  0  0  0  0
  188.2010  178.7700  141.6170 C   0  0  0  0  0  2  0  0  0  0  0  0
  182.3880  178.2150  140.9640 C   0  0  1  0  0  3  0  0  0  0  0  0
  180.6610  177.9600  137.5920 C   0  0  0  0  0  2  0  0  0  0  0  0
  186.7420  178.3090  141.5070 C   0  0  2  0  0  3  0  0  0  0  0  0
  188.2880  177.1230  143.4830 O   0  0  0  0  0  0  0  0  0  0  0  0
  179.9090  176.9910  139.8240 C   0  0  1  0  0  3  0  0  0  0  0  0
  184.7310  178.1140  140.0270 C   0  0  1  0  0  3  0  0  0  0  0  0
  186.4120  178.6850  144.0350 C   0  0  1  0  0  3  0  0  0  0  0  0
  183.8400  178.6970  141.1340 C   0  0  2  0  0  3  0  0  0  0  0  0
  186.5060  178.4300  137.8700 C   0  0  0  0  0  2  0  0  0  0  0  0
  179.9750  178.6370  141.8060 C   0  0  0  0  0  2  0  0  0  0  0  0
  186.9530  177.9750  139.1270 O   0  0  0  0  0  0  0  0  0  0  0  0
  181.4740  178.9090  141.9880 C   0  0  0  0  0  2  0  0  0  0  0  0
  180.5390  178.2000  139.0900 C   0  0  1  0  0  3  0  0  0  0  0  0
  185.1060  177.8840  137.5780 C   0  0  0  0  0  2  0  0  0  0  0  0
  182.8280  177.7930  138.5730 N   0  0  2  0  0  0  0  0  0  0  0  0
  180.6930  175.7780  139.6350 N   0  0  0  0  0  2  0  0  0  0  0  0
  179.8220  174.7460  139.5560 O   0  0  0  0  0  0  0  0  0  0  0  0
  181.3360  173.0160  137.2670 C   0  0  0  0  0  3  0  0  0  0  0  0
  179.2010  173.0650  138.0170 C   0  0  0  0  0  3  0  0  0  0  0  0
  179.7680  174.4360  138.1940 C   0  0  2  0  0  3  0  0  0  0  0  0
  180.1090  172.2620  137.4870 C   0  0  0  0  0  3  0  0  0  0  0  0
  181.1520  174.2680  137.6650 C   0  0  0  0  0  3  0  0  0  0  0  0
  1 26  1  6  0  0  0
  1 18  1  0  0  0  0
  2 14  1  0  0  0  0
  2 27  1  0  0  0  0
  3  7  2  0  0  0  0
  4 23  1  6  0  0  0
  4 15  1  0  0  0  0
  5 11  1  1  0  0  0
  5 19  1  0  0  0  0
  8 16  1  0  0  0  0
  9 13  1  0  0  0  0
 10 22  1  0  0  0  0
 12  8  1  0  0  0  0
 13 20  1  0  0  0  0
 13 24  1  0  0  0  0
 14 25  1  0  0  0  0
 15 12  1  0  0  0  0
 15  5  1  0  0  0  0
 16  3  1  0  0  0  0
 17 10  1  0  0  0  0
 18  4  1  0  0  0  0
 18 20  1  0  0  0  0
 19  3  1  0  0  0  0
 19  6  1  0  0  0  0
 20 11  1  0  0  0  0
 21 23  1  0  0  0  0
 22 24  1  0  0  0  0
 25  9  1  0  0  0  0
 25 17  1  0  0  0  0
 26 21  1  0  0  0  0
 27  1  1  0  0  0  0
 27  9  1  0  0  0  0
 28 17  1  0  0  0  0
 29 28  1  0  0  0  0
 30 33  1  0  0  0  0
 30 34  2  0  0  0  0
 31 32  1  0  0  0  0
 32 29  1  0  0  0  0
 33 31  2  0  0  0  0
 34 32  1  0  0  0  0
M  END
>  <MODEL>
7

>  <REMARK>
 VINA RESULT:      -6.2      3.425      6.636
  Name = 
  3 active torsions:
  status: ('A' for Active; 'I' for Inactive)
    1  A    between atoms: C_17  and  N_28
    2  A    between atoms: N_28  and  O_29
    3  A    between atoms: O_29  and  C_32
                            x       y       z     vdW  Elec       q    Type
                         _______ _______ _______ _____ _____    ______ ____

>  <TORSDO>
F 3

$$$$
=
 OpenBabel11122412243D

 34 40  0  0  1  0  0  0  0  0999 V2000
  183.1480  178.6660  141.3580 C   0  0  1  0  0  3  0  0  0  0  0  0
  180.8140  179.3120  141.5750 C   0  0  0  0  0  2  0  0  0  0  0  0
  188.3980  178.8910  137.7610 C   0  0  0  0  0  0  0  0  0  0  0  0
  185.5980  178.1930  141.0270 C   0  0  2  0  0  3  0  0  0  0  0  0
  186.4150  177.6240  138.6850 C   0  0  2  0  0  3  0  0  0  0  0  0
  187.2180  177.2080  136.2760 C   0  0  0  0  0  1  0  0  0  0  0  0
  188.3280  179.7530  136.8430 O   0  0  0  0  0  0  0  0  0  0  0  0
  189.3520  178.1780  139.9270 C   0  0  0  0  0  2  0  0  0  0  0  0
  181.6140  178.5660  139.5870 C   0  0  2  0  0  3  0  0  0  0  0  0
  180.5430  179.7110  136.7960 C   0  0  0  0  0  2  0  0  0  0  0  0
  185.1640  178.2780  138.0890 C   0  0  0  0  0  2  0  0  0  0  0  0
  188.0600  177.7700  140.6630 C   0  0  0  0  0  2  0  0  0  0  0  0
  182.6780  178.6500  138.4750 C   0  0  1  0  0  3  0  0  0  0  0  0
  179.6320  179.4050  140.6140 C   0  0  0  0  0  2  0  0  0  0  0  0
  186.7650  178.3020  140.0370 C   0  0  2  0  0  3  0  0  0  0  0  0
  189.1510  179.1610  138.9090 O   0  0  0  0  0  0  0  0  0  0  0  0
  180.0830  180.1140  138.2090 C   0  0  1  0  0  3  0  0  0  0  0  0
  184.3280  178.7700  140.3830 C   0  0  1  0  0  3  0  0  0  0  0  0
  187.5940  177.6230  137.6940 C   0  0  1  0  0  3  0  0  0  0  0  0
  183.9920  178.0900  139.0480 C   0  0  2  0  0  3  0  0  0  0  0  0
  184.8780  178.6550  143.1370 C   0  0  0  0  0  2  0  0  0  0  0  0
  180.8900  178.2270  136.6490 C   0  0  0  0  0  2  0  0  0  0  0  0
  185.8930  178.9270  142.1980 O   0  0  0  0  0  0  0  0  0  0  0  0
  182.2720  177.8710  137.2140 C   0  0  0  0  0  2  0  0  0  0  0  0
  180.1870  178.9820  139.2610 C   0  0  1  0  0  3  0  0  0  0  0  0
  183.5600  179.2930  142.6910 C   0  0  0  0  0  2  0  0  0  0  0  0
  182.0120  179.3530  140.7460 N   0  0  2  0  0  0  0  0  0  0  0  0
  180.8060  181.3060  138.6290 N   0  0  0  0  0  2  0  0  0  0  0  0
  181.1870  181.9600  137.5070 O   0  0  0  0  0  0  0  0  0  0  0  0
  181.1810  184.9950  136.3610 C   0  0  0  0  0  3  0  0  0  0  0  0
  179.7110  183.2790  136.2170 C   0  0  0  0  0  3  0  0  0  0  0  0
  180.4360  183.1390  137.5160 C   0  0  2  0  0  3  0  0  0  0  0  0
  180.1480  184.3440  135.5650 C   0  0  0  0  0  3  0  0  0  0  0  0
  181.3530  184.3150  137.4860 C   0  0  0  0  0  3  0  0  0  0  0  0
  1 26  1  1  0  0  0
  3 16  1  0  0  0  0
  4 23  1  1  0  0  0
  5 11  1  6  0  0  0
  5 15  1  0  0  0  0
  6 19  1  0  0  0  0
  7  3  2  0  0  0  0
  8 12  1  0  0  0  0
  9 27  1  0  0  0  0
 10 17  1  0  0  0  0
 11 20  1  0  0  0  0
 13 20  1  0  0  0  0
 13  9  1  0  0  0  0
 14  2  1  0  0  0  0
 15 12  1  0  0  0  0
 15  4  1  0  0  0  0
 16  8  1  0  0  0  0
 17 28  1  0  0  0  0
 17 25  1  0  0  0  0
 18  4  1  0  0  0  0
 18  1  1  0  0  0  0
 19  3  1  0  0  0  0
 19  5  1  0  0  0  0
 20 18  1  0  0  0  0
 22 10  1  0  0  0  0
 22 24  1  0  0  0  0
 23 21  1  0  0  0  0
 24 13  1  0  0  0  0
 25  9  1  0  0  0  0
 25 14  1  0  0  0  0
 26 21  1  0  0  0  0
 27  1  1  0  0  0  0
 27  2  1  0  0  0  0
 29 32  1  0  0  0  0
 29 28  1  0  0  0  0
 30 34  2  0  0  0  0
 31 32  1  0  0  0  0
 33 31  2  0  0  0  0
 33 30  1  0  0  0  0
 34 32  1  0  0  0  0
M  END
>  <MODEL>
8

>  <REMARK>
 VINA RESULT:      -6.1      3.789      7.854
  Name = 
  3 active torsions:
  status: ('A' for Active; 'I' for Inactive)
    1  A    between atoms: C_17  and  N_28
    2  A    between atoms: N_28  and  O_29
    3  A    between atoms: O_29  and  C_32
                            x       y       z     vdW  Elec       q    Type
                         _______ _______ _______ _____ _____    ______ ____

>  <TORSDO>
F 3

$$$$
=
 OpenBabel11122412243D

 34 40  0  0  1  0  0  0  0  0999 V2000
  189.5540  177.8280  139.6170 C   0  0  1  0  0  3  0  0  0  0  0  0
  189.2470  177.4650  137.2330 C   0  0  0  0  0  2  0  0  0  0  0  0
  187.0580  177.1910  145.4410 C   0  0  0  0  0  0  0  0  0  0  0  0
  189.7570  178.0130  142.1190 C   0  0  2  0  0  3  0  0  0  0  0  0
  187.6840  178.6310  143.4590 C   0  0  2  0  0  3  0  0  0  0  0  0
  185.5290  179.1060  144.7830 C   0  0  0  0  0  1  0  0  0  0  0  0
  186.0690  176.4090  145.4690 O   0  0  0  0  0  0  0  0  0  0  0  0
  189.4250  177.6330  145.9980 C   0  0  0  0  0  2  0  0  0  0  0  0
  187.5320  178.2380  138.5020 C   0  0  2  0  0  3  0  0  0  0  0  0
  184.4920  177.4260  137.9130 C   0  0  0  0  0  2  0  0  0  0  0  0
  186.7960  178.1810  142.2940 C   0  0  0  0  0  2  0  0  0  0  0  0
  189.9260  178.1490  144.6340 C   0  0  0  0  0  2  0  0  0  0  0  0
  186.6490  178.0960  139.7570 C   0  0  1  0  0  3  0  0  0  0  0  0
  188.0670  177.5860  136.2720 C   0  0  0  0  0  2  0  0  0  0  0  0
  189.0110  177.8250  143.4470 C   0  0  2  0  0  3  0  0  0  0  0  0
  188.3020  176.7530  145.9060 O   0  0  0  0  0  0  0  0  0  0  0  0
  185.7440  176.9900  137.1300 C   0  0  1  0  0  3  0  0  0  0  0  0
  188.8250  177.6430  140.9550 C   0  0  1  0  0  3  0  0  0  0  0  0
  186.9490  178.5520  144.8110 C   0  0  1  0  0  3  0  0  0  0  0  0
  187.5180  178.4490  140.9780 C   0  0  2  0  0  3  0  0  0  0  0  0
  191.6330  177.5030  140.9330 C   0  0  0  0  0  2  0  0  0  0  0  0
  184.5520  178.8610  138.4420 C   0  0  0  0  0  2  0  0  0  0  0  0
  190.8910  177.1700  142.0840 O   0  0  0  0  0  0  0  0  0  0  0  0
  185.4080  179.0030  139.7080 C   0  0  0  0  0  2  0  0  0  0  0  0
  186.8940  178.0260  137.1370 C   0  0  1  0  0  3  0  0  0  0  0  0
  190.8790  177.0660  139.6740 C   0  0  0  0  0  2  0  0  0  0  0  0
  188.6690  177.3310  138.5640 N   0  0  2  0  0  0  0  0  0  0  0  0
  186.1870  175.6910  137.6170 N   0  0  0  0  0  2  0  0  0  0  0  0
  185.7440  174.7610  136.7400 O   0  0  0  0  0  0  0  0  0  0  0  0
  186.6470  171.8080  135.7460 C   0  0  0  0  0  3  0  0  0  0  0  0
  187.7210  173.4720  136.8440 C   0  0  0  0  0  3  0  0  0  0  0  0
  186.2750  173.5560  137.2090 C   0  0  2  0  0  3  0  0  0  0  0  0
  187.9200  172.4690  136.0040 C   0  0  0  0  0  3  0  0  0  0  0  0
  185.6940  172.4200  136.4350 C   0  0  0  0  0  3  0  0  0  0  0  0
  1 26  1  1  0  0  0
  1 18  1  0  0  0  0
  2 27  1  0  0  0  0
  3  7  2  0  0  0  0
  3 16  1  0  0  0  0
  4 23  1  1  0  0  0
  4 15  1  0  0  0  0
  5 11  1  6  0  0  0
  5 19  1  0  0  0  0
  6 19  1  0  0  0  0
  9 27  1  0  0  0  0
  9 13  1  0  0  0  0
 10 22  1  0  0  0  0
 12  8  1  0  0  0  0
 13 20  1  0  0  0  0
 14 25  1  0  0  0  0
 14  2  1  0  0  0  0
 15  5  1  0  0  0  0
 15 12  1  0  0  0  0
 16  8  1  0  0  0  0
 17 25  1  0  0  0  0
 17 28  1  0  0  0  0
 17 10  1  0  0  0  0
 18 20  1  0  0  0  0
 18  4  1  0  0  0  0
 19  3  1  0  0  0  0
 20 11  1  0  0  0  0
 21 23  1  0  0  0  0
 22 24  1  0  0  0  0
 24 13  1  0  0  0  0
 25  9  1  0  0  0  0
 26 21  1  0  0  0  0
 27  1  1  0  0  0  0
 29 32  1  0  0  0  0
 29 28  1  0  0  0  0
 30 33  1  0  0  0  0
 30 34  2  0  0  0  0
 31 32  1  0  0  0  0
 33 31  2  0  0  0  0
 34 32  1  0  0  0  0
M  END
>  <MODEL>
9

>  <REMARK>
 VINA RESULT:      -6.0      2.089      3.887
  Name = 
  3 active torsions:
  status: ('A' for Active; 'I' for Inactive)
    1  A    between atoms: C_17  and  N_28
    2  A    between atoms: N_28  and  O_29
    3  A    between atoms: O_29  and  C_32
                            x       y       z     vdW  Elec       q    Type
                         _______ _______ _______ _____ _____    ______ ____

>  <TORSDO>
F 3

$$$$
