=
 OpenBabel11122411293D

 37 43  0  0  1  0  0  0  0  0999 V2000
  181.2900  179.4570  139.8330 O   0  0  0  0  0  0  0  0  0  0  0  0
  185.3910  178.8800  142.8960 C   0  0  0  0  0  0  0  0  0  0  0  0
  184.7120  178.3140  138.6690 C   0  0  1  0  0  3  0  0  0  0  0  0
  179.9140  179.7380  139.9100 C   0  0  2  0  0  3  0  0  0  0  0  0
  182.0870  175.3420  138.6840 C   0  0  0  0  0  2  0  0  0  0  0  0
  186.3500  178.3530  140.6070 C   0  0  1  0  0  3  0  0  0  0  0  0
  183.3570  177.6180  138.8120 C   0  0  1  0  0  3  0  0  0  0  0  0
  179.2510  177.8320  138.3260 C   0  0  2  0  0  3  0  0  0  0  0  0
  185.0230  178.8890  140.0470 C   0  0  2  0  0  3  0  0  0  0  0  0
  183.3170  176.1650  138.2610 C   0  0  2  0  0  3  0  0  0  0  0  0
  187.4320  178.6590  139.6740 N   0  0  0  0  0  2  0  0  0  0  0  0
  179.2370  179.3460  138.5940 C   0  0  0  0  0  2  0  0  0  0  0  0
  183.8670  178.6830  140.9440 N   0  0  2  0  0  0  0  0  0  0  0  0
  184.9670  180.1560  143.2110 F   0  0  0  0  0  0  0  0  0  0  0  0
  185.6700  176.9850  136.6810 C   0  0  0  0  0  2  0  0  0  0  0  0
  187.2420  177.9970  138.3690 C   0  0  0  0  0  2  0  0  0  0  0  0
  184.2330  178.1090  142.2470 C   0  0  0  0  0  2  0  0  0  0  0  0
  180.5600  177.2700  138.6830 N   0  0  2  0  0  0  0  0  0  0  0  0
  180.7480  175.9060  138.1910 C   0  0  0  0  0  2  0  0  0  0  0  0
  185.8420  177.3970  138.1470 C   0  0  1  0  0  3  0  0  0  0  0  0
  182.9680  177.7380  140.2890 C   0  0  1  0  0  3  0  0  0  0  0  0
  186.6140  178.9750  141.9710 C   0  0  0  0  0  2  0  0  0  0  0  0
  183.5070  176.1260  136.7300 C   0  0  1  0  0  3  0  0  0  0  0  0
  185.7600  178.2330  144.0600 F   0  0  0  0  0  0  0  0  0  0  0  0
  180.6040  177.2070  140.0430 O   0  0  0  0  0  0  0  0  0  0  0  0
  178.9310  177.6340  136.8490 C   0  0  0  0  0  1  0  0  0  0  0  0
  181.5130  178.2080  140.4620 C   0  0  2  0  0  3  0  0  0  0  0  0
  184.3490  177.1440  136.2100 O   0  0  0  0  0  0  0  0  0  0  0  0
  184.5060  173.8480  137.1260 C   0  0  0  0  0  3  0  0  0  0  0  0
  183.7590  174.7240  136.1490 C   0  0  1  0  0  3  0  0  0  0  0  0
  182.4990  174.0580  135.5850 C   0  0  0  0  0  2  0  0  0  0  0  0
  181.6950  172.0450  134.5950 O   0  0  0  0  0  1  0  0  0  0  0  0
  183.2240  171.8280  136.4120 C   0  0  0  0  0  2  0  0  0  0  0  0
  182.8190  172.6270  135.1760 C   0  0  2  0  0  3  0  0  0  0  0  0
  184.2950  172.5260  137.2110 C   0  0  0  0  0  3  0  0  0  0  0  0
  179.2890  181.4310  141.4510 F   0  0  0  0  0  0  0  0  0  0  0  0
  179.7120  181.2210  140.1530 C   0  0  0  0  0  2  0  0  0  0  0  0
  1  4  1  0  0  0  0
  1 27  1  0  0  0  0
  2 14  1  0  0  0  0
  2 24  1  0  0  0  0
  3  7  1  0  0  0  0
  3  9  1  0  0  0  0
  4 37  1  0  0  0  0
  6 22  1  0  0  0  0
  7 21  1  0  0  0  0
  8 12  1  0  0  0  0
  8 18  1  0  0  0  0
  9  6  1  0  0  0  0
  9 13  1  0  0  0  0
 10  5  1  0  0  0  0
 10  7  1  0  0  0  0
 11  6  1  0  0  0  0
 12  4  1  0  0  0  0
 13 17  1  0  0  0  0
 15 20  1  0  0  0  0
 16 11  1  0  0  0  0
 17  2  1  0  0  0  0
 18 25  1  0  0  0  0
 19 18  1  0  0  0  0
 19  5  1  0  0  0  0
 20 16  1  0  0  0  0
 20  3  1  0  0  0  0
 21 27  1  0  0  0  0
 21 13  1  0  0  0  0
 22  2  1  0  0  0  0
 23 10  1  0  0  0  0
 25 27  1  0  0  0  0
 26  8  1  0  0  0  0
 28 15  1  0  0  0  0
 28 23  1  0  0  0  0
 29 35  2  0  0  0  0
 30 23  1  0  0  0  0
 30 29  1  0  0  0  0
 31 30  1  0  0  0  0
 32 34  1  0  0  0  0
 33 35  1  0  0  0  0
 34 31  1  0  0  0  0
 34 33  1  0  0  0  0
 37 36  1  0  0  0  0
M  END
>  <MODEL>
1

>  <REMARK>
 VINA RESULT:      -7.1      0.000      0.000
  Name = 
  2 active torsions:
  status: ('A' for Active; 'I' for Inactive)
    1  A    between atoms: C_4  and  C_37
    2  A    between atoms: C_23  and  C_30
                            x       y       z     vdW  Elec       q    Type
                         _______ _______ _______ _____ _____    ______ ____

>  <TORSDO>
F 2

$$$$
=
 OpenBabel11122411293D

 37 43  0  0  1  0  0  0  0  0999 V2000
  182.3390  179.9300  138.7410 O   0  0  0  0  0  0  0  0  0  0  0  0
  184.6070  178.7140  143.2030 C   0  0  0  0  0  0  0  0  0  0  0  0
  185.9020  178.6850  139.0840 C   0  0  1  0  0  3  0  0  0  0  0  0
  181.0790  180.3000  138.2340 C   0  0  2  0  0  3  0  0  0  0  0  0
  183.5160  175.9280  137.5270 C   0  0  0  0  0  2  0  0  0  0  0  0
  186.4900  178.3850  141.5340 C   0  0  1  0  0  3  0  0  0  0  0  0
  184.6200  178.0770  138.5130 C   0  0  1  0  0  3  0  0  0  0  0  0
  181.1790  178.6400  136.2800 C   0  0  2  0  0  3  0  0  0  0  0  0
  185.5660  179.0750  140.5190 C   0  0  2  0  0  3  0  0  0  0  0  0
  184.8150  176.7030  137.8110 C   0  0  2  0  0  3  0  0  0  0  0  0
  187.8800  178.7170  141.2320 N   0  0  0  0  0  2  0  0  0  0  0  0
  181.0650  180.1090  136.7140 C   0  0  0  0  0  2  0  0  0  0  0  0
  184.1260  178.8520  140.7700 N   0  0  2  0  0  0  0  0  0  0  0  0
  184.1020  179.9740  143.4640 F   0  0  0  0  0  0  0  0  0  0  0  0
  187.6390  177.5270  137.5730 C   0  0  0  0  0  2  0  0  0  0  0  0
  188.2910  178.2240  139.9040 C   0  0  0  0  0  2  0  0  0  0  0  0
  183.8580  178.1080  142.0090 C   0  0  0  0  0  2  0  0  0  0  0  0
  182.1790  177.9470  137.1050 N   0  0  2  0  0  0  0  0  0  0  0  0
  182.5520  176.6390  136.5690 C   0  0  0  0  0  2  0  0  0  0  0  0
  187.1350  177.7550  139.0020 C   0  0  1  0  0  3  0  0  0  0  0  0
  183.6080  178.0550  139.6630 C   0  0  1  0  0  3  0  0  0  0  0  0
  186.1180  178.8270  142.9430 C   0  0  0  0  0  2  0  0  0  0  0  0
  185.6760  176.8250  136.5360 C   0  0  1  0  0  3  0  0  0  0  0  0
  184.4030  177.9140  144.3100 F   0  0  0  0  0  0  0  0  0  0  0  0
  181.6040  177.7260  138.3190 O   0  0  0  0  0  0  0  0  0  0  0  0
  181.5580  178.6350  134.8030 C   0  0  0  0  0  1  0  0  0  0  0  0
  182.2370  178.6050  139.2300 C   0  0  2  0  0  3  0  0  0  0  0  0
  186.6740  177.8330  136.5890 O   0  0  0  0  0  0  0  0  0  0  0  0
  187.1340  175.6910  134.8240 C   0  0  0  0  0  3  0  0  0  0  0  0
  186.1450  175.4840  135.9470 C   0  0  1  0  0  3  0  0  0  0  0  0
  186.6340  174.4870  137.0030 C   0  0  0  0  0  2  0  0  0  0  0  0
  187.5900  172.3210  137.2740 O   0  0  0  0  0  1  0  0  0  0  0  0
  188.4360  173.6700  135.4980 C   0  0  0  0  0  2  0  0  0  0  0  0
  187.2140  173.2590  136.3150 C   0  0  2  0  0  3  0  0  0  0  0  0
  188.1450  174.8400  134.5940 C   0  0  0  0  0  3  0  0  0  0  0  0
  181.9470  182.5060  138.3310 F   0  0  0  0  0  0  0  0  0  0  0  0
  180.8090  181.7560  138.5580 C   0  0  0  0  0  2  0  0  0  0  0  0
  1 27  1  0  0  0  0
  2 14  1  0  0  0  0
  2 24  1  0  0  0  0
  3  9  1  0  0  0  0
  4 37  1  0  0  0  0
  4  1  1  0  0  0  0
  5 10  1  0  0  0  0
  6 22  1  0  0  0  0
  7  3  1  0  0  0  0
  7 21  1  0  0  0  0
  8 12  1  0  0  0  0
  8 18  1  0  0  0  0
  9 13  1  0  0  0  0
  9  6  1  0  0  0  0
 10  7  1  0  0  0  0
 11  6  1  0  0  0  0
 12  4  1  0  0  0  0
 13 17  1  0  0  0  0
 15 20  1  0  0  0  0
 16 11  1  0  0  0  0
 17  2  1  0  0  0  0
 18 25  1  0  0  0  0
 19 18  1  0  0  0  0
 19  5  1  0  0  0  0
 20  3  1  0  0  0  0
 20 16  1  0  0  0  0
 21 13  1  0  0  0  0
 22  2  1  0  0  0  0
 23 28  1  0  0  0  0
 23 10  1  0  0  0  0
 25 27  1  0  0  0  0
 26  8  1  0  0  0  0
 27 21  1  0  0  0  0
 28 15  1  0  0  0  0
 29 30  1  0  0  0  0
 30 23  1  0  0  0  0
 30 31  1  0  0  0  0
 33 34  1  0  0  0  0
 34 31  1  0  0  0  0
 34 32  1  0  0  0  0
 35 29  2  0  0  0  0
 35 33  1  0  0  0  0
 36 37  1  0  0  0  0
M  END
>  <MODEL>
2

>  <REMARK>
 VINA RESULT:      -6.8      2.281      2.754
  Name = 
  2 active torsions:
  status: ('A' for Active; 'I' for Inactive)
    1  A    between atoms: C_4  and  C_37
    2  A    between atoms: C_23  and  C_30
                            x       y       z     vdW  Elec       q    Type
                         _______ _______ _______ _____ _____    ______ ____

>  <TORSDO>
F 2

$$$$
=
 OpenBabel11122411293D

 37 43  0  0  1  0  0  0  0  0999 V2000
  183.6620  178.4300  141.1860 O   0  0  0  0  0  0  0  0  0  0  0  0
  180.0200  179.4500  137.6880 C   0  0  0  0  0  0  0  0  0  0  0  0
  183.0900  176.4310  138.0160 C   0  0  1  0  0  3  0  0  0  0  0  0
  184.2170  178.9740  142.3580 C   0  0  2  0  0  3  0  0  0  0  0  0
  186.3830  178.6280  137.8040 C   0  0  0  0  0  2  0  0  0  0  0  0
  181.0740  177.3330  136.7680 C   0  0  1  0  0  3  0  0  0  0  0  0
  184.1990  177.3740  138.4860 C   0  0  1  0  0  3  0  0  0  0  0  0
  186.6390  178.6280  141.5860 C   0  0  2  0  0  3  0  0  0  0  0  0
  181.7980  177.2350  138.1180 C   0  0  2  0  0  3  0  0  0  0  0  0
  185.4210  177.4580  137.5290 C   0  0  2  0  0  3  0  0  0  0  0  0
  180.7950  175.9910  136.2650 N   0  0  0  0  0  2  0  0  0  0  0  0
  185.5670  178.3080  142.6400 C   0  0  0  0  0  2  0  0  0  0  0  0
  182.0770  178.5440  138.7460 N   0  0  2  0  0  0  0  0  0  0  0  0
  179.2980  179.4290  138.8650 F   0  0  0  0  0  0  0  0  0  0  0  0
  184.4710  174.8540  136.5180 C   0  0  0  0  0  2  0  0  0  0  0  0
  182.0320  175.2260  136.0110 C   0  0  0  0  0  2  0  0  0  0  0  0
  181.5030  179.6790  138.0100 C   0  0  0  0  0  2  0  0  0  0  0  0
  186.0530  178.5750  140.2400 N   0  0  2  0  0  0  0  0  0  0  0  0
  187.0600  178.5800  139.1800 C   0  0  0  0  0  2  0  0  0  0  0  0
  183.3090  175.8510  136.6000 C   0  0  1  0  0  3  0  0  0  0  0  0
  183.5250  178.7220  138.7620 C   0  0  1  0  0  3  0  0  0  0  0  0
  179.7870  178.1300  136.9370 C   0  0  0  0  0  2  0  0  0  0  0  0
  186.1860  176.1200  137.4530 C   0  0  1  0  0  3  0  0  0  0  0  0
  179.5670  180.4950  136.9060 F   0  0  0  0  0  0  0  0  0  0  0  0
  185.3150  179.7090  140.0870 O   0  0  0  0  0  0  0  0  0  0  0  0
  187.7590  177.6080  141.7600 C   0  0  0  0  0  1  0  0  0  0  0  0
  183.9570  179.3110  140.1170 C   0  0  2  0  0  3  0  0  0  0  0  0
  185.3750  174.9640  137.5970 O   0  0  0  0  0  0  0  0  0  0  0  0
  186.9790  177.0850  135.2660 C   0  0  0  0  0  3  0  0  0  0  0  0
  187.2290  176.0390  136.3250 C   0  0  1  0  0  3  0  0  0  0  0  0
  188.6760  176.0250  136.8290 C   0  0  0  0  0  2  0  0  0  0  0  0
  190.9440  176.0090  136.0940 O   0  0  0  0  0  1  0  0  0  0  0  0
  189.4280  177.4220  134.9140 C   0  0  0  0  0  2  0  0  0  0  0  0
  189.6280  176.0960  135.6430 C   0  0  2  0  0  3  0  0  0  0  0  0
  187.9770  177.6770  134.5940 C   0  0  0  0  0  3  0  0  0  0  0  0
  184.0020  178.2560  144.6100 F   0  0  0  0  0  0  0  0  0  0  0  0
  183.2830  178.7240  143.5260 C   0  0  0  0  0  2  0  0  0  0  0  0
  1  4  1  0  0  0  0
  2 17  1  0  0  0  0
  2 14  1  0  0  0  0
  3  9  1  0  0  0  0
  3  7  1  0  0  0  0
  4 12  1  0  0  0  0
  4 37  1  0  0  0  0
  5 19  1  0  0  0  0
  6 22  1  0  0  0  0
  6  9  1  0  0  0  0
  7 21  1  0  0  0  0
  8 26  1  0  0  0  0
  8 12  1  0  0  0  0
  9 13  1  0  0  0  0
 10  5  1  0  0  0  0
 10  7  1  0  0  0  0
 11  6  1  0  0  0  0
 13 21  1  0  0  0  0
 15 20  1  0  0  0  0
 15 28  1  0  0  0  0
 16 11  1  0  0  0  0
 16 20  1  0  0  0  0
 17 13  1  0  0  0  0
 18  8  1  0  0  0  0
 19 18  1  0  0  0  0
 20  3  1  0  0  0  0
 21 27  1  0  0  0  0
 22  2  1  0  0  0  0
 23 10  1  0  0  0  0
 23 28  1  0  0  0  0
 24  2  1  0  0  0  0
 25 27  1  0  0  0  0
 25 18  1  0  0  0  0
 27  1  1  0  0  0  0
 29 30  1  0  0  0  0
 30 31  1  0  0  0  0
 30 23  1  0  0  0  0
 33 34  1  0  0  0  0
 34 32  1  0  0  0  0
 34 31  1  0  0  0  0
 35 33  1  0  0  0  0
 35 29  2  0  0  0  0
 37 36  1  0  0  0  0
M  END
>  <MODEL>
3

>  <REMARK>
 VINA RESULT:      -6.3      2.437      6.070
  Name = 
  2 active torsions:
  status: ('A' for Active; 'I' for Inactive)
    1  A    between atoms: C_4  and  C_37
    2  A    between atoms: C_23  and  C_30
                            x       y       z     vdW  Elec       q    Type
                         _______ _______ _______ _____ _____    ______ ____

>  <TORSDO>
F 2

$$$$
=
 OpenBabel11122411293D

 37 43  0  0  1  0  0  0  0  0999 V2000
  183.8540  178.3820  141.8420 O   0  0  0  0  0  0  0  0  0  0  0  0
  179.5700  179.4430  139.1840 C   0  0  0  0  0  0  0  0  0  0  0  0
  182.6500  176.4380  138.8180 C   0  0  1  0  0  3  0  0  0  0  0  0
  184.6360  178.9080  142.8860 C   0  0  2  0  0  3  0  0  0  0  0  0
  185.8240  178.6600  137.9790 C   0  0  0  0  0  2  0  0  0  0  0  0
  180.4190  177.3500  138.0260 C   0  0  1  0  0  3  0  0  0  0  0  0
  183.8290  177.3790  139.0690 C   0  0  1  0  0  3  0  0  0  0  0  0
  186.8490  178.5920  141.6280 C   0  0  2  0  0  3  0  0  0  0  0  0
  181.4050  177.2320  139.1980 C   0  0  2  0  0  3  0  0  0  0  0  0
  184.8300  177.4900  137.8840 C   0  0  2  0  0  3  0  0  0  0  0  0
  180.0470  176.0150  137.5650 N   0  0  0  0  0  2  0  0  0  0  0  0
  186.0170  178.2450  142.8730 C   0  0  0  0  0  2  0  0  0  0  0  0
  181.8030  178.5300  139.7810 N   0  0  2  0  0  0  0  0  0  0  0  0
  179.1050  179.3950  140.4830 F   0  0  0  0  0  0  0  0  0  0  0  0
  183.6990  174.8980  137.0380 C   0  0  0  0  0  2  0  0  0  0  0  0
  181.2070  175.2640  137.0490 C   0  0  0  0  0  2  0  0  0  0  0  0
  181.0880  179.6750  139.1990 C   0  0  0  0  0  2  0  0  0  0  0  0
  186.0000  178.5600  140.4300 N   0  0  2  0  0  0  0  0  0  0  0  0
  186.7690  178.5910  139.1860 C   0  0  0  0  0  2  0  0  0  0  0  0
  182.5770  175.8860  137.3760 C   0  0  1  0  0  3  0  0  0  0  0  0
  183.2230  178.7170  139.5040 C   0  0  1  0  0  3  0  0  0  0  0  0
  179.1920  178.1350  138.4700 C   0  0  0  0  0  2  0  0  0  0  0  0
  185.5660  176.1580  137.6270 C   0  0  1  0  0  3  0  0  0  0  0  0
  178.9650  180.4990  138.5310 F   0  0  0  0  0  0  0  0  0  0  0  0
  185.2430  179.6910  140.4530 O   0  0  0  0  0  0  0  0  0  0  0  0
  187.9830  177.5760  141.5500 C   0  0  0  0  0  1  0  0  0  0  0  0
  183.9210  179.2840  140.7520 C   0  0  2  0  0  3  0  0  0  0  0  0
  184.8050  174.9950  137.9110 O   0  0  0  0  0  0  0  0  0  0  0  0
  186.0050  177.2640  135.4080 C   0  0  0  0  0  3  0  0  0  0  0  0
  186.3570  176.1040  136.3090 C   0  0  1  0  0  3  0  0  0  0  0  0
  187.8670  175.9310  136.5060 C   0  0  0  0  0  2  0  0  0  0  0  0
  189.9350  175.8090  135.3280 O   0  0  0  0  0  1  0  0  0  0  0  0
  188.3590  177.4420  134.5940 C   0  0  0  0  0  2  0  0  0  0  0  0
  188.5710  176.0410  135.1610 C   0  0  2  0  0  3  0  0  0  0  0  0
  186.9040  177.8380  134.5950 C   0  0  0  0  0  3  0  0  0  0  0  0
  182.5890  178.6160  144.0510 F   0  0  0  0  0  0  0  0  0  0  0  0
  183.9610  178.6300  144.2150 C   0  0  0  0  0  2  0  0  0  0  0  0
  1  4  1  0  0  0  0
  2 17  1  0  0  0  0
  2 14  1  0  0  0  0
  3  7  1  0  0  0  0
  3  9  1  0  0  0  0
  4 37  1  0  0  0  0
  5 19  1  0  0  0  0
  6 22  1  0  0  0  0
  6  9  1  0  0  0  0
  7 21  1  0  0  0  0
  8 12  1  0  0  0  0
  9 13  1  0  0  0  0
 10  5  1  0  0  0  0
 10  7  1  0  0  0  0
 11  6  1  0  0  0  0
 12  4  1  0  0  0  0
 15 20  1  0  0  0  0
 15 28  1  0  0  0  0
 16 20  1  0  0  0  0
 16 11  1  0  0  0  0
 17 13  1  0  0  0  0
 18 25  1  0  0  0  0
 18  8  1  0  0  0  0
 19 18  1  0  0  0  0
 20  3  1  0  0  0  0
 21 13  1  0  0  0  0
 21 27  1  0  0  0  0
 22  2  1  0  0  0  0
 23 10  1  0  0  0  0
 23 28  1  0  0  0  0
 24  2  1  0  0  0  0
 25 27  1  0  0  0  0
 26  8  1  0  0  0  0
 27  1  1  0  0  0  0
 29 30  1  0  0  0  0
 30 31  1  0  0  0  0
 30 23  1  0  0  0  0
 33 35  1  0  0  0  0
 33 34  1  0  0  0  0
 34 32  1  0  0  0  0
 34 31  1  0  0  0  0
 35 29  2  0  0  0  0
 36 37  1  0  0  0  0
M  END
>  <MODEL>
4

>  <REMARK>
 VINA RESULT:      -6.3      2.159      5.846
  Name = 
  2 active torsions:
  status: ('A' for Active; 'I' for Inactive)
    1  A    between atoms: C_4  and  C_37
    2  A    between atoms: C_23  and  C_30
                            x       y       z     vdW  Elec       q    Type
                         _______ _______ _______ _____ _____    ______ ____

>  <TORSDO>
F 2

$$$$
=
 OpenBabel11122411293D

 37 43  0  0  1  0  0  0  0  0999 V2000
  182.7070  179.9740  138.4070 O   0  0  0  0  0  0  0  0  0  0  0  0
  186.1170  178.9640  142.1340 C   0  0  0  0  0  0  0  0  0  0  0  0
  185.8700  177.9360  137.9470 C   0  0  1  0  0  3  0  0  0  0  0  0
  181.4420  180.5640  138.2300 C   0  0  2  0  0  3  0  0  0  0  0  0
  182.6240  175.6610  137.8840 C   0  0  0  0  0  2  0  0  0  0  0  0
  187.2060  177.9000  140.1040 C   0  0  1  0  0  3  0  0  0  0  0  0
  184.3800  177.5900  137.9500 C   0  0  1  0  0  3  0  0  0  0  0  0
  180.5470  178.6380  136.7910 C   0  0  2  0  0  3  0  0  0  0  0  0
  186.1320  178.6270  139.2810 C   0  0  2  0  0  3  0  0  0  0  0  0
  184.0600  176.1170  137.5710 C   0  0  2  0  0  3  0  0  0  0  0  0
  188.4400  177.8130  139.3280 N   0  0  0  0  0  2  0  0  0  0  0  0
  180.8660  180.1390  136.8760 C   0  0  0  0  0  2  0  0  0  0  0  0
  184.8550  178.8210  139.9990 N   0  0  2  0  0  0  0  0  0  0  0  0
  185.9780  180.3360  142.2280 F   0  0  0  0  0  0  0  0  0  0  0  0
  186.7260  176.1450  136.3040 C   0  0  0  0  0  2  0  0  0  0  0  0
  188.2650  177.0230  138.0940 C   0  0  0  0  0  2  0  0  0  0  0  0
  184.9000  178.3830  141.4010 C   0  0  0  0  0  2  0  0  0  0  0  0
  181.6230  177.8580  137.4160 N   0  0  2  0  0  0  0  0  0  0  0  0
  181.5360  176.4290  137.1210 C   0  0  0  0  0  2  0  0  0  0  0  0
  186.8020  176.7230  137.7220 C   0  0  1  0  0  3  0  0  0  0  0  0
  183.8460  178.0140  139.3220 C   0  0  1  0  0  3  0  0  0  0  0  0
  187.4360  178.6450  141.4120 C   0  0  0  0  0  2  0  0  0  0  0  0
  184.4310  175.8060  136.1050 C   0  0  1  0  0  3  0  0  0  0  0  0
  186.1650  178.4330  143.4080 F   0  0  0  0  0  0  0  0  0  0  0  0
  181.4760  177.9910  138.7630 O   0  0  0  0  0  0  0  0  0  0  0  0
  180.3800  178.2970  135.3140 C   0  0  0  0  0  1  0  0  0  0  0  0
  182.5380  178.8160  139.2040 C   0  0  2  0  0  3  0  0  0  0  0  0
  185.5540  176.5220  135.6130 O   0  0  0  0  0  0  0  0  0  0  0  0
  185.0460  173.4700  136.8170 C   0  0  0  0  0  3  0  0  0  0  0  0
  184.4080  174.3130  135.7380 C   0  0  1  0  0  3  0  0  0  0  0  0
  183.0240  173.8060  135.3180 C   0  0  0  0  0  2  0  0  0  0  0  0
  181.8350  171.8450  134.6680 O   0  0  0  0  0  1  0  0  0  0  0  0
  183.4010  171.6270  136.4540 C   0  0  0  0  0  2  0  0  0  0  0  0
  183.0730  172.2970  135.1230 C   0  0  2  0  0  3  0  0  0  0  0  0
  184.6170  172.2330  137.1070 C   0  0  0  0  0  3  0  0  0  0  0  0
  180.8840  182.6310  137.2060 F   0  0  0  0  0  0  0  0  0  0  0  0
  181.5770  182.0740  138.2640 C   0  0  0  0  0  2  0  0  0  0  0  0
  1 27  1  0  0  0  0
  2 14  1  0  0  0  0
  2 24  1  0  0  0  0
  3  7  1  0  0  0  0
  3  9  1  0  0  0  0
  4 37  1  0  0  0  0
  4  1  1  0  0  0  0
  6 22  1  0  0  0  0
  7 21  1  0  0  0  0
  8 12  1  0  0  0  0
  8 18  1  0  0  0  0
  9 13  1  0  0  0  0
  9  6  1  0  0  0  0
 10  5  1  0  0  0  0
 10  7  1  0  0  0  0
 11  6  1  0  0  0  0
 12  4  1  0  0  0  0
 13 17  1  0  0  0  0
 15 20  1  0  0  0  0
 16 11  1  0  0  0  0
 17  2  1  0  0  0  0
 18 25  1  0  0  0  0
 19 18  1  0  0  0  0
 19  5  1  0  0  0  0
 20  3  1  0  0  0  0
 20 16  1  0  0  0  0
 21 13  1  0  0  0  0
 22  2  1  0  0  0  0
 23 10  1  0  0  0  0
 25 27  1  0  0  0  0
 26  8  1  0  0  0  0
 27 21  1  0  0  0  0
 28 23  1  0  0  0  0
 28 15  1  0  0  0  0
 29 35  2  0  0  0  0
 30 23  1  0  0  0  0
 30 29  1  0  0  0  0
 31 30  1  0  0  0  0
 32 34  1  0  0  0  0
 33 35  1  0  0  0  0
 34 31  1  0  0  0  0
 34 33  1  0  0  0  0
 36 37  1  0  0  0  0
M  END
>  <MODEL>
5

>  <REMARK>
 VINA RESULT:      -5.9      1.581      1.634
  Name = 
  2 active torsions:
  status: ('A' for Active; 'I' for Inactive)
    1  A    between atoms: C_4  and  C_37
    2  A    between atoms: C_23  and  C_30
                            x       y       z     vdW  Elec       q    Type
                         _______ _______ _______ _____ _____    ______ ____

>  <TORSDO>
F 2

$$$$
=
 OpenBabel11122411293D

 37 43  0  0  1  0  0  0  0  0999 V2000
  182.9520  173.9110  136.8470 O   0  0  0  0  0  0  0  0  0  0  0  0
  186.5430  177.4060  135.6500 C   0  0  0  0  0  0  0  0  0  0  0  0
  183.7340  176.9980  138.9050 C   0  0  1  0  0  3  0  0  0  0  0  0
  182.3370  172.7660  136.3100 C   0  0  2  0  0  3  0  0  0  0  0  0
  180.2710  177.3270  137.0030 C   0  0  0  0  0  2  0  0  0  0  0  0
  185.6830  178.2580  137.8810 C   0  0  1  0  0  3  0  0  0  0  0  0
  182.5430  176.5750  138.0420 C   0  0  1  0  0  3  0  0  0  0  0  0
  179.9630  173.5500  136.8870 C   0  0  2  0  0  3  0  0  0  0  0  0
  184.9510  176.9120  137.9900 C   0  0  2  0  0  3  0  0  0  0  0  0
  181.3310  177.5480  138.0960 C   0  0  2  0  0  3  0  0  0  0  0  0
  186.0810  178.7070  139.2120 N   0  0  0  0  0  2  0  0  0  0  0  0
  181.0440  172.4740  137.0770 C   0  0  0  0  0  2  0  0  0  0  0  0
  184.5550  176.3360  136.6880 N   0  0  2  0  0  0  0  0  0  0  0  0
  187.2480  176.2210  135.5670 F   0  0  0  0  0  0  0  0  0  0  0  0
  182.5110  178.4510  140.6460 C   0  0  0  0  0  2  0  0  0  0  0  0
  184.9170  178.9450  140.0870 C   0  0  0  0  0  2  0  0  0  0  0  0
  185.0410  177.1090  135.5360 C   0  0  0  0  0  2  0  0  0  0  0  0
  180.5700  174.8880  136.9400 N   0  0  2  0  0  0  0  0  0  0  0  0
  179.5810  175.9580  137.0580 C   0  0  0  0  0  2  0  0  0  0  0  0
  183.5830  178.3940  139.5520 C   0  0  1  0  0  3  0  0  0  0  0  0
  183.0970  176.3430  136.6330 C   0  0  1  0  0  3  0  0  0  0  0  0
  186.8960  178.1050  136.9720 C   0  0  0  0  0  2  0  0  0  0  0  0
  180.6830  177.5820  139.4960 C   0  0  1  0  0  3  0  0  0  0  0  0
  186.9160  178.2220  134.6000 F   0  0  0  0  0  0  0  0  0  0  0  0
  181.2130  175.0750  135.7540 O   0  0  0  0  0  0  0  0  0  0  0  0
  178.9310  173.3500  137.9920 C   0  0  0  0  0  1  0  0  0  0  0  0
  182.5980  175.0160  136.0340 C   0  0  2  0  0  3  0  0  0  0  0  0
  181.5870  177.3860  140.5730 O   0  0  0  0  0  0  0  0  0  0  0  0
  179.2340  178.8090  141.1500 C   0  0  0  0  0  3  0  0  0  0  0  0
  179.6660  178.7170  139.7070 C   0  0  1  0  0  3  0  0  0  0  0  0
  180.1190  180.0610  139.1270 C   0  0  0  0  0  2  0  0  0  0  0  0
  179.4940  182.3520  138.9270 O   0  0  0  0  0  1  0  0  0  0  0  0
  179.1150  181.3010  141.0340 C   0  0  0  0  0  2  0  0  0  0  0  0
  179.1230  181.1450  139.5160 C   0  0  2  0  0  3  0  0  0  0  0  0
  178.9380  179.9790  141.7370 C   0  0  0  0  0  3  0  0  0  0  0  0
  184.3460  171.9140  137.2410 F   0  0  0  0  0  0  0  0  0  0  0  0
  183.2720  171.5800  136.4370 C   0  0  0  0  0  2  0  0  0  0  0  0
  2 22  1  0  0  0  0
  3 20  1  0  0  0  0
  4 37  1  0  0  0  0
  4  1  1  0  0  0  0
  4 12  1  0  0  0  0
  5 19  1  0  0  0  0
  5 10  1  0  0  0  0
  6  9  1  0  0  0  0
  6 11  1  0  0  0  0
  7 10  1  0  0  0  0
  7  3  1  0  0  0  0
  8 18  1  0  0  0  0
  8 12  1  0  0  0  0
  8 26  1  0  0  0  0
  9  3  1  0  0  0  0
 10 23  1  0  0  0  0
 11 16  1  0  0  0  0
 13  9  1  0  0  0  0
 14  2  1  0  0  0  0
 17  2  1  0  0  0  0
 17 13  1  0  0  0  0
 18 19  1  0  0  0  0
 20 16  1  0  0  0  0
 20 15  1  0  0  0  0
 21 13  1  0  0  0  0
 21  7  1  0  0  0  0
 22  6  1  0  0  0  0
 23 30  1  0  0  0  0
 23 28  1  0  0  0  0
 24  2  1  0  0  0  0
 25 27  1  0  0  0  0
 25 18  1  0  0  0  0
 27 21  1  0  0  0  0
 27  1  1  0  0  0  0
 28 15  1  0  0  0  0
 29 35  2  0  0  0  0
 30 29  1  0  0  0  0
 31 34  1  0  0  0  0
 31 30  1  0  0  0  0
 32 34  1  0  0  0  0
 33 35  1  0  0  0  0
 34 33  1  0  0  0  0
 37 36  1  0  0  0  0
M  END
>  <MODEL>
6

>  <REMARK>
 VINA RESULT:      -5.8      3.200      6.626
  Name = 
  2 active torsions:
  status: ('A' for Active; 'I' for Inactive)
    1  A    between atoms: C_4  and  C_37
    2  A    between atoms: C_23  and  C_30
                            x       y       z     vdW  Elec       q    Type
                         _______ _______ _______ _____ _____    ______ ____

>  <TORSDO>
F 2

$$$$
=
 OpenBabel11122411293D

 37 43  0  0  1  0  0  0  0  0999 V2000
  180.2240  180.9320  138.8200 O   0  0  0  0  0  0  0  0  0  0  0  0
  180.6170  178.8680  143.5240 C   0  0  0  0  0  0  0  0  0  0  0  0
  183.3600  179.3270  140.2200 C   0  0  1  0  0  3  0  0  0  0  0  0
  179.2580  181.4860  137.9610 C   0  0  2  0  0  3  0  0  0  0  0  0
  181.6480  177.0610  137.4540 C   0  0  0  0  0  2  0  0  0  0  0  0
  182.9770  178.6170  142.6250 C   0  0  1  0  0  3  0  0  0  0  0  0
  182.3670  178.9310  139.1260 C   0  0  1  0  0  3  0  0  0  0  0  0
  180.0320  180.1310  135.9250 C   0  0  2  0  0  3  0  0  0  0  0  0
  182.5220  179.5310  141.4780 C   0  0  2  0  0  3  0  0  0  0  0  0
  182.7690  177.6640  138.3200 C   0  0  2  0  0  3  0  0  0  0  0  0
  184.3880  178.8600  142.9120 N   0  0  0  0  0  2  0  0  0  0  0  0
  179.8080  181.5250  136.5320 C   0  0  0  0  0  2  0  0  0  0  0  0
  181.0880  179.4060  141.1440 N   0  0  2  0  0  0  0  0  0  0  0  0
  180.0900  180.1160  143.7940 F   0  0  0  0  0  0  0  0  0  0  0  0
  185.5000  178.2500  139.2710 C   0  0  0  0  0  2  0  0  0  0  0  0
  185.2520  178.5330  141.7620 C   0  0  0  0  0  2  0  0  0  0  0  0
  180.3520  178.5160  142.0530 C   0  0  0  0  0  2  0  0  0  0  0  0
  180.6290  179.2350  136.9250 N   0  0  2  0  0  0  0  0  0  0  0  0
  181.1350  177.9920  136.3470 C   0  0  0  0  0  2  0  0  0  0  0  0
  184.5040  178.3100  140.4350 C   0  0  1  0  0  3  0  0  0  0  0  0
  180.9980  178.8330  139.8060 C   0  0  1  0  0  3  0  0  0  0  0  0
  182.1180  178.8780  143.8550 C   0  0  0  0  0  2  0  0  0  0  0  0
  184.0480  177.8930  137.4870 C   0  0  1  0  0  3  0  0  0  0  0  0
  179.9890  177.9350  144.3260 F   0  0  0  0  0  0  0  0  0  0  0  0
  179.6340  178.8920  137.7890 O   0  0  0  0  0  0  0  0  0  0  0  0
  180.9360  180.3090  134.7100 C   0  0  0  0  0  1  0  0  0  0  0  0
  179.9060  179.5640  139.0040 C   0  0  2  0  0  3  0  0  0  0  0  0
  184.9840  178.7860  138.0710 O   0  0  0  0  0  0  0  0  0  0  0  0
  186.1170  176.8180  136.5350 C   0  0  0  0  0  3  0  0  0  0  0  0
  184.6630  176.6160  136.8890 C   0  0  1  0  0  3  0  0  0  0  0  0
  184.4180  175.3620  137.7360 C   0  0  0  0  0  2  0  0  0  0  0  0
  184.9080  173.0330  137.8690 O   0  0  0  0  0  1  0  0  0  0  0  0
  186.6850  174.4830  137.2130 C   0  0  0  0  0  2  0  0  0  0  0  0
  185.1880  174.1900  137.1440 C   0  0  2  0  0  3  0  0  0  0  0  0
  187.0230  175.8350  136.6370 C   0  0  0  0  0  3  0  0  0  0  0  0
  178.9840  182.9770  139.7870 F   0  0  0  0  0  0  0  0  0  0  0  0
  178.9310  182.8970  138.4080 C   0  0  0  0  0  2  0  0  0  0  0  0
  1 27  1  0  0  0  0
  2 14  1  0  0  0  0
  2 22  1  0  0  0  0
  2 24  1  0  0  0  0
  3 20  1  0  0  0  0
  3  9  1  0  0  0  0
  4 37  1  0  0  0  0
  4  1  1  0  0  0  0
  5 10  1  0  0  0  0
  6 11  1  0  0  0  0
  6 22  1  0  0  0  0
  7 21  1  0  0  0  0
  7  3  1  0  0  0  0
  8 12  1  0  0  0  0
  8 18  1  0  0  0  0
  9  6  1  0  0  0  0
 10  7  1  0  0  0  0
 12  4  1  0  0  0  0
 13  9  1  0  0  0  0
 13 17  1  0  0  0  0
 15 20  1  0  0  0  0
 16 11  1  0  0  0  0
 17  2  1  0  0  0  0
 18 25  1  0  0  0  0
 19 18  1  0  0  0  0
 19  5  1  0  0  0  0
 20 16  1  0  0  0  0
 21 13  1  0  0  0  0
 23 28  1  0  0  0  0
 23 10  1  0  0  0  0
 25 27  1  0  0  0  0
 26  8  1  0  0  0  0
 27 21  1  0  0  0  0
 28 15  1  0  0  0  0
 29 35  2  0  0  0  0
 29 30  1  0  0  0  0
 30 23  1  0  0  0  0
 30 31  1  0  0  0  0
 34 33  1  0  0  0  0
 34 31  1  0  0  0  0
 34 32  1  0  0  0  0
 35 33  1  0  0  0  0
 37 36  1  0  0  0  0
M  END
>  <MODEL>
7

>  <REMARK>
 VINA RESULT:      -5.7      2.440      3.388
  Name = 
  2 active torsions:
  status: ('A' for Active; 'I' for Inactive)
    1  A    between atoms: C_4  and  C_37
    2  A    between atoms: C_23  and  C_30
                            x       y       z     vdW  Elec       q    Type
                         _______ _______ _______ _____ _____    ______ ____

>  <TORSDO>
F 2

$$$$
=
 OpenBabel11122411293D

 37 43  0  0  1  0  0  0  0  0999 V2000
  187.5130  177.4280  139.8870 O   0  0  0  0  0  0  0  0  0  0  0  0
  184.5550  177.3090  135.6710 C   0  0  0  0  0  0  0  0  0  0  0  0
  187.6250  174.7120  137.2460 C   0  0  1  0  0  3  0  0  0  0  0  0
  187.8170  178.2720  140.9710 C   0  0  2  0  0  3  0  0  0  0  0  0
  190.8100  177.0660  137.0800 C   0  0  0  0  0  2  0  0  0  0  0  0
  185.8450  175.1320  135.4870 C   0  0  1  0  0  3  0  0  0  0  0  0
  188.5880  175.8260  137.6580 C   0  0  1  0  0  3  0  0  0  0  0  0
  190.3520  177.9590  140.7360 C   0  0  2  0  0  3  0  0  0  0  0  0
  186.3070  175.4080  136.9250 C   0  0  2  0  0  3  0  0  0  0  0  0
  189.9640  175.7890  136.9340 C   0  0  2  0  0  3  0  0  0  0  0  0
  185.7190  173.6910  135.2830 N   0  0  0  0  0  2  0  0  0  0  0  0
  189.1150  177.8030  141.6350 C   0  0  0  0  0  2  0  0  0  0  0  0
  186.4110  176.8450  137.2570 N   0  0  2  0  0  0  0  0  0  0  0  0
  183.6260  177.5000  136.6760 F   0  0  0  0  0  0  0  0  0  0  0  0
  189.3230  172.9520  136.4340 C   0  0  0  0  0  2  0  0  0  0  0  0
  187.0100  172.9940  135.4390 C   0  0  0  0  0  2  0  0  0  0  0  0
  185.9410  177.7280  136.1800 C   0  0  0  0  0  2  0  0  0  0  0  0
  190.0320  177.5490  139.3620 N   0  0  2  0  0  0  0  0  0  0  0  0
  191.2180  177.3930  138.5230 C   0  0  0  0  0  2  0  0  0  0  0  0
  188.1290  173.8420  136.0710 C   0  0  1  0  0  3  0  0  0  0  0  0
  187.8220  177.1410  137.4790 C   0  0  1  0  0  3  0  0  0  0  0  0
  184.5190  175.8360  135.2330 C   0  0  0  0  0  2  0  0  0  0  0  0
  190.7810  174.5380  137.3180 C   0  0  1  0  0  3  0  0  0  0  0  0
  184.2160  178.1040  134.5940 F   0  0  0  0  0  0  0  0  0  0  0  0
  189.2910  178.5510  138.8140 O   0  0  0  0  0  0  0  0  0  0  0  0
  191.4580  177.1030  141.3420 C   0  0  0  0  0  1  0  0  0  0  0  0
  187.9680  178.0600  138.7050 C   0  0  2  0  0  3  0  0  0  0  0  0
  190.0040  173.3830  137.5940 O   0  0  0  0  0  0  0  0  0  0  0  0
  191.9720  175.1010  135.1710 C   0  0  0  0  0  3  0  0  0  0  0  0
  192.0200  174.2850  136.4410 C   0  0  1  0  0  3  0  0  0  0  0  0
  193.3450  174.4250  137.1970 C   0  0  0  0  0  2  0  0  0  0  0  0
  195.7110  174.3600  136.9140 O   0  0  0  0  0  1  0  0  0  0  0  0
  194.4420  175.4620  135.2210 C   0  0  0  0  0  2  0  0  0  0  0  0
  194.5050  174.3080  136.2180 C   0  0  2  0  0  3  0  0  0  0  0  0
  193.0780  175.5940  134.5940 C   0  0  0  0  0  3  0  0  0  0  0  0
  187.0450  177.3990  143.0380 F   0  0  0  0  0  0  0  0  0  0  0  0
  186.6910  178.2200  141.9850 C   0  0  0  0  0  2  0  0  0  0  0  0
  1  4  1  0  0  0  0
  2 17  1  0  0  0  0
  2 14  1  0  0  0  0
  3  7  1  0  0  0  0
  4 12  1  0  0  0  0
  4 37  1  0  0  0  0
  5 19  1  0  0  0  0
  6  9  1  0  0  0  0
  8 26  1  0  0  0  0
  8 12  1  0  0  0  0
  9  3  1  0  0  0  0
  9 13  1  0  0  0  0
 10  5  1  0  0  0  0
 10 23  1  0  0  0  0
 10  7  1  0  0  0  0
 11 16  1  0  0  0  0
 11  6  1  0  0  0  0
 13 21  1  0  0  0  0
 15 28  1  0  0  0  0
 16 20  1  0  0  0  0
 17 13  1  0  0  0  0
 18  8  1  0  0  0  0
 19 18  1  0  0  0  0
 20 15  1  0  0  0  0
 20  3  1  0  0  0  0
 21  7  1  0  0  0  0
 21 27  1  0  0  0  0
 22  6  1  0  0  0  0
 22  2  1  0  0  0  0
 23 28  1  0  0  0  0
 24  2  1  0  0  0  0
 25 18  1  0  0  0  0
 27 25  1  0  0  0  0
 27  1  1  0  0  0  0
 29 30  1  0  0  0  0
 30 31  1  0  0  0  0
 30 23  1  0  0  0  0
 33 34  1  0  0  0  0
 34 32  1  0  0  0  0
 34 31  1  0  0  0  0
 35 29  2  0  0  0  0
 35 33  1  0  0  0  0
 37 36  1  0  0  0  0
M  END
>  <MODEL>
8

>  <REMARK>
 VINA RESULT:      -5.7      5.128      8.471
  Name = 
  2 active torsions:
  status: ('A' for Active; 'I' for Inactive)
    1  A    between atoms: C_4  and  C_37
    2  A    between atoms: C_23  and  C_30
                            x       y       z     vdW  Elec       q    Type
                         _______ _______ _______ _____ _____    ______ ____

>  <TORSDO>
F 2

$$$$
=
 OpenBabel11122411293D

 37 43  0  0  1  0  0  0  0  0999 V2000
  191.1640  177.5820  140.1620 O   0  0  0  0  0  0  0  0  0  0  0  0
  187.9740  175.8040  136.5290 C   0  0  0  0  0  0  0  0  0  0  0  0
  187.4930  178.4830  139.8810 C   0  0  1  0  0  3  0  0  0  0  0  0
  192.4790  177.4030  140.6270 C   0  0  2  0  0  3  0  0  0  0  0  0
  188.1900  176.0560  142.9370 C   0  0  0  0  0  2  0  0  0  0  0  0
  186.4850  177.4040  137.8180 C   0  0  1  0  0  3  0  0  0  0  0  0
  188.3040  177.6510  140.8750 C   0  0  1  0  0  3  0  0  0  0  0  0
  191.7800  177.2640  143.0920 C   0  0  2  0  0  3  0  0  0  0  0  0
  187.7730  177.8730  138.5120 C   0  0  2  0  0  3  0  0  0  0  0  0
  187.4980  177.1520  142.1070 C   0  0  2  0  0  3  0  0  0  0  0  0
  185.5620  178.5290  137.6910 N   0  0  0  0  0  2  0  0  0  0  0  0
  192.6110  178.0020  142.0300 C   0  0  0  0  0  2  0  0  0  0  0  0
  188.8030  176.8200  138.6390 N   0  0  2  0  0  0  0  0  0  0  0  0
  189.0380  176.2700  135.7820 F   0  0  0  0  0  0  0  0  0  0  0  0
  185.6500  179.3590  141.4550 C   0  0  0  0  0  2  0  0  0  0  0  0
  185.1490  179.0580  139.0050 C   0  0  0  0  0  2  0  0  0  0  0  0
  188.4380  175.5630  137.9720 C   0  0  0  0  0  2  0  0  0  0  0  0
  190.4560  176.9280  142.5500 N   0  0  2  0  0  0  0  0  0  0  0  0
  189.5140  176.4890  143.5790 C   0  0  0  0  0  2  0  0  0  0  0  0
  185.9810  178.5490  140.1960 C   0  0  1  0  0  3  0  0  0  0  0  0
  188.9590  176.5310  140.0600 C   0  0  1  0  0  3  0  0  0  0  0  0
  186.8260  176.8230  136.4520 C   0  0  0  0  0  2  0  0  0  0  0  0
  187.0410  178.3200  143.0070 C   0  0  1  0  0  3  0  0  0  0  0  0
  187.5440  174.6050  135.9930 F   0  0  0  0  0  0  0  0  0  0  0  0
  190.6320  175.8750  141.7040 O   0  0  0  0  0  0  0  0  0  0  0  0
  191.6810  178.1830  144.3040 C   0  0  0  0  0  1  0  0  0  0  0  0
  190.4540  176.3790  140.3940 C   0  0  2  0  0  3  0  0  0  0  0  0
  186.7580  179.5260  142.3140 O   0  0  0  0  0  0  0  0  0  0  0  0
  186.6710  177.6860  145.4160 C   0  0  0  0  0  3  0  0  0  0  0  0
  186.0100  177.9380  144.0820 C   0  0  1  0  0  3  0  0  0  0  0  0
  184.8270  178.9090  144.1700 C   0  0  0  0  0  2  0  0  0  0  0  0
  182.8320  179.3690  145.3910 O   0  0  0  0  0  1  0  0  0  0  0  0
  184.7450  178.6930  146.6460 C   0  0  0  0  0  2  0  0  0  0  0  0
  183.9470  178.5340  145.3550 C   0  0  2  0  0  3  0  0  0  0  0  0
  186.0750  177.9860  146.5800 C   0  0  0  0  0  3  0  0  0  0  0  0
  193.5560  177.3900  138.5120 F   0  0  0  0  0  0  0  0  0  0  0  0
  193.4480  178.1010  139.6930 C   0  0  0  0  0  2  0  0  0  0  0  0
  1 27  1  0  0  0  0
  1  4  1  0  0  0  0
  2 17  1  0  0  0  0
  3 20  1  0  0  0  0
  3  7  1  0  0  0  0
  4 12  1  0  0  0  0
  5 19  1  0  0  0  0
  6  9  1  0  0  0  0
  7 10  1  0  0  0  0
  8 26  1  0  0  0  0
  9 13  1  0  0  0  0
  9  3  1  0  0  0  0
 10  5  1  0  0  0  0
 10 23  1  0  0  0  0
 11  6  1  0  0  0  0
 11 16  1  0  0  0  0
 12  8  1  0  0  0  0
 13 21  1  0  0  0  0
 14  2  1  0  0  0  0
 15 28  1  0  0  0  0
 16 20  1  0  0  0  0
 17 13  1  0  0  0  0
 18  8  1  0  0  0  0
 18 19  1  0  0  0  0
 20 15  1  0  0  0  0
 21 27  1  0  0  0  0
 21  7  1  0  0  0  0
 22  2  1  0  0  0  0
 22  6  1  0  0  0  0
 23 30  1  0  0  0  0
 24  2  1  0  0  0  0
 25 18  1  0  0  0  0
 27 25  1  0  0  0  0
 28 23  1  0  0  0  0
 29 35  2  0  0  0  0
 30 31  1  0  0  0  0
 30 29  1  0  0  0  0
 31 34  1  0  0  0  0
 34 32  1  0  0  0  0
 34 33  1  0  0  0  0
 35 33  1  0  0  0  0
 36 37  1  0  0  0  0
 37  4  1  0  0  0  0
M  END
>  <MODEL>
9

>  <REMARK>
 VINA RESULT:      -5.5      5.390      9.327
  Name = 
  2 active torsions:
  status: ('A' for Active; 'I' for Inactive)
    1  A    between atoms: C_4  and  C_37
    2  A    between atoms: C_23  and  C_30
                            x       y       z     vdW  Elec       q    Type
                         _______ _______ _______ _____ _____    ______ ____

>  <TORSDO>
F 2

$$$$
