=
 OpenBabel11122410263D

 30 35  0  0  1  0  0  0  0  0999 V2000
  186.0070  178.3330  141.9710 C   0  0  0  0  0  0  0  0  0  0  0  0
  183.5910  178.9430  142.3380 C   0  0  0  0  0  0  0  0  0  0  0  0
  186.5030  177.6300  146.0930 N   0  0  0  0  0  2  0  0  0  0  0  0
  187.2680  177.9410  142.5170 C   0  0  0  0  0  0  0  0  0  0  0  0
  185.9070  178.5190  140.5880 C   0  0  0  0  0  3  0  0  0  0  0  0
  189.4160  177.8990  139.3410 C   0  0  0  0  0  1  0  0  0  0  0  0
  190.1620  178.4990  143.3650 C   0  0  1  0  0  3  0  0  0  0  0  0
  188.2480  178.0270  140.2700 C   0  0  0  0  0  0  0  0  0  0  0  0
  189.6590  177.9720  144.6280 N   0  0  0  0  0  0  0  0  0  0  0  0
  187.8490  177.1780  146.0890 C   0  0  0  0  0  0  0  0  0  0  0  0
  187.0000  178.3590  139.7350 C   0  0  0  0  0  0  0  0  0  0  0  0
  188.4050  177.8360  141.6600 C   0  0  0  0  0  0  0  0  0  0  0  0
  182.5290  179.1300  143.2260 C   0  0  0  0  0  3  0  0  0  0  0  0
  190.7600  177.8100  145.5110 C   0  0  0  0  0  3  0  0  0  0  0  0
  191.6740  178.6130  143.5470 C   0  0  0  0  0  2  0  0  0  0  0  0
  183.3450  179.1690  140.9890 O   0  0  0  0  0  1  0  0  0  0  0  0
  186.2420  177.9180  144.7260 C   0  0  0  0  0  0  0  0  0  0  0  0
  182.6960  178.9250  144.5930 C   0  0  0  0  0  3  0  0  0  0  0  0
  184.8700  178.5370  142.8200 C   0  0  0  0  0  0  0  0  0  0  0  0
  187.3330  177.7030  143.9080 C   0  0  0  0  0  0  0  0  0  0  0  0
  188.4340  176.7940  147.1350 O   0  0  0  0  0  0  0  0  0  0  0  0
  188.4620  177.1370  144.7210 C   0  0  1  0  0  3  0  0  0  0  0  0
  191.8970  178.1760  144.9550 C   0  0  0  0  0  3  0  0  0  0  0  0
  190.1140  176.1180  142.3710 C   0  0  0  0  0  1  0  0  0  0  0  0
  183.9340  178.5260  145.0870 C   0  0  0  0  0  3  0  0  0  0  0  0
  185.0150  178.3320  144.2200 C   0  0  0  0  0  0  0  0  0  0  0  0
  189.8060  177.5980  142.1750 C   0  0  2  0  0  3  0  0  0  0  0  0
  186.8620  178.5390  138.3530 O   0  0  0  0  0  0  0  0  0  0  0  0
  186.6800  176.4800  137.1390 C   0  0  0  0  0  1  0  0  0  0  0  0
  185.9820  177.7570  137.5570 C   0  0  0  0  0  2  0  0  0  0  0  0
  1  4  1  0  0  0  0
  1 19  1  0  0  0  0
  2 19  2  0  0  0  0
  2 13  1  0  0  0  0
  4 20  1  0  0  0  0
  5  1  2  0  0  0  0
  6  8  1  0  0  0  0
  7 15  1  1  0  0  0
  7  9  1  0  0  0  0
  8 12  1  0  0  0  0
  9 22  1  0  0  0  0
  9 14  1  0  0  0  0
 10  3  1  0  0  0  0
 10 21  2  0  0  0  0
 11  8  2  0  0  0  0
 11  5  1  0  0  0  0
 12 27  1  0  0  0  0
 12  4  2  0  0  0  0
 13 18  2  0  0  0  0
 15 23  1  0  0  0  0
 16  2  1  0  0  0  0
 17  3  1  0  0  0  0
 18 25  1  0  0  0  0
 19 26  1  0  0  0  0
 20 17  2  0  0  0  0
 22 20  1  6  0  0  0
 22 10  1  0  0  0  0
 23 14  2  0  0  0  0
 26 17  1  0  0  0  0
 26 25  2  0  0  0  0
 27 24  1  1  0  0  0
 27  7  1  0  0  0  0
 28 11  1  0  0  0  0
 29 30  1  0  0  0  0
 30 28  1  0  0  0  0
M  END
>  <MODEL>
1

>  <REMARK>
 VINA RESULT:     -10.2      0.000      0.000
  Name = 
  2 active torsions:
  status: ('A' for Active; 'I' for Inactive)
    1  A    between atoms: C_11  and  O_28
    2  A    between atoms: O_28  and  C_30
                            x       y       z     vdW  Elec       q    Type
                         _______ _______ _______ _____ _____    ______ ____

>  <TORSDO>
F 2

$$$$
=
 OpenBabel11122410263D

 30 35  0  0  1  0  0  0  0  0999 V2000
  186.9180  178.1480  142.4190 C   0  0  0  0  0  0  0  0  0  0  0  0
  188.0890  177.8050  144.6220 C   0  0  0  0  0  0  0  0  0  0  0  0
  183.2440  178.6850  144.4050 N   0  0  0  0  0  2  0  0  0  0  0  0
  185.7050  178.3810  141.7000 C   0  0  0  0  0  0  0  0  0  0  0  0
  188.1070  178.0090  141.6950 C   0  0  0  0  0  3  0  0  0  0  0  0
  187.0030  178.2600  138.0930 C   0  0  0  0  0  1  0  0  0  0  0  0
  183.3760  177.4780  139.9200 C   0  0  1  0  0  3  0  0  0  0  0  0
  186.9500  178.2420  139.5900 C   0  0  0  0  0  0  0  0  0  0  0  0
  182.6060  178.0270  141.0310 N   0  0  0  0  0  0  0  0  0  0  0  0
  182.4200  178.9830  143.2880 C   0  0  0  0  0  0  0  0  0  0  0  0
  188.1410  178.0670  140.3020 C   0  0  0  0  0  0  0  0  0  0  0  0
  185.7210  178.3790  140.2720 C   0  0  0  0  0  0  0  0  0  0  0  0
  188.0120  177.7160  146.0140 C   0  0  0  0  0  3  0  0  0  0  0  0
  181.2360  178.0410  140.6570 C   0  0  0  0  0  3  0  0  0  0  0  0
  182.3540  177.1900  138.8220 C   0  0  0  0  0  2  0  0  0  0  0  0
  189.3410  177.6420  144.0390 O   0  0  0  0  0  1  0  0  0  0  0  0
  184.5230  178.4640  143.8280 C   0  0  0  0  0  0  0  0  0  0  0  0
  186.7940  177.8660  146.6730 C   0  0  0  0  0  3  0  0  0  0  0  0
  186.9170  178.0520  143.8490 C   0  0  0  0  0  0  0  0  0  0  0  0
  184.5250  178.5750  142.4520 C   0  0  0  0  0  0  0  0  0  0  0  0
  181.2000  179.2710  143.4080 O   0  0  0  0  0  0  0  0  0  0  0  0
  183.1600  178.9890  141.9830 C   0  0  1  0  0  3  0  0  0  0  0  0
  181.0500  177.5640  139.4430 C   0  0  0  0  0  3  0  0  0  0  0  0
  183.9980  179.8740  139.1900 C   0  0  0  0  0  1  0  0  0  0  0  0
  185.6360  178.1100  145.9410 C   0  0  0  0  0  3  0  0  0  0  0  0
  185.6860  178.2030  144.5450 C   0  0  0  0  0  0  0  0  0  0  0  0
  184.4650  178.4440  139.4340 C   0  0  2  0  0  3  0  0  0  0  0  0
  189.3510  177.9380  139.6080 O   0  0  0  0  0  0  0  0  0  0  0  0
  191.5340  177.4020  140.4400 C   0  0  0  0  0  1  0  0  0  0  0  0
  190.2570  176.8650  139.8300 C   0  0  0  0  0  2  0  0  0  0  0  0
  1 19  1  0  0  0  0
  2 13  1  0  0  0  0
  4  1  1  0  0  0  0
  4 20  1  0  0  0  0
  5  1  2  0  0  0  0
  6  8  1  0  0  0  0
  7 15  1  6  0  0  0
  7  9  1  0  0  0  0
  8 12  1  0  0  0  0
  8 11  2  0  0  0  0
  9 22  1  0  0  0  0
 10 21  2  0  0  0  0
 10  3  1  0  0  0  0
 11  5  1  0  0  0  0
 12  4  2  0  0  0  0
 13 18  2  0  0  0  0
 14  9  1  0  0  0  0
 15 23  1  0  0  0  0
 16  2  1  0  0  0  0
 17  3  1  0  0  0  0
 17 26  1  0  0  0  0
 19 26  1  0  0  0  0
 19  2  2  0  0  0  0
 20 17  2  0  0  0  0
 22 20  1  1  0  0  0
 22 10  1  0  0  0  0
 23 14  2  0  0  0  0
 25 18  1  0  0  0  0
 26 25  2  0  0  0  0
 27 24  1  1  0  0  0
 27  7  1  0  0  0  0
 27 12  1  0  0  0  0
 28 30  1  0  0  0  0
 28 11  1  0  0  0  0
 30 29  1  0  0  0  0
M  END
>  <MODEL>
2

>  <REMARK>
 VINA RESULT:      -9.3      2.322      5.833
  Name = 
  2 active torsions:
  status: ('A' for Active; 'I' for Inactive)
    1  A    between atoms: C_11  and  O_28
    2  A    between atoms: O_28  and  C_30
                            x       y       z     vdW  Elec       q    Type
                         _______ _______ _______ _____ _____    ______ ____

>  <TORSDO>
F 2

$$$$
=
 OpenBabel11122410263D

 30 35  0  0  1  0  0  0  0  0999 V2000
  187.8380  177.9130  142.7750 C   0  0  0  0  0  0  0  0  0  0  0  0
  186.7470  177.9830  145.0440 C   0  0  0  0  0  0  0  0  0  0  0  0
  184.2080  179.0100  140.9450 N   0  0  0  0  0  2  0  0  0  0  0  0
  187.7240  178.0450  141.3570 C   0  0  0  0  0  0  0  0  0  0  0  0
  189.0830  177.5750  143.3160 C   0  0  0  0  0  3  0  0  0  0  0  0
  191.2900  177.1220  140.2870 C   0  0  0  0  0  1  0  0  0  0  0  0
  187.5580  176.8960  138.5180 C   0  0  1  0  0  3  0  0  0  0  0  0
  190.0850  177.4170  141.1270 C   0  0  0  0  0  0  0  0  0  0  0  0
  186.3380  177.6960  138.5050 N   0  0  0  0  0  0  0  0  0  0  0  0
  184.6490  179.1060  139.5990 C   0  0  0  0  0  0  0  0  0  0  0  0
  190.2030  177.3410  142.5180 C   0  0  0  0  0  0  0  0  0  0  0  0
  188.8490  177.7460  140.5290 C   0  0  0  0  0  0  0  0  0  0  0  0
  185.5960  178.1880  145.8090 C   0  0  0  0  0  3  0  0  0  0  0  0
  185.8200  177.6920  137.1830 C   0  0  0  0  0  3  0  0  0  0  0  0
  187.7530  176.4310  137.0760 C   0  0  0  0  0  2  0  0  0  0  0  0
  187.9140  177.6480  145.7210 O   0  0  0  0  0  1  0  0  0  0  0  0
  185.3760  178.6190  141.6530 C   0  0  0  0  0  0  0  0  0  0  0  0
  184.3880  178.5250  145.2060 C   0  0  0  0  0  3  0  0  0  0  0  0
  186.7020  178.1160  143.6250 C   0  0  0  0  0  0  0  0  0  0  0  0
  186.4730  178.4420  140.8350 C   0  0  0  0  0  0  0  0  0  0  0  0
  183.8860  179.4660  138.6640 O   0  0  0  0  0  0  0  0  0  0  0  0
  186.1080  178.8090  139.4250 C   0  0  1  0  0  3  0  0  0  0  0  0
  186.5660  176.9820  136.3610 C   0  0  0  0  0  3  0  0  0  0  0  0
  188.9580  179.0580  138.3750 C   0  0  0  0  0  1  0  0  0  0  0  0
  184.3190  178.6630  143.8230 C   0  0  0  0  0  3  0  0  0  0  0  0
  185.4560  178.4620  143.0330 C   0  0  0  0  0  0  0  0  0  0  0  0
  188.7700  177.6900  139.0210 C   0  0  2  0  0  3  0  0  0  0  0  0
  191.4380  177.0190  143.0930 O   0  0  0  0  0  0  0  0  0  0  0  0
  191.6490  176.4600  145.4150 C   0  0  0  0  0  1  0  0  0  0  0  0
  191.6100  175.9340  143.9960 C   0  0  0  0  0  2  0  0  0  0  0  0
  1  5  1  0  0  0  0
  1 19  1  0  0  0  0
  2 16  1  0  0  0  0
  2 13  1  0  0  0  0
  3 17  1  0  0  0  0
  4  1  2  0  0  0  0
  6  8  1  0  0  0  0
  7 15  1  6  0  0  0
  7 27  1  0  0  0  0
  8 11  1  0  0  0  0
  9  7  1  0  0  0  0
  9 22  1  0  0  0  0
 10  3  1  0  0  0  0
 11 28  1  0  0  0  0
 11  5  2  0  0  0  0
 12  8  2  0  0  0  0
 12  4  1  0  0  0  0
 14  9  1  0  0  0  0
 17 26  1  0  0  0  0
 18 13  2  0  0  0  0
 19  2  2  0  0  0  0
 20  4  1  0  0  0  0
 20 17  2  0  0  0  0
 21 10  2  0  0  0  0
 22 10  1  1  0  0  0
 22 20  1  0  0  0  0
 23 15  1  0  0  0  0
 23 14  2  0  0  0  0
 25 18  1  0  0  0  0
 26 19  1  0  0  0  0
 26 25  2  0  0  0  0
 27 24  1  6  0  0  0
 27 12  1  0  0  0  0
 28 30  1  0  0  0  0
 30 29  1  0  0  0  0
M  END
>  <MODEL>
3

>  <REMARK>
 VINA RESULT:      -9.1      2.243      5.734
  Name = 
  2 active torsions:
  status: ('A' for Active; 'I' for Inactive)
    1  A    between atoms: C_11  and  O_28
    2  A    between atoms: O_28  and  C_30
                            x       y       z     vdW  Elec       q    Type
                         _______ _______ _______ _____ _____    ______ ____

>  <TORSDO>
F 2

$$$$
=
 OpenBabel11122410263D

 30 35  0  0  1  0  0  0  0  0999 V2000
  187.1650  178.1790  140.4680 C   0  0  0  0  0  0  0  0  0  0  0  0
  184.9320  179.0030  139.6460 C   0  0  0  0  0  0  0  0  0  0  0  0
  185.6850  177.9590  144.4040 N   0  0  0  0  0  2  0  0  0  0  0  0
  187.9930  177.7670  141.5580 C   0  0  0  0  0  0  0  0  0  0  0  0
  187.7150  178.1990  139.1820 C   0  0  0  0  0  3  0  0  0  0  0  0
  191.3080  177.1750  139.7230 C   0  0  0  0  0  1  0  0  0  0  0  0
  190.2510  178.2140  143.5850 C   0  0  1  0  0  3  0  0  0  0  0  0
  189.8740  177.5020  140.0050 C   0  0  0  0  0  0  0  0  0  0  0  0
  189.1790  177.8860  144.5170 N   0  0  0  0  0  0  0  0  0  0  0  0
  186.8260  177.4130  145.0490 C   0  0  0  0  0  0  0  0  0  0  0  0
  189.0440  177.8550  138.9360 C   0  0  0  0  0  0  0  0  0  0  0  0
  189.3710  177.4740  141.3240 C   0  0  0  0  0  0  0  0  0  0  0  0
  183.6170  179.3770  139.9350 C   0  0  0  0  0  3  0  0  0  0  0  0
  189.7430  177.7550  145.8140 C   0  0  0  0  0  3  0  0  0  0  0  0
  191.5250  178.2390  144.4260 C   0  0  0  0  0  2  0  0  0  0  0  0
  185.3420  179.0780  138.3190 O   0  0  0  0  0  1  0  0  0  0  0  0
  186.0970  178.0920  143.0510 C   0  0  0  0  0  0  0  0  0  0  0  0
  183.1320  179.3310  141.2390 C   0  0  0  0  0  3  0  0  0  0  0  0
  185.8030  178.5680  140.6880 C   0  0  0  0  0  0  0  0  0  0  0  0
  187.4030  177.6990  142.8390 C   0  0  0  0  0  0  0  0  0  0  0  0
  186.8330  177.1200  146.2730 O   0  0  0  0  0  0  0  0  0  0  0  0
  187.9740  177.1580  144.1190 C   0  0  1  0  0  3  0  0  0  0  0  0
  191.0440  177.9650  145.8110 C   0  0  0  0  0  3  0  0  0  0  0  0
  190.3620  175.7380  142.8660 C   0  0  0  0  0  1  0  0  0  0  0  0
  183.9620  178.9070  142.2730 C   0  0  0  0  0  3  0  0  0  0  0  0
  185.2830  178.5300  142.0110 C   0  0  0  0  0  0  0  0  0  0  0  0
  190.3560  177.2010  142.4370 C   0  0  2  0  0  3  0  0  0  0  0  0
  189.5590  177.8710  137.6340 O   0  0  0  0  0  0  0  0  0  0  0  0
  189.0700  175.6540  136.8670 C   0  0  0  0  0  1  0  0  0  0  0  0
  188.9800  177.1350  136.5650 C   0  0  0  0  0  2  0  0  0  0  0  0
  1 19  2  0  0  0  0
  1  4  1  0  0  0  0
  2 13  2  0  0  0  0
  2 19  1  0  0  0  0
  3 10  1  0  0  0  0
  4 20  2  0  0  0  0
  5  1  1  0  0  0  0
  6  8  1  0  0  0  0
  7 15  1  1  0  0  0
  7  9  1  0  0  0  0
  8 12  2  0  0  0  0
  9 14  1  0  0  0  0
 10 21  2  0  0  0  0
 11  5  2  0  0  0  0
 11  8  1  0  0  0  0
 12  4  1  0  0  0  0
 12 27  1  0  0  0  0
 13 18  1  0  0  0  0
 15 23  1  0  0  0  0
 16  2  1  0  0  0  0
 17  3  1  0  0  0  0
 18 25  2  0  0  0  0
 19 26  1  0  0  0  0
 20 17  1  0  0  0  0
 22 20  1  6  0  0  0
 22  9  1  0  0  0  0
 22 10  1  0  0  0  0
 23 14  2  0  0  0  0
 26 25  1  0  0  0  0
 26 17  2  0  0  0  0
 27 24  1  1  0  0  0
 27  7  1  0  0  0  0
 28 11  1  0  0  0  0
 30 29  1  0  0  0  0
 30 28  1  0  0  0  0
M  END
>  <MODEL>
4

>  <REMARK>
 VINA RESULT:      -8.9      1.467      2.082
  Name = 
  2 active torsions:
  status: ('A' for Active; 'I' for Inactive)
    1  A    between atoms: C_11  and  O_28
    2  A    between atoms: O_28  and  C_30
                            x       y       z     vdW  Elec       q    Type
                         _______ _______ _______ _____ _____    ______ ____

>  <TORSDO>
F 2

$$$$
=
 OpenBabel11122410263D

 30 35  0  0  1  0  0  0  0  0999 V2000
  186.3320  178.1230  144.6440 C   0  0  0  0  0  0  0  0  0  0  0  0
  183.8510  178.4520  144.9240 C   0  0  0  0  0  0  0  0  0  0  0  0
  186.0080  178.8580  140.5100 N   0  0  0  0  0  2  0  0  0  0  0  0
  187.4700  178.0670  143.7820 C   0  0  0  0  0  0  0  0  0  0  0  0
  186.5180  177.8980  146.0120 C   0  0  0  0  0  3  0  0  0  0  0  0
  190.2030  177.1280  146.3030 C   0  0  0  0  0  1  0  0  0  0  0  0
  189.6510  176.5550  142.2450 C   0  0  1  0  0  3  0  0  0  0  0  0
  188.8770  177.4910  145.7070 C   0  0  0  0  0  0  0  0  0  0  0  0
  189.0790  177.3070  141.1340 N   0  0  0  0  0  0  0  0  0  0  0  0
  187.3810  178.7920  140.1570 C   0  0  0  0  0  0  0  0  0  0  0  0
  187.7690  177.5990  146.5530 C   0  0  0  0  0  0  0  0  0  0  0  0
  188.7420  177.6990  144.3180 C   0  0  0  0  0  0  0  0  0  0  0  0
  182.6080  178.7180  144.3430 C   0  0  0  0  0  3  0  0  0  0  0  0
  189.9050  177.1160  139.9960 C   0  0  0  0  0  3  0  0  0  0  0  0
  190.9210  175.9140  141.6880 C   0  0  0  0  0  2  0  0  0  0  0  0
  183.8820  178.2450  146.2990 O   0  0  0  0  0  1  0  0  0  0  0  0
  186.0090  178.5990  141.9080 C   0  0  0  0  0  0  0  0  0  0  0  0
  182.4930  178.9350  142.9720 C   0  0  0  0  0  3  0  0  0  0  0  0
  185.0260  178.3980  144.1190 C   0  0  0  0  0  0  0  0  0  0  0  0
  187.2690  178.3520  142.4130 C   0  0  0  0  0  0  0  0  0  0  0  0
  187.7860  179.0040  138.9840 O   0  0  0  0  0  0  0  0  0  0  0  0
  188.2870  178.5220  141.3210 C   0  0  1  0  0  3  0  0  0  0  0  0
  190.9310  176.3290  140.2550 C   0  0  0  0  0  3  0  0  0  0  0  0
  190.7250  178.7250  143.1380 C   0  0  0  0  0  1  0  0  0  0  0  0
  183.6260  178.8900  142.1660 C   0  0  0  0  0  3  0  0  0  0  0  0
  184.8820  178.6240  142.7230 C   0  0  0  0  0  0  0  0  0  0  0  0
  189.9570  177.4470  143.4560 C   0  0  2  0  0  3  0  0  0  0  0  0
  187.9240  177.3940  147.9300 O   0  0  0  0  0  0  0  0  0  0  0  0
  189.5410  178.6270  149.1980 C   0  0  0  0  0  1  0  0  0  0  0  0
  188.0760  178.4610  148.8570 C   0  0  0  0  0  2  0  0  0  0  0  0
  1  5  1  0  0  0  0
  2 16  1  0  0  0  0
  3 17  1  0  0  0  0
  4 12  1  0  0  0  0
  4  1  2  0  0  0  0
  5 11  2  0  0  0  0
  7 15  1  6  0  0  0
  7 27  1  0  0  0  0
  8  6  1  0  0  0  0
  8 11  1  0  0  0  0
  9 22  1  0  0  0  0
  9  7  1  0  0  0  0
 10  3  1  0  0  0  0
 11 28  1  0  0  0  0
 12  8  2  0  0  0  0
 13  2  1  0  0  0  0
 14 23  2  0  0  0  0
 14  9  1  0  0  0  0
 17 20  2  0  0  0  0
 17 26  1  0  0  0  0
 18 13  2  0  0  0  0
 19  1  1  0  0  0  0
 19  2  2  0  0  0  0
 20  4  1  0  0  0  0
 21 10  2  0  0  0  0
 22 10  1  6  0  0  0
 22 20  1  0  0  0  0
 23 15  1  0  0  0  0
 25 26  2  0  0  0  0
 25 18  1  0  0  0  0
 26 19  1  0  0  0  0
 27 24  1  6  0  0  0
 27 12  1  0  0  0  0
 28 30  1  0  0  0  0
 30 29  1  0  0  0  0
M  END
>  <MODEL>
5

>  <REMARK>
 VINA RESULT:      -8.5      1.934      5.405
  Name = 
  2 active torsions:
  status: ('A' for Active; 'I' for Inactive)
    1  A    between atoms: C_11  and  O_28
    2  A    between atoms: O_28  and  C_30
                            x       y       z     vdW  Elec       q    Type
                         _______ _______ _______ _____ _____    ______ ____

>  <TORSDO>
F 2

$$$$
=
 OpenBabel11122410263D

 30 35  0  0  1  0  0  0  0  0999 V2000
  187.1400  178.0140  144.1720 C   0  0  0  0  0  0  0  0  0  0  0  0
  184.7870  178.3470  145.0060 C   0  0  0  0  0  0  0  0  0  0  0  0
  185.9070  178.8320  140.2300 N   0  0  0  0  0  2  0  0  0  0  0  0
  188.0560  177.9700  143.0760 C   0  0  0  0  0  0  0  0  0  0  0  0
  187.6250  177.7610  145.4590 C   0  0  0  0  0  3  0  0  0  0  0  0
  191.2750  176.9700  144.9050 C   0  0  0  0  0  1  0  0  0  0  0  0
  189.8260  176.4800  141.0620 C   0  0  1  0  0  3  0  0  0  0  0  0
  189.8530  177.3500  144.6270 C   0  0  0  0  0  0  0  0  0  0  0  0
  189.0260  177.2570  140.1220 N   0  0  0  0  0  0  0  0  0  0  0  0
  187.1660  178.7680  139.5770 C   0  0  0  0  0  0  0  0  0  0  0  0
  188.9630  177.4460  145.7010 C   0  0  0  0  0  0  0  0  0  0  0  0
  189.4120  177.5870  143.3070 C   0  0  0  0  0  0  0  0  0  0  0  0
  183.4480  178.6290  144.7220 C   0  0  0  0  0  3  0  0  0  0  0  0
  189.5760  177.0850  138.8240 C   0  0  0  0  0  3  0  0  0  0  0  0
  190.9330  175.8460  140.2240 C   0  0  0  0  0  2  0  0  0  0  0  0
  185.1230  178.1130  146.3340 O   0  0  0  0  0  1  0  0  0  0  0  0
  186.2180  178.5450  141.5860 C   0  0  0  0  0  0  0  0  0  0  0  0
  183.0320  178.8740  143.4160 C   0  0  0  0  0  3  0  0  0  0  0  0
  185.7530  178.3050  143.9580 C   0  0  0  0  0  0  0  0  0  0  0  0
  187.5570  178.2840  141.7920 C   0  0  0  0  0  0  0  0  0  0  0  0
  187.3000  179.0020  138.3470 O   0  0  0  0  0  0  0  0  0  0  0  0
  188.3060  178.4710  140.5040 C   0  0  1  0  0  3  0  0  0  0  0  0
  190.6260  176.2900  138.8330 C   0  0  0  0  0  3  0  0  0  0  0  0
  191.0900  178.6270  141.7330 C   0  0  0  0  0  1  0  0  0  0  0  0
  183.9550  178.8410  142.3760 C   0  0  0  0  0  3  0  0  0  0  0  0
  185.3020  178.5590  142.6330 C   0  0  0  0  0  0  0  0  0  0  0  0
  190.4020  177.3460  142.1900 C   0  0  2  0  0  3  0  0  0  0  0  0
  189.4190  177.2120  147.0040 O   0  0  0  0  0  0  0  0  0  0  0  0
  188.3080  178.2520  148.8560 C   0  0  0  0  0  1  0  0  0  0  0  0
  188.5430  176.9640  148.0960 C   0  0  0  0  0  2  0  0  0  0  0  0
  1  5  1  0  0  0  0
  2 16  1  0  0  0  0
  3 17  1  0  0  0  0
  4 12  1  0  0  0  0
  4  1  2  0  0  0  0
  5 11  2  0  0  0  0
  7 15  1  6  0  0  0
  7 27  1  0  0  0  0
  8  6  1  0  0  0  0
  8 11  1  0  0  0  0
  9 22  1  0  0  0  0
  9  7  1  0  0  0  0
 10  3  1  0  0  0  0
 11 28  1  0  0  0  0
 12  8  2  0  0  0  0
 13  2  1  0  0  0  0
 14 23  2  0  0  0  0
 14  9  1  0  0  0  0
 17 20  2  0  0  0  0
 17 26  1  0  0  0  0
 18 13  2  0  0  0  0
 19  1  1  0  0  0  0
 19  2  2  0  0  0  0
 20  4  1  0  0  0  0
 21 10  2  0  0  0  0
 22 10  1  6  0  0  0
 22 20  1  0  0  0  0
 23 15  1  0  0  0  0
 25 26  2  0  0  0  0
 25 18  1  0  0  0  0
 26 19  1  0  0  0  0
 27 24  1  6  0  0  0
 27 12  1  0  0  0  0
 28 30  1  0  0  0  0
 30 29  1  0  0  0  0
M  END
>  <MODEL>
6

>  <REMARK>
 VINA RESULT:      -8.0      1.999      5.435
  Name = 
  2 active torsions:
  status: ('A' for Active; 'I' for Inactive)
    1  A    between atoms: C_11  and  O_28
    2  A    between atoms: O_28  and  C_30
                            x       y       z     vdW  Elec       q    Type
                         _______ _______ _______ _____ _____    ______ ____

>  <TORSDO>
F 2

$$$$
=
 OpenBabel11122410263D

 30 35  0  0  1  0  0  0  0  0999 V2000
  186.2820  178.3440  142.8930 C   0  0  0  0  0  0  0  0  0  0  0  0
  185.9710  178.3780  140.3940 C   0  0  0  0  0  0  0  0  0  0  0  0
  190.4570  178.0740  142.4150 N   0  0  0  0  0  2  0  0  0  0  0  0
  187.1610  178.2530  144.0160 C   0  0  0  0  0  0  0  0  0  0  0  0
  184.9080  178.4620  143.1270 C   0  0  0  0  0  3  0  0  0  0  0  0
  184.6180  178.2980  146.8880 C   0  0  0  0  0  1  0  0  0  0  0  0
  188.4210  176.7530  146.3760 C   0  0  1  0  0  3  0  0  0  0  0  0
  185.2200  178.3290  145.5160 C   0  0  0  0  0  0  0  0  0  0  0  0
  189.6440  177.1470  145.6860 N   0  0  0  0  0  0  0  0  0  0  0  0
  190.8490  178.1220  143.7790 C   0  0  0  0  0  0  0  0  0  0  0  0
  184.3710  178.4700  144.4140 C   0  0  0  0  0  0  0  0  0  0  0  0
  186.6140  178.1970  145.3350 C   0  0  0  0  0  0  0  0  0  0  0  0
  186.5410  178.3300  139.1190 C   0  0  0  0  0  3  0  0  0  0  0  0
  190.7470  176.8210  146.5180 C   0  0  0  0  0  3  0  0  0  0  0  0
  188.8780  176.1860  147.7180 C   0  0  0  0  0  2  0  0  0  0  0  0
  184.5880  178.4930  140.4720 O   0  0  0  0  0  1  0  0  0  0  0  0
  189.0390  178.1390  142.4710 C   0  0  0  0  0  0  0  0  0  0  0  0
  187.9190  178.2130  138.9570 C   0  0  0  0  0  3  0  0  0  0  0  0
  186.7960  178.3080  141.5550 C   0  0  0  0  0  0  0  0  0  0  0  0
  188.5480  178.1920  143.7590 C   0  0  0  0  0  0  0  0  0  0  0  0
  192.0560  178.1180  144.1340 O   0  0  0  0  0  0  0  0  0  0  0  0
  189.6950  178.2510  144.7280 C   0  0  1  0  0  3  0  0  0  0  0  0
  190.3660  176.2650  147.6500 C   0  0  0  0  0  3  0  0  0  0  0  0
  188.0790  179.1960  147.1320 C   0  0  0  0  0  1  0  0  0  0  0  0
  188.7450  178.1460  140.0740 C   0  0  0  0  0  3  0  0  0  0  0  0
  188.2000  178.1910  141.3620 C   0  0  0  0  0  0  0  0  0  0  0  0
  187.4520  177.9280  146.5630 C   0  0  2  0  0  3  0  0  0  0  0  0
  182.9910  178.6040  144.6140 O   0  0  0  0  0  0  0  0  0  0  0  0
  180.6830  178.6280  143.9690 C   0  0  0  0  0  1  0  0  0  0  0  0
  182.0980  179.0040  143.5840 C   0  0  0  0  0  2  0  0  0  0  0  0
  1  5  2  0  0  0  0
  1  4  1  0  0  0  0
  2 16  1  0  0  0  0
  2 19  1  0  0  0  0
  3 17  1  0  0  0  0
  3 10  1  0  0  0  0
  4 12  2  0  0  0  0
  5 11  1  0  0  0  0
  7 27  1  0  0  0  0
  7 15  1  1  0  0  0
  8  6  1  0  0  0  0
  9  7  1  0  0  0  0
  9 14  1  0  0  0  0
 10 21  2  0  0  0  0
 10 22  1  0  0  0  0
 11 28  1  0  0  0  0
 11  8  2  0  0  0  0
 12  8  1  0  0  0  0
 12 27  1  0  0  0  0
 13  2  2  0  0  0  0
 14 23  2  0  0  0  0
 17 20  2  0  0  0  0
 18 13  1  0  0  0  0
 18 25  2  0  0  0  0
 19  1  1  0  0  0  0
 20  4  1  0  0  0  0
 22 20  1  6  0  0  0
 22  9  1  0  0  0  0
 23 15  1  0  0  0  0
 25 26  1  0  0  0  0
 26 19  2  0  0  0  0
 26 17  1  0  0  0  0
 27 24  1  6  0  0  0
 30 29  1  0  0  0  0
 30 28  1  0  0  0  0
M  END
>  <MODEL>
7

>  <REMARK>
 VINA RESULT:      -8.0      1.723      5.018
  Name = 
  2 active torsions:
  status: ('A' for Active; 'I' for Inactive)
    1  A    between atoms: C_11  and  O_28
    2  A    between atoms: O_28  and  C_30
                            x       y       z     vdW  Elec       q    Type
                         _______ _______ _______ _____ _____    ______ ____

>  <TORSDO>
F 2

$$$$
=
 OpenBabel11122410263D

 30 35  0  0  1  0  0  0  0  0999 V2000
  186.5140  178.2870  141.7940 C   0  0  0  0  0  0  0  0  0  0  0  0
  185.1590  178.5350  139.6860 C   0  0  0  0  0  0  0  0  0  0  0  0
  190.0210  177.7370  139.5300 N   0  0  0  0  0  2  0  0  0  0  0  0
  187.7770  178.0440  142.4170 C   0  0  0  0  0  0  0  0  0  0  0  0
  185.3960  178.4900  142.6090 C   0  0  0  0  0  3  0  0  0  0  0  0
  186.7440  178.0630  146.1100 C   0  0  0  0  0  1  0  0  0  0  0  0
  189.7730  176.2760  143.9330 C   0  0  1  0  0  3  0  0  0  0  0  0
  186.6930  178.1520  144.6150 C   0  0  0  0  0  0  0  0  0  0  0  0
  190.6110  176.6280  142.7930 N   0  0  0  0  0  0  0  0  0  0  0  0
  190.9660  177.6510  140.5860 C   0  0  0  0  0  0  0  0  0  0  0  0
  185.4710  178.4410  144.0020 C   0  0  0  0  0  0  0  0  0  0  0  0
  187.8510  177.9290  143.8390 C   0  0  0  0  0  0  0  0  0  0  0  0
  185.1150  178.5410  138.2890 C   0  0  0  0  0  3  0  0  0  0  0  0
  191.9260  176.1560  143.0460 C   0  0  0  0  0  3  0  0  0  0  0  0
  190.7050  175.5760  144.9200 C   0  0  0  0  0  2  0  0  0  0  0  0
  183.9650  178.7490  140.3650 O   0  0  0  0  0  1  0  0  0  0  0  0
  188.7810  177.9060  140.2020 C   0  0  0  0  0  0  0  0  0  0  0  0
  186.2670  178.3330  137.5370 C   0  0  0  0  0  3  0  0  0  0  0  0
  186.3930  178.3140  140.3660 C   0  0  0  0  0  0  0  0  0  0  0  0
  188.9030  177.8970  141.5770 C   0  0  0  0  0  0  0  0  0  0  0  0
  192.2010  177.5280  140.3770 O   0  0  0  0  0  0  0  0  0  0  0  0
  190.3550  177.7940  141.9480 C   0  0  1  0  0  3  0  0  0  0  0  0
  192.0160  175.5460  144.2110 C   0  0  0  0  0  3  0  0  0  0  0  0
  190.0420  178.6740  144.8490 C   0  0  0  0  0  1  0  0  0  0  0  0
  187.4830  178.1180  138.1770 C   0  0  0  0  0  3  0  0  0  0  0  0
  187.5560  178.1050  139.5750 C   0  0  0  0  0  0  0  0  0  0  0  0
  189.1050  177.5050  144.5660 C   0  0  2  0  0  3  0  0  0  0  0  0
  184.3350  178.6640  144.7890 O   0  0  0  0  0  0  0  0  0  0  0  0
  182.0760  178.7330  143.9890 C   0  0  0  0  0  1  0  0  0  0  0  0
  183.2870  179.5430  144.4000 C   0  0  0  0  0  2  0  0  0  0  0  0
  1  4  1  0  0  0  0
  1  5  2  0  0  0  0
  2 16  1  0  0  0  0
  2 19  1  0  0  0  0
  3 17  1  0  0  0  0
  3 10  1  0  0  0  0
  4 12  2  0  0  0  0
  5 11  1  0  0  0  0
  7 27  1  0  0  0  0
  7 15  1  1  0  0  0
  8  6  1  0  0  0  0
  9 14  1  0  0  0  0
  9  7  1  0  0  0  0
 11  8  2  0  0  0  0
 11 28  1  0  0  0  0
 12 27  1  0  0  0  0
 12  8  1  0  0  0  0
 13  2  2  0  0  0  0
 14 23  2  0  0  0  0
 17 20  2  0  0  0  0
 18 25  2  0  0  0  0
 18 13  1  0  0  0  0
 19  1  1  0  0  0  0
 20 22  1  0  0  0  0
 20  4  1  0  0  0  0
 21 10  2  0  0  0  0
 22 10  1  6  0  0  0
 22  9  1  0  0  0  0
 23 15  1  0  0  0  0
 25 26  1  0  0  0  0
 26 17  1  0  0  0  0
 26 19  2  0  0  0  0
 27 24  1  6  0  0  0
 29 30  1  0  0  0  0
 30 28  1  0  0  0  0
M  END
>  <MODEL>
8

>  <REMARK>
 VINA RESULT:      -7.9      2.009      4.992
  Name = 
  2 active torsions:
  status: ('A' for Active; 'I' for Inactive)
    1  A    between atoms: C_11  and  O_28
    2  A    between atoms: O_28  and  C_30
                            x       y       z     vdW  Elec       q    Type
                         _______ _______ _______ _____ _____    ______ ____

>  <TORSDO>
F 2

$$$$
=
 OpenBabel11122410263D

 30 35  0  0  1  0  0  0  0  0999 V2000
  189.8390  177.4000  140.1280 C   0  0  0  0  0  0  0  0  0  0  0  0
  190.7920  177.2430  142.4540 C   0  0  0  0  0  0  0  0  0  0  0  0
  186.1480  178.7050  141.6790 N   0  0  0  0  0  2  0  0  0  0  0  0
  188.7250  177.6790  139.2770 C   0  0  0  0  0  0  0  0  0  0  0  0
  191.0440  177.0000  139.5410 C   0  0  0  0  0  3  0  0  0  0  0  0
  190.2440  176.8480  135.8550 C   0  0  0  0  0  1  0  0  0  0  0  0
  186.4230  176.8310  137.4370 C   0  0  1  0  0  3  0  0  0  0  0  0
  190.0830  177.0630  137.3290 C   0  0  0  0  0  0  0  0  0  0  0  0
  185.6620  177.6360  138.3860 N   0  0  0  0  0  0  0  0  0  0  0  0
  185.4560  178.9360  140.4620 C   0  0  0  0  0  0  0  0  0  0  0  0
  191.1840  176.8430  138.1620 C   0  0  0  0  0  0  0  0  0  0  0  0
  188.8410  177.4590  137.8700 C   0  0  0  0  0  0  0  0  0  0  0  0
  190.6050  177.3760  143.8320 C   0  0  0  0  0  3  0  0  0  0  0  0
  184.3390  177.7720  137.8920 C   0  0  0  0  0  3  0  0  0  0  0  0
  185.4500  176.5160  136.3030 C   0  0  0  0  0  2  0  0  0  0  0  0
  192.0450  176.8320  142.0150 O   0  0  0  0  0  1  0  0  0  0  0  0
  187.4210  178.2350  141.2570 C   0  0  0  0  0  0  0  0  0  0  0  0
  189.3780  177.7810  144.3510 C   0  0  0  0  0  3  0  0  0  0  0  0
  189.7240  177.5220  141.5520 C   0  0  0  0  0  0  0  0  0  0  0  0
  187.5350  178.1360  139.8850 C   0  0  0  0  0  0  0  0  0  0  0  0
  184.2850  179.3960  140.4290 O   0  0  0  0  0  0  0  0  0  0  0  0
  186.2790  178.6490  139.2420 C   0  0  1  0  0  3  0  0  0  0  0  0
  184.1720  177.1460  136.7440 C   0  0  0  0  0  3  0  0  0  0  0  0
  187.4290  178.9870  136.4400 C   0  0  0  0  0  1  0  0  0  0  0  0
  188.3210  178.0610  143.4910 C   0  0  0  0  0  3  0  0  0  0  0  0
  188.4810  177.9350  142.1060 C   0  0  0  0  0  0  0  0  0  0  0  0
  187.6700  177.5610  136.9220 C   0  0  2  0  0  3  0  0  0  0  0  0
  192.4090  176.4540  137.6060 O   0  0  0  0  0  0  0  0  0  0  0  0
  192.2530  174.0950  137.2100 C   0  0  0  0  0  1  0  0  0  0  0  0
  193.0250  175.2050  137.8920 C   0  0  0  0  0  2  0  0  0  0  0  0
  1 19  1  0  0  0  0
  2 13  1  0  0  0  0
  4 20  1  0  0  0  0
  4  1  2  0  0  0  0
  5  1  1  0  0  0  0
  6  8  1  0  0  0  0
  7 15  1  6  0  0  0
  7  9  1  0  0  0  0
  8 12  2  0  0  0  0
  8 11  1  0  0  0  0
  9 22  1  0  0  0  0
 10  3  1  0  0  0  0
 11  5  2  0  0  0  0
 12  4  1  0  0  0  0
 13 18  2  0  0  0  0
 14  9  1  0  0  0  0
 15 23  1  0  0  0  0
 16  2  1  0  0  0  0
 17  3  1  0  0  0  0
 17 26  1  0  0  0  0
 19 26  1  0  0  0  0
 19  2  2  0  0  0  0
 20 17  2  0  0  0  0
 21 10  2  0  0  0  0
 22 20  1  1  0  0  0
 22 10  1  0  0  0  0
 23 14  2  0  0  0  0
 25 18  1  0  0  0  0
 26 25  2  0  0  0  0
 27 24  1  1  0  0  0
 27  7  1  0  0  0  0
 27 12  1  0  0  0  0
 28 30  1  0  0  0  0
 28 11  1  0  0  0  0
 29 30  1  0  0  0  0
M  END
>  <MODEL>
9

>  <REMARK>
 VINA RESULT:      -7.5      2.942      6.533
  Name = 
  2 active torsions:
  status: ('A' for Active; 'I' for Inactive)
    1  A    between atoms: C_11  and  O_28
    2  A    between atoms: O_28  and  C_30
                            x       y       z     vdW  Elec       q    Type
                         _______ _______ _______ _____ _____    ______ ____

>  <TORSDO>
F 2

$$$$
