=
 OpenBabel11122412253D

 34 40  0  0  1  0  0  0  0  0999 V2000
  190.2930  177.6910  141.4180 C   0  0  0  0  0  0  0  0  0  0  0  0
  190.1360  176.4040  139.2750 C   0  0  0  0  0  2  0  0  0  0  0  0
  186.1800  178.4770  146.5270 C   0  0  0  0  0  0  0  0  0  0  0  0
  189.5040  177.7790  143.7030 C   0  0  0  0  0  0  0  0  0  0  0  0
  187.0830  178.4660  144.1290 C   0  0  2  0  0  3  0  0  0  0  0  0
  184.8000  179.0030  144.6430 O   0  0  0  0  0  1  0  0  0  0  0  0
  185.5910  179.4060  147.1390 O   0  0  0  0  0  0  0  0  0  0  0  0
  188.2720  177.1330  146.7640 C   0  0  0  0  0  2  0  0  0  0  0  0
  188.7390  178.3270  139.5010 C   0  0  2  0  0  3  0  0  0  0  0  0
  186.1420  178.4630  137.8810 C   0  0  0  0  0  2  0  0  0  0  0  0
  186.7830  177.7870  142.7950 C   0  0  0  0  0  2  0  0  0  0  0  0
  188.1960  176.7440  145.4210 O   0  0  0  0  0  0  0  0  0  0  0  0
  187.5460  177.9970  140.4270 C   0  0  1  0  0  3  0  0  0  0  0  0
  189.4350  176.5290  138.0020 N   0  0  0  0  0  2  0  0  0  0  0  0
  188.4040  177.9350  144.7160 C   0  0  1  0  0  3  0  0  0  0  0  0
  187.0170  177.6160  147.2470 O   0  0  0  0  0  0  0  0  0  0  0  0
  187.1530  177.3540  137.6310 C   0  0  2  0  0  3  0  0  0  0  0  0
  189.2300  177.8030  142.3220 C   0  0  0  0  0  0  0  0  0  0  0  0
  185.8900  178.2380  145.0650 C   0  0  2  0  0  3  0  0  0  0  0  0
  187.8830  177.9820  141.8530 N   0  0  0  0  0  0  0  0  0  0  0  0
  191.8230  177.4890  143.2730 C   0  0  0  0  0  3  0  0  0  0  0  0
  185.6340  178.3630  139.3140 C   0  0  0  0  0  2  0  0  0  0  0  0
  190.7830  177.6190  144.1370 N   0  0  0  0  0  0  0  0  0  0  0  0
  186.5450  178.9520  140.1970 O   0  0  0  0  0  0  0  0  0  0  0  0
  188.5760  177.7120  138.0970 C   0  0  1  0  0  3  0  0  0  0  0  0
  191.5960  177.5270  141.8970 C   0  0  0  0  0  3  0  0  0  0  0  0
  190.0660  177.7520  139.9420 C   0  0  1  0  0  3  0  0  0  0  0  0
  187.1720  177.0460  136.2690 O   0  0  0  0  0  0  0  0  0  0  0  0
  186.0250  176.2770  136.0590 C   0  0  0  0  0  2  0  0  0  0  0  0
  184.7800  172.7390  137.5430 S   0  0  0  0  0  0  0  0  0  0  0  0
  186.8390  173.9300  136.2540 C   0  0  0  0  0  2  0  0  0  0  0  0
  186.0680  175.0360  136.9330 C   0  0  2  0  0  3  0  0  0  0  0  0
  186.5190  172.6600  137.0080 C   0  0  0  0  0  2  0  0  0  0  0  0
  184.6680  174.5140  137.1550 C   0  0  0  0  0  2  0  0  0  0  0  0
  1 26  2  0  0  0  0
  1 18  1  0  0  0  0
  2 27  1  0  0  0  0
  3  7  2  0  0  0  0
  3 16  1  0  0  0  0
  4 23  1  0  0  0  0
  4 15  1  0  0  0  0
  5 11  1  6  0  0  0
  5 15  1  0  0  0  0
  5 19  1  0  0  0  0
  6 19  1  0  0  0  0
  8 16  1  0  0  0  0
  9 27  1  0  0  0  0
  9 13  1  0  0  0  0
 10 22  1  0  0  0  0
 12  8  1  0  0  0  0
 13 20  1  0  0  0  0
 14 25  1  0  0  0  0
 14  2  1  0  0  0  0
 15 12  1  0  0  0  0
 17 10  1  0  0  0  0
 17 25  1  0  0  0  0
 18  4  2  0  0  0  0
 19  3  1  0  0  0  0
 20 18  1  0  0  0  0
 20 11  1  0  0  0  0
 21 23  2  0  0  0  0
 22 24  1  0  0  0  0
 24 13  1  0  0  0  0
 25  9  1  0  0  0  0
 26 21  1  0  0  0  0
 27  1  1  0  0  0  0
 28 17  1  0  0  0  0
 29 28  1  0  0  0  0
 29 32  1  0  0  0  0
 31 32  1  0  0  0  0
 31 33  1  0  0  0  0
 32 34  1  0  0  0  0
 33 30  1  0  0  0  0
 34 30  1  0  0  0  0
M  END
>  <MODEL>
1

>  <REMARK>
 VINA RESULT:      -8.8      0.000      0.000
  Name = 
  3 active torsions:
  status: ('A' for Active; 'I' for Inactive)
    1  A    between atoms: C_17  and  O_28
    2  A    between atoms: O_28  and  C_29
    3  A    between atoms: C_29  and  C_32
                            x       y       z     vdW  Elec       q    Type
                         _______ _______ _______ _____ _____    ______ ____

>  <TORSDO>
F 3

$$$$
=
 OpenBabel11122412253D

 34 40  0  0  1  0  0  0  0  0999 V2000
  185.9320  178.1560  144.2050 C   0  0  0  0  0  0  0  0  0  0  0  0
  185.5000  179.5600  142.1770 C   0  0  0  0  0  2  0  0  0  0  0  0
  191.4110  176.6620  147.5810 C   0  0  0  0  0  0  0  0  0  0  0  0
  187.4290  177.8460  146.0810 C   0  0  0  0  0  0  0  0  0  0  0  0
  189.7620  176.9130  145.6350 C   0  0  2  0  0  3  0  0  0  0  0  0
  192.0120  176.1360  145.3240 O   0  0  0  0  0  1  0  0  0  0  0  0
  192.0670  175.6450  147.9270 O   0  0  0  0  0  0  0  0  0  0  0  0
  189.6790  178.1750  148.5570 C   0  0  0  0  0  2  0  0  0  0  0  0
  186.6730  177.5060  141.8550 C   0  0  2  0  0  3  0  0  0  0  0  0
  188.5450  177.2390  139.4440 C   0  0  0  0  0  2  0  0  0  0  0  0
  189.6680  177.6480  144.3000 C   0  0  0  0  0  2  0  0  0  0  0  0
  189.3420  178.6420  147.2810 O   0  0  0  0  0  0  0  0  0  0  0  0
  188.1360  177.6640  142.3290 C   0  0  1  0  0  3  0  0  0  0  0  0
  185.7140  179.4550  140.7390 N   0  0  0  0  0  2  0  0  0  0  0  0
  188.7810  177.5240  146.6540 C   0  0  1  0  0  3  0  0  0  0  0  0
  190.9630  177.5480  148.5690 O   0  0  0  0  0  0  0  0  0  0  0  0
  187.6350  178.4500  139.5880 C   0  0  2  0  0  3  0  0  0  0  0  0
  187.2180  177.8880  144.6890 C   0  0  0  0  0  0  0  0  0  0  0  0
  191.2170  176.9690  146.1150 C   0  0  2  0  0  3  0  0  0  0  0  0
  188.3020  177.6170  143.7850 N   0  0  0  0  0  0  0  0  0  0  0  0
  185.1460  178.3760  146.4760 C   0  0  0  0  0  3  0  0  0  0  0  0
  189.5120  177.1970  140.6200 C   0  0  0  0  0  2  0  0  0  0  0  0
  186.3950  178.0950  146.9300 N   0  0  0  0  0  0  0  0  0  0  0  0
  188.8920  176.6380  141.7420 O   0  0  0  0  0  0  0  0  0  0  0  0
  186.4210  178.1940  140.4990 C   0  0  1  0  0  3  0  0  0  0  0  0
  184.8920  178.4070  145.1040 C   0  0  0  0  0  3  0  0  0  0  0  0
  185.6430  178.1710  142.7400 C   0  0  1  0  0  3  0  0  0  0  0  0
  187.1940  178.8460  138.3230 O   0  0  0  0  0  0  0  0  0  0  0  0
  187.2440  177.6870  137.5460 C   0  0  0  0  0  2  0  0  0  0  0  0
  184.5250  176.0330  135.0680 S   0  0  0  0  0  0  0  0  0  0  0  0
  184.7700  177.4560  137.3560 C   0  0  0  0  0  2  0  0  0  0  0  0
  186.0600  177.6500  136.5960 C   0  0  2  0  0  3  0  0  0  0  0  0
  183.7260  177.0700  136.3330 C   0  0  0  0  0  2  0  0  0  0  0  0
  186.1900  176.4740  135.6570 C   0  0  0  0  0  2  0  0  0  0  0  0
  1 18  2  0  0  0  0
  1 26  1  0  0  0  0
  2 27  1  0  0  0  0
  3  7  2  0  0  0  0
  3 16  1  0  0  0  0
  4 15  1  0  0  0  0
  4 23  2  0  0  0  0
  5 11  1  6  0  0  0
  5 19  1  0  0  0  0
  5 15  1  0  0  0  0
  6 19  1  0  0  0  0
  8 16  1  0  0  0  0
  9 13  1  0  0  0  0
  9 27  1  0  0  0  0
 10 17  1  0  0  0  0
 10 22  1  0  0  0  0
 12  8  1  0  0  0  0
 13 20  1  0  0  0  0
 14  2  1  0  0  0  0
 15 12  1  0  0  0  0
 17 25  1  0  0  0  0
 18  4  1  0  0  0  0
 19  3  1  0  0  0  0
 20 11  1  0  0  0  0
 20 18  1  0  0  0  0
 21 23  1  0  0  0  0
 22 24  1  0  0  0  0
 24 13  1  0  0  0  0
 25 14  1  0  0  0  0
 25  9  1  0  0  0  0
 26 21  2  0  0  0  0
 27  1  1  0  0  0  0
 28 17  1  0  0  0  0
 29 28  1  0  0  0  0
 30 34  1  0  0  0  0
 30 33  1  0  0  0  0
 32 31  1  0  0  0  0
 32 29  1  0  0  0  0
 33 31  1  0  0  0  0
 34 32  1  0  0  0  0
M  END
>  <MODEL>
2

>  <REMARK>
 VINA RESULT:      -8.7      2.396      4.500
  Name = 
  3 active torsions:
  status: ('A' for Active; 'I' for Inactive)
    1  A    between atoms: C_17  and  O_28
    2  A    between atoms: O_28  and  C_29
    3  A    between atoms: C_29  and  C_32
                            x       y       z     vdW  Elec       q    Type
                         _______ _______ _______ _____ _____    ______ ____

>  <TORSDO>
F 3

$$$$
=
 OpenBabel11122412253D

 34 40  0  0  1  0  0  0  0  0999 V2000
  186.3930  178.2420  144.5900 C   0  0  0  0  0  0  0  0  0  0  0  0
  188.1640  176.5500  144.0710 C   0  0  0  0  0  2  0  0  0  0  0  0
  180.5640  179.6740  141.8290 C   0  0  0  0  0  0  0  0  0  0  0  0
  184.0270  178.7130  144.3970 C   0  0  0  0  0  0  0  0  0  0  0  0
  183.0800  179.2650  142.0930 C   0  0  2  0  0  3  0  0  0  0  0  0
  182.0620  179.7000  139.9620 O   0  0  0  0  0  1  0  0  0  0  0  0
  179.9800  180.6530  141.2960 O   0  0  0  0  0  0  0  0  0  0  0  0
  180.6840  178.5830  144.0740 C   0  0  0  0  0  2  0  0  0  0  0  0
  187.8930  178.3550  142.5330 C   0  0  2  0  0  3  0  0  0  0  0  0
  188.7430  177.9510  139.6170 C   0  0  0  0  0  2  0  0  0  0  0  0
  184.1480  178.3140  141.5600 C   0  0  0  0  0  2  0  0  0  0  0  0
  181.8690  177.9320  143.7140 O   0  0  0  0  0  0  0  0  0  0  0  0
  186.6350  178.1160  141.6670 C   0  0  1  0  0  3  0  0  0  0  0  0
  189.2000  176.3620  143.0620 N   0  0  0  0  0  2  0  0  0  0  0  0
  182.7940  178.9730  143.5770 C   0  0  1  0  0  3  0  0  0  0  0  0
  179.9650  179.0450  142.9280 O   0  0  0  0  0  0  0  0  0  0  0  0
  189.0680  176.9030  140.6720 C   0  0  2  0  0  3  0  0  0  0  0  0
  185.2650  178.4410  143.7840 C   0  0  0  0  0  0  0  0  0  0  0  0
  181.8300  179.1270  141.2150 C   0  0  2  0  0  3  0  0  0  0  0  0
  185.3720  178.4100  142.3510 N   0  0  0  0  0  0  0  0  0  0  0  0
  185.0180  178.5390  146.5510 C   0  0  0  0  0  3  0  0  0  0  0  0
  187.2300  178.0940  139.5040 C   0  0  0  0  0  2  0  0  0  0  0  0
  183.9370  178.7490  145.7540 N   0  0  0  0  0  0  0  0  0  0  0  0
  186.7410  178.9190  140.5220 O   0  0  0  0  0  0  0  0  0  0  0  0
  189.0750  177.4640  142.1050 C   0  0  1  0  0  3  0  0  0  0  0  0
  186.2660  178.2860  145.9810 C   0  0  0  0  0  3  0  0  0  0  0  0
  187.7390  177.9910  143.9930 C   0  0  1  0  0  3  0  0  0  0  0  0
  190.3130  176.3350  140.3870 O   0  0  0  0  0  0  0  0  0  0  0  0
  190.7790  177.0340  139.2710 C   0  0  0  0  0  2  0  0  0  0  0  0
  192.3650  175.6710  135.8220 S   0  0  0  0  0  0  0  0  0  0  0  0
  193.0180  176.5160  138.3080 C   0  0  0  0  0  2  0  0  0  0  0  0
  191.5670  176.1020  138.3690 C   0  0  2  0  0  3  0  0  0  0  0  0
  193.6230  175.7810  137.1340 C   0  0  0  0  0  2  0  0  0  0  0  0
  191.0360  176.1810  136.9570 C   0  0  0  0  0  2  0  0  0  0  0  0
  1 26  1  0  0  0  0
  3 16  1  0  0  0  0
  4 23  2  0  0  0  0
  5 11  1  6  0  0  0
  5 15  1  0  0  0  0
  6 19  1  0  0  0  0
  7  3  2  0  0  0  0
  9 27  1  0  0  0  0
 10 17  1  0  0  0  0
 11 20  1  0  0  0  0
 12  8  1  0  0  0  0
 13 20  1  0  0  0  0
 13  9  1  0  0  0  0
 14  2  1  0  0  0  0
 15 12  1  0  0  0  0
 15  4  1  0  0  0  0
 16  8  1  0  0  0  0
 17 25  1  0  0  0  0
 18  4  1  0  0  0  0
 18  1  2  0  0  0  0
 19  3  1  0  0  0  0
 19  5  1  0  0  0  0
 20 18  1  0  0  0  0
 22 10  1  0  0  0  0
 22 24  1  0  0  0  0
 23 21  1  0  0  0  0
 24 13  1  0  0  0  0
 25  9  1  0  0  0  0
 25 14  1  0  0  0  0
 26 21  2  0  0  0  0
 27  2  1  0  0  0  0
 27  1  1  0  0  0  0
 28 17  1  0  0  0  0
 29 28  1  0  0  0  0
 30 34  1  0  0  0  0
 30 33  1  0  0  0  0
 31 32  1  0  0  0  0
 32 29  1  0  0  0  0
 33 31  1  0  0  0  0
 34 32  1  0  0  0  0
M  END
>  <MODEL>
3

>  <REMARK>
 VINA RESULT:      -8.5      3.422      5.716
  Name = 
  3 active torsions:
  status: ('A' for Active; 'I' for Inactive)
    1  A    between atoms: C_17  and  O_28
    2  A    between atoms: O_28  and  C_29
    3  A    between atoms: C_29  and  C_32
                            x       y       z     vdW  Elec       q    Type
                         _______ _______ _______ _____ _____    ______ ____

>  <TORSDO>
F 3

$$$$
=
 OpenBabel11122412253D

 34 40  0  0  1  0  0  0  0  0999 V2000
  187.6280  177.4740  145.2580 C   0  0  0  0  0  0  0  0  0  0  0  0
  185.8760  179.0870  146.0310 C   0  0  0  0  0  2  0  0  0  0  0  0
  191.3760  177.1340  139.8280 C   0  0  0  0  0  0  0  0  0  0  0  0
  189.5970  177.2480  143.8690 C   0  0  0  0  0  0  0  0  0  0  0  0
  189.3070  177.2720  141.3330 C   0  0  2  0  0  3  0  0  0  0  0  0
  189.1670  177.3780  138.9390 O   0  0  0  0  0  1  0  0  0  0  0  0
  191.6040  176.3400  138.8780 O   0  0  0  0  0  0  0  0  0  0  0  0
  192.3790  177.7150  142.0410 C   0  0  0  0  0  2  0  0  0  0  0  0
  185.3230  177.6730  144.1880 C   0  0  2  0  0  3  0  0  0  0  0  0
  183.1930  178.6110  142.1960 C   0  0  0  0  0  2  0  0  0  0  0  0
  188.1430  178.2240  141.5970 C   0  0  0  0  0  2  0  0  0  0  0  0
  191.1860  178.3290  142.4400 O   0  0  0  0  0  0  0  0  0  0  0  0
  186.0190  178.1910  142.9090 C   0  0  1  0  0  3  0  0  0  0  0  0
  184.4890  179.3980  145.7030 N   0  0  0  0  0  2  0  0  0  0  0  0
  190.2780  177.2680  142.5290 C   0  0  1  0  0  3  0  0  0  0  0  0
  192.4470  177.5650  140.6220 O   0  0  0  0  0  0  0  0  0  0  0  0
  183.4440  179.3840  143.4830 C   0  0  2  0  0  3  0  0  0  0  0  0
  188.2250  177.5410  143.9930 C   0  0  0  0  0  0  0  0  0  0  0  0
  189.9870  177.6920  140.0250 C   0  0  2  0  0  3  0  0  0  0  0  0
  187.4450  177.8630  142.8290 N   0  0  0  0  0  0  0  0  0  0  0  0
  189.7640  176.8840  146.2120 C   0  0  0  0  0  3  0  0  0  0  0  0
  184.4610  178.6190  141.3520 C   0  0  0  0  0  2  0  0  0  0  0  0
  190.3250  176.9350  144.9750 N   0  0  0  0  0  0  0  0  0  0  0  0
  185.3540  177.6410  141.8030 O   0  0  0  0  0  0  0  0  0  0  0  0
  184.1080  178.5350  144.5820 C   0  0  1  0  0  3  0  0  0  0  0  0
  188.4040  177.1490  146.3730 C   0  0  0  0  0  3  0  0  0  0  0  0
  186.1680  177.7340  145.4410 C   0  0  1  0  0  3  0  0  0  0  0  0
  182.2320  179.8950  143.9550 O   0  0  0  0  0  0  0  0  0  0  0  0
  181.3870  178.7870  144.0480 C   0  0  0  0  0  2  0  0  0  0  0  0
  178.9490  180.6140  141.4050 S   0  0  0  0  0  0  0  0  0  0  0  0
  180.0330  178.2170  142.0350 C   0  0  0  0  0  2  0  0  0  0  0  0
  180.0990  179.0550  143.2900 C   0  0  2  0  0  3  0  0  0  0  0  0
  178.9310  178.8070  141.1850 C   0  0  0  0  0  2  0  0  0  0  0  0
  180.0530  180.4990  142.8470 C   0  0  0  0  0  2  0  0  0  0  0  0
  1 27  1  0  0  0  0
  1 26  1  0  0  0  0
  3 19  1  0  0  0  0
  3 16  1  0  0  0  0
  4 18  1  0  0  0  0
  4 23  2  0  0  0  0
  5 11  1  1  0  0  0
  5 15  1  0  0  0  0
  6 19  1  0  0  0  0
  7  3  2  0  0  0  0
  8 12  1  0  0  0  0
  9 25  1  0  0  0  0
  9 27  1  0  0  0  0
 10 17  1  0  0  0  0
 11 20  1  0  0  0  0
 12 15  1  0  0  0  0
 13  9  1  0  0  0  0
 14  2  1  0  0  0  0
 15  4  1  0  0  0  0
 16  8  1  0  0  0  0
 17 28  1  0  0  0  0
 17 25  1  0  0  0  0
 18  1  2  0  0  0  0
 19  5  1  0  0  0  0
 20 13  1  0  0  0  0
 20 18  1  0  0  0  0
 21 26  2  0  0  0  0
 22 24  1  0  0  0  0
 22 10  1  0  0  0  0
 23 21  1  0  0  0  0
 24 13  1  0  0  0  0
 25 14  1  0  0  0  0
 27  2  1  0  0  0  0
 28 29  1  0  0  0  0
 30 34  1  0  0  0  0
 31 32  1  0  0  0  0
 32 29  1  0  0  0  0
 33 30  1  0  0  0  0
 33 31  1  0  0  0  0
 34 32  1  0  0  0  0
M  END
>  <MODEL>
4

>  <REMARK>
 VINA RESULT:      -8.3      3.793      6.876
  Name = 
  3 active torsions:
  status: ('A' for Active; 'I' for Inactive)
    1  A    between atoms: C_17  and  O_28
    2  A    between atoms: O_28  and  C_29
    3  A    between atoms: C_29  and  C_32
                            x       y       z     vdW  Elec       q    Type
                         _______ _______ _______ _____ _____    ______ ____

>  <TORSDO>
F 3

$$$$
=
 OpenBabel11122412253D

 34 40  0  0  1  0  0  0  0  0999 V2000
  186.3250  178.5180  140.8360 C   0  0  0  0  0  0  0  0  0  0  0  0
  184.2800  177.6670  139.6670 C   0  0  0  0  0  2  0  0  0  0  0  0
  188.7600  177.6120  146.9100 C   0  0  0  0  0  0  0  0  0  0  0  0
  187.9120  178.0290  142.5950 C   0  0  0  0  0  0  0  0  0  0  0  0
  187.1390  178.2160  145.0200 C   0  0  2  0  0  3  0  0  0  0  0  0
  186.4960  178.2650  147.3330 O   0  0  0  0  0  1  0  0  0  0  0  0
  189.0800  178.2950  147.9180 O   0  0  0  0  0  0  0  0  0  0  0  0
  189.8830  176.6060  144.9180 C   0  0  0  0  0  2  0  0  0  0  0  0
  183.9560  179.2550  141.4180 C   0  0  2  0  0  3  0  0  0  0  0  0
  181.2790  179.2810  142.9100 C   0  0  0  0  0  2  0  0  0  0  0  0
  185.7770  177.7720  144.4930 C   0  0  0  0  0  2  0  0  0  0  0  0
  188.6510  176.4800  144.2650 O   0  0  0  0  0  0  0  0  0  0  0  0
  184.1320  178.5610  142.7880 C   0  0  1  0  0  3  0  0  0  0  0  0
  182.8450  177.9220  139.7000 N   0  0  0  0  0  2  0  0  0  0  0  0
  188.2540  177.8030  144.0420 C   0  0  1  0  0  3  0  0  0  0  0  0
  189.7200  176.7750  146.3270 O   0  0  0  0  0  0  0  0  0  0  0  0
  181.4660  178.4210  141.6680 C   0  0  2  0  0  3  0  0  0  0  0  0
  186.5870  178.2770  142.1910 C   0  0  0  0  0  0  0  0  0  0  0  0
  187.3330  177.6190  146.4190 C   0  0  2  0  0  3  0  0  0  0  0  0
  185.5290  178.3230  143.1630 N   0  0  0  0  0  0  0  0  0  0  0  0
  188.6670  178.2090  140.3490 C   0  0  0  0  0  3  0  0  0  0  0  0
  182.2540  178.8220  143.9870 C   0  0  0  0  0  2  0  0  0  0  0  0
  188.9080  177.9970  141.6690 N   0  0  0  0  0  0  0  0  0  0  0  0
  183.5220  179.3670  143.7620 O   0  0  0  0  0  0  0  0  0  0  0  0
  182.6070  178.9080  140.7570 C   0  0  1  0  0  3  0  0  0  0  0  0
  187.3710  178.4780  139.9110 C   0  0  0  0  0  3  0  0  0  0  0  0
  184.9440  178.8280  140.3570 C   0  0  1  0  0  3  0  0  0  0  0  0
  180.2710  178.3930  140.9440 O   0  0  0  0  0  0  0  0  0  0  0  0
  179.6550  177.1950  141.3150 C   0  0  0  0  0  2  0  0  0  0  0  0
  179.0370  173.8760  139.1080 S   0  0  0  0  0  0  0  0  0  0  0  0
  179.5360  176.5290  138.9170 C   0  0  0  0  0  2  0  0  0  0  0  0
  179.9770  176.1130  140.3010 C   0  0  2  0  0  3  0  0  0  0  0  0
  179.5570  175.2780  138.0690 C   0  0  0  0  0  2  0  0  0  0  0  0
  179.2170  174.8510  140.6350 C   0  0  0  0  0  2  0  0  0  0  0  0
  1 18  1  0  0  0  0
  2 14  1  0  0  0  0
  2 27  1  0  0  0  0
  3  7  2  0  0  0  0
  4 15  1  0  0  0  0
  5 11  1  6  0  0  0
  5 19  1  0  0  0  0
  8 16  1  0  0  0  0
  9 13  1  0  0  0  0
 10 22  1  0  0  0  0
 12  8  1  0  0  0  0
 13 20  1  0  0  0  0
 13 24  1  0  0  0  0
 14 25  1  0  0  0  0
 15 12  1  0  0  0  0
 15  5  1  0  0  0  0
 16  3  1  0  0  0  0
 17 10  1  0  0  0  0
 18  4  2  0  0  0  0
 18 20  1  0  0  0  0
 19  3  1  0  0  0  0
 19  6  1  0  0  0  0
 20 11  1  0  0  0  0
 21 23  2  0  0  0  0
 23  4  1  0  0  0  0
 24 22  1  0  0  0  0
 25  9  1  0  0  0  0
 25 17  1  0  0  0  0
 26 21  1  0  0  0  0
 26  1  2  0  0  0  0
 27  1  1  0  0  0  0
 27  9  1  0  0  0  0
 28 29  1  0  0  0  0
 28 17  1  0  0  0  0
 30 34  1  0  0  0  0
 31 32  1  0  0  0  0
 32 34  1  0  0  0  0
 32 29  1  0  0  0  0
 33 31  1  0  0  0  0
 33 30  1  0  0  0  0
M  END
>  <MODEL>
5

>  <REMARK>
 VINA RESULT:      -8.0      3.470      5.126
  Name = 
  3 active torsions:
  status: ('A' for Active; 'I' for Inactive)
    1  A    between atoms: C_17  and  O_28
    2  A    between atoms: O_28  and  C_29
    3  A    between atoms: C_29  and  C_32
                            x       y       z     vdW  Elec       q    Type
                         _______ _______ _______ _____ _____    ______ ____

>  <TORSDO>
F 3

$$$$
=
 OpenBabel11122412253D

 34 40  0  0  1  0  0  0  0  0999 V2000
  189.3530  177.6790  136.9880 C   0  0  0  0  0  0  0  0  0  0  0  0
  187.4290  177.4850  138.5800 C   0  0  0  0  0  2  0  0  0  0  0  0
  195.0500  174.3930  136.3650 C   0  0  0  0  0  0  0  0  0  0  0  0
  191.1620  176.4500  135.9550 C   0  0  0  0  0  0  0  0  0  0  0  0
  193.1590  175.7810  137.3970 C   0  0  2  0  0  3  0  0  0  0  0  0
  195.0400  175.0140  138.6770 O   0  0  0  0  0  1  0  0  0  0  0  0
  196.2870  174.6250  136.3720 O   0  0  0  0  0  0  0  0  0  0  0  0
  193.2230  174.1170  134.6840 C   0  0  0  0  0  2  0  0  0  0  0  0
  189.4870  178.3280  139.4490 C   0  0  2  0  0  3  0  0  0  0  0  0
  190.0680  178.0030  142.4400 C   0  0  0  0  0  2  0  0  0  0  0  0
  192.1460  175.6710  138.5340 C   0  0  0  0  0  2  0  0  0  0  0  0
  192.2560  174.3380  135.6720 O   0  0  0  0  0  0  0  0  0  0  0  0
  190.4830  177.1630  139.6480 C   0  0  1  0  0  3  0  0  0  0  0  0
  187.1570  177.8200  139.9720 N   0  0  0  0  0  2  0  0  0  0  0  0
  192.4490  175.6760  136.0340 C   0  0  1  0  0  3  0  0  0  0  0  0
  194.4860  173.7610  135.2500 O   0  0  0  0  0  0  0  0  0  0  0  0
  188.6990  177.6560  141.8750 C   0  0  2  0  0  3  0  0  0  0  0  0
  190.5300  176.9320  137.1170 C   0  0  0  0  0  0  0  0  0  0  0  0
  194.2220  174.6930  137.5910 C   0  0  2  0  0  3  0  0  0  0  0  0
  191.1110  176.6940  138.4100 N   0  0  0  0  0  0  0  0  0  0  0  0
  189.4580  177.3940  134.5940 C   0  0  0  0  0  3  0  0  0  0  0  0
  191.1170  177.1030  141.7990 C   0  0  0  0  0  2  0  0  0  0  0  0
  190.6100  176.6870  134.7350 N   0  0  0  0  0  0  0  0  0  0  0  0
  191.4770  177.5930  140.5390 O   0  0  0  0  0  0  0  0  0  0  0  0
  188.3960  178.3570  140.5380 C   0  0  1  0  0  3  0  0  0  0  0  0
  188.8120  177.9060  135.7200 C   0  0  0  0  0  3  0  0  0  0  0  0
  188.6630  178.2510  138.1830 C   0  0  1  0  0  3  0  0  0  0  0  0
  187.7170  177.9910  142.8100 O   0  0  0  0  0  0  0  0  0  0  0  0
  187.5670  176.8480  143.5980 C   0  0  0  0  0  2  0  0  0  0  0  0
  186.3800  178.6300  147.0170 S   0  0  0  0  0  0  0  0  0  0  0  0
  185.6840  178.2530  144.4300 C   0  0  0  0  0  2  0  0  0  0  0  0
  186.6530  177.1470  144.7730 C   0  0  2  0  0  3  0  0  0  0  0  0
  185.0880  178.7200  145.7380 C   0  0  0  0  0  2  0  0  0  0  0  0
  187.4680  177.6350  145.9480 C   0  0  0  0  0  2  0  0  0  0  0  0
  1 18  1  0  0  0  0
  1 27  1  0  0  0  0
  2 14  1  0  0  0  0
  3  7  2  0  0  0  0
  3 19  1  0  0  0  0
  4 15  1  0  0  0  0
  4 18  2  0  0  0  0
  5 19  1  0  0  0  0
  5 11  1  1  0  0  0
  8 16  1  0  0  0  0
  8 12  1  0  0  0  0
  9 13  1  0  0  0  0
  9 25  1  0  0  0  0
 12 15  1  0  0  0  0
 13 24  1  0  0  0  0
 14 25  1  0  0  0  0
 15  5  1  0  0  0  0
 16  3  1  0  0  0  0
 17 10  1  0  0  0  0
 17 28  1  0  0  0  0
 18 20  1  0  0  0  0
 19  6  1  0  0  0  0
 20 11  1  0  0  0  0
 20 13  1  0  0  0  0
 21 23  2  0  0  0  0
 21 26  1  0  0  0  0
 22 10  1  0  0  0  0
 23  4  1  0  0  0  0
 24 22  1  0  0  0  0
 25 17  1  0  0  0  0
 26  1  2  0  0  0  0
 27  2  1  0  0  0  0
 27  9  1  0  0  0  0
 28 29  1  0  0  0  0
 29 32  1  0  0  0  0
 31 32  1  0  0  0  0
 31 33  1  0  0  0  0
 32 34  1  0  0  0  0
 33 30  1  0  0  0  0
 34 30  1  0  0  0  0
M  END
>  <MODEL>
6

>  <REMARK>
 VINA RESULT:      -8.0      4.272      8.756
  Name = 
  3 active torsions:
  status: ('A' for Active; 'I' for Inactive)
    1  A    between atoms: C_17  and  O_28
    2  A    between atoms: O_28  and  C_29
    3  A    between atoms: C_29  and  C_32
                            x       y       z     vdW  Elec       q    Type
                         _______ _______ _______ _____ _____    ______ ____

>  <TORSDO>
F 3

$$$$
=
 OpenBabel11122412253D

 34 40  0  0  1  0  0  0  0  0999 V2000
  187.5600  178.3250  140.0440 C   0  0  0  0  0  0  0  0  0  0  0  0
  185.3300  177.6340  139.1400 C   0  0  0  0  0  2  0  0  0  0  0  0
  190.8340  176.8620  145.5930 C   0  0  0  0  0  0  0  0  0  0  0  0
  189.3700  177.6480  141.5000 C   0  0  0  0  0  0  0  0  0  0  0  0
  188.9760  177.6650  144.0220 C   0  0  2  0  0  3  0  0  0  0  0  0
  188.6880  177.5480  146.4030 O   0  0  0  0  0  1  0  0  0  0  0  0
  191.3300  177.4520  146.5880 O   0  0  0  0  0  0  0  0  0  0  0  0
  191.6030  175.9830  143.3840 C   0  0  0  0  0  2  0  0  0  0  0  0
  185.3390  179.0870  141.0340 C   0  0  2  0  0  3  0  0  0  0  0  0
  182.9180  179.0760  142.9130 C   0  0  0  0  0  2  0  0  0  0  0  0
  187.5330  177.3060  143.6760 C   0  0  0  0  0  2  0  0  0  0  0  0
  190.2830  175.9480  142.9190 O   0  0  0  0  0  0  0  0  0  0  0  0
  185.6870  178.2800  142.3050 C   0  0  1  0  0  3  0  0  0  0  0  0
  183.9280  177.9300  139.4100 N   0  0  0  0  0  2  0  0  0  0  0  0
  189.9140  177.2960  142.8570 C   0  0  1  0  0  3  0  0  0  0  0  0
  191.6590  176.0440  144.8100 O   0  0  0  0  0  0  0  0  0  0  0  0
  182.8800  178.3130  141.5960 C   0  0  2  0  0  3  0  0  0  0  0  0
  188.0110  177.9680  141.3220 C   0  0  0  0  0  0  0  0  0  0  0  0
  189.3510  176.9520  145.3270 C   0  0  2  0  0  3  0  0  0  0  0  0
  187.1130  177.9690  142.4440 N   0  0  0  0  0  0  0  0  0  0  0  0
  189.7890  177.9830  139.1850 C   0  0  0  0  0  3  0  0  0  0  0  0
  184.0220  178.5030  143.7920 C   0  0  0  0  0  2  0  0  0  0  0  0
  190.2150  177.6590  140.4340 N   0  0  0  0  0  0  0  0  0  0  0  0
  185.2650  179.0240  143.4170 O   0  0  0  0  0  0  0  0  0  0  0  0
  183.8930  178.8350  140.5610 C   0  0  1  0  0  3  0  0  0  0  0  0
  188.4530  178.3260  138.9700 C   0  0  0  0  0  3  0  0  0  0  0  0
  186.1380  178.7150  139.8050 C   0  0  1  0  0  3  0  0  0  0  0  0
  181.5910  178.3800  141.0630 O   0  0  0  0  0  0  0  0  0  0  0  0
  181.2810  179.7410  141.0430 C   0  0  0  0  0  2  0  0  0  0  0  0
  180.6900  180.7290  137.1770 S   0  0  0  0  0  0  0  0  0  0  0  0
  180.1620  178.8170  139.0170 C   0  0  0  0  0  2  0  0  0  0  0  0
  180.4870  180.0720  139.7910 C   0  0  2  0  0  3  0  0  0  0  0  0
  179.7120  179.2660  137.6460 C   0  0  0  0  0  2  0  0  0  0  0  0
  181.3120  180.9440  138.8740 C   0  0  0  0  0  2  0  0  0  0  0  0
  1 18  1  0  0  0  0
  2 14  1  0  0  0  0
  2 27  1  0  0  0  0
  3  7  2  0  0  0  0
  4 15  1  0  0  0  0
  5 11  1  6  0  0  0
  5 19  1  0  0  0  0
  8 16  1  0  0  0  0
  9 13  1  0  0  0  0
 10 22  1  0  0  0  0
 12  8  1  0  0  0  0
 13 20  1  0  0  0  0
 13 24  1  0  0  0  0
 14 25  1  0  0  0  0
 15 12  1  0  0  0  0
 15  5  1  0  0  0  0
 16  3  1  0  0  0  0
 17 10  1  0  0  0  0
 18  4  2  0  0  0  0
 18 20  1  0  0  0  0
 19  3  1  0  0  0  0
 19  6  1  0  0  0  0
 20 11  1  0  0  0  0
 21 23  2  0  0  0  0
 23  4  1  0  0  0  0
 24 22  1  0  0  0  0
 25  9  1  0  0  0  0
 25 17  1  0  0  0  0
 26 21  1  0  0  0  0
 26  1  2  0  0  0  0
 27  1  1  0  0  0  0
 27  9  1  0  0  0  0
 28 17  1  0  0  0  0
 29 28  1  0  0  0  0
 30 33  1  0  0  0  0
 30 34  1  0  0  0  0
 31 32  1  0  0  0  0
 32 29  1  0  0  0  0
 33 31  1  0  0  0  0
 34 32  1  0  0  0  0
M  END
>  <MODEL>
7

>  <REMARK>
 VINA RESULT:      -7.9      3.351      5.314
  Name = 
  3 active torsions:
  status: ('A' for Active; 'I' for Inactive)
    1  A    between atoms: C_17  and  O_28
    2  A    between atoms: O_28  and  C_29
    3  A    between atoms: C_29  and  C_32
                            x       y       z     vdW  Elec       q    Type
                         _______ _______ _______ _____ _____    ______ ____

>  <TORSDO>
F 3

$$$$
=
 OpenBabel11122412253D

 34 40  0  0  1  0  0  0  0  0999 V2000
  190.0680  177.7360  141.0870 C   0  0  0  0  0  0  0  0  0  0  0  0
  189.2390  176.6970  138.9640 C   0  0  0  0  0  2  0  0  0  0  0  0
  187.6470  178.0090  147.2270 C   0  0  0  0  0  0  0  0  0  0  0  0
  189.9780  177.5820  143.5000 C   0  0  0  0  0  0  0  0  0  0  0  0
  187.8170  178.2510  144.6820 C   0  0  2  0  0  3  0  0  0  0  0  0
  185.8070  178.7590  145.8930 O   0  0  0  0  0  1  0  0  0  0  0  0
  187.3030  178.8730  148.0770 O   0  0  0  0  0  0  0  0  0  0  0  0
  189.6560  176.6190  146.7040 C   0  0  0  0  0  2  0  0  0  0  0  0
  188.0560  178.6020  139.7830 C   0  0  2  0  0  3  0  0  0  0  0  0
  185.1100  178.9510  139.0160 C   0  0  0  0  0  2  0  0  0  0  0  0
  187.1140  177.7270  143.4320 C   0  0  0  0  0  2  0  0  0  0  0  0
  189.1770  176.3820  145.4110 O   0  0  0  0  0  0  0  0  0  0  0  0
  187.1680  178.1870  140.9790 C   0  0  1  0  0  3  0  0  0  0  0  0
  188.2070  176.9710  137.9720 N   0  0  0  0  0  2  0  0  0  0  0  0
  189.2260  177.6400  144.8000 C   0  0  1  0  0  3  0  0  0  0  0  0
  188.6170  177.0620  147.5800 O   0  0  0  0  0  0  0  0  0  0  0  0
  185.9550  177.8620  138.3700 C   0  0  2  0  0  3  0  0  0  0  0  0
  189.3180  177.7620  142.2690 C   0  0  0  0  0  0  0  0  0  0  0  0
  186.9360  177.9370  145.8980 C   0  0  2  0  0  3  0  0  0  0  0  0
  187.9020  178.0100  142.2350 N   0  0  0  0  0  0  0  0  0  0  0  0
  192.0580  177.3100  142.3830 C   0  0  0  0  0  3  0  0  0  0  0  0
  185.0340  178.7000  140.5170 C   0  0  0  0  0  2  0  0  0  0  0  0
  191.3190  177.3570  143.5220 N   0  0  0  0  0  0  0  0  0  0  0  0
  186.1870  179.1750  141.1500 O   0  0  0  0  0  0  0  0  0  0  0  0
  187.4670  178.1480  138.4330 C   0  0  1  0  0  3  0  0  0  0  0  0
  191.4440  177.5030  141.1450 C   0  0  0  0  0  3  0  0  0  0  0  0
  189.4270  177.9630  139.7560 C   0  0  1  0  0  3  0  0  0  0  0  0
  185.5650  177.7070  137.0380 O   0  0  0  0  0  0  0  0  0  0  0  0
  184.5990  176.6980  137.0620 C   0  0  0  0  0  2  0  0  0  0  0  0
  187.1030  174.5470  134.7450 S   0  0  0  0  0  0  0  0  0  0  0  0
  185.7170  174.4710  137.0670 C   0  0  0  0  0  2  0  0  0  0  0  0
  185.0550  175.5260  136.2120 C   0  0  2  0  0  3  0  0  0  0  0  0
  186.4460  173.5480  136.1180 C   0  0  0  0  0  2  0  0  0  0  0  0
  186.0910  175.9860  135.2140 C   0  0  0  0  0  2  0  0  0  0  0  0
  1 26  2  0  0  0  0
  1 18  1  0  0  0  0
  2 27  1  0  0  0  0
  3 16  1  0  0  0  0
  3  7  2  0  0  0  0
  4 23  1  0  0  0  0
  4 15  1  0  0  0  0
  5 11  1  6  0  0  0
  5 15  1  0  0  0  0
  5 19  1  0  0  0  0
  6 19  1  0  0  0  0
  8 16  1  0  0  0  0
  9 13  1  0  0  0  0
 10 22  1  0  0  0  0
 12  8  1  0  0  0  0
 13 24  1  0  0  0  0
 13 20  1  0  0  0  0
 14 25  1  0  0  0  0
 14  2  1  0  0  0  0
 15 12  1  0  0  0  0
 17 25  1  0  0  0  0
 17 10  1  0  0  0  0
 18  4  2  0  0  0  0
 19  3  1  0  0  0  0
 20 18  1  0  0  0  0
 20 11  1  0  0  0  0
 21 23  2  0  0  0  0
 22 24  1  0  0  0  0
 25  9  1  0  0  0  0
 26 21  1  0  0  0  0
 27  9  1  0  0  0  0
 27  1  1  0  0  0  0
 28 29  1  0  0  0  0
 28 17  1  0  0  0  0
 30 34  1  0  0  0  0
 30 33  1  0  0  0  0
 32 29  1  0  0  0  0
 32 31  1  0  0  0  0
 33 31  1  0  0  0  0
 34 32  1  0  0  0  0
M  END
>  <MODEL>
8

>  <REMARK>
 VINA RESULT:      -7.9      1.259      1.468
  Name = 
  3 active torsions:
  status: ('A' for Active; 'I' for Inactive)
    1  A    between atoms: C_17  and  O_28
    2  A    between atoms: O_28  and  C_29
    3  A    between atoms: C_29  and  C_32
                            x       y       z     vdW  Elec       q    Type
                         _______ _______ _______ _____ _____    ______ ____

>  <TORSDO>
F 3

$$$$
=
 OpenBabel11122412253D

 34 40  0  0  1  0  0  0  0  0999 V2000
  185.9240  178.1380  145.2980 C   0  0  0  0  0  0  0  0  0  0  0  0
  185.0110  179.7290  143.5930 C   0  0  0  0  0  2  0  0  0  0  0  0
  192.0560  176.3130  146.9450 C   0  0  0  0  0  0  0  0  0  0  0  0
  187.8540  177.6470  146.6720 C   0  0  0  0  0  0  0  0  0  0  0  0
  189.9590  176.7530  145.5400 C   0  0  2  0  0  3  0  0  0  0  0  0
  192.0240  176.0010  144.5720 O   0  0  0  0  0  1  0  0  0  0  0  0
  192.7500  175.2660  147.0120 O   0  0  0  0  0  0  0  0  0  0  0  0
  190.6870  177.7320  148.4800 C   0  0  0  0  0  2  0  0  0  0  0  0
  185.9980  177.7110  142.7870 C   0  0  2  0  0  3  0  0  0  0  0  0
  187.1580  177.6670  139.9500 C   0  0  0  0  0  2  0  0  0  0  0  0
  189.5360  177.6110  144.3490 C   0  0  0  0  0  2  0  0  0  0  0  0
  190.0380  178.3190  147.3870 O   0  0  0  0  0  0  0  0  0  0  0  0
  187.5380  177.8180  142.8660 C   0  0  1  0  0  3  0  0  0  0  0  0
  184.8340  179.7600  142.1460 N   0  0  0  0  0  2  0  0  0  0  0  0
  189.3000  177.2680  146.8330 C   0  0  1  0  0  3  0  0  0  0  0  0
  191.9100  177.1030  148.0930 O   0  0  0  0  0  0  0  0  0  0  0  0
  186.3530  178.8620  140.4400 C   0  0  2  0  0  3  0  0  0  0  0  0
  187.2840  177.8210  145.3960 C   0  0  0  0  0  0  0  0  0  0  0  0
  191.4900  176.7580  145.6180 C   0  0  2  0  0  3  0  0  0  0  0  0
  188.0820  177.6330  144.2150 N   0  0  0  0  0  0  0  0  0  0  0  0
  185.7720  178.1450  147.7060 C   0  0  0  0  0  3  0  0  0  0  0  0
  188.4000  177.5110  140.8180 C   0  0  0  0  0  2  0  0  0  0  0  0
  187.0890  177.8180  147.7840 N   0  0  0  0  0  0  0  0  0  0  0  0
  188.0830  176.8500  142.0100 O   0  0  0  0  0  0  0  0  0  0  0  0
  185.4160  178.5250  141.6140 C   0  0  1  0  0  3  0  0  0  0  0  0
  185.1660  178.3070  146.4600 C   0  0  0  0  0  3  0  0  0  0  0  0
  185.2580  178.2930  143.9700 C   0  0  1  0  0  3  0  0  0  0  0  0
  185.6040  179.3780  139.3790 O   0  0  0  0  0  0  0  0  0  0  0  0
  185.2250  178.2610  138.6310 C   0  0  0  0  0  2  0  0  0  0  0  0
  181.3170  177.6370  139.4070 S   0  0  0  0  0  0  0  0  0  0  0  0
  183.1270  179.5800  138.8880 C   0  0  0  0  0  2  0  0  0  0  0  0
  183.7290  178.2920  138.3770 C   0  0  2  0  0  3  0  0  0  0  0  0
  181.6310  179.3650  138.9280 C   0  0  0  0  0  2  0  0  0  0  0  0
  183.0550  177.1710  139.1330 C   0  0  0  0  0  2  0  0  0  0  0  0
  1 18  2  0  0  0  0
  1 26  1  0  0  0  0
  2 27  1  0  0  0  0
  3  7  2  0  0  0  0
  3 16  1  0  0  0  0
  4 15  1  0  0  0  0
  4 23  2  0  0  0  0
  5 11  1  6  0  0  0
  5 19  1  0  0  0  0
  5 15  1  0  0  0  0
  6 19  1  0  0  0  0
  9 13  1  0  0  0  0
  9 27  1  0  0  0  0
 10 17  1  0  0  0  0
 10 22  1  0  0  0  0
 12  8  1  0  0  0  0
 13 20  1  0  0  0  0
 14  2  1  0  0  0  0
 15 12  1  0  0  0  0
 16  8  1  0  0  0  0
 17 25  1  0  0  0  0
 18  4  1  0  0  0  0
 19  3  1  0  0  0  0
 20 11  1  0  0  0  0
 20 18  1  0  0  0  0
 21 23  1  0  0  0  0
 22 24  1  0  0  0  0
 24 13  1  0  0  0  0
 25 14  1  0  0  0  0
 25  9  1  0  0  0  0
 26 21  2  0  0  0  0
 27  1  1  0  0  0  0
 28 17  1  0  0  0  0
 29 28  1  0  0  0  0
 31 33  1  0  0  0  0
 32 29  1  0  0  0  0
 32 31  1  0  0  0  0
 32 34  1  0  0  0  0
 33 30  1  0  0  0  0
 34 30  1  0  0  0  0
M  END
>  <MODEL>
9

>  <REMARK>
 VINA RESULT:      -7.9      3.125      5.262
  Name = 
  3 active torsions:
  status: ('A' for Active; 'I' for Inactive)
    1  A    between atoms: C_17  and  O_28
    2  A    between atoms: O_28  and  C_29
    3  A    between atoms: C_29  and  C_32
                            x       y       z     vdW  Elec       q    Type
                         _______ _______ _______ _____ _____    ______ ____

>  <TORSDO>
F 3

$$$$
