=
 OpenBabel11122410273D

 30 36  0  0  1  0  0  0  0  0999 V2000
  188.2220  178.0840  141.2900 C   0  0  0  0  0  0  0  0  0  0  0  0
  189.2850  178.1860  143.5460 C   0  0  0  0  0  0  0  0  0  0  0  0
  191.5590  176.3920  139.3000 C   0  0  0  0  0  2  0  0  0  0  0  0
  188.2170  177.7200  139.8410 C   0  0  0  0  0  0  0  0  0  0  0  0
  187.0450  178.5750  141.8640 O   0  0  0  0  0  0  0  0  0  0  0  0
  184.7060  178.3950  139.1910 O   0  0  0  0  0  0  0  0  0  0  0  0
  187.9810  178.3060  136.8380 C   0  0  1  0  0  3  0  0  0  0  0  0
  185.8310  178.4210  139.7630 C   0  0  0  0  0  0  0  0  0  0  0  0
  189.3390  177.7190  136.9040 N   0  0  2  0  0  0  0  0  0  0  0  0
  190.9510  176.1230  137.9190 C   0  0  1  0  0  3  0  0  0  0  0  0
  185.9790  179.1210  141.0920 C   0  0  1  0  0  3  0  0  0  0  0  0
  186.9900  177.8910  139.0940 N   0  0  0  0  0  0  0  0  0  0  0  0
  190.6280  178.2120  144.1410 N   0  0  0  0  0  0  0  0  0  0  0  0
  189.5710  177.1480  135.5810 C   0  0  0  0  0  2  0  0  0  0  0  0
  187.5660  178.4080  135.3820 C   0  0  0  0  0  2  0  0  0  0  0  0
  188.3120  176.9430  144.3730 Cl  0  0  0  0  0  0  0  0  0  0  0  0
  190.5080  177.0250  140.0660 N   0  0  0  0  0  0  0  0  0  0  0  0
  191.7100  177.8110  143.5410 C   0  0  0  0  0  3  0  0  0  0  0  0
  189.3160  177.9130  142.0590 C   0  0  0  0  0  0  0  0  0  0  0  0
  189.3390  177.2020  139.2950 C   0  0  0  0  0  0  0  0  0  0  0  0
  190.9360  174.6310  137.6560 C   0  0  0  0  0  1  0  0  0  0  0  0
  189.5040  176.6640  137.9170 C   0  0  1  0  0  3  0  0  0  0  0  0
  188.7670  177.9590  134.5960 C   0  0  0  0  0  2  0  0  0  0  0  0
  186.6620  176.1330  137.3700 C   0  0  0  0  0  1  0  0  0  0  0  0
  191.6850  177.3430  142.1470 C   0  0  0  0  0  3  0  0  0  0  0  0
  190.5540  177.3970  141.4440 C   0  0  2  0  0  3  0  0  0  0  0  0
  186.8750  177.6140  137.6600 C   0  0  2  0  0  3  0  0  0  0  0  0
  184.6940  179.0780  141.9080 C   0  0  0  0  0  3  0  0  0  0  0  0
  184.8330  178.0530  143.0170 C   0  0  0  0  0  2  0  0  0  0  0  0
  184.9850  179.5270  143.3270 C   0  0  0  0  0  2  0  0  0  0  0  0
  1  5  1  0  0  0  0
  1 19  2  0  0  0  0
  2 13  2  0  0  0  0
  2 16  1  0  0  0  0
  3 17  1  0  0  0  0
  4  1  1  0  0  0  0
  6  8  2  0  0  0  0
  7 15  1  6  0  0  0
  7  9  1  0  0  0  0
  7 27  1  0  0  0  0
  8 11  1  0  0  0  0
  9 14  1  6  0  0  0
  9 22  1  0  0  0  0
 10 21  1  1  0  0  0
 10  3  1  0  0  0  0
 11  5  1  0  0  0  0
 11 28  1  1  0  0  0
 12  8  1  0  0  0  0
 12  4  1  0  0  0  0
 17 26  1  0  0  0  0
 18 13  1  0  0  0  0
 19  2  1  0  0  0  0
 20  4  2  0  0  0  0
 20 17  1  0  0  0  0
 22 10  1  0  0  0  0
 22 20  1  1  0  0  0
 23 15  1  0  0  0  0
 23 14  1  0  0  0  0
 25 18  2  0  0  0  0
 26 19  1  0  0  0  0
 26 25  1  6  0  0  0
 27 24  1  1  0  0  0
 27 12  1  0  0  0  0
 28 29  1  0  0  0  0
 28 30  1  0  0  0  0
 29 30  1  0  0  0  0
M  END
>  <MODEL>
1

>  <REMARK>
 VINA RESULT:      -8.2      0.000      0.000
  Name = 
  1 active torsions:
  status: ('A' for Active; 'I' for Inactive)
    1  A    between atoms: C_11  and  C_28
                            x       y       z     vdW  Elec       q    Type
                         _______ _______ _______ _____ _____    ______ ____

>  <TORSDO>
F 1

$$$$
=
 OpenBabel11122410273D

 30 36  0  0  1  0  0  0  0  0999 V2000
  189.1410  177.4610  143.6260 C   0  0  0  0  0  0  0  0  0  0  0  0
  191.3050  176.5950  144.5200 C   0  0  2  0  0  3  0  0  0  0  0  0
  187.3490  178.1640  147.4020 C   0  0  0  0  0  2  0  0  0  0  0  0
  187.7770  178.0470  143.7920 C   0  0  0  0  0  0  0  0  0  0  0  0
  189.6640  177.3310  142.3370 O   0  0  0  0  0  0  0  0  0  0  0  0
  187.1510  178.7970  140.2930 O   0  0  0  0  0  0  0  0  0  0  0  0
  184.7280  178.1150  143.4450 C   0  0  1  0  0  3  0  0  0  0  0  0
  187.6680  178.2710  141.3170 C   0  0  0  0  0  0  0  0  0  0  0  0
  184.8440  178.1560  144.9210 N   0  0  2  0  0  0  0  0  0  0  0  0
  186.0580  178.8680  146.9690 C   0  0  1  0  0  3  0  0  0  0  0  0
  188.8510  177.3460  141.1670 C   0  0  1  0  0  3  0  0  0  0  0  0
  187.0570  178.4590  142.6070 N   0  0  0  0  0  0  0  0  0  0  0  0
  191.8360  175.9880  145.7470 N   0  0  0  0  0  0  0  0  0  0  0  0
  183.6300  178.8260  145.3780 C   0  0  0  0  0  2  0  0  0  0  0  0
  183.2930  178.4230  143.0610 C   0  0  0  0  0  2  0  0  0  0  0  0
  192.3680  177.9400  144.0350 Cl  0  0  0  0  0  0  0  0  0  0  0  0
  188.0330  177.8270  146.1740 N   0  0  0  0  0  0  0  0  0  0  0  0
  191.2740  176.0730  146.9170 C   0  0  0  0  0  3  0  0  0  0  0  0
  189.8860  177.0930  144.6880 C   0  0  0  0  0  0  0  0  0  0  0  0
  187.2870  178.2160  145.0400 C   0  0  0  0  0  0  0  0  0  0  0  0
  186.0550  180.2880  147.4970 C   0  0  0  0  0  1  0  0  0  0  0  0
  186.0160  178.8900  145.4250 C   0  0  1  0  0  3  0  0  0  0  0  0
  182.5520  178.5410  144.3640 C   0  0  0  0  0  2  0  0  0  0  0  0
  185.6740  180.4880  142.9790 C   0  0  0  0  0  1  0  0  0  0  0  0
  189.9840  176.7520  147.1000 C   0  0  0  0  0  3  0  0  0  0  0  0
  189.3240  177.2300  146.0450 C   0  0  0  0  0  0  0  0  0  0  0  0
  185.6980  179.0030  142.6390 C   0  0  2  0  0  3  0  0  0  0  0  0
  189.7090  177.7040  139.9610 C   0  0  0  0  0  3  0  0  0  0  0  0
  190.5560  176.5090  139.5700 C   0  0  0  0  0  2  0  0  0  0  0  0
  189.3050  176.8390  138.7840 C   0  0  0  0  0  2  0  0  0  0  0  0
  1  4  1  0  0  0  0
  1 19  2  0  0  0  0
  2 16  1  1  0  0  0
  2 19  1  0  0  0  0
  2 13  1  0  0  0  0
  4 20  2  0  0  0  0
  5  1  1  0  0  0  0
  6  8  2  0  0  0  0
  7 15  1  1  0  0  0
  7  9  1  0  0  0  0
  8 12  1  0  0  0  0
  9 14  1  1  0  0  0
  9 22  1  0  0  0  0
 10  3  1  0  0  0  0
 10 21  1  6  0  0  0
 11 28  1  6  0  0  0
 11  8  1  0  0  0  0
 11  5  1  0  0  0  0
 12 27  1  0  0  0  0
 12  4  1  0  0  0  0
 13 18  2  0  0  0  0
 15 23  1  0  0  0  0
 17  3  1  0  0  0  0
 18 25  1  0  0  0  0
 19 26  1  0  0  0  0
 20 17  1  0  0  0  0
 22 20  1  6  0  0  0
 22 10  1  0  0  0  0
 23 14  1  0  0  0  0
 26 17  1  0  0  0  0
 26 25  2  0  0  0  0
 27 24  1  1  0  0  0
 27  7  1  0  0  0  0
 29 28  1  0  0  0  0
 30 29  1  0  0  0  0
 30 28  1  0  0  0  0
M  END
>  <MODEL>
2

>  <REMARK>
 VINA RESULT:      -7.9      2.759      6.764
  Name = 
  1 active torsions:
  status: ('A' for Active; 'I' for Inactive)
    1  A    between atoms: C_11  and  C_28
                            x       y       z     vdW  Elec       q    Type
                         _______ _______ _______ _____ _____    ______ ____

>  <TORSDO>
F 1

$$$$
=
 OpenBabel11122410273D

 30 36  0  0  1  0  0  0  0  0999 V2000
  185.7070  178.4850  141.8940 C   0  0  0  0  0  0  0  0  0  0  0  0
  188.1580  178.0940  142.1630 C   0  0  0  0  0  0  0  0  0  0  0  0
  185.6330  177.9690  137.6880 C   0  0  0  0  0  2  0  0  0  0  0  0
  184.4570  178.5580  141.0790 C   0  0  0  0  0  0  0  0  0  0  0  0
  185.6120  178.6050  143.2830 O   0  0  0  0  0  0  0  0  0  0  0  0
  182.1070  178.8470  143.8350 O   0  0  0  0  0  0  0  0  0  0  0  0
  181.9590  179.9410  139.9550 C   0  0  1  0  0  3  0  0  0  0  0  0
  183.1980  178.8790  143.2000 C   0  0  0  0  0  0  0  0  0  0  0  0
  182.6640  179.5740  138.7050 N   0  0  2  0  0  0  0  0  0  0  0  0
  184.1230  178.0200  137.4290 C   0  0  1  0  0  3  0  0  0  0  0  0
  184.4820  179.1800  143.9330 C   0  0  1  0  0  3  0  0  0  0  0  0
  183.1990  178.7470  141.7660 N   0  0  0  0  0  0  0  0  0  0  0  0
  189.3870  178.1530  141.3600 N   0  0  0  0  0  0  0  0  0  0  0  0
  181.6130  179.4520  137.6990 C   0  0  0  0  0  2  0  0  0  0  0  0
  180.5530  180.3930  139.6060 C   0  0  0  0  0  2  0  0  0  0  0  0
  188.1020  176.5320  143.0190 Cl  0  0  0  0  0  0  0  0  0  0  0  0
  185.7860  178.1860  139.1090 N   0  0  0  0  0  0  0  0  0  0  0  0
  189.4230  178.1110  140.0600 C   0  0  0  0  0  3  0  0  0  0  0  0
  186.9100  178.2690  141.3250 C   0  0  0  0  0  0  0  0  0  0  0  0
  184.5410  178.3970  139.7400 C   0  0  0  0  0  0  0  0  0  0  0  0
  183.6570  176.6830  136.8890 C   0  0  0  0  0  1  0  0  0  0  0  0
  183.4140  178.3110  138.7710 C   0  0  1  0  0  3  0  0  0  0  0  0
  180.4950  180.3790  138.1030 C   0  0  0  0  0  2  0  0  0  0  0  0
  181.3210  177.5320  140.6860 C   0  0  0  0  0  1  0  0  0  0  0  0
  188.1910  178.0670  139.2610 C   0  0  0  0  0  3  0  0  0  0  0  0
  187.0030  178.1480  139.8580 C   0  0  2  0  0  3  0  0  0  0  0  0
  181.9150  178.8810  141.0740 C   0  0  2  0  0  3  0  0  0  0  0  0
  184.4390  178.7070  145.3810 C   0  0  0  0  0  3  0  0  0  0  0  0
  185.6740  177.8790  145.6790 C   0  0  0  0  0  2  0  0  0  0  0  0
  185.5990  179.3180  146.1420 C   0  0  0  0  0  2  0  0  0  0  0  0
  1  5  1  0  0  0  0
  2 16  1  0  0  0  0
  3 17  1  0  0  0  0
  4 12  1  0  0  0  0
  4  1  1  0  0  0  0
  5 11  1  0  0  0  0
  7 15  1  6  0  0  0
  7 27  1  0  0  0  0
  8  6  2  0  0  0  0
  8 11  1  0  0  0  0
  9 14  1  6  0  0  0
  9 22  1  0  0  0  0
  9  7  1  0  0  0  0
 10 21  1  1  0  0  0
 10  3  1  0  0  0  0
 10 22  1  0  0  0  0
 11 28  1  1  0  0  0
 12  8  1  0  0  0  0
 13  2  2  0  0  0  0
 14 23  1  0  0  0  0
 17 20  1  0  0  0  0
 17 26  1  0  0  0  0
 18 13  1  0  0  0  0
 19  1  2  0  0  0  0
 19  2  1  0  0  0  0
 20  4  2  0  0  0  0
 22 20  1  1  0  0  0
 23 15  1  0  0  0  0
 25 18  2  0  0  0  0
 26 25  1  6  0  0  0
 26 19  1  0  0  0  0
 27 24  1  6  0  0  0
 27 12  1  0  0  0  0
 28 29  1  0  0  0  0
 28 30  1  0  0  0  0
 29 30  1  0  0  0  0
M  END
>  <MODEL>
3

>  <REMARK>
 VINA RESULT:      -7.8      2.955      5.351
  Name = 
  1 active torsions:
  status: ('A' for Active; 'I' for Inactive)
    1  A    between atoms: C_11  and  C_28
                            x       y       z     vdW  Elec       q    Type
                         _______ _______ _______ _____ _____    ______ ____

>  <TORSDO>
F 1

$$$$
=
 OpenBabel11122410273D

 30 36  0  0  1  0  0  0  0  0999 V2000
  187.7460  177.9920  139.5920 C   0  0  0  0  0  0  0  0  0  0  0  0
  185.7070  178.5480  138.2640 C   0  0  2  0  0  3  0  0  0  0  0  0
  185.9340  178.4370  143.3970 C   0  0  0  0  0  2  0  0  0  0  0  0
  188.4650  177.7460  140.8780 C   0  0  0  0  0  0  0  0  0  0  0  0
  188.4180  177.7520  138.3900 O   0  0  0  0  0  0  0  0  0  0  0  0
  191.5550  176.4660  139.4600 O   0  0  0  0  0  0  0  0  0  0  0  0
  190.6570  178.2470  142.9670 C   0  0  1  0  0  3  0  0  0  0  0  0
  190.4470  177.0650  139.5380 C   0  0  0  0  0  0  0  0  0  0  0  0
  189.4390  178.4750  143.7770 N   0  0  2  0  0  0  0  0  0  0  0  0
  187.0680  177.9460  144.3030 C   0  0  1  0  0  3  0  0  0  0  0  0
  189.8380  177.6750  138.3000 C   0  0  1  0  0  3  0  0  0  0  0  0
  189.8280  177.2670  140.8230 N   0  0  0  0  0  0  0  0  0  0  0  0
  184.4330  179.2620  138.4290 N   0  0  0  0  0  0  0  0  0  0  0  0
  189.8350  178.1760  145.1510 C   0  0  0  0  0  2  0  0  0  0  0  0
  191.8540  178.1740  143.8970 C   0  0  0  0  0  2  0  0  0  0  0  0
  185.3800  176.9420  137.5630 Cl  0  0  0  0  0  0  0  0  0  0  0  0
  186.4620  178.3750  142.0530 N   0  0  0  0  0  0  0  0  0  0  0  0
  183.8790  179.5280  139.5760 C   0  0  0  0  0  3  0  0  0  0  0  0
  186.4610  178.3990  139.5670 C   0  0  0  0  0  0  0  0  0  0  0  0
  187.8030  177.9330  142.0410 C   0  0  0  0  0  0  0  0  0  0  0  0
  186.6280  176.6910  145.0280 C   0  0  0  0  0  1  0  0  0  0  0  0
  188.2910  177.6280  143.4150 C   0  0  1  0  0  3  0  0  0  0  0  0
  191.3080  178.4730  145.2660 C   0  0  0  0  0  2  0  0  0  0  0  0
  190.3660  175.6840  142.6600 C   0  0  0  0  0  1  0  0  0  0  0  0
  184.5370  179.1820  140.8440 C   0  0  0  0  0  3  0  0  0  0  0  0
  185.7600  178.6530  140.8400 C   0  0  0  0  0  0  0  0  0  0  0  0
  190.6500  177.0350  142.0130 C   0  0  2  0  0  3  0  0  0  0  0  0
  190.2220  176.9160  137.0380 C   0  0  0  0  0  3  0  0  0  0  0  0
  189.2470  175.7760  136.8160 C   0  0  0  0  0  2  0  0  0  0  0  0
  189.1130  177.0510  136.0130 C   0  0  0  0  0  2  0  0  0  0  0  0
  1  4  1  0  0  0  0
  2 16  1  1  0  0  0
  2 13  1  0  0  0  0
  2 19  1  0  0  0  0
  3 10  1  0  0  0  0
  4 20  2  0  0  0  0
  5  1  1  0  0  0  0
  6  8  2  0  0  0  0
  7  9  1  0  0  0  0
  7 15  1  1  0  0  0
  8 12  1  0  0  0  0
  9 14  1  1  0  0  0
 10 21  1  6  0  0  0
 11 28  1  6  0  0  0
 11  5  1  0  0  0  0
 11  8  1  0  0  0  0
 12  4  1  0  0  0  0
 12 27  1  0  0  0  0
 13 18  2  0  0  0  0
 14 23  1  0  0  0  0
 15 23  1  0  0  0  0
 17  3  1  0  0  0  0
 18 25  1  0  0  0  0
 19  1  2  0  0  0  0
 19 26  1  0  0  0  0
 20 17  1  0  0  0  0
 22 20  1  6  0  0  0
 22  9  1  0  0  0  0
 22 10  1  0  0  0  0
 26 25  2  0  0  0  0
 26 17  1  0  0  0  0
 27 24  1  1  0  0  0
 27  7  1  0  0  0  0
 29 28  1  0  0  0  0
 30 29  1  0  0  0  0
 30 28  1  0  0  0  0
M  END
>  <MODEL>
4

>  <REMARK>
 VINA RESULT:      -7.8      2.373      6.826
  Name = 
  1 active torsions:
  status: ('A' for Active; 'I' for Inactive)
    1  A    between atoms: C_11  and  C_28
                            x       y       z     vdW  Elec       q    Type
                         _______ _______ _______ _____ _____    ______ ____

>  <TORSDO>
F 1

$$$$
=
 OpenBabel11122410273D

 30 36  0  0  1  0  0  0  0  0999 V2000
  187.8890  177.8320  141.9590 C   0  0  0  0  0  0  0  0  0  0  0  0
  189.5980  177.5170  143.7510 C   0  0  2  0  0  3  0  0  0  0  0  0
  184.5860  178.3040  144.5730 C   0  0  0  0  0  2  0  0  0  0  0  0
  186.4980  178.1070  141.4860 C   0  0  0  0  0  0  0  0  0  0  0  0
  188.9170  177.7590  141.0160 O   0  0  0  0  0  0  0  0  0  0  0  0
  187.2690  178.5220  137.9600 O   0  0  0  0  0  0  0  0  0  0  0  0
  183.9190  177.4740  139.9480 C   0  0  1  0  0  3  0  0  0  0  0  0
  187.3960  178.1770  139.1670 C   0  0  0  0  0  0  0  0  0  0  0  0
  183.3970  177.6130  141.3270 N   0  0  2  0  0  0  0  0  0  0  0  0
  183.4900  178.6790  143.5700 C   0  0  1  0  0  3  0  0  0  0  0  0
  188.6800  177.5340  139.6290 C   0  0  1  0  0  3  0  0  0  0  0  0
  186.2790  178.2880  140.0680 N   0  0  0  0  0  0  0  0  0  0  0  0
  189.6690  177.1060  145.1590 N   0  0  0  0  0  0  0  0  0  0  0  0
  182.0030  178.0170  141.1660 C   0  0  0  0  0  2  0  0  0  0  0  0
  182.7460  177.4330  138.9860 C   0  0  0  0  0  2  0  0  0  0  0  0
  190.5010  179.0410  143.5490 Cl  0  0  0  0  0  0  0  0  0  0  0  0
  185.7700  178.0670  143.7780 N   0  0  0  0  0  0  0  0  0  0  0  0
  188.6640  177.1210  145.9850 C   0  0  0  0  0  3  0  0  0  0  0  0
  188.1750  177.6930  143.2690 C   0  0  0  0  0  0  0  0  0  0  0  0
  185.5090  178.2240  142.3990 C   0  0  0  0  0  0  0  0  0  0  0  0
  183.0070  180.0870  143.8520 C   0  0  0  0  0  1  0  0  0  0  0  0
  184.0950  178.6140  142.1500 C   0  0  1  0  0  3  0  0  0  0  0  0
  181.5200  177.4480  139.8570 C   0  0  0  0  0  2  0  0  0  0  0  0
  184.5220  179.9730  139.5750 C   0  0  0  0  0  1  0  0  0  0  0  0
  187.3150  177.5040  145.5430 C   0  0  0  0  0  3  0  0  0  0  0  0
  187.0820  177.7680  144.2580 C   0  0  0  0  0  0  0  0  0  0  0  0
  184.9570  178.5140  139.4800 C   0  0  2  0  0  3  0  0  0  0  0  0
  189.8830  178.0140  138.8280 C   0  0  0  0  0  3  0  0  0  0  0  0
  191.0120  177.0100  138.9600 C   0  0  0  0  0  2  0  0  0  0  0  0
  190.1630  177.0320  137.7070 C   0  0  0  0  0  2  0  0  0  0  0  0
  1 19  2  0  0  0  0
  2 16  1  1  0  0  0
  2 13  1  0  0  0  0
  4  1  1  0  0  0  0
  4 20  2  0  0  0  0
  5  1  1  0  0  0  0
  6  8  2  0  0  0  0
  7 15  1  6  0  0  0
  7  9  1  0  0  0  0
  8 11  1  0  0  0  0
  8 12  1  0  0  0  0
  9 14  1  6  0  0  0
  9 22  1  0  0  0  0
 10 21  1  1  0  0  0
 10  3  1  0  0  0  0
 11 28  1  6  0  0  0
 11  5  1  0  0  0  0
 12  4  1  0  0  0  0
 13 18  2  0  0  0  0
 15 23  1  0  0  0  0
 17 26  1  0  0  0  0
 17  3  1  0  0  0  0
 19  2  1  0  0  0  0
 19 26  1  0  0  0  0
 20 17  1  0  0  0  0
 22 20  1  1  0  0  0
 22 10  1  0  0  0  0
 23 14  1  0  0  0  0
 25 18  1  0  0  0  0
 26 25  2  0  0  0  0
 27 24  1  1  0  0  0
 27  7  1  0  0  0  0
 27 12  1  0  0  0  0
 28 29  1  0  0  0  0
 30 28  1  0  0  0  0
 30 29  1  0  0  0  0
M  END
>  <MODEL>
5

>  <REMARK>
 VINA RESULT:      -7.8      2.284      5.820
  Name = 
  1 active torsions:
  status: ('A' for Active; 'I' for Inactive)
    1  A    between atoms: C_11  and  C_28
                            x       y       z     vdW  Elec       q    Type
                         _______ _______ _______ _____ _____    ______ ____

>  <TORSDO>
F 1

$$$$
=
 OpenBabel11122410273D

 30 36  0  0  1  0  0  0  0  0999 V2000
  186.0220  178.2410  141.4510 C   0  0  0  0  0  0  0  0  0  0  0  0
  183.5800  178.6940  141.2070 C   0  0  2  0  0  3  0  0  0  0  0  0
  186.0430  178.1750  145.6880 C   0  0  0  0  0  2  0  0  0  0  0  0
  187.2450  177.9640  142.2620 C   0  0  0  0  0  0  0  0  0  0  0  0
  186.1110  178.1740  140.0570 O   0  0  0  0  0  0  0  0  0  0  0  0
  189.4670  177.1340  139.5090 O   0  0  0  0  0  0  0  0  0  0  0  0
  190.1000  178.5100  143.2480 C   0  0  1  0  0  3  0  0  0  0  0  0
  188.4730  177.6060  140.1280 C   0  0  0  0  0  0  0  0  0  0  0  0
  189.3500  178.5420  144.5250 N   0  0  2  0  0  0  0  0  0  0  0  0
  187.4850  177.7290  145.9510 C   0  0  1  0  0  3  0  0  0  0  0  0
  187.3490  178.2530  139.3570 C   0  0  1  0  0  3  0  0  0  0  0  0
  188.4700  177.6340  141.5680 N   0  0  0  0  0  0  0  0  0  0  0  0
  182.4700  179.2560  141.9890 N   0  0  0  0  0  0  0  0  0  0  0  0
  190.3250  178.1710  145.5470 C   0  0  0  0  0  2  0  0  0  0  0  0
  191.5850  178.4840  143.5570 C   0  0  0  0  0  2  0  0  0  0  0  0
  183.0690  177.1280  140.5260 Cl  0  0  0  0  0  0  0  0  0  0  0  0
  185.9300  178.2820  144.2510 N   0  0  0  0  0  0  0  0  0  0  0  0
  182.4610  179.3670  143.2850 C   0  0  0  0  0  3  0  0  0  0  0  0
  184.8360  178.5140  142.0300 C   0  0  0  0  0  0  0  0  0  0  0  0
  187.1520  177.9830  143.6100 C   0  0  0  0  0  0  0  0  0  0  0  0
  187.4790  176.3780  146.6370 C   0  0  0  0  0  1  0  0  0  0  0  0
  188.2090  177.6150  144.5920 C   0  0  1  0  0  3  0  0  0  0  0  0
  191.6810  178.6080  145.0520 C   0  0  0  0  0  2  0  0  0  0  0  0
  189.8480  175.9660  142.7880 C   0  0  0  0  0  1  0  0  0  0  0  0
  183.6270  178.9840  144.0950 C   0  0  0  0  0  3  0  0  0  0  0  0
  184.7520  178.5870  143.5010 C   0  0  0  0  0  0  0  0  0  0  0  0
  189.7430  177.3890  142.2510 C   0  0  2  0  0  3  0  0  0  0  0  0
  187.1830  177.6460  137.9700 C   0  0  0  0  0  3  0  0  0  0  0  0
  186.4310  178.6160  137.0800 C   0  0  0  0  0  2  0  0  0  0  0  0
  187.9340  178.4900  136.9590 C   0  0  0  0  0  2  0  0  0  0  0  0
  1 19  2  0  0  0  0
  1  4  1  0  0  0  0
  2 16  1  1  0  0  0
  2 13  1  0  0  0  0
  2 19  1  0  0  0  0
  3 10  1  0  0  0  0
  4 20  2  0  0  0  0
  5  1  1  0  0  0  0
  6  8  2  0  0  0  0
  7 15  1  1  0  0  0
  7  9  1  0  0  0  0
  8 12  1  0  0  0  0
  9 22  1  0  0  0  0
  9 14  1  1  0  0  0
 10 21  1  6  0  0  0
 11 28  1  6  0  0  0
 11  5  1  0  0  0  0
 11  8  1  0  0  0  0
 12 27  1  0  0  0  0
 12  4  1  0  0  0  0
 13 18  2  0  0  0  0
 15 23  1  0  0  0  0
 17  3  1  0  0  0  0
 18 25  1  0  0  0  0
 19 26  1  0  0  0  0
 20 17  1  0  0  0  0
 22 20  1  6  0  0  0
 22 10  1  0  0  0  0
 23 14  1  0  0  0  0
 26 25  2  0  0  0  0
 26 17  1  0  0  0  0
 27 24  1  1  0  0  0
 27  7  1  0  0  0  0
 29 28  1  0  0  0  0
 30 29  1  0  0  0  0
 30 28  1  0  0  0  0
M  END
>  <MODEL>
6

>  <REMARK>
 VINA RESULT:      -7.8      2.537      6.788
  Name = 
  1 active torsions:
  status: ('A' for Active; 'I' for Inactive)
    1  A    between atoms: C_11  and  C_28
                            x       y       z     vdW  Elec       q    Type
                         _______ _______ _______ _____ _____    ______ ____

>  <TORSDO>
F 1

$$$$
=
 OpenBabel11122410273D

 30 36  0  0  1  0  0  0  0  0999 V2000
  187.1210  177.5550  138.1630 C   0  0  0  0  0  0  0  0  0  0  0  0
  186.8870  177.0270  135.7350 C   0  0  2  0  0  3  0  0  0  0  0  0
  191.0860  176.1120  138.5540 C   0  0  0  0  0  2  0  0  0  0  0  0
  187.8980  177.6220  139.4380 C   0  0  0  0  0  0  0  0  0  0  0  0
  185.8420  178.1200  138.1250 O   0  0  0  0  0  0  0  0  0  0  0  0
  185.4930  179.5490  141.3620 O   0  0  0  0  0  0  0  0  0  0  0  0
  188.4350  176.9890  142.3920 C   0  0  1  0  0  3  0  0  0  0  0  0
  185.9620  178.8110  140.4530 C   0  0  0  0  0  0  0  0  0  0  0  0
  189.6600  176.4460  141.7600 N   0  0  2  0  0  0  0  0  0  0  0  0
  191.3990  176.5480  139.9890 C   0  0  1  0  0  3  0  0  0  0  0  0
  185.0830  178.3940  139.2990 C   0  0  1  0  0  3  0  0  0  0  0  0
  187.2920  178.2730  140.5780 N   0  0  0  0  0  0  0  0  0  0  0  0
  187.4830  176.1380  134.7290 N   0  0  0  0  0  0  0  0  0  0  0  0
  190.6820  176.5050  142.8010 C   0  0  0  0  0  2  0  0  0  0  0  0
  188.6370  177.0210  143.8960 C   0  0  0  0  0  2  0  0  0  0  0  0
  186.8510  178.6880  135.0880 Cl  0  0  0  0  0  0  0  0  0  0  0  0
  189.7180  176.5150  138.3200 N   0  0  0  0  0  0  0  0  0  0  0  0
  188.6500  175.5740  134.8400 C   0  0  0  0  0  3  0  0  0  0  0  0
  187.6370  177.0010  137.0480 C   0  0  0  0  0  0  0  0  0  0  0  0
  189.1510  177.1180  139.4640 C   0  0  0  0  0  0  0  0  0  0  0  0
  192.5250  177.5620  139.9750 C   0  0  0  0  0  1  0  0  0  0  0  0
  190.1290  177.1950  140.5840 C   0  0  1  0  0  3  0  0  0  0  0  0
  189.9770  176.3810  144.1280 C   0  0  0  0  0  2  0  0  0  0  0  0
  188.9410  179.5010  141.9720 C   0  0  0  0  0  1  0  0  0  0  0  0
  189.4660  175.7340  136.0520 C   0  0  0  0  0  3  0  0  0  0  0  0
  188.9850  176.4040  137.0980 C   0  0  0  0  0  0  0  0  0  0  0  0
  187.9340  178.3590  141.8920 C   0  0  2  0  0  3  0  0  0  0  0  0
  184.0220  179.4390  138.9810 C   0  0  0  0  0  3  0  0  0  0  0  0
  182.8790  178.7860  138.2290 C   0  0  0  0  0  2  0  0  0  0  0  0
  182.7380  179.0870  139.7050 C   0  0  0  0  0  2  0  0  0  0  0  0
  1  4  1  0  0  0  0
  2 16  1  6  0  0  0
  2 19  1  0  0  0  0
  3 10  1  0  0  0  0
  4 20  2  0  0  0  0
  4 12  1  0  0  0  0
  5  1  1  0  0  0  0
  5 11  1  0  0  0  0
  7 15  1  1  0  0  0
  8 12  1  0  0  0  0
  8  6  2  0  0  0  0
  9  7  1  0  0  0  0
  9 14  1  1  0  0  0
 10 21  1  6  0  0  0
 10 22  1  0  0  0  0
 11 28  1  6  0  0  0
 11  8  1  0  0  0  0
 12 27  1  0  0  0  0
 13 18  2  0  0  0  0
 13  2  1  0  0  0  0
 14 23  1  0  0  0  0
 15 23  1  0  0  0  0
 17  3  1  0  0  0  0
 17 20  1  0  0  0  0
 18 25  1  0  0  0  0
 19 26  1  0  0  0  0
 19  1  2  0  0  0  0
 22 20  1  6  0  0  0
 22  9  1  0  0  0  0
 25 26  2  0  0  0  0
 26 17  1  0  0  0  0
 27 24  1  6  0  0  0
 27  7  1  0  0  0  0
 28 30  1  0  0  0  0
 29 28  1  0  0  0  0
 29 30  1  0  0  0  0
M  END
>  <MODEL>
7

>  <REMARK>
 VINA RESULT:      -6.8      2.405      5.531
  Name = 
  1 active torsions:
  status: ('A' for Active; 'I' for Inactive)
    1  A    between atoms: C_11  and  C_28
                            x       y       z     vdW  Elec       q    Type
                         _______ _______ _______ _____ _____    ______ ____

>  <TORSDO>
F 1

$$$$
=
 OpenBabel11122410273D

 30 36  0  0  1  0  0  0  0  0999 V2000
  185.3780  178.6740  142.5290 C   0  0  0  0  0  0  0  0  0  0  0  0
  187.6820  178.3670  141.6180 C   0  0  0  0  0  0  0  0  0  0  0  0
  183.3610  178.0720  138.8510 C   0  0  0  0  0  2  0  0  0  0  0  0
  183.8900  178.6910  142.3950 C   0  0  0  0  0  0  0  0  0  0  0  0
  185.9410  178.8180  143.8010 O   0  0  0  0  0  0  0  0  0  0  0  0
  183.0970  178.9610  145.9310 O   0  0  0  0  0  0  0  0  0  0  0  0
  181.1070  179.9720  142.5710 C   0  0  1  0  0  3  0  0  0  0  0  0
  183.7610  179.0140  144.8590 C   0  0  0  0  0  0  0  0  0  0  0  0
  181.1570  179.6030  141.1380 N   0  0  2  0  0  0  0  0  0  0  0  0
  181.9060  178.0700  139.3310 C   0  0  1  0  0  3  0  0  0  0  0  0
  185.2270  179.3700  144.9030 C   0  0  1  0  0  3  0  0  0  0  0  0
  183.0950  178.8540  143.5920 N   0  0  0  0  0  0  0  0  0  0  0  0
  188.3890  178.4480  140.3330 N   0  0  0  0  0  0  0  0  0  0  0  0
  179.7630  179.4270  140.7420 C   0  0  0  0  0  2  0  0  0  0  0  0
  179.6860  180.3720  142.9210 C   0  0  0  0  0  2  0  0  0  0  0  0
  188.0920  176.8210  142.4050 Cl  0  0  0  0  0  0  0  0  0  0  0  0
  184.1540  178.3220  140.0330 N   0  0  0  0  0  0  0  0  0  0  0  0
  187.8130  178.3820  139.1680 C   0  0  0  0  0  3  0  0  0  0  0  0
  186.1820  178.4850  141.4630 C   0  0  0  0  0  0  0  0  0  0  0  0
  183.3430  178.5060  141.1740 C   0  0  0  0  0  0  0  0  0  0  0  0
  181.2910  176.7090  139.0750 C   0  0  0  0  0  1  0  0  0  0  0  0
  181.8980  178.3650  140.8470 C   0  0  1  0  0  3  0  0  0  0  0  0
  178.9310  180.3260  141.6210 C   0  0  0  0  0  2  0  0  0  0  0  0
  180.9770  177.5590  143.5220 C   0  0  0  0  0  1  0  0  0  0  0  0
  186.3520  178.2830  139.0400 C   0  0  0  0  0  3  0  0  0  0  0  0
  185.5800  178.3380  140.1240 C   0  0  2  0  0  3  0  0  0  0  0  0
  181.6330  178.9340  143.5830 C   0  0  2  0  0  3  0  0  0  0  0  0
  185.8850  178.9260  146.2030 C   0  0  0  0  0  3  0  0  0  0  0  0
  186.0740  177.4210  146.1860 C   0  0  0  0  0  2  0  0  0  0  0  0
  187.2470  178.3330  145.8980 C   0  0  0  0  0  2  0  0  0  0  0  0
  1  5  1  0  0  0  0
  2 16  1  0  0  0  0
  3 10  1  0  0  0  0
  3 17  1  0  0  0  0
  4  1  1  0  0  0  0
  4 12  1  0  0  0  0
  5 11  1  0  0  0  0
  7 15  1  1  0  0  0
  7 27  1  0  0  0  0
  8 11  1  0  0  0  0
  8  6  2  0  0  0  0
  9 14  1  1  0  0  0
  9  7  1  0  0  0  0
 10 21  1  1  0  0  0
 10 22  1  0  0  0  0
 11 28  1  1  0  0  0
 12  8  1  0  0  0  0
 13  2  2  0  0  0  0
 14 23  1  0  0  0  0
 17 26  1  0  0  0  0
 17 20  1  0  0  0  0
 18 13  1  0  0  0  0
 19  2  1  0  0  0  0
 19  1  2  0  0  0  0
 20  4  2  0  0  0  0
 22  9  1  0  0  0  0
 22 20  1  6  0  0  0
 23 15  1  0  0  0  0
 25 18  2  0  0  0  0
 26 25  1  6  0  0  0
 26 19  1  0  0  0  0
 27 24  1  6  0  0  0
 27 12  1  0  0  0  0
 29 28  1  0  0  0  0
 30 29  1  0  0  0  0
 30 28  1  0  0  0  0
M  END
>  <MODEL>
8

>  <REMARK>
 VINA RESULT:      -6.7      3.476      7.019
  Name = 
  1 active torsions:
  status: ('A' for Active; 'I' for Inactive)
    1  A    between atoms: C_11  and  C_28
                            x       y       z     vdW  Elec       q    Type
                         _______ _______ _______ _____ _____    ______ ____

>  <TORSDO>
F 1

$$$$
=
 OpenBabel11122410273D

 30 36  0  0  1  0  0  0  0  0999 V2000
  187.9860  177.6810  139.2650 C   0  0  0  0  0  0  0  0  0  0  0  0
  189.4470  177.0850  137.3300 C   0  0  2  0  0  3  0  0  0  0  0  0
  191.0460  177.5410  142.1940 C   0  0  0  0  0  2  0  0  0  0  0  0
  187.7580  177.9970  140.7070 C   0  0  0  0  0  0  0  0  0  0  0  0
  186.9220  177.8220  138.3700 O   0  0  0  0  0  0  0  0  0  0  0  0
  184.3090  179.1020  140.4140 O   0  0  0  0  0  0  0  0  0  0  0  0
  186.4730  177.5870  143.4640 C   0  0  1  0  0  3  0  0  0  0  0  0
  185.4000  178.5370  140.1250 C   0  0  0  0  0  0  0  0  0  0  0  0
  187.9080  177.4450  143.7990 N   0  0  2  0  0  0  0  0  0  0  0  0
  190.2840  178.0650  143.4160 C   0  0  1  0  0  3  0  0  0  0  0  0
  185.5600  177.8580  138.7870 C   0  0  1  0  0  3  0  0  0  0  0  0
  186.4420  178.4380  141.1140 N   0  0  0  0  0  0  0  0  0  0  0  0
  190.7280  176.4150  137.0710 N   0  0  0  0  0  0  0  0  0  0  0  0
  188.0100  177.8270  145.2040 C   0  0  0  0  0  2  0  0  0  0  0  0
  185.6810  177.6940  144.7540 C   0  0  0  0  0  2  0  0  0  0  0  0
  189.4290  178.6470  136.4720 Cl  0  0  0  0  0  0  0  0  0  0  0  0
  190.0740  177.4980  141.1240 N   0  0  0  0  0  0  0  0  0  0  0  0
  191.6640  176.2410  137.9570 C   0  0  0  0  0  3  0  0  0  0  0  0
  189.1960  177.3050  138.8060 C   0  0  0  0  0  0  0  0  0  0  0  0
  188.7960  177.9060  141.5670 C   0  0  0  0  0  0  0  0  0  0  0  0
  190.8920  179.3770  143.8660 C   0  0  0  0  0  1  0  0  0  0  0  0
  188.8120  178.2920  143.0040 C   0  0  1  0  0  3  0  0  0  0  0  0
  186.6880  177.5030  145.8530 C   0  0  0  0  0  2  0  0  0  0  0  0
  186.5150  180.1290  142.9320 C   0  0  0  0  0  1  0  0  0  0  0  0
  191.4820  176.6570  139.3550 C   0  0  0  0  0  3  0  0  0  0  0  0
  190.3130  177.1550  139.7580 C   0  0  0  0  0  0  0  0  0  0  0  0
  186.0850  178.7310  142.5040 C   0  0  2  0  0  3  0  0  0  0  0  0
  184.7180  178.5200  137.7050 C   0  0  0  0  0  3  0  0  0  0  0  0
  184.3800  177.5020  136.6330 C   0  0  0  0  0  2  0  0  0  0  0  0
  183.3460  177.8770  137.6720 C   0  0  0  0  0  2  0  0  0  0  0  0
  1  4  1  0  0  0  0
  2 16  1  6  0  0  0
  2 19  1  0  0  0  0
  3 10  1  0  0  0  0
  4 12  1  0  0  0  0
  4 20  2  0  0  0  0
  5 11  1  0  0  0  0
  5  1  1  0  0  0  0
  7  9  1  0  0  0  0
  7 15  1  1  0  0  0
  8  6  2  0  0  0  0
  8 12  1  0  0  0  0
  9 14  1  1  0  0  0
 10 21  1  6  0  0  0
 11 28  1  6  0  0  0
 11  8  1  0  0  0  0
 12 27  1  0  0  0  0
 13  2  1  0  0  0  0
 13 18  2  0  0  0  0
 14 23  1  0  0  0  0
 15 23  1  0  0  0  0
 17 20  1  0  0  0  0
 17  3  1  0  0  0  0
 18 25  1  0  0  0  0
 19  1  2  0  0  0  0
 19 26  1  0  0  0  0
 22 20  1  6  0  0  0
 22 10  1  0  0  0  0
 22  9  1  0  0  0  0
 25 26  2  0  0  0  0
 26 17  1  0  0  0  0
 27 24  1  1  0  0  0
 27  7  1  0  0  0  0
 29 30  1  0  0  0  0
 29 28  1  0  0  0  0
 30 28  1  0  0  0  0
M  END
>  <MODEL>
9

>  <REMARK>
 VINA RESULT:      -6.6      2.276      5.697
  Name = 
  1 active torsions:
  status: ('A' for Active; 'I' for Inactive)
    1  A    between atoms: C_11  and  C_28
                            x       y       z     vdW  Elec       q    Type
                         _______ _______ _______ _____ _____    ______ ____

>  <TORSDO>
F 1

$$$$
