=
 OpenBabel11122410433D

 32 38  0  0  1  0  0  0  0  0999 V2000
  188.3880  176.9240  146.5930 C   0  0  1  0  0  3  0  0  0  0  0  0
  189.1870  177.5880  141.5380 C   0  0  2  0  0  3  0  0  0  0  0  0
  184.6650  178.9000  139.8560 C   0  0  0  0  0  3  0  0  0  0  0  0
  185.0520  178.5570  138.5620 C   0  0  0  0  0  3  0  0  0  0  0  0
  191.1350  177.3880  139.8650 C   0  0  0  0  0  0  0  0  0  0  0  0
  191.3400  176.6660  138.6140 C   0  0  0  0  0  0  0  0  0  0  0  0
  189.4990  178.0550  144.0290 C   0  0  1  0  0  3  0  0  0  0  0  0
  187.2070  177.8460  143.0510 N   0  0  0  0  0  2  0  0  0  0  0  0
  190.8200  175.8230  136.6700 N   0  0  0  0  0  0  0  0  0  0  0  0
  187.4470  177.2910  145.4440 C   0  0  2  0  0  3  0  0  0  0  0  0
  185.5830  178.8200  140.9030 C   0  0  0  0  0  3  0  0  0  0  0  0
  187.8710  178.3470  141.8320 C   0  0  2  0  0  3  0  0  0  0  0  0
  186.8980  178.3850  140.6740 C   0  0  0  0  0  0  0  0  0  0  0  0
  188.6930  177.6500  139.0890 C   0  0  0  0  0  0  0  0  0  0  0  0
  192.1210  175.5950  136.9500 C   0  0  0  0  0  3  0  0  0  0  0  0
  189.8430  176.6560  146.1490 C   0  0  0  0  0  2  0  0  0  0  0  0
  188.1380  177.3310  144.0660 C   0  0  2  0  0  3  0  0  0  0  0  0
  192.4800  176.1110  138.1550 N   0  0  0  0  0  0  0  0  0  0  0  0
  190.4440  177.6730  145.1700 C   0  0  0  0  0  2  0  0  0  0  0  0
  187.9310  178.3660  146.4110 C   0  0  1  0  0  3  0  0  0  0  0  0
  186.3620  178.1460  138.3120 C   0  0  0  0  0  3  0  0  0  0  0  0
  187.3000  178.0690  139.3570 C   0  0  0  0  0  0  0  0  0  0  0  0
  188.9820  176.9830  137.9530 C   0  0  0  0  0  3  0  0  0  0  0  0
  190.1840  177.8590  142.6770 C   0  0  0  0  0  2  0  0  0  0  0  0
  192.1090  177.6010  140.6340 O   0  0  0  0  0  0  0  0  0  0  0  0
  190.1020  175.4080  135.4770 C   0  0  0  0  0  1  0  0  0  0  0  0
  189.7510  177.9650  140.1570 C   0  0  1  0  0  3  0  0  0  0  0  0
  190.3410  176.4990  137.7200 C   0  0  0  0  0  0  0  0  0  0  0  0
  186.8300  178.6720  147.4050 C   0  0  0  0  0  2  0  0  0  0  0  0
  185.5310  178.8260  146.6930 C   0  0  0  0  0  0  0  0  0  0  0  0
  185.4190  179.7410  145.6090 N   0  0  0  0  0  1  0  0  0  0  0  0
  184.5250  178.1720  147.0690 O   0  0  0  0  0  0  0  0  0  0  0  0
  1 16  1  6  0  0  0
  2 12  1  0  0  0  0
  2 24  1  1  0  0  0
  3 11  1  0  0  0  0
  4  3  2  0  0  0  0
  5 27  1  0  0  0  0
  5 25  2  0  0  0  0
  6  5  1  0  0  0  0
  7 24  1  6  0  0  0
  7 17  1  0  0  0  0
  7 19  1  0  0  0  0
  8 17  1  0  0  0  0
  9 15  1  0  0  0  0
  9 28  1  0  0  0  0
 10 20  1  0  0  0  0
 10  1  1  0  0  0  0
 12  8  1  0  0  0  0
 13 11  2  0  0  0  0
 13 12  1  0  0  0  0
 14 22  1  0  0  0  0
 14 27  1  0  0  0  0
 15 18  2  0  0  0  0
 17 10  1  0  0  0  0
 18  6  1  0  0  0  0
 19 16  1  0  0  0  0
 20  1  1  0  0  0  0
 20 29  1  0  0  0  0
 21  4  1  0  0  0  0
 21 22  2  0  0  0  0
 22 13  1  0  0  0  0
 23 14  2  0  0  0  0
 26  9  1  0  0  0  0
 27  2  1  0  0  0  0
 28 23  1  0  0  0  0
 28  6  2  0  0  0  0
 30 32  2  0  0  0  0
 30 29  1  0  0  0  0
 31 30  1  0  0  0  0
M  END
>  <MODEL>
1

>  <REMARK>
 VINA RESULT:     -10.1      0.000      0.000
  Name = 
  2 active torsions:
  status: ('A' for Active; 'I' for Inactive)
    1  A    between atoms: C_20  and  C_29
    2  A    between atoms: C_29  and  C_30
                            x       y       z     vdW  Elec       q    Type
                         _______ _______ _______ _____ _____    ______ ____

>  <TORSDO>
F 2

$$$$
=
 OpenBabel11122410433D

 32 38  0  0  1  0  0  0  0  0999 V2000
  189.3150  178.5210  137.4970 C   0  0  1  0  0  3  0  0  0  0  0  0
  188.5840  177.3600  142.4720 C   0  0  2  0  0  3  0  0  0  0  0  0
  183.9000  178.9040  143.3020 C   0  0  0  0  0  3  0  0  0  0  0  0
  184.1520  178.9140  144.6730 C   0  0  0  0  0  3  0  0  0  0  0  0
  189.9230  176.3260  144.4140 C   0  0  0  0  0  0  0  0  0  0  0  0
  190.2540  176.7500  145.7700 C   0  0  0  0  0  0  0  0  0  0  0  0
  189.0520  176.8750  140.0090 C   0  0  1  0  0  3  0  0  0  0  0  0
  187.1540  178.3610  140.6740 N   0  0  0  0  0  2  0  0  0  0  0  0
  189.9410  177.6780  147.7190 N   0  0  0  0  0  0  0  0  0  0  0  0
  188.1310  178.7420  138.4400 C   0  0  2  0  0  3  0  0  0  0  0  0
  184.8830  178.4610  142.4160 C   0  0  0  0  0  3  0  0  0  0  0  0
  187.1580  177.5280  141.8930 C   0  0  2  0  0  3  0  0  0  0  0  0
  186.1350  178.0330  142.8860 C   0  0  0  0  0  0  0  0  0  0  0  0
  187.6750  177.5250  144.7940 C   0  0  0  0  0  0  0  0  0  0  0  0
  191.1630  177.1060  147.6600 C   0  0  0  0  0  3  0  0  0  0  0  0
  190.5400  177.8700  138.1740 C   0  0  0  0  0  2  0  0  0  0  0  0
  188.3890  178.2610  139.8830 C   0  0  2  0  0  3  0  0  0  0  0  0
  191.3900  176.5150  146.4570 N   0  0  0  0  0  0  0  0  0  0  0  0
  190.2470  176.6650  139.0760 C   0  0  0  0  0  2  0  0  0  0  0  0
  188.0900  177.6180  137.4110 C   0  0  1  0  0  3  0  0  0  0  0  0
  185.3830  178.4690  145.1590 C   0  0  0  0  0  3  0  0  0  0  0  0
  186.3780  178.0120  144.2780 C   0  0  0  0  0  0  0  0  0  0  0  0
  188.0640  177.8590  146.0410 C   0  0  0  0  0  3  0  0  0  0  0  0
  189.4460  176.5890  141.4580 C   0  0  0  0  0  2  0  0  0  0  0  0
  190.7270  175.6040  143.7670 O   0  0  0  0  0  0  0  0  0  0  0  0
  189.3730  178.3980  148.8450 C   0  0  0  0  0  1  0  0  0  0  0  0
  188.5470  176.6810  143.8520 C   0  0  1  0  0  3  0  0  0  0  0  0
  189.3780  177.4450  146.5290 C   0  0  0  0  0  0  0  0  0  0  0  0
  187.2330  178.0490  136.2380 C   0  0  0  0  0  2  0  0  0  0  0  0
  186.0030  177.2120  136.1760 C   0  0  0  0  0  0  0  0  0  0  0  0
  185.2240  177.1790  134.9870 N   0  0  0  0  0  1  0  0  0  0  0  0
  185.6340  176.5590  137.1870 O   0  0  0  0  0  0  0  0  0  0  0  0
  1 16  1  1  0  0  0
  1 10  1  0  0  0  0
  2 24  1  6  0  0  0
  2 27  1  0  0  0  0
  3  4  1  0  0  0  0
  4 21  2  0  0  0  0
  5  6  1  0  0  0  0
  6 18  1  0  0  0  0
  6 28  2  0  0  0  0
  7 19  1  6  0  0  0
  7 24  1  0  0  0  0
  8 12  1  0  0  0  0
  9 26  1  0  0  0  0
 10 17  1  0  0  0  0
 11 13  1  0  0  0  0
 11  3  2  0  0  0  0
 12  2  1  0  0  0  0
 12 13  1  0  0  0  0
 13 22  2  0  0  0  0
 14 23  2  0  0  0  0
 15  9  1  0  0  0  0
 16 19  1  0  0  0  0
 17  7  1  0  0  0  0
 17  8  1  0  0  0  0
 18 15  2  0  0  0  0
 20  1  1  0  0  0  0
 20 10  1  0  0  0  0
 22 14  1  0  0  0  0
 22 21  1  0  0  0  0
 23 28  1  0  0  0  0
 25  5  2  0  0  0  0
 27  5  1  0  0  0  0
 27 14  1  0  0  0  0
 28  9  1  0  0  0  0
 29 20  1  0  0  0  0
 30 29  1  0  0  0  0
 30 32  2  0  0  0  0
 31 30  1  0  0  0  0
M  END
>  <MODEL>
2

>  <REMARK>
 VINA RESULT:      -9.7      2.840      7.404
  Name = 
  2 active torsions:
  status: ('A' for Active; 'I' for Inactive)
    1  A    between atoms: C_20  and  C_29
    2  A    between atoms: C_29  and  C_30
                            x       y       z     vdW  Elec       q    Type
                         _______ _______ _______ _____ _____    ______ ____

>  <TORSDO>
F 2

$$$$
=
 OpenBabel11122410433D

 32 38  0  0  1  0  0  0  0  0999 V2000
  189.8370  176.6700  145.0200 C   0  0  1  0  0  3  0  0  0  0  0  0
  186.3050  178.0930  141.5350 C   0  0  2  0  0  3  0  0  0  0  0  0
  182.2700  179.0030  144.3430 C   0  0  0  0  0  3  0  0  0  0  0  0
  181.4630  178.8880  143.2120 C   0  0  0  0  0  3  0  0  0  0  0  0
  186.1420  178.3750  138.9800 C   0  0  0  0  0  0  0  0  0  0  0  0
  185.2500  177.8580  137.9480 C   0  0  0  0  0  0  0  0  0  0  0  0
  188.4920  178.2660  142.8450 C   0  0  1  0  0  3  0  0  0  0  0  0
  186.3240  177.8850  144.0320 N   0  0  0  0  0  2  0  0  0  0  0  0
  183.3660  177.2160  137.0560 N   0  0  0  0  0  0  0  0  0  0  0  0
  188.3620  177.0570  145.1510 C   0  0  2  0  0  3  0  0  0  0  0  0
  183.6570  178.9090  144.2230 C   0  0  0  0  0  3  0  0  0  0  0  0
  185.7650  178.6260  142.8840 C   0  0  2  0  0  3  0  0  0  0  0  0
  184.2560  178.6860  142.9730 C   0  0  0  0  0  0  0  0  0  0  0  0
  184.0570  178.4100  140.4920 C   0  0  0  0  0  0  0  0  0  0  0  0
  184.3690  177.1280  136.1550 C   0  0  0  0  0  3  0  0  0  0  0  0
  190.3530  176.6580  143.5650 C   0  0  0  0  0  2  0  0  0  0  0  0
  187.6820  177.3690  143.8020 C   0  0  2  0  0  3  0  0  0  0  0  0
  185.5590  177.5240  136.6790 N   0  0  0  0  0  0  0  0  0  0  0  0
  189.9610  177.8650  142.7040 C   0  0  0  0  0  2  0  0  0  0  0  0
  189.4510  178.0500  145.5390 C   0  0  1  0  0  3  0  0  0  0  0  0
  182.0440  178.6900  141.9590 C   0  0  0  0  0  3  0  0  0  0  0  0
  183.4410  178.6020  141.8230 C   0  0  0  0  0  0  0  0  0  0  0  0
  183.3090  177.9430  139.4720 C   0  0  0  0  0  3  0  0  0  0  0  0
  187.8220  178.3420  141.4720 C   0  0  0  0  0  2  0  0  0  0  0  0
  187.3480  178.6130  138.7070 O   0  0  0  0  0  0  0  0  0  0  0  0
  181.9720  176.8700  136.8400 C   0  0  0  0  0  1  0  0  0  0  0  0
  185.5550  178.7200  140.3480 C   0  0  1  0  0  3  0  0  0  0  0  0
  183.9310  177.6790  138.1760 C   0  0  0  0  0  0  0  0  0  0  0  0
  189.5880  178.0740  147.0480 C   0  0  0  0  0  2  0  0  0  0  0  0
  188.2860  177.7210  147.6800 C   0  0  0  0  0  0  0  0  0  0  0  0
  187.1920  178.6280  147.6090 N   0  0  0  0  0  1  0  0  0  0  0  0
  188.1630  176.6360  148.3050 O   0  0  0  0  0  0  0  0  0  0  0  0
  1 16  1  6  0  0  0
  1 10  1  0  0  0  0
  1 20  1  0  0  0  0
  2 24  1  6  0  0  0
  2 12  1  0  0  0  0
  4  3  2  0  0  0  0
  5 27  1  0  0  0  0
  6 28  2  0  0  0  0
  6  5  1  0  0  0  0
  7 24  1  6  0  0  0
  7 17  1  0  0  0  0
  9 28  1  0  0  0  0
 10 20  1  0  0  0  0
 11  3  1  0  0  0  0
 12 13  1  0  0  0  0
 12  8  1  0  0  0  0
 13 11  2  0  0  0  0
 14 22  1  0  0  0  0
 15 18  2  0  0  0  0
 15  9  1  0  0  0  0
 17  8  1  0  0  0  0
 17 10  1  0  0  0  0
 18  6  1  0  0  0  0
 19  7  1  0  0  0  0
 19 16  1  0  0  0  0
 20 29  1  0  0  0  0
 21  4  1  0  0  0  0
 22 21  2  0  0  0  0
 22 13  1  0  0  0  0
 23 14  2  0  0  0  0
 25  5  2  0  0  0  0
 26  9  1  0  0  0  0
 27 14  1  0  0  0  0
 27  2  1  0  0  0  0
 28 23  1  0  0  0  0
 29 30  1  0  0  0  0
 30 32  2  0  0  0  0
 31 30  1  0  0  0  0
M  END
>  <MODEL>
3

>  <REMARK>
 VINA RESULT:      -9.6      3.165      4.639
  Name = 
  2 active torsions:
  status: ('A' for Active; 'I' for Inactive)
    1  A    between atoms: C_20  and  C_29
    2  A    between atoms: C_29  and  C_30
                            x       y       z     vdW  Elec       q    Type
                         _______ _______ _______ _____ _____    ______ ____

>  <TORSDO>
F 2

$$$$
=
 OpenBabel11122410433D

 32 38  0  0  1  0  0  0  0  0999 V2000
  190.0530  175.6160  136.9030 C   0  0  1  0  0  3  0  0  0  0  0  0
  188.1950  177.7260  141.2310 C   0  0  2  0  0  3  0  0  0  0  0  0
  191.6810  176.5660  144.6230 C   0  0  0  0  0  3  0  0  0  0  0  0
  190.7600  176.8050  145.6430 C   0  0  0  0  0  3  0  0  0  0  0  0
  186.1160  179.0510  141.9750 C   0  0  0  0  0  0  0  0  0  0  0  0
  185.1090  178.8760  143.0170 C   0  0  0  0  0  0  0  0  0  0  0  0
  189.0900  177.7160  138.8380 C   0  0  1  0  0  3  0  0  0  0  0  0
  190.2800  176.4650  140.6470 N   0  0  0  0  0  2  0  0  0  0  0  0
  184.3180  178.3470  144.9800 N   0  0  0  0  0  0  0  0  0  0  0  0
  190.5690  175.6270  138.3430 C   0  0  2  0  0  3  0  0  0  0  0  0
  191.3220  176.7920  143.2940 C   0  0  0  0  0  3  0  0  0  0  0  0
  189.7020  177.5120  141.5120 C   0  0  2  0  0  3  0  0  0  0  0  0
  190.0360  177.2470  142.9640 C   0  0  0  0  0  0  0  0  0  0  0  0
  187.7690  178.0410  143.6730 C   0  0  0  0  0  0  0  0  0  0  0  0
  183.3380  178.8450  144.1950 C   0  0  0  0  0  3  0  0  0  0  0  0
  188.6970  176.3310  136.7180 C   0  0  0  0  0  2  0  0  0  0  0  0
  189.6360  176.3610  139.3290 C   0  0  2  0  0  3  0  0  0  0  0  0
  183.7990  179.1880  142.9630 N   0  0  0  0  0  0  0  0  0  0  0  0
  188.5600  177.6960  137.4040 C   0  0  0  0  0  2  0  0  0  0  0  0
  191.2020  176.5370  137.2970 C   0  0  1  0  0  3  0  0  0  0  0  0
  189.4850  177.2810  145.3340 C   0  0  0  0  0  3  0  0  0  0  0  0
  189.1140  177.5210  143.9990 C   0  0  0  0  0  0  0  0  0  0  0  0
  186.7750  177.9330  144.5770 C   0  0  0  0  0  3  0  0  0  0  0  0
  188.0260  178.2540  139.7960 C   0  0  0  0  0  2  0  0  0  0  0  0
  185.8050  179.6020  140.8870 O   0  0  0  0  0  0  0  0  0  0  0  0
  184.1810  177.8780  146.3480 C   0  0  0  0  0  1  0  0  0  0  0  0
  187.5590  178.6540  142.2800 C   0  0  1  0  0  3  0  0  0  0  0  0
  185.4260  178.3750  144.2310 C   0  0  0  0  0  0  0  0  0  0  0  0
  192.5110  175.9300  136.8370 C   0  0  0  0  0  2  0  0  0  0  0  0
  193.5570  176.1330  137.8770 C   0  0  0  0  0  0  0  0  0  0  0  0
  194.6040  175.1820  138.0280 N   0  0  0  0  0  1  0  0  0  0  0  0
  193.4960  177.1280  138.6450 O   0  0  0  0  0  0  0  0  0  0  0  0
  1 16  1  1  0  0  0
  1 20  1  0  0  0  0
  1 10  1  0  0  0  0
  2 24  1  6  0  0  0
  2 12  1  0  0  0  0
  2 27  1  0  0  0  0
  3  4  1  0  0  0  0
  5 27  1  0  0  0  0
  5  6  1  0  0  0  0
  6 28  2  0  0  0  0
  7 19  1  6  0  0  0
  7 17  1  0  0  0  0
  7 24  1  0  0  0  0
  8 12  1  0  0  0  0
  9 26  1  0  0  0  0
 10 17  1  0  0  0  0
 11  3  2  0  0  0  0
 12 13  1  0  0  0  0
 13 11  1  0  0  0  0
 13 22  2  0  0  0  0
 14 22  1  0  0  0  0
 14 23  2  0  0  0  0
 15  9  1  0  0  0  0
 16 19  1  0  0  0  0
 17  8  1  0  0  0  0
 18  6  1  0  0  0  0
 18 15  2  0  0  0  0
 20 10  1  0  0  0  0
 21  4  2  0  0  0  0
 22 21  1  0  0  0  0
 25  5  2  0  0  0  0
 27 14  1  0  0  0  0
 28 23  1  0  0  0  0
 28  9  1  0  0  0  0
 29 20  1  0  0  0  0
 29 30  1  0  0  0  0
 30 31  1  0  0  0  0
 30 32  2  0  0  0  0
M  END
>  <MODEL>
4

>  <REMARK>
 VINA RESULT:      -9.6      2.160      8.367
  Name = 
  2 active torsions:
  status: ('A' for Active; 'I' for Inactive)
    1  A    between atoms: C_20  and  C_29
    2  A    between atoms: C_29  and  C_30
                            x       y       z     vdW  Elec       q    Type
                         _______ _______ _______ _____ _____    ______ ____

>  <TORSDO>
F 2

$$$$
=
 OpenBabel11122410433D

 32 38  0  0  1  0  0  0  0  0999 V2000
  180.2800  178.0960  141.7590 C   0  0  1  0  0  3  0  0  0  0  0  0
  185.0150  178.5020  143.7700 C   0  0  2  0  0  3  0  0  0  0  0  0
  187.9680  178.1620  139.7490 C   0  0  0  0  0  3  0  0  0  0  0  0
  189.0450  177.8380  140.5740 C   0  0  0  0  0  3  0  0  0  0  0  0
  186.0920  178.7690  146.0940 C   0  0  0  0  0  0  0  0  0  0  0  0
  187.1050  178.0350  146.8440 C   0  0  0  0  0  0  0  0  0  0  0  0
  182.6470  179.2750  143.2060 C   0  0  1  0  0  3  0  0  0  0  0  0
  184.1090  178.2640  141.4460 N   0  0  0  0  0  2  0  0  0  0  0  0
  188.9360  176.8930  147.1630 N   0  0  0  0  0  0  0  0  0  0  0  0
  181.6720  178.0390  141.1270 C   0  0  2  0  0  3  0  0  0  0  0  0
  186.7290  178.4730  140.3100 C   0  0  0  0  0  3  0  0  0  0  0  0
  185.1950  178.8330  142.2690 C   0  0  2  0  0  3  0  0  0  0  0  0
  186.5460  178.4540  141.7020 C   0  0  0  0  0  0  0  0  0  0  0  0
  187.4810  178.1760  144.0080 C   0  0  0  0  0  0  0  0  0  0  0  0
  188.3070  177.1130  148.3380 C   0  0  0  0  0  3  0  0  0  0  0  0
  180.2950  178.2590  143.2940 C   0  0  0  0  0  2  0  0  0  0  0  0
  182.8210  178.1660  142.1480 C   0  0  2  0  0  3  0  0  0  0  0  0
  187.1610  177.8260  148.1750 N   0  0  0  0  0  0  0  0  0  0  0  0
  181.2590  179.3170  143.8470 C   0  0  0  0  0  2  0  0  0  0  0  0
  180.8220  179.2970  140.9930 C   0  0  1  0  0  3  0  0  0  0  0  0
  188.8860  177.8390  141.9600 C   0  0  0  0  0  3  0  0  0  0  0  0
  187.6450  178.1590  142.5390 C   0  0  0  0  0  0  0  0  0  0  0  0
  188.3740  177.5310  144.7870 C   0  0  0  0  0  3  0  0  0  0  0  0
  183.7310  179.1780  144.2790 C   0  0  0  0  0  2  0  0  0  0  0  0
  185.1550  179.3490  146.7050 O   0  0  0  0  0  0  0  0  0  0  0  0
  190.1770  176.1640  146.9650 C   0  0  0  0  0  1  0  0  0  0  0  0
  186.2570  178.9060  144.5820 C   0  0  1  0  0  3  0  0  0  0  0  0
  188.1750  177.4800  146.2330 C   0  0  0  0  0  0  0  0  0  0  0  0
  180.2010  179.3330  139.6120 C   0  0  0  0  0  2  0  0  0  0  0  0
  181.2590  179.5390  138.5850 C   0  0  0  0  0  0  0  0  0  0  0  0
  182.1220  180.6670  138.6700 N   0  0  0  0  0  1  0  0  0  0  0  0
  181.3710  178.7340  137.6250 O   0  0  0  0  0  0  0  0  0  0  0  0
  1 16  1  1  0  0  0
  2 24  1  1  0  0  0
  2 27  1  0  0  0  0
  3 11  2  0  0  0  0
  3  4  1  0  0  0  0
  4 21  2  0  0  0  0
  5 25  2  0  0  0  0
  5  6  1  0  0  0  0
  6 18  1  0  0  0  0
  7 19  1  1  0  0  0
  7 24  1  0  0  0  0
  8 17  1  0  0  0  0
  8 12  1  0  0  0  0
  9 15  1  0  0  0  0
 10  1  1  0  0  0  0
 10 17  1  0  0  0  0
 11 13  1  0  0  0  0
 12  2  1  0  0  0  0
 13 12  1  0  0  0  0
 13 22  2  0  0  0  0
 14 27  1  0  0  0  0
 14 23  2  0  0  0  0
 16 19  1  0  0  0  0
 17  7  1  0  0  0  0
 18 15  2  0  0  0  0
 20 10  1  0  0  0  0
 20  1  1  0  0  0  0
 21 22  1  0  0  0  0
 22 14  1  0  0  0  0
 23 28  1  0  0  0  0
 26  9  1  0  0  0  0
 27  5  1  0  0  0  0
 28  6  2  0  0  0  0
 28  9  1  0  0  0  0
 29 20  1  0  0  0  0
 30 31  1  0  0  0  0
 30 29  1  0  0  0  0
 32 30  2  0  0  0  0
M  END
>  <MODEL>
5

>  <REMARK>
 VINA RESULT:      -9.3      3.548      7.808
  Name = 
  2 active torsions:
  status: ('A' for Active; 'I' for Inactive)
    1  A    between atoms: C_20  and  C_29
    2  A    between atoms: C_29  and  C_30
                            x       y       z     vdW  Elec       q    Type
                         _______ _______ _______ _____ _____    ______ ____

>  <TORSDO>
F 2

$$$$
=
 OpenBabel11122410433D

 32 38  0  0  1  0  0  0  0  0999 V2000
  190.5820  174.7310  136.1660 C   0  0  1  0  0  3  0  0  0  0  0  0
  188.3050  177.4740  139.8970 C   0  0  2  0  0  3  0  0  0  0  0  0
  191.6780  177.3560  143.5860 C   0  0  0  0  0  3  0  0  0  0  0  0
  190.6840  177.7040  144.5000 C   0  0  0  0  0  3  0  0  0  0  0  0
  186.0790  178.7150  140.2760 C   0  0  0  0  0  0  0  0  0  0  0  0
  185.0340  178.6560  141.2920 C   0  0  0  0  0  0  0  0  0  0  0  0
  189.3320  177.0730  137.5930 C   0  0  1  0  0  3  0  0  0  0  0  0
  190.5210  176.3290  139.6630 N   0  0  0  0  0  2  0  0  0  0  0  0
  184.1810  178.4560  143.2890 N   0  0  0  0  0  0  0  0  0  0  0  0
  191.0120  175.0800  137.5920 C   0  0  2  0  0  3  0  0  0  0  0  0
  191.3780  177.2760  142.2260 C   0  0  0  0  0  3  0  0  0  0  0  0
  189.8060  177.4670  140.2740 C   0  0  2  0  0  3  0  0  0  0  0  0
  190.0780  177.5310  141.7610 C   0  0  0  0  0  0  0  0  0  0  0  0
  187.7150  178.2290  142.2050 C   0  0  0  0  0  0  0  0  0  0  0  0
  183.2080  178.6900  142.3820 C   0  0  0  0  0  3  0  0  0  0  0  0
  189.1820  175.2610  135.7870 C   0  0  0  0  0  2  0  0  0  0  0  0
  189.9650  175.9020  138.3710 C   0  0  2  0  0  3  0  0  0  0  0  0
  183.7070  178.8230  141.1250 N   0  0  0  0  0  0  0  0  0  0  0  0
  188.8880  176.7160  136.1740 C   0  0  0  0  0  2  0  0  0  0  0  0
  191.6220  175.8190  136.4070 C   0  0  1  0  0  3  0  0  0  0  0  0
  189.3920  177.9840  144.0510 C   0  0  0  0  0  3  0  0  0  0  0  0
  189.0790  177.9150  142.6820 C   0  0  0  0  0  0  0  0  0  0  0  0
  186.6830  178.2080  143.0740 C   0  0  0  0  0  3  0  0  0  0  0  0
  188.1730  177.6860  138.3800 C   0  0  0  0  0  2  0  0  0  0  0  0
  185.7840  179.0050  139.0860 O   0  0  0  0  0  0  0  0  0  0  0  0
  184.0080  178.2580  144.7180 C   0  0  0  0  0  1  0  0  0  0  0  0
  187.5320  178.5280  140.7100 C   0  0  1  0  0  3  0  0  0  0  0  0
  185.3230  178.4410  142.5940 C   0  0  0  0  0  0  0  0  0  0  0  0
  193.0030  175.2610  136.1310 C   0  0  0  0  0  2  0  0  0  0  0  0
  193.9890  175.8610  137.0720 C   0  0  0  0  0  0  0  0  0  0  0  0
  194.9770  175.0410  137.6850 N   0  0  0  0  0  1  0  0  0  0  0  0
  193.9290  177.0860  137.3500 O   0  0  0  0  0  0  0  0  0  0  0  0
  1 16  1  1  0  0  0
  1 20  1  0  0  0  0
  1 10  1  0  0  0  0
  2 24  1  6  0  0  0
  2 12  1  0  0  0  0
  2 27  1  0  0  0  0
  3  4  1  0  0  0  0
  5 27  1  0  0  0  0
  5  6  1  0  0  0  0
  6 28  2  0  0  0  0
  7 19  1  6  0  0  0
  7 17  1  0  0  0  0
  7 24  1  0  0  0  0
  8 12  1  0  0  0  0
  9 26  1  0  0  0  0
 10 17  1  0  0  0  0
 11  3  2  0  0  0  0
 12 13  1  0  0  0  0
 13 11  1  0  0  0  0
 13 22  2  0  0  0  0
 14 22  1  0  0  0  0
 14 23  2  0  0  0  0
 15  9  1  0  0  0  0
 16 19  1  0  0  0  0
 17  8  1  0  0  0  0
 18  6  1  0  0  0  0
 18 15  2  0  0  0  0
 20 10  1  0  0  0  0
 21  4  2  0  0  0  0
 22 21  1  0  0  0  0
 25  5  2  0  0  0  0
 27 14  1  0  0  0  0
 28 23  1  0  0  0  0
 28  9  1  0  0  0  0
 29 20  1  0  0  0  0
 29 30  1  0  0  0  0
 30 32  2  0  0  0  0
 30 31  1  0  0  0  0
M  END
>  <MODEL>
6

>  <REMARK>
 VINA RESULT:      -9.3      2.425      8.406
  Name = 
  2 active torsions:
  status: ('A' for Active; 'I' for Inactive)
    1  A    between atoms: C_20  and  C_29
    2  A    between atoms: C_29  and  C_30
                            x       y       z     vdW  Elec       q    Type
                         _______ _______ _______ _____ _____    ______ ____

>  <TORSDO>
F 2

$$$$
=
 OpenBabel11122410433D

 32 38  0  0  1  0  0  0  0  0999 V2000
  189.5970  176.5770  145.9750 C   0  0  1  0  0  3  0  0  0  0  0  0
  190.6030  177.2120  140.9530 C   0  0  2  0  0  3  0  0  0  0  0  0
  186.1050  178.2660  139.0390 C   0  0  0  0  0  3  0  0  0  0  0  0
  186.5720  177.9260  137.7700 C   0  0  0  0  0  3  0  0  0  0  0  0
  192.6370  177.0900  139.3780 C   0  0  0  0  0  0  0  0  0  0  0  0
  192.9380  176.3630  138.1500 C   0  0  0  0  0  0  0  0  0  0  0  0
  190.7700  177.7290  143.4490 C   0  0  1  0  0  3  0  0  0  0  0  0
  188.5420  177.3880  142.3670 N   0  0  0  0  0  2  0  0  0  0  0  0
  192.5560  175.4670  136.1980 N   0  0  0  0  0  0  0  0  0  0  0  0
  188.6940  176.8790  144.7770 C   0  0  2  0  0  3  0  0  0  0  0  0
  186.9760  178.2480  140.1290 C   0  0  0  0  0  3  0  0  0  0  0  0
  189.2370  177.9060  141.1730 C   0  0  2  0  0  3  0  0  0  0  0  0
  188.3210  177.8780  139.9690 C   0  0  0  0  0  0  0  0  0  0  0  0
  190.2240  177.2150  138.4840 C   0  0  0  0  0  0  0  0  0  0  0  0
  193.8520  175.3110  136.5430 C   0  0  0  0  0  3  0  0  0  0  0  0
  191.0820  176.3780  145.6050 C   0  0  0  0  0  2  0  0  0  0  0  0
  189.4480  176.9360  143.4330 C   0  0  2  0  0  3  0  0  0  0  0  0
  194.1260  175.8610  137.7550 N   0  0  0  0  0  0  0  0  0  0  0  0
  191.6770  177.4110  144.6400 C   0  0  0  0  0  2  0  0  0  0  0  0
  189.0750  177.9910  145.7480 C   0  0  1  0  0  3  0  0  0  0  0  0
  187.9120  177.5790  137.5890 C   0  0  0  0  0  3  0  0  0  0  0  0
  188.8010  177.5650  138.6780 C   0  0  0  0  0  0  0  0  0  0  0  0
  190.6020  176.5490  137.3730 C   0  0  0  0  0  3  0  0  0  0  0  0
  191.5290  177.5500  142.1340 C   0  0  0  0  0  2  0  0  0  0  0  0
  193.5600  177.3640  140.1890 O   0  0  0  0  0  0  0  0  0  0  0  0
  191.9180  175.0000  134.9790 C   0  0  0  0  0  1  0  0  0  0  0  0
  191.2120  177.5990  139.5950 C   0  0  1  0  0  3  0  0  0  0  0  0
  191.9930  176.1330  137.2120 C   0  0  0  0  0  0  0  0  0  0  0  0
  187.9130  178.2530  146.6850 C   0  0  0  0  0  2  0  0  0  0  0  0
  188.3240  177.9820  148.0900 C   0  0  0  0  0  0  0  0  0  0  0  0
  189.4690  178.6280  148.6340 N   0  0  0  0  0  1  0  0  0  0  0  0
  187.6780  177.1560  148.7870 O   0  0  0  0  0  0  0  0  0  0  0  0
  1 16  1  6  0  0  0
  2 12  1  0  0  0  0
  2 24  1  1  0  0  0
  3 11  1  0  0  0  0
  4  3  2  0  0  0  0
  5 27  1  0  0  0  0
  5 25  2  0  0  0  0
  6  5  1  0  0  0  0
  7 24  1  6  0  0  0
  7 19  1  0  0  0  0
  8 17  1  0  0  0  0
  9 15  1  0  0  0  0
  9 28  1  0  0  0  0
 10 20  1  0  0  0  0
 10  1  1  0  0  0  0
 12  8  1  0  0  0  0
 13 11  2  0  0  0  0
 13 12  1  0  0  0  0
 14 22  1  0  0  0  0
 14 27  1  0  0  0  0
 15 18  2  0  0  0  0
 17  7  1  0  0  0  0
 17 10  1  0  0  0  0
 18  6  1  0  0  0  0
 19 16  1  0  0  0  0
 20  1  1  0  0  0  0
 20 29  1  0  0  0  0
 21  4  1  0  0  0  0
 21 22  2  0  0  0  0
 22 13  1  0  0  0  0
 23 14  2  0  0  0  0
 26  9  1  0  0  0  0
 27  2  1  0  0  0  0
 28 23  1  0  0  0  0
 28  6  2  0  0  0  0
 29 30  1  0  0  0  0
 30 31  1  0  0  0  0
 30 32  2  0  0  0  0
M  END
>  <MODEL>
7

>  <REMARK>
 VINA RESULT:      -9.2      1.662      2.000
  Name = 
  2 active torsions:
  status: ('A' for Active; 'I' for Inactive)
    1  A    between atoms: C_20  and  C_29
    2  A    between atoms: C_29  and  C_30
                            x       y       z     vdW  Elec       q    Type
                         _______ _______ _______ _____ _____    ______ ____

>  <TORSDO>
F 2

$$$$
=
 OpenBabel11122410433D

 32 38  0  0  1  0  0  0  0  0999 V2000
  179.7350  177.5150  140.7900 C   0  0  1  0  0  3  0  0  0  0  0  0
  184.3360  178.4630  142.9260 C   0  0  2  0  0  3  0  0  0  0  0  0
  187.4310  178.3610  139.0000 C   0  0  0  0  0  3  0  0  0  0  0  0
  188.5110  178.1700  139.8620 C   0  0  0  0  0  3  0  0  0  0  0  0
  185.3060  178.8890  145.2730 C   0  0  0  0  0  0  0  0  0  0  0  0
  186.3680  178.2820  146.0680 C   0  0  0  0  0  0  0  0  0  0  0  0
  181.9180  178.9670  142.2760 C   0  0  1  0  0  3  0  0  0  0  0  0
  183.5320  178.0840  140.5830 N   0  0  0  0  0  2  0  0  0  0  0  0
  188.2990  177.3490  146.4650 N   0  0  0  0  0  0  0  0  0  0  0  0
  181.1440  177.5950  140.2000 C   0  0  2  0  0  3  0  0  0  0  0  0
  186.1500  178.5490  139.5180 C   0  0  0  0  0  3  0  0  0  0  0  0
  184.5260  178.7810  141.4230 C   0  0  2  0  0  3  0  0  0  0  0  0
  185.9260  178.5380  140.9040 C   0  0  0  0  0  0  0  0  0  0  0  0
  186.8140  178.4070  143.2420 C   0  0  0  0  0  0  0  0  0  0  0  0
  187.6150  177.5240  147.6160 C   0  0  0  0  0  3  0  0  0  0  0  0
  179.6860  177.7090  142.3210 C   0  0  0  0  0  2  0  0  0  0  0  0
  182.2410  177.8630  141.2500 C   0  0  2  0  0  3  0  0  0  0  0  0
  186.4050  178.1070  147.4040 N   0  0  0  0  0  0  0  0  0  0  0  0
  180.5140  178.8740  142.8760 C   0  0  0  0  0  2  0  0  0  0  0  0
  180.1700  178.7520  140.0130 C   0  0  1  0  0  3  0  0  0  0  0  0
  188.3090  178.1810  141.2430 C   0  0  0  0  0  3  0  0  0  0  0  0
  187.0240  178.3790  141.7780 C   0  0  0  0  0  0  0  0  0  0  0  0
  187.7460  177.8760  144.0600 C   0  0  0  0  0  3  0  0  0  0  0  0
  182.9730  179.0090  143.3820 C   0  0  0  0  0  2  0  0  0  0  0  0
  184.2950  179.3780  145.8430 O   0  0  0  0  0  0  0  0  0  0  0  0
  189.6160  176.7530  146.3190 C   0  0  0  0  0  1  0  0  0  0  0  0
  185.5030  179.0130  143.7630 C   0  0  1  0  0  3  0  0  0  0  0  0
  187.5090  177.8320  145.5010 C   0  0  0  0  0  0  0  0  0  0  0  0
  179.5910  178.6940  138.6140 C   0  0  0  0  0  2  0  0  0  0  0  0
  180.6150  179.1280  137.6240 C   0  0  0  0  0  0  0  0  0  0  0  0
  181.0020  178.2540  136.5700 N   0  0  0  0  0  1  0  0  0  0  0  0
  181.1620  180.2560  137.7370 O   0  0  0  0  0  0  0  0  0  0  0  0
  1 16  1  1  0  0  0
  2 24  1  1  0  0  0
  2 27  1  0  0  0  0
  3 11  2  0  0  0  0
  3  4  1  0  0  0  0
  4 21  2  0  0  0  0
  5 25  2  0  0  0  0
  5  6  1  0  0  0  0
  6 18  1  0  0  0  0
  7 19  1  1  0  0  0
  7 24  1  0  0  0  0
  8 17  1  0  0  0  0
  8 12  1  0  0  0  0
  9 15  1  0  0  0  0
 10  1  1  0  0  0  0
 10 17  1  0  0  0  0
 11 13  1  0  0  0  0
 12  2  1  0  0  0  0
 13 12  1  0  0  0  0
 13 22  2  0  0  0  0
 14 27  1  0  0  0  0
 14 23  2  0  0  0  0
 16 19  1  0  0  0  0
 17  7  1  0  0  0  0
 18 15  2  0  0  0  0
 20 10  1  0  0  0  0
 20  1  1  0  0  0  0
 21 22  1  0  0  0  0
 22 14  1  0  0  0  0
 23 28  1  0  0  0  0
 26  9  1  0  0  0  0
 27  5  1  0  0  0  0
 28  6  2  0  0  0  0
 28  9  1  0  0  0  0
 29 20  1  0  0  0  0
 30 32  2  0  0  0  0
 30 29  1  0  0  0  0
 31 30  1  0  0  0  0
M  END
>  <MODEL>
8

>  <REMARK>
 VINA RESULT:      -8.7      3.786      8.092
  Name = 
  2 active torsions:
  status: ('A' for Active; 'I' for Inactive)
    1  A    between atoms: C_20  and  C_29
    2  A    between atoms: C_29  and  C_30
                            x       y       z     vdW  Elec       q    Type
                         _______ _______ _______ _____ _____    ______ ____

>  <TORSDO>
F 2

$$$$
=
 OpenBabel11122410433D

 32 38  0  0  1  0  0  0  0  0999 V2000
  188.0440  176.7360  145.0570 C   0  0  1  0  0  3  0  0  0  0  0  0
  190.2080  177.1680  140.3920 C   0  0  2  0  0  3  0  0  0  0  0  0
  186.3120  178.2510  137.4500 C   0  0  0  0  0  3  0  0  0  0  0  0
  187.0500  177.8550  136.3350 C   0  0  0  0  0  3  0  0  0  0  0  0
  192.5480  176.9450  139.3380 C   0  0  0  0  0  0  0  0  0  0  0  0
  193.1050  176.1680  138.2360 C   0  0  0  0  0  0  0  0  0  0  0  0
  189.8070  177.7700  142.8410 C   0  0  1  0  0  3  0  0  0  0  0  0
  187.8810  177.4400  141.2800 N   0  0  0  0  0  2  0  0  0  0  0  0
  193.1600  175.2120  136.2770 N   0  0  0  0  0  0  0  0  0  0  0  0
  187.4540  177.0140  143.6730 C   0  0  2  0  0  3  0  0  0  0  0  0
  186.9040  178.2530  138.7140 C   0  0  0  0  0  3  0  0  0  0  0  0
  188.8500  177.8990  140.2660 C   0  0  2  0  0  3  0  0  0  0  0  0
  188.2380  177.8480  138.8830 C   0  0  0  0  0  0  0  0  0  0  0  0
  190.4140  177.0910  137.9030 C   0  0  0  0  0  0  0  0  0  0  0  0
  194.3360  175.0390  136.9190 C   0  0  0  0  0  3  0  0  0  0  0  0
  189.5690  176.4910  145.0490 C   0  0  0  0  0  2  0  0  0  0  0  0
  188.5010  177.0060  142.5400 C   0  0  2  0  0  3  0  0  0  0  0  0
  194.3360  175.6260  138.1450 N   0  0  0  0  0  0  0  0  0  0  0  0
  190.4020  177.4750  144.2190 C   0  0  0  0  0  2  0  0  0  0  0  0
  187.6320  178.1510  144.6730 C   0  0  1  0  0  3  0  0  0  0  0  0
  188.3850  177.4730  136.4830 C   0  0  0  0  0  3  0  0  0  0  0  0
  188.9960  177.4790  137.7500 C   0  0  0  0  0  0  0  0  0  0  0  0
  191.0200  176.3770  136.9310 C   0  0  0  0  0  3  0  0  0  0  0  0
  190.8440  177.5280  141.7450 C   0  0  0  0  0  2  0  0  0  0  0  0
  193.2660  177.2280  140.3340 O   0  0  0  0  0  0  0  0  0  0  0  0
  192.8100  174.7150  134.9570 C   0  0  0  0  0  1  0  0  0  0  0  0
  191.1280  177.4920  139.2020 C   0  0  1  0  0  3  0  0  0  0  0  0
  192.3970  175.9250  137.1120 C   0  0  0  0  0  0  0  0  0  0  0  0
  186.2930  178.4720  145.3040 C   0  0  0  0  0  2  0  0  0  0  0  0
  186.4810  178.8320  146.7360 C   0  0  0  0  0  0  0  0  0  0  0  0
  187.5210  178.2220  147.4920 N   0  0  0  0  0  1  0  0  0  0  0  0
  185.7020  179.6520  147.2880 O   0  0  0  0  0  0  0  0  0  0  0  0
  1 16  1  6  0  0  0
  2 24  1  1  0  0  0
  3 11  1  0  0  0  0
  4 21  1  0  0  0  0
  4  3  2  0  0  0  0
  5 25  2  0  0  0  0
  6  5  1  0  0  0  0
  7 24  1  6  0  0  0
  7 19  1  0  0  0  0
  8 17  1  0  0  0  0
  9 15  1  0  0  0  0
  9 28  1  0  0  0  0
 10 20  1  0  0  0  0
 10  1  1  0  0  0  0
 11 13  2  0  0  0  0
 12  2  1  0  0  0  0
 12  8  1  0  0  0  0
 13 12  1  0  0  0  0
 14 27  1  0  0  0  0
 15 18  2  0  0  0  0
 17  7  1  0  0  0  0
 17 10  1  0  0  0  0
 18  6  1  0  0  0  0
 19 16  1  0  0  0  0
 20  1  1  0  0  0  0
 20 29  1  0  0  0  0
 21 22  2  0  0  0  0
 22 14  1  0  0  0  0
 22 13  1  0  0  0  0
 23 28  1  0  0  0  0
 23 14  2  0  0  0  0
 26  9  1  0  0  0  0
 27  5  1  0  0  0  0
 27  2  1  0  0  0  0
 28  6  2  0  0  0  0
 29 30  1  0  0  0  0
 30 32  2  0  0  0  0
 30 31  1  0  0  0  0
M  END
>  <MODEL>
9

>  <REMARK>
 VINA RESULT:      -8.6      1.519      2.085
  Name = 
  2 active torsions:
  status: ('A' for Active; 'I' for Inactive)
    1  A    between atoms: C_20  and  C_29
    2  A    between atoms: C_29  and  C_30
                            x       y       z     vdW  Elec       q    Type
                         _______ _______ _______ _____ _____    ______ ____

>  <TORSDO>
F 2

$$$$
