=
 OpenBabel11122411443D

 37 43  0  0  1  0  0  0  0  0999 V2000
  181.2130  178.5380  137.9670 C   0  0  2  0  0  3  0  0  0  0  0  0
  184.5100  175.7030  136.2790 C   0  0  1  0  0  0  0  0  0  0  0  0
  185.8660  178.2530  139.2140 C   0  0  0  0  0  0  0  0  0  0  0  0
  183.2470  178.8440  142.0650 C   0  0  0  0  0  2  0  0  0  0  0  0
  186.4310  177.0200  137.2370 C   0  0  0  0  0  0  0  0  0  0  0  0
  184.6300  178.7230  139.9410 C   0  0  2  0  0  3  0  0  0  0  0  0
  179.9760  178.8540  140.0500 N   0  0  0  0  0  0  0  0  0  0  0  0
  185.5120  177.6580  138.0480 C   0  0  0  0  0  0  0  0  0  0  0  0
  184.5270  178.2730  141.4280 C   0  0  1  0  0  3  0  0  0  0  0  0
  187.7510  177.0770  137.5720 N   0  0  0  0  0  0  0  0  0  0  0  0
  180.3010  177.8870  139.0080 C   0  0  0  0  0  2  0  0  0  0  0  0
  184.1290  177.5700  137.8730 N   0  0  0  0  0  0  0  0  0  0  0  0
  184.5780  174.6660  137.2100 O   0  0  0  0  0  1  0  0  0  0  0  0
  187.6230  178.8520  140.8900 C   0  0  0  0  0  2  0  0  0  0  0  0
  188.1590  177.7080  138.7180 C   0  0  0  0  0  3  0  0  0  0  0  0
  183.5320  176.7840  136.7920 C   0  0  0  0  0  2  0  0  0  0  0  0
  181.2160  179.3220  140.6930 C   0  0  1  0  0  3  0  0  0  0  0  0
  181.9690  178.2480  141.5020 C   0  0  0  0  0  2  0  0  0  0  0  0
  187.2150  178.3120  139.5730 C   0  0  0  0  0  0  0  0  0  0  0  0
  183.4790  178.1130  139.0650 C   0  0  2  0  0  3  0  0  0  0  0  0
  185.9290  176.2710  136.0370 C   0  0  0  0  0  2  0  0  0  0  0  0
  185.7350  178.7520  142.2830 C   0  0  2  0  0  3  0  0  0  0  0  0
  183.9790  175.1510  134.9740 C   0  0  0  0  0  1  0  0  0  0  0  0
  182.0510  180.0030  139.7660 O   0  0  0  0  0  0  0  0  0  0  0  0
  179.1150  178.2010  141.0250 C   0  0  0  0  0  1  0  0  0  0  0  0
  182.4250  179.1630  138.6820 C   0  0  2  0  0  3  0  0  0  0  0  0
  186.9700  178.0680  141.9220 N   0  0  0  0  0  2  0  0  0  0  0  0
  184.3610  179.0750  144.3820 C   0  0  0  0  0  3  0  0  0  0  0  0
  185.5200  178.5850  143.7610 C   0  0  0  0  0  0  0  0  0  0  0  0
  186.4900  177.9270  144.5240 C   0  0  0  0  0  3  0  0  0  0  0  0
  187.2510  177.1250  146.6360 F   0  0  0  0  0  0  0  0  0  0  0  0
  185.1540  178.2530  146.5180 C   0  0  0  0  0  3  0  0  0  0  0  0
  186.3080  177.7610  145.9010 C   0  0  0  0  0  0  0  0  0  0  0  0
  184.1800  178.9090  145.7580 C   0  0  0  0  0  3  0  0  0  0  0  0
  180.4620  179.5770  137.1290 C   0  0  1  0  0  3  0  0  0  0  0  0
  181.1780  179.8190  135.8120 C   0  0  0  0  0  1  0  0  0  0  0  0
  179.1130  179.1170  136.8480 N   0  0  0  0  0  1  0  0  0  0  0  0
  1 35  1  1  0  0  0
  1 26  1  0  0  0  0
  1 11  1  0  0  0  0
  2 23  1  6  0  0  0
  2 16  1  0  0  0  0
  2 13  1  0  0  0  0
  3 19  1  0  0  0  0
  5 10  2  0  0  0  0
  5  8  1  0  0  0  0
  6  3  1  6  0  0  0
  6  9  1  0  0  0  0
  7 17  1  0  0  0  0
  7 25  1  0  0  0  0
  8  3  2  0  0  0  0
  9  4  1  1  0  0  0
  9 22  1  0  0  0  0
 10 15  1  0  0  0  0
 11  7  1  0  0  0  0
 12  8  1  0  0  0  0
 14 27  1  0  0  0  0
 15 19  2  0  0  0  0
 16 12  1  0  0  0  0
 17 18  1  6  0  0  0
 18  4  1  0  0  0  0
 19 14  1  0  0  0  0
 20 12  1  6  0  0  0
 20  6  1  0  0  0  0
 21  2  1  0  0  0  0
 21  5  1  0  0  0  0
 22 29  1  1  0  0  0
 24 17  1  0  0  0  0
 26 20  1  0  0  0  0
 26 24  1  1  0  0  0
 27 22  1  0  0  0  0
 28 34  1  0  0  0  0
 29 28  2  0  0  0  0
 29 30  1  0  0  0  0
 30 33  2  0  0  0  0
 33 32  1  0  0  0  0
 33 31  1  0  0  0  0
 34 32  2  0  0  0  0
 35 36  1  6  0  0  0
 37 35  1  0  0  0  0
M  END
>  <MODEL>
1

>  <REMARK>
 VINA RESULT:      -8.7      0.000      0.000
  Name = 
  2 active torsions:
  status: ('A' for Active; 'I' for Inactive)
    1  A    between atoms: C_1  and  C_4
    2  A    between atoms: C_23  and  C_30
                            x       y       z     vdW  Elec       q    Type
                         _______ _______ _______ _____ _____    ______ ____

>  <TORSDO>
F 2

$$$$
=
 OpenBabel11122411443D

 37 43  0  0  1  0  0  0  0  0999 V2000
  183.3520  178.7150  139.9740 C   0  0  2  0  0  3  0  0  0  0  0  0
  184.3170  175.5900  136.6490 C   0  0  1  0  0  0  0  0  0  0  0  0
  187.6360  177.5690  138.0700 C   0  0  0  0  0  0  0  0  0  0  0  0
  187.4790  178.2610  141.9210 C   0  0  0  0  0  2  0  0  0  0  0  0
  186.6280  176.4780  136.1880 C   0  0  0  0  0  0  0  0  0  0  0  0
  187.2200  178.1490  139.3990 C   0  0  2  0  0  3  0  0  0  0  0  0
  183.7360  179.0000  142.3700 N   0  0  0  0  0  0  0  0  0  0  0  0
  186.5390  177.1640  137.3840 C   0  0  0  0  0  0  0  0  0  0  0  0
  187.9650  177.5660  140.6360 C   0  0  1  0  0  3  0  0  0  0  0  0
  187.8580  176.2910  135.6300 N   0  0  0  0  0  0  0  0  0  0  0  0
  183.1650  178.1100  141.3660 C   0  0  0  0  0  2  0  0  0  0  0  0
  185.3520  177.3150  138.1060 N   0  0  0  0  0  0  0  0  0  0  0  0
  184.7420  174.4630  137.3520 O   0  0  0  0  0  1  0  0  0  0  0  0
  190.1240  177.7030  138.2850 C   0  0  0  0  0  2  0  0  0  0  0  0
  188.9920  176.7250  136.2660 C   0  0  0  0  0  3  0  0  0  0  0  0
  184.0830  176.7510  137.6400 C   0  0  0  0  0  2  0  0  0  0  0  0
  185.1700  179.1960  142.0980 C   0  0  1  0  0  3  0  0  0  0  0  0
  186.0400  177.9370  142.2810 C   0  0  0  0  0  2  0  0  0  0  0  0
  188.9030  177.3760  137.5130 C   0  0  0  0  0  0  0  0  0  0  0  0
  185.6850  177.8240  139.4350 C   0  0  2  0  0  3  0  0  0  0  0  0
  185.3660  175.9490  135.5690 C   0  0  0  0  0  2  0  0  0  0  0  0
  189.5070  177.7560  140.5490 C   0  0  2  0  0  3  0  0  0  0  0  0
  183.0070  175.2690  135.9630 C   0  0  0  0  0  1  0  0  0  0  0  0
  185.3740  179.8310  140.8420 O   0  0  0  0  0  0  0  0  0  0  0  0
  183.5470  178.3920  143.6790 C   0  0  0  0  0  1  0  0  0  0  0  0
  184.8390  179.0620  139.7730 C   0  0  2  0  0  3  0  0  0  0  0  0
  190.1050  176.9270  139.5110 N   0  0  0  0  0  2  0  0  0  0  0  0
  190.2210  176.1790  142.3940 C   0  0  0  0  0  3  0  0  0  0  0  0
  190.2130  177.4700  141.8450 C   0  0  0  0  0  0  0  0  0  0  0  0
  190.8750  178.5090  142.5070 C   0  0  0  0  0  3  0  0  0  0  0  0
  192.1770  179.2730  144.3530 F   0  0  0  0  0  0  0  0  0  0  0  0
  191.5420  176.9770  144.2610 C   0  0  0  0  0  3  0  0  0  0  0  0
  191.5390  178.2630  143.7140 C   0  0  0  0  0  0  0  0  0  0  0  0
  190.8840  175.9340  143.6000 C   0  0  0  0  0  3  0  0  0  0  0  0
  182.4600  179.9420  139.7670 C   0  0  1  0  0  3  0  0  0  0  0  0
  182.3740  180.2970  138.2930 C   0  0  0  0  0  1  0  0  0  0  0  0
  181.1200  179.6790  140.2610 N   0  0  0  0  0  1  0  0  0  0  0  0
  1 35  1  1  0  0  0
  1 11  1  0  0  0  0
  2 23  1  6  0  0  0
  2 13  1  0  0  0  0
  2 16  1  0  0  0  0
  4 18  1  0  0  0  0
  5  8  1  0  0  0  0
  6  3  1  6  0  0  0
  6 20  1  0  0  0  0
  6  9  1  0  0  0  0
  7 25  1  0  0  0  0
  8  3  2  0  0  0  0
  8 12  1  0  0  0  0
  9  4  1  1  0  0  0
 10  5  2  0  0  0  0
 10 15  1  0  0  0  0
 11  7  1  0  0  0  0
 14 27  1  0  0  0  0
 15 19  2  0  0  0  0
 16 12  1  0  0  0  0
 17 18  1  6  0  0  0
 17  7  1  0  0  0  0
 19  3  1  0  0  0  0
 19 14  1  0  0  0  0
 20 12  1  6  0  0  0
 20 26  1  0  0  0  0
 21  5  1  0  0  0  0
 21  2  1  0  0  0  0
 22  9  1  0  0  0  0
 22 29  1  1  0  0  0
 24 17  1  0  0  0  0
 26  1  1  0  0  0  0
 26 24  1  1  0  0  0
 27 22  1  0  0  0  0
 28 34  1  0  0  0  0
 29 28  2  0  0  0  0
 29 30  1  0  0  0  0
 30 33  2  0  0  0  0
 33 32  1  0  0  0  0
 33 31  1  0  0  0  0
 34 32  2  0  0  0  0
 35 36  1  6  0  0  0
 35 37  1  0  0  0  0
M  END
>  <MODEL>
2

>  <REMARK>
 VINA RESULT:      -8.6      2.463      3.870
  Name = 
  2 active torsions:
  status: ('A' for Active; 'I' for Inactive)
    1  A    between atoms: C_1  and  C_4
    2  A    between atoms: C_23  and  C_30
                            x       y       z     vdW  Elec       q    Type
                         _______ _______ _______ _____ _____    ______ ____

>  <TORSDO>
F 2

$$$$
=
 OpenBabel11122411443D

 37 43  0  0  1  0  0  0  0  0999 V2000
  182.4030  178.7690  138.4620 C   0  0  2  0  0  3  0  0  0  0  0  0
  184.5300  175.7260  135.6380 C   0  0  1  0  0  0  0  0  0  0  0  0
  187.1270  177.9170  137.9620 C   0  0  0  0  0  0  0  0  0  0  0  0
  185.7670  178.5850  141.5730 C   0  0  0  0  0  2  0  0  0  0  0  0
  186.8090  176.7680  135.8820 C   0  0  0  0  0  0  0  0  0  0  0  0
  186.2920  178.4640  139.0930 C   0  0  2  0  0  3  0  0  0  0  0  0
  182.0240  179.0720  140.8560 N   0  0  0  0  0  0  0  0  0  0  0  0
  186.3180  177.4420  136.9830 C   0  0  0  0  0  0  0  0  0  0  0  0
  186.6620  177.9280  140.5080 C   0  0  1  0  0  3  0  0  0  0  0  0
  188.1600  176.6650  135.7270 N   0  0  0  0  0  0  0  0  0  0  0  0
  181.8430  178.1480  139.7420 C   0  0  0  0  0  2  0  0  0  0  0  0
  184.9610  177.5110  137.3100 N   0  0  0  0  0  0  0  0  0  0  0  0
  184.7930  174.6280  136.4560 O   0  0  0  0  0  1  0  0  0  0  0  0
  189.4190  178.2160  138.9180 C   0  0  0  0  0  2  0  0  0  0  0  0
  189.0170  177.1710  136.6680 C   0  0  0  0  0  3  0  0  0  0  0  0
  183.9320  176.8660  136.4920 C   0  0  0  0  0  2  0  0  0  0  0  0
  183.4570  179.3640  141.0280 C   0  0  1  0  0  3  0  0  0  0  0  0
  184.3100  178.1650  141.4870 C   0  0  0  0  0  2  0  0  0  0  0  0
  188.5130  177.8110  137.8190 C   0  0  0  0  0  0  0  0  0  0  0  0
  184.8420  178.0370  138.6690 C   0  0  2  0  0  3  0  0  0  0  0  0
  185.8310  176.1580  134.9210 C   0  0  0  0  0  2  0  0  0  0  0  0
  188.1430  178.2200  140.8880 C   0  0  2  0  0  3  0  0  0  0  0  0
  183.5120  175.3210  134.5940 C   0  0  0  0  0  1  0  0  0  0  0  0
  183.9910  180.0150  139.8810 O   0  0  0  0  0  0  0  0  0  0  0  0
  181.4870  178.4480  142.0570 C   0  0  0  0  0  1  0  0  0  0  0  0
  183.8560  179.2150  138.7140 C   0  0  2  0  0  3  0  0  0  0  0  0
  189.0790  177.4370  140.0940 N   0  0  0  0  0  2  0  0  0  0  0  0
  187.5250  177.3050  143.1640 C   0  0  0  0  0  3  0  0  0  0  0  0
  188.4400  177.9780  142.3410 C   0  0  0  0  0  0  0  0  0  0  0  0
  189.6520  178.4280  142.8760 C   0  0  0  0  0  3  0  0  0  0  0  0
  191.1210  178.6520  144.7410 F   0  0  0  0  0  0  0  0  0  0  0  0
  189.0320  177.5440  145.0450 C   0  0  0  0  0  3  0  0  0  0  0  0
  189.9480  178.2120  144.2270 C   0  0  0  0  0  0  0  0  0  0  0  0
  187.8210  177.0890  144.5130 C   0  0  0  0  0  3  0  0  0  0  0  0
  181.5390  179.9350  137.9730 C   0  0  1  0  0  3  0  0  0  0  0  0
  181.1850  179.7600  136.5070 C   0  0  0  0  0  1  0  0  0  0  0  0
  180.3090  180.0060  138.7430 N   0  0  0  0  0  1  0  0  0  0  0  0
  1 35  1  1  0  0  0
  1 26  1  0  0  0  0
  1 11  1  0  0  0  0
  2 23  1  6  0  0  0
  2 13  1  0  0  0  0
  2 16  1  0  0  0  0
  5  8  1  0  0  0  0
  6  3  1  6  0  0  0
  6  9  1  0  0  0  0
  7 17  1  0  0  0  0
  7 25  1  0  0  0  0
  8 12  1  0  0  0  0
  8  3  2  0  0  0  0
  9 22  1  0  0  0  0
  9  4  1  1  0  0  0
 10  5  2  0  0  0  0
 10 15  1  0  0  0  0
 11  7  1  0  0  0  0
 14 27  1  0  0  0  0
 15 19  2  0  0  0  0
 16 12  1  0  0  0  0
 17 18  1  6  0  0  0
 18  4  1  0  0  0  0
 19  3  1  0  0  0  0
 19 14  1  0  0  0  0
 20 12  1  6  0  0  0
 20 26  1  0  0  0  0
 20  6  1  0  0  0  0
 21  2  1  0  0  0  0
 21  5  1  0  0  0  0
 22 29  1  1  0  0  0
 24 17  1  0  0  0  0
 26 24  1  1  0  0  0
 27 22  1  0  0  0  0
 28 34  1  0  0  0  0
 29 30  1  0  0  0  0
 29 28  2  0  0  0  0
 30 33  2  0  0  0  0
 33 31  1  0  0  0  0
 33 32  1  0  0  0  0
 34 32  2  0  0  0  0
 35 36  1  6  0  0  0
 35 37  1  0  0  0  0
M  END
>  <MODEL>
3

>  <REMARK>
 VINA RESULT:      -7.9      1.854      2.434
  Name = 
  2 active torsions:
  status: ('A' for Active; 'I' for Inactive)
    1  A    between atoms: C_1  and  C_4
    2  A    between atoms: C_23  and  C_30
                            x       y       z     vdW  Elec       q    Type
                         _______ _______ _______ _____ _____    ______ ____

>  <TORSDO>
F 2

$$$$
=
 OpenBabel11122411443D

 37 43  0  0  1  0  0  0  0  0999 V2000
  182.1730  178.6220  138.5290 C   0  0  2  0  0  3  0  0  0  0  0  0
  184.4310  175.7130  135.6660 C   0  0  1  0  0  0  0  0  0  0  0  0
  186.9310  178.0360  137.9690 C   0  0  0  0  0  0  0  0  0  0  0  0
  185.5800  178.6130  141.5990 C   0  0  0  0  0  2  0  0  0  0  0  0
  186.6510  176.8780  135.8880 C   0  0  0  0  0  0  0  0  0  0  0  0
  186.0800  178.5300  139.1120 C   0  0  2  0  0  3  0  0  0  0  0  0
  181.8070  178.8940  140.9290 N   0  0  0  0  0  0  0  0  0  0  0  0
  186.1370  177.5200  136.9980 C   0  0  0  0  0  0  0  0  0  0  0  0
  186.4970  178.0100  140.5200 C   0  0  1  0  0  3  0  0  0  0  0  0
  188.0040  176.8510  135.7160 N   0  0  0  0  0  0  0  0  0  0  0  0
  181.6640  177.9660  139.8130 C   0  0  0  0  0  2  0  0  0  0  0  0
  184.7830  177.5130  137.3410 N   0  0  0  0  0  0  0  0  0  0  0  0
  184.7640  174.6270  136.4760 O   0  0  0  0  0  1  0  0  0  0  0  0
  189.2140  178.4580  138.8990 C   0  0  0  0  0  2  0  0  0  0  0  0
  188.8430  177.4010  136.6490 C   0  0  0  0  0  3  0  0  0  0  0  0
  183.7810  176.8140  136.5330 C   0  0  0  0  0  2  0  0  0  0  0  0
  183.2240  179.2650  141.0850 C   0  0  1  0  0  3  0  0  0  0  0  0
  184.1470  178.1130  141.5280 C   0  0  0  0  0  2  0  0  0  0  0  0
  188.3190  178.0070  137.8090 C   0  0  0  0  0  0  0  0  0  0  0  0
  184.6510  178.0260  138.7040 C   0  0  2  0  0  3  0  0  0  0  0  0
  185.6970  176.2190  134.9360 C   0  0  0  0  0  2  0  0  0  0  0  0
  187.9640  178.3830  140.8840 C   0  0  2  0  0  3  0  0  0  0  0  0
  183.4250  175.2560  134.6320 C   0  0  0  0  0  1  0  0  0  0  0  0
  183.7060  179.9490  139.9350 O   0  0  0  0  0  0  0  0  0  0  0  0
  181.3200  178.2370  142.1330 C   0  0  0  0  0  1  0  0  0  0  0  0
  183.6020  179.1470  138.7660 C   0  0  2  0  0  3  0  0  0  0  0  0
  188.9320  177.6560  140.0760 N   0  0  0  0  0  2  0  0  0  0  0  0
  189.5910  178.3550  142.8210 C   0  0  0  0  0  3  0  0  0  0  0  0
  188.2920  178.1520  142.3320 C   0  0  0  0  0  0  0  0  0  0  0  0
  187.2820  177.7310  143.2040 C   0  0  0  0  0  3  0  0  0  0  0  0
  186.5860  177.1020  145.3960 F   0  0  0  0  0  0  0  0  0  0  0  0
  188.8630  177.7110  145.0390 C   0  0  0  0  0  3  0  0  0  0  0  0
  187.5670  177.5100  144.5560 C   0  0  0  0  0  0  0  0  0  0  0  0
  189.8750  178.1340  144.1720 C   0  0  0  0  0  3  0  0  0  0  0  0
  181.2400  179.7400  138.0560 C   0  0  1  0  0  3  0  0  0  0  0  0
  181.2040  179.8000  136.5390 C   0  0  0  0  0  1  0  0  0  0  0  0
  179.8910  179.5090  138.5450 N   0  0  0  0  0  1  0  0  0  0  0  0
  1 35  1  1  0  0  0
  1 26  1  0  0  0  0
  1 11  1  0  0  0  0
  2 23  1  6  0  0  0
  2 13  1  0  0  0  0
  2 16  1  0  0  0  0
  5  8  1  0  0  0  0
  6  3  1  6  0  0  0
  6  9  1  0  0  0  0
  7 17  1  0  0  0  0
  7 25  1  0  0  0  0
  8 12  1  0  0  0  0
  8  3  2  0  0  0  0
  9 22  1  0  0  0  0
  9  4  1  1  0  0  0
 10  5  2  0  0  0  0
 10 15  1  0  0  0  0
 11  7  1  0  0  0  0
 14 27  1  0  0  0  0
 15 19  2  0  0  0  0
 16 12  1  0  0  0  0
 17 18  1  6  0  0  0
 18  4  1  0  0  0  0
 19  3  1  0  0  0  0
 19 14  1  0  0  0  0
 20 12  1  6  0  0  0
 20 26  1  0  0  0  0
 20  6  1  0  0  0  0
 21  2  1  0  0  0  0
 21  5  1  0  0  0  0
 22 29  1  1  0  0  0
 24 17  1  0  0  0  0
 26 24  1  1  0  0  0
 27 22  1  0  0  0  0
 28 34  1  0  0  0  0
 29 28  2  0  0  0  0
 29 30  1  0  0  0  0
 30 33  2  0  0  0  0
 33 32  1  0  0  0  0
 33 31  1  0  0  0  0
 34 32  2  0  0  0  0
 35 36  1  6  0  0  0
 35 37  1  0  0  0  0
M  END
>  <MODEL>
4

>  <REMARK>
 VINA RESULT:      -7.8      1.588      2.272
  Name = 
  2 active torsions:
  status: ('A' for Active; 'I' for Inactive)
    1  A    between atoms: C_1  and  C_4
    2  A    between atoms: C_23  and  C_30
                            x       y       z     vdW  Elec       q    Type
                         _______ _______ _______ _____ _____    ______ ____

>  <TORSDO>
F 2

$$$$
=
 OpenBabel11122411443D

 37 43  0  0  1  0  0  0  0  0999 V2000
  184.2510  178.5330  139.0360 C   0  0  2  0  0  3  0  0  0  0  0  0
  186.7130  175.4390  136.5630 C   0  0  1  0  0  0  0  0  0  0  0  0
  188.9760  177.5730  139.2610 C   0  0  0  0  0  0  0  0  0  0  0  0
  187.0960  178.2770  142.6240 C   0  0  0  0  0  2  0  0  0  0  0  0
  188.9520  176.4280  137.1540 C   0  0  0  0  0  0  0  0  0  0  0  0
  187.9900  178.1400  140.2520 C   0  0  2  0  0  3  0  0  0  0  0  0
  183.5180  178.8480  141.3450 N   0  0  0  0  0  0  0  0  0  0  0  0
  188.3140  177.1150  138.1690 C   0  0  0  0  0  0  0  0  0  0  0  0
  188.1280  177.5970  141.7060 C   0  0  1  0  0  3  0  0  0  0  0  0
  190.3080  176.2940  137.2060 N   0  0  0  0  0  0  0  0  0  0  0  0
  183.4880  177.9270  140.2140 C   0  0  0  0  0  2  0  0  0  0  0  0
  186.9260  177.2160  138.2850 N   0  0  0  0  0  0  0  0  0  0  0  0
  186.8240  174.3350  137.4100 O   0  0  0  0  0  1  0  0  0  0  0  0
  191.1010  177.8210  140.5550 C   0  0  0  0  0  2  0  0  0  0  0  0
  191.0230  176.7820  138.2680 C   0  0  0  0  0  3  0  0  0  0  0  0
  186.0190  176.5930  137.3190 C   0  0  0  0  0  2  0  0  0  0  0  0
  184.9150  179.1070  141.7340 C   0  0  1  0  0  3  0  0  0  0  0  0
  185.6600  177.8900  142.3150 C   0  0  0  0  0  2  0  0  0  0  0  0
  190.3640  177.4350  139.3300 C   0  0  0  0  0  0  0  0  0  0  0  0
  186.6120  177.7460  139.6110 C   0  0  2  0  0  3  0  0  0  0  0  0
  188.1190  175.8390  136.0540 C   0  0  0  0  0  2  0  0  0  0  0  0
  189.5400  177.8560  142.3080 C   0  0  2  0  0  3  0  0  0  0  0  0
  185.8580  175.0550  135.3750 C   0  0  0  0  0  1  0  0  0  0  0  0
  185.6320  179.7440  140.6840 O   0  0  0  0  0  0  0  0  0  0  0  0
  182.7910  178.2380  142.4490 C   0  0  0  0  0  1  0  0  0  0  0  0
  185.6580  178.9460  139.5080 C   0  0  2  0  0  3  0  0  0  0  0  0
  190.5680  177.0510  141.6640 N   0  0  0  0  0  2  0  0  0  0  0  0
  188.4880  177.8230  144.6090 C   0  0  0  0  0  3  0  0  0  0  0  0
  189.6070  177.6090  143.7890 C   0  0  0  0  0  0  0  0  0  0  0  0
  190.8030  177.1550  144.3530 C   0  0  0  0  0  3  0  0  0  0  0  0
  192.0470  176.4800  146.2720 F   0  0  0  0  0  0  0  0  0  0  0  0
  189.7710  177.1350  146.5450 C   0  0  0  0  0  3  0  0  0  0  0  0
  190.8860  176.9180  145.7300 C   0  0  0  0  0  0  0  0  0  0  0  0
  188.5720  177.5860  145.9840 C   0  0  0  0  0  3  0  0  0  0  0  0
  183.4980  179.7180  138.4240 C   0  0  1  0  0  3  0  0  0  0  0  0
  182.0890  179.8020  138.9830 C   0  0  0  0  0  1  0  0  0  0  0  0
  184.1910  180.9610  138.7180 N   0  0  0  0  0  1  0  0  0  0  0  0
  1 35  1  1  0  0  0
  1 26  1  0  0  0  0
  1 11  1  0  0  0  0
  2 23  1  6  0  0  0
  2 16  1  0  0  0  0
  2 13  1  0  0  0  0
  3 19  1  0  0  0  0
  5 10  2  0  0  0  0
  5  8  1  0  0  0  0
  6  3  1  6  0  0  0
  6  9  1  0  0  0  0
  7 17  1  0  0  0  0
  7 25  1  0  0  0  0
  8 12  1  0  0  0  0
  8  3  2  0  0  0  0
  9 22  1  0  0  0  0
  9  4  1  1  0  0  0
 10 15  1  0  0  0  0
 11  7  1  0  0  0  0
 14 27  1  0  0  0  0
 15 19  2  0  0  0  0
 16 12  1  0  0  0  0
 17 18  1  6  0  0  0
 18  4  1  0  0  0  0
 19 14  1  0  0  0  0
 20 12  1  6  0  0  0
 20  6  1  0  0  0  0
 21  2  1  0  0  0  0
 21  5  1  0  0  0  0
 22 29  1  1  0  0  0
 24 17  1  0  0  0  0
 26 20  1  0  0  0  0
 26 24  1  1  0  0  0
 27 22  1  0  0  0  0
 28 34  1  0  0  0  0
 29 30  1  0  0  0  0
 29 28  2  0  0  0  0
 30 33  2  0  0  0  0
 33 31  1  0  0  0  0
 33 32  1  0  0  0  0
 34 32  2  0  0  0  0
 35 37  1  0  0  0  0
 35 36  1  1  0  0  0
M  END
>  <MODEL>
5

>  <REMARK>
 VINA RESULT:      -7.5      2.489      3.617
  Name = 
  2 active torsions:
  status: ('A' for Active; 'I' for Inactive)
    1  A    between atoms: C_1  and  C_4
    2  A    between atoms: C_23  and  C_30
                            x       y       z     vdW  Elec       q    Type
                         _______ _______ _______ _____ _____    ______ ____

>  <TORSDO>
F 2

$$$$
=
 OpenBabel11122411443D

 37 43  0  0  1  0  0  0  0  0999 V2000
  191.4430  176.4300  138.7060 C   0  0  2  0  0  3  0  0  0  0  0  0
  189.5520  176.5470  142.9680 C   0  0  1  0  0  0  0  0  0  0  0  0
  187.1810  178.2430  140.0600 C   0  0  0  0  0  0  0  0  0  0  0  0
  187.3510  176.3430  136.6400 C   0  0  0  0  0  2  0  0  0  0  0  0
  187.8020  178.2590  142.3760 C   0  0  0  0  0  0  0  0  0  0  0  0
  187.7040  177.7060  138.7510 C   0  0  2  0  0  3  0  0  0  0  0  0
  191.0500  175.3100  136.5710 N   0  0  0  0  0  0  0  0  0  0  0  0
  188.0750  177.9920  141.0480 C   0  0  0  0  0  0  0  0  0  0  0  0
  186.7150  176.7940  137.9680 C   0  0  1  0  0  3  0  0  0  0  0  0
  186.6340  178.8870  142.6910 N   0  0  0  0  0  0  0  0  0  0  0  0
  191.2920  175.0860  137.9910 C   0  0  0  0  0  2  0  0  0  0  0  0
  189.1790  177.2520  140.6160 N   0  0  0  0  0  0  0  0  0  0  0  0
  188.6780  175.4590  142.9840 O   0  0  0  0  0  1  0  0  0  0  0  0
  184.9320  179.0650  139.3360 C   0  0  0  0  0  2  0  0  0  0  0  0
  185.7200  179.2020  141.7190 C   0  0  0  0  0  3  0  0  0  0  0  0
  190.1550  176.6950  141.5540 C   0  0  0  0  0  2  0  0  0  0  0  0
  189.8260  176.1090  136.3980 C   0  0  1  0  0  3  0  0  0  0  0  0
  188.5250  175.3970  136.8180 C   0  0  0  0  0  2  0  0  0  0  0  0
  185.9760  178.8790  140.3700 C   0  0  0  0  0  0  0  0  0  0  0  0
  188.9870  176.9230  139.2050 C   0  0  2  0  0  3  0  0  0  0  0  0
  188.7950  177.8210  143.4130 C   0  0  0  0  0  2  0  0  0  0  0  0
  185.3770  177.5140  137.6310 C   0  0  2  0  0  3  0  0  0  0  0  0
  190.6750  176.2830  143.9470 C   0  0  0  0  0  1  0  0  0  0  0  0
  189.9650  177.3970  136.9850 O   0  0  0  0  0  0  0  0  0  0  0  0
  190.9050  174.0140  135.9240 C   0  0  0  0  0  1  0  0  0  0  0  0
  190.2240  177.3120  138.3800 C   0  0  2  0  0  3  0  0  0  0  0  0
  184.5710  177.7580  138.8200 N   0  0  0  0  0  2  0  0  0  0  0  0
  184.0040  177.4090  135.5090 C   0  0  0  0  0  3  0  0  0  0  0  0
  184.5350  176.7650  136.6370 C   0  0  0  0  0  0  0  0  0  0  0  0
  184.2820  175.4040  136.8410 C   0  0  0  0  0  3  0  0  0  0  0  0
  183.2570  173.3720  136.1300 F   0  0  0  0  0  0  0  0  0  0  0  0
  182.9710  175.3340  134.8060 C   0  0  0  0  0  3  0  0  0  0  0  0
  183.5010  174.6890  135.9270 C   0  0  0  0  0  0  0  0  0  0  0  0
  183.2230  176.6930  134.5970 C   0  0  0  0  0  3  0  0  0  0  0  0
  192.7540  177.1260  138.3290 C   0  0  1  0  0  3  0  0  0  0  0  0
  193.4820  177.6040  139.5730 C   0  0  0  0  0  1  0  0  0  0  0  0
  193.6200  176.2120  137.6050 N   0  0  0  0  0  1  0  0  0  0  0  0
  1 35  1  6  0  0  0
  2 13  1  0  0  0  0
  2 21  1  0  0  0  0
  2 23  1  1  0  0  0
  3 19  2  0  0  0  0
  3  8  1  0  0  0  0
  4 18  1  0  0  0  0
  5 10  1  0  0  0  0
  5 21  1  0  0  0  0
  6 20  1  0  0  0  0
  6  3  1  1  0  0  0
  7 11  1  0  0  0  0
  8  5  2  0  0  0  0
  9  4  1  6  0  0  0
  9  6  1  0  0  0  0
 11  1  1  0  0  0  0
 12  8  1  0  0  0  0
 12 16  1  0  0  0  0
 14 19  1  0  0  0  0
 15 10  2  0  0  0  0
 16  2  1  0  0  0  0
 17  7  1  0  0  0  0
 17 18  1  1  0  0  0
 17 24  1  0  0  0  0
 19 15  1  0  0  0  0
 20 12  1  1  0  0  0
 22 29  1  6  0  0  0
 22  9  1  0  0  0  0
 22 27  1  0  0  0  0
 25  7  1  0  0  0  0
 26 24  1  6  0  0  0
 26  1  1  0  0  0  0
 26 20  1  0  0  0  0
 27 14  1  0  0  0  0
 28 29  1  0  0  0  0
 29 30  2  0  0  0  0
 32 33  2  0  0  0  0
 33 31  1  0  0  0  0
 33 30  1  0  0  0  0
 34 32  1  0  0  0  0
 34 28  2  0  0  0  0
 35 36  1  1  0  0  0
 37 35  1  0  0  0  0
M  END
>  <MODEL>
6

>  <REMARK>
 VINA RESULT:      -7.3      3.914      8.784
  Name = 
  2 active torsions:
  status: ('A' for Active; 'I' for Inactive)
    1  A    between atoms: C_1  and  C_4
    2  A    between atoms: C_23  and  C_30
                            x       y       z     vdW  Elec       q    Type
                         _______ _______ _______ _____ _____    ______ ____

>  <TORSDO>
F 2

$$$$
=
 OpenBabel11122411443D

 37 43  0  0  1  0  0  0  0  0999 V2000
  188.2760  177.6870  138.7520 C   0  0  2  0  0  3  0  0  0  0  0  0
  188.9080  176.2410  143.1410 C   0  0  1  0  0  0  0  0  0  0  0  0
  185.6780  178.7520  142.6770 C   0  0  0  0  0  0  0  0  0  0  0  0
  183.7510  178.1710  139.3180 C   0  0  0  0  0  2  0  0  0  0  0  0
  187.4010  177.9840  144.1570 C   0  0  0  0  0  0  0  0  0  0  0  0
  185.3560  178.7250  141.2040 C   0  0  2  0  0  3  0  0  0  0  0  0
  186.6630  177.3670  136.9450 N   0  0  0  0  0  0  0  0  0  0  0  0
  186.9010  178.2060  142.8890 C   0  0  0  0  0  0  0  0  0  0  0  0
  183.9740  178.1060  140.8400 C   0  0  1  0  0  3  0  0  0  0  0  0
  186.6810  178.4180  145.2300 N   0  0  0  0  0  0  0  0  0  0  0  0
  187.5660  176.6720  137.8550 C   0  0  0  0  0  2  0  0  0  0  0  0
  187.4890  177.7060  141.7240 N   0  0  0  0  0  0  0  0  0  0  0  0
  188.0090  175.1830  143.2850 O   0  0  0  0  0  1  0  0  0  0  0  0
  183.5430  179.6880  143.5820 C   0  0  0  0  0  2  0  0  0  0  0  0
  185.4590  179.0170  145.0620 C   0  0  0  0  0  3  0  0  0  0  0  0
  188.7070  176.8940  141.7560 C   0  0  0  0  0  2  0  0  0  0  0  0
  185.6700  178.1300  137.7200 C   0  0  1  0  0  3  0  0  0  0  0  0
  184.6810  177.2670  138.5280 C   0  0  0  0  0  2  0  0  0  0  0  0
  184.9260  179.1940  143.7690 C   0  0  0  0  0  0  0  0  0  0  0  0
  186.5460  177.8820  140.6210 C   0  0  2  0  0  3  0  0  0  0  0  0
  188.7030  177.2500  144.2960 C   0  0  0  0  0  2  0  0  0  0  0  0
  182.7890  178.8460  141.5240 C   0  0  2  0  0  3  0  0  0  0  0  0
  190.3170  175.6950  143.2180 C   0  0  0  0  0  1  0  0  0  0  0  0
  186.2940  179.1370  138.5070 O   0  0  0  0  0  0  0  0  0  0  0  0
  186.0010  176.3730  136.1120 C   0  0  0  0  0  1  0  0  0  0  0  0
  187.2210  178.5810  139.4310 C   0  0  2  0  0  3  0  0  0  0  0  0
  182.7640  178.6300  142.9640 N   0  0  0  0  0  2  0  0  0  0  0  0
  180.5580  179.4310  140.4850 C   0  0  0  0  0  3  0  0  0  0  0  0
  181.4480  178.4590  140.9670 C   0  0  0  0  0  0  0  0  0  0  0  0
  181.0870  177.1080  140.9290 C   0  0  0  0  0  3  0  0  0  0  0  0
  179.4970  175.4180  140.3800 F   0  0  0  0  0  0  0  0  0  0  0  0
  178.9570  177.6980  139.9360 C   0  0  0  0  0  3  0  0  0  0  0  0
  179.8430  176.7270  140.4140 C   0  0  0  0  0  0  0  0  0  0  0  0
  179.3150  179.0490  139.9700 C   0  0  0  0  0  3  0  0  0  0  0  0
  189.2930  178.5210  137.9680 C   0  0  1  0  0  3  0  0  0  0  0  0
  189.8050  177.7470  136.7660 C   0  0  0  0  0  1  0  0  0  0  0  0
  188.6800  179.7530  137.5010 N   0  0  0  0  0  1  0  0  0  0  0  0
  1 35  1  6  0  0  0
  1 26  1  0  0  0  0
  2 23  1  1  0  0  0
  2 13  1  0  0  0  0
  2 21  1  0  0  0  0
  3  8  2  0  0  0  0
  3 19  1  0  0  0  0
  5 21  1  0  0  0  0
  5 10  2  0  0  0  0
  6  3  1  1  0  0  0
  7 17  1  0  0  0  0
  7 11  1  0  0  0  0
  8  5  1  0  0  0  0
  9  4  1  6  0  0  0
  9  6  1  0  0  0  0
  9 22  1  0  0  0  0
 11  1  1  0  0  0  0
 12 16  1  0  0  0  0
 12  8  1  0  0  0  0
 14 19  1  0  0  0  0
 15 10  1  0  0  0  0
 16  2  1  0  0  0  0
 17 24  1  0  0  0  0
 17 18  1  1  0  0  0
 18  4  1  0  0  0  0
 19 15  2  0  0  0  0
 20  6  1  0  0  0  0
 20 12  1  1  0  0  0
 22 29  1  6  0  0  0
 22 27  1  0  0  0  0
 25  7  1  0  0  0  0
 26 24  1  6  0  0  0
 26 20  1  0  0  0  0
 27 14  1  0  0  0  0
 28 29  1  0  0  0  0
 30 29  2  0  0  0  0
 31 33  1  0  0  0  0
 32 34  1  0  0  0  0
 32 33  2  0  0  0  0
 33 30  1  0  0  0  0
 34 28  2  0  0  0  0
 35 36  1  6  0  0  0
 37 35  1  0  0  0  0
M  END
>  <MODEL>
7

>  <REMARK>
 VINA RESULT:      -7.1      2.870      6.717
  Name = 
  2 active torsions:
  status: ('A' for Active; 'I' for Inactive)
    1  A    between atoms: C_1  and  C_4
    2  A    between atoms: C_23  and  C_30
                            x       y       z     vdW  Elec       q    Type
                         _______ _______ _______ _____ _____    ______ ____

>  <TORSDO>
F 2

$$$$
=
 OpenBabel11122411443D

 37 43  0  0  1  0  0  0  0  0999 V2000
  182.4700  177.8970  136.8560 C   0  0  2  0  0  3  0  0  0  0  0  0
  180.2900  181.9270  137.7270 C   0  0  1  0  0  0  0  0  0  0  0  0
  180.8340  179.5860  141.0700 C   0  0  0  0  0  0  0  0  0  0  0  0
  184.2580  177.6860  141.0740 C   0  0  0  0  0  2  0  0  0  0  0  0
  179.4560  181.2300  139.9980 C   0  0  0  0  0  0  0  0  0  0  0  0
  181.9230  178.6090  140.7040 C   0  0  2  0  0  3  0  0  0  0  0  0
  184.6240  176.8500  137.3420 N   0  0  0  0  0  0  0  0  0  0  0  0
  180.3700  180.1950  139.9510 C   0  0  0  0  0  0  0  0  0  0  0  0
  183.2460  178.7580  141.5140 C   0  0  1  0  0  3  0  0  0  0  0  0
  178.9310  181.5850  141.2060 N   0  0  0  0  0  0  0  0  0  0  0  0
  183.9900  178.0190  136.7430 C   0  0  0  0  0  2  0  0  0  0  0  0
  181.0600  179.8210  138.7960 N   0  0  0  0  0  0  0  0  0  0  0  0
  181.2990  182.7650  138.2030 O   0  0  0  0  0  1  0  0  0  0  0  0
  180.8750  179.3840  143.5630 C   0  0  0  0  0  2  0  0  0  0  0  0
  179.3370  180.9650  142.3590 C   0  0  0  0  0  3  0  0  0  0  0  0
  180.8640  180.5080  137.5170 C   0  0  0  0  0  2  0  0  0  0  0  0
  184.2350  176.7490  138.7590 C   0  0  1  0  0  3  0  0  0  0  0  0
  184.7730  177.8790  139.6580 C   0  0  0  0  0  2  0  0  0  0  0  0
  180.3100  179.9460  142.3150 C   0  0  0  0  0  0  0  0  0  0  0  0
  182.1360  178.9080  139.1780 C   0  0  2  0  0  3  0  0  0  0  0  0
  179.1040  181.9340  138.7210 C   0  0  0  0  0  2  0  0  0  0  0  0
  183.0280  178.6030  143.0470 C   0  0  2  0  0  3  0  0  0  0  0  0
  179.8090  182.4560  136.3930 C   0  0  0  0  0  1  0  0  0  0  0  0
  182.8330  176.5540  138.8950 O   0  0  0  0  0  0  0  0  0  0  0  0
  186.0670  177.0030  137.2230 C   0  0  0  0  0  1  0  0  0  0  0  0
  182.0960  177.6300  138.3260 C   0  0  2  0  0  3  0  0  0  0  0  0
  182.2860  179.7210  143.6120 N   0  0  0  0  0  2  0  0  0  0  0  0
  185.4690  177.9580  143.1980 C   0  0  0  0  0  3  0  0  0  0  0  0
  184.3110  178.4530  143.8150 C   0  0  0  0  0  0  0  0  0  0  0  0
  184.3460  178.8170  145.1660 C   0  0  0  0  0  3  0  0  0  0  0  0
  185.5600  179.0380  147.2060 F   0  0  0  0  0  0  0  0  0  0  0  0
  186.6820  178.1890  145.2820 C   0  0  0  0  0  3  0  0  0  0  0  0
  185.5300  178.6850  145.8990 C   0  0  0  0  0  0  0  0  0  0  0  0
  186.6520  177.8270  143.9320 C   0  0  0  0  0  3  0  0  0  0  0  0
  181.9200  176.8050  135.9340 C   0  0  1  0  0  3  0  0  0  0  0  0
  180.4180  176.9500  135.7700 C   0  0  0  0  0  1  0  0  0  0  0  0
  182.5420  176.8930  134.6240 N   0  0  0  0  0  1  0  0  0  0  0  0
  1 35  1  6  0  0  0
  1 26  1  0  0  0  0
  2 23  1  6  0  0  0
  2 13  1  0  0  0  0
  2 21  1  0  0  0  0
  3 19  1  0  0  0  0
  5 10  2  0  0  0  0
  6  3  1  1  0  0  0
  6  9  1  0  0  0  0
  7 17  1  0  0  0  0
  8  5  1  0  0  0  0
  8  3  2  0  0  0  0
  9  4  1  6  0  0  0
  9 22  1  0  0  0  0
 10 15  1  0  0  0  0
 11  1  1  0  0  0  0
 11  7  1  0  0  0  0
 12  8  1  0  0  0  0
 14 27  1  0  0  0  0
 16  2  1  0  0  0  0
 16 12  1  0  0  0  0
 17 24  1  0  0  0  0
 17 18  1  1  0  0  0
 18  4  1  0  0  0  0
 19 15  2  0  0  0  0
 19 14  1  0  0  0  0
 20 12  1  6  0  0  0
 20  6  1  0  0  0  0
 21  5  1  0  0  0  0
 22 27  1  0  0  0  0
 22 29  1  1  0  0  0
 25  7  1  0  0  0  0
 26 24  1  1  0  0  0
 26 20  1  0  0  0  0
 28 29  2  0  0  0  0
 28 34  1  0  0  0  0
 29 30  1  0  0  0  0
 30 33  2  0  0  0  0
 32 33  1  0  0  0  0
 33 31  1  0  0  0  0
 34 32  2  0  0  0  0
 35 36  1  6  0  0  0
 37 35  1  0  0  0  0
M  END
>  <MODEL>
8

>  <REMARK>
 VINA RESULT:      -6.9      2.057      5.425
  Name = 
  2 active torsions:
  status: ('A' for Active; 'I' for Inactive)
    1  A    between atoms: C_1  and  C_4
    2  A    between atoms: C_23  and  C_30
                            x       y       z     vdW  Elec       q    Type
                         _______ _______ _______ _____ _____    ______ ____

>  <TORSDO>
F 2

$$$$
