=
 OpenBabel11122411373D

 37 42  0  0  1  0  0  0  0  0999 V2000
  179.8170  179.1730  141.3210 C   0  0  0  0  0  0  0  0  0  0  0  0
  182.4920  177.0430  139.1250 C   0  0  2  0  0  3  0  0  0  0  0  0
  185.8560  178.5890  138.9580 O   0  0  0  0  0  0  0  0  0  0  0  0
  180.2340  177.2610  139.7550 C   0  0  1  0  0  3  0  0  0  0  0  0
  183.8460  177.3360  139.6810 C   0  0  1  0  0  3  0  0  0  0  0  0
  181.6310  177.1440  140.3230 C   0  0  2  0  0  3  0  0  0  0  0  0
  184.7860  177.7630  138.5340 C   0  0  2  0  0  3  0  0  0  0  0  0
  179.8950  175.9370  139.1040 C   0  0  0  0  0  3  0  0  0  0  0  0
  182.1210  178.2500  141.1440 N   0  0  2  0  0  0  0  0  0  0  0  0
  179.6630  179.2280  142.8280 C   0  0  0  0  0  1  0  0  0  0  0  0
  183.3260  174.9640  137.8980 C   0  0  0  0  0  2  0  0  0  0  0  0
  180.8860  175.2420  138.4880 C   0  0  0  0  0  3  0  0  0  0  0  0
  181.2990  179.4500  140.9490 C   0  0  0  0  0  2  0  0  0  0  0  0
  186.8690  178.7270  141.1330 C   0  0  1  0  0  3  0  0  0  0  0  0
  186.6340  177.8790  139.8880 C   0  0  0  0  0  2  0  0  0  0  0  0
  182.2520  175.7340  138.5110 N   0  0  0  0  0  0  0  0  0  0  0  0
  183.4970  178.4750  140.6690 C   0  0  1  0  0  3  0  0  0  0  0  0
  179.3010  177.8000  140.8220 C   0  0  0  0  0  2  0  0  0  0  0  0
  185.2650  176.5700  137.6650 C   0  0  1  0  0  3  0  0  0  0  0  0
  178.9610  180.2640  140.7120 C   0  0  0  0  0  1  0  0  0  0  0  0
  185.6010  179.4130  141.6590 C   0  0  0  0  0  2  0  0  0  0  0  0
  184.4370  178.4520  141.8680 C   0  0  0  0  0  2  0  0  0  0  0  0
  184.1290  175.8400  136.9430 C   0  0  0  0  0  2  0  0  0  0  0  0
  185.8980  177.7500  135.5520 C   0  0  0  0  0  3  0  0  0  0  0  0
  186.2950  176.9950  136.6610 C   0  0  0  0  0  0  0  0  0  0  0  0
  187.6480  176.6500  136.8170 C   0  0  0  0  0  3  0  0  0  0  0  0
  190.0180  176.6870  136.0340 C   0  0  0  0  0  1  0  0  0  0  0  0
  188.1860  177.8080  134.7590 C   0  0  0  0  0  3  0  0  0  0  0  0
  188.5880  177.0560  135.8670 C   0  0  0  0  0  0  0  0  0  0  0  0
  186.8400  178.1550  134.6020 C   0  0  0  0  0  3  0  0  0  0  0  0
  188.6360  176.5880  144.5340 O   0  0  0  0  0  0  0  0  0  0  0  0
  187.7130  177.4310  144.6900 C   0  0  0  0  0  0  0  0  0  0  0  0
  187.5540  177.9370  142.2000 C   0  0  0  0  0  0  0  0  0  0  0  0
  187.1530  178.1180  143.5630 N   0  0  0  0  0  2  0  0  0  0  0  0
  188.4620  177.1150  141.8970 O   0  0  0  0  0  0  0  0  0  0  0  0
  186.0170  178.3660  146.2050 C   0  0  0  0  0  1  0  0  0  0  0  0
  187.2420  177.6870  145.9770 O   0  0  0  0  0  0  0  0  0  0  0  0
  1 10  1  0  0  0  0
  2 16  1  1  0  0  0
  2  5  1  0  0  0  0
  2  6  1  0  0  0  0
  3 15  1  0  0  0  0
  4  8  1  1  0  0  0
  4  6  1  0  0  0  0
  4 18  1  0  0  0  0
  5 17  1  0  0  0  0
  6  9  1  0  0  0  0
  7  3  1  0  0  0  0
  7  5  1  0  0  0  0
 11 16  1  0  0  0  0
 12 16  1  0  0  0  0
 12  8  2  0  0  0  0
 13  9  1  0  0  0  0
 13  1  1  0  0  0  0
 14 21  1  0  0  0  0
 14 33  1  0  0  0  0
 15 14  1  0  0  0  0
 17  9  1  0  0  0  0
 17 22  1  0  0  0  0
 18  1  1  0  0  0  0
 19  7  1  0  0  0  0
 20  1  1  0  0  0  0
 21 22  1  0  0  0  0
 23 19  1  0  0  0  0
 23 11  1  0  0  0  0
 24 25  1  0  0  0  0
 25 26  2  0  0  0  0
 25 19  1  0  0  0  0
 28 29  2  0  0  0  0
 29 27  1  0  0  0  0
 29 26  1  0  0  0  0
 30 28  1  0  0  0  0
 30 24  2  0  0  0  0
 31 32  2  0  0  0  0
 32 37  1  0  0  0  0
 33 34  1  0  0  0  0
 34 32  1  0  0  0  0
 35 33  2  0  0  0  0
 37 36  1  0  0  0  0
M  END
>  <MODEL>
1

>  <REMARK>
 VINA RESULT:      -6.8      0.000      0.000
  Name = 
  3 active torsions:
  status: ('A' for Active; 'I' for Inactive)
    1  A    between atoms: C_4  and  O_37
    2  A    between atoms: C_8  and  C_18
    3  A    between atoms: C_23  and  C_30
                            x       y       z     vdW  Elec       q    Type
                         _______ _______ _______ _____ _____    ______ ____

>  <TORSDO>
F 3

$$$$
=
 OpenBabel11122411373D

 37 42  0  0  1  0  0  0  0  0999 V2000
  184.5240  178.9330  143.6370 C   0  0  0  0  0  0  0  0  0  0  0  0
  181.4000  179.2600  141.0590 C   0  0  2  0  0  3  0  0  0  0  0  0
  182.4100  179.3920  137.4960 O   0  0  0  0  0  0  0  0  0  0  0  0
  182.0680  179.3060  143.3160 C   0  0  1  0  0  3  0  0  0  0  0  0
  181.8240  178.6250  139.7760 C   0  0  1  0  0  3  0  0  0  0  0  0
  182.1360  178.4620  142.0630 C   0  0  2  0  0  3  0  0  0  0  0  0
  181.5660  179.6060  138.6130 C   0  0  2  0  0  3  0  0  0  0  0  0
  180.6240  179.3270  143.7720 C   0  0  0  0  0  3  0  0  0  0  0  0
  183.4610  178.1620  141.5240 N   0  0  2  0  0  0  0  0  0  0  0  0
  185.3180  177.6960  144.0080 C   0  0  0  0  0  1  0  0  0  0  0  0
  178.9310  179.1750  140.4130 C   0  0  0  0  0  2  0  0  0  0  0  0
  179.6450  179.3220  142.8310 C   0  0  0  0  0  3  0  0  0  0  0  0
  184.4730  179.0610  142.0910 C   0  0  0  0  0  2  0  0  0  0  0  0
  183.5130  177.3670  136.8190 C   0  0  1  0  0  3  0  0  0  0  0  0
  182.1860  178.0960  137.0020 C   0  0  0  0  0  2  0  0  0  0  0  0
  179.9800  179.2340  141.4210 N   0  0  0  0  0  0  0  0  0  0  0  0
  183.3220  178.3770  140.0730 C   0  0  1  0  0  3  0  0  0  0  0  0
  183.1260  178.8390  144.2960 C   0  0  0  0  0  2  0  0  0  0  0  0
  180.0680  179.6980  138.2160 C   0  0  1  0  0  3  0  0  0  0  0  0
  185.2420  180.1460  144.1920 C   0  0  0  0  0  1  0  0  0  0  0  0
  184.4610  177.5050  138.0170 C   0  0  0  0  0  2  0  0  0  0  0  0
  183.8150  177.1320  139.3450 C   0  0  0  0  0  2  0  0  0  0  0  0
  179.1670  180.2270  139.3360 C   0  0  0  0  0  2  0  0  0  0  0  0
  179.1640  180.0050  135.9040 C   0  0  0  0  0  3  0  0  0  0  0  0
  179.8720  180.5360  136.9880 C   0  0  0  0  0  0  0  0  0  0  0  0
  180.3850  181.8410  136.9090 C   0  0  0  0  0  3  0  0  0  0  0  0
  180.7370  183.9810  135.6720 C   0  0  0  0  0  1  0  0  0  0  0  0
  179.4840  182.0660  134.6720 C   0  0  0  0  0  3  0  0  0  0  0  0
  180.1910  182.6010  135.7530 C   0  0  0  0  0  0  0  0  0  0  0  0
  178.9710  180.7670  134.7480 C   0  0  0  0  0  3  0  0  0  0  0  0
  182.4930  173.2000  135.8870 O   0  0  0  0  0  0  0  0  0  0  0  0
  181.6790  173.9670  136.4660 C   0  0  0  0  0  0  0  0  0  0  0  0
  183.2930  175.9360  136.4490 C   0  0  0  0  0  0  0  0  0  0  0  0
  182.0360  175.3250  136.7610 N   0  0  0  0  0  2  0  0  0  0  0  0
  184.2000  175.2860  135.8600 O   0  0  0  0  0  0  0  0  0  0  0  0
  180.2370  172.6110  137.9260 C   0  0  0  0  0  1  0  0  0  0  0  0
  180.4210  173.4770  136.8160 O   0  0  0  0  0  0  0  0  0  0  0  0
  1 10  1  0  0  0  0
  1 20  1  0  0  0  0
  1 18  1  0  0  0  0
  2 16  1  1  0  0  0
  2  6  1  0  0  0  0
  3  7  1  0  0  0  0
  4  8  1  1  0  0  0
  4 18  1  0  0  0  0
  5 17  1  0  0  0  0
  5  2  1  0  0  0  0
  6  4  1  0  0  0  0
  7  5  1  0  0  0  0
  9  6  1  0  0  0  0
  9 13  1  0  0  0  0
 11 16  1  0  0  0  0
 12  8  2  0  0  0  0
 13  1  1  0  0  0  0
 14 15  1  0  0  0  0
 14 21  1  0  0  0  0
 15  3  1  0  0  0  0
 16 12  1  0  0  0  0
 17  9  1  0  0  0  0
 19  7  1  0  0  0  0
 19 23  1  0  0  0  0
 21 22  1  0  0  0  0
 22 17  1  0  0  0  0
 23 11  1  0  0  0  0
 24 25  1  0  0  0  0
 25 19  1  0  0  0  0
 26 25  2  0  0  0  0
 27 29  1  0  0  0  0
 28 30  1  0  0  0  0
 28 29  2  0  0  0  0
 29 26  1  0  0  0  0
 30 24  2  0  0  0  0
 31 32  2  0  0  0  0
 32 34  1  0  0  0  0
 32 37  1  0  0  0  0
 33 34  1  0  0  0  0
 33 14  1  0  0  0  0
 35 33  2  0  0  0  0
 37 36  1  0  0  0  0
M  END
>  <MODEL>
2

>  <REMARK>
 VINA RESULT:      -6.3      3.637      7.059
  Name = 
  3 active torsions:
  status: ('A' for Active; 'I' for Inactive)
    1  A    between atoms: C_4  and  O_37
    2  A    between atoms: C_8  and  C_18
    3  A    between atoms: C_23  and  C_30
                            x       y       z     vdW  Elec       q    Type
                         _______ _______ _______ _____ _____    ______ ____

>  <TORSDO>
F 3

$$$$
=
 OpenBabel11122411373D

 37 42  0  0  1  0  0  0  0  0999 V2000
  181.0400  180.5590  138.5180 C   0  0  0  0  0  0  0  0  0  0  0  0
  183.7490  177.6670  137.6190 C   0  0  2  0  0  3  0  0  0  0  0  0
  187.1890  178.4330  138.7670 O   0  0  0  0  0  0  0  0  0  0  0  0
  181.5470  178.4330  137.2940 C   0  0  1  0  0  3  0  0  0  0  0  0
  184.8170  177.7290  138.6610 C   0  0  1  0  0  3  0  0  0  0  0  0
  182.5490  178.0890  138.3740 C   0  0  2  0  0  3  0  0  0  0  0  0
  186.1960  177.8100  137.9730 C   0  0  2  0  0  3  0  0  0  0  0  0
  181.1730  177.1440  136.5940 C   0  0  0  0  0  3  0  0  0  0  0  0
  182.9410  179.1540  139.2950 N   0  0  2  0  0  0  0  0  0  0  0  0
  180.3420  180.8230  139.8380 C   0  0  0  0  0  1  0  0  0  0  0  0
  184.4590  175.3300  136.8750 C   0  0  0  0  0  2  0  0  0  0  0  0
  182.1230  176.1870  136.4390 C   0  0  0  0  0  3  0  0  0  0  0  0
  182.5710  180.4700  138.7610 C   0  0  0  0  0  2  0  0  0  0  0  0
  187.2980  178.6070  141.1620 C   0  0  1  0  0  3  0  0  0  0  0  0
  187.3570  177.6880  139.9470 C   0  0  0  0  0  2  0  0  0  0  0  0
  183.4530  176.3770  136.9920 N   0  0  0  0  0  0  0  0  0  0  0  0
  184.4040  179.0240  139.4020 C   0  0  1  0  0  3  0  0  0  0  0  0
  180.4380  179.2780  137.8880 C   0  0  0  0  0  2  0  0  0  0  0  0
  186.6670  176.4480  137.3950 C   0  0  1  0  0  3  0  0  0  0  0  0
  180.7710  181.7290  137.5940 C   0  0  0  0  0  1  0  0  0  0  0  0
  186.1310  179.6030  141.1250 C   0  0  0  0  0  2  0  0  0  0  0  0
  184.7810  178.9430  140.8760 C   0  0  0  0  0  2  0  0  0  0  0  0
  185.7510  175.8970  136.2980 C   0  0  0  0  0  2  0  0  0  0  0  0
  188.3400  177.3080  135.7460 C   0  0  0  0  0  3  0  0  0  0  0  0
  188.0710  176.5240  136.8740 C   0  0  0  0  0  0  0  0  0  0  0  0
  189.1160  175.8250  137.4980 C   0  0  0  0  0  3  0  0  0  0  0  0
  191.5200  175.1670  137.6550 C   0  0  0  0  0  1  0  0  0  0  0  0
  190.6790  176.6920  135.8650 C   0  0  0  0  0  3  0  0  0  0  0  0
  190.4160  175.9100  136.9930 C   0  0  0  0  0  0  0  0  0  0  0  0
  189.6410  177.3910  135.2410 C   0  0  0  0  0  3  0  0  0  0  0  0
  187.0610  176.5540  145.0350 O   0  0  0  0  0  0  0  0  0  0  0  0
  186.3780  177.5820  144.7890 C   0  0  0  0  0  0  0  0  0  0  0  0
  187.3120  177.8200  142.4320 C   0  0  0  0  0  0  0  0  0  0  0  0
  186.4730  178.2370  143.5160 N   0  0  0  0  0  2  0  0  0  0  0  0
  188.0440  176.7980  142.5380 O   0  0  0  0  0  0  0  0  0  0  0  0
  184.4030  178.8880  145.4540 C   0  0  0  0  0  1  0  0  0  0  0  0
  185.5240  178.0780  145.7740 O   0  0  0  0  0  0  0  0  0  0  0  0
  1 13  1  0  0  0  0
  1 10  1  0  0  0  0
  2 16  1  1  0  0  0
  2  6  1  0  0  0  0
  2  5  1  0  0  0  0
  3 15  1  0  0  0  0
  4  8  1  1  0  0  0
  4 18  1  0  0  0  0
  4  6  1  0  0  0  0
  5 17  1  0  0  0  0
  6  9  1  0  0  0  0
  7  5  1  0  0  0  0
  7  3  1  0  0  0  0
  9 17  1  0  0  0  0
 11 16  1  0  0  0  0
 12  8  2  0  0  0  0
 12 16  1  0  0  0  0
 13  9  1  0  0  0  0
 14 33  1  0  0  0  0
 15 14  1  0  0  0  0
 17 22  1  0  0  0  0
 18  1  1  0  0  0  0
 19  7  1  0  0  0  0
 20  1  1  0  0  0  0
 21 14  1  0  0  0  0
 22 21  1  0  0  0  0
 23 11  1  0  0  0  0
 23 19  1  0  0  0  0
 24 25  1  0  0  0  0
 25 19  1  0  0  0  0
 25 26  2  0  0  0  0
 28 29  2  0  0  0  0
 29 26  1  0  0  0  0
 29 27  1  0  0  0  0
 30 24  2  0  0  0  0
 30 28  1  0  0  0  0
 32 31  2  0  0  0  0
 32 37  1  0  0  0  0
 33 35  2  0  0  0  0
 33 34  1  0  0  0  0
 34 32  1  0  0  0  0
 36 37  1  0  0  0  0
M  END
>  <MODEL>
3

>  <REMARK>
 VINA RESULT:      -6.3      1.731      2.188
  Name = 
  3 active torsions:
  status: ('A' for Active; 'I' for Inactive)
    1  A    between atoms: C_4  and  O_37
    2  A    between atoms: C_8  and  C_18
    3  A    between atoms: C_23  and  C_30
                            x       y       z     vdW  Elec       q    Type
                         _______ _______ _______ _____ _____    ______ ____

>  <TORSDO>
F 3

$$$$
=
 OpenBabel11122411373D

 37 42  0  0  1  0  0  0  0  0999 V2000
  184.0670  176.8330  135.8820 C   0  0  0  0  0  0  0  0  0  0  0  0
  187.5990  174.8380  136.1300 C   0  0  2  0  0  3  0  0  0  0  0  0
  190.4250  176.9410  137.2790 O   0  0  0  0  0  0  0  0  0  0  0  0
  185.3610  174.7410  135.4040 C   0  0  1  0  0  3  0  0  0  0  0  0
  188.4070  175.5100  137.1910 C   0  0  1  0  0  3  0  0  0  0  0  0
  186.2160  175.0320  136.6180 C   0  0  2  0  0  3  0  0  0  0  0  0
  189.8040  175.8470  136.6290 C   0  0  2  0  0  3  0  0  0  0  0  0
  185.4950  173.2650  135.0970 C   0  0  0  0  0  3  0  0  0  0  0  0
  186.1230  176.3680  137.2040 N   0  0  2  0  0  0  0  0  0  0  0  0
  183.1040  177.1930  136.9970 C   0  0  0  0  0  1  0  0  0  0  0  0
  189.0610  172.7450  136.1890 C   0  0  0  0  0  2  0  0  0  0  0  0
  186.6900  172.6600  135.3190 C   0  0  0  0  0  3  0  0  0  0  0  0
  185.4940  177.3070  136.2680 C   0  0  0  0  0  2  0  0  0  0  0  0
  190.0620  177.7590  139.5100 C   0  0  1  0  0  3  0  0  0  0  0  0
  190.5900  176.6250  138.6390 C   0  0  0  0  0  2  0  0  0  0  0  0
  187.7940  173.4040  135.8990 N   0  0  0  0  0  0  0  0  0  0  0  0
  187.5220  176.7490  137.4680 C   0  0  1  0  0  3  0  0  0  0  0  0
  183.9720  175.3090  135.6190 C   0  0  0  0  0  2  0  0  0  0  0  0
  190.7340  174.6080  136.5310 C   0  0  1  0  0  3  0  0  0  0  0  0
  183.6430  177.5700  134.6280 C   0  0  0  0  0  1  0  0  0  0  0  0
  188.6870  178.2800  139.0750 C   0  0  0  0  0  2  0  0  0  0  0  0
  187.6430  177.1800  138.9240 C   0  0  0  0  0  2  0  0  0  0  0  0
  190.2180  173.5260  135.5790 C   0  0  0  0  0  2  0  0  0  0  0  0
  192.3170  175.8020  135.0050 C   0  0  0  0  0  3  0  0  0  0  0  0
  192.1280  174.9930  136.1320 C   0  0  0  0  0  0  0  0  0  0  0  0
  193.2410  174.5580  136.8690 C   0  0  0  0  0  3  0  0  0  0  0  0
  195.7060  174.4630  137.2560 C   0  0  0  0  0  1  0  0  0  0  0  0
  194.7140  175.7340  135.3480 C   0  0  0  0  0  3  0  0  0  0  0  0
  194.5300  174.9280  136.4750 C   0  0  0  0  0  0  0  0  0  0  0  0
  193.6080  176.1710  134.6130 C   0  0  0  0  0  3  0  0  0  0  0  0
  189.7130  176.7300  143.7630 O   0  0  0  0  0  0  0  0  0  0  0  0
  188.7270  177.1500  143.1010 C   0  0  0  0  0  0  0  0  0  0  0  0
  190.0780  177.3790  140.9550 C   0  0  0  0  0  0  0  0  0  0  0  0
  188.8670  177.4810  141.7120 N   0  0  0  0  0  2  0  0  0  0  0  0
  191.1420  176.9620  141.4900 O   0  0  0  0  0  0  0  0  0  0  0  0
  187.3880  177.7860  145.0630 C   0  0  0  0  0  1  0  0  0  0  0  0
  187.4950  177.2880  143.7380 O   0  0  0  0  0  0  0  0  0  0  0  0
  1 13  1  0  0  0  0
  1 10  1  0  0  0  0
  2 16  1  1  0  0  0
  2  6  1  0  0  0  0
  2  5  1  0  0  0  0
  3 15  1  0  0  0  0
  4  8  1  1  0  0  0
  4 18  1  0  0  0  0
  4  6  1  0  0  0  0
  5 17  1  0  0  0  0
  6  9  1  0  0  0  0
  7  5  1  0  0  0  0
  7  3  1  0  0  0  0
  8 12  2  0  0  0  0
  9 17  1  0  0  0  0
 12 16  1  0  0  0  0
 13  9  1  0  0  0  0
 14 33  1  0  0  0  0
 15 14  1  0  0  0  0
 16 11  1  0  0  0  0
 17 22  1  0  0  0  0
 18  1  1  0  0  0  0
 19  7  1  0  0  0  0
 20  1  1  0  0  0  0
 21 14  1  0  0  0  0
 22 21  1  0  0  0  0
 23 11  1  0  0  0  0
 23 19  1  0  0  0  0
 24 25  1  0  0  0  0
 25 19  1  0  0  0  0
 25 26  2  0  0  0  0
 28 29  2  0  0  0  0
 29 26  1  0  0  0  0
 29 27  1  0  0  0  0
 30 24  2  0  0  0  0
 30 28  1  0  0  0  0
 32 37  1  0  0  0  0
 32 31  2  0  0  0  0
 33 35  2  0  0  0  0
 33 34  1  0  0  0  0
 34 32  1  0  0  0  0
 37 36  1  0  0  0  0
M  END
>  <MODEL>
4

>  <REMARK>
 VINA RESULT:      -6.3      3.480      5.750
  Name = 
  3 active torsions:
  status: ('A' for Active; 'I' for Inactive)
    1  A    between atoms: C_4  and  O_37
    2  A    between atoms: C_8  and  C_18
    3  A    between atoms: C_23  and  C_30
                            x       y       z     vdW  Elec       q    Type
                         _______ _______ _______ _____ _____    ______ ____

>  <TORSDO>
F 3

$$$$
=
 OpenBabel11122411373D

 37 42  0  0  1  0  0  0  0  0999 V2000
  184.8610  178.9270  144.6100 C   0  0  0  0  0  0  0  0  0  0  0  0
  182.0370  179.1260  141.6950 C   0  0  2  0  0  3  0  0  0  0  0  0
  183.4080  179.8710  138.3340 O   0  0  0  0  0  0  0  0  0  0  0  0
  182.4290  178.9730  144.0110 C   0  0  1  0  0  3  0  0  0  0  0  0
  182.7000  178.7330  140.4160 C   0  0  1  0  0  3  0  0  0  0  0  0
  182.7740  178.3200  142.6920 C   0  0  2  0  0  3  0  0  0  0  0  0
  182.4200  179.8100  139.3460 C   0  0  2  0  0  3  0  0  0  0  0  0
  180.9590  178.7220  144.2720 C   0  0  0  0  0  3  0  0  0  0  0  0
  184.1830  178.2910  142.3020 N   0  0  2  0  0  0  0  0  0  0  0  0
  185.7980  177.7820  144.9420 C   0  0  0  0  0  1  0  0  0  0  0  0
  179.7030  178.7640  140.7230 C   0  0  0  0  0  2  0  0  0  0  0  0
  180.1060  178.6960  143.2160 C   0  0  0  0  0  3  0  0  0  0  0  0
  184.9650  179.2470  143.0940 C   0  0  0  0  0  2  0  0  0  0  0  0
  184.8940  178.1360  137.5860 C   0  0  1  0  0  3  0  0  0  0  0  0
  183.4550  178.6320  137.6730 C   0  0  0  0  0  2  0  0  0  0  0  0
  180.6080  178.8450  141.8610 N   0  0  0  0  0  0  0  0  0  0  0  0
  184.1760  178.6720  140.8790 C   0  0  1  0  0  3  0  0  0  0  0  0
  183.4310  178.5430  145.0640 C   0  0  0  0  0  2  0  0  0  0  0  0
  180.9820  179.7320  138.7680 C   0  0  1  0  0  3  0  0  0  0  0  0
  185.3060  180.1490  145.3870 C   0  0  0  0  0  1  0  0  0  0  0  0
  185.6660  178.2530  138.9060 C   0  0  0  0  0  2  0  0  0  0  0  0
  184.9420  177.6190  140.0880 C   0  0  0  0  0  2  0  0  0  0  0  0
  179.8860  179.9710  139.8110 C   0  0  0  0  0  2  0  0  0  0  0  0
  180.4150  180.1870  136.3740 C   0  0  0  0  0  3  0  0  0  0  0  0
  180.7920  180.6860  137.6260 C   0  0  0  0  0  0  0  0  0  0  0  0
  180.9850  182.0670  137.7930 C   0  0  0  0  0  3  0  0  0  0  0  0
  181.0130  184.3950  136.8930 C   0  0  0  0  0  1  0  0  0  0  0  0
  180.4300  182.4310  135.4640 C   0  0  0  0  0  3  0  0  0  0  0  0
  180.8050  182.9350  136.7130 C   0  0  0  0  0  0  0  0  0  0  0  0
  180.2360  181.0570  135.2950 C   0  0  0  0  0  3  0  0  0  0  0  0
  185.4540  174.0530  136.0750 O   0  0  0  0  0  0  0  0  0  0  0  0
  186.3980  174.6980  136.6020 C   0  0  0  0  0  0  0  0  0  0  0  0
  184.9520  176.7490  137.0330 C   0  0  0  0  0  0  0  0  0  0  0  0
  186.1910  176.0320  137.0870 N   0  0  0  0  0  2  0  0  0  0  0  0
  183.9190  176.2190  136.5390 O   0  0  0  0  0  0  0  0  0  0  0  0
  187.7990  172.6920  136.8430 C   0  0  0  0  0  1  0  0  0  0  0  0
  187.6520  174.0970  136.7080 O   0  0  0  0  0  0  0  0  0  0  0  0
  1 10  1  0  0  0  0
  1 18  1  0  0  0  0
  1 20  1  0  0  0  0
  2 16  1  6  0  0  0
  2  6  1  0  0  0  0
  3  7  1  0  0  0  0
  4  8  1  1  0  0  0
  4 18  1  0  0  0  0
  5 17  1  0  0  0  0
  5  2  1  0  0  0  0
  6  4  1  0  0  0  0
  7  5  1  0  0  0  0
  9  6  1  0  0  0  0
  9 13  1  0  0  0  0
 11 16  1  0  0  0  0
 12  8  2  0  0  0  0
 13  1  1  0  0  0  0
 14 15  1  0  0  0  0
 14 21  1  0  0  0  0
 15  3  1  0  0  0  0
 16 12  1  0  0  0  0
 17  9  1  0  0  0  0
 19  7  1  0  0  0  0
 19 23  1  0  0  0  0
 21 22  1  0  0  0  0
 22 17  1  0  0  0  0
 23 11  1  0  0  0  0
 24 25  1  0  0  0  0
 25 26  2  0  0  0  0
 25 19  1  0  0  0  0
 28 29  2  0  0  0  0
 29 27  1  0  0  0  0
 29 26  1  0  0  0  0
 30 28  1  0  0  0  0
 30 24  2  0  0  0  0
 31 32  2  0  0  0  0
 32 37  1  0  0  0  0
 32 34  1  0  0  0  0
 33 34  1  0  0  0  0
 33 14  1  0  0  0  0
 35 33  2  0  0  0  0
 37 36  1  0  0  0  0
M  END
>  <MODEL>
5

>  <REMARK>
 VINA RESULT:      -6.2      3.181      6.499
  Name = 
  3 active torsions:
  status: ('A' for Active; 'I' for Inactive)
    1  A    between atoms: C_4  and  O_37
    2  A    between atoms: C_8  and  C_18
    3  A    between atoms: C_23  and  C_30
                            x       y       z     vdW  Elec       q    Type
                         _______ _______ _______ _____ _____    ______ ____

>  <TORSDO>
F 3

$$$$
=
 OpenBabel11122411373D

 37 42  0  0  1  0  0  0  0  0999 V2000
  188.9600  176.6860  135.5690 C   0  0  0  0  0  0  0  0  0  0  0  0
  186.2690  177.9220  138.3520 C   0  0  2  0  0  3  0  0  0  0  0  0
  182.7650  177.9310  137.1430 O   0  0  0  0  0  0  0  0  0  0  0  0
  188.5520  177.7000  137.8240 C   0  0  1  0  0  3  0  0  0  0  0  0
  184.9730  177.2510  138.0360 C   0  0  1  0  0  3  0  0  0  0  0  0
  187.2590  176.9190  137.9050 C   0  0  2  0  0  3  0  0  0  0  0  0
  183.8540  178.3120  137.9640 C   0  0  2  0  0  3  0  0  0  0  0  0
  188.9440  178.0790  139.2360 C   0  0  0  0  0  3  0  0  0  0  0  0
  186.7630  176.3060  136.6750 N   0  0  2  0  0  0  0  0  0  0  0  0
  189.2970  175.2710  135.1450 C   0  0  0  0  0  1  0  0  0  0  0  0
  185.5110  178.5110  140.7190 C   0  0  0  0  0  2  0  0  0  0  0  0
  187.9630  178.3680  140.1290 C   0  0  0  0  0  3  0  0  0  0  0  0
  187.4210  176.8860  135.4980 C   0  0  0  0  0  2  0  0  0  0  0  0
  182.0290  175.7170  136.5660 C   0  0  1  0  0  3  0  0  0  0  0  0
  182.1930  176.7590  137.6670 C   0  0  0  0  0  2  0  0  0  0  0  0
  186.5660  178.2540  139.7480 N   0  0  0  0  0  0  0  0  0  0  0  0
  185.3210  176.6090  136.6720 C   0  0  1  0  0  3  0  0  0  0  0  0
  189.5510  176.9340  136.9790 C   0  0  0  0  0  2  0  0  0  0  0  0
  183.3980  178.8080  139.3630 C   0  0  1  0  0  3  0  0  0  0  0  0
  189.6090  177.6460  134.5940 C   0  0  0  0  0  1  0  0  0  0  0  0
  183.2730  175.5530  135.6830 C   0  0  0  0  0  2  0  0  0  0  0  0
  184.5500  175.3090  136.4780 C   0  0  0  0  0  2  0  0  0  0  0  0
  184.5040  179.5080  140.1580 C   0  0  0  0  0  2  0  0  0  0  0  0
  181.0400  179.3900  139.9620 C   0  0  0  0  0  3  0  0  0  0  0  0
  182.2090  179.7170  139.2660 C   0  0  0  0  0  0  0  0  0  0  0  0
  182.2510  180.8890  138.4920 C   0  0  0  0  0  3  0  0  0  0  0  0
  181.1770  182.9560  137.5940 C   0  0  0  0  0  1  0  0  0  0  0  0
  179.9630  181.3860  139.1110 C   0  0  0  0  0  3  0  0  0  0  0  0
  181.1300  181.7190  138.4160 C   0  0  0  0  0  0  0  0  0  0  0  0
  179.9180  180.2220  139.8840 C   0  0  0  0  0  3  0  0  0  0  0  0
  180.8770  171.6980  137.9030 O   0  0  0  0  0  0  0  0  0  0  0  0
  181.5400  171.8790  136.8470 C   0  0  0  0  0  0  0  0  0  0  0  0
  181.5740  174.4100  137.1270 C   0  0  0  0  0  0  0  0  0  0  0  0
  181.9030  173.2030  136.4300 N   0  0  0  0  0  2  0  0  0  0  0  0
  180.9200  174.3750  138.2070 O   0  0  0  0  0  0  0  0  0  0  0  0
  183.2580  170.3080  136.0540 C   0  0  0  0  0  1  0  0  0  0  0  0
  181.9170  170.7720  136.0870 O   0  0  0  0  0  0  0  0  0  0  0  0
  1 18  1  0  0  0  0
  2 16  1  1  0  0  0
  3 15  1  0  0  0  0
  3  7  1  0  0  0  0
  4 18  1  1  0  0  0
  4  6  1  0  0  0  0
  4  8  1  0  0  0  0
  5  2  1  0  0  0  0
  6  2  1  0  0  0  0
  7  5  1  0  0  0  0
  7 19  1  0  0  0  0
  8 12  2  0  0  0  0
  9  6  1  0  0  0  0
 10  1  1  0  0  0  0
 13  1  1  0  0  0  0
 13  9  1  0  0  0  0
 14 33  1  0  0  0  0
 14 15  1  0  0  0  0
 16 12  1  0  0  0  0
 16 11  1  0  0  0  0
 17  9  1  0  0  0  0
 17  5  1  0  0  0  0
 19 23  1  0  0  0  0
 20  1  1  0  0  0  0
 21 22  1  0  0  0  0
 21 14  1  0  0  0  0
 22 17  1  0  0  0  0
 23 11  1  0  0  0  0
 25 19  1  0  0  0  0
 25 24  2  0  0  0  0
 26 25  1  0  0  0  0
 27 29  1  0  0  0  0
 28 30  2  0  0  0  0
 29 26  2  0  0  0  0
 29 28  1  0  0  0  0
 30 24  1  0  0  0  0
 32 31  2  0  0  0  0
 33 35  2  0  0  0  0
 34 32  1  0  0  0  0
 34 33  1  0  0  0  0
 36 37  1  0  0  0  0
 37 32  1  0  0  0  0
M  END
>  <MODEL>
6

>  <REMARK>
 VINA RESULT:      -6.2      3.441      8.444
  Name = 
  3 active torsions:
  status: ('A' for Active; 'I' for Inactive)
    1  A    between atoms: C_4  and  O_37
    2  A    between atoms: C_8  and  C_18
    3  A    between atoms: C_23  and  C_30
                            x       y       z     vdW  Elec       q    Type
                         _______ _______ _______ _____ _____    ______ ____

>  <TORSDO>
F 3

$$$$
=
 OpenBabel11122411373D

 37 42  0  0  1  0  0  0  0  0999 V2000
  188.7620  176.8090  135.6140 C   0  0  0  0  0  0  0  0  0  0  0  0
  185.9570  178.0290  138.2900 C   0  0  2  0  0  3  0  0  0  0  0  0
  182.5240  178.1610  136.9010 O   0  0  0  0  0  0  0  0  0  0  0  0
  188.2590  177.7660  137.8740 C   0  0  1  0  0  3  0  0  0  0  0  0
  184.6650  177.4000  137.8860 C   0  0  1  0  0  3  0  0  0  0  0  0
  186.9460  177.0150  137.8650 C   0  0  2  0  0  3  0  0  0  0  0  0
  183.5770  178.4910  137.7890 C   0  0  2  0  0  3  0  0  0  0  0  0
  188.5860  178.0920  139.3160 C   0  0  0  0  0  3  0  0  0  0  0  0
  186.5020  176.4510  136.5920 N   0  0  2  0  0  0  0  0  0  0  0  0
  189.0880  175.3980  135.1640 C   0  0  0  0  0  1  0  0  0  0  0  0
  185.0900  178.5660  140.6310 C   0  0  0  0  0  2  0  0  0  0  0  0
  187.5660  178.3800  140.1650 C   0  0  0  0  0  3  0  0  0  0  0  0
  187.2340  177.0490  135.4700 C   0  0  0  0  0  2  0  0  0  0  0  0
  181.7670  175.9840  136.2180 C   0  0  1  0  0  3  0  0  0  0  0  0
  181.8970  176.9890  137.3580 C   0  0  0  0  0  2  0  0  0  0  0  0
  186.1880  178.3110  139.7090 N   0  0  0  0  0  0  0  0  0  0  0  0
  185.0700  176.7900  136.5230 C   0  0  1  0  0  3  0  0  0  0  0  0
  189.2830  177.0000  137.0600 C   0  0  0  0  0  2  0  0  0  0  0  0
  183.0590  178.9560  139.1770 C   0  0  1  0  0  3  0  0  0  0  0  0
  189.4850  177.7800  134.7040 C   0  0  0  0  0  1  0  0  0  0  0  0
  183.0520  175.8160  135.3970 C   0  0  0  0  0  2  0  0  0  0  0  0
  184.2790  175.5160  136.2490 C   0  0  0  0  0  2  0  0  0  0  0  0
  184.1380  179.6040  140.0490 C   0  0  0  0  0  2  0  0  0  0  0  0
  180.6760  179.5620  139.6390 C   0  0  0  0  0  3  0  0  0  0  0  0
  181.8990  179.8980  139.0460 C   0  0  0  0  0  0  0  0  0  0  0  0
  182.0190  181.1070  138.3420 C   0  0  0  0  0  3  0  0  0  0  0  0
  181.0540  183.2430  137.4840 C   0  0  0  0  0  1  0  0  0  0  0  0
  179.7040  181.6250  138.8250 C   0  0  0  0  0  3  0  0  0  0  0  0
  180.9230  181.9660  138.2320 C   0  0  0  0  0  0  0  0  0  0  0  0
  179.5800  180.4230  139.5280 C   0  0  0  0  0  3  0  0  0  0  0  0
  180.1020  172.3320  137.9950 O   0  0  0  0  0  0  0  0  0  0  0  0
  179.9860  173.4530  138.5570 C   0  0  0  0  0  0  0  0  0  0  0  0
  181.2520  174.6730  136.7150 C   0  0  0  0  0  0  0  0  0  0  0  0
  180.5410  174.6320  137.9570 N   0  0  0  0  0  2  0  0  0  0  0  0
  181.4330  173.6220  136.0390 O   0  0  0  0  0  0  0  0  0  0  0  0
  179.5720  174.5670  140.7100 C   0  0  0  0  0  1  0  0  0  0  0  0
  179.3100  173.5330  139.7740 O   0  0  0  0  0  0  0  0  0  0  0  0
  1 18  1  0  0  0  0
  2 16  1  1  0  0  0
  3 15  1  0  0  0  0
  3  7  1  0  0  0  0
  4 18  1  1  0  0  0
  4  8  1  0  0  0  0
  5  2  1  0  0  0  0
  6  4  1  0  0  0  0
  6  2  1  0  0  0  0
  7  5  1  0  0  0  0
  7 19  1  0  0  0  0
  8 12  2  0  0  0  0
  9  6  1  0  0  0  0
 10  1  1  0  0  0  0
 13  1  1  0  0  0  0
 13  9  1  0  0  0  0
 14 33  1  0  0  0  0
 14 15  1  0  0  0  0
 16 12  1  0  0  0  0
 16 11  1  0  0  0  0
 17  9  1  0  0  0  0
 17  5  1  0  0  0  0
 19 23  1  0  0  0  0
 20  1  1  0  0  0  0
 21 14  1  0  0  0  0
 21 22  1  0  0  0  0
 22 17  1  0  0  0  0
 23 11  1  0  0  0  0
 25 19  1  0  0  0  0
 25 24  2  0  0  0  0
 26 25  1  0  0  0  0
 27 29  1  0  0  0  0
 28 30  2  0  0  0  0
 29 26  2  0  0  0  0
 29 28  1  0  0  0  0
 30 24  1  0  0  0  0
 31 32  2  0  0  0  0
 32 37  1  0  0  0  0
 33 34  1  0  0  0  0
 34 32  1  0  0  0  0
 35 33  2  0  0  0  0
 37 36  1  0  0  0  0
M  END
>  <MODEL>
7

>  <REMARK>
 VINA RESULT:      -6.1      3.508      8.186
  Name = 
  3 active torsions:
  status: ('A' for Active; 'I' for Inactive)
    1  A    between atoms: C_4  and  O_37
    2  A    between atoms: C_8  and  C_18
    3  A    between atoms: C_23  and  C_30
                            x       y       z     vdW  Elec       q    Type
                         _______ _______ _______ _____ _____    ______ ____

>  <TORSDO>
F 3

$$$$
=
 OpenBabel11122411373D

 37 42  0  0  1  0  0  0  0  0999 V2000
  186.0430  178.2130  144.8440 C   0  0  0  0  0  0  0  0  0  0  0  0
  185.2880  178.1560  140.8510 C   0  0  2  0  0  3  0  0  0  0  0  0
  181.7530  177.4280  140.0090 O   0  0  0  0  0  0  0  0  0  0  0  0
  186.9550  178.2540  142.5100 C   0  0  1  0  0  3  0  0  0  0  0  0
  183.8590  178.5500  140.6710 C   0  0  1  0  0  3  0  0  0  0  0  0
  185.6750  178.9200  142.0570 C   0  0  2  0  0  3  0  0  0  0  0  0
  183.1490  177.5020  139.7870 C   0  0  2  0  0  3  0  0  0  0  0  0
  188.0140  178.5470  141.4690 C   0  0  0  0  0  3  0  0  0  0  0  0
  184.5450  178.9110  142.9840 N   0  0  2  0  0  0  0  0  0  0  0  0
  185.7700  179.3210  145.8410 C   0  0  0  0  0  1  0  0  0  0  0  0
  185.8360  178.6090  138.3980 C   0  0  0  0  0  2  0  0  0  0  0  0
  187.6420  178.6190  140.1650 C   0  0  0  0  0  3  0  0  0  0  0  0
  184.7450  177.9170  144.0440 C   0  0  0  0  0  2  0  0  0  0  0  0
  180.2800  179.1290  140.8550 C   0  0  1  0  0  3  0  0  0  0  0  0
  181.1810  178.6770  139.7110 C   0  0  0  0  0  2  0  0  0  0  0  0
  186.2450  178.4790  139.7900 N   0  0  0  0  0  0  0  0  0  0  0  0
  183.3870  178.5570  142.1450 C   0  0  1  0  0  3  0  0  0  0  0  0
  187.2370  178.6340  143.9510 C   0  0  0  0  0  2  0  0  0  0  0  0
  183.5050  177.6360  138.2820 C   0  0  1  0  0  3  0  0  0  0  0  0
  186.4260  176.9630  145.6100 C   0  0  0  0  0  1  0  0  0  0  0  0
  180.9150  178.9630  142.2410 C   0  0  0  0  0  2  0  0  0  0  0  0
  182.2950  179.5990  142.3540 C   0  0  0  0  0  2  0  0  0  0  0  0
  184.9900  177.4130  137.9790 C   0  0  0  0  0  2  0  0  0  0  0  0
  181.7600  177.2470  136.5320 C   0  0  0  0  0  3  0  0  0  0  0  0
  182.6840  176.7090  137.4350 C   0  0  0  0  0  0  0  0  0  0  0  0
  182.8280  175.3160  137.5330 C   0  0  0  0  0  3  0  0  0  0  0  0
  182.2040  172.9990  136.8440 C   0  0  0  0  0  1  0  0  0  0  0  0
  181.1270  175.0150  135.8360 C   0  0  0  0  0  3  0  0  0  0  0  0
  182.0500  174.4730  136.7350 C   0  0  0  0  0  0  0  0  0  0  0  0
  180.9820  176.4020  135.7350 C   0  0  0  0  0  3  0  0  0  0  0  0
  178.9310  183.1740  139.8140 O   0  0  0  0  0  0  0  0  0  0  0  0
  179.4100  182.3940  138.9490 C   0  0  0  0  0  0  0  0  0  0  0  0
  179.7890  180.5230  140.6340 C   0  0  0  0  0  0  0  0  0  0  0  0
  179.8460  181.0770  139.3140 N   0  0  0  0  0  2  0  0  0  0  0  0
  179.3210  181.1920  141.5960 O   0  0  0  0  0  0  0  0  0  0  0  0
  180.6590  183.5170  137.1530 C   0  0  0  0  0  1  0  0  0  0  0  0
  179.5120  182.8290  137.6280 O   0  0  0  0  0  0  0  0  0  0  0  0
  1 20  1  0  0  0  0
  1 10  1  0  0  0  0
  2 16  1  6  0  0  0
  2  6  1  0  0  0  0
  4  8  1  6  0  0  0
  4 18  1  0  0  0  0
  5  2  1  0  0  0  0
  5 17  1  0  0  0  0
  6  4  1  0  0  0  0
  6  9  1  0  0  0  0
  7  3  1  0  0  0  0
  7  5  1  0  0  0  0
  9 13  1  0  0  0  0
 11 16  1  0  0  0  0
 12  8  2  0  0  0  0
 13  1  1  0  0  0  0
 14 21  1  0  0  0  0
 15  3  1  0  0  0  0
 15 14  1  0  0  0  0
 16 12  1  0  0  0  0
 17 22  1  0  0  0  0
 17  9  1  0  0  0  0
 18  1  1  0  0  0  0
 19  7  1  0  0  0  0
 21 22  1  0  0  0  0
 23 19  1  0  0  0  0
 23 11  1  0  0  0  0
 24 25  1  0  0  0  0
 25 26  2  0  0  0  0
 25 19  1  0  0  0  0
 28 29  2  0  0  0  0
 29 27  1  0  0  0  0
 29 26  1  0  0  0  0
 30 28  1  0  0  0  0
 30 24  2  0  0  0  0
 32 34  1  0  0  0  0
 32 31  2  0  0  0  0
 33 14  1  0  0  0  0
 33 35  2  0  0  0  0
 34 33  1  0  0  0  0
 36 37  1  0  0  0  0
 37 32  1  0  0  0  0
M  END
>  <MODEL>
8

>  <REMARK>
 VINA RESULT:      -6.0      3.219      7.008
  Name = 
  3 active torsions:
  status: ('A' for Active; 'I' for Inactive)
    1  A    between atoms: C_4  and  O_37
    2  A    between atoms: C_8  and  C_18
    3  A    between atoms: C_23  and  C_30
                            x       y       z     vdW  Elec       q    Type
                         _______ _______ _______ _____ _____    ______ ____

>  <TORSDO>
F 3

$$$$
=
 OpenBabel11122411373D

 37 42  0  0  1  0  0  0  0  0999 V2000
  181.9720  176.4870  135.9410 C   0  0  0  0  0  0  0  0  0  0  0  0
  185.6090  174.7440  136.4440 C   0  0  2  0  0  3  0  0  0  0  0  0
  188.3160  177.1410  137.2550 O   0  0  0  0  0  0  0  0  0  0  0  0
  183.3800  174.4220  135.7590 C   0  0  1  0  0  3  0  0  0  0  0  0
  186.3790  175.6040  137.3900 C   0  0  1  0  0  3  0  0  0  0  0  0
  184.2180  174.9300  136.9100 C   0  0  2  0  0  3  0  0  0  0  0  0
  187.7560  175.9330  136.7740 C   0  0  2  0  0  3  0  0  0  0  0  0
  183.5950  172.9260  135.6650 C   0  0  0  0  0  3  0  0  0  0  0  0
  184.0520  176.3300  137.2990 N   0  0  2  0  0  0  0  0  0  0  0  0
  180.9920  176.9500  137.0010 C   0  0  0  0  0  1  0  0  0  0  0  0
  187.1840  172.7640  136.7900 C   0  0  0  0  0  2  0  0  0  0  0  0
  184.8220  172.4260  135.9620 C   0  0  0  0  0  3  0  0  0  0  0  0
  183.3710  177.0890  136.2440 C   0  0  0  0  0  2  0  0  0  0  0  0
  187.9100  178.2510  139.3470 C   0  0  1  0  0  3  0  0  0  0  0  0
  188.4990  177.0340  138.6440 C   0  0  0  0  0  2  0  0  0  0  0  0
  185.8830  173.3050  136.4200 N   0  0  0  0  0  0  0  0  0  0  0  0
  185.4270  176.8200  137.4940 C   0  0  1  0  0  3  0  0  0  0  0  0
  181.9620  174.9380  135.9020 C   0  0  0  0  0  2  0  0  0  0  0  0
  188.7530  174.7460  136.8470 C   0  0  1  0  0  3  0  0  0  0  0  0
  181.5080  177.0110  134.5980 C   0  0  0  0  0  1  0  0  0  0  0  0
  186.5070  178.6290  138.8540 C   0  0  0  0  0  2  0  0  0  0  0  0
  185.5260  177.4630  138.8710 C   0  0  0  0  0  2  0  0  0  0  0  0
  188.2970  173.5110  136.0650 C   0  0  0  0  0  2  0  0  0  0  0  0
  190.3030  175.5590  135.0600 C   0  0  0  0  0  3  0  0  0  0  0  0
  190.1230  175.1450  136.3840 C   0  0  0  0  0  0  0  0  0  0  0  0
  191.2230  175.1100  137.2570 C   0  0  0  0  0  3  0  0  0  0  0  0
  193.6520  175.4450  137.7270 C   0  0  0  0  0  1  0  0  0  0  0  0
  192.6650  175.8960  135.4770 C   0  0  0  0  0  3  0  0  0  0  0  0
  192.4900  175.4850  136.8020 C   0  0  0  0  0  0  0  0  0  0  0  0
  191.5720  175.9330  134.6070 C   0  0  0  0  0  3  0  0  0  0  0  0
  188.3110  177.4840  143.6510 O   0  0  0  0  0  0  0  0  0  0  0  0
  188.9990  176.8600  142.8010 C   0  0  0  0  0  0  0  0  0  0  0  0
  187.9470  178.0840  140.8320 C   0  0  0  0  0  0  0  0  0  0  0  0
  188.8490  177.1280  141.3990 N   0  0  0  0  0  2  0  0  0  0  0  0
  187.2030  178.7880  141.5690 O   0  0  0  0  0  0  0  0  0  0  0  0
  191.2440  176.2460  143.5940 C   0  0  0  0  0  1  0  0  0  0  0  0
  189.9130  175.9030  143.2410 O   0  0  0  0  0  0  0  0  0  0  0  0
  1 13  1  0  0  0  0
  1 10  1  0  0  0  0
  2 16  1  1  0  0  0
  2  6  1  0  0  0  0
  2  5  1  0  0  0  0
  3 15  1  0  0  0  0
  4  8  1  1  0  0  0
  4 18  1  0  0  0  0
  4  6  1  0  0  0  0
  5 17  1  0  0  0  0
  6  9  1  0  0  0  0
  7 19  1  0  0  0  0
  7  3  1  0  0  0  0
  7  5  1  0  0  0  0
  8 12  2  0  0  0  0
  9 17  1  0  0  0  0
 12 16  1  0  0  0  0
 13  9  1  0  0  0  0
 14 33  1  0  0  0  0
 15 14  1  0  0  0  0
 16 11  1  0  0  0  0
 17 22  1  0  0  0  0
 18  1  1  0  0  0  0
 20  1  1  0  0  0  0
 21 22  1  0  0  0  0
 21 14  1  0  0  0  0
 23 11  1  0  0  0  0
 23 19  1  0  0  0  0
 24 25  1  0  0  0  0
 25 19  1  0  0  0  0
 25 26  2  0  0  0  0
 28 29  2  0  0  0  0
 29 26  1  0  0  0  0
 29 27  1  0  0  0  0
 30 24  2  0  0  0  0
 30 28  1  0  0  0  0
 32 37  1  0  0  0  0
 32 31  2  0  0  0  0
 33 34  1  0  0  0  0
 33 35  2  0  0  0  0
 34 32  1  0  0  0  0
 37 36  1  0  0  0  0
M  END
>  <MODEL>
9

>  <REMARK>
 VINA RESULT:      -5.7      2.975      4.563
  Name = 
  3 active torsions:
  status: ('A' for Active; 'I' for Inactive)
    1  A    between atoms: C_4  and  O_37
    2  A    between atoms: C_8  and  C_18
    3  A    between atoms: C_23  and  C_30
                            x       y       z     vdW  Elec       q    Type
                         _______ _______ _______ _____ _____    ______ ____

>  <TORSDO>
F 3

$$$$
