=
 OpenBabel11122410433D

 32 37  0  0  1  0  0  0  0  0999 V2000
  188.5000  178.0570  136.8820 C   0  0  0  0  0  2  0  0  0  0  0  0
  187.9690  177.8450  142.0120 C   0  0  0  0  0  0  0  0  0  0  0  0
  183.2280  178.7630  142.9630 C   0  0  0  0  0  2  0  0  0  0  0  0
  183.6430  179.3860  144.2810 C   0  0  0  0  0  2  0  0  0  0  0  0
  189.5230  177.3550  143.9210 C   0  0  0  0  0  0  0  0  0  0  0  0
  189.6670  177.2850  145.3010 C   0  0  0  0  0  0  0  0  0  0  0  0
  188.5580  177.2230  139.7140 N   0  0  1  0  0  0  0  0  0  0  0  0
  186.3910  178.2600  140.1420 C   0  0  0  0  0  2  0  0  0  0  0  0
  189.0780  177.4050  147.4130 C   0  0  0  0  0  0  0  0  0  0  0  0
  187.2540  178.0670  137.7780 C   0  0  2  0  0  3  0  0  0  0  0  0
  184.3540  178.9520  141.9550 C   0  0  0  0  0  2  0  0  0  0  0  0
  186.7140  178.2170  141.5800 N   0  0  0  0  0  0  0  0  0  0  0  0
  185.7000  178.4740  142.4680 C   0  0  0  0  0  0  0  0  0  0  0  0
  187.1950  178.0220  144.3250 C   0  0  0  0  0  0  0  0  0  0  0  0
  190.3770  177.0290  147.3960 N   0  0  0  0  0  0  0  0  0  0  0  0
  189.8030  178.0540  137.6790 C   0  0  0  0  0  2  0  0  0  0  0  0
  187.6300  178.2640  139.2540 C   0  0  2  0  0  3  0  0  0  0  0  0
  190.7510  176.9510  146.0900 C   0  0  0  0  0  3  0  0  0  0  0  0
  189.7220  177.0400  138.8260 C   0  0  0  0  0  2  0  0  0  0  0  0
  184.8130  178.5990  144.8540 C   0  0  0  0  0  2  0  0  0  0  0  0
  185.9320  178.3990  143.8580 C   0  0  0  0  0  0  0  0  0  0  0  0
  187.4120  177.9270  145.6750 N   0  0  0  0  0  0  0  0  0  0  0  0
  189.0760  177.6670  140.9990 C   0  0  0  0  0  2  0  0  0  0  0  0
  190.6100  177.0440  143.1100 O   0  0  0  0  0  1  0  0  0  0  0  0
  188.2820  177.6060  148.6540 C   0  0  0  0  0  1  0  0  0  0  0  0
  188.2480  177.7390  143.4000 C   0  0  0  0  0  0  0  0  0  0  0  0
  188.6320  177.5660  146.1290 C   0  0  0  0  0  0  0  0  0  0  0  0
  186.5530  176.8690  137.6060 O   0  0  0  0  0  0  0  0  0  0  0  0
  185.4860  177.1930  136.7640 C   0  0  0  0  0  2  0  0  0  0  0  0
  184.1940  176.9540  137.4700 C   0  0  0  0  0  0  0  0  0  0  0  0
  183.7990  175.8150  137.6570 O   0  0  0  0  0  0  0  0  0  0  0  0
  183.3920  178.1080  137.9600 C   0  0  0  0  0  1  0  0  0  0  0  0
  1 16  1  0  0  0  0
  1 10  1  0  0  0  0
  2 26  2  0  0  0  0
  3  4  1  0  0  0  0
  4 20  1  0  0  0  0
  5  6  2  0  0  0  0
  6 18  1  0  0  0  0
  6 27  1  0  0  0  0
  7 19  1  6  0  0  0
  7 23  1  0  0  0  0
  8 12  1  0  0  0  0
  9 25  1  0  0  0  0
 10 28  1  1  0  0  0
 10 17  1  0  0  0  0
 11 13  1  0  0  0  0
 11  3  1  0  0  0  0
 12  2  1  0  0  0  0
 12 13  1  0  0  0  0
 13 21  2  0  0  0  0
 14 22  2  0  0  0  0
 15  9  1  0  0  0  0
 16 19  1  0  0  0  0
 17  7  1  0  0  0  0
 17  8  1  1  0  0  0
 18 15  2  0  0  0  0
 21 14  1  0  0  0  0
 21 20  1  0  0  0  0
 22 27  1  0  0  0  0
 23  2  1  0  0  0  0
 24  5  1  0  0  0  0
 26  5  1  0  0  0  0
 26 14  1  0  0  0  0
 27  9  2  0  0  0  0
 29 30  1  0  0  0  0
 29 28  1  0  0  0  0
 30 31  2  0  0  0  0
 30 32  1  0  0  0  0
M  END
>  <MODEL>
1

>  <REMARK>
 VINA RESULT:      -9.9      0.000      0.000
  Name = 
  3 active torsions:
  status: ('A' for Active; 'I' for Inactive)
    1  A    between atoms: C_10  and  O_20
    2  A    between atoms: O_20  and  C_29
    3  A    between atoms: C_29  and  C_30
                            x       y       z     vdW  Elec       q    Type
                         _______ _______ _______ _____ _____    ______ ____

>  <TORSDO>
F 3

$$$$
=
 OpenBabel11122410433D

 32 37  0  0  1  0  0  0  0  0999 V2000
  190.9490  176.3260  147.0940 C   0  0  0  0  0  2  0  0  0  0  0  0
  188.8730  177.5720  142.5360 C   0  0  0  0  0  0  0  0  0  0  0  0
  184.2850  179.0930  143.4620 C   0  0  0  0  0  2  0  0  0  0  0  0
  183.8670  178.5680  142.1020 C   0  0  0  0  0  2  0  0  0  0  0  0
  189.7110  177.5930  140.1710 C   0  0  0  0  0  0  0  0  0  0  0  0
  189.3890  177.8080  138.8360 C   0  0  0  0  0  0  0  0  0  0  0  0
  190.4330  177.4800  144.4260 N   0  0  1  0  0  0  0  0  0  0  0  0
  188.0390  177.6340  144.8730 C   0  0  0  0  0  2  0  0  0  0  0  0
  188.1360  178.3090  137.1040 C   0  0  0  0  0  0  0  0  0  0  0  0
  189.6350  177.0300  146.7330 C   0  0  2  0  0  3  0  0  0  0  0  0
  185.4450  178.2520  143.9780 C   0  0  0  0  0  2  0  0  0  0  0  0
  187.8300  177.7530  143.4180 N   0  0  0  0  0  0  0  0  0  0  0  0
  186.5850  178.1340  142.9830 C   0  0  0  0  0  0  0  0  0  0  0  0
  187.3740  178.1410  140.6890 C   0  0  0  0  0  0  0  0  0  0  0  0
  189.3710  178.0400  136.6210 N   0  0  0  0  0  0  0  0  0  0  0  0
  191.7290  175.8580  145.8660 C   0  0  0  0  0  2  0  0  0  0  0  0
  189.3380  176.9220  145.2300 C   0  0  2  0  0  3  0  0  0  0  0  0
  190.1550  177.7290  137.6880 C   0  0  0  0  0  3  0  0  0  0  0  0
  191.7630  176.9650  144.8060 C   0  0  0  0  0  2  0  0  0  0  0  0
  184.9950  178.8120  141.1100 C   0  0  0  0  0  2  0  0  0  0  0  0
  186.3340  178.3150  141.6070 C   0  0  0  0  0  0  0  0  0  0  0  0
  187.1350  178.3390  139.3550 N   0  0  0  0  0  0  0  0  0  0  0  0
  190.1970  177.0590  143.0530 C   0  0  0  0  0  2  0  0  0  0  0  0
  191.0130  177.2370  140.5040 O   0  0  0  0  0  1  0  0  0  0  0  0
  186.9740  178.6960  136.2590 C   0  0  0  0  0  1  0  0  0  0  0  0
  188.6760  177.7580  141.1430 C   0  0  0  0  0  0  0  0  0  0  0  0
  188.1380  178.1680  138.4660 C   0  0  0  0  0  0  0  0  0  0  0  0
  189.7100  178.3720  147.1220 O   0  0  0  0  0  0  0  0  0  0  0  0
  189.2880  178.3840  148.4540 C   0  0  0  0  0  2  0  0  0  0  0  0
  187.8380  178.0430  148.5300 C   0  0  0  0  0  0  0  0  0  0  0  0
  187.4710  177.0580  149.1470 O   0  0  0  0  0  0  0  0  0  0  0  0
  186.8350  178.9180  147.8610 C   0  0  0  0  0  1  0  0  0  0  0  0
  2 23  1  0  0  0  0
  2 12  1  0  0  0  0
  3 11  1  0  0  0  0
  4  3  1  0  0  0  0
  5 24  1  0  0  0  0
  5 26  1  0  0  0  0
  6  5  2  0  0  0  0
  7 23  1  6  0  0  0
  7 19  1  0  0  0  0
  7 17  1  0  0  0  0
  9 27  2  0  0  0  0
 10  1  1  0  0  0  0
 10 28  1  6  0  0  0
 12  8  1  0  0  0  0
 13 12  1  0  0  0  0
 13 11  1  0  0  0  0
 14 26  1  0  0  0  0
 14 21  1  0  0  0  0
 15  9  1  0  0  0  0
 15 18  2  0  0  0  0
 16  1  1  0  0  0  0
 17  8  1  1  0  0  0
 17 10  1  0  0  0  0
 18  6  1  0  0  0  0
 19 16  1  0  0  0  0
 20 21  1  0  0  0  0
 20  4  1  0  0  0  0
 21 13  2  0  0  0  0
 22 14  2  0  0  0  0
 25  9  1  0  0  0  0
 26  2  2  0  0  0  0
 27  6  1  0  0  0  0
 27 22  1  0  0  0  0
 28 29  1  0  0  0  0
 29 30  1  0  0  0  0
 30 31  2  0  0  0  0
 32 30  1  0  0  0  0
M  END
>  <MODEL>
2

>  <REMARK>
 VINA RESULT:      -9.3      2.304      7.369
  Name = 
  3 active torsions:
  status: ('A' for Active; 'I' for Inactive)
    1  A    between atoms: C_10  and  O_20
    2  A    between atoms: O_20  and  C_29
    3  A    between atoms: C_29  and  C_30
                            x       y       z     vdW  Elec       q    Type
                         _______ _______ _______ _____ _____    ______ ____

>  <TORSDO>
F 3

$$$$
=
 OpenBabel11122410433D

 32 37  0  0  1  0  0  0  0  0999 V2000
  180.8400  179.7720  139.6430 C   0  0  0  0  0  2  0  0  0  0  0  0
  185.4170  178.5370  141.6840 C   0  0  0  0  0  0  0  0  0  0  0  0
  184.7080  178.0980  146.5350 C   0  0  0  0  0  2  0  0  0  0  0  0
  186.1340  178.5600  146.7560 C   0  0  0  0  0  2  0  0  0  0  0  0
  187.7030  178.1090  140.7420 C   0  0  0  0  0  0  0  0  0  0  0  0
  189.0350  177.8340  141.0290 C   0  0  0  0  0  0  0  0  0  0  0  0
  183.4310  178.4910  140.2460 N   0  0  1  0  0  0  0  0  0  0  0  0
  183.1510  178.8800  142.6390 C   0  0  0  0  0  2  0  0  0  0  0  0
  190.8050  177.4340  142.2640 C   0  0  0  0  0  0  0  0  0  0  0  0
  181.2360  179.3220  141.0550 C   0  0  2  0  0  3  0  0  0  0  0  0
  184.1810  178.7280  145.2520 C   0  0  0  0  0  2  0  0  0  0  0  0
  184.6030  178.6640  142.7890 N   0  0  0  0  0  0  0  0  0  0  0  0
  185.0940  178.5080  144.0600 C   0  0  0  0  0  0  0  0  0  0  0  0
  187.3150  178.1100  143.1670 C   0  0  0  0  0  0  0  0  0  0  0  0
  191.2170  177.3920  140.9750 N   0  0  0  0  0  0  0  0  0  0  0  0
  182.0420  179.9440  138.7160 C   0  0  0  0  0  2  0  0  0  0  0  0
  182.7610  179.3400  141.2390 C   0  0  2  0  0  3  0  0  0  0  0  0
  190.1250  177.6380  140.2030 C   0  0  0  0  0  3  0  0  0  0  0  0
  182.9980  178.7550  138.8600 C   0  0  0  0  0  2  0  0  0  0  0  0
  187.0160  177.9920  145.6540 C   0  0  0  0  0  2  0  0  0  0  0  0
  186.4650  178.2470  144.2690 C   0  0  0  0  0  0  0  0  0  0  0  0
  188.6410  177.8350  143.3700 N   0  0  0  0  0  0  0  0  0  0  0  0
  184.8480  178.8140  140.3120 C   0  0  0  0  0  2  0  0  0  0  0  0
  187.3050  178.2190  139.4140 O   0  0  0  0  0  1  0  0  0  0  0  0
  191.6980  177.2140  143.4330 C   0  0  0  0  0  1  0  0  0  0  0  0
  186.8000  178.2580  141.8410 C   0  0  0  0  0  0  0  0  0  0  0  0
  189.4650  177.7050  142.3060 C   0  0  0  0  0  0  0  0  0  0  0  0
  180.7290  178.0400  141.2890 O   0  0  0  0  0  0  0  0  0  0  0  0
  179.4280  178.2460  141.7530 C   0  0  0  0  0  2  0  0  0  0  0  0
  179.4500  178.5200  143.2200 C   0  0  0  0  0  0  0  0  0  0  0  0
  179.8730  177.6780  143.9940 O   0  0  0  0  0  0  0  0  0  0  0  0
  178.9680  179.8310  143.7360 C   0  0  0  0  0  1  0  0  0  0  0  0
  1 10  1  0  0  0  0
  2 26  2  0  0  0  0
  2 12  1  0  0  0  0
  3  4  1  0  0  0  0
  5  6  2  0  0  0  0
  5 26  1  0  0  0  0
  6 27  1  0  0  0  0
  7 19  1  6  0  0  0
  7 23  1  0  0  0  0
  7 17  1  0  0  0  0
  8 12  1  0  0  0  0
  9 27  2  0  0  0  0
  9 25  1  0  0  0  0
 10 17  1  0  0  0  0
 10 28  1  6  0  0  0
 11  3  1  0  0  0  0
 12 13  1  0  0  0  0
 13 21  2  0  0  0  0
 13 11  1  0  0  0  0
 14 22  2  0  0  0  0
 14 21  1  0  0  0  0
 15  9  1  0  0  0  0
 16 19  1  0  0  0  0
 16  1  1  0  0  0  0
 17  8  1  1  0  0  0
 18 15  2  0  0  0  0
 18  6  1  0  0  0  0
 20  4  1  0  0  0  0
 21 20  1  0  0  0  0
 23  2  1  0  0  0  0
 24  5  1  0  0  0  0
 26 14  1  0  0  0  0
 27 22  1  0  0  0  0
 28 29  1  0  0  0  0
 29 30  1  0  0  0  0
 30 32  1  0  0  0  0
 30 31  2  0  0  0  0
M  END
>  <MODEL>
3

>  <REMARK>
 VINA RESULT:      -9.3      2.741      5.316
  Name = 
  3 active torsions:
  status: ('A' for Active; 'I' for Inactive)
    1  A    between atoms: C_10  and  O_20
    2  A    between atoms: O_20  and  C_29
    3  A    between atoms: C_29  and  C_30
                            x       y       z     vdW  Elec       q    Type
                         _______ _______ _______ _____ _____    ______ ____

>  <TORSDO>
F 3

$$$$
=
 OpenBabel11122410433D

 32 37  0  0  1  0  0  0  0  0999 V2000
  189.1690  178.0200  148.2900 C   0  0  0  0  0  2  0  0  0  0  0  0
  186.6140  178.2240  143.8100 C   0  0  0  0  0  0  0  0  0  0  0  0
  189.9520  177.4990  140.2670 C   0  0  0  0  0  2  0  0  0  0  0  0
  189.1250  178.3760  139.3480 C   0  0  0  0  0  2  0  0  0  0  0  0
  184.2080  178.5410  143.1720 C   0  0  0  0  0  0  0  0  0  0  0  0
  183.3010  178.6860  142.1290 C   0  0  0  0  0  0  0  0  0  0  0  0
  187.2410  177.5920  146.0950 N   0  0  1  0  0  0  0  0  0  0  0  0
  188.9900  177.8330  144.4110 C   0  0  0  0  0  2  0  0  0  0  0  0
  182.6010  178.8310  140.0530 C   0  0  0  0  0  0  0  0  0  0  0  0
  189.6010  177.6900  146.8560 C   0  0  2  0  0  3  0  0  0  0  0  0
  189.7420  177.9580  141.7030 C   0  0  0  0  0  2  0  0  0  0  0  0
  187.9260  178.0730  143.4180 N   0  0  0  0  0  0  0  0  0  0  0  0
  188.2780  178.0530  142.0920 C   0  0  0  0  0  0  0  0  0  0  0  0
  185.9590  178.3780  141.4590 C   0  0  0  0  0  0  0  0  0  0  0  0
  181.5040  178.9420  140.8390 N   0  0  0  0  0  0  0  0  0  0  0  0
  187.7460  178.5720  148.3680 C   0  0  0  0  0  2  0  0  0  0  0  0
  188.5630  178.1750  145.8330 C   0  0  2  0  0  3  0  0  0  0  0  0
  181.9300  178.8530  142.1270 C   0  0  0  0  0  3  0  0  0  0  0  0
  186.8030  177.7350  147.4970 C   0  0  0  0  0  2  0  0  0  0  0  0
  187.6480  178.1280  139.6230 C   0  0  0  0  0  2  0  0  0  0  0  0
  187.2990  178.2260  141.0910 C   0  0  0  0  0  0  0  0  0  0  0  0
  185.0060  178.5230  140.4850 N   0  0  0  0  0  0  0  0  0  0  0  0
  186.2910  178.3370  145.2820 C   0  0  0  0  0  2  0  0  0  0  0  0
  183.7390  178.5470  144.4820 O   0  0  0  0  0  1  0  0  0  0  0  0
  182.5710  178.8770  138.5670 C   0  0  0  0  0  1  0  0  0  0  0  0
  185.5900  178.3840  142.8400 C   0  0  0  0  0  0  0  0  0  0  0  0
  183.7110  178.6740  140.8380 C   0  0  0  0  0  0  0  0  0  0  0  0
  189.7950  176.3090  146.7400 O   0  0  0  0  0  0  0  0  0  0  0  0
  190.8500  176.0190  147.6100 C   0  0  0  0  0  2  0  0  0  0  0  0
  192.0940  175.7580  146.8280 C   0  0  0  0  0  0  0  0  0  0  0  0
  193.1610  175.6230  147.4020 O   0  0  0  0  0  0  0  0  0  0  0  0
  192.0270  175.6480  145.3450 C   0  0  0  0  0  1  0  0  0  0  0  0
  1 16  1  0  0  0  0
  2 23  1  0  0  0  0
  3 11  1  0  0  0  0
  4 20  1  0  0  0  0
  4  3  1  0  0  0  0
  5 24  1  0  0  0  0
  6  5  2  0  0  0  0
  7 23  1  6  0  0  0
  7 19  1  0  0  0  0
  9 27  2  0  0  0  0
  9 15  1  0  0  0  0
 10 28  1  1  0  0  0
 10  1  1  0  0  0  0
 11 13  1  0  0  0  0
 12  2  1  0  0  0  0
 12  8  1  0  0  0  0
 13 12  1  0  0  0  0
 14 26  1  0  0  0  0
 15 18  2  0  0  0  0
 17  8  1  6  0  0  0
 17  7  1  0  0  0  0
 17 10  1  0  0  0  0
 18  6  1  0  0  0  0
 19 16  1  0  0  0  0
 20 21  1  0  0  0  0
 21 14  1  0  0  0  0
 21 13  2  0  0  0  0
 22 27  1  0  0  0  0
 22 14  2  0  0  0  0
 25  9  1  0  0  0  0
 26  5  1  0  0  0  0
 26  2  2  0  0  0  0
 27  6  1  0  0  0  0
 28 29  1  0  0  0  0
 30 31  2  0  0  0  0
 30 29  1  0  0  0  0
 32 30  1  0  0  0  0
M  END
>  <MODEL>
4

>  <REMARK>
 VINA RESULT:      -8.8      2.597      8.231
  Name = 
  3 active torsions:
  status: ('A' for Active; 'I' for Inactive)
    1  A    between atoms: C_10  and  O_20
    2  A    between atoms: O_20  and  C_29
    3  A    between atoms: C_29  and  C_30
                            x       y       z     vdW  Elec       q    Type
                         _______ _______ _______ _____ _____    ______ ____

>  <TORSDO>
F 3

$$$$
=
 OpenBabel11122410433D

 32 37  0  0  1  0  0  0  0  0999 V2000
  180.7470  179.5790  139.6950 C   0  0  0  0  0  2  0  0  0  0  0  0
  185.3790  178.4890  141.6950 C   0  0  0  0  0  0  0  0  0  0  0  0
  184.7410  178.1050  146.5600 C   0  0  0  0  0  2  0  0  0  0  0  0
  186.1580  178.6060  146.7570 C   0  0  0  0  0  2  0  0  0  0  0  0
  187.6630  178.1050  140.7310 C   0  0  0  0  0  0  0  0  0  0  0  0
  189.0050  177.8680  141.0040 C   0  0  0  0  0  0  0  0  0  0  0  0
  183.3770  178.3730  140.2840 N   0  0  1  0  0  0  0  0  0  0  0  0
  183.1170  178.7900  142.6740 C   0  0  0  0  0  2  0  0  0  0  0  0
  190.8000  177.5310  142.2220 C   0  0  0  0  0  0  0  0  0  0  0  0
  181.1730  179.1610  141.1080 C   0  0  2  0  0  3  0  0  0  0  0  0
  184.1830  178.7020  145.2760 C   0  0  0  0  0  2  0  0  0  0  0  0
  184.5750  178.6130  142.8080 N   0  0  0  0  0  0  0  0  0  0  0  0
  185.0870  178.4870  144.0760 C   0  0  0  0  0  0  0  0  0  0  0  0
  187.3050  178.1330  143.1600 C   0  0  0  0  0  0  0  0  0  0  0  0
  191.1960  177.4800  140.9290 N   0  0  0  0  0  0  0  0  0  0  0  0
  181.9330  179.7680  138.7500 C   0  0  0  0  0  2  0  0  0  0  0  0
  182.6990  179.2200  141.2730 C   0  0  2  0  0  3  0  0  0  0  0  0
  190.0890  177.6870  140.1670 C   0  0  0  0  0  3  0  0  0  0  0  0
  182.9210  178.6050  138.8990 C   0  0  0  0  0  2  0  0  0  0  0  0
  187.0400  178.0430  145.6520 C   0  0  0  0  0  2  0  0  0  0  0  0
  186.4660  178.2650  144.2700 C   0  0  0  0  0  0  0  0  0  0  0  0
  188.6400  177.8930  143.3500 N   0  0  0  0  0  0  0  0  0  0  0  0
  184.7870  178.7320  140.3270 C   0  0  0  0  0  2  0  0  0  0  0  0
  187.2460  178.1850  139.4060 O   0  0  0  0  0  1  0  0  0  0  0  0
  191.7130  177.3510  143.3830 C   0  0  0  0  0  1  0  0  0  0  0  0
  186.7700  178.2480  141.8380 C   0  0  0  0  0  0  0  0  0  0  0  0
  189.4540  177.7690  142.2780 C   0  0  0  0  0  0  0  0  0  0  0  0
  180.7010  177.8690  141.3670 O   0  0  0  0  0  0  0  0  0  0  0  0
  179.5110  177.7680  140.6430 C   0  0  0  0  0  2  0  0  0  0  0  0
  179.1840  176.3320  140.4030 C   0  0  0  0  0  0  0  0  0  0  0  0
  178.9310  175.5960  141.3420 O   0  0  0  0  0  0  0  0  0  0  0  0
  179.1530  175.8010  139.0130 C   0  0  0  0  0  1  0  0  0  0  0  0
  1 10  1  0  0  0  0
  2 26  2  0  0  0  0
  2 12  1  0  0  0  0
  3  4  1  0  0  0  0
  5  6  2  0  0  0  0
  5 26  1  0  0  0  0
  6 27  1  0  0  0  0
  7 19  1  6  0  0  0
  7 23  1  0  0  0  0
  7 17  1  0  0  0  0
  8 12  1  0  0  0  0
  9 27  2  0  0  0  0
  9 25  1  0  0  0  0
 10 17  1  0  0  0  0
 10 28  1  6  0  0  0
 11  3  1  0  0  0  0
 12 13  1  0  0  0  0
 13 21  2  0  0  0  0
 13 11  1  0  0  0  0
 14 22  2  0  0  0  0
 14 21  1  0  0  0  0
 15  9  1  0  0  0  0
 16 19  1  0  0  0  0
 16  1  1  0  0  0  0
 17  8  1  1  0  0  0
 18 15  2  0  0  0  0
 18  6  1  0  0  0  0
 20  4  1  0  0  0  0
 21 20  1  0  0  0  0
 23  2  1  0  0  0  0
 24  5  1  0  0  0  0
 26 14  1  0  0  0  0
 27 22  1  0  0  0  0
 29 28  1  0  0  0  0
 30 29  1  0  0  0  0
 30 31  2  0  0  0  0
 32 30  1  0  0  0  0
M  END
>  <MODEL>
5

>  <REMARK>
 VINA RESULT:      -8.8      2.737      5.078
  Name = 
  3 active torsions:
  status: ('A' for Active; 'I' for Inactive)
    1  A    between atoms: C_10  and  O_20
    2  A    between atoms: O_20  and  C_29
    3  A    between atoms: C_29  and  C_30
                            x       y       z     vdW  Elec       q    Type
                         _______ _______ _______ _____ _____    ______ ____

>  <TORSDO>
F 3

$$$$
=
 OpenBabel11122410433D

 32 37  0  0  1  0  0  0  0  0999 V2000
  191.2480  176.9020  141.1550 C   0  0  0  0  0  2  0  0  0  0  0  0
  186.3010  178.3530  141.4150 C   0  0  0  0  0  0  0  0  0  0  0  0
  185.1810  178.6360  146.1990 C   0  0  0  0  0  2  0  0  0  0  0  0
  183.7540  178.2520  145.8580 C   0  0  0  0  0  2  0  0  0  0  0  0
  184.5490  178.9340  139.7150 C   0  0  0  0  0  0  0  0  0  0  0  0
  183.2200  179.2800  139.5020 C   0  0  0  0  0  0  0  0  0  0  0  0
  188.6790  178.3170  140.8150 N   0  0  1  0  0  0  0  0  0  0  0  0
  188.0330  177.8560  143.1220 C   0  0  0  0  0  2  0  0  0  0  0  0
  181.1380  179.7530  140.0120 C   0  0  0  0  0  0  0  0  0  0  0  0
  190.3770  177.3400  142.3400 C   0  0  2  0  0  3  0  0  0  0  0  0
  186.1160  178.0070  145.1750 C   0  0  0  0  0  2  0  0  0  0  0  0
  186.6410  178.1530  142.7350 N   0  0  0  0  0  0  0  0  0  0  0  0
  185.7210  178.3070  143.7410 C   0  0  0  0  0  0  0  0  0  0  0  0
  184.0110  178.8540  142.1090 C   0  0  0  0  0  0  0  0  0  0  0  0
  181.2360  179.8490  138.6660 N   0  0  0  0  0  0  0  0  0  0  0  0
  190.4690  176.8220  139.8430 C   0  0  0  0  0  2  0  0  0  0  0  0
  188.8930  177.4070  141.9470 C   0  0  2  0  0  3  0  0  0  0  0  0
  182.5240  179.5580  138.3410 C   0  0  0  0  0  3  0  0  0  0  0  0
  189.5820  178.0600  139.6760 C   0  0  0  0  0  2  0  0  0  0  0  0
  183.3710  178.8970  144.5340 C   0  0  0  0  0  2  0  0  0  0  0  0
  184.3840  178.6420  143.4400 C   0  0  0  0  0  0  0  0  0  0  0  0
  182.7170  179.2010  141.8200 N   0  0  0  0  0  0  0  0  0  0  0  0
  187.3250  178.0750  140.3390 C   0  0  0  0  0  2  0  0  0  0  0  0
  185.4060  178.8330  138.6240 O   0  0  0  0  0  1  0  0  0  0  0  0
  179.8860  179.9970  140.7780 C   0  0  0  0  0  1  0  0  0  0  0  0
  184.9730  178.7070  141.0620 C   0  0  0  0  0  0  0  0  0  0  0  0
  182.3540  179.4030  140.5350 C   0  0  0  0  0  0  0  0  0  0  0  0
  190.8180  178.5860  142.7990 O   0  0  0  0  0  0  0  0  0  0  0  0
  191.7930  178.2920  143.7560 C   0  0  0  0  0  2  0  0  0  0  0  0
  191.1510  177.7050  144.9690 C   0  0  0  0  0  0  0  0  0  0  0  0
  190.1870  178.2530  145.4780 O   0  0  0  0  0  0  0  0  0  0  0  0
  191.6810  176.4410  145.5500 C   0  0  0  0  0  1  0  0  0  0  0  0
  1 10  1  0  0  0  0
  2 12  1  0  0  0  0
  4  3  1  0  0  0  0
  5 26  1  0  0  0  0
  6  5  2  0  0  0  0
  6 27  1  0  0  0  0
  7 19  1  6  0  0  0
  7 17  1  0  0  0  0
  9 27  2  0  0  0  0
  9 25  1  0  0  0  0
 10 28  1  6  0  0  0
 11  3  1  0  0  0  0
 12  8  1  0  0  0  0
 12 13  1  0  0  0  0
 13 11  1  0  0  0  0
 14 21  1  0  0  0  0
 15  9  1  0  0  0  0
 16  1  1  0  0  0  0
 17 10  1  0  0  0  0
 17  8  1  1  0  0  0
 18 15  2  0  0  0  0
 18  6  1  0  0  0  0
 19 16  1  0  0  0  0
 20  4  1  0  0  0  0
 21 13  2  0  0  0  0
 21 20  1  0  0  0  0
 22 14  2  0  0  0  0
 23  7  1  0  0  0  0
 23  2  1  0  0  0  0
 24  5  1  0  0  0  0
 26  2  2  0  0  0  0
 26 14  1  0  0  0  0
 27 22  1  0  0  0  0
 28 29  1  0  0  0  0
 29 30  1  0  0  0  0
 30 31  2  0  0  0  0
 30 32  1  0  0  0  0
M  END
>  <MODEL>
6

>  <REMARK>
 VINA RESULT:      -8.6      2.308      6.851
  Name = 
  3 active torsions:
  status: ('A' for Active; 'I' for Inactive)
    1  A    between atoms: C_10  and  O_20
    2  A    between atoms: O_20  and  C_29
    3  A    between atoms: C_29  and  C_30
                            x       y       z     vdW  Elec       q    Type
                         _______ _______ _______ _____ _____    ______ ____

>  <TORSDO>
F 3

$$$$
=
 OpenBabel11122410433D

 32 37  0  0  1  0  0  0  0  0999 V2000
  181.1260  178.7960  140.2850 C   0  0  0  0  0  2  0  0  0  0  0  0
  185.7870  178.2150  142.4240 C   0  0  0  0  0  0  0  0  0  0  0  0
  189.0550  178.5600  138.7610 C   0  0  0  0  0  2  0  0  0  0  0  0
  189.9640  177.6140  139.5210 C   0  0  0  0  0  2  0  0  0  0  0  0
  186.6140  177.8750  144.7690 C   0  0  0  0  0  0  0  0  0  0  0  0
  187.7200  177.6480  145.5790 C   0  0  0  0  0  0  0  0  0  0  0  0
  183.5200  179.0470  141.9940 N   0  0  1  0  0  0  0  0  0  0  0  0
  185.0050  178.6260  140.1040 C   0  0  0  0  0  2  0  0  0  0  0  0
  189.8300  177.3210  146.0910 C   0  0  0  0  0  0  0  0  0  0  0  0
  182.5380  178.9860  139.7160 C   0  0  2  0  0  3  0  0  0  0  0  0
  187.6090  178.2390  139.1110 C   0  0  0  0  0  2  0  0  0  0  0  0
  186.0670  178.3100  141.0780 N   0  0  0  0  0  0  0  0  0  0  0  0
  187.3510  178.2020  140.6070 C   0  0  0  0  0  0  0  0  0  0  0  0
  188.1650  177.8530  142.8650 C   0  0  0  0  0  0  0  0  0  0  0  0
  189.1430  177.3000  147.2560 N   0  0  0  0  0  0  0  0  0  0  0  0
  181.1300  178.2750  141.7210 C   0  0  0  0  0  2  0  0  0  0  0  0
  183.6040  178.4230  140.6670 C   0  0  2  0  0  3  0  0  0  0  0  0
  187.8330  177.5020  146.9490 C   0  0  0  0  0  3  0  0  0  0  0  0
  182.1580  179.0410  142.5610 C   0  0  0  0  0  2  0  0  0  0  0  0
  189.8510  177.9080  141.0100 C   0  0  0  0  0  2  0  0  0  0  0  0
  188.4190  177.9510  141.4940 C   0  0  0  0  0  0  0  0  0  0  0  0
  189.2060  177.6330  143.7280 N   0  0  0  0  0  0  0  0  0  0  0  0
  184.3470  178.2450  142.8830 C   0  0  0  0  0  2  0  0  0  0  0  0
  185.3590  177.9980  145.3550 O   0  0  0  0  0  1  0  0  0  0  0  0
  191.3020  177.1380  145.9850 C   0  0  0  0  0  1  0  0  0  0  0  0
  186.8290  177.9810  143.3590 C   0  0  0  0  0  0  0  0  0  0  0  0
  188.9620  177.5340  145.0540 C   0  0  0  0  0  0  0  0  0  0  0  0
  182.7600  180.3470  139.4800 O   0  0  0  0  0  0  0  0  0  0  0  0
  182.0510  180.6310  138.3100 C   0  0  0  0  0  2  0  0  0  0  0  0
  181.5620  182.0400  138.3430 C   0  0  0  0  0  0  0  0  0  0  0  0
  182.3570  182.9650  138.3430 O   0  0  0  0  0  0  0  0  0  0  0  0
  180.0990  182.3170  138.3620 C   0  0  0  0  0  1  0  0  0  0  0  0
  1 16  1  0  0  0  0
  2 23  1  0  0  0  0
  2 26  2  0  0  0  0
  3 11  1  0  0  0  0
  3  4  1  0  0  0  0
  4 20  1  0  0  0  0
  5 24  1  0  0  0  0
  5  6  2  0  0  0  0
  6 18  1  0  0  0  0
  7 19  1  1  0  0  0
  7 23  1  0  0  0  0
  8 12  1  0  0  0  0
  9 15  1  0  0  0  0
 10 28  1  1  0  0  0
 10  1  1  0  0  0  0
 10 17  1  0  0  0  0
 11 13  1  0  0  0  0
 12  2  1  0  0  0  0
 13 12  1  0  0  0  0
 13 21  2  0  0  0  0
 14 26  1  0  0  0  0
 14 22  2  0  0  0  0
 16 19  1  0  0  0  0
 17  8  1  6  0  0  0
 17  7  1  0  0  0  0
 18 15  2  0  0  0  0
 20 21  1  0  0  0  0
 21 14  1  0  0  0  0
 22 27  1  0  0  0  0
 25  9  1  0  0  0  0
 26  5  1  0  0  0  0
 27  6  1  0  0  0  0
 27  9  2  0  0  0  0
 29 30  1  0  0  0  0
 29 28  1  0  0  0  0
 30 32  1  0  0  0  0
 31 30  2  0  0  0  0
M  END
>  <MODEL>
7

>  <REMARK>
 VINA RESULT:      -8.5      2.674      5.013
  Name = 
  3 active torsions:
  status: ('A' for Active; 'I' for Inactive)
    1  A    between atoms: C_10  and  O_20
    2  A    between atoms: O_20  and  C_29
    3  A    between atoms: C_29  and  C_30
                            x       y       z     vdW  Elec       q    Type
                         _______ _______ _______ _____ _____    ______ ____

>  <TORSDO>
F 3

$$$$
=
 OpenBabel11122410433D

 32 37  0  0  1  0  0  0  0  0999 V2000
  189.6160  178.0630  148.1230 C   0  0  0  0  0  2  0  0  0  0  0  0
  186.1630  178.3250  144.2950 C   0  0  0  0  0  0  0  0  0  0  0  0
  188.6610  177.6090  140.1150 C   0  0  0  0  0  2  0  0  0  0  0  0
  187.6640  178.5000  139.4000 C   0  0  0  0  0  2  0  0  0  0  0  0
  183.6800  178.6650  144.1890 C   0  0  0  0  0  0  0  0  0  0  0  0
  182.5730  178.8260  143.3640 C   0  0  0  0  0  0  0  0  0  0  0  0
  187.2590  177.6680  146.3890 N   0  0  1  0  0  0  0  0  0  0  0  0
  188.6100  177.9120  144.3710 C   0  0  0  0  0  2  0  0  0  0  0  0
  181.4460  178.9940  141.4880 C   0  0  0  0  0  0  0  0  0  0  0  0
  189.7290  177.7420  146.6270 C   0  0  2  0  0  3  0  0  0  0  0  0
  188.7670  178.0560  141.5660 C   0  0  0  0  0  2  0  0  0  0  0  0
  187.3610  178.1680  143.6300 N   0  0  0  0  0  0  0  0  0  0  0  0
  187.4210  178.1580  142.2590 C   0  0  0  0  0  0  0  0  0  0  0  0
  185.0230  178.5050  142.1390 C   0  0  0  0  0  0  0  0  0  0  0  0
  180.5440  179.1060  142.4900 N   0  0  0  0  0  0  0  0  0  0  0  0
  188.2480  178.6240  148.5080 C   0  0  0  0  0  2  0  0  0  0  0  0
  188.5000  178.2440  145.8540 C   0  0  2  0  0  3  0  0  0  0  0  0
  181.2340  179.0010  143.6580 C   0  0  0  0  0  3  0  0  0  0  0  0
  187.1320  177.8010  147.8530 C   0  0  0  0  0  2  0  0  0  0  0  0
  186.2780  178.2590  139.9830 C   0  0  0  0  0  2  0  0  0  0  0  0
  186.2520  178.3470  141.4920 C   0  0  0  0  0  0  0  0  0  0  0  0
  183.8850  178.6650  141.3930 N   0  0  0  0  0  0  0  0  0  0  0  0
  186.1640  178.4260  145.8020 C   0  0  0  0  0  2  0  0  0  0  0  0
  183.5020  178.6620  145.5680 O   0  0  0  0  0  1  0  0  0  0  0  0
  181.0990  179.0540  140.0420 C   0  0  0  0  0  1  0  0  0  0  0  0
  184.9570  178.5010  143.5680 C   0  0  0  0  0  0  0  0  0  0  0  0
  182.6960  178.8220  142.0160 C   0  0  0  0  0  0  0  0  0  0  0  0
  189.8810  176.3610  146.4630 O   0  0  0  0  0  0  0  0  0  0  0  0
  191.2590  176.1630  146.3410 C   0  0  0  0  0  2  0  0  0  0  0  0
  191.6820  176.4040  144.9310 C   0  0  0  0  0  0  0  0  0  0  0  0
  191.9990  177.5250  144.5690 O   0  0  0  0  0  0  0  0  0  0  0  0
  191.7320  175.2700  143.9670 C   0  0  0  0  0  1  0  0  0  0  0  0
  1 16  1  0  0  0  0
  2 23  1  0  0  0  0
  3 11  1  0  0  0  0
  4 20  1  0  0  0  0
  4  3  1  0  0  0  0
  5 24  1  0  0  0  0
  6 18  1  0  0  0  0
  6  5  2  0  0  0  0
  7 23  1  6  0  0  0
  7 19  1  0  0  0  0
  9 27  2  0  0  0  0
  9 15  1  0  0  0  0
 10 28  1  1  0  0  0
 10  1  1  0  0  0  0
 11 13  1  0  0  0  0
 12  2  1  0  0  0  0
 12  8  1  0  0  0  0
 13 12  1  0  0  0  0
 14 26  1  0  0  0  0
 15 18  2  0  0  0  0
 17  8  1  6  0  0  0
 17  7  1  0  0  0  0
 17 10  1  0  0  0  0
 19 16  1  0  0  0  0
 20 21  1  0  0  0  0
 21 14  1  0  0  0  0
 21 13  2  0  0  0  0
 22 27  1  0  0  0  0
 22 14  2  0  0  0  0
 25  9  1  0  0  0  0
 26  5  1  0  0  0  0
 26  2  2  0  0  0  0
 27  6  1  0  0  0  0
 29 28  1  0  0  0  0
 30 29  1  0  0  0  0
 31 30  2  0  0  0  0
 32 30  1  0  0  0  0
M  END
>  <MODEL>
8

>  <REMARK>
 VINA RESULT:      -8.3      2.826      7.870
  Name = 
  3 active torsions:
  status: ('A' for Active; 'I' for Inactive)
    1  A    between atoms: C_10  and  O_20
    2  A    between atoms: O_20  and  C_29
    3  A    between atoms: C_29  and  C_30
                            x       y       z     vdW  Elec       q    Type
                         _______ _______ _______ _____ _____    ______ ____

>  <TORSDO>
F 3

$$$$
=
 OpenBabel11122410433D

 32 37  0  0  1  0  0  0  0  0999 V2000
  185.4180  177.8860  137.0130 C   0  0  0  0  0  2  0  0  0  0  0  0
  186.9400  178.0140  141.9440 C   0  0  0  0  0  0  0  0  0  0  0  0
  191.8050  177.2700  141.9210 C   0  0  0  0  0  2  0  0  0  0  0  0
  191.6810  176.6040  143.2770 C   0  0  0  0  0  2  0  0  0  0  0  0
  185.7750  178.4000  144.1330 C   0  0  0  0  0  0  0  0  0  0  0  0
  185.9030  178.4350  145.5160 C   0  0  0  0  0  0  0  0  0  0  0  0
  185.8880  178.6580  139.8240 N   0  0  1  0  0  0  0  0  0  0  0  0
  188.1330  177.7020  139.7900 C   0  0  0  0  0  2  0  0  0  0  0  0
  186.9000  178.2960  147.4670 C   0  0  0  0  0  0  0  0  0  0  0  0
  186.8150  177.9080  137.6470 C   0  0  2  0  0  3  0  0  0  0  0  0
  190.5100  177.0570  141.1490 C   0  0  0  0  0  2  0  0  0  0  0  0
  188.0980  177.7020  141.2640 N   0  0  0  0  0  0  0  0  0  0  0  0
  189.2750  177.4680  141.9290 C   0  0  0  0  0  0  0  0  0  0  0  0
  188.1600  177.8210  144.0550 C   0  0  0  0  0  0  0  0  0  0  0  0
  185.6100  178.6190  147.7160 N   0  0  0  0  0  0  0  0  0  0  0  0
  184.2970  177.8190  138.0500 C   0  0  0  0  0  2  0  0  0  0  0  0
  186.7450  177.6660  139.1620 C   0  0  2  0  0  3  0  0  0  0  0  0
  184.9850  178.7090  146.5110 C   0  0  0  0  0  3  0  0  0  0  0  0
  184.5660  178.8120  139.1870 C   0  0  0  0  0  2  0  0  0  0  0  0
  190.6190  177.3300  144.0910 C   0  0  0  0  0  2  0  0  0  0  0  0
  189.3190  177.5050  143.3390 C   0  0  0  0  0  0  0  0  0  0  0  0
  188.2090  177.8790  145.4220 N   0  0  0  0  0  0  0  0  0  0  0  0
  185.6490  178.1670  141.1730 C   0  0  0  0  0  2  0  0  0  0  0  0
  184.5400  178.6830  143.5600 O   0  0  0  0  0  1  0  0  0  0  0  0
  187.9310  178.1020  148.5220 C   0  0  0  0  0  1  0  0  0  0  0  0
  186.9360  178.0800  143.3620 C   0  0  0  0  0  0  0  0  0  0  0  0
  187.0900  178.1800  146.1170 C   0  0  0  0  0  0  0  0  0  0  0  0
  187.4250  179.1380  137.3750 O   0  0  0  0  0  0  0  0  0  0  0  0
  187.9660  178.9960  136.0950 C   0  0  0  0  0  2  0  0  0  0  0  0
  189.0220  177.9420  136.1050 C   0  0  0  0  0  0  0  0  0  0  0  0
  189.8560  177.9190  136.9950 O   0  0  0  0  0  0  0  0  0  0  0  0
  189.0480  176.9070  135.0360 C   0  0  0  0  0  1  0  0  0  0  0  0
  1 10  1  0  0  0  0
  1 16  1  0  0  0  0
  2 26  2  0  0  0  0
  3  4  1  0  0  0  0
  4 20  1  0  0  0  0
  5  6  2  0  0  0  0
  6 27  1  0  0  0  0
  6 18  1  0  0  0  0
  7 19  1  6  0  0  0
  7 23  1  0  0  0  0
  8 12  1  0  0  0  0
  9 15  1  0  0  0  0
  9 25  1  0  0  0  0
 10 28  1  1  0  0  0
 10 17  1  0  0  0  0
 11  3  1  0  0  0  0
 11 13  1  0  0  0  0
 12 13  1  0  0  0  0
 12  2  1  0  0  0  0
 13 21  2  0  0  0  0
 14 22  2  0  0  0  0
 16 19  1  0  0  0  0
 17  8  1  1  0  0  0
 17  7  1  0  0  0  0
 18 15  2  0  0  0  0
 21 14  1  0  0  0  0
 21 20  1  0  0  0  0
 22 27  1  0  0  0  0
 23  2  1  0  0  0  0
 24  5  1  0  0  0  0
 26 14  1  0  0  0  0
 26  5  1  0  0  0  0
 27  9  2  0  0  0  0
 29 30  1  0  0  0  0
 29 28  1  0  0  0  0
 30 31  2  0  0  0  0
 32 30  1  0  0  0  0
M  END
>  <MODEL>
9

>  <REMARK>
 VINA RESULT:      -8.1      2.042      4.417
  Name = 
  3 active torsions:
  status: ('A' for Active; 'I' for Inactive)
    1  A    between atoms: C_10  and  O_20
    2  A    between atoms: O_20  and  C_29
    3  A    between atoms: C_29  and  C_30
                            x       y       z     vdW  Elec       q    Type
                         _______ _______ _______ _____ _____    ______ ____

>  <TORSDO>
F 3

$$$$
