=
 OpenBabel11122412083D

 34 40  0  0  1  0  0  0  0  0999 V2000
  182.3280  178.9280  143.5410 C   0  0  0  0  0  0  0  0  0  0  0  0
  183.8410  178.6910  145.5210 C   0  0  0  0  0  2  0  0  0  0  0  0
  181.3500  176.4730  137.5940 C   0  0  1  0  0  3  0  0  0  0  0  0
  181.0780  178.2960  141.5760 C   0  0  0  0  0  0  0  0  0  0  0  0
  182.2550  178.2870  139.3040 C   0  0  2  0  0  3  0  0  0  0  0  0
  183.1680  177.9030  137.1650 O   0  0  0  0  0  0  0  0  0  0  0  0
  181.5550  175.3540  138.4010 O   0  0  0  0  0  1  0  0  0  0  0  0
  179.5840  178.3160  137.9820 C   0  0  0  0  0  2  0  0  0  0  0  0
  184.8340  179.3910  143.4230 N   0  0  2  0  0  0  0  0  0  0  0  0
  187.7170  178.0010  142.9680 C   0  0  0  0  0  2  0  0  0  0  0  0
  183.5050  177.9700  140.1130 C   0  0  0  0  0  2  0  0  0  0  0  0
  179.7250  178.5640  139.4860 C   0  0  0  0  0  2  0  0  0  0  0  0
  184.7910  178.5630  142.1930 C   0  0  1  0  0  3  0  0  0  0  0  0
  185.2940  178.9560  145.7700 C   0  0  0  0  0  2  0  0  0  0  0  0
  180.9840  177.9420  140.1080 C   0  0  2  0  0  3  0  0  0  0  0  0
  179.8610  176.8610  137.6040 C   0  0  0  0  0  2  0  0  0  0  0  0
  186.6940  177.7280  144.0610 C   0  0  2  0  0  3  0  0  0  0  0  0
  182.3030  178.6650  142.1700 C   0  0  0  0  0  0  0  0  0  0  0  0
  182.3150  177.5730  137.9740 C   0  0  0  0  0  0  0  0  0  0  0  0
  183.5450  178.8610  141.3530 C   0  0  2  0  0  3  0  0  0  0  0  0
  180.0200  178.4210  143.6910 C   0  0  0  0  0  3  0  0  0  0  0  0
  187.1000  177.8250  141.5910 C   0  0  0  0  0  2  0  0  0  0  0  0
  179.9740  178.1610  142.3600 N   0  0  0  0  0  0  0  0  0  0  0  0
  186.0240  178.8640  141.3410 C   0  0  0  0  0  2  0  0  0  0  0  0
  185.9130  179.0260  144.3820 C   0  0  1  0  0  3  0  0  0  0  0  0
  181.1840  178.8100  144.2670 N   0  0  0  0  0  0  0  0  0  0  0  0
  183.5850  179.4080  144.2190 C   0  0  1  0  0  3  0  0  0  0  0  0
  187.3760  177.2650  145.1920 O   0  0  0  0  0  0  0  0  0  0  0  0
  188.6930  177.0810  144.7630 C   0  0  0  0  0  2  0  0  0  0  0  0
  190.4210  176.2170  147.4480 O   0  0  0  0  0  0  0  0  0  0  0  0
  191.0060  177.2840  145.4560 N   0  0  0  0  0  2  0  0  0  0  0  0
  189.6530  177.6710  145.7800 C   0  0  2  0  0  3  0  0  0  0  0  0
  191.5020  176.6690  146.6770 C   0  0  0  0  0  2  0  0  0  0  0  0
  189.3700  177.0850  147.1370 C   0  0  0  0  0  2  0  0  0  0  0  0
  1 27  1  0  0  0  0
  1 26  1  0  0  0  0
  2 14  1  0  0  0  0
  3 16  1  0  0  0  0
  3 19  1  0  0  0  0
  3  7  1  1  0  0  0
  4 18  1  0  0  0  0
  4 23  2  0  0  0  0
  5 15  1  0  0  0  0
  5 11  1  1  0  0  0
  6 19  2  0  0  0  0
  8 12  1  0  0  0  0
  9 27  1  0  0  0  0
  9 25  1  0  0  0  0
 10 17  1  0  0  0  0
 11 20  1  0  0  0  0
 12 15  1  0  0  0  0
 13  9  1  0  0  0  0
 15  4  1  0  0  0  0
 16  8  1  0  0  0  0
 17 25  1  0  0  0  0
 17 28  1  0  0  0  0
 18  1  2  0  0  0  0
 19  5  1  0  0  0  0
 20 18  1  0  0  0  0
 20 13  1  0  0  0  0
 21 26  2  0  0  0  0
 22 10  1  0  0  0  0
 23 21  1  0  0  0  0
 24 22  1  0  0  0  0
 24 13  1  0  0  0  0
 25 14  1  0  0  0  0
 27  2  1  0  0  0  0
 29 28  1  0  0  0  0
 29 32  1  0  0  0  0
 31 32  1  0  0  0  0
 31 33  1  0  0  0  0
 32 34  1  0  0  0  0
 33 30  1  0  0  0  0
 34 30  1  0  0  0  0
M  END
>  <MODEL>
1

>  <REMARK>
 VINA RESULT:      -8.7      0.000      0.000
  Name = 
  3 active torsions:
  status: ('A' for Active; 'I' for Inactive)
    1  A    between atoms: C_17  and  O_28
    2  A    between atoms: O_28  and  C_29
    3  A    between atoms: C_29  and  C_32
                            x       y       z     vdW  Elec       q    Type
                         _______ _______ _______ _____ _____    ______ ____

>  <TORSDO>
F 3

$$$$
=
 OpenBabel11122412083D

 34 40  0  0  1  0  0  0  0  0999 V2000
  186.6290  178.2530  138.8320 C   0  0  0  0  0  0  0  0  0  0  0  0
  184.2120  178.1950  138.1810 C   0  0  0  0  0  2  0  0  0  0  0  0
  190.6360  176.3500  143.5930 C   0  0  1  0  0  3  0  0  0  0  0  0
  188.7050  177.5480  139.8400 C   0  0  0  0  0  0  0  0  0  0  0  0
  189.1540  178.1230  142.2920 C   0  0  2  0  0  3  0  0  0  0  0  0
  189.6760  178.2530  144.5870 O   0  0  0  0  0  0  0  0  0  0  0  0
  189.8270  175.2380  143.3560 O   0  0  0  0  0  1  0  0  0  0  0  0
  192.0510  177.5950  141.8280 C   0  0  0  0  0  2  0  0  0  0  0  0
  184.8030  179.3780  140.2130 N   0  0  2  0  0  0  0  0  0  0  0  0
  182.6180  178.8710  142.5420 C   0  0  0  0  0  2  0  0  0  0  0  0
  187.6400  178.0570  142.4360 C   0  0  0  0  0  2  0  0  0  0  0  0
  191.0670  177.6920  140.6590 C   0  0  0  0  0  2  0  0  0  0  0  0
  185.4600  178.7210  141.3680 C   0  0  1  0  0  3  0  0  0  0  0  0
  182.9610  178.8060  138.7330 C   0  0  0  0  0  2  0  0  0  0  0  0
  189.6150  177.3590  141.0330 C   0  0  2  0  0  3  0  0  0  0  0  0
  191.8530  176.3220  142.6510 C   0  0  0  0  0  2  0  0  0  0  0  0
  182.7200  178.2070  141.1760 C   0  0  2  0  0  3  0  0  0  0  0  0
  187.4390  178.1580  139.9650 C   0  0  0  0  0  0  0  0  0  0  0  0
  189.8080  177.6130  143.5550 C   0  0  0  0  0  0  0  0  0  0  0  0
  186.9870  178.7730  141.2560 C   0  0  2  0  0  3  0  0  0  0  0  0
  188.2740  177.1350  137.5480 C   0  0  0  0  0  3  0  0  0  0  0  0
  183.9080  178.7010  143.3250 C   0  0  0  0  0  2  0  0  0  0  0  0
  189.0770  177.0320  138.6370 N   0  0  0  0  0  0  0  0  0  0  0  0
  185.0520  179.4380  142.6550 C   0  0  0  0  0  2  0  0  0  0  0  0
  183.3250  179.2030  140.1550 C   0  0  1  0  0  3  0  0  0  0  0  0
  187.0690  177.7490  137.6480 N   0  0  0  0  0  0  0  0  0  0  0  0
  185.3020  178.9670  138.8810 C   0  0  1  0  0  3  0  0  0  0  0  0
  181.4360  177.8120  140.7850 O   0  0  0  0  0  0  0  0  0  0  0  0
  180.5820  178.4080  141.7170 C   0  0  0  0  0  2  0  0  0  0  0  0
  180.0530  181.0500  139.7980 O   0  0  0  0  0  0  0  0  0  0  0  0
  179.4850  178.7960  139.5900 N   0  0  0  0  0  2  0  0  0  0  0  0
  179.4560  179.1270  140.9960 C   0  0  2  0  0  3  0  0  0  0  0  0
  179.5340  180.0870  138.9220 C   0  0  0  0  0  2  0  0  0  0  0  0
  179.6800  180.6140  141.0730 C   0  0  0  0  0  2  0  0  0  0  0  0
  1 27  1  0  0  0  0
  1 18  1  0  0  0  0
  2 14  1  0  0  0  0
  2 27  1  0  0  0  0
  3  7  1  6  0  0  0
  4 18  2  0  0  0  0
  4 15  1  0  0  0  0
  5 11  1  1  0  0  0
  5 19  1  0  0  0  0
  8 16  1  0  0  0  0
  9 13  1  0  0  0  0
 10 22  1  0  0  0  0
 12 15  1  0  0  0  0
 12  8  1  0  0  0  0
 13 24  1  0  0  0  0
 14 25  1  0  0  0  0
 15  5  1  0  0  0  0
 16  3  1  0  0  0  0
 17 10  1  0  0  0  0
 18 20  1  0  0  0  0
 19  3  1  0  0  0  0
 19  6  2  0  0  0  0
 20 13  1  0  0  0  0
 20 11  1  0  0  0  0
 21 26  1  0  0  0  0
 21 23  2  0  0  0  0
 23  4  1  0  0  0  0
 24 22  1  0  0  0  0
 25  9  1  0  0  0  0
 25 17  1  0  0  0  0
 26  1  2  0  0  0  0
 27  9  1  0  0  0  0
 28 17  1  0  0  0  0
 28 29  1  0  0  0  0
 30 34  1  0  0  0  0
 31 32  1  0  0  0  0
 32 34  1  0  0  0  0
 32 29  1  0  0  0  0
 33 31  1  0  0  0  0
 33 30  1  0  0  0  0
M  END
>  <MODEL>
2

>  <REMARK>
 VINA RESULT:      -8.5      2.963      8.879
  Name = 
  3 active torsions:
  status: ('A' for Active; 'I' for Inactive)
    1  A    between atoms: C_17  and  O_28
    2  A    between atoms: O_28  and  C_29
    3  A    between atoms: C_29  and  C_32
                            x       y       z     vdW  Elec       q    Type
                         _______ _______ _______ _____ _____    ______ ____

>  <TORSDO>
F 3

$$$$
=
 OpenBabel11122412083D

 34 40  0  0  1  0  0  0  0  0999 V2000
  187.6830  178.0340  139.1440 C   0  0  0  0  0  0  0  0  0  0  0  0
  186.4260  178.2810  141.2950 C   0  0  0  0  0  2  0  0  0  0  0  0
  191.9980  174.1360  136.2210 C   0  0  1  0  0  3  0  0  0  0  0  0
  188.8060  176.9450  137.3070 C   0  0  0  0  0  0  0  0  0  0  0  0
  191.2710  176.3090  137.5580 C   0  0  2  0  0  3  0  0  0  0  0  0
  193.4240  175.3520  137.6420 O   0  0  0  0  0  0  0  0  0  0  0  0
  191.0710  173.2620  136.7910 O   0  0  0  0  0  1  0  0  0  0  0  0
  191.4550  176.0650  134.5940 C   0  0  0  0  0  2  0  0  0  0  0  0
  188.8470  178.3790  141.3880 N   0  0  2  0  0  0  0  0  0  0  0  0
  189.9830  176.8380  143.9930 C   0  0  0  0  0  2  0  0  0  0  0  0
  190.9390  176.1790  139.0380 C   0  0  0  0  0  2  0  0  0  0  0  0
  190.2290  176.6950  135.2620 C   0  0  0  0  0  2  0  0  0  0  0  0
  189.7170  177.2600  140.9550 C   0  0  1  0  0  3  0  0  0  0  0  0
  186.8160  178.5600  142.7140 C   0  0  0  0  0  2  0  0  0  0  0  0
  189.9900  176.2220  136.7030 C   0  0  2  0  0  3  0  0  0  0  0  0
  191.5270  174.5550  134.8170 C   0  0  0  0  0  2  0  0  0  0  0  0
  188.5550  176.8890  143.4690 C   0  0  2  0  0  3  0  0  0  0  0  0
  188.8300  177.4220  138.6340 C   0  0  0  0  0  0  0  0  0  0  0  0
  192.2990  175.2690  137.1750 C   0  0  0  0  0  0  0  0  0  0  0  0
  190.0740  177.3620  139.4680 C   0  0  2  0  0  3  0  0  0  0  0  0
  186.5550  177.6500  137.0990 C   0  0  0  0  0  3  0  0  0  0  0  0
  190.9340  176.3240  142.9250 C   0  0  0  0  0  2  0  0  0  0  0  0
  187.6580  177.0510  136.5840 N   0  0  0  0  0  0  0  0  0  0  0  0
  191.0160  177.2910  141.7600 C   0  0  0  0  0  2  0  0  0  0  0  0
  188.3040  178.2470  142.7690 C   0  0  1  0  0  3  0  0  0  0  0  0
  186.5760  178.1430  138.3620 N   0  0  0  0  0  0  0  0  0  0  0  0
  187.6720  178.6390  140.5240 C   0  0  1  0  0  3  0  0  0  0  0  0
  187.6860  176.7190  144.5520 O   0  0  0  0  0  0  0  0  0  0  0  0
  188.0900  177.6760  145.4860 C   0  0  0  0  0  2  0  0  0  0  0  0
  189.4180  178.1000  148.4860 O   0  0  0  0  0  0  0  0  0  0  0  0
  187.2170  177.9080  147.7350 N   0  0  0  0  0  2  0  0  0  0  0  0
  188.0440  177.0850  146.8830 C   0  0  2  0  0  3  0  0  0  0  0  0
  188.0740  178.2230  148.8670 C   0  0  0  0  0  2  0  0  0  0  0  0
  189.4210  177.1200  147.4890 C   0  0  0  0  0  2  0  0  0  0  0  0
  1 27  1  0  0  0  0
  2 14  1  0  0  0  0
  3  7  1  1  0  0  0
  3 19  1  0  0  0  0
  4 18  2  0  0  0  0
  5 11  1  1  0  0  0
  8 16  1  0  0  0  0
  8 12  1  0  0  0  0
  9 25  1  0  0  0  0
 11 20  1  0  0  0  0
 12 15  1  0  0  0  0
 13  9  1  0  0  0  0
 13 24  1  0  0  0  0
 14 25  1  0  0  0  0
 15  4  1  0  0  0  0
 15  5  1  0  0  0  0
 16  3  1  0  0  0  0
 17 10  1  0  0  0  0
 17 28  1  0  0  0  0
 18  1  1  0  0  0  0
 18 20  1  0  0  0  0
 19  5  1  0  0  0  0
 19  6  2  0  0  0  0
 20 13  1  0  0  0  0
 21 26  1  0  0  0  0
 22 10  1  0  0  0  0
 23 21  2  0  0  0  0
 23  4  1  0  0  0  0
 24 22  1  0  0  0  0
 25 17  1  0  0  0  0
 26  1  2  0  0  0  0
 27  2  1  0  0  0  0
 27  9  1  0  0  0  0
 28 29  1  0  0  0  0
 29 32  1  0  0  0  0
 30 33  1  0  0  0  0
 31 33  1  0  0  0  0
 32 34  1  0  0  0  0
 32 31  1  0  0  0  0
 34 30  1  0  0  0  0
M  END
>  <MODEL>
3

>  <REMARK>
 VINA RESULT:      -8.3      5.004      7.337
  Name = 
  3 active torsions:
  status: ('A' for Active; 'I' for Inactive)
    1  A    between atoms: C_17  and  O_28
    2  A    between atoms: O_28  and  C_29
    3  A    between atoms: C_29  and  C_32
                            x       y       z     vdW  Elec       q    Type
                         _______ _______ _______ _____ _____    ______ ____

>  <TORSDO>
F 3

$$$$
=
 OpenBabel11122412083D

 34 40  0  0  1  0  0  0  0  0999 V2000
  188.3360  177.6590  142.8700 C   0  0  0  0  0  0  0  0  0  0  0  0
  190.5230  176.5840  142.2990 C   0  0  0  0  0  2  0  0  0  0  0  0
  182.2220  178.1620  140.6980 C   0  0  1  0  0  3  0  0  0  0  0  0
  185.9460  177.9620  143.0100 C   0  0  0  0  0  0  0  0  0  0  0  0
  184.7090  179.0190  141.0350 C   0  0  2  0  0  3  0  0  0  0  0  0
  183.3050  179.6740  139.2590 O   0  0  0  0  0  0  0  0  0  0  0  0
  182.5180  176.8030  140.5870 O   0  0  0  0  0  1  0  0  0  0  0  0
  182.4100  179.5820  142.8460 C   0  0  0  0  0  2  0  0  0  0  0  0
  189.6130  178.1870  140.7250 N   0  0  2  0  0  0  0  0  0  0  0  0
  190.0790  177.2280  137.6730 C   0  0  0  0  0  2  0  0  0  0  0  0
  185.8160  178.3990  140.1940 C   0  0  0  0  0  2  0  0  0  0  0  0
  183.7610  179.1200  143.4010 C   0  0  0  0  0  2  0  0  0  0  0  0
  188.2990  178.0100  140.0610 C   0  0  1  0  0  3  0  0  0  0  0  0
  191.5120  176.7410  141.1860 C   0  0  0  0  0  2  0  0  0  0  0  0
  184.6060  178.3140  142.4030 C   0  0  2  0  0  3  0  0  0  0  0  0
  181.6750  178.4660  142.1040 C   0  0  0  0  0  2  0  0  0  0  0  0
  190.3490  176.4610  138.9600 C   0  0  2  0  0  3  0  0  0  0  0  0
  187.1400  178.0500  142.2640 C   0  0  0  0  0  0  0  0  0  0  0  0
  183.4090  178.9910  140.2650 C   0  0  0  0  0  0  0  0  0  0  0  0
  187.1620  178.6270  140.8800 C   0  0  2  0  0  3  0  0  0  0  0  0
  187.1610  177.0840  144.8430 C   0  0  0  0  0  3  0  0  0  0  0  0
  188.6320  177.6840  137.6070 C   0  0  0  0  0  2  0  0  0  0  0  0
  185.9880  177.4580  144.2730 N   0  0  0  0  0  0  0  0  0  0  0  0
  188.3300  178.6950  138.6950 C   0  0  0  0  0  2  0  0  0  0  0  0
  190.7390  177.4510  140.0860 C   0  0  1  0  0  3  0  0  0  0  0  0
  188.3200  177.1960  144.1480 N   0  0  0  0  0  0  0  0  0  0  0  0
  189.6550  177.8080  142.1570 C   0  0  1  0  0  3  0  0  0  0  0  0
  191.3830  175.5510  138.7170 O   0  0  0  0  0  0  0  0  0  0  0  0
  192.0570  176.0660  137.6070 C   0  0  0  0  0  2  0  0  0  0  0  0
  194.4530  174.1480  136.3710 O   0  0  0  0  0  0  0  0  0  0  0  0
  194.2550  176.4550  136.6630 N   0  0  0  0  0  2  0  0  0  0  0  0
  193.5470  175.8140  137.7470 C   0  0  2  0  0  3  0  0  0  0  0  0
  195.0400  175.3850  136.0680 C   0  0  0  0  0  2  0  0  0  0  0  0
  193.8240  174.3410  137.6050 C   0  0  0  0  0  2  0  0  0  0  0  0
  1 26  1  0  0  0  0
  3  7  1  1  0  0  0
  3 16  1  0  0  0  0
  4 23  2  0  0  0  0
  5 11  1  6  0  0  0
  5 15  1  0  0  0  0
  6 19  2  0  0  0  0
  8 12  1  0  0  0  0
  9 27  1  0  0  0  0
 10 17  1  0  0  0  0
 11 20  1  0  0  0  0
 13  9  1  0  0  0  0
 13 20  1  0  0  0  0
 14  2  1  0  0  0  0
 15  4  1  0  0  0  0
 15 12  1  0  0  0  0
 16  8  1  0  0  0  0
 17 25  1  0  0  0  0
 18  1  2  0  0  0  0
 18  4  1  0  0  0  0
 19  3  1  0  0  0  0
 19  5  1  0  0  0  0
 20 18  1  0  0  0  0
 22 10  1  0  0  0  0
 22 24  1  0  0  0  0
 23 21  1  0  0  0  0
 24 13  1  0  0  0  0
 25  9  1  0  0  0  0
 25 14  1  0  0  0  0
 26 21  2  0  0  0  0
 27  2  1  0  0  0  0
 27  1  1  0  0  0  0
 28 17  1  0  0  0  0
 29 32  1  0  0  0  0
 29 28  1  0  0  0  0
 30 34  1  0  0  0  0
 31 32  1  0  0  0  0
 33 30  1  0  0  0  0
 33 31  1  0  0  0  0
 34 32  1  0  0  0  0
M  END
>  <MODEL>
4

>  <REMARK>
 VINA RESULT:      -8.0      4.722      6.557
  Name = 
  3 active torsions:
  status: ('A' for Active; 'I' for Inactive)
    1  A    between atoms: C_17  and  O_28
    2  A    between atoms: O_28  and  C_29
    3  A    between atoms: C_29  and  C_32
                            x       y       z     vdW  Elec       q    Type
                         _______ _______ _______ _____ _____    ______ ____

>  <TORSDO>
F 3

$$$$
=
 OpenBabel11122412083D

 34 40  0  0  1  0  0  0  0  0999 V2000
  186.9360  177.9480  138.4680 C   0  0  0  0  0  0  0  0  0  0  0  0
  184.5920  177.8170  137.5990 C   0  0  0  0  0  2  0  0  0  0  0  0
  190.4930  176.3950  143.6920 C   0  0  1  0  0  3  0  0  0  0  0  0
  188.9130  177.3360  139.7080 C   0  0  0  0  0  0  0  0  0  0  0  0
  189.1250  178.0650  142.1510 C   0  0  2  0  0  3  0  0  0  0  0  0
  189.4270  178.3420  144.4720 O   0  0  0  0  0  0  0  0  0  0  0  0
  189.7190  175.2600  143.4500 O   0  0  0  0  0  1  0  0  0  0  0  0
  192.0570  177.5510  141.9930 C   0  0  0  0  0  2  0  0  0  0  0  0
  184.9780  179.1290  139.6000 N   0  0  2  0  0  0  0  0  0  0  0  0
  182.5890  178.7350  141.7410 C   0  0  0  0  0  2  0  0  0  0  0  0
  187.6050  177.9870  142.1570 C   0  0  0  0  0  2  0  0  0  0  0  0
  191.1860  177.5620  140.7340 C   0  0  0  0  0  2  0  0  0  0  0  0
  185.5300  178.5530  140.8500 C   0  0  1  0  0  3  0  0  0  0  0  0
  183.2890  178.4420  137.9920 C   0  0  0  0  0  2  0  0  0  0  0  0
  189.7080  177.2320  140.9900 C   0  0  2  0  0  3  0  0  0  0  0  0
  191.7930  176.3280  142.8710 C   0  0  0  0  0  2  0  0  0  0  0  0
  182.8240  177.9910  140.4350 C   0  0  2  0  0  3  0  0  0  0  0  0
  187.6360  177.9340  139.6760 C   0  0  0  0  0  0  0  0  0  0  0  0
  189.6620  177.6420  143.4990 C   0  0  0  0  0  0  0  0  0  0  0  0
  187.0600  178.6200  140.8780 C   0  0  2  0  0  3  0  0  0  0  0  0
  188.7040  176.7780  137.4160 C   0  0  0  0  0  3  0  0  0  0  0  0
  183.8010  178.6310  142.6510 C   0  0  0  0  0  2  0  0  0  0  0  0
  189.4020  176.7520  138.5790 N   0  0  0  0  0  0  0  0  0  0  0  0
  184.9960  179.3410  142.0460 C   0  0  0  0  0  2  0  0  0  0  0  0
  183.5140  178.9300  139.4150 C   0  0  1  0  0  3  0  0  0  0  0  0
  187.4900  177.3800  137.3640 N   0  0  0  0  0  0  0  0  0  0  0  0
  185.6050  178.6450  138.3490 C   0  0  1  0  0  3  0  0  0  0  0  0
  181.5860  177.5550  139.9510 O   0  0  0  0  0  0  0  0  0  0  0  0
  180.6740  177.8900  140.9540 C   0  0  0  0  0  2  0  0  0  0  0  0
  179.5590  175.0830  139.6040 O   0  0  0  0  0  0  0  0  0  0  0  0
  179.3070  176.0390  141.7180 N   0  0  0  0  0  2  0  0  0  0  0  0
  179.3830  177.1150  140.7570 C   0  0  2  0  0  3  0  0  0  0  0  0
  179.0950  174.8510  140.9070 C   0  0  0  0  0  2  0  0  0  0  0  0
  179.3940  176.4570  139.4030 C   0  0  0  0  0  2  0  0  0  0  0  0
  1 18  1  0  0  0  0
  2 14  1  0  0  0  0
  2 27  1  0  0  0  0
  3  7  1  6  0  0  0
  4 15  1  0  0  0  0
  5 11  1  1  0  0  0
  5 19  1  0  0  0  0
  8 16  1  0  0  0  0
  9 13  1  0  0  0  0
 10 22  1  0  0  0  0
 12 15  1  0  0  0  0
 12  8  1  0  0  0  0
 13 20  1  0  0  0  0
 13 24  1  0  0  0  0
 14 25  1  0  0  0  0
 15  5  1  0  0  0  0
 16  3  1  0  0  0  0
 17 10  1  0  0  0  0
 18  4  2  0  0  0  0
 18 20  1  0  0  0  0
 19  3  1  0  0  0  0
 19  6  2  0  0  0  0
 20 11  1  0  0  0  0
 21 23  2  0  0  0  0
 23  4  1  0  0  0  0
 24 22  1  0  0  0  0
 25  9  1  0  0  0  0
 25 17  1  0  0  0  0
 26 21  1  0  0  0  0
 26  1  2  0  0  0  0
 27  1  1  0  0  0  0
 27  9  1  0  0  0  0
 28 17  1  0  0  0  0
 28 29  1  0  0  0  0
 30 33  1  0  0  0  0
 32 29  1  0  0  0  0
 32 31  1  0  0  0  0
 33 31  1  0  0  0  0
 34 30  1  0  0  0  0
 34 32  1  0  0  0  0
M  END
>  <MODEL>
5

>  <REMARK>
 VINA RESULT:      -8.0      2.983      8.970
  Name = 
  3 active torsions:
  status: ('A' for Active; 'I' for Inactive)
    1  A    between atoms: C_17  and  O_28
    2  A    between atoms: O_28  and  C_29
    3  A    between atoms: C_29  and  C_32
                            x       y       z     vdW  Elec       q    Type
                         _______ _______ _______ _____ _____    ______ ____

>  <TORSDO>
F 3

$$$$
=
 OpenBabel11122412083D

 34 40  0  0  1  0  0  0  0  0999 V2000
  186.4080  178.4560  142.1100 C   0  0  0  0  0  0  0  0  0  0  0  0
  188.6780  177.5640  141.5480 C   0  0  0  0  0  2  0  0  0  0  0  0
  180.1480  177.7610  140.4730 C   0  0  1  0  0  3  0  0  0  0  0  0
  184.0150  178.4860  142.4160 C   0  0  0  0  0  0  0  0  0  0  0  0
  182.5100  178.9670  140.4040 C   0  0  2  0  0  3  0  0  0  0  0  0
  180.9090  179.0760  138.6770 O   0  0  0  0  0  0  0  0  0  0  0  0
  180.6220  176.4550  140.5930 O   0  0  0  0  0  1  0  0  0  0  0  0
  180.2860  179.5940  142.2860 C   0  0  0  0  0  2  0  0  0  0  0  0
  187.4480  178.6960  139.7930 N   0  0  2  0  0  0  0  0  0  0  0  0
  187.8300  177.2120  136.9470 C   0  0  0  0  0  2  0  0  0  0  0  0
  183.6310  178.3310  139.5940 C   0  0  0  0  0  2  0  0  0  0  0  0
  181.7220  179.4220  142.7880 C   0  0  0  0  0  2  0  0  0  0  0  0
  186.1290  178.2300  139.3010 C   0  0  1  0  0  3  0  0  0  0  0  0
  189.5570  177.6160  140.3360 C   0  0  0  0  0  2  0  0  0  0  0  0
  182.6000  178.5420  141.8850 C   0  0  2  0  0  3  0  0  0  0  0  0
  179.6630  178.2710  141.8420 C   0  0  0  0  0  2  0  0  0  0  0  0
  188.2920  176.7570  138.3230 C   0  0  2  0  0  3  0  0  0  0  0  0
  185.1310  178.5680  141.5570 C   0  0  0  0  0  0  0  0  0  0  0  0
  181.1760  178.6260  139.7800 C   0  0  0  0  0  0  0  0  0  0  0  0
  184.9760  178.8560  140.0940 C   0  0  2  0  0  3  0  0  0  0  0  0
  185.4640  178.1470  144.2580 C   0  0  0  0  0  3  0  0  0  0  0  0
  186.3330  177.4640  136.9330 C   0  0  0  0  0  2  0  0  0  0  0  0
  184.2130  178.2530  143.7420 N   0  0  0  0  0  0  0  0  0  0  0  0
  185.9700  178.6280  137.8340 C   0  0  0  0  0  2  0  0  0  0  0  0
  188.6180  177.9910  139.2000 C   0  0  1  0  0  3  0  0  0  0  0  0
  186.5450  178.2590  143.4480 N   0  0  0  0  0  0  0  0  0  0  0  0
  187.6410  178.6200  141.2590 C   0  0  1  0  0  3  0  0  0  0  0  0
  189.4240  175.9500  138.1600 O   0  0  0  0  0  0  0  0  0  0  0  0
  189.2800  175.3870  136.8900 C   0  0  0  0  0  2  0  0  0  0  0  0
  192.5330  175.9860  136.9050 O   0  0  0  0  0  0  0  0  0  0  0  0
  191.2490  174.1620  137.5940 N   0  0  0  0  0  2  0  0  0  0  0  0
  190.5900  174.7570  136.4540 C   0  0  2  0  0  3  0  0  0  0  0  0
  192.5730  174.7650  137.5930 C   0  0  0  0  0  2  0  0  0  0  0  0
  191.5210  175.8290  135.9540 C   0  0  0  0  0  2  0  0  0  0  0  0
  1 26  1  0  0  0  0
  3  7  1  1  0  0  0
  3 16  1  0  0  0  0
  4 23  2  0  0  0  0
  5 11  1  6  0  0  0
  5 15  1  0  0  0  0
  6 19  2  0  0  0  0
  8 12  1  0  0  0  0
  9 27  1  0  0  0  0
 10 17  1  0  0  0  0
 11 20  1  0  0  0  0
 13  9  1  0  0  0  0
 13 20  1  0  0  0  0
 14  2  1  0  0  0  0
 15  4  1  0  0  0  0
 15 12  1  0  0  0  0
 16  8  1  0  0  0  0
 17 25  1  0  0  0  0
 18  1  2  0  0  0  0
 18  4  1  0  0  0  0
 19  5  1  0  0  0  0
 19  3  1  0  0  0  0
 20 18  1  0  0  0  0
 22 10  1  0  0  0  0
 22 24  1  0  0  0  0
 23 21  1  0  0  0  0
 24 13  1  0  0  0  0
 25  9  1  0  0  0  0
 25 14  1  0  0  0  0
 26 21  2  0  0  0  0
 27  2  1  0  0  0  0
 27  1  1  0  0  0  0
 28 17  1  0  0  0  0
 29 28  1  0  0  0  0
 30 33  1  0  0  0  0
 32 29  1  0  0  0  0
 32 31  1  0  0  0  0
 33 31  1  0  0  0  0
 34 32  1  0  0  0  0
 34 30  1  0  0  0  0
M  END
>  <MODEL>
6

>  <REMARK>
 VINA RESULT:      -8.0      4.003      5.765
  Name = 
  3 active torsions:
  status: ('A' for Active; 'I' for Inactive)
    1  A    between atoms: C_17  and  O_28
    2  A    between atoms: O_28  and  C_29
    3  A    between atoms: C_29  and  C_32
                            x       y       z     vdW  Elec       q    Type
                         _______ _______ _______ _____ _____    ______ ____

>  <TORSDO>
F 3

$$$$
=
 OpenBabel11122412083D

 34 40  0  0  1  0  0  0  0  0999 V2000
  188.7790  177.5020  140.3080 C   0  0  0  0  0  0  0  0  0  0  0  0
  188.1030  176.9100  137.9720 C   0  0  0  0  0  2  0  0  0  0  0  0
  186.4970  177.4650  146.4030 C   0  0  1  0  0  3  0  0  0  0  0  0
  188.8770  177.3980  142.7170 C   0  0  0  0  0  0  0  0  0  0  0  0
  187.0920  178.6150  144.0880 C   0  0  2  0  0  3  0  0  0  0  0  0
  185.4180  179.3780  145.5610 O   0  0  0  0  0  0  0  0  0  0  0  0
  186.1410  176.2170  145.8920 O   0  0  0  0  0  1  0  0  0  0  0  0
  188.8830  178.4500  146.4640 C   0  0  0  0  0  2  0  0  0  0  0  0
  186.8280  178.6280  139.1110 N   0  0  2  0  0  0  0  0  0  0  0  0
  183.6710  178.3670  138.4690 C   0  0  0  0  0  2  0  0  0  0  0  0
  186.1940  178.3490  142.8870 C   0  0  0  0  0  2  0  0  0  0  0  0
  189.3940  178.1050  145.0630 C   0  0  0  0  0  2  0  0  0  0  0  0
  186.0900  178.3830  140.3730 C   0  0  1  0  0  3  0  0  0  0  0  0
  187.0810  177.4320  137.0100 C   0  0  0  0  0  2  0  0  0  0  0  0
  188.2960  177.6490  144.0910 C   0  0  2  0  0  3  0  0  0  0  0  0
  187.9120  177.4010  147.0050 C   0  0  0  0  0  2  0  0  0  0  0  0
  184.7970  177.4160  138.0920 C   0  0  2  0  0  3  0  0  0  0  0  0
  188.2110  177.8130  141.5450 C   0  0  0  0  0  0  0  0  0  0  0  0
  186.2790  178.5360  145.3590 C   0  0  0  0  0  0  0  0  0  0  0  0
  186.9650  178.6450  141.6030 C   0  0  2  0  0  3  0  0  0  0  0  0
  190.5570  176.3780  141.3950 C   0  0  0  0  0  3  0  0  0  0  0  0
  183.6340  178.5970  139.9690 C   0  0  0  0  0  2  0  0  0  0  0  0
  190.0210  176.6690  142.6080 N   0  0  0  0  0  0  0  0  0  0  0  0
  184.8820  179.3180  140.4390 C   0  0  0  0  0  2  0  0  0  0  0  0
  186.1060  178.2150  137.8760 C   0  0  1  0  0  3  0  0  0  0  0  0
  189.9440  176.8010  140.2620 N   0  0  0  0  0  0  0  0  0  0  0  0
  188.1620  177.9890  139.0230 C   0  0  1  0  0  3  0  0  0  0  0  0
  184.4270  176.7410  136.9230 O   0  0  0  0  0  0  0  0  0  0  0  0
  183.7860  175.5830  137.3680 C   0  0  0  0  0  2  0  0  0  0  0  0
  185.3100  172.6890  137.8660 O   0  0  0  0  0  0  0  0  0  0  0  0
  183.3670  173.2860  136.7190 N   0  0  0  0  0  2  0  0  0  0  0  0
  184.3010  174.3810  136.5970 C   0  0  2  0  0  3  0  0  0  0  0  0
  184.1730  172.1840  137.2190 C   0  0  0  0  0  2  0  0  0  0  0  0
  185.5840  173.8980  137.2190 C   0  0  0  0  0  2  0  0  0  0  0  0
  1 18  1  0  0  0  0
  2 27  1  0  0  0  0
  3  7  1  6  0  0  0
  3 16  1  0  0  0  0
  4 15  1  0  0  0  0
  5 11  1  6  0  0  0
  5 15  1  0  0  0  0
  5 19  1  0  0  0  0
  8 16  1  0  0  0  0
  9 13  1  0  0  0  0
 10 22  1  0  0  0  0
 12  8  1  0  0  0  0
 13 24  1  0  0  0  0
 13 20  1  0  0  0  0
 14 25  1  0  0  0  0
 14  2  1  0  0  0  0
 15 12  1  0  0  0  0
 17 10  1  0  0  0  0
 18 20  1  0  0  0  0
 18  4  2  0  0  0  0
 19  6  2  0  0  0  0
 19  3  1  0  0  0  0
 20 11  1  0  0  0  0
 21 23  2  0  0  0  0
 22 24  1  0  0  0  0
 23  4  1  0  0  0  0
 25 17  1  0  0  0  0
 25  9  1  0  0  0  0
 26  1  2  0  0  0  0
 26 21  1  0  0  0  0
 27  9  1  0  0  0  0
 27  1  1  0  0  0  0
 28 29  1  0  0  0  0
 28 17  1  0  0  0  0
 31 33  1  0  0  0  0
 32 31  1  0  0  0  0
 32 34  1  0  0  0  0
 32 29  1  0  0  0  0
 33 30  1  0  0  0  0
 34 30  1  0  0  0  0
M  END
>  <MODEL>
7

>  <REMARK>
 VINA RESULT:      -7.7      3.230      8.761
  Name = 
  3 active torsions:
  status: ('A' for Active; 'I' for Inactive)
    1  A    between atoms: C_17  and  O_28
    2  A    between atoms: O_28  and  C_29
    3  A    between atoms: C_29  and  C_32
                            x       y       z     vdW  Elec       q    Type
                         _______ _______ _______ _____ _____    ______ ____

>  <TORSDO>
F 3

$$$$
=
 OpenBabel11122412083D

 34 40  0  0  1  0  0  0  0  0999 V2000
  180.3050  176.9330  140.7730 C   0  0  0  0  0  0  0  0  0  0  0  0
  180.2410  177.8000  143.1200 C   0  0  0  0  0  2  0  0  0  0  0  0
  184.3200  174.0260  136.5560 C   0  0  1  0  0  3  0  0  0  0  0  0
  180.9380  175.5450  138.9030 C   0  0  0  0  0  0  0  0  0  0  0  0
  183.0590  176.1170  137.5920 C   0  0  2  0  0  3  0  0  0  0  0  0
  185.1030  176.2400  136.4250 O   0  0  0  0  0  0  0  0  0  0  0  0
  184.4990  173.3220  137.7470 O   0  0  0  0  0  1  0  0  0  0  0  0
  182.0690  174.4170  135.3530 C   0  0  0  0  0  2  0  0  0  0  0  0
  181.8090  178.8280  141.5830 N   0  0  2  0  0  0  0  0  0  0  0  0
  184.6230  179.4740  143.0350 C   0  0  0  0  0  2  0  0  0  0  0  0
  183.5520  176.6860  138.9160 C   0  0  0  0  0  2  0  0  0  0  0  0
  181.1570  174.7940  136.5240 C   0  0  0  0  0  2  0  0  0  0  0  0
  182.8930  178.0720  140.9100 C   0  0  1  0  0  3  0  0  0  0  0  0
  180.9270  178.9150  143.8470 C   0  0  0  0  0  2  0  0  0  0  0  0
  181.9080  175.1160  137.8250 C   0  0  2  0  0  3  0  0  0  0  0  0
  183.1520  173.4180  135.7580 C   0  0  0  0  0  2  0  0  0  0  0  0
  183.4310  178.7000  143.5790 C   0  0  2  0  0  3  0  0  0  0  0  0
  181.2210  176.6250  139.7650 C   0  0  0  0  0  0  0  0  0  0  0  0
  184.2180  175.5070  136.8380 C   0  0  0  0  0  0  0  0  0  0  0  0
  182.4300  177.4900  139.5700 C   0  0  2  0  0  3  0  0  0  0  0  0
  178.9330  175.1280  140.0920 C   0  0  0  0  0  3  0  0  0  0  0  0
  185.1130  178.8700  141.7300 C   0  0  0  0  0  2  0  0  0  0  0  0
  179.8100  174.8110  139.1070 N   0  0  0  0  0  0  0  0  0  0  0  0
  184.0680  179.0120  140.6410 C   0  0  0  0  0  2  0  0  0  0  0  0
  182.1220  179.2630  142.9720 C   0  0  1  0  0  3  0  0  0  0  0  0
  179.1770  176.1840  140.9060 N   0  0  0  0  0  0  0  0  0  0  0  0
  180.5080  178.1250  141.6720 C   0  0  1  0  0  3  0  0  0  0  0  0
  183.4280  178.8260  144.9720 O   0  0  0  0  0  0  0  0  0  0  0  0
  184.7410  179.1690  145.3020 C   0  0  0  0  0  2  0  0  0  0  0  0
  187.5880  177.9220  146.4340 O   0  0  0  0  0  0  0  0  0  0  0  0
  185.7940  178.9890  147.4780 N   0  0  0  0  0  2  0  0  0  0  0  0
  185.2660  178.2270  146.3700 C   0  0  2  0  0  3  0  0  0  0  0  0
  187.1510  178.4910  147.6390 C   0  0  0  0  0  2  0  0  0  0  0  0
  186.4270  177.4420  145.8210 C   0  0  0  0  0  2  0  0  0  0  0  0
  1 26  1  0  0  0  0
  1 27  1  0  0  0  0
  2 14  1  0  0  0  0
  3 19  1  0  0  0  0
  3  7  1  1  0  0  0
  4 23  2  0  0  0  0
  4 18  1  0  0  0  0
  5 15  1  0  0  0  0
  5 11  1  1  0  0  0
  6 19  2  0  0  0  0
  8 16  1  0  0  0  0
  8 12  1  0  0  0  0
  9 27  1  0  0  0  0
  9 25  1  0  0  0  0
 10 17  1  0  0  0  0
 11 20  1  0  0  0  0
 12 15  1  0  0  0  0
 13  9  1  0  0  0  0
 15  4  1  0  0  0  0
 16  3  1  0  0  0  0
 17 28  1  0  0  0  0
 18  1  2  0  0  0  0
 19  5  1  0  0  0  0
 20 18  1  0  0  0  0
 20 13  1  0  0  0  0
 21 26  2  0  0  0  0
 22 10  1  0  0  0  0
 23 21  1  0  0  0  0
 24 13  1  0  0  0  0
 24 22  1  0  0  0  0
 25 17  1  0  0  0  0
 25 14  1  0  0  0  0
 27  2  1  0  0  0  0
 28 29  1  0  0  0  0
 29 32  1  0  0  0  0
 30 33  1  0  0  0  0
 31 33  1  0  0  0  0
 32 31  1  0  0  0  0
 34 32  1  0  0  0  0
 34 30  1  0  0  0  0
M  END
>  <MODEL>
8

>  <REMARK>
 VINA RESULT:      -7.5      2.388      3.959
  Name = 
  3 active torsions:
  status: ('A' for Active; 'I' for Inactive)
    1  A    between atoms: C_17  and  O_28
    2  A    between atoms: O_28  and  C_29
    3  A    between atoms: C_29  and  C_32
                            x       y       z     vdW  Elec       q    Type
                         _______ _______ _______ _____ _____    ______ ____

>  <TORSDO>
F 3

$$$$
=
 OpenBabel11122412083D

 34 40  0  0  1  0  0  0  0  0999 V2000
  190.1270  177.4990  137.9240 C   0  0  0  0  0  0  0  0  0  0  0  0
  189.5440  176.8010  135.5920 C   0  0  0  0  0  2  0  0  0  0  0  0
  188.0260  176.9220  144.0560 C   0  0  1  0  0  3  0  0  0  0  0  0
  190.2930  177.3930  140.3290 C   0  0  0  0  0  0  0  0  0  0  0  0
  188.3200  178.1940  141.7470 C   0  0  2  0  0  3  0  0  0  0  0  0
  186.5530  178.5730  143.2600 O   0  0  0  0  0  0  0  0  0  0  0  0
  187.9300  175.6320  143.5340 O   0  0  0  0  0  1  0  0  0  0  0  0
  190.1520  178.3860  144.0900 C   0  0  0  0  0  2  0  0  0  0  0  0
  187.9600  178.2020  136.7770 N   0  0  2  0  0  0  0  0  0  0  0  0
  184.9160  177.2890  136.1860 C   0  0  0  0  0  2  0  0  0  0  0  0
  187.4740  177.7580  140.5590 C   0  0  0  0  0  2  0  0  0  0  0  0
  190.6970  178.1700  142.6750 C   0  0  0  0  0  2  0  0  0  0  0  0
  187.3140  177.7940  138.0480 C   0  0  1  0  0  3  0  0  0  0  0  0
  188.4160  177.1070  134.6550 C   0  0  0  0  0  2  0  0  0  0  0  0
  189.6990  177.5030  141.7160 C   0  0  2  0  0  3  0  0  0  0  0  0
  189.4350  177.1500  144.6320 C   0  0  0  0  0  2  0  0  0  0  0  0
  186.2090  176.5990  135.7760 C   0  0  2  0  0  3  0  0  0  0  0  0
  189.5310  177.6710  139.1750 C   0  0  0  0  0  0  0  0  0  0  0  0
  187.5670  177.9330  143.0310 C   0  0  0  0  0  0  0  0  0  0  0  0
  188.1400  178.2220  139.2660 C   0  0  2  0  0  3  0  0  0  0  0  0
  192.1230  176.7630  138.9640 C   0  0  0  0  0  3  0  0  0  0  0  0
  184.8610  177.4910  137.6900 C   0  0  0  0  0  2  0  0  0  0  0  0
  191.5620  176.9230  140.1890 N   0  0  0  0  0  0  0  0  0  0  0  0
  185.9390  178.4540  138.1480 C   0  0  0  0  0  2  0  0  0  0  0  0
  187.3160  177.6580  135.5490 C   0  0  1  0  0  3  0  0  0  0  0  0
  191.4120  177.0590  137.8480 N   0  0  0  0  0  0  0  0  0  0  0  0
  189.3960  177.8590  136.6570 C   0  0  1  0  0  3  0  0  0  0  0  0
  185.9660  175.8740  134.6050 O   0  0  0  0  0  0  0  0  0  0  0  0
  185.6270  174.5920  135.0430 C   0  0  0  0  0  2  0  0  0  0  0  0
  186.7910  171.6790  136.0930 O   0  0  0  0  0  0  0  0  0  0  0  0
  187.7780  173.4780  134.9810 N   0  0  0  0  0  2  0  0  0  0  0  0
  186.7650  174.0100  135.8620 C   0  0  2  0  0  3  0  0  0  0  0  0
  187.9480  172.1030  135.4230 C   0  0  0  0  0  2  0  0  0  0  0  0
  186.2600  172.8400  136.6630 C   0  0  0  0  0  2  0  0  0  0  0  0
  1 18  1  0  0  0  0
  2 27  1  0  0  0  0
  3  7  1  6  0  0  0
  3 16  1  0  0  0  0
  4 15  1  0  0  0  0
  5 11  1  6  0  0  0
  5 19  1  0  0  0  0
  8 16  1  0  0  0  0
  9 13  1  0  0  0  0
 10 22  1  0  0  0  0
 12  8  1  0  0  0  0
 13 24  1  0  0  0  0
 13 20  1  0  0  0  0
 14 25  1  0  0  0  0
 14  2  1  0  0  0  0
 15  5  1  0  0  0  0
 15 12  1  0  0  0  0
 17 10  1  0  0  0  0
 18 20  1  0  0  0  0
 18  4  2  0  0  0  0
 19  6  2  0  0  0  0
 19  3  1  0  0  0  0
 20 11  1  0  0  0  0
 21 23  2  0  0  0  0
 22 24  1  0  0  0  0
 23  4  1  0  0  0  0
 25 17  1  0  0  0  0
 25  9  1  0  0  0  0
 26  1  2  0  0  0  0
 26 21  1  0  0  0  0
 27  9  1  0  0  0  0
 27  1  1  0  0  0  0
 28 29  1  0  0  0  0
 28 17  1  0  0  0  0
 29 32  1  0  0  0  0
 30 34  1  0  0  0  0
 31 33  1  0  0  0  0
 31 32  1  0  0  0  0
 32 34  1  0  0  0  0
 33 30  1  0  0  0  0
M  END
>  <MODEL>
9

>  <REMARK>
 VINA RESULT:      -7.4      4.927      9.652
  Name = 
  3 active torsions:
  status: ('A' for Active; 'I' for Inactive)
    1  A    between atoms: C_17  and  O_28
    2  A    between atoms: O_28  and  C_29
    3  A    between atoms: C_29  and  C_32
                            x       y       z     vdW  Elec       q    Type
                         _______ _______ _______ _____ _____    ______ ____

>  <TORSDO>
F 3

$$$$
