=
 OpenBabel11122411243D

 37 43  0  0  1  0  0  0  0  0999 V2000
  182.8760  176.1010  138.1380 C   0  0  0  0  0  2  0  0  0  0  0  0
  185.4630  179.0480  141.9270 C   0  0  0  0  0  0  0  0  0  0  0  0
  181.7660  178.6310  140.2190 C   0  0  1  0  0  3  0  0  0  0  0  0
  183.2720  174.7070  137.6330 C   0  0  2  0  0  3  0  0  0  0  0  0
  181.9320  178.8250  136.3190 C   0  0  0  0  0  2  0  0  0  0  0  0
  183.0890  178.7140  142.4170 C   0  0  0  0  0  0  0  0  0  0  0  0
  182.3120  179.0630  138.8580 C   0  0  2  0  0  3  0  0  0  0  0  0
  183.4010  175.5450  135.1630 C   0  0  2  0  0  3  0  0  0  0  0  0
  182.9470  178.0900  141.0360 C   0  0  2  0  0  3  0  0  0  0  0  0
  181.3260  178.7160  137.7110 C   0  0  1  0  0  3  0  0  0  0  0  0
  181.8670  179.0220  143.2350 C   0  0  0  0  0  2  0  0  0  0  0  0
  184.0060  174.6820  136.2830 C   0  0  0  0  0  2  0  0  0  0  0  0
  184.2140  178.2150  140.1810 C   0  0  2  0  0  3  0  0  0  0  0  0
  186.0510  177.7980  142.0710 F   0  0  0  0  0  0  0  0  0  0  0  0
  179.7700  180.2960  140.2680 C   0  0  0  0  0  2  0  0  0  0  0  0
  180.6210  179.2180  142.3610 C   0  0  0  0  0  2  0  0  0  0  0  0
  185.0590  179.2720  140.5900 O   0  0  0  0  0  0  0  0  0  0  0  0
  183.3350  177.0630  135.4450 C   0  0  1  0  0  3  0  0  0  0  0  0
  181.9590  177.4920  135.7320 N   0  0  0  0  0  2  0  0  0  0  0  0
  180.9990  179.7370  140.9740 C   0  0  1  0  0  3  0  0  0  0  0  0
  183.7420  178.4610  138.7620 C   0  0  1  0  0  3  0  0  0  0  0  0
  184.2740  179.1700  142.8320 C   0  0  0  0  0  3  0  0  0  0  0  0
  179.9840  179.4630  137.7390 C   0  0  1  0  0  3  0  0  0  0  0  0
  186.3890  180.0100  142.2840 F   0  0  0  0  0  0  0  0  0  0  0  0
  184.3650  177.4950  136.5100 C   0  0  0  0  0  2  0  0  0  0  0  0
  182.1750  175.0290  134.7310 O   0  0  0  0  0  1  0  0  0  0  0  0
  183.9680  177.1680  137.9580 C   0  0  2  0  0  3  0  0  0  0  0  0
  178.9310  179.0940  139.1890 S   0  0  0  0  0  0  0  0  0  0  0  0
  178.9460  181.4360  136.5960 C   0  0  0  0  0  3  0  0  0  0  0  0
  180.0110  180.9170  137.3400 C   0  0  0  0  0  0  0  0  0  0  0  0
  181.0650  181.7630  137.7200 C   0  0  0  0  0  3  0  0  0  0  0  0
  182.1750  183.9990  137.7520 C   0  0  0  0  0  1  0  0  0  0  0  0
  179.9900  183.6210  136.6010 C   0  0  0  0  0  3  0  0  0  0  0  0
  181.0540  183.1100  137.3500 C   0  0  0  0  0  0  0  0  0  0  0  0
  178.9360  182.7840  136.2260 C   0  0  0  0  0  3  0  0  0  0  0  0
  180.8760  174.2450  137.9490 C   0  0  0  0  0  2  0  0  0  0  0  0
  182.0820  173.8040  137.5980 C   0  0  0  0  0  3  0  0  0  0  0  0
  2 14  1  0  0  0  0
  2 24  1  0  0  0  0
  2 22  1  0  0  0  0
  3 20  1  0  0  0  0
  3  9  1  0  0  0  0
  4  1  1  0  0  0  0
  5 10  1  0  0  0  0
  6 22  2  0  0  0  0
  6 11  1  0  0  0  0
  7  3  1  0  0  0  0
  8 18  1  0  0  0  0
  8 12  1  0  0  0  0
  9  6  1  0  0  0  0
 10 23  1  0  0  0  0
 10  7  1  0  0  0  0
 12  4  1  0  0  0  0
 13 17  1  0  0  0  0
 13  9  1  0  0  0  0
 15 20  1  0  0  0  0
 16 11  1  0  0  0  0
 17  2  1  0  0  0  0
 18 19  1  0  0  0  0
 18 25  1  0  0  0  0
 19  5  1  0  0  0  0
 20 16  1  0  0  0  0
 21  7  1  0  0  0  0
 21 13  1  0  0  0  0
 23 28  1  0  0  0  0
 25 27  1  0  0  0  0
 26  8  1  0  0  0  0
 27  1  1  0  0  0  0
 27 21  1  0  0  0  0
 28 15  1  0  0  0  0
 29 30  1  0  0  0  0
 30 31  2  0  0  0  0
 30 23  1  0  0  0  0
 33 34  2  0  0  0  0
 34 31  1  0  0  0  0
 34 32  1  0  0  0  0
 35 29  2  0  0  0  0
 35 33  1  0  0  0  0
 37  4  1  0  0  0  0
 37 36  2  0  0  0  0
M  END
>  <MODEL>
1

>  <REMARK>
 VINA RESULT:      -6.7      0.000      0.000
  Name = 
  2 active torsions:
  status: ('A' for Active; 'I' for Inactive)
    1  A    between atoms: C_4  and  C_37
    2  A    between atoms: C_23  and  C_30
                            x       y       z     vdW  Elec       q    Type
                         _______ _______ _______ _____ _____    ______ ____

>  <TORSDO>
F 2

$$$$
=
 OpenBabel11122411243D

 37 43  0  0  1  0  0  0  0  0999 V2000
  182.1870  180.0290  138.7760 C   0  0  0  0  0  2  0  0  0  0  0  0
  185.5540  178.3420  142.7210 C   0  0  0  0  0  0  0  0  0  0  0  0
  185.0620  178.1090  138.6630 C   0  0  1  0  0  3  0  0  0  0  0  0
  181.2600  181.2510  138.8240 C   0  0  2  0  0  3  0  0  0  0  0  0
  181.4810  176.8730  137.6980 C   0  0  0  0  0  2  0  0  0  0  0  0
  186.6760  178.6860  140.5730 C   0  0  0  0  0  0  0  0  0  0  0  0
  183.7460  177.3490  138.8360 C   0  0  2  0  0  3  0  0  0  0  0  0
  179.1580  179.7820  138.3270 C   0  0  2  0  0  3  0  0  0  0  0  0
  185.3040  178.9050  139.9530 C   0  0  2  0  0  3  0  0  0  0  0  0
  182.9230  177.3270  137.5200 C   0  0  1  0  0  3  0  0  0  0  0  0
  187.8890  178.5540  139.6960 C   0  0  0  0  0  2  0  0  0  0  0  0
  179.7830  180.9430  139.1180 C   0  0  0  0  0  2  0  0  0  0  0  0
  184.1470  178.6120  140.9170 C   0  0  2  0  0  3  0  0  0  0  0  0
  185.1950  179.6100  143.1590 F   0  0  0  0  0  0  0  0  0  0  0  0
  186.1450  176.4270  137.0020 C   0  0  0  0  0  2  0  0  0  0  0  0
  187.5310  178.0700  138.2850 C   0  0  0  0  0  2  0  0  0  0  0  0
  184.5110  177.7460  141.9740 O   0  0  0  0  0  0  0  0  0  0  0  0
  179.8060  178.3960  138.5430 C   0  0  1  0  0  3  0  0  0  0  0  0
  180.6110  177.9970  137.3790 N   0  0  0  0  0  2  0  0  0  0  0  0
  186.2660  177.2140  138.3010 C   0  0  1  0  0  3  0  0  0  0  0  0
  183.0570  177.9700  140.0840 C   0  0  1  0  0  3  0  0  0  0  0  0
  186.7910  178.4150  141.8760 C   0  0  0  0  0  3  0  0  0  0  0  0
  183.5560  176.5530  136.3530 C   0  0  1  0  0  3  0  0  0  0  0  0
  185.8200  177.5570  143.8260 F   0  0  0  0  0  0  0  0  0  0  0  0
  180.5600  178.3170  139.8870 C   0  0  0  0  0  2  0  0  0  0  0  0
  179.0270  180.1040  136.9720 O   0  0  0  0  0  1  0  0  0  0  0  0
  181.9340  179.0050  139.8950 C   0  0  2  0  0  3  0  0  0  0  0  0
  185.1310  177.2520  135.7350 S   0  0  0  0  0  0  0  0  0  0  0  0
  184.1760  174.4290  137.5270 C   0  0  0  0  0  3  0  0  0  0  0  0
  183.5360  175.0490  136.4480 C   0  0  0  0  0  0  0  0  0  0  0  0
  182.8680  174.2610  135.4970 C   0  0  0  0  0  3  0  0  0  0  0  0
  182.1460  172.0430  134.6080 C   0  0  0  0  0  1  0  0  0  0  0  0
  183.4990  172.2570  136.6980 C   0  0  0  0  0  3  0  0  0  0  0  0
  182.8520  172.8700  135.6210 C   0  0  0  0  0  0  0  0  0  0  0  0
  184.1600  173.0370  137.6510 C   0  0  0  0  0  3  0  0  0  0  0  0
  180.7930  183.2400  137.4520 C   0  0  0  0  0  2  0  0  0  0  0  0
  181.3870  182.0550  137.5690 C   0  0  0  0  0  3  0  0  0  0  0  0
  1  4  1  0  0  0  0
  1 27  1  0  0  0  0
  2 14  1  0  0  0  0
  2 24  1  0  0  0  0
  3  7  1  0  0  0  0
  3  9  1  0  0  0  0
  4 12  1  0  0  0  0
  6 22  2  0  0  0  0
  7 21  1  0  0  0  0
  8 18  1  0  0  0  0
  8 12  1  0  0  0  0
  9  6  1  0  0  0  0
  9 13  1  0  0  0  0
 10  5  1  0  0  0  0
 10  7  1  0  0  0  0
 11  6  1  0  0  0  0
 13 17  1  0  0  0  0
 15 20  1  0  0  0  0
 16 20  1  0  0  0  0
 16 11  1  0  0  0  0
 17  2  1  0  0  0  0
 18 25  1  0  0  0  0
 19  5  1  0  0  0  0
 19 18  1  0  0  0  0
 20  3  1  0  0  0  0
 21 13  1  0  0  0  0
 22  2  1  0  0  0  0
 23 30  1  0  0  0  0
 23 10  1  0  0  0  0
 25 27  1  0  0  0  0
 26  8  1  0  0  0  0
 27 21  1  0  0  0  0
 28 23  1  0  0  0  0
 28 15  1  0  0  0  0
 29 35  1  0  0  0  0
 30 29  2  0  0  0  0
 31 34  2  0  0  0  0
 31 30  1  0  0  0  0
 32 34  1  0  0  0  0
 33 35  2  0  0  0  0
 34 33  1  0  0  0  0
 36 37  2  0  0  0  0
 37  4  1  0  0  0  0
M  END
>  <MODEL>
2

>  <REMARK>
 VINA RESULT:      -6.2      2.328      6.439
  Name = 
  2 active torsions:
  status: ('A' for Active; 'I' for Inactive)
    1  A    between atoms: C_4  and  C_37
    2  A    between atoms: C_23  and  C_30
                            x       y       z     vdW  Elec       q    Type
                         _______ _______ _______ _____ _____    ______ ____

>  <TORSDO>
F 2

$$$$
=
 OpenBabel11122411243D

 37 43  0  0  1  0  0  0  0  0999 V2000
  180.8540  180.9980  138.8410 C   0  0  0  0  0  2  0  0  0  0  0  0
  180.2570  178.4470  143.6240 C   0  0  0  0  0  0  0  0  0  0  0  0
  183.0020  178.9610  140.6300 C   0  0  1  0  0  3  0  0  0  0  0  0
  180.0950  182.2450  138.3660 C   0  0  2  0  0  3  0  0  0  0  0  0
  181.5010  178.1280  137.1180 C   0  0  0  0  0  2  0  0  0  0  0  0
  182.5690  179.0970  143.1570 C   0  0  0  0  0  0  0  0  0  0  0  0
  182.0830  178.2620  139.6270 C   0  0  2  0  0  3  0  0  0  0  0  0
  179.2330  181.0120  136.2310 C   0  0  2  0  0  3  0  0  0  0  0  0
  182.1170  179.5020  141.7620 C   0  0  2  0  0  3  0  0  0  0  0  0
  182.5350  178.5200  138.1650 C   0  0  1  0  0  3  0  0  0  0  0  0
  184.0330  179.0500  143.4910 C   0  0  0  0  0  2  0  0  0  0  0  0
  178.9380  181.9780  137.3910 C   0  0  0  0  0  2  0  0  0  0  0  0
  180.6640  179.1130  141.4570 C   0  0  2  0  0  3  0  0  0  0  0  0
  179.5730  179.6380  143.8350 F   0  0  0  0  0  0  0  0  0  0  0  0
  185.1170  177.5380  140.1200 C   0  0  0  0  0  2  0  0  0  0  0  0
  184.9050  178.8450  142.2450 C   0  0  0  0  0  2  0  0  0  0  0  0
  180.1920  178.0540  142.2670 O   0  0  0  0  0  0  0  0  0  0  0  0
  179.6270  179.5740  136.6370 C   0  0  1  0  0  3  0  0  0  0  0  0
  181.0640  179.3400  136.4380 N   0  0  0  0  0  2  0  0  0  0  0  0
  184.1460  178.0750  141.1650 C   0  0  1  0  0  3  0  0  0  0  0  0
  180.6370  178.6930  140.0020 C   0  0  1  0  0  3  0  0  0  0  0  0
  181.6930  178.5950  144.0300 C   0  0  0  0  0  3  0  0  0  0  0  0
  183.8990  177.9280  137.7750 C   0  0  1  0  0  3  0  0  0  0  0  0
  179.6760  177.4660  144.4040 F   0  0  0  0  0  0  0  0  0  0  0  0
  179.1190  179.2160  138.0490 C   0  0  0  0  0  2  0  0  0  0  0  0
  180.1330  181.5760  135.3210 O   0  0  0  0  0  1  0  0  0  0  0  0
  179.9470  179.8090  139.2000 C   0  0  2  0  0  3  0  0  0  0  0  0
  185.3260  178.6310  138.6800 S   0  0  0  0  0  0  0  0  0  0  0  0
  182.9110  175.6460  138.0730 C   0  0  0  0  0  3  0  0  0  0  0  0
  183.9560  176.4350  137.5810 C   0  0  0  0  0  0  0  0  0  0  0  0
  185.0190  175.8230  136.8970 C   0  0  0  0  0  3  0  0  0  0  0  0
  186.1670  173.7970  135.9960 C   0  0  0  0  0  1  0  0  0  0  0  0
  183.9920  173.6550  137.2170 C   0  0  0  0  0  3  0  0  0  0  0  0
  185.0370  174.4380  136.7180 C   0  0  0  0  0  0  0  0  0  0  0  0
  182.9290  174.2590  137.8940 C   0  0  0  0  0  3  0  0  0  0  0  0
  180.6260  184.4620  137.4390 C   0  0  0  0  0  2  0  0  0  0  0  0
  181.0430  183.2480  137.7910 C   0  0  0  0  0  3  0  0  0  0  0  0
  1 27  1  0  0  0  0
  2 14  1  0  0  0  0
  2 22  1  0  0  0  0
  2 24  1  0  0  0  0
  3 20  1  0  0  0  0
  3  9  1  0  0  0  0
  4  1  1  0  0  0  0
  5 10  1  0  0  0  0
  6 11  1  0  0  0  0
  6 22  2  0  0  0  0
  7 21  1  0  0  0  0
  7  3  1  0  0  0  0
  8 18  1  0  0  0  0
  8 12  1  0  0  0  0
  9  6  1  0  0  0  0
 10  7  1  0  0  0  0
 12  4  1  0  0  0  0
 13  9  1  0  0  0  0
 13 17  1  0  0  0  0
 15 20  1  0  0  0  0
 16 11  1  0  0  0  0
 17  2  1  0  0  0  0
 18 25  1  0  0  0  0
 19 18  1  0  0  0  0
 19  5  1  0  0  0  0
 20 16  1  0  0  0  0
 21 13  1  0  0  0  0
 23 10  1  0  0  0  0
 23 28  1  0  0  0  0
 25 27  1  0  0  0  0
 26  8  1  0  0  0  0
 27 21  1  0  0  0  0
 28 15  1  0  0  0  0
 30 23  1  0  0  0  0
 30 29  2  0  0  0  0
 31 30  1  0  0  0  0
 32 34  1  0  0  0  0
 33 35  2  0  0  0  0
 34 31  2  0  0  0  0
 34 33  1  0  0  0  0
 35 29  1  0  0  0  0
 36 37  2  0  0  0  0
 37  4  1  0  0  0  0
M  END
>  <MODEL>
3

>  <REMARK>
 VINA RESULT:      -5.5      2.651      6.260
  Name = 
  2 active torsions:
  status: ('A' for Active; 'I' for Inactive)
    1  A    between atoms: C_4  and  C_37
    2  A    between atoms: C_23  and  C_30
                            x       y       z     vdW  Elec       q    Type
                         _______ _______ _______ _____ _____    ______ ____

>  <TORSDO>
F 2

$$$$
=
 OpenBabel11122411243D

 37 43  0  0  1  0  0  0  0  0999 V2000
  180.9510  181.5120  138.5560 C   0  0  0  0  0  2  0  0  0  0  0  0
  179.7150  179.0210  143.2470 C   0  0  0  0  0  0  0  0  0  0  0  0
  182.6050  179.0580  140.3460 C   0  0  1  0  0  3  0  0  0  0  0  0
  180.4640  182.8930  138.0960 C   0  0  2  0  0  3  0  0  0  0  0  0
  181.0870  178.6110  136.7710 C   0  0  0  0  0  2  0  0  0  0  0  0
  182.1240  179.2190  142.8620 C   0  0  0  0  0  0  0  0  0  0  0  0
  181.6010  178.5730  139.2980 C   0  0  2  0  0  3  0  0  0  0  0  0
  179.4500  181.9000  135.9040 C   0  0  2  0  0  3  0  0  0  0  0  0
  181.8040  179.7350  141.4670 C   0  0  2  0  0  3  0  0  0  0  0  0
  182.1420  178.7710  137.8570 C   0  0  1  0  0  3  0  0  0  0  0  0
  183.5400  178.8810  143.2360 C   0  0  0  0  0  2  0  0  0  0  0  0
  179.3100  182.8780  137.0820 C   0  0  0  0  0  2  0  0  0  0  0  0
  180.3150  179.6420  141.1110 C   0  0  2  0  0  3  0  0  0  0  0  0
  179.2690  180.3160  143.4720 F   0  0  0  0  0  0  0  0  0  0  0  0
  184.4190  177.2620  139.8550 C   0  0  0  0  0  2  0  0  0  0  0  0
  184.3950  178.5370  142.0090 C   0  0  0  0  0  2  0  0  0  0  0  0
  179.6200  178.6780  141.8770 O   0  0  0  0  0  0  0  0  0  0  0  0
  179.5450  180.4040  136.2790 C   0  0  1  0  0  3  0  0  0  0  0  0
  180.9150  179.8990  136.1140 N   0  0  0  0  0  2  0  0  0  0  0  0
  183.5380  177.9540  140.8870 C   0  0  1  0  0  3  0  0  0  0  0  0
  180.2540  179.2680  139.6450 C   0  0  1  0  0  3  0  0  0  0  0  0
  181.1390  178.8770  143.6970 C   0  0  0  0  0  3  0  0  0  0  0  0
  183.3770  177.9340  137.4890 C   0  0  1  0  0  3  0  0  0  0  0  0
  178.9310  178.1530  143.9820 F   0  0  0  0  0  0  0  0  0  0  0  0
  178.9310  180.1200  137.6660 C   0  0  0  0  0  2  0  0  0  0  0  0
  180.4710  182.2980  135.0350 O   0  0  0  0  0  1  0  0  0  0  0  0
  179.8200  180.5150  138.8550 C   0  0  2  0  0  3  0  0  0  0  0  0
  184.8830  178.3250  138.4520 S   0  0  0  0  0  0  0  0  0  0  0  0
  184.2530  175.6380  137.0060 C   0  0  0  0  0  3  0  0  0  0  0  0
  183.1510  176.4620  137.2540 C   0  0  0  0  0  0  0  0  0  0  0  0
  181.8660  175.8990  137.3030 C   0  0  0  0  0  3  0  0  0  0  0  0
  180.3250  173.9410  137.1490 C   0  0  0  0  0  1  0  0  0  0  0  0
  182.7950  173.7120  136.8450 C   0  0  0  0  0  3  0  0  0  0  0  0
  181.6890  174.5290  137.0980 C   0  0  0  0  0  0  0  0  0  0  0  0
  184.0760  174.2660  136.8000 C   0  0  0  0  0  3  0  0  0  0  0  0
  181.4050  184.9060  137.0390 C   0  0  0  0  0  2  0  0  0  0  0  0
  181.6060  183.7060  137.5760 C   0  0  0  0  0  3  0  0  0  0  0  0
  1 27  1  0  0  0  0
  2 14  1  0  0  0  0
  2 22  1  0  0  0  0
  2 24  1  0  0  0  0
  3 20  1  0  0  0  0
  3  9  1  0  0  0  0
  4  1  1  0  0  0  0
  5 10  1  0  0  0  0
  6 11  1  0  0  0  0
  6 22  2  0  0  0  0
  7 21  1  0  0  0  0
  7  3  1  0  0  0  0
  8 18  1  0  0  0  0
  8 12  1  0  0  0  0
  9  6  1  0  0  0  0
 10  7  1  0  0  0  0
 12  4  1  0  0  0  0
 13  9  1  0  0  0  0
 13 17  1  0  0  0  0
 15 20  1  0  0  0  0
 16 11  1  0  0  0  0
 17  2  1  0  0  0  0
 18 25  1  0  0  0  0
 19 18  1  0  0  0  0
 19  5  1  0  0  0  0
 20 16  1  0  0  0  0
 21 13  1  0  0  0  0
 23 10  1  0  0  0  0
 23 28  1  0  0  0  0
 25 27  1  0  0  0  0
 26  8  1  0  0  0  0
 27 21  1  0  0  0  0
 28 15  1  0  0  0  0
 29 30  1  0  0  0  0
 30 31  2  0  0  0  0
 30 23  1  0  0  0  0
 33 34  2  0  0  0  0
 34 32  1  0  0  0  0
 34 31  1  0  0  0  0
 35 33  1  0  0  0  0
 35 29  2  0  0  0  0
 36 37  2  0  0  0  0
 37  4  1  0  0  0  0
M  END
>  <MODEL>
4

>  <REMARK>
 VINA RESULT:      -5.3      2.729      6.320
  Name = 
  2 active torsions:
  status: ('A' for Active; 'I' for Inactive)
    1  A    between atoms: C_4  and  C_37
    2  A    between atoms: C_23  and  C_30
                            x       y       z     vdW  Elec       q    Type
                         _______ _______ _______ _____ _____    ______ ____

>  <TORSDO>
F 2

$$$$
=
 OpenBabel11122411243D

 37 43  0  0  1  0  0  0  0  0999 V2000
  184.7350  175.2980  137.0700 C   0  0  0  0  0  2  0  0  0  0  0  0
  188.7240  178.9710  137.6520 C   0  0  0  0  0  0  0  0  0  0  0  0
  185.1930  177.8290  139.3830 C   0  0  1  0  0  3  0  0  0  0  0  0
  184.8390  173.9360  136.3710 C   0  0  2  0  0  3  0  0  0  0  0  0
  182.2850  177.6490  136.7780 C   0  0  0  0  0  2  0  0  0  0  0  0
  187.6800  178.3330  139.7720 C   0  0  0  0  0  0  0  0  0  0  0  0
  184.4190  178.1990  138.1170 C   0  0  2  0  0  3  0  0  0  0  0  0
  182.8870  174.5290  134.7410 C   0  0  2  0  0  3  0  0  0  0  0  0
  186.6460  177.5590  138.9670 C   0  0  2  0  0  3  0  0  0  0  0  0
  182.9900  177.5920  138.1250 C   0  0  1  0  0  3  0  0  0  0  0  0
  187.4910  178.5350  141.2480 C   0  0  0  0  0  2  0  0  0  0  0  0
  184.2680  173.8850  134.9450 C   0  0  0  0  0  2  0  0  0  0  0  0
  186.7590  177.7860  137.4540 C   0  0  2  0  0  3  0  0  0  0  0  0
  189.4170  177.8450  137.2270 F   0  0  0  0  0  0  0  0  0  0  0  0
  183.6990  179.1710  141.0340 C   0  0  0  0  0  2  0  0  0  0  0  0
  186.0140  178.4520  141.6580 C   0  0  0  0  0  2  0  0  0  0  0  0
  187.4130  178.9940  137.1210 O   0  0  0  0  0  0  0  0  0  0  0  0
  182.7970  176.0400  135.0500 C   0  0  1  0  0  3  0  0  0  0  0  0
  182.0860  176.2840  136.3130 N   0  0  0  0  0  2  0  0  0  0  0  0
  185.1000  178.8780  140.5110 C   0  0  1  0  0  3  0  0  0  0  0  0
  185.3400  177.8120  136.9260 C   0  0  1  0  0  3  0  0  0  0  0  0
  188.6540  179.0030  139.1500 C   0  0  0  0  0  3  0  0  0  0  0  0
  182.0460  178.1280  139.2130 C   0  0  1  0  0  3  0  0  0  0  0  0
  189.4040  180.0920  137.2180 F   0  0  0  0  0  0  0  0  0  0  0  0
  184.1750  176.7280  134.9610 C   0  0  0  0  0  2  0  0  0  0  0  0
  181.8850  173.7920  135.3800 O   0  0  0  0  0  1  0  0  0  0  0  0
  185.0910  176.4940  136.1720 C   0  0  2  0  0  3  0  0  0  0  0  0
  182.5630  177.7530  140.9280 S   0  0  0  0  0  0  0  0  0  0  0  0
  180.1570  179.7700  139.2880 C   0  0  0  0  0  3  0  0  0  0  0  0
  181.5060  179.5200  139.0140 C   0  0  0  0  0  0  0  0  0  0  0  0
  182.3290  180.5740  138.5850 C   0  0  0  0  0  3  0  0  0  0  0  0
  182.6810  182.9670  137.9690 C   0  0  0  0  0  1  0  0  0  0  0  0
  180.4530  182.0990  138.6960 C   0  0  0  0  0  3  0  0  0  0  0  0
  181.8040  181.8580  138.4260 C   0  0  0  0  0  0  0  0  0  0  0  0
  179.6310  181.0550  139.1280 C   0  0  0  0  0  3  0  0  0  0  0  0
  184.1720  171.6040  136.7910 C   0  0  0  0  0  2  0  0  0  0  0  0
  184.2290  172.8640  137.2170 C   0  0  0  0  0  3  0  0  0  0  0  0
  2 22  1  0  0  0  0
  3 20  1  0  0  0  0
  4  1  1  0  0  0  0
  4 37  1  0  0  0  0
  5 10  1  0  0  0  0
  6 11  1  0  0  0  0
  7 10  1  0  0  0  0
  7  3  1  0  0  0  0
  8 12  1  0  0  0  0
  8 18  1  0  0  0  0
  8 26  1  0  0  0  0
  9  3  1  0  0  0  0
  9  6  1  0  0  0  0
 10 23  1  0  0  0  0
 11 16  1  0  0  0  0
 12  4  1  0  0  0  0
 13  9  1  0  0  0  0
 14  2  1  0  0  0  0
 17 13  1  0  0  0  0
 17  2  1  0  0  0  0
 18 19  1  0  0  0  0
 19  5  1  0  0  0  0
 20 15  1  0  0  0  0
 20 16  1  0  0  0  0
 21 13  1  0  0  0  0
 21  7  1  0  0  0  0
 22  6  2  0  0  0  0
 23 28  1  0  0  0  0
 24  2  1  0  0  0  0
 25 18  1  0  0  0  0
 25 27  1  0  0  0  0
 27 21  1  0  0  0  0
 27  1  1  0  0  0  0
 28 15  1  0  0  0  0
 30 23  1  0  0  0  0
 30 29  2  0  0  0  0
 31 30  1  0  0  0  0
 32 34  1  0  0  0  0
 33 35  2  0  0  0  0
 34 31  2  0  0  0  0
 34 33  1  0  0  0  0
 35 29  1  0  0  0  0
 36 37  2  0  0  0  0
M  END
>  <MODEL>
5

>  <REMARK>
 VINA RESULT:      -5.1      2.466      3.547
  Name = 
  2 active torsions:
  status: ('A' for Active; 'I' for Inactive)
    1  A    between atoms: C_4  and  C_37
    2  A    between atoms: C_23  and  C_30
                            x       y       z     vdW  Elec       q    Type
                         _______ _______ _______ _____ _____    ______ ____

>  <TORSDO>
F 2

$$$$
=
 OpenBabel11122411243D

 37 43  0  0  1  0  0  0  0  0999 V2000
  183.9090  175.5490  137.6970 C   0  0  0  0  0  2  0  0  0  0  0  0
  187.1810  178.7480  140.6650 C   0  0  0  0  0  0  0  0  0  0  0  0
  183.2060  178.0940  139.9330 C   0  0  1  0  0  3  0  0  0  0  0  0
  184.2460  174.1590  137.1410 C   0  0  2  0  0  3  0  0  0  0  0  0
  182.3990  178.1590  136.1080 C   0  0  0  0  0  2  0  0  0  0  0  0
  185.0220  178.3170  141.7330 C   0  0  0  0  0  0  0  0  0  0  0  0
  183.3770  178.5040  138.4690 C   0  0  2  0  0  3  0  0  0  0  0  0
  183.7180  174.9160  134.6980 C   0  0  2  0  0  3  0  0  0  0  0  0
  184.5800  177.6400  140.4440 C   0  0  2  0  0  3  0  0  0  0  0  0
  182.1600  178.0700  137.6100 C   0  0  1  0  0  3  0  0  0  0  0  0
  184.0230  178.5940  142.8200 C   0  0  0  0  0  2  0  0  0  0  0  0
  184.6260  174.1220  135.6520 C   0  0  0  0  0  2  0  0  0  0  0  0
  185.5900  177.7950  139.2990 C   0  0  2  0  0  3  0  0  0  0  0  0
  187.8540  177.5330  140.6860 F   0  0  0  0  0  0  0  0  0  0  0  0
  181.1950  179.6620  140.4360 C   0  0  0  0  0  2  0  0  0  0  0  0
  182.5920  178.7000  142.2770 C   0  0  0  0  0  2  0  0  0  0  0  0
  186.4500  178.9050  139.4640 O   0  0  0  0  0  0  0  0  0  0  0  0
  183.6390  176.4380  134.9540 C   0  0  1  0  0  3  0  0  0  0  0  0
  182.3550  176.8100  135.5620 N   0  0  0  0  0  2  0  0  0  0  0  0
  182.5880  179.1870  140.8290 C   0  0  1  0  0  3  0  0  0  0  0  0
  184.7710  177.9680  138.0360 C   0  0  1  0  0  3  0  0  0  0  0  0
  186.2450  178.8440  141.8330 C   0  0  0  0  0  3  0  0  0  0  0  0
  180.8270  178.7530  137.9510 C   0  0  1  0  0  3  0  0  0  0  0  0
  188.1110  179.7650  140.7600 F   0  0  0  0  0  0  0  0  0  0  0  0
  184.8740  176.9550  135.7220 C   0  0  0  0  0  2  0  0  0  0  0  0
  182.4540  174.3260  134.5940 O   0  0  0  0  0  1  0  0  0  0  0  0
  184.8630  176.6610  137.2300 C   0  0  2  0  0  3  0  0  0  0  0  0
  180.1840  178.3840  139.6250 S   0  0  0  0  0  0  0  0  0  0  0  0
  179.5680  180.5570  136.7530 C   0  0  0  0  0  3  0  0  0  0  0  0
  180.6750  180.1910  137.5260 C   0  0  0  0  0  0  0  0  0  0  0  0
  181.6030  181.1720  137.9100 C   0  0  0  0  0  3  0  0  0  0  0  0
  182.4160  183.5330  137.9220 C   0  0  0  0  0  1  0  0  0  0  0  0
  180.3210  182.8580  136.7370 C   0  0  0  0  0  3  0  0  0  0  0  0
  181.4270  182.5000  137.5150 C   0  0  0  0  0  0  0  0  0  0  0  0
  179.3920  181.8860  136.3580 C   0  0  0  0  0  3  0  0  0  0  0  0
  183.2420  171.9130  137.0940 C   0  0  0  0  0  2  0  0  0  0  0  0
  183.1350  173.1990  137.4210 C   0  0  0  0  0  3  0  0  0  0  0  0
  2 14  1  0  0  0  0
  2 24  1  0  0  0  0
  2 22  1  0  0  0  0
  3  9  1  0  0  0  0
  3 20  1  0  0  0  0
  4 37  1  0  0  0  0
  4  1  1  0  0  0  0
  5 10  1  0  0  0  0
  6 22  2  0  0  0  0
  6 11  1  0  0  0  0
  7  3  1  0  0  0  0
  8 18  1  0  0  0  0
  8 12  1  0  0  0  0
  9  6  1  0  0  0  0
 10 23  1  0  0  0  0
 10  7  1  0  0  0  0
 12  4  1  0  0  0  0
 13 17  1  0  0  0  0
 13  9  1  0  0  0  0
 15 20  1  0  0  0  0
 16 11  1  0  0  0  0
 17  2  1  0  0  0  0
 18 19  1  0  0  0  0
 18 25  1  0  0  0  0
 19  5  1  0  0  0  0
 20 16  1  0  0  0  0
 21  7  1  0  0  0  0
 21 13  1  0  0  0  0
 23 28  1  0  0  0  0
 25 27  1  0  0  0  0
 26  8  1  0  0  0  0
 27  1  1  0  0  0  0
 27 21  1  0  0  0  0
 28 15  1  0  0  0  0
 29 30  1  0  0  0  0
 30 31  2  0  0  0  0
 30 23  1  0  0  0  0
 33 34  2  0  0  0  0
 34 31  1  0  0  0  0
 34 32  1  0  0  0  0
 35 33  1  0  0  0  0
 35 29  2  0  0  0  0
 36 37  2  0  0  0  0
M  END
>  <MODEL>
6

>  <REMARK>
 VINA RESULT:      -4.3      1.212      1.542
  Name = 
  2 active torsions:
  status: ('A' for Active; 'I' for Inactive)
    1  A    between atoms: C_4  and  C_37
    2  A    between atoms: C_23  and  C_30
                            x       y       z     vdW  Elec       q    Type
                         _______ _______ _______ _____ _____    ______ ____

>  <TORSDO>
F 2

$$$$
