=
 OpenBabel11122410283D

 30 35  0  0  1  0  0  0  0  0999 V2000
  186.1890  178.5690  141.6020 C   0  0  2  0  0  3  0  0  0  0  0  0
  183.7540  178.9480  141.4540 C   0  0  0  0  0  0  0  0  0  0  0  0
  185.9050  177.9110  145.7390 N   0  0  0  0  0  0  0  0  0  0  0  0
  187.4580  178.4490  142.4460 C   0  0  2  0  0  3  0  0  0  0  0  0
  186.3580  178.6670  140.1810 N   0  0  0  0  0  0  0  0  0  0  0  0
  189.5570  177.2450  139.7160 O   0  0  0  0  0  0  0  0  0  0  0  0
  190.1820  177.9870  143.5240 C   0  0  1  0  0  3  0  0  0  0  0  0
  188.5520  177.7030  140.3250 C   0  0  0  0  0  0  0  0  0  0  0  0
  189.4370  178.1310  144.8600 C   0  0  2  0  0  3  0  0  0  0  0  0
  187.1650  177.7490  146.0080 C   0  0  2  0  0  3  0  0  0  0  0  0
  187.4420  178.2950  139.5660 C   0  0  0  0  0  0  0  0  0  0  0  0
  188.4740  177.6400  141.7580 N   0  0  0  0  0  0  0  0  0  0  0  0
  182.5270  179.0500  142.1150 C   0  0  0  0  0  3  0  0  0  0  0  0
  190.2360  177.3020  145.8440 C   0  0  0  0  0  2  0  0  0  0  0  0
  191.5980  177.5500  143.8640 C   0  0  0  0  0  2  0  0  0  0  0  0
  183.6690  179.2740  139.7240 Cl  0  0  0  0  0  0  0  0  0  0  0  0
  185.8670  178.0440  144.3210 C   0  0  0  0  0  0  0  0  0  0  0  0
  182.4290  178.8480  143.4860 C   0  0  0  0  0  3  0  0  0  0  0  0
  184.9460  178.6450  142.1860 C   0  0  0  0  0  0  0  0  0  0  0  0
  187.1470  177.9020  143.7590 N   0  0  0  0  0  0  0  0  0  0  0  0
  187.6530  177.6270  147.4100 C   0  0  0  0  0  1  0  0  0  0  0  0
  188.0160  177.7450  144.8470 N   0  0  1  0  0  0  0  0  0  0  0  0
  191.6660  177.4100  145.3720 C   0  0  0  0  0  2  0  0  0  0  0  0
  189.2010  175.6520  143.0330 C   0  0  0  0  0  1  0  0  0  0  0  0
  183.5630  178.5270  144.2180 C   0  0  0  0  0  3  0  0  0  0  0  0
  184.8090  178.4080  143.5930 C   0  0  0  0  0  0  0  0  0  0  0  0
  189.5790  177.0260  142.4910 C   0  0  2  0  0  3  0  0  0  0  0  0
  187.5550  178.4280  138.1790 O   0  0  0  0  0  0  0  0  0  0  0  0
  186.2930  176.7350  137.0480 C   0  0  0  0  0  1  0  0  0  0  0  0
  186.4560  178.2180  137.3050 C   0  0  0  0  0  2  0  0  0  0  0  0
  1  5  1  1  0  0  0
  1 19  1  0  0  0  0
  1  4  1  0  0  0  0
  2 13  2  0  0  0  0
  2 19  1  0  0  0  0
  3 10  1  0  0  0  0
  4 12  1  6  0  0  0
  4 20  1  0  0  0  0
  6  8  2  0  0  0  0
  7 15  1  1  0  0  0
  7  9  1  0  0  0  0
  8 12  1  0  0  0  0
  9 14  1  1  0  0  0
 10 21  1  1  0  0  0
 11  5  2  0  0  0  0
 11  8  1  0  0  0  0
 12 27  1  0  0  0  0
 13 18  1  0  0  0  0
 15 23  1  0  0  0  0
 16  2  1  0  0  0  0
 17  3  2  0  0  0  0
 18 25  2  0  0  0  0
 19 26  2  0  0  0  0
 20 17  1  0  0  0  0
 22 20  1  6  0  0  0
 22  9  1  0  0  0  0
 22 10  1  0  0  0  0
 23 14  1  0  0  0  0
 26 25  1  0  0  0  0
 26 17  1  0  0  0  0
 27 24  1  1  0  0  0
 27  7  1  0  0  0  0
 28 11  1  0  0  0  0
 29 30  1  0  0  0  0
 30 28  1  0  0  0  0
M  END
>  <MODEL>
1

>  <REMARK>
 VINA RESULT:     -10.5      0.000      0.000
  Name = 
  2 active torsions:
  status: ('A' for Active; 'I' for Inactive)
    1  A    between atoms: C_11  and  O_28
    2  A    between atoms: O_28  and  C_30
                            x       y       z     vdW  Elec       q    Type
                         _______ _______ _______ _____ _____    ______ ____

>  <TORSDO>
F 2

$$$$
=
 OpenBabel11122410283D

 30 35  0  0  1  0  0  0  0  0999 V2000
  189.0350  177.1230  143.2580 C   0  0  2  0  0  3  0  0  0  0  0  0
  191.0710  176.5760  144.5430 C   0  0  0  0  0  0  0  0  0  0  0  0
  186.9490  177.9920  146.7950 N   0  0  0  0  0  0  0  0  0  0  0  0
  187.5280  177.3740  143.2140 C   0  0  2  0  0  3  0  0  0  0  0  0
  189.7050  176.9570  141.9990 N   0  0  0  0  0  0  0  0  0  0  0  0
  187.4900  178.5590  139.7640 O   0  0  0  0  0  0  0  0  0  0  0  0
  184.7310  178.0750  142.5200 C   0  0  1  0  0  3  0  0  0  0  0  0
  187.9190  178.0710  140.8450 C   0  0  0  0  0  0  0  0  0  0  0  0
  184.5590  177.9570  144.0420 C   0  0  2  0  0  3  0  0  0  0  0  0
  185.7830  178.2510  146.2870 C   0  0  2  0  0  3  0  0  0  0  0  0
  189.2070  177.3650  140.8690 C   0  0  0  0  0  0  0  0  0  0  0  0
  187.1650  178.2090  142.0600 N   0  0  0  0  0  0  0  0  0  0  0  0
  191.6810  176.4300  145.7920 C   0  0  0  0  0  3  0  0  0  0  0  0
  183.4150  178.8910  144.3790 C   0  0  0  0  0  2  0  0  0  0  0  0
  183.4210  178.6230  141.9780 C   0  0  0  0  0  2  0  0  0  0  0  0
  192.1040  176.1480  143.1810 Cl  0  0  0  0  0  0  0  0  0  0  0  0
  187.7820  177.7770  145.6600 C   0  0  0  0  0  0  0  0  0  0  0  0
  190.9910  176.7010  146.9660 C   0  0  0  0  0  3  0  0  0  0  0  0
  189.7060  176.9980  144.4510 C   0  0  0  0  0  0  0  0  0  0  0  0
  187.0750  177.9720  144.4620 N   0  0  0  0  0  0  0  0  0  0  0  0
  184.5900  178.4830  147.1510 C   0  0  0  0  0  1  0  0  0  0  0  0
  185.7560  178.2470  144.8480 N   0  0  1  0  0  0  0  0  0  0  0  0
  182.5110  178.8520  143.1700 C   0  0  0  0  0  2  0  0  0  0  0  0
  186.0130  180.3090  142.6670 C   0  0  0  0  0  1  0  0  0  0  0  0
  189.6750  177.1370  146.9080 C   0  0  0  0  0  3  0  0  0  0  0  0
  189.0310  177.3030  145.6780 C   0  0  0  0  0  0  0  0  0  0  0  0
  185.8980  178.9350  142.0160 C   0  0  2  0  0  3  0  0  0  0  0  0
  189.9000  177.1630  139.6720 O   0  0  0  0  0  0  0  0  0  0  0  0
  191.7160  176.2880  138.3770 C   0  0  0  0  0  1  0  0  0  0  0  0
  191.3140  177.0470  139.6240 C   0  0  0  0  0  2  0  0  0  0  0  0
  1  5  1  6  0  0  0
  1 19  1  0  0  0  0
  2 13  1  0  0  0  0
  4 12  1  6  0  0  0
  4  1  1  0  0  0  0
  4 20  1  0  0  0  0
  6  8  2  0  0  0  0
  7 15  1  6  0  0  0
  7  9  1  0  0  0  0
  8 11  1  0  0  0  0
  8 12  1  0  0  0  0
  9 14  1  1  0  0  0
  9 22  1  0  0  0  0
 10  3  1  0  0  0  0
 10 21  1  1  0  0  0
 11  5  2  0  0  0  0
 13 18  2  0  0  0  0
 15 23  1  0  0  0  0
 16  2  1  0  0  0  0
 17 26  1  0  0  0  0
 17  3  2  0  0  0  0
 19  2  2  0  0  0  0
 19 26  1  0  0  0  0
 20 17  1  0  0  0  0
 22 20  1  6  0  0  0
 22 10  1  0  0  0  0
 23 14  1  0  0  0  0
 25 18  1  0  0  0  0
 26 25  2  0  0  0  0
 27 12  1  0  0  0  0
 27  7  1  0  0  0  0
 27 24  1  1  0  0  0
 28 11  1  0  0  0  0
 29 30  1  0  0  0  0
 30 28  1  0  0  0  0
M  END
>  <MODEL>
2

>  <REMARK>
 VINA RESULT:      -9.2      2.324      5.532
  Name = 
  2 active torsions:
  status: ('A' for Active; 'I' for Inactive)
    1  A    between atoms: C_11  and  O_28
    2  A    between atoms: O_28  and  C_30
                            x       y       z     vdW  Elec       q    Type
                         _______ _______ _______ _____ _____    ______ ____

>  <TORSDO>
F 2

$$$$
=
 OpenBabel11122410283D

 30 35  0  0  1  0  0  0  0  0999 V2000
  186.1010  178.1180  142.5650 C   0  0  2  0  0  3  0  0  0  0  0  0
  186.6440  178.3290  144.9640 C   0  0  0  0  0  0  0  0  0  0  0  0
  182.0510  178.9070  143.3390 N   0  0  0  0  0  0  0  0  0  0  0  0
  185.0630  177.9470  141.4550 C   0  0  2  0  0  3  0  0  0  0  0  0
  187.4790  177.9540  142.1990 N   0  0  0  0  0  0  0  0  0  0  0  0
  187.4000  178.5590  138.7210 O   0  0  0  0  0  0  0  0  0  0  0  0
  183.5560  177.7660  138.9080 C   0  0  1  0  0  3  0  0  0  0  0  0
  186.9680  178.3670  139.8900 C   0  0  0  0  0  0  0  0  0  0  0  0
  182.3590  177.8300  139.8690 C   0  0  2  0  0  3  0  0  0  0  0  0
  181.5820  178.7680  142.1370 C   0  0  2  0  0  3  0  0  0  0  0  0
  187.9060  178.0430  140.9740 C   0  0  0  0  0  0  0  0  0  0  0  0
  185.5650  178.4760  140.1790 N   0  0  0  0  0  0  0  0  0  0  0  0
  186.1890  178.5370  146.2690 C   0  0  0  0  0  3  0  0  0  0  0  0
  181.2440  178.4640  139.0620 C   0  0  0  0  0  2  0  0  0  0  0  0
  182.9860  177.8570  137.5010 C   0  0  0  0  0  2  0  0  0  0  0  0
  188.3710  177.9990  144.8460 Cl  0  0  0  0  0  0  0  0  0  0  0  0
  183.4590  178.7590  143.1810 C   0  0  0  0  0  0  0  0  0  0  0  0
  184.8480  178.7840  146.5330 C   0  0  0  0  0  3  0  0  0  0  0  0
  185.7250  178.3530  143.8660 C   0  0  0  0  0  0  0  0  0  0  0  0
  183.8070  178.5790  141.8320 N   0  0  0  0  0  0  0  0  0  0  0  0
  180.1170  178.7970  141.8640 C   0  0  0  0  0  1  0  0  0  0  0  0
  182.5910  178.5450  141.1350 N   0  0  1  0  0  0  0  0  0  0  0  0
  181.4830  178.0070  137.6430 C   0  0  0  0  0  2  0  0  0  0  0  0
  184.1520  180.2570  139.2100 C   0  0  0  0  0  1  0  0  0  0  0  0
  183.9380  178.8390  145.4870 C   0  0  0  0  0  3  0  0  0  0  0  0
  184.3540  178.6440  144.1660 C   0  0  0  0  0  0  0  0  0  0  0  0
  184.6530  178.8220  139.0900 C   0  0  2  0  0  3  0  0  0  0  0  0
  189.2590  177.8590  140.6760 O   0  0  0  0  0  0  0  0  0  0  0  0
  191.1560  177.5520  142.1080 C   0  0  0  0  0  1  0  0  0  0  0  0
  190.0510  176.8750  141.3240 C   0  0  0  0  0  2  0  0  0  0  0  0
  1  5  1  1  0  0  0
  1 19  1  0  0  0  0
  2 13  1  0  0  0  0
  4 12  1  6  0  0  0
  4 20  1  0  0  0  0
  4  1  1  0  0  0  0
  6  8  2  0  0  0  0
  7 15  1  6  0  0  0
  7 27  1  0  0  0  0
  7  9  1  0  0  0  0
  8 12  1  0  0  0  0
  8 11  1  0  0  0  0
  9 14  1  6  0  0  0
  9 22  1  0  0  0  0
 10 21  1  1  0  0  0
 10  3  1  0  0  0  0
 11  5  2  0  0  0  0
 13 18  2  0  0  0  0
 15 23  1  0  0  0  0
 16  2  1  0  0  0  0
 17  3  2  0  0  0  0
 17 26  1  0  0  0  0
 19 26  1  0  0  0  0
 19  2  2  0  0  0  0
 20 17  1  0  0  0  0
 22 20  1  1  0  0  0
 22 10  1  0  0  0  0
 23 14  1  0  0  0  0
 25 18  1  0  0  0  0
 26 25  2  0  0  0  0
 27 24  1  1  0  0  0
 27 12  1  0  0  0  0
 28 11  1  0  0  0  0
 28 30  1  0  0  0  0
 30 29  1  0  0  0  0
M  END
>  <MODEL>
3

>  <REMARK>
 VINA RESULT:      -8.5      2.573      6.120
  Name = 
  2 active torsions:
  status: ('A' for Active; 'I' for Inactive)
    1  A    between atoms: C_11  and  O_28
    2  A    between atoms: O_28  and  C_30
                            x       y       z     vdW  Elec       q    Type
                         _______ _______ _______ _____ _____    ______ ____

>  <TORSDO>
F 2

$$$$
=
 OpenBabel11122410283D

 30 35  0  0  1  0  0  0  0  0999 V2000
  186.8360  177.6830  144.5680 C   0  0  2  0  0  3  0  0  0  0  0  0
  184.4860  178.3370  144.9440 C   0  0  0  0  0  0  0  0  0  0  0  0
  186.5650  178.7640  140.5200 N   0  0  0  0  0  0  0  0  0  0  0  0
  187.9750  177.3400  143.6070 C   0  0  2  0  0  3  0  0  0  0  0  0
  187.0490  177.3980  145.9580 N   0  0  0  0  0  0  0  0  0  0  0  0
  190.5730  177.3160  146.1670 O   0  0  0  0  0  0  0  0  0  0  0  0
  190.5560  176.7230  142.2830 C   0  0  1  0  0  3  0  0  0  0  0  0
  189.4290  177.3730  145.6410 C   0  0  0  0  0  0  0  0  0  0  0  0
  189.7270  177.0200  141.0240 C   0  0  2  0  0  3  0  0  0  0  0  0
  187.7520  178.4120  140.1340 C   0  0  2  0  0  3  0  0  0  0  0  0
  188.2300  177.2300  146.4780 C   0  0  0  0  0  0  0  0  0  0  0  0
  189.2830  177.5890  144.2280 N   0  0  0  0  0  0  0  0  0  0  0  0
  183.2870  178.8130  144.4060 C   0  0  0  0  0  3  0  0  0  0  0  0
  190.7290  177.5270  140.0070 C   0  0  0  0  0  2  0  0  0  0  0  0
  191.9960  176.5610  141.8230 C   0  0  0  0  0  2  0  0  0  0  0  0
  184.3950  177.9240  146.6550 Cl  0  0  0  0  0  0  0  0  0  0  0  0
  186.5740  178.5340  141.9260 C   0  0  0  0  0  0  0  0  0  0  0  0
  183.1870  179.1580  143.0650 C   0  0  0  0  0  3  0  0  0  0  0  0
  185.6400  178.1820  144.1110 C   0  0  0  0  0  0  0  0  0  0  0  0
  187.8310  178.0810  142.3620 N   0  0  0  0  0  0  0  0  0  0  0  0
  188.1460  178.4430  138.6970 C   0  0  0  0  0  1  0  0  0  0  0  0
  188.6060  177.9590  141.2010 N   0  0  1  0  0  0  0  0  0  0  0  0
  192.0100  176.7940  140.3240 C   0  0  0  0  0  2  0  0  0  0  0  0
  190.6880  179.2000  142.9880 C   0  0  0  0  0  1  0  0  0  0  0  0
  184.2950  179.0430  142.2380 C   0  0  0  0  0  3  0  0  0  0  0  0
  185.5160  178.5790  142.7390 C   0  0  0  0  0  0  0  0  0  0  0  0
  190.4890  177.7520  143.4190 C   0  0  2  0  0  3  0  0  0  0  0  0
  188.3740  176.9390  147.8370 O   0  0  0  0  0  0  0  0  0  0  0  0
  189.5320  178.6620  149.0340 C   0  0  0  0  0  1  0  0  0  0  0  0
  188.2210  177.9290  148.8450 C   0  0  0  0  0  2  0  0  0  0  0  0
  1 19  1  6  0  0  0
  1  5  1  0  0  0  0
  2 16  1  0  0  0  0
  3 17  2  0  0  0  0
  4 20  1  6  0  0  0
  4 12  1  0  0  0  0
  4  1  1  0  0  0  0
  5 11  2  0  0  0  0
  7 15  1  6  0  0  0
  7 27  1  0  0  0  0
  8  6  2  0  0  0  0
  8 11  1  0  0  0  0
  9 14  1  6  0  0  0
  9 22  1  0  0  0  0
  9  7  1  0  0  0  0
 10 21  1  6  0  0  0
 10  3  1  0  0  0  0
 10 22  1  0  0  0  0
 11 28  1  0  0  0  0
 12  8  1  0  0  0  0
 13  2  1  0  0  0  0
 14 23  1  0  0  0  0
 17 20  1  0  0  0  0
 17 26  1  0  0  0  0
 18 13  2  0  0  0  0
 19  2  2  0  0  0  0
 22 20  1  1  0  0  0
 23 15  1  0  0  0  0
 25 26  2  0  0  0  0
 25 18  1  0  0  0  0
 26 19  1  0  0  0  0
 27 24  1  6  0  0  0
 27 12  1  0  0  0  0
 28 30  1  0  0  0  0
 30 29  1  0  0  0  0
M  END
>  <MODEL>
4

>  <REMARK>
 VINA RESULT:      -8.5      2.667      5.515
  Name = 
  2 active torsions:
  status: ('A' for Active; 'I' for Inactive)
    1  A    between atoms: C_11  and  O_28
    2  A    between atoms: O_28  and  C_30
                            x       y       z     vdW  Elec       q    Type
                         _______ _______ _______ _____ _____    ______ ____

>  <TORSDO>
F 2

$$$$
=
 OpenBabel11122410283D

 30 35  0  0  1  0  0  0  0  0999 V2000
  188.2790  177.3450  144.3410 C   0  0  2  0  0  3  0  0  0  0  0  0
  189.3870  177.3040  146.5470 C   0  0  0  0  0  0  0  0  0  0  0  0
  184.7380  178.7970  146.0670 N   0  0  0  0  0  0  0  0  0  0  0  0
  187.0020  177.4340  143.5050 C   0  0  2  0  0  3  0  0  0  0  0  0
  189.4800  176.9600  143.6560 N   0  0  0  0  0  0  0  0  0  0  0  0
  188.7220  177.7880  140.3080 O   0  0  0  0  0  0  0  0  0  0  0  0
  184.9440  177.6860  141.3850 C   0  0  1  0  0  3  0  0  0  0  0  0
  188.5410  177.6040  141.5420 C   0  0  0  0  0  0  0  0  0  0  0  0
  184.0340  177.9030  142.6030 C   0  0  2  0  0  3  0  0  0  0  0  0
  183.9880  178.8200  145.0080 C   0  0  2  0  0  3  0  0  0  0  0  0
  189.6240  177.0490  142.3670 C   0  0  0  0  0  0  0  0  0  0  0  0
  187.2880  177.9430  142.1570 N   0  0  0  0  0  0  0  0  0  0  0  0
  189.2910  177.5080  147.9260 C   0  0  0  0  0  3  0  0  0  0  0  0
  182.9050  178.7760  142.0960 C   0  0  0  0  0  2  0  0  0  0  0  0
  184.0950  177.9660  140.1550 C   0  0  0  0  0  2  0  0  0  0  0  0
  190.9470  176.6780  146.0180 Cl  0  0  0  0  0  0  0  0  0  0  0  0
  186.0190  178.4090  145.5780 C   0  0  0  0  0  0  0  0  0  0  0  0
  188.1170  177.9740  148.5050 C   0  0  0  0  0  3  0  0  0  0  0  0
  188.2630  177.5620  145.6980 C   0  0  0  0  0  0  0  0  0  0  0  0
  186.0080  178.2550  144.1810 N   0  0  0  0  0  0  0  0  0  0  0  0
  182.5330  179.1280  145.0900 C   0  0  0  0  0  1  0  0  0  0  0  0
  184.6810  178.4830  143.7920 N   0  0  1  0  0  0  0  0  0  0  0  0
  182.7210  178.3740  140.6520 C   0  0  0  0  0  2  0  0  0  0  0  0
  186.0530  180.0060  141.5850 C   0  0  0  0  0  1  0  0  0  0  0  0
  187.0190  178.2560  147.7050 C   0  0  0  0  0  3  0  0  0  0  0  0
  187.0770  178.0740  146.3200 C   0  0  0  0  0  0  0  0  0  0  0  0
  186.2340  178.5150  141.3220 C   0  0  2  0  0  3  0  0  0  0  0  0
  190.8130  176.6450  141.7530 O   0  0  0  0  0  0  0  0  0  0  0  0
  192.4450  177.5030  140.2230 C   0  0  0  0  0  1  0  0  0  0  0  0
  191.9420  177.5000  141.6510 C   0  0  0  0  0  2  0  0  0  0  0  0
  1  5  1  1  0  0  0
  1 19  1  0  0  0  0
  2 13  1  0  0  0  0
  4 12  1  6  0  0  0
  4 20  1  0  0  0  0
  4  1  1  0  0  0  0
  6  8  2  0  0  0  0
  7 15  1  6  0  0  0
  7  9  1  0  0  0  0
  8 12  1  0  0  0  0
  8 11  1  0  0  0  0
  9 14  1  6  0  0  0
  9 22  1  0  0  0  0
 10 21  1  1  0  0  0
 10  3  1  0  0  0  0
 11  5  2  0  0  0  0
 13 18  2  0  0  0  0
 15 23  1  0  0  0  0
 16  2  1  0  0  0  0
 17  3  2  0  0  0  0
 17 26  1  0  0  0  0
 19 26  1  0  0  0  0
 19  2  2  0  0  0  0
 20 17  1  0  0  0  0
 22 20  1  1  0  0  0
 22 10  1  0  0  0  0
 23 14  1  0  0  0  0
 25 18  1  0  0  0  0
 26 25  2  0  0  0  0
 27  7  1  0  0  0  0
 27 24  1  1  0  0  0
 27 12  1  0  0  0  0
 28 11  1  0  0  0  0
 29 30  1  0  0  0  0
 30 28  1  0  0  0  0
M  END
>  <MODEL>
5

>  <REMARK>
 VINA RESULT:      -8.2      2.524      5.672
  Name = 
  2 active torsions:
  status: ('A' for Active; 'I' for Inactive)
    1  A    between atoms: C_11  and  O_28
    2  A    between atoms: O_28  and  C_30
                            x       y       z     vdW  Elec       q    Type
                         _______ _______ _______ _____ _____    ______ ____

>  <TORSDO>
F 2

$$$$
=
 OpenBabel11122410283D

 30 35  0  0  1  0  0  0  0  0999 V2000
  187.6540  177.5160  143.3420 C   0  0  2  0  0  3  0  0  0  0  0  0
  186.4790  177.9800  145.4620 C   0  0  0  0  0  0  0  0  0  0  0  0
  184.4870  179.1750  141.1410 N   0  0  0  0  0  0  0  0  0  0  0  0
  187.6290  177.3820  141.8190 C   0  0  2  0  0  3  0  0  0  0  0  0
  188.8250  177.0370  144.0180 N   0  0  0  0  0  0  0  0  0  0  0  0
  191.2480  177.1130  141.4500 O   0  0  0  0  0  0  0  0  0  0  0  0
  188.2340  177.1090  138.9290 C   0  0  1  0  0  3  0  0  0  0  0  0
  190.1150  177.1870  141.9990 C   0  0  0  0  0  0  0  0  0  0  0  0
  186.7670  177.5470  138.8070 C   0  0  2  0  0  3  0  0  0  0  0  0
  184.9300  178.9480  139.9420 C   0  0  2  0  0  3  0  0  0  0  0  0
  189.9680  176.8570  143.4230 C   0  0  0  0  0  0  0  0  0  0  0  0
  188.9640  177.6050  141.2480 N   0  0  0  0  0  0  0  0  0  0  0  0
  185.3360  178.4660  146.1030 C   0  0  0  0  0  3  0  0  0  0  0  0
  186.6800  178.2530  137.4700 C   0  0  0  0  0  2  0  0  0  0  0  0
  188.8000  177.0940  137.5180 C   0  0  0  0  0  2  0  0  0  0  0  0
  187.6880  177.3110  146.5560 Cl  0  0  0  0  0  0  0  0  0  0  0  0
  185.5440  178.7380  141.9900 C   0  0  0  0  0  0  0  0  0  0  0  0
  184.2780  179.0030  145.3790 C   0  0  0  0  0  3  0  0  0  0  0  0
  186.5760  178.0130  144.0340 C   0  0  0  0  0  0  0  0  0  0  0  0
  186.6490  178.2930  141.2440 N   0  0  0  0  0  0  0  0  0  0  0  0
  184.0930  179.2160  138.7380 C   0  0  0  0  0  1  0  0  0  0  0  0
  186.2550  178.3870  139.9020 N   0  0  1  0  0  0  0  0  0  0  0  0
  187.6870  177.5490  136.5920 C   0  0  0  0  0  2  0  0  0  0  0  0
  189.0560  179.4560  139.6130 C   0  0  0  0  0  1  0  0  0  0  0  0
  184.3550  179.0720  143.9960 C   0  0  0  0  0  3  0  0  0  0  0  0
  185.4840  178.6030  143.3170 C   0  0  0  0  0  0  0  0  0  0  0  0
  189.1390  177.9510  139.8390 C   0  0  2  0  0  3  0  0  0  0  0  0
  191.0710  176.3740  144.1320 O   0  0  0  0  0  0  0  0  0  0  0  0
  191.4880  176.3780  146.4910 C   0  0  0  0  0  1  0  0  0  0  0  0
  191.6810  177.1120  145.1810 C   0  0  0  0  0  2  0  0  0  0  0  0
  1  5  1  1  0  0  0
  1 19  1  0  0  0  0
  2 13  1  0  0  0  0
  2 16  1  0  0  0  0
  3 17  2  0  0  0  0
  4 20  1  6  0  0  0
  4  1  1  0  0  0  0
  6  8  2  0  0  0  0
  7 15  1  6  0  0  0
  7 27  1  0  0  0  0
  8 11  1  0  0  0  0
  9 14  1  6  0  0  0
  9  7  1  0  0  0  0
  9 22  1  0  0  0  0
 10 21  1  1  0  0  0
 10  3  1  0  0  0  0
 11  5  2  0  0  0  0
 11 28  1  0  0  0  0
 12  4  1  0  0  0  0
 12  8  1  0  0  0  0
 17 26  1  0  0  0  0
 18 13  2  0  0  0  0
 19  2  2  0  0  0  0
 20 17  1  0  0  0  0
 22 10  1  0  0  0  0
 22 20  1  1  0  0  0
 23 14  1  0  0  0  0
 23 15  1  0  0  0  0
 25 18  1  0  0  0  0
 26 25  2  0  0  0  0
 26 19  1  0  0  0  0
 27 24  1  1  0  0  0
 27 12  1  0  0  0  0
 28 30  1  0  0  0  0
 30 29  1  0  0  0  0
M  END
>  <MODEL>
6

>  <REMARK>
 VINA RESULT:      -8.1      2.309      5.726
  Name = 
  2 active torsions:
  status: ('A' for Active; 'I' for Inactive)
    1  A    between atoms: C_11  and  O_28
    2  A    between atoms: O_28  and  C_30
                            x       y       z     vdW  Elec       q    Type
                         _______ _______ _______ _____ _____    ______ ____

>  <TORSDO>
F 2

$$$$
=
 OpenBabel11122410283D

 30 35  0  0  1  0  0  0  0  0999 V2000
  186.7490  178.2600  141.3510 C   0  0  2  0  0  3  0  0  0  0  0  0
  187.0200  177.9660  143.7870 C   0  0  0  0  0  0  0  0  0  0  0  0
  190.5080  176.5260  140.6520 N   0  0  0  0  0  0  0  0  0  0  0  0
  187.3570  178.2920  139.9480 C   0  0  2  0  0  3  0  0  0  0  0  0
  185.4110  178.7570  141.4930 N   0  0  0  0  0  0  0  0  0  0  0  0
  184.1570  178.4560  138.2050 O   0  0  0  0  0  0  0  0  0  0  0  0
  187.9070  178.3550  137.0350 C   0  0  1  0  0  3  0  0  0  0  0  0
  184.9930  178.4440  139.1490 C   0  0  0  0  0  0  0  0  0  0  0  0
  189.3060  177.9430  137.5150 C   0  0  2  0  0  3  0  0  0  0  0  0
  190.5600  176.6610  139.3620 C   0  0  2  0  0  3  0  0  0  0  0  0
  184.5850  178.8720  140.4940 C   0  0  0  0  0  0  0  0  0  0  0  0
  186.3410  178.0020  138.9270 N   0  0  0  0  0  0  0  0  0  0  0  0
  187.8280  177.5490  144.8490 C   0  0  0  0  0  3  0  0  0  0  0  0
  189.8950  177.1500  136.3660 C   0  0  0  0  0  2  0  0  0  0  0  0
  187.9250  178.2630  135.5180 C   0  0  0  0  0  2  0  0  0  0  0  0
  185.4880  178.6810  144.2850 Cl  0  0  0  0  0  0  0  0  0  0  0  0
  189.2090  176.9960  140.9990 C   0  0  0  0  0  0  0  0  0  0  0  0
  189.0790  176.9880  144.6250 C   0  0  0  0  0  3  0  0  0  0  0  0
  187.4770  177.8340  142.4370 C   0  0  0  0  0  0  0  0  0  0  0  0
  188.4780  177.3660  139.8580 N   0  0  0  0  0  0  0  0  0  0  0  0
  191.7930  176.3310  138.5930 C   0  0  0  0  0  1  0  0  0  0  0  0
  189.3550  177.1900  138.7790 N   0  0  1  0  0  0  0  0  0  0  0  0
  189.3050  177.7700  135.1230 C   0  0  0  0  0  2  0  0  0  0  0  0
  186.8720  176.0430  137.5170 C   0  0  0  0  0  1  0  0  0  0  0  0
  189.5380  176.8240  143.3260 C   0  0  0  0  0  3  0  0  0  0  0  0
  188.7570  177.2210  142.2350 C   0  0  0  0  0  0  0  0  0  0  0  0
  186.7180  177.5580  137.5870 C   0  0  2  0  0  3  0  0  0  0  0  0
  183.2970  179.3780  140.6910 O   0  0  0  0  0  0  0  0  0  0  0  0
  181.9690  178.9430  142.6380 C   0  0  0  0  0  1  0  0  0  0  0  0
  182.2370  178.5770  141.1930 C   0  0  0  0  0  2  0  0  0  0  0  0
  1  5  1  1  0  0  0
  1 19  1  0  0  0  0
  2 16  1  0  0  0  0
  2 13  1  0  0  0  0
  3 17  2  0  0  0  0
  4 12  1  6  0  0  0
  4  1  1  0  0  0  0
  6  8  2  0  0  0  0
  7 15  1  6  0  0  0
  7  9  1  0  0  0  0
  7 27  1  0  0  0  0
  8 11  1  0  0  0  0
  9 14  1  6  0  0  0
  9 22  1  0  0  0  0
 10 21  1  1  0  0  0
 10  3  1  0  0  0  0
 11 28  1  0  0  0  0
 11  5  2  0  0  0  0
 12  8  1  0  0  0  0
 17 26  1  0  0  0  0
 18 13  2  0  0  0  0
 19  2  2  0  0  0  0
 20  4  1  0  0  0  0
 20 17  1  0  0  0  0
 22 10  1  0  0  0  0
 22 20  1  1  0  0  0
 23 15  1  0  0  0  0
 23 14  1  0  0  0  0
 25 18  1  0  0  0  0
 26 19  1  0  0  0  0
 26 25  2  0  0  0  0
 27 24  1  1  0  0  0
 27 12  1  0  0  0  0
 28 30  1  0  0  0  0
 30 29  1  0  0  0  0
M  END
>  <MODEL>
7

>  <REMARK>
 VINA RESULT:      -8.1      2.403      6.116
  Name = 
  2 active torsions:
  status: ('A' for Active; 'I' for Inactive)
    1  A    between atoms: C_11  and  O_28
    2  A    between atoms: O_28  and  C_30
                            x       y       z     vdW  Elec       q    Type
                         _______ _______ _______ _____ _____    ______ ____

>  <TORSDO>
F 2

$$$$
=
 OpenBabel11122410283D

 30 35  0  0  1  0  0  0  0  0999 V2000
  185.7560  178.5540  141.6740 C   0  0  2  0  0  3  0  0  0  0  0  0
  185.6210  178.2960  144.1260 C   0  0  0  0  0  0  0  0  0  0  0  0
  189.7110  177.1440  141.6730 N   0  0  0  0  0  0  0  0  0  0  0  0
  186.5950  178.6300  140.3980 C   0  0  2  0  0  3  0  0  0  0  0  0
  184.3770  178.9350  141.5710 N   0  0  0  0  0  0  0  0  0  0  0  0
  183.7460  178.5100  138.1230 O   0  0  0  0  0  0  0  0  0  0  0  0
  187.6370  178.7260  137.6230 C   0  0  1  0  0  3  0  0  0  0  0  0
  184.4020  178.5750  139.1980 C   0  0  0  0  0  0  0  0  0  0  0  0
  188.9610  178.4370  138.3470 C   0  0  2  0  0  3  0  0  0  0  0  0
  189.9760  177.2770  140.4090 C   0  0  2  0  0  3  0  0  0  0  0  0
  183.7320  178.9740  140.4430 C   0  0  0  0  0  0  0  0  0  0  0  0
  185.8010  178.2490  139.2220 N   0  0  0  0  0  0  0  0  0  0  0  0
  186.2630  177.9560  145.3190 C   0  0  0  0  0  3  0  0  0  0  0  0
  189.8060  177.6920  137.3340 C   0  0  0  0  0  2  0  0  0  0  0  0
  187.9280  178.6270  136.1340 C   0  0  0  0  0  2  0  0  0  0  0  0
  183.9720  178.8800  144.3350 Cl  0  0  0  0  0  0  0  0  0  0  0  0
  188.3370  177.5040  141.7800 C   0  0  0  0  0  0  0  0  0  0  0  0
  187.5760  177.5030  145.3270 C   0  0  0  0  0  3  0  0  0  0  0  0
  186.3160  178.1970  142.8780 C   0  0  0  0  0  0  0  0  0  0  0  0
  187.7870  177.8030  140.5220 N   0  0  0  0  0  0  0  0  0  0  0  0
  191.3470  177.0500  139.8720 C   0  0  0  0  0  1  0  0  0  0  0  0
  188.8510  177.6970  139.6160 N   0  0  1  0  0  0  0  0  0  0  0  0
  189.3920  178.2530  135.9950 C   0  0  0  0  0  2  0  0  0  0  0  0
  186.7310  176.3350  137.9650 C   0  0  0  0  0  1  0  0  0  0  0  0
  188.2670  177.3720  144.1310 C   0  0  0  0  0  3  0  0  0  0  0  0
  187.6580  177.6950  142.9140 C   0  0  0  0  0  0  0  0  0  0  0  0
  186.4410  177.8320  137.9760 C   0  0  2  0  0  3  0  0  0  0  0  0
  182.3910  179.3680  140.4030 O   0  0  0  0  0  0  0  0  0  0  0  0
  180.7840  179.3710  142.1800 C   0  0  0  0  0  1  0  0  0  0  0  0
  181.3580  178.6040  141.0070 C   0  0  0  0  0  2  0  0  0  0  0  0
  1  5  1  1  0  0  0
  1 19  1  0  0  0  0
  2 16  1  0  0  0  0
  2 13  1  0  0  0  0
  3 17  2  0  0  0  0
  4 12  1  6  0  0  0
  4 20  1  0  0  0  0
  4  1  1  0  0  0  0
  6  8  2  0  0  0  0
  7 15  1  6  0  0  0
  7 27  1  0  0  0  0
  7  9  1  0  0  0  0
  8 12  1  0  0  0  0
  8 11  1  0  0  0  0
  9 14  1  6  0  0  0
  9 22  1  0  0  0  0
 10 21  1  1  0  0  0
 10  3  1  0  0  0  0
 11  5  2  0  0  0  0
 13 18  2  0  0  0  0
 17 26  1  0  0  0  0
 19 26  1  0  0  0  0
 19  2  2  0  0  0  0
 20 17  1  0  0  0  0
 22 10  1  0  0  0  0
 22 20  1  1  0  0  0
 23 15  1  0  0  0  0
 23 14  1  0  0  0  0
 25 18  1  0  0  0  0
 26 25  2  0  0  0  0
 27 24  1  1  0  0  0
 27 12  1  0  0  0  0
 28 11  1  0  0  0  0
 28 30  1  0  0  0  0
 30 29  1  0  0  0  0
M  END
>  <MODEL>
8

>  <REMARK>
 VINA RESULT:      -8.1      2.542      5.599
  Name = 
  2 active torsions:
  status: ('A' for Active; 'I' for Inactive)
    1  A    between atoms: C_11  and  O_28
    2  A    between atoms: O_28  and  C_30
                            x       y       z     vdW  Elec       q    Type
                         _______ _______ _______ _____ _____    ______ ____

>  <TORSDO>
F 2

$$$$
=
 OpenBabel11122410283D

 30 35  0  0  1  0  0  0  0  0999 V2000
  188.0610  177.6910  142.4360 C   0  0  2  0  0  3  0  0  0  0  0  0
  186.9770  178.1980  144.5950 C   0  0  0  0  0  0  0  0  0  0  0  0
  184.6310  178.9120  140.3460 N   0  0  0  0  0  0  0  0  0  0  0  0
  187.9570  177.4480  140.9290 C   0  0  2  0  0  3  0  0  0  0  0  0
  189.3090  177.3630  143.0630 N   0  0  0  0  0  0  0  0  0  0  0  0
  191.5570  177.4680  140.3410 O   0  0  0  0  0  0  0  0  0  0  0  0
  188.4100  177.0280  138.0290 C   0  0  1  0  0  3  0  0  0  0  0  0
  190.4570  177.4820  140.9570 C   0  0  0  0  0  0  0  0  0  0  0  0
  186.9050  177.3280  137.9760 C   0  0  2  0  0  3  0  0  0  0  0  0
  185.0200  178.6410  139.1370 C   0  0  2  0  0  3  0  0  0  0  0  0
  190.4250  177.2410  142.4060 C   0  0  0  0  0  0  0  0  0  0  0  0
  189.2300  177.7450  140.2580 N   0  0  0  0  0  0  0  0  0  0  0  0
  185.8350  178.6270  145.2760 C   0  0  0  0  0  3  0  0  0  0  0  0
  186.6740  177.9290  136.6050 C   0  0  0  0  0  2  0  0  0  0  0  0
  188.8890  176.9640  136.5880 C   0  0  0  0  0  2  0  0  0  0  0  0
  188.3050  177.7130  145.6470 Cl  0  0  0  0  0  0  0  0  0  0  0  0
  185.7720  178.6280  141.1500 C   0  0  0  0  0  0  0  0  0  0  0  0
  184.6920  179.0190  144.5910 C   0  0  0  0  0  3  0  0  0  0  0  0
  186.9860  178.1400  143.1640 C   0  0  0  0  0  0  0  0  0  0  0  0
  186.8650  178.2290  140.3630 N   0  0  0  0  0  0  0  0  0  0  0  0
  184.0910  178.7510  137.9770 C   0  0  0  0  0  1  0  0  0  0  0  0
  186.3850  178.1950  139.0470 N   0  0  1  0  0  0  0  0  0  0  0  0
  187.6870  177.2550  135.7100 C   0  0  0  0  0  2  0  0  0  0  0  0
  189.0550  179.4790  138.5060 C   0  0  0  0  0  1  0  0  0  0  0  0
  184.6790  178.9980  143.2040 C   0  0  0  0  0  3  0  0  0  0  0  0
  185.8040  178.5820  142.4840 C   0  0  0  0  0  0  0  0  0  0  0  0
  189.2880  178.0060  138.8210 C   0  0  2  0  0  3  0  0  0  0  0  0
  191.6090  176.9060  143.0700 O   0  0  0  0  0  0  0  0  0  0  0  0
  191.6800  176.3870  145.4090 C   0  0  0  0  0  1  0  0  0  0  0  0
  191.6800  175.8330  143.9990 C   0  0  0  0  0  2  0  0  0  0  0  0
  1  5  1  1  0  0  0
  1 19  1  0  0  0  0
  2 13  1  0  0  0  0
  2 16  1  0  0  0  0
  3 17  2  0  0  0  0
  4 12  1  6  0  0  0
  4  1  1  0  0  0  0
  6  8  2  0  0  0  0
  7 15  1  6  0  0  0
  7 27  1  0  0  0  0
  8 11  1  0  0  0  0
  9 14  1  6  0  0  0
  9  7  1  0  0  0  0
  9 22  1  0  0  0  0
 10 21  1  1  0  0  0
 10  3  1  0  0  0  0
 11  5  2  0  0  0  0
 11 28  1  0  0  0  0
 12  8  1  0  0  0  0
 17 26  1  0  0  0  0
 18 13  2  0  0  0  0
 19  2  2  0  0  0  0
 20  4  1  0  0  0  0
 20 17  1  0  0  0  0
 22 10  1  0  0  0  0
 22 20  1  1  0  0  0
 23 15  1  0  0  0  0
 23 14  1  0  0  0  0
 25 18  1  0  0  0  0
 26 19  1  0  0  0  0
 26 25  2  0  0  0  0
 27 24  1  1  0  0  0
 27 12  1  0  0  0  0
 28 30  1  0  0  0  0
 30 29  1  0  0  0  0
M  END
>  <MODEL>
9

>  <REMARK>
 VINA RESULT:      -8.1      2.415      5.905
  Name = 
  2 active torsions:
  status: ('A' for Active; 'I' for Inactive)
    1  A    between atoms: C_11  and  O_28
    2  A    between atoms: O_28  and  C_30
                            x       y       z     vdW  Elec       q    Type
                         _______ _______ _______ _____ _____    ______ ____

>  <TORSDO>
F 2

$$$$
