=
 OpenBabel11122411003D

 31 35  0  0  1  0  0  0  0  0999 V2000
  190.9060  177.0330  142.1970 C   0  0  0  0  0  0  0  0  0  0  0  0
  190.1460  178.0340  138.6040 C   0  0  2  0  0  3  0  0  0  0  0  0
  190.4810  176.8200  137.7450 C   0  0  0  0  0  0  0  0  0  0  0  0
  191.6230  174.6950  137.4240 C   0  0  0  0  0  0  0  0  0  0  0  0
  189.9560  177.6800  140.0590 C   0  0  0  0  0  0  0  0  0  0  0  0
  189.6240  176.9260  142.7390 C   0  0  0  0  0  3  0  0  0  0  0  0
  191.3010  175.7890  138.2320 C   0  0  0  0  0  3  0  0  0  0  0  0
  187.6890  177.9840  138.3770 N   0  0  0  0  0  0  0  0  0  0  0  0
  192.0160  176.7610  142.9840 O   0  0  0  0  0  1  0  0  0  0  0  0
  189.2530  177.7910  135.8790 O   0  0  0  0  0  0  0  0  0  0  0  0
  192.4010  173.7010  137.9110 F   0  0  0  0  0  0  0  0  0  0  0  0
  187.4600  178.0090  139.8250 C   0  0  0  0  0  2  0  0  0  0  0  0
  188.8970  178.7770  138.0770 C   0  0  2  0  0  3  0  0  0  0  0  0
  191.0720  177.4100  140.8620 C   0  0  0  0  0  3  0  0  0  0  0  0
  191.1410  174.6280  136.1150 C   0  0  0  0  0  3  0  0  0  0  0  0
  188.6640  177.5730  140.6090 C   0  0  0  0  0  0  0  0  0  0  0  0
  188.5050  177.2070  141.9490 C   0  0  0  0  0  3  0  0  0  0  0  0
  189.0750  179.0230  136.5720 C   0  0  0  0  0  2  0  0  0  0  0  0
  190.0320  176.7600  136.4100 C   0  0  0  0  0  0  0  0  0  0  0  0
  190.3480  175.6600  135.6090 C   0  0  0  0  0  3  0  0  0  0  0  0
  186.5180  178.6250  137.7880 C   0  0  0  0  0  2  0  0  0  0  0  0
  185.5620  176.4670  137.5330 O   0  0  0  0  0  0  0  0  0  0  0  0
  185.3620  177.6770  137.8220 C   0  0  0  0  0  0  0  0  0  0  0  0
  181.3710  178.9450  138.6290 N   0  0  0  0  0  0  0  0  0  0  0  0
  182.8960  177.3600  137.5750 C   0  0  0  0  0  2  0  0  0  0  0  0
  184.6500  179.7570  139.6760 O   0  0  0  0  0  0  0  0  0  0  0  0
  180.1370  179.6780  138.4150 C   0  0  0  0  0  1  0  0  0  0  0  0
  181.6660  178.2450  137.3830 C   0  0  0  0  0  2  0  0  0  0  0  0
  183.7610  179.2850  138.9190 C   0  0  0  0  0  0  0  0  0  0  0  0
  184.0260  178.1440  138.0800 N   0  0  0  0  0  0  0  0  0  0  0  0
  182.4150  179.9400  138.8630 C   0  0  0  0  0  2  0  0  0  0  0  0
  1  6  1  0  0  0  0
  1  9  1  0  0  0  0
  2  3  1  6  0  0  0
  2  5  1  0  0  0  0
  3  7  1  0  0  0  0
  4 11  1  0  0  0  0
  4  7  2  0  0  0  0
  5 16  2  0  0  0  0
  5 14  1  0  0  0  0
  8 12  1  0  0  0  0
 10 19  1  0  0  0  0
 10 18  1  0  0  0  0
 12 16  1  0  0  0  0
 13 18  1  6  0  0  0
 13  8  1  0  0  0  0
 13  2  1  0  0  0  0
 14  1  2  0  0  0  0
 15  4  1  0  0  0  0
 16 17  1  0  0  0  0
 17  6  2  0  0  0  0
 19  3  2  0  0  0  0
 20 15  2  0  0  0  0
 20 19  1  0  0  0  0
 21 23  1  0  0  0  0
 21  8  1  0  0  0  0
 22 23  2  0  0  0  0
 23 30  1  0  0  0  0
 24 31  1  0  0  0  0
 25 30  1  0  0  0  0
 27 24  1  0  0  0  0
 28 25  1  0  0  0  0
 28 24  1  0  0  0  0
 29 26  2  0  0  0  0
 30 29  1  0  0  0  0
 31 29  1  0  0  0  0
M  END
>  <MODEL>
1

>  <REMARK>
 VINA RESULT:      -7.2      0.000      0.000
  Name = 
  2 active torsions:
  status: ('A' for Active; 'I' for Inactive)
    1  A    between atoms: C_5  and  C_16
    2  A    between atoms: N_10  and  C_16
                            x       y       z     vdW  Elec       q    Type
                         _______ _______ _______ _____ _____    ______ ____

>  <TORSDO>
F 2

$$$$
=
 OpenBabel11122411003D

 31 35  0  0  1  0  0  0  0  0999 V2000
  186.3340  172.3230  135.7610 C   0  0  0  0  0  0  0  0  0  0  0  0
  186.7190  176.1020  136.0010 C   0  0  2  0  0  3  0  0  0  0  0  0
  185.6740  176.5720  137.0060 C   0  0  0  0  0  0  0  0  0  0  0  0
  183.6150  176.2150  138.2540 C   0  0  0  0  0  0  0  0  0  0  0  0
  187.0120  174.6260  136.1180 C   0  0  0  0  0  0  0  0  0  0  0  0
  187.4890  171.8790  136.4070 C   0  0  0  0  0  3  0  0  0  0  0  0
  184.5810  175.7610  137.3520 C   0  0  0  0  0  3  0  0  0  0  0  0
  188.7430  176.5070  137.3520 N   0  0  0  0  0  0  0  0  0  0  0  0
  185.4200  171.4030  135.2650 O   0  0  0  0  0  1  0  0  0  0  0  0
  186.8000  178.7240  137.1840 O   0  0  0  0  0  0  0  0  0  0  0  0
  182.5750  175.4160  138.5910 F   0  0  0  0  0  0  0  0  0  0  0  0
  189.2510  175.1420  137.1740 C   0  0  0  0  0  2  0  0  0  0  0  0
  188.0310  176.9100  136.1250 C   0  0  2  0  0  3  0  0  0  0  0  0
  186.0970  173.6920  135.6140 C   0  0  0  0  0  3  0  0  0  0  0  0
  183.7230  177.4920  138.8080 C   0  0  0  0  0  3  0  0  0  0  0  0
  188.1770  174.1750  136.7670 C   0  0  0  0  0  0  0  0  0  0  0  0
  188.4140  172.8030  136.9000 C   0  0  0  0  0  3  0  0  0  0  0  0
  187.6860  178.4060  136.1140 C   0  0  0  0  0  2  0  0  0  0  0  0
  185.7520  177.8740  137.5420 C   0  0  0  0  0  0  0  0  0  0  0  0
  184.7890  178.3200  138.4510 C   0  0  0  0  0  3  0  0  0  0  0  0
  189.9280  177.3400  137.5330 C   0  0  0  0  0  2  0  0  0  0  0  0
  191.6640  176.5420  138.9410 O   0  0  0  0  0  0  0  0  0  0  0  0
  190.5230  177.0740  138.8780 C   0  0  0  0  0  0  0  0  0  0  0  0
  188.4240  177.8240  142.5140 N   0  0  0  0  0  0  0  0  0  0  0  0
  190.1230  176.5700  141.2920 C   0  0  0  0  0  2  0  0  0  0  0  0
  188.7270  179.2790  139.3050 O   0  0  0  0  0  0  0  0  0  0  0  0
  187.3640  177.6800  143.4940 C   0  0  0  0  0  1  0  0  0  0  0  0
  188.9240  176.4810  142.2350 C   0  0  0  0  0  2  0  0  0  0  0  0
  188.7920  178.3690  140.1730 C   0  0  0  0  0  0  0  0  0  0  0  0
  189.7790  177.3220  140.0830 N   0  0  0  0  0  0  0  0  0  0  0  0
  187.8060  178.3520  141.3010 C   0  0  0  0  0  2  0  0  0  0  0  0
  1  6  1  0  0  0  0
  2  5  1  1  0  0  0
  2 13  1  0  0  0  0
  2  3  1  0  0  0  0
  3  7  2  0  0  0  0
  3 19  1  0  0  0  0
  4 11  1  0  0  0  0
  4 15  2  0  0  0  0
  5 16  2  0  0  0  0
  6 17  2  0  0  0  0
  7  4  1  0  0  0  0
  8 21  1  0  0  0  0
  9  1  1  0  0  0  0
 10 19  1  0  0  0  0
 12  8  1  0  0  0  0
 13 18  1  1  0  0  0
 13  8  1  0  0  0  0
 14  1  2  0  0  0  0
 14  5  1  0  0  0  0
 16 17  1  0  0  0  0
 16 12  1  0  0  0  0
 18 10  1  0  0  0  0
 19 20  2  0  0  0  0
 20 15  1  0  0  0  0
 21 23  1  0  0  0  0
 23 22  2  0  0  0  0
 23 30  1  0  0  0  0
 24 27  1  0  0  0  0
 25 28  1  0  0  0  0
 26 29  2  0  0  0  0
 28 24  1  0  0  0  0
 29 31  1  0  0  0  0
 30 29  1  0  0  0  0
 30 25  1  0  0  0  0
 31 24  1  0  0  0  0
M  END
>  <MODEL>
2

>  <REMARK>
 VINA RESULT:      -7.1      3.316      6.698
  Name = 
  2 active torsions:
  status: ('A' for Active; 'I' for Inactive)
    1  A    between atoms: C_5  and  C_16
    2  A    between atoms: N_10  and  C_16
                            x       y       z     vdW  Elec       q    Type
                         _______ _______ _______ _____ _____    ______ ____

>  <TORSDO>
F 2

$$$$
=
 OpenBabel11122411003D

 31 35  0  0  1  0  0  0  0  0999 V2000
  179.7780  177.8830  142.0480 C   0  0  0  0  0  0  0  0  0  0  0  0
  182.9110  179.0030  140.1990 C   0  0  2  0  0  3  0  0  0  0  0  0
  184.0810  178.7140  141.1320 C   0  0  0  0  0  0  0  0  0  0  0  0
  184.9650  178.2670  143.3550 C   0  0  0  0  0  0  0  0  0  0  0  0
  181.6700  178.2260  140.5670 C   0  0  0  0  0  0  0  0  0  0  0  0
  179.4160  176.7430  141.3270 C   0  0  0  0  0  3  0  0  0  0  0  0
  183.8810  178.5030  142.5060 C   0  0  0  0  0  3  0  0  0  0  0  0
  183.3610  177.2790  138.4920 N   0  0  0  0  0  0  0  0  0  0  0  0
  179.0240  178.2780  143.1440 O   0  0  0  0  0  1  0  0  0  0  0  0
  185.6380  178.9870  139.2790 O   0  0  0  0  0  0  0  0  0  0  0  0
  184.7560  178.0500  144.6750 F   0  0  0  0  0  0  0  0  0  0  0  0
  182.0080  176.7170  138.5660 C   0  0  0  0  0  2  0  0  0  0  0  0
  183.2810  178.7340  138.7220 C   0  0  2  0  0  3  0  0  0  0  0  0
  180.9000  178.6230  141.6680 C   0  0  0  0  0  3  0  0  0  0  0  0
  186.2630  178.2530  142.8410 C   0  0  0  0  0  3  0  0  0  0  0  0
  181.3020  177.0770  139.8410 C   0  0  0  0  0  0  0  0  0  0  0  0
  180.1700  176.3470  140.2190 C   0  0  0  0  0  3  0  0  0  0  0  0
  184.6040  179.4480  138.4130 C   0  0  0  0  0  2  0  0  0  0  0  0
  185.3990  178.7360  140.6320 C   0  0  0  0  0  0  0  0  0  0  0  0
  186.4790  178.4880  141.4820 C   0  0  0  0  0  3  0  0  0  0  0  0
  183.8150  177.0180  137.1300 C   0  0  0  0  0  2  0  0  0  0  0  0
  184.3970  174.7670  137.6120 O   0  0  0  0  0  0  0  0  0  0  0  0
  184.7750  175.8710  137.1360 C   0  0  0  0  0  0  0  0  0  0  0  0
  188.8150  176.2460  135.8230 N   0  0  0  0  0  0  0  0  0  0  0  0
  187.1580  175.1260  137.2190 C   0  0  0  0  0  2  0  0  0  0  0  0
  185.6370  177.5270  134.9480 O   0  0  0  0  0  0  0  0  0  0  0  0
  190.1750  176.7530  135.8250 C   0  0  0  0  0  1  0  0  0  0  0  0
  188.5380  175.7770  137.1780 C   0  0  0  0  0  2  0  0  0  0  0  0
  186.5050  176.9940  135.6890 C   0  0  0  0  0  0  0  0  0  0  0  0
  186.1360  176.0400  136.7020 N   0  0  0  0  0  0  0  0  0  0  0  0
  187.9440  177.3840  135.5370 C   0  0  0  0  0  2  0  0  0  0  0  0
  1  9  1  0  0  0  0
  2  5  1  1  0  0  0
  2  3  1  0  0  0  0
  3  7  1  0  0  0  0
  4 11  1  0  0  0  0
  5 14  2  0  0  0  0
  6  1  2  0  0  0  0
  7  4  2  0  0  0  0
  8 12  1  0  0  0  0
  8 13  1  0  0  0  0
 10 19  1  0  0  0  0
 12 16  1  0  0  0  0
 13 18  1  1  0  0  0
 13  2  1  0  0  0  0
 14  1  1  0  0  0  0
 15  4  1  0  0  0  0
 16 17  2  0  0  0  0
 16  5  1  0  0  0  0
 17  6  1  0  0  0  0
 18 10  1  0  0  0  0
 19  3  2  0  0  0  0
 19 20  1  0  0  0  0
 20 15  2  0  0  0  0
 21 23  1  0  0  0  0
 21  8  1  0  0  0  0
 23 22  2  0  0  0  0
 24 27  1  0  0  0  0
 24 28  1  0  0  0  0
 26 29  2  0  0  0  0
 28 25  1  0  0  0  0
 29 30  1  0  0  0  0
 30 23  1  0  0  0  0
 30 25  1  0  0  0  0
 31 29  1  0  0  0  0
 31 24  1  0  0  0  0
M  END
>  <MODEL>
3

>  <REMARK>
 VINA RESULT:      -7.0      3.520      7.666
  Name = 
  2 active torsions:
  status: ('A' for Active; 'I' for Inactive)
    1  A    between atoms: C_5  and  C_16
    2  A    between atoms: N_10  and  C_16
                            x       y       z     vdW  Elec       q    Type
                         _______ _______ _______ _____ _____    ______ ____

>  <TORSDO>
F 2

$$$$
=
 OpenBabel11122411003D

 31 35  0  0  1  0  0  0  0  0999 V2000
  185.6630  178.2450  145.9720 C   0  0  0  0  0  0  0  0  0  0  0  0
  189.3610  178.6280  145.1560 C   0  0  2  0  0  3  0  0  0  0  0  0
  190.0670  177.4530  145.8230 C   0  0  0  0  0  0  0  0  0  0  0  0
  190.1180  175.6630  147.4710 C   0  0  0  0  0  0  0  0  0  0  0  0
  187.8790  178.3960  144.9920 C   0  0  0  0  0  0  0  0  0  0  0  0
  185.1360  177.8780  144.7330 C   0  0  0  0  0  3  0  0  0  0  0  0
  189.4490  176.7210  146.8490 C   0  0  0  0  0  3  0  0  0  0  0  0
  189.6260  177.9350  142.8020 N   0  0  0  0  0  0  0  0  0  0  0  0
  184.8290  178.3500  147.0770 O   0  0  0  0  0  1  0  0  0  0  0  0
  192.0550  177.8740  144.4800 O   0  0  0  0  0  0  0  0  0  0  0  0
  189.5050  174.9560  148.4490 F   0  0  0  0  0  0  0  0  0  0  0  0
  188.1940  178.0570  142.5060 C   0  0  0  0  0  2  0  0  0  0  0  0
  189.9940  178.9690  143.7870 C   0  0  2  0  0  3  0  0  0  0  0  0
  187.0300  178.5060  146.1020 C   0  0  0  0  0  3  0  0  0  0  0  0
  191.4190  175.3360  147.0830 C   0  0  0  0  0  3  0  0  0  0  0  0
  187.3440  178.0270  143.7430 C   0  0  0  0  0  0  0  0  0  0  0  0
  185.9720  177.7790  143.6180 C   0  0  0  0  0  3  0  0  0  0  0  0
  191.5140  179.0890  143.9690 C   0  0  0  0  0  2  0  0  0  0  0  0
  191.3940  177.1380  145.4660 C   0  0  0  0  0  0  0  0  0  0  0  0
  192.0560  176.0730  146.0830 C   0  0  0  0  0  3  0  0  0  0  0  0
  190.3060  178.1910  141.5370 C   0  0  0  0  0  2  0  0  0  0  0  0
  190.5500  175.8560  141.1850 O   0  0  0  0  0  0  0  0  0  0  0  0
  190.2400  176.9680  140.6790 C   0  0  0  0  0  0  0  0  0  0  0  0
  189.2710  177.1200  136.5290 N   0  0  0  0  0  0  0  0  0  0  0  0
  190.3990  176.0020  138.3810 C   0  0  0  0  0  2  0  0  0  0  0  0
  188.3370  178.7790  139.5090 O   0  0  0  0  0  0  0  0  0  0  0  0
  189.4310  177.4950  135.1370 C   0  0  0  0  0  1  0  0  0  0  0  0
  190.5350  176.5250  136.9520 C   0  0  0  0  0  2  0  0  0  0  0  0
  189.0660  178.0870  138.7500 C   0  0  0  0  0  0  0  0  0  0  0  0
  189.9270  177.0600  139.2780 N   0  0  0  0  0  0  0  0  0  0  0  0
  189.0650  178.3570  137.2770 C   0  0  0  0  0  2  0  0  0  0  0  0
  1 14  1  0  0  0  0
  1  9  1  0  0  0  0
  2  5  1  6  0  0  0
  2  3  1  0  0  0  0
  3  7  1  0  0  0  0
  4 11  1  0  0  0  0
  5 14  2  0  0  0  0
  6  1  2  0  0  0  0
  7  4  2  0  0  0  0
  8 13  1  0  0  0  0
 10 19  1  0  0  0  0
 12  8  1  0  0  0  0
 12 16  1  0  0  0  0
 13 18  1  1  0  0  0
 13  2  1  0  0  0  0
 15  4  1  0  0  0  0
 16  5  1  0  0  0  0
 17 16  2  0  0  0  0
 17  6  1  0  0  0  0
 18 10  1  0  0  0  0
 19  3  2  0  0  0  0
 19 20  1  0  0  0  0
 20 15  2  0  0  0  0
 21  8  1  0  0  0  0
 23 22  2  0  0  0  0
 23 21  1  0  0  0  0
 24 28  1  0  0  0  0
 24 31  1  0  0  0  0
 25 30  1  0  0  0  0
 27 24  1  0  0  0  0
 28 25  1  0  0  0  0
 29 30  1  0  0  0  0
 29 26  2  0  0  0  0
 30 23  1  0  0  0  0
 31 29  1  0  0  0  0
M  END
>  <MODEL>
4

>  <REMARK>
 VINA RESULT:      -6.9      4.249      7.441
  Name = 
  2 active torsions:
  status: ('A' for Active; 'I' for Inactive)
    1  A    between atoms: C_5  and  C_16
    2  A    between atoms: N_10  and  C_16
                            x       y       z     vdW  Elec       q    Type
                         _______ _______ _______ _____ _____    ______ ____

>  <TORSDO>
F 2

$$$$
=
 OpenBabel11122411003D

 31 35  0  0  1  0  0  0  0  0999 V2000
  184.3370  179.2700  142.6780 C   0  0  0  0  0  0  0  0  0  0  0  0
  187.5360  178.8860  140.6520 C   0  0  2  0  0  3  0  0  0  0  0  0
  188.3950  177.8770  141.4030 C   0  0  0  0  0  0  0  0  0  0  0  0
  188.9620  176.6650  143.4360 C   0  0  0  0  0  0  0  0  0  0  0  0
  186.0820  178.8210  141.0520 C   0  0  0  0  0  0  0  0  0  0  0  0
  183.4050  178.6280  141.8600 C   0  0  0  0  0  3  0  0  0  0  0  0
  188.1490  177.5720  142.7520 C   0  0  0  0  0  3  0  0  0  0  0  0
  186.9550  177.4990  138.6960 N   0  0  0  0  0  0  0  0  0  0  0  0
  183.9380  179.8090  143.8930 O   0  0  0  0  0  1  0  0  0  0  0  0
  189.8110  177.6070  139.4390 O   0  0  0  0  0  0  0  0  0  0  0  0
  188.7040  176.3700  144.7320 F   0  0  0  0  0  0  0  0  0  0  0  0
  185.5130  177.7220  138.8470 C   0  0  0  0  0  2  0  0  0  0  0  0
  187.6680  178.7180  139.1210 C   0  0  2  0  0  3  0  0  0  0  0  0
  185.6710  179.3690  142.2740 C   0  0  0  0  0  3  0  0  0  0  0  0
  190.0400  176.0630  142.7840 C   0  0  0  0  0  3  0  0  0  0  0  0
  185.1400  178.1760  140.2290 C   0  0  0  0  0  0  0  0  0  0  0  0
  183.8030  178.0910  140.6330 C   0  0  0  0  0  3  0  0  0  0  0  0
  189.1600  178.6780  138.7610 C   0  0  0  0  0  2  0  0  0  0  0  0
  189.5100  177.2920  140.7660 C   0  0  0  0  0  0  0  0  0  0  0  0
  190.3140  176.3780  141.4510 C   0  0  0  0  0  3  0  0  0  0  0  0
  187.1650  177.2740  137.2690 C   0  0  0  0  0  2  0  0  0  0  0  0
  186.6930  174.9480  137.2230 O   0  0  0  0  0  0  0  0  0  0  0  0
  187.5550  175.8500  137.0420 C   0  0  0  0  0  0  0  0  0  0  0  0
  191.5320  174.6880  136.0280 N   0  0  0  0  0  0  0  0  0  0  0  0
  189.3810  174.1450  137.0450 C   0  0  0  0  0  2  0  0  0  0  0  0
  189.3210  177.3650  135.3520 O   0  0  0  0  0  0  0  0  0  0  0  0
  192.9640  174.5440  136.2090 C   0  0  0  0  0  1  0  0  0  0  0  0
  190.8990  174.1280  137.2190 C   0  0  0  0  0  2  0  0  0  0  0  0
  189.7790  176.3730  135.9790 C   0  0  0  0  0  0  0  0  0  0  0  0
  188.9110  175.4930  136.7190 N   0  0  0  0  0  0  0  0  0  0  0  0
  191.2560  176.1220  135.9860 C   0  0  0  0  0  2  0  0  0  0  0  0
  1  9  1  0  0  0  0
  2  5  1  1  0  0  0
  2  3  1  0  0  0  0
  3  7  1  0  0  0  0
  4 11  1  0  0  0  0
  5 14  2  0  0  0  0
  6  1  2  0  0  0  0
  7  4  2  0  0  0  0
  8 12  1  0  0  0  0
  8 13  1  0  0  0  0
 10 19  1  0  0  0  0
 12 16  1  0  0  0  0
 13 18  1  1  0  0  0
 13  2  1  0  0  0  0
 14  1  1  0  0  0  0
 15  4  1  0  0  0  0
 16 17  2  0  0  0  0
 16  5  1  0  0  0  0
 17  6  1  0  0  0  0
 18 10  1  0  0  0  0
 19  3  2  0  0  0  0
 19 20  1  0  0  0  0
 20 15  2  0  0  0  0
 21  8  1  0  0  0  0
 23 22  2  0  0  0  0
 23 21  1  0  0  0  0
 24 27  1  0  0  0  0
 24 28  1  0  0  0  0
 25 28  1  0  0  0  0
 26 29  2  0  0  0  0
 29 31  1  0  0  0  0
 29 30  1  0  0  0  0
 30 23  1  0  0  0  0
 30 25  1  0  0  0  0
 31 24  1  0  0  0  0
M  END
>  <MODEL>
5

>  <REMARK>
 VINA RESULT:      -6.9      2.774      6.450
  Name = 
  2 active torsions:
  status: ('A' for Active; 'I' for Inactive)
    1  A    between atoms: C_5  and  C_16
    2  A    between atoms: N_10  and  C_16
                            x       y       z     vdW  Elec       q    Type
                         _______ _______ _______ _____ _____    ______ ____

>  <TORSDO>
F 2

$$$$
=
 OpenBabel11122411003D

 31 35  0  0  1  0  0  0  0  0999 V2000
  191.5170  177.0580  145.5920 C   0  0  0  0  0  0  0  0  0  0  0  0
  187.9140  176.9150  144.3740 C   0  0  2  0  0  3  0  0  0  0  0  0
  187.0980  177.7370  145.3640 C   0  0  0  0  0  0  0  0  0  0  0  0
  186.8300  178.7790  147.5470 C   0  0  0  0  0  0  0  0  0  0  0  0
  189.3890  177.2280  144.4370 C   0  0  0  0  0  0  0  0  0  0  0  0
  192.1100  177.8750  144.6270 C   0  0  0  0  0  3  0  0  0  0  0  0
  187.6000  178.0480  146.6380 C   0  0  0  0  0  3  0  0  0  0  0  0
  187.7790  178.4290  142.4310 N   0  0  0  0  0  0  0  0  0  0  0  0
  192.2750  176.5700  146.6470 O   0  0  0  0  0  1  0  0  0  0  0  0
  185.2370  177.7970  143.7950 O   0  0  0  0  0  0  0  0  0  0  0  0
  187.3320  179.0850  148.7660 F   0  0  0  0  0  0  0  0  0  0  0  0
  189.2330  178.4630  142.2360 C   0  0  0  0  0  2  0  0  0  0  0  0
  187.4000  177.0930  142.9270 C   0  0  2  0  0  3  0  0  0  0  0  0
  190.1620  176.7330  145.4960 C   0  0  0  0  0  3  0  0  0  0  0  0
  185.5440  179.1950  147.1960 C   0  0  0  0  0  3  0  0  0  0  0  0
  189.9900  178.0500  143.4650 C   0  0  0  0  0  0  0  0  0  0  0  0
  191.3500  178.3620  143.5600 C   0  0  0  0  0  3  0  0  0  0  0  0
  185.8800  176.8750  142.9190 C   0  0  0  0  0  2  0  0  0  0  0  0
  185.7840  178.1290  145.0360 C   0  0  0  0  0  0  0  0  0  0  0  0
  185.0220  178.8690  145.9430 C   0  0  0  0  0  3  0  0  0  0  0  0
  187.2050  178.6470  141.1070 C   0  0  0  0  0  2  0  0  0  0  0  0
  185.6370  180.0470  142.2080 O   0  0  0  0  0  0  0  0  0  0  0  0
  185.8500  179.2620  141.2460 C   0  0  0  0  0  0  0  0  0  0  0  0
  182.6050  178.2900  138.6540 N   0  0  0  0  0  0  0  0  0  0  0  0
  183.3950  179.0540  140.8320 C   0  0  0  0  0  2  0  0  0  0  0  0
  186.1110  178.7090  138.4360 O   0  0  0  0  0  0  0  0  0  0  0  0
  181.6190  177.4380  138.0170 C   0  0  0  0  0  1  0  0  0  0  0  0
  182.4600  178.0980  140.0940 C   0  0  0  0  0  2  0  0  0  0  0  0
  185.0040  178.4980  138.9990 C   0  0  0  0  0  0  0  0  0  0  0  0
  184.7740  178.8960  140.3640 N   0  0  0  0  0  0  0  0  0  0  0  0
  183.9170  177.7900  138.2480 C   0  0  0  0  0  2  0  0  0  0  0  0
  1  9  1  0  0  0  0
  2  5  1  6  0  0  0
  2  3  1  0  0  0  0
  3  7  1  0  0  0  0
  4 11  1  0  0  0  0
  5 14  2  0  0  0  0
  6  1  2  0  0  0  0
  7  4  2  0  0  0  0
  8 13  1  0  0  0  0
 10 19  1  0  0  0  0
 12  8  1  0  0  0  0
 12 16  1  0  0  0  0
 13 18  1  1  0  0  0
 13  2  1  0  0  0  0
 14  1  1  0  0  0  0
 15  4  1  0  0  0  0
 16 17  2  0  0  0  0
 16  5  1  0  0  0  0
 17  6  1  0  0  0  0
 18 10  1  0  0  0  0
 19  3  2  0  0  0  0
 19 20  1  0  0  0  0
 20 15  2  0  0  0  0
 21 23  1  0  0  0  0
 21  8  1  0  0  0  0
 23 22  2  0  0  0  0
 24 28  1  0  0  0  0
 26 29  2  0  0  0  0
 27 24  1  0  0  0  0
 28 25  1  0  0  0  0
 29 30  1  0  0  0  0
 30 25  1  0  0  0  0
 30 23  1  0  0  0  0
 31 24  1  0  0  0  0
 31 29  1  0  0  0  0
M  END
>  <MODEL>
6

>  <REMARK>
 VINA RESULT:      -6.9      4.258      6.550
  Name = 
  2 active torsions:
  status: ('A' for Active; 'I' for Inactive)
    1  A    between atoms: C_5  and  C_16
    2  A    between atoms: N_10  and  C_16
                            x       y       z     vdW  Elec       q    Type
                         _______ _______ _______ _____ _____    ______ ____

>  <TORSDO>
F 2

$$$$
=
 OpenBabel11122411003D

 31 35  0  0  1  0  0  0  0  0999 V2000
  185.2870  178.7470  144.8680 C   0  0  0  0  0  0  0  0  0  0  0  0
  189.0430  178.5960  144.2690 C   0  0  2  0  0  3  0  0  0  0  0  0
  189.6050  177.6610  145.3330 C   0  0  0  0  0  0  0  0  0  0  0  0
  189.4090  176.5110  147.4690 C   0  0  0  0  0  0  0  0  0  0  0  0
  187.5570  178.4220  144.0710 C   0  0  0  0  0  0  0  0  0  0  0  0
  184.7970  178.0290  143.7750 C   0  0  0  0  0  3  0  0  0  0  0  0
  188.8710  177.3480  146.4880 C   0  0  0  0  0  3  0  0  0  0  0  0
  189.3710  177.1540  142.2940 N   0  0  0  0  0  0  0  0  0  0  0  0
  184.4070  179.2620  145.8100 O   0  0  0  0  0  1  0  0  0  0  0  0
  191.6920  177.4860  144.0900 O   0  0  0  0  0  0  0  0  0  0  0  0
  188.6840  176.2060  148.5700 F   0  0  0  0  0  0  0  0  0  0  0  0
  187.9740  177.2660  141.8610 C   0  0  0  0  0  2  0  0  0  0  0  0
  189.7760  178.4270  142.9180 C   0  0  2  0  0  3  0  0  0  0  0  0
  186.6630  178.9450  145.0140 C   0  0  0  0  0  3  0  0  0  0  0  0
  190.6950  175.9890  147.3120 C   0  0  0  0  0  3  0  0  0  0  0  0
  187.0590  177.7000  142.9700 C   0  0  0  0  0  0  0  0  0  0  0  0
  185.6800  177.5160  142.8220 C   0  0  0  0  0  3  0  0  0  0  0  0
  191.2890  178.5000  143.1720 C   0  0  0  0  0  2  0  0  0  0  0  0
  190.9170  177.1590  145.2040 C   0  0  0  0  0  0  0  0  0  0  0  0
  191.4470  176.3140  146.1820 C   0  0  0  0  0  3  0  0  0  0  0  0
  190.1390  176.9360  141.0720 C   0  0  0  0  0  2  0  0  0  0  0  0
  189.0410  178.7810  140.0600 O   0  0  0  0  0  0  0  0  0  0  0  0
  189.4460  177.5960  139.9230 C   0  0  0  0  0  0  0  0  0  0  0  0
  188.5780  175.5550  136.2800 N   0  0  0  0  0  0  0  0  0  0  0  0
  188.0390  177.3190  137.8780 C   0  0  0  0  0  2  0  0  0  0  0  0
  191.1500  175.6240  138.7070 O   0  0  0  0  0  0  0  0  0  0  0  0
  187.9780  174.5430  135.4310 C   0  0  0  0  0  1  0  0  0  0  0  0
  187.4910  176.1640  137.0420 C   0  0  0  0  0  2  0  0  0  0  0  0
  189.9920  175.7970  138.2440 C   0  0  0  0  0  0  0  0  0  0  0  0
  189.1540  176.8700  138.7160 N   0  0  0  0  0  0  0  0  0  0  0  0
  189.4610  174.8530  137.2090 C   0  0  0  0  0  2  0  0  0  0  0  0
  1 14  1  0  0  0  0
  1  9  1  0  0  0  0
  2  5  1  6  0  0  0
  2  3  1  0  0  0  0
  3  7  1  0  0  0  0
  4 11  1  0  0  0  0
  5 14  2  0  0  0  0
  6  1  2  0  0  0  0
  7  4  2  0  0  0  0
  8 13  1  0  0  0  0
 10 19  1  0  0  0  0
 12  8  1  0  0  0  0
 12 16  1  0  0  0  0
 13 18  1  1  0  0  0
 13  2  1  0  0  0  0
 15  4  1  0  0  0  0
 16  5  1  0  0  0  0
 17 16  2  0  0  0  0
 17  6  1  0  0  0  0
 18 10  1  0  0  0  0
 19  3  2  0  0  0  0
 19 20  1  0  0  0  0
 20 15  2  0  0  0  0
 21  8  1  0  0  0  0
 23 22  2  0  0  0  0
 23 21  1  0  0  0  0
 24 28  1  0  0  0  0
 24 31  1  0  0  0  0
 25 30  1  0  0  0  0
 27 24  1  0  0  0  0
 28 25  1  0  0  0  0
 29 26  2  0  0  0  0
 29 30  1  0  0  0  0
 30 23  1  0  0  0  0
 31 29  1  0  0  0  0
M  END
>  <MODEL>
7

>  <REMARK>
 VINA RESULT:      -6.7      4.076      7.273
  Name = 
  2 active torsions:
  status: ('A' for Active; 'I' for Inactive)
    1  A    between atoms: C_5  and  C_16
    2  A    between atoms: N_10  and  C_16
                            x       y       z     vdW  Elec       q    Type
                         _______ _______ _______ _____ _____    ______ ____

>  <TORSDO>
F 2

$$$$
=
 OpenBabel11122411003D

 31 35  0  0  1  0  0  0  0  0999 V2000
  190.3410  175.9590  142.9300 C   0  0  0  0  0  0  0  0  0  0  0  0
  186.8410  177.0210  143.9840 C   0  0  2  0  0  3  0  0  0  0  0  0
  186.9930  177.6950  145.3430 C   0  0  0  0  0  0  0  0  0  0  0  0
  188.2570  178.1050  147.3810 C   0  0  0  0  0  0  0  0  0  0  0  0
  188.1430  176.9470  143.2250 C   0  0  0  0  0  0  0  0  0  0  0  0
  190.6080  176.8540  141.8920 C   0  0  0  0  0  3  0  0  0  0  0  0
  188.1430  177.5030  146.1250 C   0  0  0  0  0  3  0  0  0  0  0  0
  186.2870  179.0140  142.6390 N   0  0  0  0  0  0  0  0  0  0  0  0
  191.2980  175.0260  143.3050 O   0  0  0  0  0  1  0  0  0  0  0  0
  184.7560  178.6360  145.1360 O   0  0  0  0  0  0  0  0  0  0  0  0
  189.3780  177.9230  148.1190 F   0  0  0  0  0  0  0  0  0  0  0  0
  187.3430  178.7590  141.6530 C   0  0  0  0  0  2  0  0  0  0  0  0
  185.7670  177.7200  143.1190 C   0  0  2  0  0  3  0  0  0  0  0  0
  189.1120  176.0030  143.5930 C   0  0  0  0  0  3  0  0  0  0  0  0
  187.2160  178.8940  147.8750 C   0  0  0  0  0  3  0  0  0  0  0  0
  188.4150  177.8460  142.1770 C   0  0  0  0  0  0  0  0  0  0  0  0
  189.6430  177.7890  141.5090 C   0  0  0  0  0  3  0  0  0  0  0  0
  184.4910  177.8780  143.9580 C   0  0  0  0  0  2  0  0  0  0  0  0
  185.9320  178.4620  145.8680 C   0  0  0  0  0  0  0  0  0  0  0  0
  186.0560  179.0710  147.1190 C   0  0  0  0  0  3  0  0  0  0  0  0
  185.2430  179.7290  141.9120 C   0  0  0  0  0  2  0  0  0  0  0  0
  185.9810  178.6280  139.9430 O   0  0  0  0  0  0  0  0  0  0  0  0
  184.9940  179.0520  140.6030 C   0  0  0  0  0  0  0  0  0  0  0  0
  181.1010  178.7010  138.8970 N   0  0  0  0  0  0  0  0  0  0  0  0
  183.5190  178.8280  138.5990 C   0  0  0  0  0  2  0  0  0  0  0  0
  182.5810  178.6280  142.1090 O   0  0  0  0  0  0  0  0  0  0  0  0
  179.8430  179.1650  138.3440 C   0  0  0  0  0  1  0  0  0  0  0  0
  182.1620  179.3600  138.1410 C   0  0  0  0  0  2  0  0  0  0  0  0
  182.4950  178.8950  140.8810 C   0  0  0  0  0  0  0  0  0  0  0  0
  183.6690  178.9680  140.0500 N   0  0  0  0  0  0  0  0  0  0  0  0
  181.1520  179.1740  140.2790 C   0  0  0  0  0  2  0  0  0  0  0  0
  1  9  1  0  0  0  0
  1 14  1  0  0  0  0
  2  5  1  6  0  0  0
  2  3  1  0  0  0  0
  3 19  2  0  0  0  0
  3  7  1  0  0  0  0
  4 15  1  0  0  0  0
  4 11  1  0  0  0  0
  5 14  2  0  0  0  0
  6  1  2  0  0  0  0
  7  4  2  0  0  0  0
  8 13  1  0  0  0  0
 10 19  1  0  0  0  0
 12 16  1  0  0  0  0
 12  8  1  0  0  0  0
 13 18  1  1  0  0  0
 13  2  1  0  0  0  0
 16  5  1  0  0  0  0
 17  6  1  0  0  0  0
 17 16  2  0  0  0  0
 18 10  1  0  0  0  0
 19 20  1  0  0  0  0
 20 15  2  0  0  0  0
 21  8  1  0  0  0  0
 22 23  2  0  0  0  0
 23 21  1  0  0  0  0
 24 31  1  0  0  0  0
 25 30  1  0  0  0  0
 27 24  1  0  0  0  0
 28 25  1  0  0  0  0
 28 24  1  0  0  0  0
 29 26  2  0  0  0  0
 30 23  1  0  0  0  0
 30 29  1  0  0  0  0
 31 29  1  0  0  0  0
M  END
>  <MODEL>
8

>  <REMARK>
 VINA RESULT:      -6.6      3.792      6.324
  Name = 
  2 active torsions:
  status: ('A' for Active; 'I' for Inactive)
    1  A    between atoms: C_5  and  C_16
    2  A    between atoms: N_10  and  C_16
                            x       y       z     vdW  Elec       q    Type
                         _______ _______ _______ _____ _____    ______ ____

>  <TORSDO>
F 2

$$$$
=
 OpenBabel11122411003D

 31 35  0  0  1  0  0  0  0  0999 V2000
  182.5790  173.2490  137.0680 C   0  0  0  0  0  0  0  0  0  0  0  0
  184.6690  176.4110  136.7200 C   0  0  2  0  0  3  0  0  0  0  0  0
  184.4750  177.1930  138.0130 C   0  0  0  0  0  0  0  0  0  0  0  0
  183.2140  177.6670  140.0400 C   0  0  0  0  0  0  0  0  0  0  0  0
  184.2920  174.9560  136.8600 C   0  0  0  0  0  0  0  0  0  0  0  0
  183.5660  172.2720  137.2140 C   0  0  0  0  0  3  0  0  0  0  0  0
  183.3950  176.9240  138.8700 C   0  0  0  0  0  3  0  0  0  0  0  0
  187.0180  175.7280  137.0460 N   0  0  0  0  0  0  0  0  0  0  0  0
  181.2380  172.8910  137.1030 O   0  0  0  0  0  1  0  0  0  0  0  0
  186.3990  178.5840  137.4720 O   0  0  0  0  0  0  0  0  0  0  0  0
  182.1770  177.3870  140.8650 F   0  0  0  0  0  0  0  0  0  0  0  0
  186.7350  174.3070  136.8180 C   0  0  0  0  0  2  0  0  0  0  0  0
  186.1180  176.5300  136.1950 C   0  0  2  0  0  3  0  0  0  0  0  0
  182.9410  174.5870  136.8890 C   0  0  0  0  0  3  0  0  0  0  0  0
  184.1010  178.6970  140.3580 C   0  0  0  0  0  3  0  0  0  0  0  0
  185.2840  173.9690  137.0050 C   0  0  0  0  0  0  0  0  0  0  0  0
  184.9160  172.6290  137.1720 C   0  0  0  0  0  3  0  0  0  0  0  0
  186.5080  178.0150  136.1700 C   0  0  0  0  0  2  0  0  0  0  0  0
  185.3420  178.2600  138.3250 C   0  0  0  0  0  0  0  0  0  0  0  0
  185.1620  178.9940  139.5010 C   0  0  0  0  0  3  0  0  0  0  0  0
  188.4010  175.9210  136.6240 C   0  0  0  0  0  2  0  0  0  0  0  0
  188.7840  176.7980  138.7960 O   0  0  0  0  0  0  0  0  0  0  0  0
  189.2610  176.1520  137.8250 C   0  0  0  0  0  0  0  0  0  0  0  0
  193.3400  174.9200  138.0060 N   0  0  0  0  0  0  0  0  0  0  0  0
  191.5710  176.4350  138.7330 C   0  0  0  0  0  2  0  0  0  0  0  0
  190.2950  173.7420  136.6460 O   0  0  0  0  0  0  0  0  0  0  0  0
  194.7370  174.8780  137.6170 C   0  0  0  0  0  1  0  0  0  0  0  0
  193.0020  176.3260  138.2100 C   0  0  0  0  0  2  0  0  0  0  0  0
  191.1030  174.5890  137.1110 C   0  0  0  0  0  0  0  0  0  0  0  0
  190.6380  175.7390  137.8430 N   0  0  0  0  0  0  0  0  0  0  0  0
  192.5720  174.4170  136.8700 C   0  0  0  0  0  2  0  0  0  0  0  0
  1  9  1  0  0  0  0
  1  6  1  0  0  0  0
  2  5  1  1  0  0  0
  2  3  1  0  0  0  0
  3 19  2  0  0  0  0
  3  7  1  0  0  0  0
  4 15  1  0  0  0  0
  4 11  1  0  0  0  0
  5 14  1  0  0  0  0
  5 16  2  0  0  0  0
  7  4  2  0  0  0  0
 10 19  1  0  0  0  0
 12 16  1  0  0  0  0
 12  8  1  0  0  0  0
 13 18  1  1  0  0  0
 13  2  1  0  0  0  0
 13  8  1  0  0  0  0
 14  1  2  0  0  0  0
 16 17  1  0  0  0  0
 17  6  2  0  0  0  0
 18 10  1  0  0  0  0
 19 20  1  0  0  0  0
 20 15  2  0  0  0  0
 21  8  1  0  0  0  0
 21 23  1  0  0  0  0
 23 30  1  0  0  0  0
 23 22  2  0  0  0  0
 24 28  1  0  0  0  0
 26 29  2  0  0  0  0
 27 24  1  0  0  0  0
 28 25  1  0  0  0  0
 29 30  1  0  0  0  0
 30 25  1  0  0  0  0
 31 29  1  0  0  0  0
 31 24  1  0  0  0  0
M  END
>  <MODEL>
9

>  <REMARK>
 VINA RESULT:      -6.5      3.653      8.370
  Name = 
  2 active torsions:
  status: ('A' for Active; 'I' for Inactive)
    1  A    between atoms: C_5  and  C_16
    2  A    between atoms: N_10  and  C_16
                            x       y       z     vdW  Elec       q    Type
                         _______ _______ _______ _____ _____    ______ ____

>  <TORSDO>
F 2

$$$$
