=
 OpenBabel11122411063D

 31 35  0  0  1  0  0  0  0  0999 V2000
  179.8720  178.2560  142.0660 C   0  0  0  0  0  0  0  0  0  0  0  0
  183.3880  179.2260  140.9820 C   0  0  2  0  0  3  0  0  0  0  0  0
  184.3220  178.8100  142.0970 C   0  0  0  0  0  0  0  0  0  0  0  0
  183.6770  175.2440  137.3670 O   0  0  0  0  0  0  0  0  0  0  0  0
  184.6290  176.0470  137.1770 C   0  0  0  0  0  0  0  0  0  0  0  0
  184.7740  178.4750  144.4620 C   0  0  0  0  0  0  0  0  0  0  0  0
  182.0570  178.5240  141.0470 C   0  0  0  0  0  0  0  0  0  0  0  0
  179.6260  177.1470  141.2520 C   0  0  0  0  0  3  0  0  0  0  0  0
  183.8880  178.8000  143.4310 C   0  0  0  0  0  3  0  0  0  0  0  0
  183.8100  177.7150  138.9360 C   0  0  0  0  0  0  0  0  0  0  0  0
  178.9360  178.6610  142.9590 F   0  0  0  0  0  0  0  0  0  0  0  0
  186.1500  178.5420  140.3970 C   0  0  0  0  0  2  0  0  0  0  0  0
  184.2990  178.4550  145.8690 C   0  0  0  0  0  1  0  0  0  0  0  0
  182.7550  177.0130  139.2310 N   0  0  0  0  0  0  0  0  0  0  0  0
  184.0460  179.0660  139.5890 C   0  0  2  0  0  3  0  0  0  0  0  0
  184.7140  177.2750  137.9150 N   0  0  0  0  0  2  0  0  0  0  0  0
  181.0850  178.9420  141.9660 C   0  0  0  0  0  3  0  0  0  0  0  0
  186.1060  178.1730  144.1690 C   0  0  0  0  0  3  0  0  0  0  0  0
  181.7990  177.4190  140.2160 C   0  0  0  0  0  0  0  0  0  0  0  0
  180.5870  176.7290  140.3280 C   0  0  0  0  0  3  0  0  0  0  0  0
  185.4110  179.4500  139.6040 O   0  0  0  0  0  0  0  0  0  0  0  0
  185.6730  178.5420  141.8160 C   0  0  0  0  0  0  0  0  0  0  0  0
  186.5560  178.2050  142.8460 C   0  0  0  0  0  3  0  0  0  0  0  0
  188.0960  177.3850  136.4710 C   0  0  1  0  0  3  0  0  0  0  0  0
  186.9650  175.1820  136.8730 C   0  0  0  0  0  2  0  0  0  0  0  0
  184.8580  177.3250  134.6090 O   0  0  0  0  0  1  0  0  0  0  0  0
  188.8620  178.5110  137.1330 C   0  0  0  0  0  1  0  0  0  0  0  0
  187.7520  176.3260  137.5130 C   0  0  0  0  0  2  0  0  0  0  0  0
  186.0220  176.8150  135.1860 C   0  0  2  0  0  3  0  0  0  0  0  0
  185.6950  175.6890  136.1820 C   0  0  2  0  0  3  0  0  0  0  0  0
  186.8240  177.9410  135.8390 C   0  0  0  0  0  2  0  0  0  0  0  0
  1 11  1  0  0  0  0
  2  7  1  6  0  0  0
  2  3  1  0  0  0  0
  3  9  1  0  0  0  0
  5  4  2  0  0  0  0
  5 16  1  0  0  0  0
  6 13  1  0  0  0  0
  7 17  2  0  0  0  0
  8  1  2  0  0  0  0
  9  6  2  0  0  0  0
 10 14  2  0  0  0  0
 12 22  1  0  0  0  0
 14 19  1  0  0  0  0
 15 10  1  1  0  0  0
 15 21  1  0  0  0  0
 15  2  1  0  0  0  0
 16 10  1  0  0  0  0
 17  1  1  0  0  0  0
 18  6  1  0  0  0  0
 19 20  2  0  0  0  0
 19  7  1  0  0  0  0
 20  8  1  0  0  0  0
 21 12  1  0  0  0  0
 22  3  2  0  0  0  0
 22 23  1  0  0  0  0
 23 18  2  0  0  0  0
 24 27  1  1  0  0  0
 24 28  1  0  0  0  0
 25 28  1  0  0  0  0
 29 26  1  1  0  0  0
 29 31  1  0  0  0  0
 29 30  1  0  0  0  0
 30 25  1  0  0  0  0
 30  5  1  1  0  0  0
 31 24  1  0  0  0  0
M  END
>  <MODEL>
1

>  <REMARK>
 VINA RESULT:      -8.6      0.000      0.000
  Name = 
  1 active torsions:
  status: ('A' for Active; 'I' for Inactive)
    1  A    between atoms: C_5  and  C_30
                            x       y       z     vdW  Elec       q    Type
                         _______ _______ _______ _____ _____    ______ ____

>  <TORSDO>
F 1

$$$$
=
 OpenBabel11122411063D

 31 35  0  0  1  0  0  0  0  0999 V2000
  192.1220  174.8960  135.7620 C   0  0  0  0  0  0  0  0  0  0  0  0
  189.4580  177.3300  136.9710 C   0  0  2  0  0  3  0  0  0  0  0  0
  188.1250  176.6270  136.8310 C   0  0  0  0  0  0  0  0  0  0  0  0
  190.8270  176.6990  142.1410 O   0  0  0  0  0  0  0  0  0  0  0  0
  190.0570  177.6910  142.0340 C   0  0  0  0  0  0  0  0  0  0  0  0
  186.6650  175.0770  135.6590 C   0  0  0  0  0  0  0  0  0  0  0  0
  190.6220  176.3740  136.9670 C   0  0  0  0  0  0  0  0  0  0  0  0
  192.7090  174.5050  136.9680 C   0  0  0  0  0  3  0  0  0  0  0  0
  187.9180  175.6760  135.8210 C   0  0  0  0  0  3  0  0  0  0  0  0
  189.9980  177.5960  139.4780 C   0  0  0  0  0  0  0  0  0  0  0  0
  192.5580  174.3670  134.5940 F   0  0  0  0  0  0  0  0  0  0  0  0
  187.2500  178.0180  138.7290 C   0  0  0  0  0  2  0  0  0  0  0  0
  186.4610  174.0620  134.5940 C   0  0  0  0  0  1  0  0  0  0  0  0
  190.8130  176.5830  139.4140 N   0  0  0  0  0  0  0  0  0  0  0  0
  189.4920  178.2600  138.2090 C   0  0  2  0  0  3  0  0  0  0  0  0
  189.6470  178.1680  140.7440 N   0  0  0  0  0  2  0  0  0  0  0  0
  191.0790  175.8270  135.7610 C   0  0  0  0  0  3  0  0  0  0  0  0
  185.6050  175.4360  136.4950 C   0  0  0  0  0  3  0  0  0  0  0  0
  191.2260  175.9910  138.1780 C   0  0  0  0  0  0  0  0  0  0  0  0
  192.2630  175.0520  138.1740 C   0  0  0  0  0  3  0  0  0  0  0  0
  188.2630  178.9440  138.3880 O   0  0  0  0  0  0  0  0  0  0  0  0
  187.0430  177.0100  137.6430 C   0  0  0  0  0  0  0  0  0  0  0  0
  185.7940  176.4010  137.4880 C   0  0  0  0  0  3  0  0  0  0  0  0
  190.8090  177.2600  145.7160 C   0  0  1  0  0  3  0  0  0  0  0  0
  190.6660  179.1020  144.0180 C   0  0  0  0  0  2  0  0  0  0  0  0
  187.8260  176.6800  143.5440 O   0  0  0  0  0  1  0  0  0  0  0  0
  191.7540  176.3050  146.4150 C   0  0  0  0  0  1  0  0  0  0  0  0
  191.6000  178.1360  144.7480 C   0  0  0  0  0  2  0  0  0  0  0  0
  188.7970  177.4100  144.2310 C   0  0  2  0  0  3  0  0  0  0  0  0
  189.5490  178.3570  143.2800 C   0  0  2  0  0  3  0  0  0  0  0  0
  189.7470  176.4640  144.9660 C   0  0  0  0  0  2  0  0  0  0  0  0
  1  8  1  0  0  0  0
  2  3  1  1  0  0  0
  2 15  1  0  0  0  0
  3 22  1  0  0  0  0
  5  4  2  0  0  0  0
  6  9  1  0  0  0  0
  6 18  2  0  0  0  0
  7  2  1  0  0  0  0
  7 19  2  0  0  0  0
  8 20  2  0  0  0  0
  9  3  2  0  0  0  0
 10 16  1  0  0  0  0
 11  1  1  0  0  0  0
 13  6  1  0  0  0  0
 14 10  2  0  0  0  0
 15 21  1  1  0  0  0
 15 10  1  0  0  0  0
 16  5  1  0  0  0  0
 17  1  2  0  0  0  0
 17  7  1  0  0  0  0
 18 23  1  0  0  0  0
 19 14  1  0  0  0  0
 20 19  1  0  0  0  0
 21 12  1  0  0  0  0
 22 12  1  0  0  0  0
 23 22  2  0  0  0  0
 24 27  1  6  0  0  0
 25 28  1  0  0  0  0
 28 24  1  0  0  0  0
 29 26  1  6  0  0  0
 29 31  1  0  0  0  0
 30  5  1  6  0  0  0
 30 25  1  0  0  0  0
 30 29  1  0  0  0  0
 31 24  1  0  0  0  0
M  END
>  <MODEL>
2

>  <REMARK>
 VINA RESULT:      -8.2      5.268      9.347
  Name = 
  1 active torsions:
  status: ('A' for Active; 'I' for Inactive)
    1  A    between atoms: C_5  and  C_30
                            x       y       z     vdW  Elec       q    Type
                         _______ _______ _______ _____ _____    ______ ____

>  <TORSDO>
F 1

$$$$
=
 OpenBabel11122411063D

 31 35  0  0  1  0  0  0  0  0999 V2000
  179.9120  178.2780  142.1610 C   0  0  0  0  0  0  0  0  0  0  0  0
  183.3600  179.2860  140.9060 C   0  0  2  0  0  3  0  0  0  0  0  0
  184.3550  178.8570  141.9630 C   0  0  0  0  0  0  0  0  0  0  0  0
  183.4740  175.3660  137.2150 O   0  0  0  0  0  0  0  0  0  0  0  0
  184.4110  176.1780  136.9880 C   0  0  0  0  0  0  0  0  0  0  0  0
  184.9350  178.4860  144.2940 C   0  0  0  0  0  0  0  0  0  0  0  0
  182.0380  178.5760  141.0310 C   0  0  0  0  0  0  0  0  0  0  0  0
  179.6290  177.1810  141.3430 C   0  0  0  0  0  3  0  0  0  0  0  0
  183.9930  178.8230  143.3180 C   0  0  0  0  0  3  0  0  0  0  0  0
  183.6800  177.8120  138.8160 C   0  0  0  0  0  0  0  0  0  0  0  0
  179.0240  178.6630  143.1090 F   0  0  0  0  0  0  0  0  0  0  0  0
  186.0900  178.6280  140.1630 C   0  0  0  0  0  2  0  0  0  0  0  0
  184.5360  178.4400  145.7250 C   0  0  0  0  0  1  0  0  0  0  0  0
  182.6450  177.0990  139.1550 N   0  0  0  0  0  0  0  0  0  0  0  0
  183.9440  179.1530  139.4780 C   0  0  2  0  0  3  0  0  0  0  0  0
  184.5300  177.3930  137.7400 N   0  0  0  0  0  2  0  0  0  0  0  0
  181.1150  178.9730  142.0080 C   0  0  0  0  0  3  0  0  0  0  0  0
  186.2510  178.1970  143.9250 C   0  0  0  0  0  3  0  0  0  0  0  0
  181.7420  177.4830  140.1970 C   0  0  0  0  0  0  0  0  0  0  0  0
  180.5410  176.7840  140.3620 C   0  0  0  0  0  3  0  0  0  0  0  0
  185.3050  179.5450  139.4260 O   0  0  0  0  0  0  0  0  0  0  0  0
  185.6900  178.6020  141.6050 C   0  0  0  0  0  0  0  0  0  0  0  0
  186.6280  178.2530  142.5810 C   0  0  0  0  0  3  0  0  0  0  0  0
  185.6350  172.9310  135.4810 C   0  0  1  0  0  3  0  0  0  0  0  0
  184.7740  175.1630  134.7220 C   0  0  0  0  0  2  0  0  0  0  0  0
  187.1650  175.6050  137.5940 O   0  0  0  0  0  1  0  0  0  0  0  0
  185.2390  171.5020  135.7870 C   0  0  0  0  0  1  0  0  0  0  0  0
  184.4050  173.7100  135.0240 C   0  0  0  0  0  2  0  0  0  0  0  0
  186.6180  175.0220  136.4500 C   0  0  2  0  0  3  0  0  0  0  0  0
  185.4240  175.8420  135.9320 C   0  0  2  0  0  3  0  0  0  0  0  0
  186.2350  173.5690  136.7290 C   0  0  0  0  0  2  0  0  0  0  0  0
  1 11  1  0  0  0  0
  2  7  1  6  0  0  0
  2  3  1  0  0  0  0
  3  9  1  0  0  0  0
  5  4  2  0  0  0  0
  5 16  1  0  0  0  0
  6 13  1  0  0  0  0
  7 17  2  0  0  0  0
  8  1  2  0  0  0  0
  9  6  2  0  0  0  0
 10 14  2  0  0  0  0
 12 22  1  0  0  0  0
 14 19  1  0  0  0  0
 15 10  1  1  0  0  0
 15  2  1  0  0  0  0
 16 10  1  0  0  0  0
 17  1  1  0  0  0  0
 18  6  1  0  0  0  0
 19 20  2  0  0  0  0
 19  7  1  0  0  0  0
 20  8  1  0  0  0  0
 21 15  1  0  0  0  0
 21 12  1  0  0  0  0
 22  3  2  0  0  0  0
 22 23  1  0  0  0  0
 23 18  2  0  0  0  0
 24 27  1  1  0  0  0
 24 31  1  0  0  0  0
 25 28  1  0  0  0  0
 25 30  1  0  0  0  0
 28 24  1  0  0  0  0
 29 31  1  0  0  0  0
 29 26  1  1  0  0  0
 30 29  1  0  0  0  0
 30  5  1  1  0  0  0
M  END
>  <MODEL>
3

>  <REMARK>
 VINA RESULT:      -7.7      1.306      2.330
  Name = 
  1 active torsions:
  status: ('A' for Active; 'I' for Inactive)
    1  A    between atoms: C_5  and  C_30
                            x       y       z     vdW  Elec       q    Type
                         _______ _______ _______ _____ _____    ______ ____

>  <TORSDO>
F 1

$$$$
=
 OpenBabel11122411063D

 31 35  0  0  1  0  0  0  0  0999 V2000
  192.0600  177.3420  140.9080 C   0  0  0  0  0  0  0  0  0  0  0  0
  189.3670  177.8340  138.2650 C   0  0  2  0  0  3  0  0  0  0  0  0
  189.1460  176.4890  137.6080 C   0  0  0  0  0  0  0  0  0  0  0  0
  185.4460  178.2530  141.9330 O   0  0  0  0  0  0  0  0  0  0  0  0
  185.0050  178.6180  140.8100 C   0  0  0  0  0  0  0  0  0  0  0  0
  189.9990  174.3490  136.8330 C   0  0  0  0  0  0  0  0  0  0  0  0
  190.0520  177.7210  139.6020 C   0  0  0  0  0  0  0  0  0  0  0  0
  191.3080  177.3940  142.0850 C   0  0  0  0  0  3  0  0  0  0  0  0
  190.1940  175.5640  137.4970 C   0  0  0  0  0  3  0  0  0  0  0  0
  187.2810  178.4330  139.6550 C   0  0  0  0  0  0  0  0  0  0  0  0
  193.3970  177.1270  140.9680 F   0  0  0  0  0  0  0  0  0  0  0  0
  186.7830  177.1770  137.1130 C   0  0  0  0  0  2  0  0  0  0  0  0
  191.1130  173.3710  136.7330 C   0  0  0  0  0  1  0  0  0  0  0  0
  187.8970  178.0720  140.7440 N   0  0  0  0  0  0  0  0  0  0  0  0
  188.0540  178.6490  138.3660 C   0  0  2  0  0  3  0  0  0  0  0  0
  185.8800  178.7360  139.6790 N   0  0  0  0  0  2  0  0  0  0  0  0
  191.4340  177.5030  139.6690 C   0  0  0  0  0  3  0  0  0  0  0  0
  188.7580  174.0570  136.2610 C   0  0  0  0  0  3  0  0  0  0  0  0
  189.2990  177.7910  140.7890 C   0  0  0  0  0  0  0  0  0  0  0  0
  189.9300  177.6190  142.0260 C   0  0  0  0  0  3  0  0  0  0  0  0
  187.2550  178.5070  137.2040 O   0  0  0  0  0  0  0  0  0  0  0  0
  187.9130  176.2020  136.9970 C   0  0  0  0  0  0  0  0  0  0  0  0
  187.7150  174.9820  136.3440 C   0  0  0  0  0  3  0  0  0  0  0  0
  182.3000  177.2820  138.5290 C   0  0  1  0  0  3  0  0  0  0  0  0
  182.6870  177.6720  140.9780 C   0  0  0  0  0  2  0  0  0  0  0  0
  183.9790  180.5880  138.9820 O   0  0  0  0  0  1  0  0  0  0  0  0
  182.3760  176.2520  137.4230 C   0  0  0  0  0  1  0  0  0  0  0  0
  182.7410  176.6470  139.8430 C   0  0  0  0  0  2  0  0  0  0  0  0
  183.1550  179.5070  139.3000 C   0  0  2  0  0  3  0  0  0  0  0  0
  183.5390  178.9060  140.6630 C   0  0  2  0  0  3  0  0  0  0  0  0
  183.1980  178.4650  138.1830 C   0  0  0  0  0  2  0  0  0  0  0  0
  1 11  1  0  0  0  0
  1  8  1  0  0  0  0
  2  3  1  1  0  0  0
  2 15  1  0  0  0  0
  2  7  1  0  0  0  0
  5  4  2  0  0  0  0
  6  9  2  0  0  0  0
  7 17  1  0  0  0  0
  7 19  2  0  0  0  0
  9  3  1  0  0  0  0
 10 16  1  0  0  0  0
 10 14  2  0  0  0  0
 12 21  1  0  0  0  0
 13  6  1  0  0  0  0
 14 19  1  0  0  0  0
 15 21  1  6  0  0  0
 15 10  1  0  0  0  0
 16  5  1  0  0  0  0
 17  1  2  0  0  0  0
 18 23  2  0  0  0  0
 18  6  1  0  0  0  0
 19 20  1  0  0  0  0
 20  8  2  0  0  0  0
 22 12  1  0  0  0  0
 22  3  2  0  0  0  0
 23 22  1  0  0  0  0
 24 27  1  6  0  0  0
 24 28  1  0  0  0  0
 28 25  1  0  0  0  0
 29 26  1  6  0  0  0
 29 30  1  0  0  0  0
 30  5  1  6  0  0  0
 30 25  1  0  0  0  0
 31 24  1  0  0  0  0
 31 29  1  0  0  0  0
M  END
>  <MODEL>
4

>  <REMARK>
 VINA RESULT:      -7.7      3.696      7.749
  Name = 
  1 active torsions:
  status: ('A' for Active; 'I' for Inactive)
    1  A    between atoms: C_5  and  C_30
                            x       y       z     vdW  Elec       q    Type
                         _______ _______ _______ _____ _____    ______ ____

>  <TORSDO>
F 1

$$$$
=
 OpenBabel11122411063D

 31 35  0  0  1  0  0  0  0  0999 V2000
  182.6240  178.8960  143.8710 C   0  0  0  0  0  0  0  0  0  0  0  0
  182.0580  178.0770  140.1980 C   0  0  2  0  0  3  0  0  0  0  0  0
  181.3680  179.2750  139.5820 C   0  0  0  0  0  0  0  0  0  0  0  0
  187.2650  178.6870  138.9670 O   0  0  0  0  0  0  0  0  0  0  0  0
  186.6720  178.1360  138.0020 C   0  0  0  0  0  0  0  0  0  0  0  0
  179.8290  181.1480  139.7550 C   0  0  0  0  0  0  0  0  0  0  0  0
  182.7440  178.4070  141.4980 C   0  0  0  0  0  0  0  0  0  0  0  0
  184.0010  179.1370  143.8930 C   0  0  0  0  0  3  0  0  0  0  0  0
  180.5120  180.0810  140.3470 C   0  0  0  0  0  3  0  0  0  0  0  0
  184.4520  177.9210  139.2550 C   0  0  0  0  0  0  0  0  0  0  0  0
  181.8970  179.0230  145.0070 F   0  0  0  0  0  0  0  0  0  0  0  0
  182.4030  178.6720  137.3760 C   0  0  0  0  0  2  0  0  0  0  0  0
  178.9350  182.0040  140.5780 C   0  0  0  0  0  1  0  0  0  0  0  0
  184.9220  178.4490  140.3470 N   0  0  0  0  0  0  0  0  0  0  0  0
  183.0280  177.3950  139.2020 C   0  0  2  0  0  3  0  0  0  0  0  0
  185.3010  177.7310  138.1150 N   0  0  0  0  0  2  0  0  0  0  0  0
  181.9960  178.5350  142.6760 C   0  0  0  0  0  3  0  0  0  0  0  0
  179.9840  181.4070  138.3920 C   0  0  0  0  0  3  0  0  0  0  0  0
  184.1320  178.6320  141.5270 C   0  0  0  0  0  0  0  0  0  0  0  0
  184.7540  179.0040  142.7230 C   0  0  0  0  0  3  0  0  0  0  0  0
  182.4940  177.3570  137.8890 O   0  0  0  0  0  0  0  0  0  0  0  0
  181.4880  179.5200  138.2030 C   0  0  0  0  0  0  0  0  0  0  0  0
  180.8150  180.5950  137.6160 C   0  0  0  0  0  3  0  0  0  0  0  0
  189.7160  176.1080  137.0380 C   0  0  1  0  0  3  0  0  0  0  0  0
  187.3590  176.4690  136.2560 C   0  0  0  0  0  2  0  0  0  0  0  0
  188.9210  179.7530  137.2230 O   0  0  0  0  0  1  0  0  0  0  0  0
  190.6070  175.2220  137.8830 C   0  0  0  0  0  1  0  0  0  0  0  0
  188.2850  175.5830  137.0910 C   0  0  0  0  0  2  0  0  0  0  0  0
  188.8650  178.4440  136.7400 C   0  0  2  0  0  3  0  0  0  0  0  0
  187.4150  177.9300  136.7130 C   0  0  2  0  0  3  0  0  0  0  0  0
  189.7780  177.5380  137.5640 C   0  0  0  0  0  2  0  0  0  0  0  0
  1  8  1  0  0  0  0
  1 11  1  0  0  0  0
  2  3  1  6  0  0  0
  2  7  1  0  0  0  0
  3  9  1  0  0  0  0
  5 16  1  0  0  0  0
  5  4  2  0  0  0  0
  6  9  2  0  0  0  0
  6 13  1  0  0  0  0
  7 19  2  0  0  0  0
  7 17  1  0  0  0  0
 10 14  2  0  0  0  0
 12 21  1  0  0  0  0
 12 22  1  0  0  0  0
 14 19  1  0  0  0  0
 15 21  1  6  0  0  0
 15 10  1  0  0  0  0
 15  2  1  0  0  0  0
 16 10  1  0  0  0  0
 17  1  2  0  0  0  0
 18  6  1  0  0  0  0
 19 20  1  0  0  0  0
 20  8  2  0  0  0  0
 22  3  2  0  0  0  0
 23 22  1  0  0  0  0
 23 18  2  0  0  0  0
 24 28  1  0  0  0  0
 24 31  1  0  0  0  0
 24 27  1  1  0  0  0
 25 30  1  0  0  0  0
 25 28  1  0  0  0  0
 29 26  1  1  0  0  0
 29 31  1  0  0  0  0
 30 29  1  0  0  0  0
 30  5  1  1  0  0  0
M  END
>  <MODEL>
5

>  <REMARK>
 VINA RESULT:      -7.6      2.310      4.437
  Name = 
  1 active torsions:
  status: ('A' for Active; 'I' for Inactive)
    1  A    between atoms: C_5  and  C_30
                            x       y       z     vdW  Elec       q    Type
                         _______ _______ _______ _____ _____    ______ ____

>  <TORSDO>
F 1

$$$$
=
 OpenBabel11122411063D

 31 35  0  0  1  0  0  0  0  0999 V2000
  182.0420  178.9990  142.6540 C   0  0  0  0  0  0  0  0  0  0  0  0
  185.6640  179.1150  141.4940 C   0  0  2  0  0  3  0  0  0  0  0  0
  186.4580  178.2470  142.4460 C   0  0  0  0  0  0  0  0  0  0  0  0
  184.6940  175.9740  137.2290 O   0  0  0  0  0  0  0  0  0  0  0  0
  185.8360  176.4930  137.1110 C   0  0  0  0  0  0  0  0  0  0  0  0
  186.8420  177.3570  144.6750 C   0  0  0  0  0  0  0  0  0  0  0  0
  184.1870  178.8220  141.5360 C   0  0  0  0  0  0  0  0  0  0  0  0
  181.4640  178.1810  141.6800 C   0  0  0  0  0  3  0  0  0  0  0  0
  186.0680  178.1100  143.7860 C   0  0  0  0  0  3  0  0  0  0  0  0
  185.5810  177.9610  139.1900 C   0  0  0  0  0  0  0  0  0  0  0  0
  181.2860  179.4780  143.6720 F   0  0  0  0  0  0  0  0  0  0  0  0
  188.0900  177.7960  140.5930 C   0  0  0  0  0  2  0  0  0  0  0  0
  186.4120  177.2070  146.0890 C   0  0  0  0  0  1  0  0  0  0  0  0
  184.3720  177.5460  139.4360 N   0  0  0  0  0  0  0  0  0  0  0  0
  186.2170  179.0400  140.0490 C   0  0  2  0  0  3  0  0  0  0  0  0
  186.2940  177.4830  138.0420 N   0  0  0  0  0  2  0  0  0  0  0  0
  183.4010  179.3180  142.5840 C   0  0  0  0  0  3  0  0  0  0  0  0
  188.0200  176.7490  144.2350 C   0  0  0  0  0  3  0  0  0  0  0  0
  183.5990  178.0130  140.5470 C   0  0  0  0  0  0  0  0  0  0  0  0
  182.2410  177.6890  140.6270 C   0  0  0  0  0  3  0  0  0  0  0  0
  187.6350  179.0100  140.0280 O   0  0  0  0  0  0  0  0  0  0  0  0
  187.6650  177.6640  142.0220 C   0  0  0  0  0  0  0  0  0  0  0  0
  188.4310  176.9010  142.9080 C   0  0  0  0  0  3  0  0  0  0  0  0
  189.5870  176.4230  136.6290 C   0  0  1  0  0  3  0  0  0  0  0  0
  187.6240  174.8740  136.4190 C   0  0  0  0  0  2  0  0  0  0  0  0
  186.7540  178.2630  135.0360 O   0  0  0  0  0  1  0  0  0  0  0  0
  190.6990  176.8780  137.5500 C   0  0  0  0  0  1  0  0  0  0  0  0
  188.7650  175.3420  137.3240 C   0  0  0  0  0  2  0  0  0  0  0  0
  187.5610  177.1720  135.3610 C   0  0  2  0  0  3  0  0  0  0  0  0
  186.7290  176.0410  135.9910 C   0  0  2  0  0  3  0  0  0  0  0  0
  188.7060  177.6140  136.2710 C   0  0  0  0  0  2  0  0  0  0  0  0
  1 11  1  0  0  0  0
  2  7  1  6  0  0  0
  2  3  1  0  0  0  0
  3  9  1  0  0  0  0
  5  4  2  0  0  0  0
  5 16  1  0  0  0  0
  6 13  1  0  0  0  0
  7 17  2  0  0  0  0
  8  1  2  0  0  0  0
  9  6  2  0  0  0  0
 10 14  2  0  0  0  0
 12 22  1  0  0  0  0
 14 19  1  0  0  0  0
 15 10  1  1  0  0  0
 15  2  1  0  0  0  0
 16 10  1  0  0  0  0
 17  1  1  0  0  0  0
 18  6  1  0  0  0  0
 19 20  2  0  0  0  0
 19  7  1  0  0  0  0
 20  8  1  0  0  0  0
 21 15  1  0  0  0  0
 21 12  1  0  0  0  0
 22  3  2  0  0  0  0
 22 23  1  0  0  0  0
 23 18  2  0  0  0  0
 24 28  1  0  0  0  0
 24 27  1  1  0  0  0
 25 28  1  0  0  0  0
 29 26  1  1  0  0  0
 29 30  1  0  0  0  0
 29 31  1  0  0  0  0
 30 25  1  0  0  0  0
 30  5  1  1  0  0  0
 31 24  1  0  0  0  0
M  END
>  <MODEL>
6

>  <REMARK>
 VINA RESULT:      -7.2      1.533      2.042
  Name = 
  1 active torsions:
  status: ('A' for Active; 'I' for Inactive)
    1  A    between atoms: C_5  and  C_30
                            x       y       z     vdW  Elec       q    Type
                         _______ _______ _______ _____ _____    ______ ____

>  <TORSDO>
F 1

$$$$
=
 OpenBabel11122411063D

 31 35  0  0  1  0  0  0  0  0999 V2000
  190.9210  176.5720  142.6550 C   0  0  0  0  0  0  0  0  0  0  0  0
  189.9010  178.0760  139.3120 C   0  0  2  0  0  3  0  0  0  0  0  0
  190.1060  177.0020  138.2660 C   0  0  0  0  0  0  0  0  0  0  0  0
  184.6530  177.8780  140.5030 O   0  0  0  0  0  0  0  0  0  0  0  0
  184.8190  178.5890  139.4770 C   0  0  0  0  0  0  0  0  0  0  0  0
  191.3350  175.0850  137.4170 C   0  0  0  0  0  0  0  0  0  0  0  0
  189.8250  177.5200  140.7090 C   0  0  0  0  0  0  0  0  0  0  0  0
  189.6780  176.3740  143.2620 C   0  0  0  0  0  3  0  0  0  0  0  0
  191.1110  176.0360  138.4170 C   0  0  0  0  0  3  0  0  0  0  0  0
  187.3730  178.4870  139.5990 C   0  0  0  0  0  0  0  0  0  0  0  0
  192.0550  176.2040  143.2990 F   0  0  0  0  0  0  0  0  0  0  0  0
  188.2810  178.0560  136.9010 C   0  0  0  0  0  2  0  0  0  0  0  0
  192.3940  174.0580  137.5940 C   0  0  0  0  0  1  0  0  0  0  0  0
  187.3750  177.7700  140.6850 N   0  0  0  0  0  0  0  0  0  0  0  0
  188.6770  178.9690  138.9900 C   0  0  2  0  0  3  0  0  0  0  0  0
  186.1370  178.9220  139.0180 N   0  0  0  0  0  2  0  0  0  0  0  0
  190.9960  177.1410  141.3810 C   0  0  0  0  0  3  0  0  0  0  0  0
  190.5660  175.1020  136.2510 C   0  0  0  0  0  3  0  0  0  0  0  0
  188.5770  177.3360  141.3300 C   0  0  0  0  0  0  0  0  0  0  0  0
  188.5080  176.7560  142.6010 C   0  0  0  0  0  3  0  0  0  0  0  0
  188.5790  179.2470  137.6020 O   0  0  0  0  0  0  0  0  0  0  0  0
  189.3620  177.0350  137.0730 C   0  0  0  0  0  0  0  0  0  0  0  0
  189.5780  176.0760  136.0800 C   0  0  0  0  0  3  0  0  0  0  0  0
  181.1810  177.5540  139.4410 C   0  0  1  0  0  3  0  0  0  0  0  0
  182.5500  179.6460  139.6560 C   0  0  0  0  0  2  0  0  0  0  0  0
  183.9880  177.4270  136.9800 O   0  0  0  0  0  1  0  0  0  0  0  0
  180.4660  176.4690  140.2180 C   0  0  0  0  0  1  0  0  0  0  0  0
  181.8090  178.5450  140.4160 C   0  0  0  0  0  2  0  0  0  0  0  0
  183.0050  178.0050  137.7850 C   0  0  2  0  0  3  0  0  0  0  0  0
  183.6130  179.0650  138.7190 C   0  0  2  0  0  3  0  0  0  0  0  0
  182.2540  176.9240  138.5600 C   0  0  0  0  0  2  0  0  0  0  0  0
  1  8  1  0  0  0  0
  1 11  1  0  0  0  0
  2  3  1  6  0  0  0
  2  7  1  0  0  0  0
  3  9  1  0  0  0  0
  5  4  2  0  0  0  0
  6 13  1  0  0  0  0
  6  9  2  0  0  0  0
  7 19  2  0  0  0  0
  7 17  1  0  0  0  0
 10 14  2  0  0  0  0
 12 22  1  0  0  0  0
 12 21  1  0  0  0  0
 14 19  1  0  0  0  0
 15 21  1  6  0  0  0
 15  2  1  0  0  0  0
 15 10  1  0  0  0  0
 16  5  1  0  0  0  0
 16 10  1  0  0  0  0
 17  1  2  0  0  0  0
 18  6  1  0  0  0  0
 19 20  1  0  0  0  0
 20  8  2  0  0  0  0
 22  3  2  0  0  0  0
 23 18  2  0  0  0  0
 23 22  1  0  0  0  0
 24 27  1  1  0  0  0
 24 28  1  0  0  0  0
 25 28  1  0  0  0  0
 29 26  1  1  0  0  0
 29 31  1  0  0  0  0
 29 30  1  0  0  0  0
 30  5  1  1  0  0  0
 30 25  1  0  0  0  0
 31 24  1  0  0  0  0
M  END
>  <MODEL>
7

>  <REMARK>
 VINA RESULT:      -7.1      3.624      7.526
  Name = 
  1 active torsions:
  status: ('A' for Active; 'I' for Inactive)
    1  A    between atoms: C_5  and  C_30
                            x       y       z     vdW  Elec       q    Type
                         _______ _______ _______ _____ _____    ______ ____

>  <TORSDO>
F 1

$$$$
=
 OpenBabel11122411063D

 31 35  0  0  1  0  0  0  0  0999 V2000
  190.2240  177.1570  137.9330 C   0  0  0  0  0  0  0  0  0  0  0  0
  186.6600  176.7380  136.6690 C   0  0  2  0  0  3  0  0  0  0  0  0
  186.2830  175.2890  136.8900 C   0  0  0  0  0  0  0  0  0  0  0  0
  184.5600  179.3780  140.8670 O   0  0  0  0  0  0  0  0  0  0  0  0
  183.6750  179.2360  139.9810 C   0  0  0  0  0  0  0  0  0  0  0  0
  186.8900  172.9370  136.9850 C   0  0  0  0  0  0  0  0  0  0  0  0
  187.8360  177.1660  137.5060 C   0  0  0  0  0  0  0  0  0  0  0  0
  190.0160  177.8590  139.1230 C   0  0  0  0  0  3  0  0  0  0  0  0
  187.2550  174.2800  136.8420 C   0  0  0  0  0  3  0  0  0  0  0  0
  185.2870  178.2090  138.2800 C   0  0  0  0  0  0  0  0  0  0  0  0
  191.4800  176.8060  137.5640 F   0  0  0  0  0  0  0  0  0  0  0  0
  183.8830  175.9970  137.0870 C   0  0  0  0  0  2  0  0  0  0  0  0
  187.9300  171.8780  136.9460 C   0  0  0  0  0  1  0  0  0  0  0  0
  186.3170  178.3140  139.0690 N   0  0  0  0  0  0  0  0  0  0  0  0
  185.4490  177.6850  136.8640 C   0  0  2  0  0  3  0  0  0  0  0  0
  184.0010  178.6850  138.6970 N   0  0  0  0  0  2  0  0  0  0  0  0
  189.1370  176.8090  137.1270 C   0  0  0  0  0  3  0  0  0  0  0  0
  185.5480  172.5930  137.1600 C   0  0  0  0  0  3  0  0  0  0  0  0
  187.6320  177.8890  138.6950 C   0  0  0  0  0  0  0  0  0  0  0  0
  188.7220  178.2260  139.5030 C   0  0  0  0  0  3  0  0  0  0  0  0
  184.2570  177.1330  136.3320 O   0  0  0  0  0  0  0  0  0  0  0  0
  184.9310  174.9310  137.0280 C   0  0  0  0  0  0  0  0  0  0  0  0
  184.5680  173.5900  137.1830 C   0  0  0  0  0  3  0  0  0  0  0  0
  180.2990  177.8710  138.9600 C   0  0  1  0  0  3  0  0  0  0  0  0
  181.5220  178.5180  141.0530 C   0  0  0  0  0  2  0  0  0  0  0  0
  182.1580  181.0510  138.3440 O   0  0  0  0  0  1  0  0  0  0  0  0
  179.9480  176.7110  138.0520 C   0  0  0  0  0  1  0  0  0  0  0  0
  181.1410  177.3630  140.1250 C   0  0  0  0  0  2  0  0  0  0  0  0
  181.4530  180.0910  139.0710 C   0  0  2  0  0  3  0  0  0  0  0  0
  182.2600  179.6280  140.2960 C   0  0  2  0  0  3  0  0  0  0  0  0
  181.0670  178.9220  138.1660 C   0  0  0  0  0  2  0  0  0  0  0  0
  1  8  1  0  0  0  0
  2 15  1  0  0  0  0
  2  3  1  1  0  0  0
  2  7  1  0  0  0  0
  3 22  1  0  0  0  0
  5  4  2  0  0  0  0
  6 18  2  0  0  0  0
  7 19  2  0  0  0  0
  8 20  2  0  0  0  0
  9  3  2  0  0  0  0
  9  6  1  0  0  0  0
 10 16  1  0  0  0  0
 10 14  2  0  0  0  0
 11  1  1  0  0  0  0
 13  6  1  0  0  0  0
 15 21  1  1  0  0  0
 15 10  1  0  0  0  0
 16  5  1  0  0  0  0
 17  7  1  0  0  0  0
 17  1  2  0  0  0  0
 18 23  1  0  0  0  0
 19 14  1  0  0  0  0
 19 20  1  0  0  0  0
 21 12  1  0  0  0  0
 22 12  1  0  0  0  0
 22 23  2  0  0  0  0
 24 27  1  6  0  0  0
 24 28  1  0  0  0  0
 28 25  1  0  0  0  0
 29 26  1  6  0  0  0
 29 30  1  0  0  0  0
 30  5  1  6  0  0  0
 30 25  1  0  0  0  0
 31 24  1  0  0  0  0
 31 29  1  0  0  0  0
M  END
>  <MODEL>
8

>  <REMARK>
 VINA RESULT:      -6.8      3.394      7.571
  Name = 
  1 active torsions:
  status: ('A' for Active; 'I' for Inactive)
    1  A    between atoms: C_5  and  C_30
                            x       y       z     vdW  Elec       q    Type
                         _______ _______ _______ _____ _____    ______ ____

>  <TORSDO>
F 1

$$$$
=
 OpenBabel11122411063D

 31 35  0  0  1  0  0  0  0  0999 V2000
  181.5930  177.5490  139.9360 C   0  0  0  0  0  0  0  0  0  0  0  0
  185.1530  178.7090  139.2550 C   0  0  2  0  0  3  0  0  0  0  0  0
  185.9550  178.4240  140.5060 C   0  0  0  0  0  0  0  0  0  0  0  0
  186.1760  174.5630  135.9730 O   0  0  0  0  0  0  0  0  0  0  0  0
  187.0910  175.4210  135.8560 C   0  0  0  0  0  0  0  0  0  0  0  0
  186.1080  178.2550  142.9260 C   0  0  0  0  0  0  0  0  0  0  0  0
  183.8720  177.9180  139.1930 C   0  0  0  0  0  0  0  0  0  0  0  0
  181.5300  176.3810  139.1710 C   0  0  0  0  0  3  0  0  0  0  0  0
  185.3480  178.4570  141.7700 C   0  0  0  0  0  3  0  0  0  0  0  0
  185.9400  177.1210  137.3830 C   0  0  0  0  0  0  0  0  0  0  0  0
  180.5230  177.9350  140.6720 F   0  0  0  0  0  0  0  0  0  0  0  0
  188.0060  178.1940  139.0780 C   0  0  0  0  0  2  0  0  0  0  0  0
  185.4520  178.2790  144.2590 C   0  0  0  0  0  1  0  0  0  0  0  0
  184.9020  176.3620  137.5840 N   0  0  0  0  0  0  0  0  0  0  0  0
  186.0000  178.5190  137.9720 C   0  0  2  0  0  3  0  0  0  0  0  0
  186.9990  176.6910  136.5170 N   0  0  0  0  0  2  0  0  0  0  0  0
  182.7620  178.3150  139.9500 C   0  0  0  0  0  3  0  0  0  0  0  0
  187.4840  178.0340  142.8280 C   0  0  0  0  0  3  0  0  0  0  0  0
  183.8000  176.7520  138.4090 C   0  0  0  0  0  0  0  0  0  0  0  0
  182.6310  175.9840  138.4080 C   0  0  0  0  0  3  0  0  0  0  0  0
  187.3230  179.0020  138.1380 O   0  0  0  0  0  0  0  0  0  0  0  0
  187.3450  178.2390  140.4200 C   0  0  0  0  0  0  0  0  0  0  0  0
  188.1020  178.0240  141.5750 C   0  0  0  0  0  3  0  0  0  0  0  0
  190.7740  175.0770  136.6470 C   0  0  1  0  0  3  0  0  0  0  0  0
  188.9580  173.7820  135.4970 C   0  0  0  0  0  2  0  0  0  0  0  0
  188.7220  177.4270  134.5940 O   0  0  0  0  0  1  0  0  0  0  0  0
  191.5130  175.2570  137.9560 C   0  0  0  0  0  1  0  0  0  0  0  0
  189.7300  173.9760  136.8040 C   0  0  0  0  0  2  0  0  0  0  0  0
  189.3340  176.2240  134.9490 C   0  0  2  0  0  3  0  0  0  0  0  0
  188.3020  175.0860  135.0320 C   0  0  2  0  0  3  0  0  0  0  0  0
  190.1070  176.3910  136.2570 C   0  0  0  0  0  2  0  0  0  0  0  0
  1 17  1  0  0  0  0
  1 11  1  0  0  0  0
  2  7  1  6  0  0  0
  2  3  1  0  0  0  0
  3  9  1  0  0  0  0
  5  4  2  0  0  0  0
  5 16  1  0  0  0  0
  6 13  1  0  0  0  0
  7 17  2  0  0  0  0
  8  1  2  0  0  0  0
  9  6  2  0  0  0  0
 10 14  2  0  0  0  0
 12 22  1  0  0  0  0
 14 19  1  0  0  0  0
 15 10  1  1  0  0  0
 15 21  1  0  0  0  0
 15  2  1  0  0  0  0
 16 10  1  0  0  0  0
 18  6  1  0  0  0  0
 19  7  1  0  0  0  0
 20 19  2  0  0  0  0
 20  8  1  0  0  0  0
 21 12  1  0  0  0  0
 22  3  2  0  0  0  0
 22 23  1  0  0  0  0
 23 18  2  0  0  0  0
 24 28  1  0  0  0  0
 24 27  1  1  0  0  0
 25 28  1  0  0  0  0
 29 26  1  1  0  0  0
 29 30  1  0  0  0  0
 29 31  1  0  0  0  0
 30 25  1  0  0  0  0
 30  5  1  1  0  0  0
 31 24  1  0  0  0  0
M  END
>  <MODEL>
9

>  <REMARK>
 VINA RESULT:      -6.7      2.116      2.823
  Name = 
  1 active torsions:
  status: ('A' for Active; 'I' for Inactive)
    1  A    between atoms: C_5  and  C_30
                            x       y       z     vdW  Elec       q    Type
                         _______ _______ _______ _____ _____    ______ ____

>  <TORSDO>
F 1

$$$$
