=
 OpenBabel11122410463D

 32 37  0  0  1  0  0  0  0  0999 V2000
  186.9050  174.8790  137.1370 C   0  0  0  0  0  2  0  0  0  0  0  0
  187.8400  178.2960  140.6560 C   0  0  0  0  0  0  0  0  0  0  0  0
  191.5120  176.3990  143.2180 C   0  0  0  0  0  3  0  0  0  0  0  0
  190.7420  176.4680  144.3800 C   0  0  0  0  0  3  0  0  0  0  0  0
  185.6480  178.9210  141.8070 C   0  0  0  0  0  0  0  0  0  0  0  0
  184.9540  178.9520  143.0880 C   0  0  0  0  0  0  0  0  0  0  0  0
  187.4620  177.3040  138.5200 N   0  0  2  0  0  0  0  0  0  0  0  0
  190.1410  177.8340  139.2060 S   0  0  0  0  0  0  0  0  0  0  0  0
  184.6280  178.6250  145.3170 C   0  0  0  0  0  0  0  0  0  0  0  0
  189.1710  175.6700  137.8060 C   0  0  0  0  0  2  0  0  0  0  0  0
  190.9850  176.8410  142.0030 C   0  0  0  0  0  3  0  0  0  0  0  0
  189.1500  177.8110  140.7180 C   0  0  0  0  0  0  0  0  0  0  0  0
  189.6800  177.3550  141.9360 C   0  0  0  0  0  0  0  0  0  0  0  0
  187.5940  177.9470  143.0690 C   0  0  0  0  0  0  0  0  0  0  0  0
  183.5430  179.1530  144.8400 N   0  0  0  0  0  0  0  0  0  0  0  0
  186.0060  176.1060  136.9280 C   0  0  0  0  0  2  0  0  0  0  0  0
  188.8590  177.1390  138.0710 C   0  0  1  0  0  3  0  0  0  0  0  0
  183.7380  179.3630  143.4280 C   0  0  0  0  0  3  0  0  0  0  0  0
  186.6490  177.4410  137.3200 C   0  0  0  0  0  2  0  0  0  0  0  0
  188.3340  175.1110  136.6590 C   0  0  1  0  0  3  0  0  0  0  0  0
  189.4430  176.9800  144.3290 C   0  0  0  0  0  3  0  0  0  0  0  0
  188.9000  177.4280  143.1160 C   0  0  0  0  0  0  0  0  0  0  0  0
  186.8060  178.0020  144.2850 N   0  0  0  0  0  0  0  0  0  0  0  0
  187.2920  178.5330  139.2870 C   0  0  0  0  0  2  0  0  0  0  0  0
  185.0840  179.3310  140.7570 O   0  0  0  0  0  0  0  0  0  0  0  0
  184.8120  178.2680  146.7490 C   0  0  0  0  0  1  0  0  0  0  0  0
  187.0480  178.3870  141.8230 C   0  0  0  0  0  0  0  0  0  0  0  0
  185.5950  178.4630  144.2590 C   0  0  0  0  0  0  0  0  0  0  0  0
  188.9020  173.8480  136.2150 N   0  0  0  0  0  2  0  0  0  0  0  0
  189.8930  173.7720  135.1870 C   0  0  0  0  0  0  0  0  0  0  0  0
  190.2980  174.8150  134.6060 O   0  0  0  0  0  0  0  0  0  0  0  0
  190.5540  172.1820  134.7090 S   0  0  0  0  0  1  0  0  0  0  0  0
  2 12  2  0  0  0  0
  2 27  1  0  0  0  0
  3  4  1  0  0  0  0
  5 27  1  0  0  0  0
  5  6  1  0  0  0  0
  6 18  2  0  0  0  0
  6 28  1  0  0  0  0
  7 19  1  6  0  0  0
  7 24  1  0  0  0  0
  8 12  1  0  0  0  0
  9 26  1  0  0  0  0
 11  3  2  0  0  0  0
 12 13  1  0  0  0  0
 13 11  1  0  0  0  0
 13 22  2  0  0  0  0
 14 22  1  0  0  0  0
 14 23  1  0  0  0  0
 15  9  2  0  0  0  0
 16  1  1  0  0  0  0
 16 19  1  0  0  0  0
 17 10  1  1  0  0  0
 17  7  1  0  0  0  0
 17  8  1  0  0  0  0
 18 15  1  0  0  0  0
 20 29  1  1  0  0  0
 20  1  1  0  0  0  0
 20 10  1  0  0  0  0
 21  4  2  0  0  0  0
 22 21  1  0  0  0  0
 24  2  1  0  0  0  0
 25  5  2  0  0  0  0
 27 14  2  0  0  0  0
 28 23  2  0  0  0  0
 28  9  1  0  0  0  0
 30 29  1  0  0  0  0
 31 30  2  0  0  0  0
 32 30  1  0  0  0  0
M  END
>  <MODEL>
1

>  <REMARK>
 VINA RESULT:      -9.5      0.000      0.000
  Name = 
  1 active torsions:
  status: ('A' for Active; 'I' for Inactive)
    1  A    between atoms: C_20  and  N_29
                            x       y       z     vdW  Elec       q    Type
                         _______ _______ _______ _____ _____    ______ ____

>  <TORSDO>
F 1

$$$$
=
 OpenBabel11122410463D

 32 37  0  0  1  0  0  0  0  0999 V2000
  188.7170  174.3100  136.9880 C   0  0  0  0  0  2  0  0  0  0  0  0
  188.6170  178.0530  140.2930 C   0  0  0  0  0  0  0  0  0  0  0  0
  191.6060  176.5960  143.8400 C   0  0  0  0  0  3  0  0  0  0  0  0
  190.5690  176.7120  144.7670 C   0  0  0  0  0  3  0  0  0  0  0  0
  186.1850  178.6360  140.8090 C   0  0  0  0  0  0  0  0  0  0  0  0
  185.1940  178.7300  141.8730 C   0  0  0  0  0  0  0  0  0  0  0  0
  188.8200  176.8690  138.2310 N   0  0  2  0  0  0  0  0  0  0  0  0
  191.2220  177.6130  139.4980 S   0  0  0  0  0  0  0  0  0  0  0  0
  184.3360  178.5660  143.9760 C   0  0  0  0  0  0  0  0  0  0  0  0
  190.7140  175.2880  138.1130 C   0  0  0  0  0  2  0  0  0  0  0  0
  191.3810  176.9040  142.4970 C   0  0  0  0  0  3  0  0  0  0  0  0
  189.8880  177.6530  140.7180 C   0  0  0  0  0  0  0  0  0  0  0  0
  190.1150  177.3320  142.0660 C   0  0  0  0  0  0  0  0  0  0  0  0
  187.7920  177.8880  142.5950 C   0  0  0  0  0  0  0  0  0  0  0  0
  183.3850  178.9870  143.2010 N   0  0  0  0  0  0  0  0  0  0  0  0
  187.8520  175.4600  136.4520 C   0  0  0  0  0  2  0  0  0  0  0  0
  190.2900  176.7520  138.1550 C   0  0  1  0  0  3  0  0  0  0  0  0
  183.9170  179.0930  141.8660 C   0  0  0  0  0  3  0  0  0  0  0  0
  188.3260  176.8590  136.8620 C   0  0  0  0  0  2  0  0  0  0  0  0
  190.2100  174.5880  136.8540 C   0  0  1  0  0  3  0  0  0  0  0  0
  189.3050  177.1390  144.3530 C   0  0  0  0  0  3  0  0  0  0  0  0
  189.0640  177.4530  143.0070 C   0  0  0  0  0  0  0  0  0  0  0  0
  186.7250  177.9940  143.5700 N   0  0  0  0  0  0  0  0  0  0  0  0
  188.4170  178.1440  138.8150 C   0  0  0  0  0  2  0  0  0  0  0  0
  185.8840  178.9240  139.6200 O   0  0  0  0  0  0  0  0  0  0  0  0
  184.1730  178.3390  145.4360 C   0  0  0  0  0  1  0  0  0  0  0  0
  187.5560  178.1910  141.2170 C   0  0  0  0  0  0  0  0  0  0  0  0
  185.5420  178.3770  143.2060 C   0  0  0  0  0  0  0  0  0  0  0  0
  190.9180  173.3290  136.6830 N   0  0  0  0  0  2  0  0  0  0  0  0
  192.0830  173.2100  135.8630 C   0  0  0  0  0  0  0  0  0  0  0  0
  192.5300  174.2070  135.2330 O   0  0  0  0  0  0  0  0  0  0  0  0
  192.9070  171.6320  135.7170 S   0  0  0  0  0  1  0  0  0  0  0  0
  2 12  2  0  0  0  0
  2 27  1  0  0  0  0
  3  4  1  0  0  0  0
  5 27  1  0  0  0  0
  5  6  1  0  0  0  0
  6 28  1  0  0  0  0
  7 19  1  6  0  0  0
  7 24  1  0  0  0  0
  8 12  1  0  0  0  0
  9 26  1  0  0  0  0
 11  3  2  0  0  0  0
 12 13  1  0  0  0  0
 13 11  1  0  0  0  0
 13 22  2  0  0  0  0
 14 22  1  0  0  0  0
 14 23  1  0  0  0  0
 15  9  2  0  0  0  0
 16 19  1  0  0  0  0
 16  1  1  0  0  0  0
 17 10  1  1  0  0  0
 17  7  1  0  0  0  0
 17  8  1  0  0  0  0
 18  6  2  0  0  0  0
 18 15  1  0  0  0  0
 20 29  1  1  0  0  0
 20  1  1  0  0  0  0
 20 10  1  0  0  0  0
 21  4  2  0  0  0  0
 22 21  1  0  0  0  0
 24  2  1  0  0  0  0
 25  5  2  0  0  0  0
 27 14  2  0  0  0  0
 28 23  2  0  0  0  0
 28  9  1  0  0  0  0
 30 29  1  0  0  0  0
 31 30  2  0  0  0  0
 32 30  1  0  0  0  0
M  END
>  <MODEL>
2

>  <REMARK>
 VINA RESULT:      -9.1      1.298      1.448
  Name = 
  1 active torsions:
  status: ('A' for Active; 'I' for Inactive)
    1  A    between atoms: C_20  and  N_29
                            x       y       z     vdW  Elec       q    Type
                         _______ _______ _______ _____ _____    ______ ____

>  <TORSDO>
F 1

$$$$
=
 OpenBabel11122410463D

 32 37  0  0  1  0  0  0  0  0999 V2000
  185.6340  175.0680  136.9680 C   0  0  0  0  0  2  0  0  0  0  0  0
  187.1280  178.3740  140.4000 C   0  0  0  0  0  0  0  0  0  0  0  0
  191.0860  176.3460  142.3680 C   0  0  0  0  0  3  0  0  0  0  0  0
  190.4890  176.3970  143.6300 C   0  0  0  0  0  3  0  0  0  0  0  0
  185.1340  179.0040  141.8650 C   0  0  0  0  0  0  0  0  0  0  0  0
  184.6290  179.0130  143.2320 C   0  0  0  0  0  0  0  0  0  0  0  0
  186.4310  177.4450  138.3160 N   0  0  2  0  0  0  0  0  0  0  0  0
  189.1910  177.9110  138.6270 S   0  0  0  0  0  0  0  0  0  0  0  0
  184.6150  178.6320  145.4760 C   0  0  0  0  0  0  0  0  0  0  0  0
  187.9880  175.8020  137.3270 C   0  0  0  0  0  2  0  0  0  0  0  0
  190.4010  176.8290  141.2520 C   0  0  0  0  0  3  0  0  0  0  0  0
  188.4230  177.8640  140.2640 C   0  0  0  0  0  0  0  0  0  0  0  0
  189.1110  177.3670  141.3830 C   0  0  0  0  0  0  0  0  0  0  0  0
  187.2190  177.9640  142.8150 C   0  0  0  0  0  0  0  0  0  0  0  0
  183.4840  179.1910  145.1710 N   0  0  0  0  0  0  0  0  0  0  0  0
  184.7400  176.3160  136.9180 C   0  0  0  0  0  2  0  0  0  0  0  0
  187.7470  177.2690  137.6690 C   0  0  1  0  0  3  0  0  0  0  0  0
  183.4830  179.4350  143.7510 C   0  0  0  0  0  3  0  0  0  0  0  0
  185.4590  177.6280  137.2470 C   0  0  0  0  0  2  0  0  0  0  0  0
  186.9850  175.2880  136.2980 C   0  0  1  0  0  3  0  0  0  0  0  0
  189.2070  176.9320  143.7760 C   0  0  0  0  0  3  0  0  0  0  0  0
  188.5070  177.4220  142.6630 C   0  0  0  0  0  0  0  0  0  0  0  0
  186.6120  178.0000  144.1310 N   0  0  0  0  0  0  0  0  0  0  0  0
  186.3970  178.6560  139.1290 C   0  0  0  0  0  2  0  0  0  0  0  0
  184.4360  179.4520  140.9160 O   0  0  0  0  0  0  0  0  0  0  0  0
  184.9930  178.2340  146.8580 C   0  0  0  0  0  1  0  0  0  0  0  0
  186.5110  178.4470  141.6700 C   0  0  0  0  0  0  0  0  0  0  0  0
  185.4190  178.4820  144.2880 C   0  0  0  0  0  0  0  0  0  0  0  0
  187.4580  174.0280  135.7480 N   0  0  0  0  0  2  0  0  0  0  0  0
  187.3050  172.7850  136.4370 C   0  0  0  0  0  0  0  0  0  0  0  0
  186.7640  172.7430  137.5750 O   0  0  0  0  0  0  0  0  0  0  0  0
  187.8990  171.2760  135.6860 S   0  0  0  0  0  1  0  0  0  0  0  0
  2 27  1  0  0  0  0
  3  4  1  0  0  0  0
  4 21  2  0  0  0  0
  5  6  1  0  0  0  0
  6 18  2  0  0  0  0
  6 28  1  0  0  0  0
  7 19  1  6  0  0  0
  7 24  1  0  0  0  0
  8 12  1  0  0  0  0
  9 26  1  0  0  0  0
 11 13  1  0  0  0  0
 11  3  2  0  0  0  0
 12  2  2  0  0  0  0
 12 13  1  0  0  0  0
 13 22  2  0  0  0  0
 14 23  1  0  0  0  0
 15  9  2  0  0  0  0
 16  1  1  0  0  0  0
 16 19  1  0  0  0  0
 17 10  1  1  0  0  0
 17  7  1  0  0  0  0
 17  8  1  0  0  0  0
 18 15  1  0  0  0  0
 20 29  1  1  0  0  0
 20  1  1  0  0  0  0
 20 10  1  0  0  0  0
 22 14  1  0  0  0  0
 22 21  1  0  0  0  0
 23 28  2  0  0  0  0
 24  2  1  0  0  0  0
 25  5  2  0  0  0  0
 27  5  1  0  0  0  0
 27 14  2  0  0  0  0
 28  9  1  0  0  0  0
 29 30  1  0  0  0  0
 30 31  2  0  0  0  0
 32 30  1  0  0  0  0
M  END
>  <MODEL>
3

>  <REMARK>
 VINA RESULT:      -8.7      1.404      1.436
  Name = 
  1 active torsions:
  status: ('A' for Active; 'I' for Inactive)
    1  A    between atoms: C_20  and  N_29
                            x       y       z     vdW  Elec       q    Type
                         _______ _______ _______ _____ _____    ______ ____

>  <TORSDO>
F 1

$$$$
=
 OpenBabel11122410463D

 32 37  0  0  1  0  0  0  0  0999 V2000
  182.0150  175.5920  139.3190 C   0  0  0  0  0  2  0  0  0  0  0  0
  185.2610  178.7660  141.3980 C   0  0  0  0  0  0  0  0  0  0  0  0
  189.5450  177.5390  139.4530 C   0  0  0  0  0  3  0  0  0  0  0  0
  190.0630  177.3090  140.7300 C   0  0  0  0  0  3  0  0  0  0  0  0
  184.9360  178.7420  143.9300 C   0  0  0  0  0  0  0  0  0  0  0  0
  185.5960  178.4820  145.2030 C   0  0  0  0  0  0  0  0  0  0  0  0
  183.3400  177.9300  140.2550 N   0  0  2  0  0  0  0  0  0  0  0  0
  185.3920  179.0030  138.6530 S   0  0  0  0  0  0  0  0  0  0  0  0
  187.2640  177.8680  146.6260 C   0  0  0  0  0  0  0  0  0  0  0  0
  183.8050  176.8220  138.0970 C   0  0  0  0  0  2  0  0  0  0  0  0
  188.2240  177.9630  139.3010 C   0  0  0  0  0  3  0  0  0  0  0  0
  186.0780  178.5970  140.2760 C   0  0  0  0  0  0  0  0  0  0  0  0
  187.4040  178.1610  140.4240 C   0  0  0  0  0  0  0  0  0  0  0  0
  187.1270  178.1310  142.8550 C   0  0  0  0  0  0  0  0  0  0  0  0
  186.2310  178.1710  147.3490 N   0  0  0  0  0  0  0  0  0  0  0  0
  181.2700  176.5880  140.2190 C   0  0  0  0  0  2  0  0  0  0  0  0
  183.7690  178.1430  138.8580 C   0  0  1  0  0  3  0  0  0  0  0  0
  185.1680  178.5600  146.4570 C   0  0  0  0  0  2  0  0  0  0  0  0
  181.8860  177.9910  140.2620 C   0  0  0  0  0  2  0  0  0  0  0  0
  182.4170  176.1980  137.9790 C   0  0  1  0  0  3  0  0  0  0  0  0
  189.2600  177.5050  141.8550 C   0  0  0  0  0  3  0  0  0  0  0  0
  187.9300  177.9310  141.7180 C   0  0  0  0  0  0  0  0  0  0  0  0
  187.6790  177.8790  144.1710 N   0  0  0  0  0  2  0  0  0  0  0  0
  183.8110  179.0030  141.1250 C   0  0  0  0  0  2  0  0  0  0  0  0
  183.7310  179.1100  143.8920 O   0  0  0  0  0  0  0  0  0  0  0  0
  188.5660  177.4240  147.1910 C   0  0  0  0  0  1  0  0  0  0  0  0
  185.7690  178.5520  142.7000 C   0  0  0  0  0  0  0  0  0  0  0  0
  186.9490  178.0430  145.2290 C   0  0  0  0  0  0  0  0  0  0  0  0
  182.4390  175.1540  136.9670 N   0  0  0  0  0  2  0  0  0  0  0  0
  181.3050  174.8550  136.1500 C   0  0  0  0  0  0  0  0  0  0  0  0
  180.2220  175.4830  136.2970 O   0  0  0  0  0  0  0  0  0  0  0  0
  181.4170  173.5670  134.9160 S   0  0  0  0  0  1  0  0  0  0  0  0
  1 16  1  0  0  0  0
  2 27  1  0  0  0  0
  3  4  1  0  0  0  0
  4 21  2  0  0  0  0
  5  6  1  0  0  0  0
  6 28  2  0  0  0  0
  6 18  1  0  0  0  0
  7 19  1  6  0  0  0
  7 24  1  0  0  0  0
  8 17  1  0  0  0  0
  8 12  1  0  0  0  0
  9 26  1  0  0  0  0
  9 15  2  0  0  0  0
 11  3  2  0  0  0  0
 11 13  1  0  0  0  0
 12 13  1  0  0  0  0
 12  2  2  0  0  0  0
 13 22  2  0  0  0  0
 14 23  1  0  0  0  0
 16 19  1  0  0  0  0
 17 10  1  1  0  0  0
 17  7  1  0  0  0  0
 18 15  1  0  0  0  0
 20 29  1  6  0  0  0
 20 10  1  0  0  0  0
 20  1  1  0  0  0  0
 22 21  1  0  0  0  0
 22 14  1  0  0  0  0
 23 28  1  0  0  0  0
 24  2  1  0  0  0  0
 25  5  2  0  0  0  0
 27 14  2  0  0  0  0
 27  5  1  0  0  0  0
 28  9  1  0  0  0  0
 30 31  2  0  0  0  0
 30 29  1  0  0  0  0
 32 30  1  0  0  0  0
M  END
>  <MODEL>
4

>  <REMARK>
 VINA RESULT:      -8.7      3.657      4.759
  Name = 
  1 active torsions:
  status: ('A' for Active; 'I' for Inactive)
    1  A    between atoms: C_20  and  N_29
                            x       y       z     vdW  Elec       q    Type
                         _______ _______ _______ _____ _____    ______ ____

>  <TORSDO>
F 1

$$$$
=
 OpenBabel11122410463D

 32 37  0  0  1  0  0  0  0  0999 V2000
  184.3570  174.9390  137.2130 C   0  0  0  0  0  2  0  0  0  0  0  0
  186.1760  178.5490  140.1460 C   0  0  0  0  0  0  0  0  0  0  0  0
  190.7640  177.1890  141.0090 C   0  0  0  0  0  3  0  0  0  0  0  0
  190.5120  177.1990  142.3830 C   0  0  0  0  0  3  0  0  0  0  0  0
  184.5560  178.9370  142.0810 C   0  0  0  0  0  0  0  0  0  0  0  0
  184.4260  178.9220  143.5330 C   0  0  0  0  0  0  0  0  0  0  0  0
  185.1110  177.4540  138.3130 N   0  0  2  0  0  0  0  0  0  0  0  0
  187.7560  178.3260  137.8960 S   0  0  0  0  0  0  0  0  0  0  0  0
  185.0480  178.6250  145.7020 C   0  0  0  0  0  0  0  0  0  0  0  0
  186.5870  176.0190  136.9480 C   0  0  0  0  0  2  0  0  0  0  0  0
  189.7500  177.5270  140.1110 C   0  0  0  0  0  3  0  0  0  0  0  0
  187.4530  178.2280  139.6750 C   0  0  0  0  0  0  0  0  0  0  0  0
  188.4720  177.8770  140.5750 C   0  0  0  0  0  0  0  0  0  0  0  0
  186.9460  178.2450  142.4530 C   0  0  0  0  0  0  0  0  0  0  0  0
  183.8070  179.0030  145.7040 N   0  0  0  0  0  0  0  0  0  0  0  0
  183.3050  176.0410  137.4010 C   0  0  0  0  0  2  0  0  0  0  0  0
  186.2260  177.4470  137.3450 C   0  0  1  0  0  3  0  0  0  0  0  0
  183.4020  179.1920  144.3340 C   0  0  0  0  0  3  0  0  0  0  0  0
  183.8800  177.4560  137.5350 C   0  0  0  0  0  2  0  0  0  0  0  0
  185.4410  175.3280  136.2140 C   0  0  1  0  0  3  0  0  0  0  0  0
  189.2460  177.5480  142.8590 C   0  0  0  0  0  3  0  0  0  0  0  0
  188.2180  177.8900  141.9680 C   0  0  0  0  0  0  0  0  0  0  0  0
  186.7010  178.2410  143.8810 N   0  0  0  0  0  0  0  0  0  0  0  0
  185.1070  178.6760  139.1100 C   0  0  0  0  0  2  0  0  0  0  0  0
  183.5780  179.2440  141.3480 O   0  0  0  0  0  0  0  0  0  0  0  0
  185.8250  178.3370  146.9370 C   0  0  0  0  0  1  0  0  0  0  0  0
  185.9030  178.5780  141.5330 C   0  0  0  0  0  0  0  0  0  0  0  0
  185.5320  178.5500  144.3450 C   0  0  0  0  0  0  0  0  0  0  0  0
  185.9390  174.1300  135.5570 N   0  0  0  0  0  2  0  0  0  0  0  0
  186.3960  172.9890  136.2860 C   0  0  0  0  0  0  0  0  0  0  0  0
  186.4030  172.9920  137.5470 O   0  0  0  0  0  0  0  0  0  0  0  0
  186.9780  171.5480  135.4040 S   0  0  0  0  0  1  0  0  0  0  0  0
  1 16  1  0  0  0  0
  2 27  1  0  0  0  0
  3  4  1  0  0  0  0
  4 21  2  0  0  0  0
  5  6  1  0  0  0  0
  6 18  2  0  0  0  0
  6 28  1  0  0  0  0
  7 19  1  6  0  0  0
  7 24  1  0  0  0  0
  8 12  1  0  0  0  0
  9 15  2  0  0  0  0
  9 26  1  0  0  0  0
 11 13  1  0  0  0  0
 11  3  2  0  0  0  0
 12  2  2  0  0  0  0
 12 13  1  0  0  0  0
 13 22  2  0  0  0  0
 14 23  1  0  0  0  0
 16 19  1  0  0  0  0
 17 10  1  1  0  0  0
 17  8  1  0  0  0  0
 17  7  1  0  0  0  0
 18 15  1  0  0  0  0
 20 29  1  1  0  0  0
 20 10  1  0  0  0  0
 20  1  1  0  0  0  0
 22 14  1  0  0  0  0
 22 21  1  0  0  0  0
 23 28  2  0  0  0  0
 24  2  1  0  0  0  0
 25  5  2  0  0  0  0
 27  5  1  0  0  0  0
 27 14  2  0  0  0  0
 28  9  1  0  0  0  0
 29 30  1  0  0  0  0
 30 31  2  0  0  0  0
 32 30  1  0  0  0  0
M  END
>  <MODEL>
5

>  <REMARK>
 VINA RESULT:      -8.5      1.905      2.300
  Name = 
  1 active torsions:
  status: ('A' for Active; 'I' for Inactive)
    1  A    between atoms: C_20  and  N_29
                            x       y       z     vdW  Elec       q    Type
                         _______ _______ _______ _____ _____    ______ ____

>  <TORSDO>
F 1

$$$$
=
 OpenBabel11122410463D

 32 37  0  0  1  0  0  0  0  0999 V2000
  183.0980  175.2890  138.2270 C   0  0  0  0  0  2  0  0  0  0  0  0
  185.8790  178.5510  140.7880 C   0  0  0  0  0  0  0  0  0  0  0  0
  190.4370  176.9670  140.1840 C   0  0  0  0  0  3  0  0  0  0  0  0
  190.5860  176.8590  141.5690 C   0  0  0  0  0  3  0  0  0  0  0  0
  184.9010  178.8130  143.1320 C   0  0  0  0  0  0  0  0  0  0  0  0
  185.1870  178.6680  144.5530 C   0  0  0  0  0  0  0  0  0  0  0  0
  184.2760  177.6660  139.2580 N   0  0  2  0  0  0  0  0  0  0  0  0
  186.7400  178.4840  138.1680 S   0  0  0  0  0  0  0  0  0  0  0  0
  186.3810  178.1520  146.4220 C   0  0  0  0  0  0  0  0  0  0  0  0
  185.2190  176.3150  137.4180 C   0  0  0  0  0  2  0  0  0  0  0  0
  189.2310  177.4200  139.6460 C   0  0  0  0  0  3  0  0  0  0  0  0
  186.9490  178.2330  139.9460 C   0  0  0  0  0  0  0  0  0  0  0  0
  188.1600  177.7670  140.4840 C   0  0  0  0  0  0  0  0  0  0  0  0
  187.2540  178.0110  142.7440 C   0  0  0  0  0  0  0  0  0  0  0  0
  185.2160  178.5690  146.8100 N   0  0  0  0  0  0  0  0  0  0  0  0
  182.2070  176.4030  138.7970 C   0  0  0  0  0  2  0  0  0  0  0  0
  185.0690  177.7110  138.0130 C   0  0  1  0  0  3  0  0  0  0  0  0
  184.4510  178.8970  145.6340 C   0  0  0  0  0  2  0  0  0  0  0  0
  182.8780  177.7790  138.8700 C   0  0  0  0  0  2  0  0  0  0  0  0
  183.8740  175.7320  136.9930 C   0  0  1  0  0  3  0  0  0  0  0  0
  189.5310  177.2040  142.4150 C   0  0  0  0  0  3  0  0  0  0  0  0
  188.3130  177.6600  141.8880 C   0  0  0  0  0  0  0  0  0  0  0  0
  187.4250  177.8830  144.1770 N   0  0  0  0  0  2  0  0  0  0  0  0
  184.5700  178.8090  140.1170 C   0  0  0  0  0  2  0  0  0  0  0  0
  183.7740  179.2180  142.7380 O   0  0  0  0  0  0  0  0  0  0  0  0
  187.4590  177.7260  147.3540 C   0  0  0  0  0  1  0  0  0  0  0  0
  186.0140  178.4610  142.1930 C   0  0  0  0  0  0  0  0  0  0  0  0
  186.4550  178.1870  144.9810 C   0  0  0  0  0  0  0  0  0  0  0  0
  184.0950  174.5850  136.1280 N   0  0  0  0  0  2  0  0  0  0  0  0
  184.5340  173.3200  136.6280 C   0  0  0  0  0  0  0  0  0  0  0  0
  184.7710  173.1620  137.8570 O   0  0  0  0  0  0  0  0  0  0  0  0
  184.7660  171.9520  135.5020 S   0  0  0  0  0  1  0  0  0  0  0  0
  1 16  1  0  0  0  0
  2 27  1  0  0  0  0
  3  4  1  0  0  0  0
  4 21  2  0  0  0  0
  5  6  1  0  0  0  0
  6 28  2  0  0  0  0
  6 18  1  0  0  0  0
  7 19  1  6  0  0  0
  7 24  1  0  0  0  0
  8 12  1  0  0  0  0
  9 15  2  0  0  0  0
  9 26  1  0  0  0  0
 11  3  2  0  0  0  0
 11 13  1  0  0  0  0
 12 13  1  0  0  0  0
 12  2  2  0  0  0  0
 13 22  2  0  0  0  0
 14 23  1  0  0  0  0
 16 19  1  0  0  0  0
 17 10  1  1  0  0  0
 17  8  1  0  0  0  0
 17  7  1  0  0  0  0
 18 15  1  0  0  0  0
 20 29  1  6  0  0  0
 20 10  1  0  0  0  0
 20  1  1  0  0  0  0
 22 21  1  0  0  0  0
 22 14  1  0  0  0  0
 23 28  1  0  0  0  0
 24  2  1  0  0  0  0
 25  5  2  0  0  0  0
 27 14  2  0  0  0  0
 27  5  1  0  0  0  0
 28  9  1  0  0  0  0
 29 30  1  0  0  0  0
 30 31  2  0  0  0  0
 32 30  1  0  0  0  0
M  END
>  <MODEL>
6

>  <REMARK>
 VINA RESULT:      -8.3      2.660      3.318
  Name = 
  1 active torsions:
  status: ('A' for Active; 'I' for Inactive)
    1  A    between atoms: C_20  and  N_29
                            x       y       z     vdW  Elec       q    Type
                         _______ _______ _______ _____ _____    ______ ____

>  <TORSDO>
F 1

$$$$
=
 OpenBabel11122410463D

 32 37  0  0  1  0  0  0  0  0999 V2000
  190.0620  176.2940  143.1840 C   0  0  0  0  0  2  0  0  0  0  0  0
  190.6460  176.3080  138.2240 C   0  0  0  0  0  0  0  0  0  0  0  0
  186.2000  175.3660  136.4950 C   0  0  0  0  0  3  0  0  0  0  0  0
  186.6950  174.2460  135.8230 C   0  0  0  0  0  3  0  0  0  0  0  0
  192.6160  174.8000  137.6190 C   0  0  0  0  0  0  0  0  0  0  0  0
  193.0090  173.6180  136.8620 C   0  0  0  0  0  0  0  0  0  0  0  0
  190.7330  176.9940  140.5080 N   0  0  2  0  0  0  0  0  0  0  0  0
  188.7230  178.1600  138.9170 S   0  0  0  0  0  0  0  0  0  0  0  0
  192.7600  171.7870  135.5320 C   0  0  0  0  0  0  0  0  0  0  0  0
  188.5370  177.4110  141.5600 C   0  0  0  0  0  2  0  0  0  0  0  0
  187.0600  176.1600  137.2560 C   0  0  0  0  0  3  0  0  0  0  0  0
  189.2940  176.6460  138.1100 C   0  0  0  0  0  0  0  0  0  0  0  0
  188.4240  175.8430  137.3540 C   0  0  0  0  0  0  0  0  0  0  0  0
  190.2920  174.3810  136.7520 C   0  0  0  0  0  0  0  0  0  0  0  0
  194.0130  171.8600  135.8590 N   0  0  0  0  0  0  0  0  0  0  0  0
  191.5080  176.6690  142.8280 C   0  0  0  0  0  2  0  0  0  0  0  0
  189.5630  177.8960  140.5410 C   0  0  1  0  0  3  0  0  0  0  0  0
  194.1810  173.0160  136.7030 C   0  0  0  0  0  2  0  0  0  0  0  0
  191.6570  177.4680  141.5280 C   0  0  0  0  0  2  0  0  0  0  0  0
  189.0900  177.4500  142.9830 C   0  0  1  0  0  3  0  0  0  0  0  0
  188.0510  173.9200  135.9100 C   0  0  0  0  0  3  0  0  0  0  0  0
  188.9270  174.7100  136.6700 C   0  0  0  0  0  0  0  0  0  0  0  0
  190.7850  173.2100  136.0540 N   0  0  0  0  0  2  0  0  0  0  0  0
  191.4340  177.0810  139.2310 C   0  0  0  0  0  2  0  0  0  0  0  0
  193.4630  175.4480  138.2890 O   0  0  0  0  0  0  0  0  0  0  0  0
  192.1950  170.7250  134.6580 C   0  0  0  0  0  1  0  0  0  0  0  0
  191.1710  175.1860  137.5410 C   0  0  0  0  0  0  0  0  0  0  0  0
  192.0360  172.8830  136.1300 C   0  0  0  0  0  0  0  0  0  0  0  0
  187.9950  177.3260  143.9320 N   0  0  0  0  0  2  0  0  0  0  0  0
  188.1020  177.7650  145.2880 C   0  0  0  0  0  0  0  0  0  0  0  0
  189.1770  178.2630  145.7190 O   0  0  0  0  0  0  0  0  0  0  0  0
  186.7050  177.5930  146.3880 S   0  0  0  0  0  1  0  0  0  0  0  0
  2 24  1  0  0  0  0
  3 11  2  0  0  0  0
  4 21  2  0  0  0  0
  4  3  1  0  0  0  0
  5 25  2  0  0  0  0
  6  5  1  0  0  0  0
  7 24  1  6  0  0  0
  7 17  1  0  0  0  0
  7 19  1  0  0  0  0
  8 17  1  0  0  0  0
  9 15  2  0  0  0  0
  9 28  1  0  0  0  0
 10 20  1  0  0  0  0
 11 13  1  0  0  0  0
 12  2  1  0  0  0  0
 12  8  1  0  0  0  0
 13 12  2  0  0  0  0
 14 27  1  0  0  0  0
 15 18  1  0  0  0  0
 16  1  1  0  0  0  0
 17 10  1  1  0  0  0
 18  6  1  0  0  0  0
 19 16  1  0  0  0  0
 20  1  1  0  0  0  0
 20 29  1  1  0  0  0
 21 22  1  0  0  0  0
 22 14  2  0  0  0  0
 22 13  1  0  0  0  0
 23 28  1  0  0  0  0
 23 14  1  0  0  0  0
 26  9  1  0  0  0  0
 27  5  1  0  0  0  0
 27  2  2  0  0  0  0
 28  6  2  0  0  0  0
 29 30  1  0  0  0  0
 30 31  2  0  0  0  0
 30 32  1  0  0  0  0
M  END
>  <MODEL>
7

>  <REMARK>
 VINA RESULT:      -8.0      3.046      9.228
  Name = 
  1 active torsions:
  status: ('A' for Active; 'I' for Inactive)
    1  A    between atoms: C_20  and  N_29
                            x       y       z     vdW  Elec       q    Type
                         _______ _______ _______ _____ _____    ______ ____

>  <TORSDO>
F 1

$$$$
=
 OpenBabel11122410463D

 32 37  0  0  1  0  0  0  0  0999 V2000
  187.9770  174.6600  136.6900 C   0  0  0  0  0  2  0  0  0  0  0  0
  186.9420  178.4820  139.7340 C   0  0  0  0  0  0  0  0  0  0  0  0
  189.4090  177.4710  143.8010 C   0  0  0  0  0  3  0  0  0  0  0  0
  188.2210  177.5090  144.5350 C   0  0  0  0  0  3  0  0  0  0  0  0
  184.4130  178.8200  139.8060 C   0  0  0  0  0  0  0  0  0  0  0  0
  183.2500  178.8450  140.6830 C   0  0  0  0  0  0  0  0  0  0  0  0
  187.6120  177.2560  137.7990 N   0  0  2  0  0  0  0  0  0  0  0  0
  189.6760  178.2940  139.4100 S   0  0  0  0  0  0  0  0  0  0  0  0
  182.0640  178.6630  142.6180 C   0  0  0  0  0  0  0  0  0  0  0  0
  189.6450  175.8820  138.0810 C   0  0  0  0  0  2  0  0  0  0  0  0
  189.3870  177.7080  142.4260 C   0  0  0  0  0  3  0  0  0  0  0  0
  188.1550  178.2340  140.3850 C   0  0  0  0  0  0  0  0  0  0  0  0
  188.1790  177.9840  141.7670 C   0  0  0  0  0  0  0  0  0  0  0  0
  185.7550  178.3080  141.8710 C   0  0  0  0  0  0  0  0  0  0  0  0
  181.2230  178.9540  141.6750 N   0  0  0  0  0  0  0  0  0  0  0  0
  187.1080  175.6930  135.9580 C   0  0  0  0  0  2  0  0  0  0  0  0
  189.0780  177.2940  137.9750 C   0  0  1  0  0  3  0  0  0  0  0  0
  181.9630  179.0700  140.4440 C   0  0  0  0  0  3  0  0  0  0  0  0
  187.3640  177.1470  136.3690 C   0  0  0  0  0  2  0  0  0  0  0  0
  189.4360  175.0900  136.7930 C   0  0  1  0  0  3  0  0  0  0  0  0
  187.0110  177.7850  143.8940 C   0  0  0  0  0  3  0  0  0  0  0  0
  186.9750  178.0260  142.5120 C   0  0  0  0  0  0  0  0  0  0  0  0
  184.5320  178.3340  142.6480 N   0  0  0  0  0  0  0  0  0  0  0  0
  186.9920  178.5000  138.2410 C   0  0  0  0  0  2  0  0  0  0  0  0
  184.2940  179.0350  138.5700 O   0  0  0  0  0  0  0  0  0  0  0  0
  181.6760  178.4700  144.0410 C   0  0  0  0  0  1  0  0  0  0  0  0
  185.7300  178.5380  140.4600 C   0  0  0  0  0  0  0  0  0  0  0  0
  183.3970  178.5770  142.0720 C   0  0  0  0  0  0  0  0  0  0  0  0
  190.2840  173.9080  136.8080 N   0  0  0  0  0  2  0  0  0  0  0  0
  191.5200  173.8430  136.0940 C   0  0  0  0  0  0  0  0  0  0  0  0
  191.9130  174.8180  135.3970 O   0  0  0  0  0  0  0  0  0  0  0  0
  192.5140  172.3610  136.1760 S   0  0  0  0  0  1  0  0  0  0  0  0
  1 20  1  0  0  0  0
  2 12  2  0  0  0  0
  2 27  1  0  0  0  0
  3  4  1  0  0  0  0
  5 27  1  0  0  0  0
  5  6  1  0  0  0  0
  6 28  1  0  0  0  0
  7 19  1  6  0  0  0
  7 17  1  0  0  0  0
  7 24  1  0  0  0  0
  8 12  1  0  0  0  0
  9 26  1  0  0  0  0
 11  3  2  0  0  0  0
 12 13  1  0  0  0  0
 13 11  1  0  0  0  0
 13 22  2  0  0  0  0
 14 22  1  0  0  0  0
 14 23  1  0  0  0  0
 15  9  2  0  0  0  0
 16 19  1  0  0  0  0
 16  1  1  0  0  0  0
 17 10  1  1  0  0  0
 17  8  1  0  0  0  0
 18  6  2  0  0  0  0
 18 15  1  0  0  0  0
 20 29  1  1  0  0  0
 20 10  1  0  0  0  0
 21  4  2  0  0  0  0
 22 21  1  0  0  0  0
 24  2  1  0  0  0  0
 25  5  2  0  0  0  0
 27 14  2  0  0  0  0
 28  9  1  0  0  0  0
 28 23  2  0  0  0  0
 30 32  1  0  0  0  0
 30 29  1  0  0  0  0
 31 30  2  0  0  0  0
M  END
>  <MODEL>
8

>  <REMARK>
 VINA RESULT:      -7.7      1.728      2.252
  Name = 
  1 active torsions:
  status: ('A' for Active; 'I' for Inactive)
    1  A    between atoms: C_20  and  N_29
                            x       y       z     vdW  Elec       q    Type
                         _______ _______ _______ _____ _____    ______ ____

>  <TORSDO>
F 1

$$$$
=
 OpenBabel11122410463D

 32 37  0  0  1  0  0  0  0  0999 V2000
  190.1450  176.5720  142.2430 C   0  0  0  0  0  2  0  0  0  0  0  0
  191.9590  175.7660  137.6610 C   0  0  0  0  0  0  0  0  0  0  0  0
  188.1860  173.9550  135.1840 C   0  0  0  0  0  3  0  0  0  0  0  0
  188.9250  172.8060  134.8920 C   0  0  0  0  0  3  0  0  0  0  0  0
  194.1340  174.4430  137.8530 C   0  0  0  0  0  0  0  0  0  0  0  0
  194.8010  173.2050  137.4690 C   0  0  0  0  0  0  0  0  0  0  0  0
  191.4090  176.8590  139.7090 N   0  0  2  0  0  0  0  0  0  0  0  0
  189.7770  177.4450  137.4910 S   0  0  0  0  0  0  0  0  0  0  0  0
  195.0470  171.1470  136.5280 C   0  0  0  0  0  0  0  0  0  0  0  0
  188.9930  177.1690  140.1160 C   0  0  0  0  0  2  0  0  0  0  0  0
  188.7580  174.9790  135.9420 C   0  0  0  0  0  3  0  0  0  0  0  0
  190.6560  175.8990  137.1700 C   0  0  0  0  0  0  0  0  0  0  0  0
  190.0740  174.8660  136.4160 C   0  0  0  0  0  0  0  0  0  0  0  0
  192.1470  173.5750  136.5780 C   0  0  0  0  0  0  0  0  0  0  0  0
  196.1670  171.4410  137.1130 N   0  0  0  0  0  0  0  0  0  0  0  0
  191.5980  177.0620  142.1610 C   0  0  0  0  0  2  0  0  0  0  0  0
  190.1990  177.5910  139.2840 C   0  0  1  0  0  3  0  0  0  0  0  0
  196.0210  172.7430  137.7140 C   0  0  0  0  0  2  0  0  0  0  0  0
  192.0040  177.6260  140.7940 C   0  0  0  0  0  2  0  0  0  0  0  0
  189.1630  177.5360  141.5870 C   0  0  1  0  0  3  0  0  0  0  0  0
  190.2360  172.6810  135.3560 C   0  0  0  0  0  3  0  0  0  0  0  0
  190.8240  173.7030  136.1170 C   0  0  0  0  0  0  0  0  0  0  0  0
  192.8940  172.3720  136.2720 N   0  0  0  0  0  2  0  0  0  0  0  0
  192.4000  176.8040  138.6400 C   0  0  0  0  0  2  0  0  0  0  0  0
  194.7290  175.3070  138.5520 O   0  0  0  0  0  0  0  0  0  0  0  0
  194.8110  169.8800  135.7860 C   0  0  0  0  0  1  0  0  0  0  0  0
  192.7290  174.6170  137.3650 C   0  0  0  0  0  0  0  0  0  0  0  0
  194.1090  172.2290  136.7010 C   0  0  0  0  0  0  0  0  0  0  0  0
  187.8780  177.4440  142.2620 N   0  0  0  0  0  2  0  0  0  0  0  0
  186.8140  178.3660  142.0140 C   0  0  0  0  0  0  0  0  0  0  0  0
  186.9660  179.3200  141.2030 O   0  0  0  0  0  0  0  0  0  0  0  0
  185.2580  178.1760  142.8710 S   0  0  0  0  0  1  0  0  0  0  0  0
  2 24  1  0  0  0  0
  3 11  1  0  0  0  0
  4  3  2  0  0  0  0
  4 21  1  0  0  0  0
  5 25  2  0  0  0  0
  6 18  1  0  0  0  0
  6  5  1  0  0  0  0
  7 24  1  6  0  0  0
  7 19  1  0  0  0  0
  8 17  1  0  0  0  0
  9 28  1  0  0  0  0
  9 15  2  0  0  0  0
 10 20  1  0  0  0  0
 11 13  2  0  0  0  0
 12  8  1  0  0  0  0
 12  2  2  0  0  0  0
 13 12  1  0  0  0  0
 14 27  2  0  0  0  0
 15 18  1  0  0  0  0
 16  1  1  0  0  0  0
 17  7  1  0  0  0  0
 17 10  1  1  0  0  0
 19 16  1  0  0  0  0
 20  1  1  0  0  0  0
 20 29  1  1  0  0  0
 21 22  2  0  0  0  0
 22 13  1  0  0  0  0
 22 14  1  0  0  0  0
 23 14  1  0  0  0  0
 23 28  1  0  0  0  0
 26  9  1  0  0  0  0
 27  2  1  0  0  0  0
 27  5  1  0  0  0  0
 28  6  2  0  0  0  0
 30 29  1  0  0  0  0
 30 32  1  0  0  0  0
 31 30  2  0  0  0  0
M  END
>  <MODEL>
9

>  <REMARK>
 VINA RESULT:      -7.2      3.714      9.558
  Name = 
  1 active torsions:
  status: ('A' for Active; 'I' for Inactive)
    1  A    between atoms: C_20  and  N_29
                            x       y       z     vdW  Elec       q    Type
                         _______ _______ _______ _____ _____    ______ ____

>  <TORSDO>
F 1

$$$$
