=
 OpenBabel11122412113D

 34 41  0  0  1  0  0  0  0  0999 V2000
  185.7160  178.8100  140.6430 C   0  0  0  0  0  0  0  0  0  0  0  0
  184.3350  178.6600  138.5570 C   0  0  0  0  0  2  0  0  0  0  0  0
  186.0020  178.3840  147.3370 C   0  0  2  0  0  3  0  0  0  0  0  0
  186.8240  178.2570  142.7070 C   0  0  0  0  0  0  0  0  0  0  0  0
  185.4840  177.8320  144.8530 C   0  0  1  0  0  3  0  0  0  0  0  0
  185.5840  179.9820  146.0120 O   0  0  0  0  0  0  0  0  0  0  0  0
  186.3940  179.8300  147.1550 C   0  0  0  0  0  2  0  0  0  0  0  0
  188.2780  177.8030  146.2050 C   0  0  0  0  0  2  0  0  0  0  0  0
  183.2450  179.4290  140.5940 N   0  0  2  0  0  0  0  0  0  0  0  0
  180.4370  177.8200  141.0230 C   0  0  0  0  0  2  0  0  0  0  0  0
  184.2880  177.7950  143.8960 C   0  0  0  0  0  2  0  0  0  0  0  0
  187.9460  177.3690  144.7860 C   0  0  0  0  0  2  0  0  0  0  0  0
  183.1520  178.6670  141.8650 C   0  0  1  0  0  3  0  0  0  0  0  0
  182.8980  178.9430  138.2330 C   0  0  0  0  0  2  0  0  0  0  0  0
  186.8300  178.2320  144.2150 C   0  0  1  0  0  3  0  0  0  0  0  0
  187.1810  177.3960  147.1900 C   0  0  0  0  0  2  0  0  0  0  0  0
  181.4480  177.7180  139.8700 C   0  0  1  0  0  3  0  0  0  0  0  0
  185.6500  178.6090  142.0220 C   0  0  0  0  0  0  0  0  0  0  0  0
  185.1490  178.6480  146.1110 C   0  0  2  0  0  3  0  0  0  0  0  0
  184.3770  178.8330  142.7740 C   0  0  2  0  0  3  0  0  0  0  0  0
  188.0210  178.2630  140.6670 C   0  0  0  0  0  3  0  0  0  0  0  0
  180.6010  179.0760  141.8760 C   0  0  0  0  0  2  0  0  0  0  0  0
  187.9830  178.0960  142.0130 N   0  0  0  0  0  0  0  0  0  0  0  0
  181.9060  179.0800  142.6700 C   0  0  0  0  0  2  0  0  0  0  0  0
  182.2250  179.0310  139.5860 C   0  0  1  0  0  3  0  0  0  0  0  0
  186.9000  178.6300  139.9960 N   0  0  0  0  0  0  0  0  0  0  0  0
  184.5410  179.3560  139.8820 C   0  0  1  0  0  3  0  0  0  0  0  0
  182.3150  176.6390  140.0780 O   0  0  0  0  0  0  0  0  0  0  0  0
  181.6430  175.5250  139.5670 C   0  0  0  0  0  2  0  0  0  0  0  0
  183.5840  173.9230  136.9040 C   0  0  0  0  0  2  0  0  0  0  0  0
  181.2660  174.1420  137.5410 C   0  0  0  0  0  2  0  0  0  0  0  0
  182.0030  175.3330  138.1060 C   0  0  0  0  0  3  0  0  0  0  0  0
  182.1710  173.6020  136.4590 C   0  0  0  0  0  2  0  0  0  0  0  0
  183.4800  175.0220  137.9460 C   0  0  0  0  0  2  0  0  0  0  0  0
  1 18  1  0  0  0  0
  2 27  1  0  0  0  0
  3  7  1  6  0  0  0
  4 15  1  0  0  0  0
  5 11  1  6  0  0  0
  5 19  1  0  0  0  0
  6 19  1  0  0  0  0
  6  7  1  0  0  0  0
  8 16  1  0  0  0  0
  9 13  1  0  0  0  0
 10 22  1  0  0  0  0
 12  8  1  0  0  0  0
 13 24  1  0  0  0  0
 13 20  1  0  0  0  0
 14  2  1  0  0  0  0
 14 25  1  0  0  0  0
 15 12  1  0  0  0  0
 15  5  1  0  0  0  0
 16  3  1  0  0  0  0
 17 28  1  0  0  0  0
 17 10  1  0  0  0  0
 18  4  2  0  0  0  0
 18 20  1  0  0  0  0
 19  3  1  0  0  0  0
 20 11  1  0  0  0  0
 21 23  2  0  0  0  0
 22 24  1  0  0  0  0
 23  4  1  0  0  0  0
 25 17  1  0  0  0  0
 25  9  1  0  0  0  0
 26  1  2  0  0  0  0
 26 21  1  0  0  0  0
 27  9  1  0  0  0  0
 27  1  1  0  0  0  0
 29 28  1  0  0  0  0
 30 34  1  0  0  0  0
 31 32  1  0  0  0  0
 32 29  1  0  0  0  0
 33 30  1  0  0  0  0
 33 31  1  0  0  0  0
 34 32  1  0  0  0  0
M  END
>  <MODEL>
1

>  <REMARK>
 VINA RESULT:      -7.7      0.000      0.000
  Name = 
  3 active torsions:
  status: ('A' for Active; 'I' for Inactive)
    1  A    between atoms: C_17  and  O_28
    2  A    between atoms: O_28  and  C_29
    3  A    between atoms: C_29  and  C_32
                            x       y       z     vdW  Elec       q    Type
                         _______ _______ _______ _____ _____    ______ ____

>  <TORSDO>
F 3

$$$$
=
 OpenBabel11122412113D

 34 41  0  0  1  0  0  0  0  0999 V2000
  187.2060  178.3250  140.4470 C   0  0  0  0  0  0  0  0  0  0  0  0
  189.4630  177.4370  139.8170 C   0  0  0  0  0  2  0  0  0  0  0  0
  180.8540  179.5490  138.6510 C   0  0  2  0  0  3  0  0  0  0  0  0
  184.8470  178.4860  140.8990 C   0  0  0  0  0  0  0  0  0  0  0  0
  183.1250  178.3420  139.0020 C   0  0  1  0  0  3  0  0  0  0  0  0
  182.6350  180.6860  138.5100 O   0  0  0  0  0  0  0  0  0  0  0  0
  181.3170  180.9580  138.9290 C   0  0  0  0  0  2  0  0  0  0  0  0
  181.1020  179.1440  141.2150 C   0  0  0  0  0  2  0  0  0  0  0  0
  188.1070  178.4530  138.0680 N   0  0  2  0  0  0  0  0  0  0  0  0
  188.0390  176.5050  135.4490 C   0  0  0  0  0  2  0  0  0  0  0  0
  184.3260  177.8620  138.1790 C   0  0  0  0  0  2  0  0  0  0  0  0
  182.3770  178.3340  141.3930 C   0  0  0  0  0  2  0  0  0  0  0  0
  186.7510  178.0090  137.6580 C   0  0  1  0  0  3  0  0  0  0  0  0
  190.2380  177.3690  138.5350 C   0  0  0  0  0  2  0  0  0  0  0  0
  183.4510  178.8190  140.4320 C   0  0  1  0  0  3  0  0  0  0  0  0
  180.3860  178.7860  139.9110 C   0  0  0  0  0  2  0  0  0  0  0  0
  188.7910  176.3210  136.7760 C   0  0  1  0  0  3  0  0  0  0  0  0
  185.9000  178.4460  139.9710 C   0  0  0  0  0  0  0  0  0  0  0  0
  182.2910  179.3560  138.2050 C   0  0  2  0  0  3  0  0  0  0  0  0
  185.6240  178.6050  138.5100 C   0  0  2  0  0  3  0  0  0  0  0  0
  186.3930  178.2300  142.6700 C   0  0  0  0  0  3  0  0  0  0  0  0
  187.5610  177.9350  135.2050 C   0  0  0  0  0  2  0  0  0  0  0  0
  185.1190  178.3810  142.2280 N   0  0  0  0  0  0  0  0  0  0  0  0
  186.4720  178.3640  136.1860 C   0  0  0  0  0  2  0  0  0  0  0  0
  189.2050  177.6490  137.4640 C   0  0  1  0  0  3  0  0  0  0  0  0
  187.4220  178.2170  141.7860 N   0  0  0  0  0  0  0  0  0  0  0  0
  188.3830  178.4520  139.5220 C   0  0  1  0  0  3  0  0  0  0  0  0
  188.0580  175.4980  137.6390 O   0  0  0  0  0  0  0  0  0  0  0  0
  187.4130  174.5770  136.8090 C   0  0  0  0  0  2  0  0  0  0  0  0
  183.9140  173.6340  136.2670 C   0  0  0  0  0  2  0  0  0  0  0  0
  185.7880  172.8660  137.5800 C   0  0  0  0  0  2  0  0  0  0  0  0
  186.0000  174.3370  137.3090 C   0  0  0  0  0  3  0  0  0  0  0  0
  184.3170  172.6330  137.3320 C   0  0  0  0  0  2  0  0  0  0  0  0
  184.9790  174.7170  136.2530 C   0  0  0  0  0  2  0  0  0  0  0  0
  1 26  1  0  0  0  0
  3  7  1  1  0  0  0
  3 16  1  0  0  0  0
  4 23  2  0  0  0  0
  5 11  1  6  0  0  0
  5 15  1  0  0  0  0
  6  7  1  0  0  0  0
  8 12  1  0  0  0  0
  9 27  1  0  0  0  0
 10 17  1  0  0  0  0
 11 20  1  0  0  0  0
 13  9  1  0  0  0  0
 13 20  1  0  0  0  0
 14  2  1  0  0  0  0
 15  4  1  0  0  0  0
 15 12  1  0  0  0  0
 16  8  1  0  0  0  0
 17 25  1  0  0  0  0
 17 28  1  0  0  0  0
 18  1  2  0  0  0  0
 18  4  1  0  0  0  0
 19  6  1  0  0  0  0
 19  3  1  0  0  0  0
 19  5  1  0  0  0  0
 20 18  1  0  0  0  0
 22 10  1  0  0  0  0
 22 24  1  0  0  0  0
 23 21  1  0  0  0  0
 24 13  1  0  0  0  0
 25  9  1  0  0  0  0
 25 14  1  0  0  0  0
 26 21  2  0  0  0  0
 27  2  1  0  0  0  0
 27  1  1  0  0  0  0
 29 32  1  0  0  0  0
 29 28  1  0  0  0  0
 30 33  1  0  0  0  0
 32 31  1  0  0  0  0
 33 31  1  0  0  0  0
 34 30  1  0  0  0  0
 34 32  1  0  0  0  0
M  END
>  <MODEL>
2

>  <REMARK>
 VINA RESULT:      -7.4      2.826      6.359
  Name = 
  3 active torsions:
  status: ('A' for Active; 'I' for Inactive)
    1  A    between atoms: C_17  and  O_28
    2  A    between atoms: O_28  and  C_29
    3  A    between atoms: C_29  and  C_32
                            x       y       z     vdW  Elec       q    Type
                         _______ _______ _______ _____ _____    ______ ____

>  <TORSDO>
F 3

$$$$
=
 OpenBabel11122412113D

 34 41  0  0  1  0  0  0  0  0999 V2000
  187.9570  178.0910  139.7290 C   0  0  0  0  0  0  0  0  0  0  0  0
  187.9230  177.6350  137.2650 C   0  0  0  0  0  2  0  0  0  0  0  0
  184.5010  178.8850  145.4300 C   0  0  2  0  0  3  0  0  0  0  0  0
  187.6730  177.8680  142.1080 C   0  0  0  0  0  0  0  0  0  0  0  0
  185.3390  177.9150  143.1720 C   0  0  1  0  0  3  0  0  0  0  0  0
  185.1080  180.2330  143.9140 O   0  0  0  0  0  0  0  0  0  0  0  0
  185.1350  180.2500  145.3220 C   0  0  0  0  0  2  0  0  0  0  0  0
  186.9140  177.9860  145.8460 C   0  0  0  0  0  2  0  0  0  0  0  0
  186.0290  178.8220  138.2320 N   0  0  2  0  0  0  0  0  0  0  0  0
  183.2380  177.4700  137.2110 C   0  0  0  0  0  2  0  0  0  0  0  0
  184.8630  177.7670  141.7230 C   0  0  0  0  0  2  0  0  0  0  0  0
  187.3440  177.3180  144.5500 C   0  0  0  0  0  2  0  0  0  0  0  0
  185.1520  178.3120  139.3150 C   0  0  1  0  0  3  0  0  0  0  0  0
  186.9520  177.9310  136.1610 C   0  0  0  0  0  2  0  0  0  0  0  0
  186.8570  178.1200  143.3520 C   0  0  1  0  0  3  0  0  0  0  0  0
  185.4120  177.8250  146.0900 C   0  0  0  0  0  2  0  0  0  0  0  0
  184.6850  177.1050  136.8430 C   0  0  1  0  0  3  0  0  0  0  0  0
  187.1250  178.1500  140.8470 C   0  0  0  0  0  0  0  0  0  0  0  0
  184.4990  178.9650  143.9150 C   0  0  2  0  0  3  0  0  0  0  0  0
  185.6960  178.5760  140.7240 C   0  0  2  0  0  3  0  0  0  0  0  0
  189.7710  177.4360  141.1050 C   0  0  0  0  0  3  0  0  0  0  0  0
  183.0950  178.8510  137.8470 C   0  0  0  0  0  2  0  0  0  0  0  0
  188.9860  177.5210  142.2080 N   0  0  0  0  0  0  0  0  0  0  0  0
  183.7440  178.9310  139.2270 C   0  0  0  0  0  2  0  0  0  0  0  0
  185.6740  178.3010  136.8830 C   0  0  1  0  0  3  0  0  0  0  0  0
  189.2610  177.7330  139.8830 N   0  0  0  0  0  0  0  0  0  0  0  0
  187.4770  178.5510  138.3810 C   0  0  1  0  0  3  0  0  0  0  0  0
  185.1320  176.0380  137.6310 O   0  0  0  0  0  0  0  0  0  0  0  0
  184.1950  175.0200  137.4350 C   0  0  0  0  0  2  0  0  0  0  0  0
  185.3050  171.8100  136.0610 C   0  0  0  0  0  2  0  0  0  0  0  0
  186.2990  173.7480  137.1010 C   0  0  0  0  0  2  0  0  0  0  0  0
  184.8680  173.6670  137.5750 C   0  0  0  0  0  3  0  0  0  0  0  0
  186.6160  172.3660  136.5820 C   0  0  0  0  0  2  0  0  0  0  0  0
  184.1960  172.6320  136.6930 C   0  0  0  0  0  2  0  0  0  0  0  0
  1 26  2  0  0  0  0
  1 18  1  0  0  0  0
  2 27  1  0  0  0  0
  3  7  1  1  0  0  0
  3 16  1  0  0  0  0
  4 23  1  0  0  0  0
  4 15  1  0  0  0  0
  5 11  1  6  0  0  0
  5 15  1  0  0  0  0
  5 19  1  0  0  0  0
  6 19  1  0  0  0  0
  6  7  1  0  0  0  0
  8 16  1  0  0  0  0
  9 27  1  0  0  0  0
  9 13  1  0  0  0  0
 10 22  1  0  0  0  0
 12  8  1  0  0  0  0
 13 20  1  0  0  0  0
 14 25  1  0  0  0  0
 14  2  1  0  0  0  0
 15 12  1  0  0  0  0
 17 25  1  0  0  0  0
 17 10  1  0  0  0  0
 17 28  1  0  0  0  0
 18  4  2  0  0  0  0
 19  3  1  0  0  0  0
 20 18  1  0  0  0  0
 20 11  1  0  0  0  0
 21 23  2  0  0  0  0
 22 24  1  0  0  0  0
 24 13  1  0  0  0  0
 25  9  1  0  0  0  0
 26 21  1  0  0  0  0
 27  1  1  0  0  0  0
 29 32  1  0  0  0  0
 29 28  1  0  0  0  0
 30 33  1  0  0  0  0
 30 34  1  0  0  0  0
 31 32  1  0  0  0  0
 33 31  1  0  0  0  0
 34 32  1  0  0  0  0
M  END
>  <MODEL>
3

>  <REMARK>
 VINA RESULT:      -6.9      2.090      3.158
  Name = 
  3 active torsions:
  status: ('A' for Active; 'I' for Inactive)
    1  A    between atoms: C_17  and  O_28
    2  A    between atoms: O_28  and  C_29
    3  A    between atoms: C_29  and  C_32
                            x       y       z     vdW  Elec       q    Type
                         _______ _______ _______ _____ _____    ______ ____

>  <TORSDO>
F 3

$$$$
=
 OpenBabel11122412113D

 34 41  0  0  1  0  0  0  0  0999 V2000
  186.8350  178.4830  139.2940 C   0  0  0  0  0  0  0  0  0  0  0  0
  184.5900  178.7550  138.2170 C   0  0  0  0  0  2  0  0  0  0  0  0
  190.3800  177.3450  144.8810 C   0  0  2  0  0  3  0  0  0  0  0  0
  188.7120  177.5640  140.4880 C   0  0  0  0  0  0  0  0  0  0  0  0
  188.5890  177.1310  143.0140 C   0  0  1  0  0  3  0  0  0  0  0  0
  189.6490  179.1140  143.9750 O   0  0  0  0  0  0  0  0  0  0  0  0
  190.8820  178.7260  144.5370 C   0  0  0  0  0  2  0  0  0  0  0  0
  191.6240  176.5440  142.7330 C   0  0  0  0  0  2  0  0  0  0  0  0
  184.8390  179.4700  140.5310 N   0  0  2  0  0  0  0  0  0  0  0  0
  182.3930  178.2700  142.3300 C   0  0  0  0  0  2  0  0  0  0  0  0
  187.0890  177.3730  142.8100 C   0  0  0  0  0  2  0  0  0  0  0  0
  190.5480  176.3110  141.6850 C   0  0  0  0  0  2  0  0  0  0  0  0
  185.2640  178.6070  141.6610 C   0  0  1  0  0  3  0  0  0  0  0  0
  183.2650  179.2840  138.6810 C   0  0  0  0  0  2  0  0  0  0  0  0
  189.4750  177.3860  141.7780 C   0  0  1  0  0  3  0  0  0  0  0  0
  191.1210  176.2100  144.1390 C   0  0  0  0  0  2  0  0  0  0  0  0
  182.6460  178.1330  140.8200 C   0  0  1  0  0  3  0  0  0  0  0  0
  187.4400  178.1560  140.5080 C   0  0  0  0  0  0  0  0  0  0  0  0
  189.0890  177.8580  144.2720 C   0  0  2  0  0  3  0  0  0  0  0  0
  186.7860  178.4930  141.8110 C   0  0  2  0  0  3  0  0  0  0  0  0
  188.6930  177.5950  138.1230 C   0  0  0  0  0  3  0  0  0  0  0  0
  183.1900  179.3940  142.9880 C   0  0  0  0  0  2  0  0  0  0  0  0
  189.3110  177.3010  139.2950 N   0  0  0  0  0  0  0  0  0  0  0  0
  184.6930  179.1200  142.9970 C   0  0  0  0  0  2  0  0  0  0  0  0
  183.3960  179.3360  140.1890 C   0  0  1  0  0  3  0  0  0  0  0  0
  187.4750  178.1930  138.1290 N   0  0  0  0  0  0  0  0  0  0  0  0
  185.5590  179.2750  139.2520 C   0  0  1  0  0  3  0  0  0  0  0  0
  183.2860  176.9200  140.5420 O   0  0  0  0  0  0  0  0  0  0  0  0
  182.2650  176.0440  140.1640 C   0  0  0  0  0  2  0  0  0  0  0  0
  183.0260  174.1620  137.1130 C   0  0  0  0  0  2  0  0  0  0  0  0
  181.0760  175.0490  138.2260 C   0  0  0  0  0  2  0  0  0  0  0  0
  182.2580  175.8850  138.6550 C   0  0  0  0  0  3  0  0  0  0  0  0
  181.5290  174.3520  136.9650 C   0  0  0  0  0  2  0  0  0  0  0  0
  183.4900  175.1360  138.1820 C   0  0  0  0  0  2  0  0  0  0  0  0
  1 18  1  0  0  0  0
  2 14  1  0  0  0  0
  2 27  1  0  0  0  0
  3 16  1  6  0  0  0
  4 18  2  0  0  0  0
  4 15  1  0  0  0  0
  5 11  1  6  0  0  0
  5 19  1  0  0  0  0
  6 19  1  0  0  0  0
  6  7  1  0  0  0  0
  7  3  1  0  0  0  0
  8 16  1  0  0  0  0
  9 13  1  0  0  0  0
 10 22  1  0  0  0  0
 12 15  1  0  0  0  0
 12  8  1  0  0  0  0
 13 20  1  0  0  0  0
 13 24  1  0  0  0  0
 14 25  1  0  0  0  0
 15  5  1  0  0  0  0
 17 10  1  0  0  0  0
 18 20  1  0  0  0  0
 19  3  1  0  0  0  0
 20 11  1  0  0  0  0
 21 26  1  0  0  0  0
 21 23  2  0  0  0  0
 22 24  1  0  0  0  0
 23  4  1  0  0  0  0
 25  9  1  0  0  0  0
 25 17  1  0  0  0  0
 26  1  2  0  0  0  0
 27  1  1  0  0  0  0
 27  9  1  0  0  0  0
 28 17  1  0  0  0  0
 29 28  1  0  0  0  0
 30 34  1  0  0  0  0
 31 32  1  0  0  0  0
 32 29  1  0  0  0  0
 33 30  1  0  0  0  0
 33 31  1  0  0  0  0
 34 32  1  0  0  0  0
M  END
>  <MODEL>
4

>  <REMARK>
 VINA RESULT:      -6.8      2.043      2.907
  Name = 
  3 active torsions:
  status: ('A' for Active; 'I' for Inactive)
    1  A    between atoms: C_17  and  O_28
    2  A    between atoms: O_28  and  C_29
    3  A    between atoms: C_29  and  C_32
                            x       y       z     vdW  Elec       q    Type
                         _______ _______ _______ _____ _____    ______ ____

>  <TORSDO>
F 3

$$$$
=
 OpenBabel11122412113D

 34 41  0  0  1  0  0  0  0  0999 V2000
  179.4520  176.0970  140.5030 C   0  0  0  0  0  0  0  0  0  0  0  0
  179.8500  178.0970  141.9600 C   0  0  0  0  0  2  0  0  0  0  0  0
  180.7330  172.8880  134.7470 C   0  0  2  0  0  3  0  0  0  0  0  0
  179.7940  174.1080  139.1920 C   0  0  0  0  0  0  0  0  0  0  0  0
  181.0660  174.1950  136.9650 C   0  0  1  0  0  3  0  0  0  0  0  0
  179.2790  174.3230  135.3030 O   0  0  0  0  0  0  0  0  0  0  0  0
  179.2480  173.1060  134.5940 C   0  0  0  0  0  2  0  0  0  0  0  0
  180.1210  171.2520  136.6830 C   0  0  0  0  0  2  0  0  0  0  0  0
  179.9320  178.4080  139.5460 N   0  0  2  0  0  0  0  0  0  0  0  0
  182.6190  180.0770  138.7370 C   0  0  0  0  0  2  0  0  0  0  0  0
  181.4580  175.5990  137.4400 C   0  0  0  0  0  2  0  0  0  0  0  0
  180.4330  171.9910  137.9750 C   0  0  0  0  0  2  0  0  0  0  0  0
  180.8460  177.7020  138.6140 C   0  0  1  0  0  3  0  0  0  0  0  0
  180.1520  179.5410  141.6920 C   0  0  0  0  0  2  0  0  0  0  0  0
  180.0440  173.4570  137.8540 C   0  0  1  0  0  3  0  0  0  0  0  0
  181.0980  171.6310  135.5680 C   0  0  0  0  0  2  0  0  0  0  0  0
  182.1090  179.6760  140.1290 C   0  0  1  0  0  3  0  0  0  0  0  0
  179.8700  175.5040  139.3110 C   0  0  0  0  0  0  0  0  0  0  0  0
  180.6700  174.2140  135.4820 C   0  0  2  0  0  3  0  0  0  0  0  0
  180.3210  176.3370  138.1530 C   0  0  2  0  0  3  0  0  0  0  0  0
  178.9740  173.9590  141.4050 C   0  0  0  0  0  3  0  0  0  0  0  0
  181.5580  179.9880  137.6430 C   0  0  0  0  0  2  0  0  0  0  0  0
  179.3440  173.3680  140.2410 N   0  0  0  0  0  0  0  0  0  0  0  0
  181.1260  178.5510  137.3600 C   0  0  0  0  0  2  0  0  0  0  0  0
  180.5640  179.5680  140.2340 C   0  0  1  0  0  3  0  0  0  0  0  0
  179.0160  175.3100  141.5240 N   0  0  0  0  0  0  0  0  0  0  0  0
  179.3430  177.5900  140.6300 C   0  0  1  0  0  3  0  0  0  0  0  0
  182.7400  178.5030  140.5590 O   0  0  0  0  0  0  0  0  0  0  0  0
  183.8930  178.9290  141.2250 C   0  0  0  0  0  2  0  0  0  0  0  0
  185.3160  178.6140  144.5860 C   0  0  0  0  0  2  0  0  0  0  0  0
  183.1520  179.0050  143.5920 C   0  0  0  0  0  2  0  0  0  0  0  0
  183.9830  178.2530  142.5800 C   0  0  0  0  0  3  0  0  0  0  0  0
  183.8450  178.7740  144.9140 C   0  0  0  0  0  2  0  0  0  0  0  0
  185.4050  178.2810  143.1070 C   0  0  0  0  0  2  0  0  0  0  0  0
  1 27  1  0  0  0  0
  1 26  1  0  0  0  0
  3  7  1  1  0  0  0
  3 19  1  0  0  0  0
  3 16  1  0  0  0  0
  4 18  1  0  0  0  0
  4 23  2  0  0  0  0
  5 11  1  1  0  0  0
  5 15  1  0  0  0  0
  6 19  1  0  0  0  0
  7  6  1  0  0  0  0
  8 12  1  0  0  0  0
  9 25  1  0  0  0  0
  9 27  1  0  0  0  0
 10 17  1  0  0  0  0
 11 20  1  0  0  0  0
 13  9  1  0  0  0  0
 14  2  1  0  0  0  0
 15 12  1  0  0  0  0
 15  4  1  0  0  0  0
 16  8  1  0  0  0  0
 17 25  1  0  0  0  0
 17 28  1  0  0  0  0
 18  1  2  0  0  0  0
 19  5  1  0  0  0  0
 20 13  1  0  0  0  0
 20 18  1  0  0  0  0
 21 26  2  0  0  0  0
 22 10  1  0  0  0  0
 23 21  1  0  0  0  0
 24 22  1  0  0  0  0
 24 13  1  0  0  0  0
 25 14  1  0  0  0  0
 27  2  1  0  0  0  0
 28 29  1  0  0  0  0
 29 32  1  0  0  0  0
 30 33  1  0  0  0  0
 31 33  1  0  0  0  0
 32 34  1  0  0  0  0
 32 31  1  0  0  0  0
 34 30  1  0  0  0  0
M  END
>  <MODEL>
5

>  <REMARK>
 VINA RESULT:      -6.7      2.914      8.798
  Name = 
  3 active torsions:
  status: ('A' for Active; 'I' for Inactive)
    1  A    between atoms: C_17  and  O_28
    2  A    between atoms: O_28  and  C_29
    3  A    between atoms: C_29  and  C_32
                            x       y       z     vdW  Elec       q    Type
                         _______ _______ _______ _____ _____    ______ ____

>  <TORSDO>
F 3

$$$$
=
 OpenBabel11122412113D

 34 41  0  0  1  0  0  0  0  0999 V2000
  187.9410  177.0980  138.2600 C   0  0  0  0  0  0  0  0  0  0  0  0
  186.9800  178.3310  140.2180 C   0  0  0  0  0  2  0  0  0  0  0  0
  193.0130  173.5150  135.7090 C   0  0  2  0  0  3  0  0  0  0  0  0
  188.8430  175.3610  136.8590 C   0  0  0  0  0  0  0  0  0  0  0  0
  191.1600  174.3610  137.3180 C   0  0  1  0  0  3  0  0  0  0  0  0
  192.6150  175.5930  135.7880 O   0  0  0  0  0  0  0  0  0  0  0  0
  193.0510  174.7060  134.7840 C   0  0  0  0  0  2  0  0  0  0  0  0
  190.7280  172.9370  134.5940 C   0  0  0  0  0  2  0  0  0  0  0  0
  189.4000  178.3160  139.9560 N   0  0  2  0  0  0  0  0  0  0  0  0
  190.8160  177.5330  142.7920 C   0  0  0  0  0  2  0  0  0  0  0  0
  191.0300  175.1080  138.6510 C   0  0  0  0  0  2  0  0  0  0  0  0
  189.6570  173.3310  135.5990 C   0  0  0  0  0  2  0  0  0  0  0  0
  190.2570  177.1050  139.9100 C   0  0  1  0  0  3  0  0  0  0  0  0
  187.5700  179.1140  141.3520 C   0  0  0  0  0  2  0  0  0  0  0  0
  190.0360  174.6290  136.2970 C   0  0  1  0  0  3  0  0  0  0  0  0
  191.9940  172.4320  135.2900 C   0  0  0  0  0  2  0  0  0  0  0  0
  189.3240  177.7130  142.4690 C   0  0  1  0  0  3  0  0  0  0  0  0
  189.0230  176.2990  137.8870 C   0  0  0  0  0  0  0  0  0  0  0  0
  192.5660  174.5460  136.7270 C   0  0  2  0  0  3  0  0  0  0  0  0
  190.3690  176.4820  138.5140 C   0  0  2  0  0  3  0  0  0  0  0  0
  186.5720  175.9970  136.6710 C   0  0  0  0  0  3  0  0  0  0  0  0
  191.7500  178.1410  141.7480 C   0  0  0  0  0  2  0  0  0  0  0  0
  187.6210  175.2350  136.2720 N   0  0  0  0  0  0  0  0  0  0  0  0
  191.6820  177.4140  140.4070 C   0  0  0  0  0  2  0  0  0  0  0  0
  189.0370  178.7360  141.3380 C   0  0  1  0  0  3  0  0  0  0  0  0
  186.7400  176.9270  137.6450 N   0  0  0  0  0  0  0  0  0  0  0  0
  188.1150  178.2360  139.2260 C   0  0  1  0  0  3  0  0  0  0  0  0
  188.7300  176.4730  142.2080 O   0  0  0  0  0  0  0  0  0  0  0  0
  188.1840  176.0630  143.4270 C   0  0  0  0  0  2  0  0  0  0  0  0
  186.2020  177.8540  145.9360 C   0  0  0  0  0  2  0  0  0  0  0  0
  188.4640  177.0490  145.6880 C   0  0  0  0  0  2  0  0  0  0  0  0
  187.9120  177.2740  144.3010 C   0  0  0  0  0  3  0  0  0  0  0  0
  187.5660  177.8500  146.5990 C   0  0  0  0  0  2  0  0  0  0  0  0
  186.4210  177.4920  144.4780 C   0  0  0  0  0  2  0  0  0  0  0  0
  1 27  1  0  0  0  0
  2 14  1  0  0  0  0
  3  7  1  6  0  0  0
  3 19  1  0  0  0  0
  4 18  2  0  0  0  0
  5 11  1  1  0  0  0
  6 19  1  0  0  0  0
  7  6  1  0  0  0  0
  8 16  1  0  0  0  0
  8 12  1  0  0  0  0
  9 25  1  0  0  0  0
 12 15  1  0  0  0  0
 13  9  1  0  0  0  0
 13 24  1  0  0  0  0
 15  4  1  0  0  0  0
 15  5  1  0  0  0  0
 16  3  1  0  0  0  0
 17 10  1  0  0  0  0
 18  1  1  0  0  0  0
 18 20  1  0  0  0  0
 19  5  1  0  0  0  0
 20 11  1  0  0  0  0
 20 13  1  0  0  0  0
 21 26  1  0  0  0  0
 22 10  1  0  0  0  0
 23 21  2  0  0  0  0
 23  4  1  0  0  0  0
 24 22  1  0  0  0  0
 25 14  1  0  0  0  0
 25 17  1  0  0  0  0
 26  1  2  0  0  0  0
 27  9  1  0  0  0  0
 27  2  1  0  0  0  0
 28 17  1  0  0  0  0
 28 29  1  0  0  0  0
 29 32  1  0  0  0  0
 30 33  1  0  0  0  0
 31 33  1  0  0  0  0
 32 34  1  0  0  0  0
 32 31  1  0  0  0  0
 34 30  1  0  0  0  0
M  END
>  <MODEL>
6

>  <REMARK>
 VINA RESULT:      -6.7      4.856      9.307
  Name = 
  3 active torsions:
  status: ('A' for Active; 'I' for Inactive)
    1  A    between atoms: C_17  and  O_28
    2  A    between atoms: O_28  and  C_29
    3  A    between atoms: C_29  and  C_32
                            x       y       z     vdW  Elec       q    Type
                         _______ _______ _______ _____ _____    ______ ____

>  <TORSDO>
F 3

$$$$
=
 OpenBabel11122412113D

 34 41  0  0  1  0  0  0  0  0999 V2000
  185.3740  178.4070  139.3290 C   0  0  0  0  0  0  0  0  0  0  0  0
  186.7120  177.4310  137.4480 C   0  0  0  0  0  2  0  0  0  0  0  0
  179.4510  178.9210  142.4480 C   0  0  2  0  0  3  0  0  0  0  0  0
  184.0020  178.6350  141.2930 C   0  0  0  0  0  0  0  0  0  0  0  0
  181.5390  177.9170  141.2760 C   0  0  1  0  0  3  0  0  0  0  0  0
  180.3480  180.0120  140.8700 O   0  0  0  0  0  0  0  0  0  0  0  0
  179.6550  180.3610  142.0470 C   0  0  0  0  0  2  0  0  0  0  0  0
  181.4640  179.2670  144.0700 C   0  0  0  0  0  2  0  0  0  0  0  0
  184.3500  177.8750  137.0580 N   0  0  2  0  0  0  0  0  0  0  0  0
  182.9430  175.2620  135.6970 C   0  0  0  0  0  2  0  0  0  0  0  0
  181.9190  177.2520  139.9490 C   0  0  0  0  0  2  0  0  0  0  0  0
  182.6510  178.5710  143.4240 C   0  0  0  0  0  2  0  0  0  0  0  0
  183.2230  177.3010  137.8340 C   0  0  1  0  0  3  0  0  0  0  0  0
  186.3920  177.0190  136.0420 C   0  0  0  0  0  2  0  0  0  0  0  0
  182.6380  178.7890  141.9180 C   0  0  1  0  0  3  0  0  0  0  0  0
  180.1530  178.5370  143.7700 C   0  0  0  0  0  2  0  0  0  0  0  0
  184.4130  175.4810  136.0860 C   0  0  1  0  0  3  0  0  0  0  0  0
  184.1120  178.3570  139.9220 C   0  0  0  0  0  0  0  0  0  0  0  0
  180.1910  178.6430  141.1530 C   0  0  2  0  0  3  0  0  0  0  0  0
  182.8870  178.0880  139.1060 C   0  0  2  0  0  3  0  0  0  0  0  0
  186.3460  178.9280  141.4260 C   0  0  0  0  0  3  0  0  0  0  0  0
  182.1300  176.5530  135.6150 C   0  0  0  0  0  2  0  0  0  0  0  0
  185.1230  178.9180  142.0130 N   0  0  0  0  0  0  0  0  0  0  0  0
  181.9450  177.2170  136.9780 C   0  0  0  0  0  2  0  0  0  0  0  0
  184.8800  176.9590  136.0100 C   0  0  1  0  0  3  0  0  0  0  0  0
  186.4630  178.6890  140.0950 N   0  0  0  0  0  0  0  0  0  0  0  0
  185.5350  178.2940  137.8390 C   0  0  1  0  0  3  0  0  0  0  0  0
  184.6720  174.9200  137.3420 O   0  0  0  0  0  0  0  0  0  0  0  0
  184.0180  173.6850  137.3350 C   0  0  0  0  0  2  0  0  0  0  0  0
  186.4510  171.6170  135.5380 C   0  0  0  0  0  2  0  0  0  0  0  0
  186.4330  173.1230  137.4250 C   0  0  0  0  0  2  0  0  0  0  0  0
  185.0380  172.5630  137.2820 C   0  0  0  0  0  3  0  0  0  0  0  0
  187.3150  172.1690  136.6550 C   0  0  0  0  0  2  0  0  0  0  0  0
  185.0060  171.8630  135.9360 C   0  0  0  0  0  2  0  0  0  0  0  0
  1 18  2  0  0  0  0
  1 26  1  0  0  0  0
  2 27  1  0  0  0  0
  3  7  1  1  0  0  0
  3 16  1  0  0  0  0
  4 15  1  0  0  0  0
  4 23  2  0  0  0  0
  5 11  1  6  0  0  0
  5 15  1  0  0  0  0
  6 19  1  0  0  0  0
  6  7  1  0  0  0  0
  9 13  1  0  0  0  0
  9 27  1  0  0  0  0
 10 17  1  0  0  0  0
 12  8  1  0  0  0  0
 13 20  1  0  0  0  0
 14  2  1  0  0  0  0
 15 12  1  0  0  0  0
 16  8  1  0  0  0  0
 17 28  1  0  0  0  0
 18  4  1  0  0  0  0
 19  5  1  0  0  0  0
 19  3  1  0  0  0  0
 20 18  1  0  0  0  0
 20 11  1  0  0  0  0
 21 23  1  0  0  0  0
 22 10  1  0  0  0  0
 22 24  1  0  0  0  0
 24 13  1  0  0  0  0
 25 14  1  0  0  0  0
 25 17  1  0  0  0  0
 25  9  1  0  0  0  0
 26 21  2  0  0  0  0
 27  1  1  0  0  0  0
 29 28  1  0  0  0  0
 30 34  1  0  0  0  0
 30 33  1  0  0  0  0
 32 29  1  0  0  0  0
 32 31  1  0  0  0  0
 33 31  1  0  0  0  0
 34 32  1  0  0  0  0
M  END
>  <MODEL>
7

>  <REMARK>
 VINA RESULT:      -6.7      2.954      5.123
  Name = 
  3 active torsions:
  status: ('A' for Active; 'I' for Inactive)
    1  A    between atoms: C_17  and  O_28
    2  A    between atoms: O_28  and  C_29
    3  A    between atoms: C_29  and  C_32
                            x       y       z     vdW  Elec       q    Type
                         _______ _______ _______ _____ _____    ______ ____

>  <TORSDO>
F 3

$$$$
=
 OpenBabel11122412113D

 34 41  0  0  1  0  0  0  0  0999 V2000
  185.8420  177.2560  136.8270 C   0  0  0  0  0  0  0  0  0  0  0  0
  187.5660  178.9730  137.4230 C   0  0  0  0  0  2  0  0  0  0  0  0
  184.2930  170.7760  135.9980 C   0  0  2  0  0  3  0  0  0  0  0  0
  184.3310  175.3850  136.9370 C   0  0  0  0  0  0  0  0  0  0  0  0
  185.2130  172.9770  137.0220 C   0  0  1  0  0  3  0  0  0  0  0  0
  185.0770  172.2480  134.6930 O   0  0  0  0  0  0  0  0  0  0  0  0
  184.0610  171.2760  134.5940 C   0  0  0  0  0  2  0  0  0  0  0  0
  182.2250  172.2150  136.6700 C   0  0  0  0  0  2  0  0  0  0  0  0
  188.3210  176.9250  136.3440 N   0  0  2  0  0  0  0  0  0  0  0  0
  190.8620  175.6840  137.9770 C   0  0  0  0  0  2  0  0  0  0  0  0
  186.5580  173.6600  137.2910 C   0  0  0  0  0  2  0  0  0  0  0  0
  182.7770  173.4450  137.3730 C   0  0  0  0  0  2  0  0  0  0  0  0
  188.1160  175.5490  136.8620 C   0  0  1  0  0  3  0  0  0  0  0  0
  189.0560  179.0530  137.2720 C   0  0  0  0  0  2  0  0  0  0  0  0
  184.0450  173.9250  136.6830 C   0  0  1  0  0  3  0  0  0  0  0  0
  183.0850  170.9790  136.9400 C   0  0  0  0  0  2  0  0  0  0  0  0
  190.0760  176.9780  138.2420 C   0  0  1  0  0  3  0  0  0  0  0  0
  185.6360  175.8770  136.7730 C   0  0  0  0  0  0  0  0  0  0  0  0
  185.3770  171.8380  136.0050 C   0  0  2  0  0  3  0  0  0  0  0  0
  186.7630  174.9400  136.4740 C   0  0  2  0  0  3  0  0  0  0  0  0
  183.5350  177.5900  137.2510 C   0  0  0  0  0  3  0  0  0  0  0  0
  190.6460  175.1090  136.5790 C   0  0  0  0  0  2  0  0  0  0  0  0
  183.3100  176.2550  137.1680 N   0  0  0  0  0  0  0  0  0  0  0  0
  189.2220  174.5990  136.3670 C   0  0  0  0  0  2  0  0  0  0  0  0
  189.4740  177.6300  136.9680 C   0  0  1  0  0  3  0  0  0  0  0  0
  184.7870  178.0810  137.0670 N   0  0  0  0  0  0  0  0  0  0  0  0
  187.1770  177.8540  136.4860 C   0  0  1  0  0  3  0  0  0  0  0  0
  189.1000  176.7620  139.2220 O   0  0  0  0  0  0  0  0  0  0  0  0
  189.8050  176.6640  140.4250 C   0  0  0  0  0  2  0  0  0  0  0  0
  186.8950  178.2470  141.9920 C   0  0  0  0  0  2  0  0  0  0  0  0
  188.6840  176.7600  142.6370 C   0  0  0  0  0  2  0  0  0  0  0  0
  189.1750  177.5740  141.4640 C   0  0  0  0  0  3  0  0  0  0  0  0
  187.5070  177.5350  143.1820 C   0  0  0  0  0  2  0  0  0  0  0  0
  187.9520  178.2750  140.9030 C   0  0  0  0  0  2  0  0  0  0  0  0
  1 26  1  0  0  0  0
  3  7  1  6  0  0  0
  3 19  1  0  0  0  0
  3 16  1  0  0  0  0
  4 23  2  0  0  0  0
  5 11  1  6  0  0  0
  6 19  1  0  0  0  0
  7  6  1  0  0  0  0
  8 16  1  0  0  0  0
  8 12  1  0  0  0  0
  9 27  1  0  0  0  0
  9 13  1  0  0  0  0
  9 25  1  0  0  0  0
 10 17  1  0  0  0  0
 14  2  1  0  0  0  0
 15  4  1  0  0  0  0
 15  5  1  0  0  0  0
 15 12  1  0  0  0  0
 17 28  1  0  0  0  0
 18  1  2  0  0  0  0
 18  4  1  0  0  0  0
 19  5  1  0  0  0  0
 20 18  1  0  0  0  0
 20 13  1  0  0  0  0
 20 11  1  0  0  0  0
 22 10  1  0  0  0  0
 23 21  1  0  0  0  0
 24 22  1  0  0  0  0
 24 13  1  0  0  0  0
 25 14  1  0  0  0  0
 25 17  1  0  0  0  0
 26 21  2  0  0  0  0
 27  1  1  0  0  0  0
 27  2  1  0  0  0  0
 28 29  1  0  0  0  0
 29 32  1  0  0  0  0
 30 33  1  0  0  0  0
 31 33  1  0  0  0  0
 32 31  1  0  0  0  0
 34 32  1  0  0  0  0
 34 30  1  0  0  0  0
M  END
>  <MODEL>
8

>  <REMARK>
 VINA RESULT:      -6.6      3.656      9.116
  Name = 
  3 active torsions:
  status: ('A' for Active; 'I' for Inactive)
    1  A    between atoms: C_17  and  O_28
    2  A    between atoms: O_28  and  C_29
    3  A    between atoms: C_29  and  C_32
                            x       y       z     vdW  Elec       q    Type
                         _______ _______ _______ _____ _____    ______ ____

>  <TORSDO>
F 3

$$$$
=
 OpenBabel11122412113D

 34 41  0  0  1  0  0  0  0  0999 V2000
  183.9360  178.5310  140.6890 C   0  0  0  0  0  0  0  0  0  0  0  0
  181.5790  179.3230  140.9970 C   0  0  0  0  0  2  0  0  0  0  0  0
  188.8540  176.7630  136.4740 C   0  0  2  0  0  3  0  0  0  0  0  0
  186.2470  178.4050  140.0290 C   0  0  0  0  0  0  0  0  0  0  0  0
  186.9040  178.0820  137.5700 C   0  0  1  0  0  3  0  0  0  0  0  0
  187.2950  175.6750  137.4060 O   0  0  0  0  0  0  0  0  0  0  0  0
  188.6760  175.4640  137.2190 C   0  0  0  0  0  2  0  0  0  0  0  0
  189.7660  177.7270  138.7190 C   0  0  0  0  0  2  0  0  0  0  0  0
  182.0660  177.9110  139.0740 N   0  0  2  0  0  0  0  0  0  0  0  0
  180.7890  179.2350  136.3770 C   0  0  0  0  0  2  0  0  0  0  0  0
  185.4280  178.4040  137.3110 C   0  0  0  0  0  2  0  0  0  0  0  0
  188.6540  178.5920  139.2900 C   0  0  0  0  0  2  0  0  0  0  0  0
  183.0500  178.2160  138.0050 C   0  0  1  0  0  3  0  0  0  0  0  0
  180.3040  179.1300  140.2320 C   0  0  0  0  0  2  0  0  0  0  0  0
  187.3000  177.9390  139.0540 C   0  0  1  0  0  3  0  0  0  0  0  0
  189.7830  177.7700  137.1890 C   0  0  0  0  0  2  0  0  0  0  0  0
  180.7110  179.7270  137.8310 C   0  0  1  0  0  3  0  0  0  0  0  0
  184.8890  178.2720  139.7030 C   0  0  0  0  0  0  0  0  0  0  0  0
  187.3610  176.8950  136.7090 C   0  0  2  0  0  3  0  0  0  0  0  0
  184.4830  177.7890  138.3470 C   0  0  2  0  0  3  0  0  0  0  0  0
  185.6600  179.0880  142.2160 C   0  0  0  0  0  3  0  0  0  0  0  0
  181.2120  177.7740  136.2440 C   0  0  0  0  0  2  0  0  0  0  0  0
  186.6010  178.8070  141.2800 N   0  0  0  0  0  0  0  0  0  0  0  0
  182.6570  177.5390  136.6790 C   0  0  0  0  0  2  0  0  0  0  0  0
  180.7560  178.5930  138.8900 C   0  0  1  0  0  3  0  0  0  0  0  0
  184.3440  178.9360  141.9230 N   0  0  0  0  0  0  0  0  0  0  0  0
  182.4810  178.2380  140.4570 C   0  0  1  0  0  3  0  0  0  0  0  0
  181.6910  180.6980  138.0690 O   0  0  0  0  0  0  0  0  0  0  0  0
  180.9910  181.8990  138.2140 C   0  0  0  0  0  2  0  0  0  0  0  0
  179.7500  184.3080  135.7480 C   0  0  0  0  0  2  0  0  0  0  0  0
  181.5450  184.1600  137.3550 C   0  0  0  0  0  2  0  0  0  0  0  0
  181.1680  182.7500  136.9700 C   0  0  0  0  0  3  0  0  0  0  0  0
  180.9860  185.0270  136.2520 C   0  0  0  0  0  2  0  0  0  0  0  0
  179.8660  182.8630  136.1990 C   0  0  0  0  0  2  0  0  0  0  0  0
  1 26  1  0  0  0  0
  3 19  1  0  0  0  0
  3 16  1  1  0  0  0
  3  7  1  0  0  0  0
  4 23  2  0  0  0  0
  5 11  1  1  0  0  0
  5 15  1  0  0  0  0
  7  6  1  0  0  0  0
  8 12  1  0  0  0  0
  9 27  1  0  0  0  0
 10 17  1  0  0  0  0
 11 20  1  0  0  0  0
 13 20  1  0  0  0  0
 13  9  1  0  0  0  0
 14  2  1  0  0  0  0
 15 12  1  0  0  0  0
 15  4  1  0  0  0  0
 16  8  1  0  0  0  0
 17 28  1  0  0  0  0
 17 25  1  0  0  0  0
 18  4  1  0  0  0  0
 18  1  2  0  0  0  0
 19  6  1  0  0  0  0
 19  5  1  0  0  0  0
 20 18  1  0  0  0  0
 22 10  1  0  0  0  0
 22 24  1  0  0  0  0
 23 21  1  0  0  0  0
 24 13  1  0  0  0  0
 25  9  1  0  0  0  0
 25 14  1  0  0  0  0
 26 21  2  0  0  0  0
 27  1  1  0  0  0  0
 27  2  1  0  0  0  0
 28 29  1  0  0  0  0
 30 34  1  0  0  0  0
 30 33  1  0  0  0  0
 32 31  1  0  0  0  0
 32 29  1  0  0  0  0
 33 31  1  0  0  0  0
 34 32  1  0  0  0  0
M  END
>  <MODEL>
9

>  <REMARK>
 VINA RESULT:      -6.5      3.335      6.734
  Name = 
  3 active torsions:
  status: ('A' for Active; 'I' for Inactive)
    1  A    between atoms: C_17  and  O_28
    2  A    between atoms: O_28  and  C_29
    3  A    between atoms: C_29  and  C_32
                            x       y       z     vdW  Elec       q    Type
                         _______ _______ _______ _____ _____    ______ ____

>  <TORSDO>
F 3

$$$$
