=
 OpenBabel11122410233D

 30 35  0  0  1  0  0  0  0  0999 V2000
  185.4370  178.2080  142.4540 C   0  0  0  0  0  0  0  0  0  0  0  0
  186.2800  178.2650  144.8070 C   0  0  0  0  0  0  0  0  0  0  0  0
  181.4230  178.9510  143.6880 C   0  0  0  0  0  2  0  0  0  0  0  0
  184.3420  178.3200  141.5620 C   0  0  0  0  0  0  0  0  0  0  0  0
  186.7820  177.8220  141.8970 C   0  0  0  0  0  2  0  0  0  0  0  0
  186.2550  178.8350  138.4350 O   0  0  0  0  0  0  0  0  0  0  0  0
  182.6860  176.7300  139.7030 C   0  0  1  0  0  3  0  0  0  0  0  0
  185.9850  178.5810  139.6410 C   0  0  0  0  0  0  0  0  0  0  0  0
  181.5400  177.2860  140.5410 C   0  0  2  0  0  3  0  0  0  0  0  0
  180.8060  178.9340  142.2760 C   0  0  1  0  0  3  0  0  0  0  0  0
  187.0400  178.4380  140.6030 N   0  0  0  0  0  0  0  0  0  0  0  0
  184.5510  178.5220  140.0790 C   0  0  1  0  0  3  0  0  0  0  0  0
  186.0200  178.4470  146.1690 C   0  0  0  0  0  3  0  0  0  0  0  0
  180.4400  177.5310  139.5490 C   0  0  0  0  0  2  0  0  0  0  0  0
  182.0600  175.9810  138.6170 N   0  0  0  0  0  2  0  0  0  0  0  0
  187.5620  178.0170  144.4410 F   0  0  0  0  0  0  0  0  0  0  0  0
  182.8630  178.7020  143.4260 C   0  0  0  0  0  0  0  0  0  0  0  0
  184.7290  178.7200  146.6170 C   0  0  0  0  0  3  0  0  0  0  0  0
  185.2290  178.3570  143.8600 C   0  0  0  0  0  0  0  0  0  0  0  0
  183.0650  178.4970  142.0950 C   0  0  0  0  0  0  0  0  0  0  0  0
  180.3850  180.3390  141.8870 C   0  0  0  0  0  1  0  0  0  0  0  0
  181.8490  178.4600  141.3620 N   0  0  0  0  0  0  0  0  0  0  0  0
  180.6830  176.4670  138.4940 C   0  0  0  0  0  2  0  0  0  0  0  0
  182.9580  178.6920  138.2970 O   0  0  0  0  0  1  0  0  0  0  0  0
  183.6800  178.8130  145.7070 C   0  0  0  0  0  3  0  0  0  0  0  0
  183.9150  178.6350  144.3400 C   0  0  0  0  0  0  0  0  0  0  0  0
  183.6410  177.7740  139.0990 C   0  0  2  0  0  3  0  0  0  0  0  0
  188.4290  178.6480  140.2210 C   0  0  0  0  0  2  0  0  0  0  0  0
  190.5430  177.5620  140.1740 O   0  0  0  0  0  1  0  0  0  0  0  0
  189.3000  177.5510  140.8030 C   0  0  0  0  0  2  0  0  0  0  0  0
  1 19  1  0  0  0  0
  2 13  1  0  0  0  0
  4 20  1  0  0  0  0
  4  1  2  0  0  0  0
  5  1  1  0  0  0  0
  6  8  2  0  0  0  0
  7 15  1  6  0  0  0
  7  9  1  0  0  0  0
  8 11  1  0  0  0  0
  9 14  1  6  0  0  0
  9 22  1  0  0  0  0
 10 21  1  6  0  0  0
 10  3  1  0  0  0  0
 11  5  1  0  0  0  0
 12  8  1  6  0  0  0
 12  4  1  0  0  0  0
 13 18  2  0  0  0  0
 16  2  1  0  0  0  0
 17  3  1  0  0  0  0
 17 26  1  0  0  0  0
 19 26  1  0  0  0  0
 19  2  2  0  0  0  0
 20 17  2  0  0  0  0
 22 20  1  0  0  0  0
 22 10  1  0  0  0  0
 23 15  1  0  0  0  0
 23 14  1  0  0  0  0
 25 18  1  0  0  0  0
 26 25  2  0  0  0  0
 27 24  1  1  0  0  0
 27  7  1  0  0  0  0
 27 12  1  0  0  0  0
 28 11  1  0  0  0  0
 28 30  1  0  0  0  0
 29 30  1  0  0  0  0
M  END
>  <MODEL>
1

>  <REMARK>
 VINA RESULT:      -8.5      0.000      0.000
  Name = 
  2 active torsions:
  status: ('A' for Active; 'I' for Inactive)
    1  A    between atoms: N_11  and  C_28
    2  A    between atoms: C_28  and  C_30
                            x       y       z     vdW  Elec       q    Type
                         _______ _______ _______ _____ _____    ______ ____

>  <TORSDO>
F 2

$$$$
=
 OpenBabel11122410233D

 30 35  0  0  1  0  0  0  0  0999 V2000
  188.1090  177.4580  142.9010 C   0  0  0  0  0  0  0  0  0  0  0  0
  189.5190  176.6830  144.8150 C   0  0  0  0  0  0  0  0  0  0  0  0
  185.0310  178.8520  145.5030 C   0  0  0  0  0  2  0  0  0  0  0  0
  186.9140  178.0740  142.4550 C   0  0  0  0  0  0  0  0  0  0  0  0
  189.0580  176.9010  141.8730 C   0  0  0  0  0  2  0  0  0  0  0  0
  187.9870  178.8800  139.0050 O   0  0  0  0  0  0  0  0  0  0  0  0
  184.4020  177.5000  141.0100 C   0  0  1  0  0  3  0  0  0  0  0  0
  187.9800  178.3990  140.1710 C   0  0  0  0  0  0  0  0  0  0  0  0
  183.7630  178.0920  142.2620 C   0  0  2  0  0  3  0  0  0  0  0  0
  184.0900  179.3610  144.3950 C   0  0  1  0  0  3  0  0  0  0  0  0
  189.1470  177.7460  140.6900 N   0  0  0  0  0  0  0  0  0  0  0  0
  186.7750  178.5950  141.0430 C   0  0  1  0  0  3  0  0  0  0  0  0
  189.7030  176.5640  146.1960 C   0  0  0  0  0  3  0  0  0  0  0  0
  182.5800  178.8590  141.7470 C   0  0  0  0  0  2  0  0  0  0  0  0
  183.3030  177.2450  140.0830 N   0  0  0  0  0  2  0  0  0  0  0  0
  190.5050  176.2210  144.0080 F   0  0  0  0  0  0  0  0  0  0  0  0
  186.1890  178.3210  144.7400 C   0  0  0  0  0  0  0  0  0  0  0  0
  188.7370  177.0300  147.0860 C   0  0  0  0  0  3  0  0  0  0  0  0
  188.3430  177.2830  144.3000 C   0  0  0  0  0  0  0  0  0  0  0  0
  185.9530  178.4250  143.4030 C   0  0  0  0  0  0  0  0  0  0  0  0
  184.0580  180.8780  144.4100 C   0  0  0  0  0  1  0  0  0  0  0  0
  184.6410  178.8920  143.1200 N   0  0  0  0  0  0  0  0  0  0  0  0
  182.1760  178.0820  140.5080 C   0  0  0  0  0  2  0  0  0  0  0  0
  184.9090  179.6240  139.9460 O   0  0  0  0  0  1  0  0  0  0  0  0
  187.5730  177.6210  146.6050 C   0  0  0  0  0  3  0  0  0  0  0  0
  187.3660  177.7530  145.2280 C   0  0  0  0  0  0  0  0  0  0  0  0
  185.4460  178.3860  140.3090 C   0  0  2  0  0  3  0  0  0  0  0  0
  190.3760  177.6870  139.9100 C   0  0  0  0  0  2  0  0  0  0  0  0
  192.7330  177.4250  140.0730 O   0  0  0  0  0  1  0  0  0  0  0  0
  191.5570  177.4160  140.8220 C   0  0  0  0  0  2  0  0  0  0  0  0
  1 19  1  0  0  0  0
  2 13  1  0  0  0  0
  4  1  2  0  0  0  0
  4 20  1  0  0  0  0
  5  1  1  0  0  0  0
  6  8  2  0  0  0  0
  7 15  1  6  0  0  0
  7  9  1  0  0  0  0
  8 11  1  0  0  0  0
  9 14  1  6  0  0  0
  9 22  1  0  0  0  0
 10 21  1  6  0  0  0
 10  3  1  0  0  0  0
 11  5  1  0  0  0  0
 12  8  1  6  0  0  0
 12  4  1  0  0  0  0
 13 18  2  0  0  0  0
 15 23  1  0  0  0  0
 16  2  1  0  0  0  0
 17 26  1  0  0  0  0
 17  3  1  0  0  0  0
 19  2  2  0  0  0  0
 19 26  1  0  0  0  0
 20 17  2  0  0  0  0
 22 20  1  0  0  0  0
 22 10  1  0  0  0  0
 23 14  1  0  0  0  0
 25 18  1  0  0  0  0
 26 25  2  0  0  0  0
 27 24  1  1  0  0  0
 27  7  1  0  0  0  0
 27 12  1  0  0  0  0
 28 11  1  0  0  0  0
 28 30  1  0  0  0  0
 29 30  1  0  0  0  0
M  END
>  <MODEL>
2

>  <REMARK>
 VINA RESULT:      -8.4      2.013      3.138
  Name = 
  2 active torsions:
  status: ('A' for Active; 'I' for Inactive)
    1  A    between atoms: N_11  and  C_28
    2  A    between atoms: C_28  and  C_30
                            x       y       z     vdW  Elec       q    Type
                         _______ _______ _______ _____ _____    ______ ____

>  <TORSDO>
F 2

$$$$
=
 OpenBabel11122410233D

 30 35  0  0  1  0  0  0  0  0999 V2000
  188.5150  177.6120  141.5980 C   0  0  0  0  0  0  0  0  0  0  0  0
  186.6800  178.2260  143.1820 C   0  0  0  0  0  0  0  0  0  0  0  0
  186.0590  178.3470  138.1900 C   0  0  0  0  0  2  0  0  0  0  0  0
  188.9530  177.4610  140.2590 C   0  0  0  0  0  0  0  0  0  0  0  0
  189.4450  177.2010  142.7090 C   0  0  0  0  0  2  0  0  0  0  0  0
  192.5990  177.4100  140.8930 O   0  0  0  0  0  0  0  0  0  0  0  0
  189.7660  175.4070  138.2980 C   0  0  1  0  0  3  0  0  0  0  0  0
  191.3530  177.4060  141.0900 C   0  0  0  0  0  0  0  0  0  0  0  0
  188.6820  176.0560  137.4450 C   0  0  2  0  0  3  0  0  0  0  0  0
  187.1220  177.9880  137.1350 C   0  0  1  0  0  3  0  0  0  0  0  0
  190.8320  177.5390  142.4210 N   0  0  0  0  0  0  0  0  0  0  0  0
  190.4200  177.3510  139.9170 C   0  0  1  0  0  3  0  0  0  0  0  0
  185.3730  178.6800  143.3830 C   0  0  0  0  0  3  0  0  0  0  0  0
  189.2330  176.0120  136.0490 C   0  0  0  0  0  2  0  0  0  0  0  0
  190.3980  174.4040  137.4450 N   0  0  0  0  0  2  0  0  0  0  0  0
  187.4380  177.9870  144.2810 F   0  0  0  0  0  0  0  0  0  0  0  0
  186.7780  178.1390  139.4730 C   0  0  0  0  0  0  0  0  0  0  0  0
  184.5420  178.9600  142.3000 C   0  0  0  0  0  3  0  0  0  0  0  0
  187.1800  178.0460  141.8680 C   0  0  0  0  0  0  0  0  0  0  0  0
  188.0320  177.6660  139.2310 C   0  0  0  0  0  0  0  0  0  0  0  0
  187.5750  179.2470  136.4190 C   0  0  0  0  0  1  0  0  0  0  0  0
  188.2520  177.3960  137.8540 N   0  0  0  0  0  0  0  0  0  0  0  0
  190.0960  174.7640  136.0560 C   0  0  0  0  0  2  0  0  0  0  0  0
  191.5000  177.0330  137.8010 O   0  0  0  0  0  1  0  0  0  0  0  0
  185.0100  178.7890  141.0000 C   0  0  0  0  0  3  0  0  0  0  0  0
  186.3140  178.3370  140.7730 C   0  0  0  0  0  0  0  0  0  0  0  0
  190.8520  176.3540  138.8360 C   0  0  2  0  0  3  0  0  0  0  0  0
  191.7240  177.7500  143.5520 C   0  0  0  0  0  2  0  0  0  0  0  0
  191.8000  177.1360  145.8480 O   0  0  0  0  0  1  0  0  0  0  0  0
  191.5420  176.6410  144.5710 C   0  0  0  0  0  2  0  0  0  0  0  0
  1 19  1  0  0  0  0
  1  5  1  0  0  0  0
  2 13  1  0  0  0  0
  2 16  1  0  0  0  0
  3 17  1  0  0  0  0
  4  1  2  0  0  0  0
  6  8  2  0  0  0  0
  7 15  1  6  0  0  0
  7 27  1  0  0  0  0
  8 11  1  0  0  0  0
  9 14  1  6  0  0  0
  9 22  1  0  0  0  0
  9  7  1  0  0  0  0
 10 21  1  1  0  0  0
 10 22  1  0  0  0  0
 10  3  1  0  0  0  0
 11  5  1  0  0  0  0
 11 28  1  0  0  0  0
 12  4  1  1  0  0  0
 12  8  1  0  0  0  0
 14 23  1  0  0  0  0
 17 26  1  0  0  0  0
 18 13  2  0  0  0  0
 19  2  2  0  0  0  0
 20 17  2  0  0  0  0
 20  4  1  0  0  0  0
 22 20  1  0  0  0  0
 23 15  1  0  0  0  0
 25 18  1  0  0  0  0
 26 25  2  0  0  0  0
 26 19  1  0  0  0  0
 27 24  1  6  0  0  0
 27 12  1  0  0  0  0
 28 30  1  0  0  0  0
 30 29  1  0  0  0  0
M  END
>  <MODEL>
3

>  <REMARK>
 VINA RESULT:      -7.9      3.634      6.230
  Name = 
  2 active torsions:
  status: ('A' for Active; 'I' for Inactive)
    1  A    between atoms: N_11  and  C_28
    2  A    between atoms: C_28  and  C_30
                            x       y       z     vdW  Elec       q    Type
                         _______ _______ _______ _____ _____    ______ ____

>  <TORSDO>
F 2

$$$$
=
 OpenBabel11122410233D

 30 35  0  0  1  0  0  0  0  0999 V2000
  186.3380  178.1650  142.0680 C   0  0  0  0  0  0  0  0  0  0  0  0
  185.6910  178.2360  144.4820 C   0  0  0  0  0  0  0  0  0  0  0  0
  182.4090  179.2360  140.8010 C   0  0  0  0  0  2  0  0  0  0  0  0
  185.9600  178.3280  140.7120 C   0  0  0  0  0  0  0  0  0  0  0  0
  187.7260  177.6650  142.3720 C   0  0  0  0  0  2  0  0  0  0  0  0
  189.3470  178.6030  139.2450 O   0  0  0  0  0  0  0  0  0  0  0  0
  185.5420  176.8040  138.2170 C   0  0  1  0  0  3  0  0  0  0  0  0
  188.4190  178.4080  140.0760 C   0  0  0  0  0  0  0  0  0  0  0  0
  184.1690  177.4680  138.2590 C   0  0  2  0  0  3  0  0  0  0  0  0
  182.7080  179.2180  139.2900 C   0  0  1  0  0  3  0  0  0  0  0  0
  188.7220  178.2190  141.4660 N   0  0  0  0  0  0  0  0  0  0  0  0
  186.9920  178.4670  139.6170 C   0  0  1  0  0  3  0  0  0  0  0  0
  184.7160  178.4800  145.4540 C   0  0  0  0  0  3  0  0  0  0  0  0
  183.8550  177.7600  136.8200 C   0  0  0  0  0  2  0  0  0  0  0  0
  185.5910  176.0680  136.9560 N   0  0  0  0  0  2  0  0  0  0  0  0
  186.9290  177.8840  144.9090 F   0  0  0  0  0  0  0  0  0  0  0  0
  183.7170  178.8750  141.4040 C   0  0  0  0  0  0  0  0  0  0  0  0
  183.4250  178.8590  145.0890 C   0  0  0  0  0  3  0  0  0  0  0  0
  185.3780  178.3740  143.1060 C   0  0  0  0  0  0  0  0  0  0  0  0
  184.6260  178.6130  140.4240 C   0  0  0  0  0  0  0  0  0  0  0  0
  182.6950  180.6370  138.7510 C   0  0  0  0  0  1  0  0  0  0  0  0
  184.0450  178.6410  139.1270 N   0  0  0  0  0  0  0  0  0  0  0  0
  184.5720  176.6480  136.0760 C   0  0  0  0  0  2  0  0  0  0  0  0
  186.7180  178.6950  137.2470 O   0  0  0  0  0  1  0  0  0  0  0  0
  183.0940  178.9990  143.7450 C   0  0  0  0  0  3  0  0  0  0  0  0
  184.0520  178.7610  142.7540 C   0  0  0  0  0  0  0  0  0  0  0  0
  186.7480  177.7550  138.2810 C   0  0  2  0  0  3  0  0  0  0  0  0
  190.0930  178.3160  141.9490 C   0  0  0  0  0  2  0  0  0  0  0  0
  190.9180  179.3560  143.9210 O   0  0  0  0  0  1  0  0  0  0  0  0
  190.1110  178.3150  143.4650 C   0  0  0  0  0  2  0  0  0  0  0  0
  1  5  1  0  0  0  0
  1 19  1  0  0  0  0
  2 16  1  0  0  0  0
  2 13  1  0  0  0  0
  3 17  1  0  0  0  0
  4  1  2  0  0  0  0
  6  8  2  0  0  0  0
  7 15  1  6  0  0  0
  7  9  1  0  0  0  0
  7 27  1  0  0  0  0
  8 11  1  0  0  0  0
  9 14  1  6  0  0  0
  9 22  1  0  0  0  0
 10 21  1  1  0  0  0
 10  3  1  0  0  0  0
 11 28  1  0  0  0  0
 11  5  1  0  0  0  0
 12  8  1  1  0  0  0
 12  4  1  0  0  0  0
 17 26  1  0  0  0  0
 18 13  2  0  0  0  0
 19  2  2  0  0  0  0
 20  4  1  0  0  0  0
 20 17  2  0  0  0  0
 22 10  1  0  0  0  0
 22 20  1  0  0  0  0
 23 14  1  0  0  0  0
 23 15  1  0  0  0  0
 25 18  1  0  0  0  0
 26 19  1  0  0  0  0
 26 25  2  0  0  0  0
 27 24  1  6  0  0  0
 27 12  1  0  0  0  0
 28 30  1  0  0  0  0
 30 29  1  0  0  0  0
M  END
>  <MODEL>
4

>  <REMARK>
 VINA RESULT:      -7.6      1.936      2.820
  Name = 
  2 active torsions:
  status: ('A' for Active; 'I' for Inactive)
    1  A    between atoms: N_11  and  C_28
    2  A    between atoms: C_28  and  C_30
                            x       y       z     vdW  Elec       q    Type
                         _______ _______ _______ _____ _____    ______ ____

>  <TORSDO>
F 2

$$$$
=
 OpenBabel11122410233D

 30 35  0  0  1  0  0  0  0  0999 V2000
  189.1300  177.3790  139.5660 C   0  0  0  0  0  0  0  0  0  0  0  0
  190.8430  176.6390  137.9020 C   0  0  0  0  0  0  0  0  0  0  0  0
  192.0510  177.8200  142.6410 C   0  0  0  0  0  2  0  0  0  0  0  0
  188.8350  177.8140  140.8810 C   0  0  0  0  0  0  0  0  0  0  0  0
  187.9880  177.1490  138.6120 C   0  0  0  0  0  2  0  0  0  0  0  0
  185.4860  179.2490  140.2300 O   0  0  0  0  0  0  0  0  0  0  0  0
  187.4480  176.9730  143.3510 C   0  0  1  0  0  3  0  0  0  0  0  0
  186.5710  178.6270  140.0640 C   0  0  0  0  0  0  0  0  0  0  0  0
  188.8010  177.2650  143.9910 C   0  0  2  0  0  3  0  0  0  0  0  0
  191.0740  178.2840  143.7380 C   0  0  1  0  0  3  0  0  0  0  0  0
  186.9340  178.1430  138.7630 N   0  0  0  0  0  0  0  0  0  0  0  0
  187.5200  178.4790  141.2160 C   0  0  1  0  0  3  0  0  0  0  0  0
  192.1820  176.3770  137.5970 C   0  0  0  0  0  3  0  0  0  0  0  0
  188.4590  177.8580  145.3270 C   0  0  0  0  0  2  0  0  0  0  0  0
  186.5500  176.6400  144.4520 N   0  0  0  0  0  2  0  0  0  0  0  0
  189.9310  176.4790  136.9110 F   0  0  0  0  0  0  0  0  0  0  0  0
  191.1650  177.6190  141.4670 C   0  0  0  0  0  0  0  0  0  0  0  0
  193.1760  176.5340  138.5620 C   0  0  0  0  0  3  0  0  0  0  0  0
  190.4770  177.0700  139.2010 C   0  0  0  0  0  0  0  0  0  0  0  0
  189.8690  177.8510  141.8170 C   0  0  0  0  0  0  0  0  0  0  0  0
  191.3060  179.7530  144.0400 C   0  0  0  0  0  1  0  0  0  0  0  0
  189.7200  178.0970  143.2080 N   0  0  0  0  0  0  0  0  0  0  0  0
  187.1430  177.1870  145.6760 C   0  0  0  0  0  2  0  0  0  0  0  0
  186.6730  179.2740  143.3120 O   0  0  0  0  0  1  0  0  0  0  0  0
  192.8410  176.9540  139.8450 C   0  0  0  0  0  3  0  0  0  0  0  0
  191.5090  177.2230  140.1740 C   0  0  0  0  0  0  0  0  0  0  0  0
  186.8300  178.1220  142.5370 C   0  0  2  0  0  3  0  0  0  0  0  0
  186.0940  178.4170  137.6050 C   0  0  0  0  0  2  0  0  0  0  0  0
  187.1080  178.2530  135.4610 O   0  0  0  0  0  1  0  0  0  0  0  0
  186.4800  177.5050  136.4560 C   0  0  0  0  0  2  0  0  0  0  0  0
  1  4  1  0  0  0  0
  2 19  1  0  0  0  0
  3 10  1  0  0  0  0
  4 12  1  0  0  0  0
  4 20  2  0  0  0  0
  5 11  1  0  0  0  0
  5  1  1  0  0  0  0
  7  9  1  0  0  0  0
  7 15  1  1  0  0  0
  8  6  2  0  0  0  0
  9 14  1  1  0  0  0
 10 21  1  6  0  0  0
 11  8  1  0  0  0  0
 12  8  1  6  0  0  0
 12 27  1  0  0  0  0
 13  2  2  0  0  0  0
 13 18  1  0  0  0  0
 14 23  1  0  0  0  0
 15 23  1  0  0  0  0
 16  2  1  0  0  0  0
 17 20  1  0  0  0  0
 17  3  1  0  0  0  0
 18 25  2  0  0  0  0
 19  1  2  0  0  0  0
 19 26  1  0  0  0  0
 20 22  1  0  0  0  0
 22 10  1  0  0  0  0
 22  9  1  0  0  0  0
 25 26  1  0  0  0  0
 26 17  2  0  0  0  0
 27 24  1  1  0  0  0
 27  7  1  0  0  0  0
 28 11  1  0  0  0  0
 29 30  1  0  0  0  0
 30 28  1  0  0  0  0
M  END
>  <MODEL>
5

>  <REMARK>
 VINA RESULT:      -7.4      4.093      7.599
  Name = 
  2 active torsions:
  status: ('A' for Active; 'I' for Inactive)
    1  A    between atoms: N_11  and  C_28
    2  A    between atoms: C_28  and  C_30
                            x       y       z     vdW  Elec       q    Type
                         _______ _______ _______ _____ _____    ______ ____

>  <TORSDO>
F 2

$$$$
=
 OpenBabel11122410233D

 30 35  0  0  1  0  0  0  0  0999 V2000
  189.4120  177.1190  143.6600 C   0  0  0  0  0  0  0  0  0  0  0  0
  191.2500  175.9800  144.9150 C   0  0  0  0  0  0  0  0  0  0  0  0
  187.3530  178.1380  147.2530 C   0  0  0  0  0  2  0  0  0  0  0  0
  188.1940  177.8410  143.6960 C   0  0  0  0  0  0  0  0  0  0  0  0
  189.9700  176.7190  142.3200 C   0  0  0  0  0  2  0  0  0  0  0  0
  188.2760  179.1990  140.2540 O   0  0  0  0  0  0  0  0  0  0  0  0
  185.3310  177.6070  143.0050 C   0  0  1  0  0  3  0  0  0  0  0  0
  188.5700  178.5230  141.2780 C   0  0  0  0  0  0  0  0  0  0  0  0
  185.1360  177.9930  144.4680 C   0  0  2  0  0  3  0  0  0  0  0  0
  186.1740  178.8610  146.5730 C   0  0  1  0  0  3  0  0  0  0  0  0
  189.7800  177.7530  141.3120 N   0  0  0  0  0  0  0  0  0  0  0  0
  187.6920  178.6030  142.4920 C   0  0  1  0  0  3  0  0  0  0  0  0
  191.8190  175.6170  146.1390 C   0  0  0  0  0  3  0  0  0  0  0  0
  183.9220  178.8750  144.4600 C   0  0  0  0  0  2  0  0  0  0  0  0
  183.9930  177.5520  142.4250 N   0  0  0  0  0  2  0  0  0  0  0  0
  191.9170  175.6330  143.7860 F   0  0  0  0  0  0  0  0  0  0  0  0
  188.1900  177.7110  146.1030 C   0  0  0  0  0  0  0  0  0  0  0  0
  191.1970  175.9530  147.3410 C   0  0  0  0  0  3  0  0  0  0  0  0
  190.0290  176.6970  144.8780 C   0  0  0  0  0  0  0  0  0  0  0  0
  187.5830  178.0530  144.9330 C   0  0  0  0  0  0  0  0  0  0  0  0
  186.2730  180.3530  146.8340 C   0  0  0  0  0  1  0  0  0  0  0  0
  186.2890  178.6030  145.1350 N   0  0  0  0  0  0  0  0  0  0  0  0
  183.1110  178.3370  143.2940 C   0  0  0  0  0  2  0  0  0  0  0  0
  185.6790  179.8660  142.1830 O   0  0  0  0  0  1  0  0  0  0  0  0
  189.9950  176.6550  147.3310 C   0  0  0  0  0  3  0  0  0  0  0  0
  189.4070  177.0290  146.1190 C   0  0  0  0  0  0  0  0  0  0  0  0
  186.1940  178.5670  142.1690 C   0  0  2  0  0  3  0  0  0  0  0  0
  190.7180  177.7910  140.1990 C   0  0  0  0  0  2  0  0  0  0  0  0
  192.9250  177.1330  139.6110 O   0  0  0  0  0  1  0  0  0  0  0  0
  192.1210  177.4900  140.6910 C   0  0  0  0  0  2  0  0  0  0  0  0
  1  4  2  0  0  0  0
  1 19  1  0  0  0  0
  2 13  1  0  0  0  0
  4 20  1  0  0  0  0
  5  1  1  0  0  0  0
  6  8  2  0  0  0  0
  7 15  1  6  0  0  0
  7  9  1  0  0  0  0
  8 11  1  0  0  0  0
  9 14  1  6  0  0  0
  9 22  1  0  0  0  0
 10 21  1  6  0  0  0
 10  3  1  0  0  0  0
 11  5  1  0  0  0  0
 12  8  1  6  0  0  0
 12  4  1  0  0  0  0
 13 18  2  0  0  0  0
 15 23  1  0  0  0  0
 16  2  1  0  0  0  0
 17 26  1  0  0  0  0
 17  3  1  0  0  0  0
 19  2  2  0  0  0  0
 19 26  1  0  0  0  0
 20 22  1  0  0  0  0
 20 17  2  0  0  0  0
 22 10  1  0  0  0  0
 23 14  1  0  0  0  0
 25 18  1  0  0  0  0
 26 25  2  0  0  0  0
 27 24  1  1  0  0  0
 27 12  1  0  0  0  0
 27  7  1  0  0  0  0
 28 30  1  0  0  0  0
 28 11  1  0  0  0  0
 29 30  1  0  0  0  0
M  END
>  <MODEL>
6

>  <REMARK>
 VINA RESULT:      -7.4      3.074      5.166
  Name = 
  2 active torsions:
  status: ('A' for Active; 'I' for Inactive)
    1  A    between atoms: N_11  and  C_28
    2  A    between atoms: C_28  and  C_30
                            x       y       z     vdW  Elec       q    Type
                         _______ _______ _______ _____ _____    ______ ____

>  <TORSDO>
F 2

$$$$
=
 OpenBabel11122410233D

 30 35  0  0  1  0  0  0  0  0999 V2000
  184.5070  178.8830  141.3090 C   0  0  0  0  0  0  0  0  0  0  0  0
  186.9790  178.6580  141.0110 C   0  0  0  0  0  0  0  0  0  0  0  0
  183.7450  177.8470  137.2420 C   0  0  0  0  0  2  0  0  0  0  0  0
  183.2110  178.7980  140.7430 C   0  0  0  0  0  0  0  0  0  0  0  0
  184.6410  179.3790  142.7240 C   0  0  0  0  0  2  0  0  0  0  0  0
  181.2640  178.6510  143.8870 O   0  0  0  0  0  0  0  0  0  0  0  0
  180.8990  180.4670  139.9700 C   0  0  1  0  0  3  0  0  0  0  0  0
  182.2290  178.7850  143.0860 C   0  0  0  0  0  0  0  0  0  0  0  0
  181.0930  179.7860  138.6190 C   0  0  2  0  0  3  0  0  0  0  0  0
  182.2110  177.9600  137.3230 C   0  0  1  0  0  3  0  0  0  0  0  0
  183.5710  178.8920  143.5840 N   0  0  0  0  0  0  0  0  0  0  0  0
  181.9740  178.7380  141.6090 C   0  0  1  0  0  3  0  0  0  0  0  0
  188.0620  178.3450  140.1850 C   0  0  0  0  0  3  0  0  0  0  0  0
  179.6990  179.5780  138.1040 C   0  0  0  0  0  2  0  0  0  0  0  0
  179.6920  181.2780  139.8380 N   0  0  0  0  0  2  0  0  0  0  0  0
  187.2470  178.9970  142.2970 F   0  0  0  0  0  0  0  0  0  0  0  0
  184.1780  178.1850  138.6220 C   0  0  0  0  0  0  0  0  0  0  0  0
  187.8610  177.9730  138.8570 C   0  0  0  0  0  3  0  0  0  0  0  0
  185.6550  178.6000  140.5070 C   0  0  0  0  0  0  0  0  0  0  0  0
  183.0970  178.5160  139.3810 C   0  0  0  0  0  0  0  0  0  0  0  0
  181.5930  176.5760  137.2370 C   0  0  0  0  0  1  0  0  0  0  0  0
  181.8970  178.5610  138.6230 N   0  0  0  0  0  0  0  0  0  0  0  0
  178.9310  180.7410  138.7060 C   0  0  0  0  0  2  0  0  0  0  0  0
  179.6570  178.6520  141.0010 O   0  0  0  0  0  1  0  0  0  0  0  0
  186.5710  177.9120  138.3380 C   0  0  0  0  0  3  0  0  0  0  0  0
  185.4710  178.2200  139.1450 C   0  0  0  0  0  0  0  0  0  0  0  0
  180.7330  179.5260  141.1760 C   0  0  2  0  0  3  0  0  0  0  0  0
  183.8470  178.7810  145.0090 C   0  0  0  0  0  2  0  0  0  0  0  0
  185.5030  179.3980  146.6000 O   0  0  0  0  0  1  0  0  0  0  0  0
  185.3230  179.0170  145.2720 C   0  0  0  0  0  2  0  0  0  0  0  0
  1  5  1  0  0  0  0
  2 16  1  0  0  0  0
  3 10  1  0  0  0  0
  3 17  1  0  0  0  0
  4  1  1  0  0  0  0
  5 11  1  0  0  0  0
  7 15  1  6  0  0  0
  7 27  1  0  0  0  0
  8 11  1  0  0  0  0
  8  6  2  0  0  0  0
  9 14  1  1  0  0  0
  9 22  1  0  0  0  0
  9  7  1  0  0  0  0
 10 21  1  1  0  0  0
 10 22  1  0  0  0  0
 11 28  1  0  0  0  0
 12  4  1  6  0  0  0
 12  8  1  0  0  0  0
 13  2  2  0  0  0  0
 14 23  1  0  0  0  0
 17 26  2  0  0  0  0
 17 20  1  0  0  0  0
 18 13  1  0  0  0  0
 19  2  1  0  0  0  0
 19  1  2  0  0  0  0
 20  4  2  0  0  0  0
 22 20  1  0  0  0  0
 23 15  1  0  0  0  0
 25 18  2  0  0  0  0
 25 26  1  0  0  0  0
 26 19  1  0  0  0  0
 27 24  1  6  0  0  0
 27 12  1  0  0  0  0
 28 30  1  0  0  0  0
 30 29  1  0  0  0  0
M  END
>  <MODEL>
7

>  <REMARK>
 VINA RESULT:      -6.9      2.705      5.127
  Name = 
  2 active torsions:
  status: ('A' for Active; 'I' for Inactive)
    1  A    between atoms: N_11  and  C_28
    2  A    between atoms: C_28  and  C_30
                            x       y       z     vdW  Elec       q    Type
                         _______ _______ _______ _____ _____    ______ ____

>  <TORSDO>
F 2

$$$$
=
 OpenBabel11122410233D

 30 35  0  0  1  0  0  0  0  0999 V2000
  185.5210  178.7160  140.5980 C   0  0  0  0  0  0  0  0  0  0  0  0
  187.9980  178.5340  140.3080 C   0  0  0  0  0  0  0  0  0  0  0  0
  184.7760  177.3060  136.6430 C   0  0  0  0  0  2  0  0  0  0  0  0
  184.2270  178.5460  140.0490 C   0  0  0  0  0  0  0  0  0  0  0  0
  185.6470  179.3380  141.9640 C   0  0  0  0  0  2  0  0  0  0  0  0
  182.2950  178.6230  143.2060 O   0  0  0  0  0  0  0  0  0  0  0  0
  181.8660  180.0760  139.1470 C   0  0  1  0  0  3  0  0  0  0  0  0
  183.2530  178.7120  142.3900 C   0  0  0  0  0  0  0  0  0  0  0  0
  182.0750  179.2850  137.8600 C   0  0  2  0  0  3  0  0  0  0  0  0
  183.2400  177.3830  136.7230 C   0  0  1  0  0  3  0  0  0  0  0  0
  184.5930  178.8990  142.8690 N   0  0  0  0  0  0  0  0  0  0  0  0
  182.9950  178.5280  140.9240 C   0  0  1  0  0  3  0  0  0  0  0  0
  189.0870  178.1800  139.5060 C   0  0  0  0  0  3  0  0  0  0  0  0
  180.6850  178.9940  137.3730 C   0  0  0  0  0  2  0  0  0  0  0  0
  180.6360  180.8390  138.9500 N   0  0  0  0  0  2  0  0  0  0  0  0
  188.2600  178.9930  141.5570 F   0  0  0  0  0  0  0  0  0  0  0  0
  185.2040  177.7770  137.9850 C   0  0  0  0  0  0  0  0  0  0  0  0
  188.8920  177.6880  138.2160 C   0  0  0  0  0  3  0  0  0  0  0  0
  186.6750  178.3960  139.8180 C   0  0  0  0  0  0  0  0  0  0  0  0
  184.1160  178.1430  138.7180 C   0  0  0  0  0  0  0  0  0  0  0  0
  182.6600  175.9810  136.7620 C   0  0  0  0  0  1  0  0  0  0  0  0
  182.9130  178.0870  137.9660 N   0  0  0  0  0  0  0  0  0  0  0  0
  179.8870  180.1830  137.8740 C   0  0  0  0  0  2  0  0  0  0  0  0
  180.6790  178.3250  140.3400 O   0  0  0  0  0  1  0  0  0  0  0  0
  187.6030  177.5460  137.7120 C   0  0  0  0  0  3  0  0  0  0  0  0
  186.4970  177.8930  138.4950 C   0  0  0  0  0  0  0  0  0  0  0  0
  181.7310  179.2410  140.4310 C   0  0  2  0  0  3  0  0  0  0  0  0
  184.8780  178.9220  144.2970 C   0  0  0  0  0  2  0  0  0  0  0  0
  186.6490  178.3800  145.7860 O   0  0  0  0  0  1  0  0  0  0  0  0
  186.0140  177.9690  144.6160 C   0  0  0  0  0  2  0  0  0  0  0  0
  1  5  1  0  0  0  0
  2 16  1  0  0  0  0
  3 10  1  0  0  0  0
  3 17  1  0  0  0  0
  4  1  1  0  0  0  0
  5 11  1  0  0  0  0
  7 15  1  6  0  0  0
  7 27  1  0  0  0  0
  8 11  1  0  0  0  0
  8  6  2  0  0  0  0
  9 14  1  1  0  0  0
  9 22  1  0  0  0  0
  9  7  1  0  0  0  0
 10 21  1  1  0  0  0
 10 22  1  0  0  0  0
 11 28  1  0  0  0  0
 12  4  1  6  0  0  0
 12  8  1  0  0  0  0
 13  2  2  0  0  0  0
 14 23  1  0  0  0  0
 17 26  2  0  0  0  0
 17 20  1  0  0  0  0
 18 13  1  0  0  0  0
 19  2  1  0  0  0  0
 19  1  2  0  0  0  0
 20  4  2  0  0  0  0
 22 20  1  0  0  0  0
 23 15  1  0  0  0  0
 25 18  2  0  0  0  0
 25 26  1  0  0  0  0
 26 19  1  0  0  0  0
 27 24  1  6  0  0  0
 27 12  1  0  0  0  0
 28 30  1  0  0  0  0
 30 29  1  0  0  0  0
M  END
>  <MODEL>
8

>  <REMARK>
 VINA RESULT:      -6.9      2.594      5.161
  Name = 
  2 active torsions:
  status: ('A' for Active; 'I' for Inactive)
    1  A    between atoms: N_11  and  C_28
    2  A    between atoms: C_28  and  C_30
                            x       y       z     vdW  Elec       q    Type
                         _______ _______ _______ _____ _____    ______ ____

>  <TORSDO>
F 2

$$$$
=
 OpenBabel11122410233D

 30 35  0  0  1  0  0  0  0  0999 V2000
  187.3450  178.1940  140.1700 C   0  0  0  0  0  0  0  0  0  0  0  0
  185.1720  178.9950  139.2280 C   0  0  0  0  0  0  0  0  0  0  0  0
  185.8390  178.2500  144.1600 C   0  0  0  0  0  2  0  0  0  0  0  0
  188.1010  177.8180  141.3070 C   0  0  0  0  0  0  0  0  0  0  0  0
  188.0360  178.2460  138.8330 C   0  0  0  0  0  2  0  0  0  0  0  0
  190.8220  176.0120  139.5640 O   0  0  0  0  0  0  0  0  0  0  0  0
  190.3980  178.6710  142.9580 C   0  0  1  0  0  3  0  0  0  0  0  0
  189.8030  176.7280  139.7680 C   0  0  0  0  0  0  0  0  0  0  0  0
  189.3870  178.5580  144.0940 C   0  0  2  0  0  3  0  0  0  0  0  0
  187.1330  177.7610  144.8360 C   0  0  1  0  0  3  0  0  0  0  0  0
  188.9940  177.1630  138.6650 N   0  0  0  0  0  0  0  0  0  0  0  0
  189.3940  177.0460  141.1750 C   0  0  1  0  0  3  0  0  0  0  0  0
  183.8410  179.3700  139.4370 C   0  0  0  0  0  3  0  0  0  0  0  0
  190.1840  178.0220  145.2480 C   0  0  0  0  0  2  0  0  0  0  0  0
  191.6760  178.9820  143.5910 N   0  0  0  0  0  2  0  0  0  0  0  0
  185.6320  178.9980  137.9530 F   0  0  0  0  0  0  0  0  0  0  0  0
  186.2060  178.2830  142.7210 C   0  0  0  0  0  0  0  0  0  0  0  0
  183.2960  179.3770  140.7200 C   0  0  0  0  0  3  0  0  0  0  0  0
  185.9870  178.6130  140.3230 C   0  0  0  0  0  0  0  0  0  0  0  0
  187.5160  177.9450  142.5670 C   0  0  0  0  0  0  0  0  0  0  0  0
  186.9390  176.3450  145.3470 C   0  0  0  0  0  1  0  0  0  0  0  0
  188.1810  177.7760  143.8110 N   0  0  0  0  0  0  0  0  0  0  0  0
  191.5730  178.5770  144.9970 C   0  0  0  0  0  2  0  0  0  0  0  0
  190.9380  176.3060  142.8520 O   0  0  0  0  0  1  0  0  0  0  0  0
  184.0780  179.0090  141.8110 C   0  0  0  0  0  3  0  0  0  0  0  0
  185.4110  178.6280  141.6280 C   0  0  0  0  0  0  0  0  0  0  0  0
  190.5690  177.4160  142.0870 C   0  0  2  0  0  3  0  0  0  0  0  0
  189.2930  176.7310  137.3070 C   0  0  0  0  0  2  0  0  0  0  0  0
  187.4480  175.2350  137.2170 O   0  0  0  0  0  1  0  0  0  0  0  0
  188.0130  176.3440  136.5910 C   0  0  0  0  0  2  0  0  0  0  0  0
  1 19  2  0  0  0  0
  1  4  1  0  0  0  0
  2 13  2  0  0  0  0
  2 19  1  0  0  0  0
  3 10  1  0  0  0  0
  4 20  2  0  0  0  0
  5  1  1  0  0  0  0
  6  8  2  0  0  0  0
  7 15  1  1  0  0  0
  7  9  1  0  0  0  0
  9 14  1  1  0  0  0
 10 21  1  6  0  0  0
 11  5  1  0  0  0  0
 11  8  1  0  0  0  0
 12  8  1  6  0  0  0
 12  4  1  0  0  0  0
 12 27  1  0  0  0  0
 13 18  1  0  0  0  0
 15 23  1  0  0  0  0
 16  2  1  0  0  0  0
 17  3  1  0  0  0  0
 18 25  2  0  0  0  0
 19 26  1  0  0  0  0
 20 17  1  0  0  0  0
 20 22  1  0  0  0  0
 22  9  1  0  0  0  0
 22 10  1  0  0  0  0
 23 14  1  0  0  0  0
 26 25  1  0  0  0  0
 26 17  2  0  0  0  0
 27 24  1  1  0  0  0
 27  7  1  0  0  0  0
 28 11  1  0  0  0  0
 30 29  1  0  0  0  0
 30 28  1  0  0  0  0
M  END
>  <MODEL>
9

>  <REMARK>
 VINA RESULT:      -6.8      3.264      6.623
  Name = 
  2 active torsions:
  status: ('A' for Active; 'I' for Inactive)
    1  A    between atoms: N_11  and  C_28
    2  A    between atoms: C_28  and  C_30
                            x       y       z     vdW  Elec       q    Type
                         _______ _______ _______ _____ _____    ______ ____

>  <TORSDO>
F 2

$$$$
