=
 OpenBabel11122410243D

 30 35  0  0  1  0  0  0  0  0999 V2000
  189.2250  177.4390  143.4990 C   0  0  1  0  0  3  0  0  0  0  0  0
  191.2050  176.5480  144.8450 C   0  0  0  0  0  0  0  0  0  0  0  0
  187.0570  178.0390  147.2130 C   0  0  0  0  0  2  0  0  0  0  0  0
  187.8900  178.2210  143.6020 C   0  0  1  0  0  3  0  0  0  0  0  0
  190.0630  178.0550  142.5510 O   0  0  0  0  0  0  0  0  0  0  0  0
  187.4210  178.3680  139.8570 C   0  0  0  0  0  1  0  0  0  0  0  0
  184.7680  178.0000  142.8180 C   0  0  1  0  0  3  0  0  0  0  0  0
  188.0560  178.5620  141.2320 C   0  0  2  0  0  3  0  0  0  0  0  0
  184.5990  177.9680  144.3370 C   0  0  2  0  0  3  0  0  0  0  0  0
  185.7710  178.3470  146.5430 C   0  0  0  0  0  0  0  0  0  0  0  0
  189.4590  177.9080  141.2790 C   0  0  2  0  0  3  0  0  0  0  0  0
  187.1830  178.0700  142.3190 N   0  0  2  0  0  0  0  0  0  0  0  0
  191.7970  176.2280  146.0680 C   0  0  0  0  0  3  0  0  0  0  0  0
  183.4910  178.9600  144.6280 C   0  0  0  0  0  2  0  0  0  0  0  0
  183.4570  178.5260  142.2500 C   0  0  0  0  0  2  0  0  0  0  0  0
  191.8750  176.2380  143.6680 O   0  0  0  0  0  1  0  0  0  0  0  0
  187.9720  178.1000  146.0140 C   0  0  2  0  0  3  0  0  0  0  0  0
  191.1210  176.5110  147.2560 C   0  0  0  0  0  3  0  0  0  0  0  0
  189.9430  177.1660  144.8170 C   0  0  0  0  0  0  0  0  0  0  0  0
  187.1290  177.6810  144.8210 C   0  0  1  0  0  3  0  0  0  0  0  0
  184.7200  178.6100  147.1860 O   0  0  0  0  0  0  0  0  0  0  0  0
  185.8160  178.2540  145.1130 N   0  0  0  0  0  0  0  0  0  0  0  0
  182.5730  178.8830  143.4310 C   0  0  0  0  0  2  0  0  0  0  0  0
  186.0270  180.2680  142.8380 C   0  0  0  0  0  1  0  0  0  0  0  0
  189.8890  177.0840  147.2220 N   0  0  0  0  0  0  0  0  0  0  0  0
  189.2800  177.3860  146.0440 C   0  0  0  0  0  0  0  0  0  0  0  0
  185.9300  178.8380  142.2890 C   0  0  2  0  0  3  0  0  0  0  0  0
  189.4760  176.4510  140.8030 C   0  0  0  0  0  2  0  0  0  0  0  0
  190.4390  176.4560  138.8200 C   0  0  0  0  0  1  0  0  0  0  0  0
  190.6830  176.1750  140.1620 O   0  0  0  0  0  0  0  0  0  0  0  0
  1  5  1  6  0  0  0
  1  4  1  0  0  0  0
  1 19  1  0  0  0  0
  2 13  1  0  0  0  0
  4 20  1  0  0  0  0
  6  8  1  0  0  0  0
  7  9  1  0  0  0  0
  8 11  1  0  0  0  0
  8 12  1  0  0  0  0
  9 14  1  0  0  0  0
  9 22  1  0  0  0  0
 10 21  2  0  0  0  0
 10  3  1  0  0  0  0
 11  5  1  0  0  0  0
 12  4  1  0  0  0  0
 13 18  2  0  0  0  0
 15  7  1  0  0  0  0
 15 23  1  0  0  0  0
 16  2  1  0  0  0  0
 17 26  1  0  0  0  0
 17  3  1  0  0  0  0
 19  2  2  0  0  0  0
 19 26  1  0  0  0  0
 20 22  1  0  0  0  0
 20 17  1  0  0  0  0
 22 10  1  0  0  0  0
 23 14  1  0  0  0  0
 25 18  1  0  0  0  0
 26 25  2  0  0  0  0
 27 12  1  0  0  0  0
 27  7  1  0  0  0  0
 27 24  1  0  0  0  0
 28 11  1  0  0  0  0
 29 30  1  0  0  0  0
 30 28  1  0  0  0  0
M  END
>  <MODEL>
1

>  <REMARK>
 VINA RESULT:      -9.3      0.000      0.000
  Name = 
  2 active torsions:
  status: ('A' for Active; 'I' for Inactive)
    1  A    between atoms: C_11  and  C_28
    2  A    between atoms: C_28  and  O_30
                            x       y       z     vdW  Elec       q    Type
                         _______ _______ _______ _____ _____    ______ ____

>  <TORSDO>
F 2

$$$$
=
 OpenBabel11122410243D

 30 35  0  0  1  0  0  0  0  0999 V2000
  187.2380  178.2000  140.5780 C   0  0  1  0  0  3  0  0  0  0  0  0
  184.9480  178.9690  139.7460 C   0  0  0  0  0  0  0  0  0  0  0  0
  185.6170  177.9440  144.5970 C   0  0  0  0  0  2  0  0  0  0  0  0
  187.9830  177.5420  141.7680 C   0  0  1  0  0  3  0  0  0  0  0  0
  187.4950  177.4750  139.3990 O   0  0  0  0  0  0  0  0  0  0  0  0
  191.2460  177.2840  139.8830 C   0  0  0  0  0  1  0  0  0  0  0  0
  190.4970  178.0030  143.7380 C   0  0  1  0  0  3  0  0  0  0  0  0
  189.7710  177.0910  140.2330 C   0  0  2  0  0  3  0  0  0  0  0  0
  189.3920  178.1120  144.7890 C   0  0  2  0  0  3  0  0  0  0  0  0
  186.9360  177.7230  145.2360 C   0  0  0  0  0  0  0  0  0  0  0  0
  188.8690  177.6210  139.0920 C   0  0  2  0  0  3  0  0  0  0  0  0
  189.4290  177.7020  141.5350 N   0  0  2  0  0  0  0  0  0  0  0  0
  183.6110  179.2860  139.9900 C   0  0  0  0  0  3  0  0  0  0  0  0
  189.8540  177.2330  145.9340 C   0  0  0  0  0  2  0  0  0  0  0  0
  191.7550  177.5710  144.4780 C   0  0  0  0  0  2  0  0  0  0  0  0
  185.4700  179.1700  138.4740 O   0  0  0  0  0  1  0  0  0  0  0  0
  186.0150  177.7550  143.1540 C   0  0  2  0  0  3  0  0  0  0  0  0
  183.0840  179.1120  141.2700 C   0  0  0  0  0  3  0  0  0  0  0  0
  185.7500  178.4620  140.7840 C   0  0  0  0  0  0  0  0  0  0  0  0
  187.4650  178.1970  143.0570 C   0  0  1  0  0  3  0  0  0  0  0  0
  187.0690  177.5790  146.4800 O   0  0  0  0  0  0  0  0  0  0  0  0
  188.0430  177.7530  144.3250 N   0  0  0  0  0  0  0  0  0  0  0  0
  191.3610  177.3410  145.9250 C   0  0  0  0  0  2  0  0  0  0  0  0
  189.7640  175.6360  142.9690 C   0  0  0  0  0  1  0  0  0  0  0  0
  183.8710  178.6470  142.2760 N   0  0  0  0  0  0  0  0  0  0  0  0
  185.1830  178.3520  142.0720 C   0  0  0  0  0  0  0  0  0  0  0  0
  190.2280  177.0460  142.5780 C   0  0  2  0  0  3  0  0  0  0  0  0
  189.2070  179.0510  138.6520 C   0  0  0  0  0  2  0  0  0  0  0  0
  189.1480  178.2820  136.5870 C   0  0  0  0  0  1  0  0  0  0  0  0
  188.6570  179.3040  137.3960 O   0  0  0  0  0  0  0  0  0  0  0  0
  1  5  1  6  0  0  0
  1 19  1  0  0  0  0
  1  4  1  0  0  0  0
  2 13  2  0  0  0  0
  2 19  1  0  0  0  0
  3 10  1  0  0  0  0
  4 20  1  0  0  0  0
  6  8  1  0  0  0  0
  7 15  1  0  0  0  0
  7  9  1  0  0  0  0
  8 12  1  0  0  0  0
  9 14  1  0  0  0  0
 10 21  2  0  0  0  0
 11  5  1  0  0  0  0
 11  8  1  0  0  0  0
 12  4  1  0  0  0  0
 12 27  1  0  0  0  0
 13 18  1  0  0  0  0
 15 23  1  0  0  0  0
 16  2  1  0  0  0  0
 17  3  1  0  0  0  0
 18 25  2  0  0  0  0
 19 26  2  0  0  0  0
 20 17  1  0  0  0  0
 20 22  1  0  0  0  0
 22  9  1  0  0  0  0
 22 10  1  0  0  0  0
 23 14  1  0  0  0  0
 26 25  1  0  0  0  0
 26 17  1  0  0  0  0
 27 24  1  0  0  0  0
 27  7  1  0  0  0  0
 28 11  1  0  0  0  0
 29 30  1  0  0  0  0
 30 28  1  0  0  0  0
M  END
>  <MODEL>
2

>  <REMARK>
 VINA RESULT:      -9.1      2.297      5.688
  Name = 
  2 active torsions:
  status: ('A' for Active; 'I' for Inactive)
    1  A    between atoms: C_11  and  C_28
    2  A    between atoms: C_28  and  O_30
                            x       y       z     vdW  Elec       q    Type
                         _______ _______ _______ _____ _____    ______ ____

>  <TORSDO>
F 2

$$$$
=
 OpenBabel11122410243D

 30 35  0  0  1  0  0  0  0  0999 V2000
  186.4060  178.2520  142.7620 C   0  0  1  0  0  3  0  0  0  0  0  0
  186.8950  178.1760  145.2690 C   0  0  0  0  0  0  0  0  0  0  0  0
  182.2120  178.9150  143.6680 C   0  0  0  0  0  2  0  0  0  0  0  0
  185.3480  178.6570  141.7040 C   0  0  1  0  0  3  0  0  0  0  0  0
  187.6300  178.8870  142.4770 O   0  0  0  0  0  0  0  0  0  0  0  0
  187.6680  177.9960  138.7970 C   0  0  0  0  0  1  0  0  0  0  0  0
  183.7270  177.4780  139.1740 C   0  0  1  0  0  3  0  0  0  0  0  0
  187.1260  178.5970  140.0930 C   0  0  2  0  0  3  0  0  0  0  0  0
  182.5330  177.6760  140.1070 C   0  0  2  0  0  3  0  0  0  0  0  0
  181.7660  178.7440  142.2650 C   0  0  0  0  0  0  0  0  0  0  0  0
  188.1170  178.3580  141.2580 C   0  0  2  0  0  3  0  0  0  0  0  0
  185.7720  178.0940  140.4100 N   0  0  2  0  0  0  0  0  0  0  0  0
  186.4610  178.2500  146.5930 C   0  0  0  0  0  3  0  0  0  0  0  0
  181.4880  178.3750  139.2600 C   0  0  0  0  0  2  0  0  0  0  0  0
  183.1790  177.5260  137.7560 C   0  0  0  0  0  2  0  0  0  0  0  0
  188.2190  177.8480  145.0070 O   0  0  0  0  0  1  0  0  0  0  0  0
  183.7010  178.9990  143.4380 C   0  0  2  0  0  3  0  0  0  0  0  0
  185.1270  178.5530  146.8660 C   0  0  0  0  0  3  0  0  0  0  0  0
  185.9910  178.4220  144.2200 C   0  0  0  0  0  0  0  0  0  0  0  0
  183.9820  178.1630  142.2010 C   0  0  1  0  0  3  0  0  0  0  0  0
  180.5560  178.8300  141.9250 O   0  0  0  0  0  0  0  0  0  0  0  0
  182.8180  178.4100  141.3500 N   0  0  0  0  0  0  0  0  0  0  0  0
  181.6990  177.8420  137.8630 C   0  0  0  0  0  2  0  0  0  0  0  0
  184.4580  179.9640  139.3060 C   0  0  0  0  0  1  0  0  0  0  0  0
  184.2520  178.7630  145.8480 N   0  0  0  0  0  0  0  0  0  0  0  0
  184.6410  178.6750  144.5480 C   0  0  0  0  0  0  0  0  0  0  0  0
  184.8670  178.4840  139.3190 C   0  0  2  0  0  3  0  0  0  0  0  0
  188.5560  176.8960  141.4030 C   0  0  0  0  0  2  0  0  0  0  0  0
  190.0980  175.9750  142.6820 C   0  0  0  0  0  1  0  0  0  0  0  0
  189.9360  176.8320  141.5960 O   0  0  0  0  0  0  0  0  0  0  0  0
  1  5  1  6  0  0  0
  1 19  1  0  0  0  0
  2 13  1  0  0  0  0
  4 20  1  0  0  0  0
  4  1  1  0  0  0  0
  6  8  1  0  0  0  0
  7 27  1  0  0  0  0
  7  9  1  0  0  0  0
  8 12  1  0  0  0  0
  8 11  1  0  0  0  0
  9 22  1  0  0  0  0
 10  3  1  0  0  0  0
 11 28  1  0  0  0  0
 11  5  1  0  0  0  0
 12  4  1  0  0  0  0
 13 18  2  0  0  0  0
 14  9  1  0  0  0  0
 15 23  1  0  0  0  0
 15  7  1  0  0  0  0
 16  2  1  0  0  0  0
 17  3  1  0  0  0  0
 17 26  1  0  0  0  0
 19 26  1  0  0  0  0
 19  2  2  0  0  0  0
 20 17  1  0  0  0  0
 21 10  2  0  0  0  0
 22 20  1  0  0  0  0
 22 10  1  0  0  0  0
 23 14  1  0  0  0  0
 24 27  1  0  0  0  0
 25 18  1  0  0  0  0
 26 25  2  0  0  0  0
 27 12  1  0  0  0  0
 28 30  1  0  0  0  0
 30 29  1  0  0  0  0
M  END
>  <MODEL>
3

>  <REMARK>
 VINA RESULT:      -7.6      2.588      4.397
  Name = 
  2 active torsions:
  status: ('A' for Active; 'I' for Inactive)
    1  A    between atoms: C_11  and  C_28
    2  A    between atoms: C_28  and  O_30
                            x       y       z     vdW  Elec       q    Type
                         _______ _______ _______ _____ _____    ______ ____

>  <TORSDO>
F 2

$$$$
=
 OpenBabel11122410243D

 30 35  0  0  1  0  0  0  0  0999 V2000
  188.0760  177.7900  142.3220 C   0  0  1  0  0  3  0  0  0  0  0  0
  186.8640  178.0110  144.5610 C   0  0  0  0  0  0  0  0  0  0  0  0
  184.4360  179.0300  140.3060 C   0  0  0  0  0  2  0  0  0  0  0  0
  188.0050  178.1570  140.8170 C   0  0  1  0  0  3  0  0  0  0  0  0
  189.2950  178.2400  142.8630 O   0  0  0  0  0  0  0  0  0  0  0  0
  191.4730  176.8450  140.0970 C   0  0  0  0  0  1  0  0  0  0  0  0
  188.1510  176.8220  137.8830 C   0  0  1  0  0  3  0  0  0  0  0  0
  190.3540  177.6770  140.7220 C   0  0  2  0  0  3  0  0  0  0  0  0
  186.6940  177.2790  137.8260 C   0  0  2  0  0  3  0  0  0  0  0  0
  184.9460  178.7150  138.9510 C   0  0  0  0  0  0  0  0  0  0  0  0
  190.3360  177.4960  142.2590 C   0  0  2  0  0  3  0  0  0  0  0  0
  189.0390  177.3760  140.1170 N   0  0  2  0  0  0  0  0  0  0  0  0
  185.7190  178.3170  145.2960 C   0  0  0  0  0  3  0  0  0  0  0  0
  186.5510  177.9630  136.4810 C   0  0  0  0  0  2  0  0  0  0  0  0
  188.6310  176.7320  136.4410 C   0  0  0  0  0  2  0  0  0  0  0  0
  187.9780  177.5060  145.2200 O   0  0  0  0  0  1  0  0  0  0  0  0
  185.7260  178.9170  141.0800 C   0  0  2  0  0  3  0  0  0  0  0  0
  184.5860  178.8000  144.6390 C   0  0  0  0  0  3  0  0  0  0  0  0
  186.8770  178.2060  143.1680 C   0  0  0  0  0  0  0  0  0  0  0  0
  186.5690  177.8910  140.3420 C   0  0  1  0  0  3  0  0  0  0  0  0
  184.2530  178.8850  137.9120 O   0  0  0  0  0  0  0  0  0  0  0  0
  186.2600  178.1430  138.9350 N   0  0  0  0  0  0  0  0  0  0  0  0
  187.4940  177.2200  135.5640 C   0  0  0  0  0  2  0  0  0  0  0  0
  189.0560  179.2060  138.3590 C   0  0  0  0  0  1  0  0  0  0  0  0
  184.5950  178.9610  143.2900 N   0  0  0  0  0  0  0  0  0  0  0  0
  185.6900  178.6490  142.5460 C   0  0  0  0  0  0  0  0  0  0  0  0
  189.1020  177.7070  138.6860 C   0  0  2  0  0  3  0  0  0  0  0  0
  190.3260  176.0290  142.7070 C   0  0  0  0  0  2  0  0  0  0  0  0
  191.4100  176.4060  144.5890 C   0  0  0  0  0  1  0  0  0  0  0  0
  191.5120  175.7280  143.3760 O   0  0  0  0  0  0  0  0  0  0  0  0
  1  5  1  1  0  0  0
  1 19  1  0  0  0  0
  2 16  1  0  0  0  0
  2 13  1  0  0  0  0
  3 17  1  0  0  0  0
  4  1  1  0  0  0  0
  6  8  1  0  0  0  0
  7 27  1  0  0  0  0
  8 11  1  0  0  0  0
  9  7  1  0  0  0  0
  9 22  1  0  0  0  0
 10  3  1  0  0  0  0
 11 28  1  0  0  0  0
 11  5  1  0  0  0  0
 12  8  1  0  0  0  0
 12  4  1  0  0  0  0
 14  9  1  0  0  0  0
 15  7  1  0  0  0  0
 17 26  1  0  0  0  0
 18 13  2  0  0  0  0
 19  2  2  0  0  0  0
 20  4  1  0  0  0  0
 20 17  1  0  0  0  0
 21 10  2  0  0  0  0
 22 10  1  0  0  0  0
 22 20  1  0  0  0  0
 23 15  1  0  0  0  0
 23 14  1  0  0  0  0
 24 27  1  0  0  0  0
 25 18  1  0  0  0  0
 26 19  1  0  0  0  0
 26 25  2  0  0  0  0
 27 12  1  0  0  0  0
 28 30  1  0  0  0  0
 30 29  1  0  0  0  0
M  END
>  <MODEL>
4

>  <REMARK>
 VINA RESULT:      -7.5      2.490      5.711
  Name = 
  2 active torsions:
  status: ('A' for Active; 'I' for Inactive)
    1  A    between atoms: C_11  and  C_28
    2  A    between atoms: C_28  and  O_30
                            x       y       z     vdW  Elec       q    Type
                         _______ _______ _______ _____ _____    ______ ____

>  <TORSDO>
F 2

$$$$
=
 OpenBabel11122410243D

 30 35  0  0  1  0  0  0  0  0999 V2000
  187.1990  177.8790  140.0470 C   0  0  1  0  0  3  0  0  0  0  0  0
  189.0770  177.1150  138.4910 C   0  0  0  0  0  0  0  0  0  0  0  0
  189.9720  177.6770  143.3810 C   0  0  0  0  0  2  0  0  0  0  0  0
  186.8930  178.4410  141.4590 C   0  0  1  0  0  3  0  0  0  0  0  0
  186.6450  178.7260  139.0690 O   0  0  0  0  0  0  0  0  0  0  0  0
  183.2360  179.0010  140.6940 C   0  0  0  0  0  1  0  0  0  0  0  0
  185.0670  177.8770  144.0600 C   0  0  1  0  0  3  0  0  0  0  0  0
  184.7570  179.1050  140.5900 C   0  0  2  0  0  3  0  0  0  0  0  0
  186.4280  177.6250  144.7080 C   0  0  2  0  0  3  0  0  0  0  0  0
  188.9240  177.8800  144.4100 C   0  0  0  0  0  0  0  0  0  0  0  0
  185.2360  178.6590  139.1870 C   0  0  2  0  0  3  0  0  0  0  0  0
  185.4370  178.3560  141.6680 N   0  0  2  0  0  0  0  0  0  0  0  0
  190.4010  176.7280  138.2860 C   0  0  0  0  0  3  0  0  0  0  0  0
  186.3920  178.4020  146.0090 C   0  0  0  0  0  2  0  0  0  0  0  0
  184.1230  178.2780  145.1830 C   0  0  0  0  0  2  0  0  0  0  0  0
  188.1830  177.0590  137.4290 O   0  0  0  0  0  1  0  0  0  0  0  0
  189.1700  178.0220  142.1520 C   0  0  2  0  0  3  0  0  0  0  0  0
  191.3010  176.7550  139.3520 C   0  0  0  0  0  3  0  0  0  0  0  0
  188.6600  177.5440  139.7640 C   0  0  0  0  0  0  0  0  0  0  0  0
  187.7330  177.6440  142.4680 C   0  0  1  0  0  3  0  0  0  0  0  0
  189.1830  177.9040  145.6430 O   0  0  0  0  0  0  0  0  0  0  0  0
  187.5940  177.9800  143.8840 N   0  0  0  0  0  0  0  0  0  0  0  0
  184.9490  178.3490  146.4540 C   0  0  0  0  0  2  0  0  0  0  0  0
  185.6840  180.2800  143.3030 C   0  0  0  0  0  1  0  0  0  0  0  0
  190.8860  177.1450  140.5860 N   0  0  0  0  0  0  0  0  0  0  0  0
  189.5960  177.5050  140.8200 C   0  0  0  0  0  0  0  0  0  0  0  0
  185.0340  178.9340  142.9580 C   0  0  2  0  0  3  0  0  0  0  0  0
  184.6900  177.2930  138.7550 C   0  0  0  0  0  2  0  0  0  0  0  0
  184.7520  175.7610  137.1700 C   0  0  0  0  0  1  0  0  0  0  0  0
  184.8390  177.1360  137.3770 O   0  0  0  0  0  0  0  0  0  0  0  0
  1  5  1  6  0  0  0
  1  4  1  0  0  0  0
  2 19  1  0  0  0  0
  3 10  1  0  0  0  0
  4 12  1  0  0  0  0
  4 20  1  0  0  0  0
  5 11  1  0  0  0  0
  7  9  1  0  0  0  0
  7 15  1  0  0  0  0
  8  6  1  0  0  0  0
  8 12  1  0  0  0  0
  9 14  1  0  0  0  0
 10 21  2  0  0  0  0
 11  8  1  0  0  0  0
 12 27  1  0  0  0  0
 13  2  2  0  0  0  0
 13 18  1  0  0  0  0
 14 23  1  0  0  0  0
 15 23  1  0  0  0  0
 16  2  1  0  0  0  0
 17 20  1  0  0  0  0
 17  3  1  0  0  0  0
 18 25  2  0  0  0  0
 19  1  1  0  0  0  0
 19 26  2  0  0  0  0
 20 22  1  0  0  0  0
 22 10  1  0  0  0  0
 22  9  1  0  0  0  0
 25 26  1  0  0  0  0
 26 17  1  0  0  0  0
 27 24  1  0  0  0  0
 27  7  1  0  0  0  0
 28 11  1  0  0  0  0
 29 30  1  0  0  0  0
 30 28  1  0  0  0  0
M  END
>  <MODEL>
5

>  <REMARK>
 VINA RESULT:      -7.3      2.420      4.697
  Name = 
  2 active torsions:
  status: ('A' for Active; 'I' for Inactive)
    1  A    between atoms: C_11  and  C_28
    2  A    between atoms: C_28  and  O_30
                            x       y       z     vdW  Elec       q    Type
                         _______ _______ _______ _____ _____    ______ ____

>  <TORSDO>
F 2

$$$$
=
 OpenBabel11122410243D

 30 35  0  0  1  0  0  0  0  0999 V2000
  186.6910  178.1630  144.7810 C   0  0  1  0  0  3  0  0  0  0  0  0
  184.2140  178.5390  145.2830 C   0  0  0  0  0  0  0  0  0  0  0  0
  185.8540  178.7500  140.5610 C   0  0  0  0  0  2  0  0  0  0  0  0
  187.7880  178.3270  143.6980 C   0  0  1  0  0  3  0  0  0  0  0  0
  187.0950  178.8030  145.9670 O   0  0  0  0  0  0  0  0  0  0  0  0
  190.5720  177.3050  146.0390 C   0  0  0  0  0  1  0  0  0  0  0  0
  190.0610  176.6540  142.1320 C   0  0  1  0  0  3  0  0  0  0  0  0
  189.3900  178.0880  145.4700 C   0  0  2  0  0  3  0  0  0  0  0  0
  189.1590  176.9450  140.9330 C   0  0  2  0  0  3  0  0  0  0  0  0
  187.2030  178.3210  140.1190 C   0  0  0  0  0  0  0  0  0  0  0  0
  188.2140  178.1020  146.4770 C   0  0  2  0  0  3  0  0  0  0  0  0
  188.9740  177.5760  144.1460 N   0  0  2  0  0  0  0  0  0  0  0  0
  182.9160  178.8130  144.8520 C   0  0  0  0  0  3  0  0  0  0  0  0
  190.0980  177.4340  139.8480 C   0  0  0  0  0  2  0  0  0  0  0  0
  191.4600  176.4320  141.5760 C   0  0  0  0  0  2  0  0  0  0  0  0
  184.4340  178.2410  146.6230 O   0  0  0  0  0  1  0  0  0  0  0  0
  186.1150  178.8710  142.0420 C   0  0  2  0  0  3  0  0  0  0  0  0
  182.6800  179.0880  143.5040 C   0  0  0  0  0  3  0  0  0  0  0  0
  185.2770  178.5560  144.3630 C   0  0  0  0  0  0  0  0  0  0  0  0
  187.1970  177.8540  142.3630 C   0  0  1  0  0  3  0  0  0  0  0  0
  187.5360  178.2850  138.9050 O   0  0  0  0  0  0  0  0  0  0  0  0
  188.0620  177.8920  141.1840 N   0  0  0  0  0  0  0  0  0  0  0  0
  191.3880  176.6840  140.0820 C   0  0  0  0  0  2  0  0  0  0  0  0
  190.3600  179.1610  142.7290 C   0  0  0  0  0  1  0  0  0  0  0  0
  183.7080  179.0770  142.6150 N   0  0  0  0  0  0  0  0  0  0  0  0
  184.9790  178.7900  143.0040 C   0  0  0  0  0  0  0  0  0  0  0  0
  190.1030  177.7280  143.2170 C   0  0  2  0  0  3  0  0  0  0  0  0
  187.8290  176.7110  146.9950 C   0  0  0  0  0  2  0  0  0  0  0  0
  188.0060  177.6870  148.9640 C   0  0  0  0  0  1  0  0  0  0  0  0
  188.3440  176.5230  148.2780 O   0  0  0  0  0  0  0  0  0  0  0  0
  1 19  1  6  0  0  0
  1  5  1  0  0  0  0
  2 16  1  0  0  0  0
  3 17  1  0  0  0  0
  4 12  1  0  0  0  0
  4  1  1  0  0  0  0
  5 11  1  0  0  0  0
  7 27  1  0  0  0  0
  8  6  1  0  0  0  0
  8 11  1  0  0  0  0
  9 22  1  0  0  0  0
  9  7  1  0  0  0  0
 10  3  1  0  0  0  0
 10 22  1  0  0  0  0
 11 28  1  0  0  0  0
 12  8  1  0  0  0  0
 13  2  1  0  0  0  0
 14 23  1  0  0  0  0
 14  9  1  0  0  0  0
 15  7  1  0  0  0  0
 17 20  1  0  0  0  0
 17 26  1  0  0  0  0
 18 13  2  0  0  0  0
 19  2  2  0  0  0  0
 20  4  1  0  0  0  0
 21 10  2  0  0  0  0
 22 20  1  0  0  0  0
 23 15  1  0  0  0  0
 24 27  1  0  0  0  0
 25 26  2  0  0  0  0
 25 18  1  0  0  0  0
 26 19  1  0  0  0  0
 27 12  1  0  0  0  0
 28 30  1  0  0  0  0
 30 29  1  0  0  0  0
M  END
>  <MODEL>
6

>  <REMARK>
 VINA RESULT:      -7.1      2.036      6.638
  Name = 
  2 active torsions:
  status: ('A' for Active; 'I' for Inactive)
    1  A    between atoms: C_11  and  C_28
    2  A    between atoms: C_28  and  O_30
                            x       y       z     vdW  Elec       q    Type
                         _______ _______ _______ _____ _____    ______ ____

>  <TORSDO>
F 2

$$$$
=
 OpenBabel11122410243D

 30 35  0  0  1  0  0  0  0  0999 V2000
  187.1510  178.0100  141.5400 C   0  0  1  0  0  3  0  0  0  0  0  0
  188.4160  177.6500  143.7320 C   0  0  0  0  0  0  0  0  0  0  0  0
  183.5110  178.6360  143.8230 C   0  0  0  0  0  2  0  0  0  0  0  0
  185.8310  178.5450  140.9290 C   0  0  1  0  0  3  0  0  0  0  0  0
  188.2480  178.6520  140.9370 O   0  0  0  0  0  0  0  0  0  0  0  0
  187.0560  178.1710  137.3750 C   0  0  0  0  0  1  0  0  0  0  0  0
  183.4250  177.6780  138.9610 C   0  0  1  0  0  3  0  0  0  0  0  0
  186.9900  178.6340  138.8300 C   0  0  2  0  0  3  0  0  0  0  0  0
  182.6060  177.7920  140.2470 C   0  0  2  0  0  3  0  0  0  0  0  0
  182.6290  178.6280  142.6310 C   0  0  0  0  0  0  0  0  0  0  0  0
  188.2900  178.2530  139.5800 C   0  0  2  0  0  3  0  0  0  0  0  0
  185.7870  178.1220  139.5190 N   0  0  2  0  0  0  0  0  0  0  0  0
  188.4360  177.5850  145.1250 C   0  0  0  0  0  3  0  0  0  0  0  0
  181.3810  178.5960  139.8600 C   0  0  0  0  0  2  0  0  0  0  0  0
  182.4520  177.8910  137.8100 C   0  0  0  0  0  2  0  0  0  0  0  0
  189.5670  177.3320  143.0220 O   0  0  0  0  0  1  0  0  0  0  0  0
  184.8490  178.7210  143.1300 C   0  0  2  0  0  3  0  0  0  0  0  0
  187.2770  177.8780  145.8460 C   0  0  0  0  0  3  0  0  0  0  0  0
  187.2360  178.0240  143.0630 C   0  0  0  0  0  0  0  0  0  0  0  0
  184.6740  178.0220  141.7920 C   0  0  1  0  0  3  0  0  0  0  0  0
  181.3800  178.7700  142.7130 O   0  0  0  0  0  0  0  0  0  0  0  0
  183.3130  178.3790  141.3950 N   0  0  0  0  0  0  0  0  0  0  0  0
  181.1030  178.2170  138.4240 C   0  0  0  0  0  2  0  0  0  0  0  0
  184.2840  180.1220  139.0940 C   0  0  0  0  0  1  0  0  0  0  0  0
  186.1330  178.2130  145.1940 N   0  0  0  0  0  0  0  0  0  0  0  0
  186.0790  178.2610  143.8360 C   0  0  0  0  0  0  0  0  0  0  0  0
  184.6000  178.6440  138.8260 C   0  0  2  0  0  3  0  0  0  0  0  0
  188.6780  176.7770  139.4290 C   0  0  0  0  0  2  0  0  0  0  0  0
  190.5860  177.0530  138.3600 C   0  0  0  0  0  1  0  0  0  0  0  0
  190.0570  176.6310  139.5770 O   0  0  0  0  0  0  0  0  0  0  0  0
  1  5  1  6  0  0  0
  1 19  1  0  0  0  0
  2 13  1  0  0  0  0
  4  1  1  0  0  0  0
  4 20  1  0  0  0  0
  6  8  1  0  0  0  0
  7  9  1  0  0  0  0
  8 12  1  0  0  0  0
  8 11  1  0  0  0  0
  9 22  1  0  0  0  0
 10 21  2  0  0  0  0
 10  3  1  0  0  0  0
 11  5  1  0  0  0  0
 12  4  1  0  0  0  0
 13 18  2  0  0  0  0
 14  9  1  0  0  0  0
 15 23  1  0  0  0  0
 15  7  1  0  0  0  0
 16  2  1  0  0  0  0
 17  3  1  0  0  0  0
 17 26  1  0  0  0  0
 19  2  2  0  0  0  0
 19 26  1  0  0  0  0
 20 17  1  0  0  0  0
 22 20  1  0  0  0  0
 22 10  1  0  0  0  0
 23 14  1  0  0  0  0
 25 18  1  0  0  0  0
 26 25  2  0  0  0  0
 27  7  1  0  0  0  0
 27 24  1  0  0  0  0
 27 12  1  0  0  0  0
 28 30  1  0  0  0  0
 28 11  1  0  0  0  0
 29 30  1  0  0  0  0
M  END
>  <MODEL>
7

>  <REMARK>
 VINA RESULT:      -6.9      2.445      3.801
  Name = 
  2 active torsions:
  status: ('A' for Active; 'I' for Inactive)
    1  A    between atoms: C_11  and  C_28
    2  A    between atoms: C_28  and  O_30
                            x       y       z     vdW  Elec       q    Type
                         _______ _______ _______ _____ _____    ______ ____

>  <TORSDO>
F 2

$$$$
=
 OpenBabel11122410243D

 30 35  0  0  1  0  0  0  0  0999 V2000
  184.5960  178.4040  140.5370 C   0  0  1  0  0  3  0  0  0  0  0  0
  185.1480  178.0450  138.0680 C   0  0  0  0  0  0  0  0  0  0  0  0
  188.8400  178.2490  141.4380 C   0  0  0  0  0  2  0  0  0  0  0  0
  185.2000  178.7830  141.9130 C   0  0  1  0  0  3  0  0  0  0  0  0
  183.5190  179.2600  140.2390 O   0  0  0  0  0  0  0  0  0  0  0  0
  181.8280  178.9290  143.6110 C   0  0  0  0  0  1  0  0  0  0  0  0
  185.3930  177.7380  144.9610 C   0  0  1  0  0  3  0  0  0  0  0  0
  182.9550  179.2420  142.6280 C   0  0  2  0  0  3  0  0  0  0  0  0
  186.8730  177.6060  144.6060 C   0  0  2  0  0  3  0  0  0  0  0  0
  188.6410  178.2140  142.9070 C   0  0  0  0  0  0  0  0  0  0  0  0
  182.4880  178.9980  141.1720 C   0  0  2  0  0  3  0  0  0  0  0  0
  184.1880  178.4890  142.9430 N   0  0  2  0  0  0  0  0  0  0  0  0
  186.0800  177.8570  137.0470 C   0  0  0  0  0  3  0  0  0  0  0  0
  187.6110  178.2430  145.7670 C   0  0  0  0  0  2  0  0  0  0  0  0
  185.3240  177.9020  146.4730 C   0  0  0  0  0  2  0  0  0  0  0  0
  183.7920  177.9750  137.7690 O   0  0  0  0  0  1  0  0  0  0  0  0
  187.4360  178.6020  141.0150 C   0  0  2  0  0  3  0  0  0  0  0  0
  187.4440  177.9000  137.3420 C   0  0  0  0  0  3  0  0  0  0  0  0
  185.5850  178.2920  139.3820 C   0  0  0  0  0  0  0  0  0  0  0  0
  186.5180  178.0100  142.0710 C   0  0  1  0  0  3  0  0  0  0  0  0
  189.6030  178.1540  143.7180 O   0  0  0  0  0  0  0  0  0  0  0  0
  187.2670  178.1880  143.3140 N   0  0  0  0  0  0  0  0  0  0  0  0
  186.7540  177.9590  146.9780 C   0  0  0  0  0  2  0  0  0  0  0  0
  185.3040  180.2630  144.3730 C   0  0  0  0  0  1  0  0  0  0  0  0
  187.8600  178.1120  138.6180 N   0  0  0  0  0  0  0  0  0  0  0  0
  186.9730  178.2760  139.6360 C   0  0  0  0  0  0  0  0  0  0  0  0
  184.6400  178.8820  144.2850 C   0  0  2  0  0  3  0  0  0  0  0  0
  181.8530  177.6200  140.9500 C   0  0  0  0  0  2  0  0  0  0  0  0
  179.6950  177.1690  140.9540 C   0  0  0  0  0  1  0  0  0  0  0  0
  180.6980  177.7480  140.1790 O   0  0  0  0  0  0  0  0  0  0  0  0
  1 19  1  6  0  0  0
  1  4  1  0  0  0  0
  2 19  1  0  0  0  0
  3 10  1  0  0  0  0
  4 20  1  0  0  0  0
  4 12  1  0  0  0  0
  5  1  1  0  0  0  0
  5 11  1  0  0  0  0
  7 15  1  0  0  0  0
  8 12  1  0  0  0  0
  8  6  1  0  0  0  0
  9  7  1  0  0  0  0
  9 14  1  0  0  0  0
 10 22  1  0  0  0  0
 10 21  2  0  0  0  0
 11  8  1  0  0  0  0
 12 27  1  0  0  0  0
 13 18  1  0  0  0  0
 13  2  2  0  0  0  0
 14 23  1  0  0  0  0
 15 23  1  0  0  0  0
 16  2  1  0  0  0  0
 17  3  1  0  0  0  0
 17 20  1  0  0  0  0
 18 25  2  0  0  0  0
 19 26  2  0  0  0  0
 20 22  1  0  0  0  0
 22  9  1  0  0  0  0
 25 26  1  0  0  0  0
 26 17  1  0  0  0  0
 27 24  1  0  0  0  0
 27  7  1  0  0  0  0
 28 11  1  0  0  0  0
 30 28  1  0  0  0  0
 30 29  1  0  0  0  0
M  END
>  <MODEL>
8

>  <REMARK>
 VINA RESULT:      -6.8      2.972      6.645
  Name = 
  2 active torsions:
  status: ('A' for Active; 'I' for Inactive)
    1  A    between atoms: C_11  and  C_28
    2  A    between atoms: C_28  and  O_30
                            x       y       z     vdW  Elec       q    Type
                         _______ _______ _______ _____ _____    ______ ____

>  <TORSDO>
F 2

$$$$
=
 OpenBabel11122410243D

 30 35  0  0  1  0  0  0  0  0999 V2000
  189.4520  177.1650  138.3320 C   0  0  1  0  0  3  0  0  0  0  0  0
  191.2150  176.4100  136.6430 C   0  0  0  0  0  0  0  0  0  0  0  0
  192.4840  177.0680  141.4380 C   0  0  0  0  0  2  0  0  0  0  0  0
  189.2480  177.7440  139.7550 C   0  0  1  0  0  3  0  0  0  0  0  0
  188.8060  177.9860  137.3880 O   0  0  0  0  0  0  0  0  0  0  0  0
  185.5320  178.2250  139.2760 C   0  0  0  0  0  1  0  0  0  0  0  0
  187.6460  177.1900  142.5010 C   0  0  1  0  0  3  0  0  0  0  0  0
  187.0370  178.3560  139.0490 C   0  0  2  0  0  3  0  0  0  0  0  0
  189.0580  176.9730  143.0420 C   0  0  2  0  0  3  0  0  0  0  0  0
  191.5170  177.2690  142.5440 C   0  0  0  0  0  0  0  0  0  0  0  0
  187.4120  177.8950  137.6190 C   0  0  2  0  0  3  0  0  0  0  0  0
  187.8150  177.6370  140.0810 N   0  0  2  0  0  0  0  0  0  0  0  0
  192.5260  176.0440  136.3390 C   0  0  0  0  0  3  0  0  0  0  0  0
  189.1100  177.7710  144.3300 C   0  0  0  0  0  2  0  0  0  0  0  0
  186.7850  177.5920  143.6900 C   0  0  0  0  0  2  0  0  0  0  0  0
  190.2410  176.3210  135.6560 O   0  0  0  0  0  1  0  0  0  0  0  0
  191.5800  177.3790  140.2710 C   0  0  2  0  0  3  0  0  0  0  0  0
  193.5070  176.1060  137.3300 C   0  0  0  0  0  3  0  0  0  0  0  0
  190.8920  176.8530  137.9380 C   0  0  0  0  0  0  0  0  0  0  0  0
  190.1800  176.9800  140.7060 C   0  0  1  0  0  3  0  0  0  0  0  0
  191.8730  177.3180  143.7520 O   0  0  0  0  0  0  0  0  0  0  0  0
  190.1480  177.3360  142.1240 N   0  0  0  0  0  0  0  0  0  0  0  0
  187.7080  177.6980  144.8900 C   0  0  0  0  0  2  0  0  0  0  0  0
  188.1530  179.5920  141.6630 C   0  0  0  0  0  1  0  0  0  0  0  0
  193.1840  176.5080  138.5870 N   0  0  0  0  0  0  0  0  0  0  0  0
  191.9090  176.8480  138.9170 C   0  0  0  0  0  0  0  0  0  0  0  0
  187.5040  178.2280  141.3900 C   0  0  2  0  0  3  0  0  0  0  0  0
  186.8600  176.5130  137.2520 C   0  0  0  0  0  2  0  0  0  0  0  0
  185.8700  177.3070  135.4500 C   0  0  0  0  0  1  0  0  0  0  0  0
  186.8150  176.3720  135.8650 O   0  0  0  0  0  0  0  0  0  0  0  0
  1  5  1  6  0  0  0
  1  4  1  0  0  0  0
  2 19  1  0  0  0  0
  3 10  1  0  0  0  0
  4 12  1  0  0  0  0
  4 20  1  0  0  0  0
  5 11  1  0  0  0  0
  7  9  1  0  0  0  0
  7 15  1  0  0  0  0
  8  6  1  0  0  0  0
  8 12  1  0  0  0  0
  9 14  1  0  0  0  0
 10 21  2  0  0  0  0
 11  8  1  0  0  0  0
 12 27  1  0  0  0  0
 13  2  2  0  0  0  0
 13 18  1  0  0  0  0
 14 23  1  0  0  0  0
 15 23  1  0  0  0  0
 16  2  1  0  0  0  0
 17 20  1  0  0  0  0
 17  3  1  0  0  0  0
 18 25  2  0  0  0  0
 19  1  1  0  0  0  0
 19 26  2  0  0  0  0
 20 22  1  0  0  0  0
 22 10  1  0  0  0  0
 22  9  1  0  0  0  0
 25 26  1  0  0  0  0
 26 17  1  0  0  0  0
 27 24  1  0  0  0  0
 27  7  1  0  0  0  0
 28 11  1  0  0  0  0
 29 30  1  0  0  0  0
 30 28  1  0  0  0  0
M  END
>  <MODEL>
9

>  <REMARK>
 VINA RESULT:      -6.6      3.007      6.098
  Name = 
  2 active torsions:
  status: ('A' for Active; 'I' for Inactive)
    1  A    between atoms: C_11  and  C_28
    2  A    between atoms: C_28  and  O_30
                            x       y       z     vdW  Elec       q    Type
                         _______ _______ _______ _____ _____    ______ ____

>  <TORSDO>
F 2

$$$$
