=
 OpenBabel11122410533D

 32 37  0  0  1  0  0  0  0  0999 V2000
  182.7410  177.3210  139.4890 C   0  0  0  0  0  2  0  0  0  0  0  0
  186.2250  178.1790  142.3120 C   0  0  2  0  0  3  0  0  0  0  0  0
  189.7590  177.1370  139.0200 C   0  0  0  0  0  3  0  0  0  0  0  0
  190.5670  176.6490  140.0470 C   0  0  0  0  0  3  0  0  0  0  0  0
  186.7830  177.8640  144.7280 C   0  0  0  0  0  0  0  0  0  0  0  0
  187.7210  177.5980  145.7200 C   0  0  0  0  0  0  0  0  0  0  0  0
  184.0840  179.3380  141.6240 C   0  0  1  0  0  3  0  0  0  0  0  0
  185.8450  178.6400  139.8780 C   0  0  0  0  0  2  0  0  0  0  0  0
  189.6160  177.1040  146.5630 C   0  0  0  0  0  0  0  0  0  0  0  0
  183.6850  179.6600  139.0460 C   0  0  0  0  0  2  0  0  0  0  0  0
  188.5470  177.7620  139.3230 C   0  0  0  0  0  3  0  0  0  0  0  0
  186.8820  178.6560  141.0030 C   0  0  2  0  0  3  0  0  0  0  0  0
  188.1200  177.8800  140.6570 C   0  0  0  0  0  0  0  0  0  0  0  0
  188.5050  177.5610  143.0970 C   0  0  0  0  0  0  0  0  0  0  0  0
  188.7790  177.2100  147.6200 N   0  0  0  0  0  0  0  0  0  0  0  0
  183.4290  177.1230  140.8420 C   0  0  0  0  0  2  0  0  0  0  0  0
  184.6840  179.5800  140.2090 C   0  0  1  0  0  3  0  0  0  0  0  0
  187.5680  177.5230  147.0930 C   0  0  0  0  0  3  0  0  0  0  0  0
  183.1280  178.2230  141.7560 N   0  0  0  0  0  2  0  0  0  0  0  0
  182.4310  178.7900  139.1790 C   0  0  1  0  0  3  0  0  0  0  0  0
  190.1640  176.7910  141.3760 C   0  0  0  0  0  3  0  0  0  0  0  0
  188.9430  177.4140  141.6910 C   0  0  0  0  0  0  0  0  0  0  0  0
  189.4250  177.2810  144.1270 C   0  0  0  0  0  3  0  0  0  0  0  0
  185.1820  179.2440  142.6860 C   0  0  0  0  0  2  0  0  0  0  0  0
  185.5730  178.0250  145.0500 O   0  0  0  0  0  0  0  0  0  0  0  0
  191.0570  176.7500  146.6870 C   0  0  0  0  0  1  0  0  0  0  0  0
  187.2000  177.9190  143.4070 N   0  0  0  0  0  0  0  0  0  0  0  0
  188.9860  177.3370  145.4020 N   0  0  0  0  0  0  0  0  0  0  0  0
  181.6080  178.9030  137.9050 C   0  0  0  0  0  2  0  0  0  0  0  0
  180.8930  180.2140  137.8350 C   0  0  0  0  0  0  0  0  0  0  0  0
  180.8040  180.8620  136.6780 C   0  0  0  0  0  2  0  0  0  0  0  0
  180.2120  180.7630  139.0420 C   0  0  0  0  0  1  0  0  0  0  0  0
  1 16  1  0  0  0  0
  2 24  1  1  0  0  0
  2 27  1  0  0  0  0
  3 11  2  0  0  0  0
  3  4  1  0  0  0  0
  4 21  2  0  0  0  0
  5 25  2  0  0  0  0
  5  6  1  0  0  0  0
  6 18  2  0  0  0  0
  7 19  1  0  0  0  0
  7 24  1  1  0  0  0
  8 17  1  0  0  0  0
  9 26  1  0  0  0  0
  9 15  2  0  0  0  0
 10 20  1  0  0  0  0
 11 13  1  0  0  0  0
 12  8  1  6  0  0  0
 12  2  1  0  0  0  0
 13 12  1  0  0  0  0
 13 22  2  0  0  0  0
 14 27  1  0  0  0  0
 14 23  2  0  0  0  0
 16 19  1  0  0  0  0
 17 10  1  6  0  0  0
 17  7  1  0  0  0  0
 18 15  1  0  0  0  0
 20 29  1  6  0  0  0
 20  1  1  0  0  0  0
 21 22  1  0  0  0  0
 22 14  1  0  0  0  0
 23 28  1  0  0  0  0
 27  5  1  0  0  0  0
 28  6  1  0  0  0  0
 28  9  1  0  0  0  0
 30 29  1  0  0  0  0
 30 32  1  0  0  0  0
 31 30  2  0  0  0  0
M  END
>  <MODEL>
1

>  <REMARK>
 VINA RESULT:      -8.8      0.000      0.000
  Name = 
  2 active torsions:
  status: ('A' for Active; 'I' for Inactive)
    1  A    between atoms: C_20  and  C_29
    2  A    between atoms: C_29  and  C_30
                            x       y       z     vdW  Elec       q    Type
                         _______ _______ _______ _____ _____    ______ ____

>  <TORSDO>
F 2

$$$$
=
 OpenBabel11122410533D

 32 37  0  0  1  0  0  0  0  0999 V2000
  181.4930  181.2200  138.7960 C   0  0  0  0  0  2  0  0  0  0  0  0
  184.8580  178.6100  140.4410 C   0  0  2  0  0  3  0  0  0  0  0  0
  183.4660  178.9810  145.1680 C   0  0  0  0  0  3  0  0  0  0  0  0
  184.8020  178.9240  145.5620 C   0  0  0  0  0  3  0  0  0  0  0  0
  187.2810  178.1960  139.9920 C   0  0  0  0  0  0  0  0  0  0  0  0
  188.5570  177.8970  140.4600 C   0  0  0  0  0  0  0  0  0  0  0  0
  183.1570  178.4600  138.5750 C   0  0  1  0  0  3  0  0  0  0  0  0
  182.4290  178.8300  141.0180 C   0  0  0  0  0  2  0  0  0  0  0  0
  190.0940  177.4970  141.8820 C   0  0  0  0  0  0  0  0  0  0  0  0
  180.6400  178.8450  139.2300 C   0  0  0  0  0  2  0  0  0  0  0  0
  183.1260  178.7820  143.8280 C   0  0  0  0  0  3  0  0  0  0  0  0
  183.7620  178.2120  141.4480 C   0  0  2  0  0  3  0  0  0  0  0  0
  184.1220  178.5490  142.8650 C   0  0  0  0  0  0  0  0  0  0  0  0
  186.5120  178.1960  142.2560 C   0  0  0  0  0  0  0  0  0  0  0  0
  190.7150  177.4790  140.6810 N   0  0  0  0  0  0  0  0  0  0  0  0
  182.9820  180.8740  138.8770 C   0  0  0  0  0  2  0  0  0  0  0  0
  182.0260  178.3190  139.6340 C   0  0  1  0  0  3  0  0  0  0  0  0
  189.7440  177.7350  139.7680 C   0  0  0  0  0  3  0  0  0  0  0  0
  183.3250  179.7900  137.9590 N   0  0  0  0  0  2  0  0  0  0  0  0
  180.6300  180.0560  138.2930 C   0  0  1  0  0  3  0  0  0  0  0  0
  185.7960  178.6630  144.6170 C   0  0  0  0  0  3  0  0  0  0  0  0
  185.4630  178.4650  143.2650 C   0  0  0  0  0  0  0  0  0  0  0  0
  187.8200  177.9090  142.6960 C   0  0  0  0  0  3  0  0  0  0  0  0
  184.4900  177.9340  139.1110 C   0  0  0  0  0  2  0  0  0  0  0  0
  187.1120  178.4140  138.7600 O   0  0  0  0  0  0  0  0  0  0  0  0
  190.7980  177.2790  143.1770 C   0  0  0  0  0  1  0  0  0  0  0  0
  186.2350  178.2720  140.8970 N   0  0  0  0  0  0  0  0  0  0  0  0
  188.7820  177.7500  141.7630 N   0  0  0  0  0  0  0  0  0  0  0  0
  179.1950  180.5120  138.0820 C   0  0  0  0  0  2  0  0  0  0  0  0
  179.0440  181.2490  136.7900 C   0  0  0  0  0  0  0  0  0  0  0  0
  178.9400  180.5750  135.6490 C   0  0  0  0  0  2  0  0  0  0  0  0
  178.9320  182.7350  136.7820 C   0  0  0  0  0  1  0  0  0  0  0  0
  1 16  1  0  0  0  0
  2 24  1  6  0  0  0
  2 27  1  0  0  0  0
  2 12  1  0  0  0  0
  3  4  1  0  0  0  0
  5  6  1  0  0  0  0
  5 27  1  0  0  0  0
  6 28  1  0  0  0  0
  7 24  1  1  0  0  0
  7 17  1  0  0  0  0
  9 26  1  0  0  0  0
 11  3  2  0  0  0  0
 12  8  1  6  0  0  0
 12 13  1  0  0  0  0
 13 22  2  0  0  0  0
 13 11  1  0  0  0  0
 14 23  2  0  0  0  0
 14 22  1  0  0  0  0
 15  9  2  0  0  0  0
 17 10  1  6  0  0  0
 17  8  1  0  0  0  0
 18  6  2  0  0  0  0
 18 15  1  0  0  0  0
 19  7  1  0  0  0  0
 19 16  1  0  0  0  0
 20 29  1  1  0  0  0
 20  1  1  0  0  0  0
 20 10  1  0  0  0  0
 21  4  2  0  0  0  0
 22 21  1  0  0  0  0
 25  5  2  0  0  0  0
 27 14  1  0  0  0  0
 28  9  1  0  0  0  0
 28 23  1  0  0  0  0
 30 29  1  0  0  0  0
 31 30  2  0  0  0  0
 32 30  1  0  0  0  0
M  END
>  <MODEL>
2

>  <REMARK>
 VINA RESULT:      -7.9      2.364      4.680
  Name = 
  2 active torsions:
  status: ('A' for Active; 'I' for Inactive)
    1  A    between atoms: C_20  and  C_29
    2  A    between atoms: C_29  and  C_30
                            x       y       z     vdW  Elec       q    Type
                         _______ _______ _______ _____ _____    ______ ____

>  <TORSDO>
F 2

$$$$
=
 OpenBabel11122410533D

 32 37  0  0  1  0  0  0  0  0999 V2000
  188.6280  175.5990  136.8540 C   0  0  0  0  0  2  0  0  0  0  0  0
  187.5300  177.8470  140.6730 C   0  0  2  0  0  3  0  0  0  0  0  0
  191.6810  176.7000  143.0970 C   0  0  0  0  0  3  0  0  0  0  0  0
  190.9680  176.6710  144.2960 C   0  0  0  0  0  3  0  0  0  0  0  0
  185.4910  178.2980  142.0460 C   0  0  0  0  0  0  0  0  0  0  0  0
  184.8980  178.4950  143.2890 C   0  0  0  0  0  0  0  0  0  0  0  0
  187.5470  178.3340  138.1910 C   0  0  1  0  0  3  0  0  0  0  0  0
  189.6800  177.5650  139.4140 C   0  0  0  0  0  2  0  0  0  0  0  0
  184.7630  178.6280  145.4120 C   0  0  0  0  0  0  0  0  0  0  0  0
  189.7950  177.8780  136.9070 C   0  0  0  0  0  2  0  0  0  0  0  0
  191.0540  177.1280  141.9250 C   0  0  0  0  0  3  0  0  0  0  0  0
  189.0520  178.0840  140.7110 C   0  0  2  0  0  3  0  0  0  0  0  0
  189.7010  177.5060  141.9350 C   0  0  0  0  0  0  0  0  0  0  0  0
  187.5730  177.9250  143.1610 C   0  0  0  0  0  0  0  0  0  0  0  0
  183.5040  178.8400  144.9670 N   0  0  0  0  0  0  0  0  0  0  0  0
  187.6240  175.9060  137.9690 C   0  0  0  0  0  2  0  0  0  0  0  0
  189.1020  178.3080  138.2080 C   0  0  1  0  0  3  0  0  0  0  0  0
  183.5790  178.7550  143.6150 C   0  0  0  0  0  3  0  0  0  0  0  0
  186.8710  177.1250  137.6820 N   0  0  0  0  0  2  0  0  0  0  0  0
  189.0480  176.8430  136.0610 C   0  0  1  0  0  3  0  0  0  0  0  0
  189.6320  177.0750  144.3210 C   0  0  0  0  0  3  0  0  0  0  0  0
  188.9920  177.5030  143.1450 C   0  0  0  0  0  0  0  0  0  0  0  0
  186.9360  178.1150  144.4040 C   0  0  0  0  0  3  0  0  0  0  0  0
  186.9810  178.7430  139.5520 C   0  0  0  0  0  2  0  0  0  0  0  0
  184.7680  178.2930  141.0110 O   0  0  0  0  0  0  0  0  0  0  0  0
  185.1350  178.6140  146.8550 C   0  0  0  0  0  1  0  0  0  0  0  0
  186.8590  178.0840  141.9810 N   0  0  0  0  0  0  0  0  0  0  0  0
  185.6210  178.4160  144.4030 N   0  0  0  0  0  0  0  0  0  0  0  0
  189.9140  176.4490  134.8750 C   0  0  0  0  0  2  0  0  0  0  0  0
  190.8890  175.3780  135.2470 C   0  0  0  0  0  0  0  0  0  0  0  0
  190.7060  174.1340  134.8180 C   0  0  0  0  0  2  0  0  0  0  0  0
  192.1100  175.7160  136.0340 C   0  0  0  0  0  1  0  0  0  0  0  0
  1 16  1  0  0  0  0
  2 24  1  6  0  0  0
  2 12  1  0  0  0  0
  2 27  1  0  0  0  0
  3  4  1  0  0  0  0
  4 21  2  0  0  0  0
  5  6  1  0  0  0  0
  6 18  2  0  0  0  0
  6 28  1  0  0  0  0
  7 17  1  0  0  0  0
  7 24  1  1  0  0  0
  9 26  1  0  0  0  0
 11 13  1  0  0  0  0
 11  3  2  0  0  0  0
 12  8  1  6  0  0  0
 12 13  1  0  0  0  0
 13 22  2  0  0  0  0
 14 23  2  0  0  0  0
 15  9  2  0  0  0  0
 17 10  1  6  0  0  0
 17  8  1  0  0  0  0
 18 15  1  0  0  0  0
 19 16  1  0  0  0  0
 19  7  1  0  0  0  0
 20 29  1  6  0  0  0
 20  1  1  0  0  0  0
 20 10  1  0  0  0  0
 22 14  1  0  0  0  0
 22 21  1  0  0  0  0
 25  5  2  0  0  0  0
 27  5  1  0  0  0  0
 27 14  1  0  0  0  0
 28 23  1  0  0  0  0
 28  9  1  0  0  0  0
 29 30  1  0  0  0  0
 30 32  1  0  0  0  0
 31 30  2  0  0  0  0
M  END
>  <MODEL>
3

>  <REMARK>
 VINA RESULT:      -7.5      3.153      5.855
  Name = 
  2 active torsions:
  status: ('A' for Active; 'I' for Inactive)
    1  A    between atoms: C_20  and  C_29
    2  A    between atoms: C_29  and  C_30
                            x       y       z     vdW  Elec       q    Type
                         _______ _______ _______ _____ _____    ______ ____

>  <TORSDO>
F 2

$$$$
=
 OpenBabel11122410533D

 32 37  0  0  1  0  0  0  0  0999 V2000
  191.7450  174.2020  137.2190 C   0  0  0  0  0  2  0  0  0  0  0  0
  189.3190  177.2780  139.5650 C   0  0  2  0  0  3  0  0  0  0  0  0
  191.6060  176.4850  143.8730 C   0  0  0  0  0  3  0  0  0  0  0  0
  190.4160  176.7530  144.5500 C   0  0  0  0  0  3  0  0  0  0  0  0
  186.9670  178.1160  139.6550 C   0  0  0  0  0  0  0  0  0  0  0  0
  185.8930  178.6080  140.3910 C   0  0  0  0  0  0  0  0  0  0  0  0
  190.5810  177.2120  137.3730 C   0  0  1  0  0  3  0  0  0  0  0  0
  191.7400  176.6240  139.5980 C   0  0  0  0  0  2  0  0  0  0  0  0
  184.7920  179.2060  142.1150 C   0  0  0  0  0  0  0  0  0  0  0  0
  193.0720  176.3780  137.4620 C   0  0  0  0  0  2  0  0  0  0  0  0
  191.6800  176.6780  142.4920 C   0  0  0  0  0  3  0  0  0  0  0  0
  190.6590  177.4430  140.3090 C   0  0  2  0  0  3  0  0  0  0  0  0
  190.5570  177.1150  141.7700 C   0  0  0  0  0  0  0  0  0  0  0  0
  188.1920  177.8940  141.6970 C   0  0  0  0  0  0  0  0  0  0  0  0
  183.9400  179.3780  141.0780 N   0  0  0  0  0  0  0  0  0  0  0  0
  190.3920  174.7930  137.6240 C   0  0  0  0  0  2  0  0  0  0  0  0
  191.9200  177.1150  138.1590 C   0  0  1  0  0  3  0  0  0  0  0  0
  184.6330  178.9970  139.9750 C   0  0  0  0  0  3  0  0  0  0  0  0
  190.0540  175.9560  136.8050 N   0  0  0  0  0  2  0  0  0  0  0  0
  192.6700  175.2210  136.5430 C   0  0  1  0  0  3  0  0  0  0  0  0
  189.3040  177.2170  143.8440 C   0  0  0  0  0  3  0  0  0  0  0  0
  189.3680  177.4100  142.4530 C   0  0  0  0  0  0  0  0  0  0  0  0
  187.0790  178.3810  142.4120 C   0  0  0  0  0  3  0  0  0  0  0  0
  189.5070  177.9340  138.1880 C   0  0  0  0  0  2  0  0  0  0  0  0
  186.8280  177.9220  138.4160 O   0  0  0  0  0  0  0  0  0  0  0  0
  184.4300  179.4880  143.5320 C   0  0  0  0  0  1  0  0  0  0  0  0
  188.1530  177.8270  140.3100 N   0  0  0  0  0  0  0  0  0  0  0  0
  185.9820  178.7390  141.7120 N   0  0  0  0  0  0  0  0  0  0  0  0
  193.9240  174.5370  136.0230 C   0  0  0  0  0  2  0  0  0  0  0  0
  194.3850  173.4650  136.9590 C   0  0  0  0  0  0  0  0  0  0  0  0
  194.2600  172.1870  136.6180 C   0  0  0  0  0  2  0  0  0  0  0  0
  195.0550  173.8260  138.2410 C   0  0  0  0  0  1  0  0  0  0  0  0
  1 16  1  0  0  0  0
  2 24  1  6  0  0  0
  2 12  1  0  0  0  0
  2 27  1  0  0  0  0
  3  4  1  0  0  0  0
  5 27  1  0  0  0  0
  5  6  1  0  0  0  0
  6 28  1  0  0  0  0
  7 17  1  0  0  0  0
  7 24  1  1  0  0  0
  9 26  1  0  0  0  0
 11  3  2  0  0  0  0
 12  8  1  6  0  0  0
 12 13  1  0  0  0  0
 13 22  2  0  0  0  0
 13 11  1  0  0  0  0
 14 23  2  0  0  0  0
 14 22  1  0  0  0  0
 15  9  2  0  0  0  0
 17 10  1  6  0  0  0
 17  8  1  0  0  0  0
 18  6  2  0  0  0  0
 18 15  1  0  0  0  0
 19  7  1  0  0  0  0
 19 16  1  0  0  0  0
 20 29  1  1  0  0  0
 20  1  1  0  0  0  0
 20 10  1  0  0  0  0
 21  4  2  0  0  0  0
 22 21  1  0  0  0  0
 25  5  2  0  0  0  0
 27 14  1  0  0  0  0
 28  9  1  0  0  0  0
 28 23  1  0  0  0  0
 29 30  1  0  0  0  0
 30 32  1  0  0  0  0
 31 30  2  0  0  0  0
M  END
>  <MODEL>
4

>  <REMARK>
 VINA RESULT:      -7.4      3.293      8.119
  Name = 
  2 active torsions:
  status: ('A' for Active; 'I' for Inactive)
    1  A    between atoms: C_20  and  C_29
    2  A    between atoms: C_29  and  C_30
                            x       y       z     vdW  Elec       q    Type
                         _______ _______ _______ _____ _____    ______ ____

>  <TORSDO>
F 2

$$$$
=
 OpenBabel11122410533D

 32 37  0  0  1  0  0  0  0  0999 V2000
  189.0580  175.5110  137.2180 C   0  0  0  0  0  2  0  0  0  0  0  0
  186.0880  178.0230  139.6080 C   0  0  2  0  0  3  0  0  0  0  0  0
  188.4780  177.5980  143.9130 C   0  0  0  0  0  3  0  0  0  0  0  0
  187.2570  177.6210  144.5880 C   0  0  0  0  0  3  0  0  0  0  0  0
  183.6200  178.3960  139.7020 C   0  0  0  0  0  0  0  0  0  0  0  0
  182.4700  178.6610  140.4420 C   0  0  0  0  0  0  0  0  0  0  0  0
  187.3430  178.2400  137.4220 C   0  0  1  0  0  3  0  0  0  0  0  0
  188.5890  177.8420  139.6420 C   0  0  0  0  0  2  0  0  0  0  0  0
  181.2730  179.0050  142.1710 C   0  0  0  0  0  0  0  0  0  0  0  0
  189.9470  177.8950  137.5090 C   0  0  0  0  0  2  0  0  0  0  0  0
  188.5160  177.8270  142.5360 C   0  0  0  0  0  3  0  0  0  0  0  0
  187.3710  178.4260  140.3620 C   0  0  2  0  0  3  0  0  0  0  0  0
  187.3310  178.0570  141.8170 C   0  0  0  0  0  0  0  0  0  0  0  0
  184.8610  178.3720  141.7460 C   0  0  0  0  0  0  0  0  0  0  0  0
  180.4060  179.0310  141.1330 N   0  0  0  0  0  0  0  0  0  0  0  0
  187.6170  175.8260  137.6280 C   0  0  0  0  0  2  0  0  0  0  0  0
  188.6740  178.3850  138.2140 C   0  0  1  0  0  3  0  0  0  0  0  0
  181.1600  178.8100  140.0270 C   0  0  0  0  0  3  0  0  0  0  0  0
  187.0660  176.9180  136.8290 N   0  0  0  0  0  2  0  0  0  0  0  0
  189.7730  176.7000  136.5660 C   0  0  1  0  0  3  0  0  0  0  0  0
  186.0780  177.8780  143.8860 C   0  0  0  0  0  3  0  0  0  0  0  0
  186.1070  178.1060  142.4990 C   0  0  0  0  0  0  0  0  0  0  0  0
  183.6750  178.6240  142.4640 C   0  0  0  0  0  3  0  0  0  0  0  0
  186.1490  178.7290  138.2450 C   0  0  0  0  0  2  0  0  0  0  0  0
  183.5220  178.2030  138.4590 O   0  0  0  0  0  0  0  0  0  0  0  0
  180.8620  179.1860  143.5920 C   0  0  0  0  0  1  0  0  0  0  0  0
  184.8380  178.3260  140.3580 N   0  0  0  0  0  0  0  0  0  0  0  0
  182.5310  178.7800  141.7650 N   0  0  0  0  0  0  0  0  0  0  0  0
  191.1360  176.2770  136.0400 C   0  0  0  0  0  2  0  0  0  0  0  0
  191.9540  175.6300  137.1120 C   0  0  0  0  0  0  0  0  0  0  0  0
  192.5610  176.3790  138.0280 C   0  0  0  0  0  2  0  0  0  0  0  0
  192.0300  174.1450  137.2040 C   0  0  0  0  0  1  0  0  0  0  0  0
  1 16  1  0  0  0  0
  2 24  1  6  0  0  0
  2 27  1  0  0  0  0
  2 12  1  0  0  0  0
  3  4  1  0  0  0  0
  5 27  1  0  0  0  0
  5  6  1  0  0  0  0
  6 28  1  0  0  0  0
  7 17  1  0  0  0  0
  7 24  1  1  0  0  0
  9 26  1  0  0  0  0
 11  3  2  0  0  0  0
 12  8  1  6  0  0  0
 12 13  1  0  0  0  0
 13 22  2  0  0  0  0
 13 11  1  0  0  0  0
 14 23  2  0  0  0  0
 14 22  1  0  0  0  0
 15  9  2  0  0  0  0
 17 10  1  6  0  0  0
 17  8  1  0  0  0  0
 18  6  2  0  0  0  0
 18 15  1  0  0  0  0
 19  7  1  0  0  0  0
 19 16  1  0  0  0  0
 20 29  1  1  0  0  0
 20  1  1  0  0  0  0
 20 10  1  0  0  0  0
 21  4  2  0  0  0  0
 22 21  1  0  0  0  0
 25  5  2  0  0  0  0
 27 14  1  0  0  0  0
 28  9  1  0  0  0  0
 28 23  1  0  0  0  0
 29 30  1  0  0  0  0
 30 32  1  0  0  0  0
 30 31  2  0  0  0  0
M  END
>  <MODEL>
5

>  <REMARK>
 VINA RESULT:      -7.3      2.923      7.286
  Name = 
  2 active torsions:
  status: ('A' for Active; 'I' for Inactive)
    1  A    between atoms: C_20  and  C_29
    2  A    between atoms: C_29  and  C_30
                            x       y       z     vdW  Elec       q    Type
                         _______ _______ _______ _____ _____    ______ ____

>  <TORSDO>
F 2

$$$$
=
 OpenBabel11122410533D

 32 37  0  0  1  0  0  0  0  0999 V2000
  190.2250  175.8680  145.1400 C   0  0  0  0  0  2  0  0  0  0  0  0
  189.5430  177.5260  140.9410 C   0  0  2  0  0  3  0  0  0  0  0  0
  184.9050  179.0140  141.7760 C   0  0  0  0  0  3  0  0  0  0  0  0
  184.5770  178.7210  140.4530 C   0  0  0  0  0  3  0  0  0  0  0  0
  190.1500  176.9420  138.5890 C   0  0  0  0  0  0  0  0  0  0  0  0
  189.8260  176.9070  137.2360 C   0  0  0  0  0  0  0  0  0  0  0  0
  191.3260  177.7100  142.7250 C   0  0  1  0  0  3  0  0  0  0  0  0
  188.8730  178.3220  143.2220 C   0  0  0  0  0  2  0  0  0  0  0  0
  188.6310  177.1460  135.4870 C   0  0  0  0  0  0  0  0  0  0  0  0
  190.5300  178.4100  145.1310 C   0  0  0  0  0  2  0  0  0  0  0  0
  186.2330  178.9280  142.2000 C   0  0  0  0  0  3  0  0  0  0  0  0
  188.6860  178.5430  141.7190 C   0  0  2  0  0  3  0  0  0  0  0  0
  187.2420  178.5220  141.3100 C   0  0  0  0  0  0  0  0  0  0  0  0
  187.9820  177.8490  139.0280 C   0  0  0  0  0  0  0  0  0  0  0  0
  189.7910  176.6080  135.0480 N   0  0  0  0  0  0  0  0  0  0  0  0
  190.2860  175.6930  143.6200 C   0  0  0  0  0  2  0  0  0  0  0  0
  190.3390  178.5230  143.6110 C   0  0  1  0  0  3  0  0  0  0  0  0
  190.5590  176.4500  136.1560 C   0  0  0  0  0  3  0  0  0  0  0  0
  191.5030  176.2860  143.0680 N   0  0  0  0  0  2  0  0  0  0  0  0
  191.0450  177.0620  145.6430 C   0  0  1  0  0  3  0  0  0  0  0  0
  185.5780  178.3470  139.5540 C   0  0  0  0  0  3  0  0  0  0  0  0
  186.9160  178.2530  139.9730 C   0  0  0  0  0  0  0  0  0  0  0  0
  187.6810  177.7840  137.6530 C   0  0  0  0  0  3  0  0  0  0  0  0
  191.0090  177.8780  141.2390 C   0  0  0  0  0  2  0  0  0  0  0  0
  191.2500  176.4530  138.9720 O   0  0  0  0  0  0  0  0  0  0  0  0
  187.4830  177.4690  134.5940 C   0  0  0  0  0  1  0  0  0  0  0  0
  189.2440  177.4890  139.4830 N   0  0  0  0  0  0  0  0  0  0  0  0
  188.6380  177.3330  136.8150 N   0  0  0  0  0  0  0  0  0  0  0  0
  191.0730  177.0840  147.1640 C   0  0  0  0  0  2  0  0  0  0  0  0
  189.7530  177.5070  147.7240 C   0  0  0  0  0  0  0  0  0  0  0  0
  189.6700  178.5980  148.4790 C   0  0  0  0  0  2  0  0  0  0  0  0
  188.5140  176.7540  147.3770 C   0  0  0  0  0  1  0  0  0  0  0  0
  1 20  1  0  0  0  0
  2 24  1  6  0  0  0
  2 12  1  0  0  0  0
  3 11  1  0  0  0  0
  4  3  2  0  0  0  0
  5 25  2  0  0  0  0
  5 27  1  0  0  0  0
  6  5  1  0  0  0  0
  7 24  1  6  0  0  0
  7 19  1  0  0  0  0
  7 17  1  0  0  0  0
  9 28  1  0  0  0  0
 10 20  1  0  0  0  0
 12  8  1  1  0  0  0
 13 12  1  0  0  0  0
 13 11  2  0  0  0  0
 14 27  1  0  0  0  0
 14 22  1  0  0  0  0
 15  9  2  0  0  0  0
 15 18  1  0  0  0  0
 16  1  1  0  0  0  0
 17  8  1  1  0  0  0
 17 10  1  0  0  0  0
 18  6  2  0  0  0  0
 19 16  1  0  0  0  0
 20 29  1  1  0  0  0
 21 22  2  0  0  0  0
 21  4  1  0  0  0  0
 22 13  1  0  0  0  0
 23 14  2  0  0  0  0
 26  9  1  0  0  0  0
 27  2  1  0  0  0  0
 28  6  1  0  0  0  0
 28 23  1  0  0  0  0
 29 30  1  0  0  0  0
 30 31  2  0  0  0  0
 32 30  1  0  0  0  0
M  END
>  <MODEL>
6

>  <REMARK>
 VINA RESULT:      -7.2      3.165      8.653
  Name = 
  2 active torsions:
  status: ('A' for Active; 'I' for Inactive)
    1  A    between atoms: C_20  and  C_29
    2  A    between atoms: C_29  and  C_30
                            x       y       z     vdW  Elec       q    Type
                         _______ _______ _______ _____ _____    ______ ____

>  <TORSDO>
F 2

$$$$
=
 OpenBabel11122410533D

 32 37  0  0  1  0  0  0  0  0999 V2000
  190.4190  176.0270  144.4550 C   0  0  0  0  0  2  0  0  0  0  0  0
  188.9470  177.5550  140.4120 C   0  0  2  0  0  3  0  0  0  0  0  0
  184.5990  179.1970  142.0900 C   0  0  0  0  0  3  0  0  0  0  0  0
  184.0080  178.8670  140.8710 C   0  0  0  0  0  3  0  0  0  0  0  0
  189.0630  176.8720  138.0110 C   0  0  0  0  0  0  0  0  0  0  0  0
  188.4740  176.7990  136.7520 C   0  0  0  0  0  0  0  0  0  0  0  0
  191.0530  177.7530  141.7990 C   0  0  1  0  0  3  0  0  0  0  0  0
  188.7610  178.4480  142.7470 C   0  0  0  0  0  2  0  0  0  0  0  0
  186.9600  177.0090  135.2660 C   0  0  0  0  0  0  0  0  0  0  0  0
  190.7660  178.5580  144.2840 C   0  0  0  0  0  2  0  0  0  0  0  0
  185.9820  179.0900  142.2450 C   0  0  0  0  0  3  0  0  0  0  0  0
  188.2820  178.6220  141.3030 C   0  0  2  0  0  3  0  0  0  0  0  0
  186.7860  178.6250  141.1900 C   0  0  0  0  0  0  0  0  0  0  0  0
  187.0430  177.8530  138.8350 C   0  0  0  0  0  0  0  0  0  0  0  0
  187.9990  176.4250  134.6280 N   0  0  0  0  0  0  0  0  0  0  0  0
  190.1730  175.7980  142.9610 C   0  0  0  0  0  2  0  0  0  0  0  0
  190.2790  178.6230  142.8300 C   0  0  1  0  0  3  0  0  0  0  0  0
  188.9680  176.2850  135.5670 C   0  0  0  0  0  3  0  0  0  0  0  0
  191.2660  176.3370  142.1550 N   0  0  0  0  0  2  0  0  0  0  0  0
  191.3460  177.2150  144.7380 C   0  0  1  0  0  3  0  0  0  0  0  0
  184.8020  178.4340  139.8070 C   0  0  0  0  0  3  0  0  0  0  0  0
  186.1950  178.3190  139.9560 C   0  0  0  0  0  0  0  0  0  0  0  0
  186.4730  177.7480  137.5500 C   0  0  0  0  0  3  0  0  0  0  0  0
  190.4490  177.8770  140.3990 C   0  0  0  0  0  2  0  0  0  0  0  0
  190.2060  176.3680  138.1870 O   0  0  0  0  0  0  0  0  0  0  0  0
  185.6640  177.3320  134.6060 C   0  0  0  0  0  1  0  0  0  0  0  0
  188.3630  177.4750  139.0440 N   0  0  0  0  0  0  0  0  0  0  0  0
  187.2350  177.2420  136.5580 N   0  0  0  0  0  0  0  0  0  0  0  0
  191.6770  177.2900  146.2200 C   0  0  0  0  0  2  0  0  0  0  0  0
  190.8000  176.3780  147.0180 C   0  0  0  0  0  0  0  0  0  0  0  0
  191.2970  175.2530  147.5240 C   0  0  0  0  0  2  0  0  0  0  0  0
  189.3900  176.7620  147.3140 C   0  0  0  0  0  1  0  0  0  0  0  0
  1 20  1  0  0  0  0
  2 24  1  6  0  0  0
  2 12  1  0  0  0  0
  3 11  1  0  0  0  0
  4  3  2  0  0  0  0
  5 25  2  0  0  0  0
  5 27  1  0  0  0  0
  6  5  1  0  0  0  0
  7 24  1  6  0  0  0
  7 19  1  0  0  0  0
  7 17  1  0  0  0  0
  9 28  1  0  0  0  0
 10 20  1  0  0  0  0
 12  8  1  1  0  0  0
 13 12  1  0  0  0  0
 13 11  2  0  0  0  0
 14 27  1  0  0  0  0
 14 22  1  0  0  0  0
 15  9  2  0  0  0  0
 15 18  1  0  0  0  0
 16  1  1  0  0  0  0
 17  8  1  1  0  0  0
 17 10  1  0  0  0  0
 18  6  2  0  0  0  0
 19 16  1  0  0  0  0
 20 29  1  1  0  0  0
 21 22  2  0  0  0  0
 21  4  1  0  0  0  0
 22 13  1  0  0  0  0
 23 14  2  0  0  0  0
 26  9  1  0  0  0  0
 27  2  1  0  0  0  0
 28  6  1  0  0  0  0
 28 23  1  0  0  0  0
 29 30  1  0  0  0  0
 30 32  1  0  0  0  0
 30 31  2  0  0  0  0
M  END
>  <MODEL>
7

>  <REMARK>
 VINA RESULT:      -7.1      3.276      8.840
  Name = 
  2 active torsions:
  status: ('A' for Active; 'I' for Inactive)
    1  A    between atoms: C_20  and  C_29
    2  A    between atoms: C_29  and  C_30
                            x       y       z     vdW  Elec       q    Type
                         _______ _______ _______ _____ _____    ______ ____

>  <TORSDO>
F 2

$$$$
=
 OpenBabel11122410533D

 32 37  0  0  1  0  0  0  0  0999 V2000
  186.0380  177.1860  145.1420 C   0  0  0  0  0  2  0  0  0  0  0  0
  184.4610  178.2590  140.9940 C   0  0  2  0  0  3  0  0  0  0  0  0
  179.6860  177.7790  142.1740 C   0  0  0  0  0  3  0  0  0  0  0  0
  179.4170  177.3260  140.8820 C   0  0  0  0  0  3  0  0  0  0  0  0
  185.0940  177.8780  138.6070 C   0  0  0  0  0  0  0  0  0  0  0  0
  184.7210  177.6610  137.2840 C   0  0  0  0  0  0  0  0  0  0  0  0
  186.1320  179.2180  142.6330 C   0  0  1  0  0  3  0  0  0  0  0  0
  183.6820  178.8060  143.3130 C   0  0  0  0  0  2  0  0  0  0  0  0
  183.4170  177.3280  135.6310 C   0  0  0  0  0  0  0  0  0  0  0  0
  185.2840  179.6320  145.0870 C   0  0  0  0  0  2  0  0  0  0  0  0
  180.9600  178.2530  142.4940 C   0  0  0  0  0  3  0  0  0  0  0  0
  183.3200  178.8740  141.8270 C   0  0  2  0  0  3  0  0  0  0  0  0
  181.9850  178.2540  141.5320 C   0  0  0  0  0  0  0  0  0  0  0  0
  182.7790  177.8480  139.2060 C   0  0  0  0  0  0  0  0  0  0  0  0
  184.6630  177.2880  135.1080 N   0  0  0  0  0  0  0  0  0  0  0  0
  186.0630  176.9910  143.6240 C   0  0  0  0  0  2  0  0  0  0  0  0
  184.9620  179.5980  143.5860 C   0  0  1  0  0  3  0  0  0  0  0  0
  185.5010  177.4970  136.1550 C   0  0  0  0  0  3  0  0  0  0  0  0
  186.8940  178.0020  142.9730 N   0  0  0  0  0  2  0  0  0  0  0  0
  186.3350  178.6280  145.5700 C   0  0  1  0  0  3  0  0  0  0  0  0
  180.4210  177.3520  139.9120 C   0  0  0  0  0  3  0  0  0  0  0  0
  181.7070  177.8240  140.2270 C   0  0  0  0  0  0  0  0  0  0  0  0
  182.4380  177.6130  137.8580 C   0  0  0  0  0  3  0  0  0  0  0  0
  185.6740  179.1850  141.1740 C   0  0  0  0  0  2  0  0  0  0  0  0
  186.3190  177.8910  138.9080 O   0  0  0  0  0  0  0  0  0  0  0  0
  182.1790  177.1240  134.8270 C   0  0  0  0  0  1  0  0  0  0  0  0
  184.1060  178.0470  139.5640 N   0  0  0  0  0  0  0  0  0  0  0  0
  183.4370  177.5540  136.9530 N   0  0  0  0  0  0  0  0  0  0  0  0
  186.4540  178.7190  147.0830 C   0  0  0  0  0  2  0  0  0  0  0  0
  187.7620  178.1710  147.5580 C   0  0  0  0  0  0  0  0  0  0  0  0
  187.9320  177.8780  148.8430 C   0  0  0  0  0  2  0  0  0  0  0  0
  188.8510  177.8780  146.5830 C   0  0  0  0  0  1  0  0  0  0  0  0
  1 20  1  0  0  0  0
  2 24  1  6  0  0  0
  2 12  1  0  0  0  0
  3 11  1  0  0  0  0
  4  3  2  0  0  0  0
  5 25  2  0  0  0  0
  5 27  1  0  0  0  0
  6  5  1  0  0  0  0
  7 24  1  6  0  0  0
  7 19  1  0  0  0  0
  7 17  1  0  0  0  0
  9 28  1  0  0  0  0
 10 20  1  0  0  0  0
 12  8  1  1  0  0  0
 13 12  1  0  0  0  0
 13 11  2  0  0  0  0
 14 27  1  0  0  0  0
 14 22  1  0  0  0  0
 15  9  2  0  0  0  0
 15 18  1  0  0  0  0
 16  1  1  0  0  0  0
 17  8  1  1  0  0  0
 17 10  1  0  0  0  0
 18  6  2  0  0  0  0
 19 16  1  0  0  0  0
 20 29  1  1  0  0  0
 21 22  2  0  0  0  0
 21  4  1  0  0  0  0
 22 13  1  0  0  0  0
 23 14  2  0  0  0  0
 26  9  1  0  0  0  0
 27  2  1  0  0  0  0
 28  6  1  0  0  0  0
 28 23  1  0  0  0  0
 29 30  1  0  0  0  0
 30 31  2  0  0  0  0
 32 30  1  0  0  0  0
M  END
>  <MODEL>
8

>  <REMARK>
 VINA RESULT:      -6.8      2.899      8.689
  Name = 
  2 active torsions:
  status: ('A' for Active; 'I' for Inactive)
    1  A    between atoms: C_20  and  C_29
    2  A    between atoms: C_29  and  C_30
                            x       y       z     vdW  Elec       q    Type
                         _______ _______ _______ _____ _____    ______ ____

>  <TORSDO>
F 2

$$$$
=
 OpenBabel11122410533D

 32 37  0  0  1  0  0  0  0  0999 V2000
  190.0580  176.1470  143.6400 C   0  0  0  0  0  2  0  0  0  0  0  0
  187.3800  177.8360  140.3500 C   0  0  2  0  0  3  0  0  0  0  0  0
  183.5970  178.9170  143.3400 C   0  0  0  0  0  3  0  0  0  0  0  0
  182.7040  178.6280  142.3090 C   0  0  0  0  0  3  0  0  0  0  0  0
  186.8460  177.3560  137.9570 C   0  0  0  0  0  0  0  0  0  0  0  0
  185.9260  177.3240  136.9130 C   0  0  0  0  0  0  0  0  0  0  0  0
  189.7780  178.1270  141.1030 C   0  0  1  0  0  3  0  0  0  0  0  0
  187.8140  178.5230  142.7220 C   0  0  0  0  0  2  0  0  0  0  0  0
  184.0360  177.5030  135.9420 C   0  0  0  0  0  0  0  0  0  0  0  0
  190.1640  178.7050  143.6380 C   0  0  0  0  0  2  0  0  0  0  0  0
  184.9710  178.9320  143.0890 C   0  0  0  0  0  3  0  0  0  0  0  0
  186.9280  178.7620  141.4960 C   0  0  2  0  0  3  0  0  0  0  0  0
  185.4660  178.6300  141.8090 C   0  0  0  0  0  0  0  0  0  0  0  0
  185.0860  178.0710  139.4110 C   0  0  0  0  0  0  0  0  0  0  0  0
  184.8850  177.0720  134.9810 N   0  0  0  0  0  0  0  0  0  0  0  0
  189.4090  176.0120  142.2600 C   0  0  0  0  0  2  0  0  0  0  0  0
  189.2750  178.8360  142.3930 C   0  0  1  0  0  3  0  0  0  0  0  0
  186.0920  176.9530  135.5920 C   0  0  0  0  0  3  0  0  0  0  0  0
  190.1830  176.7150  141.2390 N   0  0  0  0  0  2  0  0  0  0  0  0
  190.9420  177.3930  143.7710 C   0  0  1  0  0  3  0  0  0  0  0  0
  183.1860  178.3570  141.0270 C   0  0  0  0  0  3  0  0  0  0  0  0
  184.5670  178.3650  140.7650 C   0  0  0  0  0  0  0  0  0  0  0  0
  184.1790  178.0120  138.3340 C   0  0  0  0  0  3  0  0  0  0  0  0
  188.7890  178.3010  139.9490 C   0  0  0  0  0  2  0  0  0  0  0  0
  188.0240  176.9520  137.7530 O   0  0  0  0  0  0  0  0  0  0  0  0
  182.5860  177.7500  135.7090 C   0  0  0  0  0  1  0  0  0  0  0  0
  186.4340  177.8060  139.2010 N   0  0  0  0  0  0  0  0  0  0  0  0
  184.6560  177.6600  137.1210 N   0  0  0  0  0  0  0  0  0  0  0  0
  191.6800  177.3840  145.1010 C   0  0  0  0  0  2  0  0  0  0  0  0
  190.7960  176.9080  146.2080 C   0  0  0  0  0  0  0  0  0  0  0  0
  191.2430  176.0030  147.0730 C   0  0  0  0  0  2  0  0  0  0  0  0
  189.4410  177.5020  146.3940 C   0  0  0  0  0  1  0  0  0  0  0  0
  1 20  1  0  0  0  0
  2 24  1  6  0  0  0
  2 12  1  0  0  0  0
  4  3  2  0  0  0  0
  5 27  1  0  0  0  0
  6 28  1  0  0  0  0
  6  5  1  0  0  0  0
  7 24  1  6  0  0  0
  7 19  1  0  0  0  0
  7 17  1  0  0  0  0
  9 28  1  0  0  0  0
 10 20  1  0  0  0  0
 11  3  1  0  0  0  0
 12 13  1  0  0  0  0
 12  8  1  1  0  0  0
 13 11  2  0  0  0  0
 14 22  1  0  0  0  0
 15 18  1  0  0  0  0
 15  9  2  0  0  0  0
 16  1  1  0  0  0  0
 17  8  1  1  0  0  0
 17 10  1  0  0  0  0
 18  6  2  0  0  0  0
 19 16  1  0  0  0  0
 20 29  1  1  0  0  0
 21  4  1  0  0  0  0
 22 21  2  0  0  0  0
 22 13  1  0  0  0  0
 23 14  2  0  0  0  0
 25  5  2  0  0  0  0
 26  9  1  0  0  0  0
 27 14  1  0  0  0  0
 27  2  1  0  0  0  0
 28 23  1  0  0  0  0
 29 30  1  0  0  0  0
 30 32  1  0  0  0  0
 30 31  2  0  0  0  0
M  END
>  <MODEL>
9

>  <REMARK>
 VINA RESULT:      -6.7      2.844      8.687
  Name = 
  2 active torsions:
  status: ('A' for Active; 'I' for Inactive)
    1  A    between atoms: C_20  and  C_29
    2  A    between atoms: C_29  and  C_30
                            x       y       z     vdW  Elec       q    Type
                         _______ _______ _______ _____ _____    ______ ____

>  <TORSDO>
F 2

$$$$
