=
 OpenBabel11122412243D

 34 40  0  0  1  0  0  0  0  0999 V2000
  187.2360  178.2750  140.4040 C   0  0  0  0  0  0  0  0  0  0  0  0
  185.0370  178.3980  139.1400 C   0  0  0  0  0  2  0  0  0  0  0  0
  190.5810  176.9200  145.9140 C   0  0  0  0  0  0  0  0  0  0  0  0
  189.1510  177.7470  141.8110 C   0  0  0  0  0  0  0  0  0  0  0  0
  188.7890  177.5790  144.2970 C   0  0  0  0  0  0  0  0  0  0  0  0
  188.1350  177.1350  146.6210 C   0  0  0  0  0  1  0  0  0  0  0  0
  190.8370  175.9150  146.9850 C   0  0  0  0  0  1  0  0  0  0  0  0
  191.6520  178.6360  144.4130 C   0  0  0  0  0  3  0  0  0  0  0  0
  185.1490  179.2720  141.4040 C   0  0  2  0  0  3  0  0  0  0  0  0
  182.5110  178.8460  143.2580 C   0  0  0  0  0  2  0  0  0  0  0  0
  187.4210  177.9470  144.0530 N   0  0  0  0  0  0  0  0  0  0  0  0
  190.8020  178.6730  143.3870 C   0  0  0  0  0  3  0  0  0  0  0  0
  185.4650  178.5370  142.7280 C   0  0  1  0  0  3  0  0  0  0  0  0
  183.6480  178.8940  139.5000 C   0  0  0  0  0  2  0  0  0  0  0  0
  189.7890  177.5990  143.1640 C   0  0  2  0  0  3  0  0  0  0  0  0
  191.6470  177.5920  145.4550 C   0  0  0  0  0  3  0  0  0  0  0  0
  182.7840  178.3170  141.8370 C   0  0  2  0  0  3  0  0  0  0  0  0
  187.7990  178.1110  141.6800 C   0  0  0  0  0  0  0  0  0  0  0  0
  189.1700  177.2290  145.5420 C   0  0  0  0  0  0  0  0  0  0  0  0
  186.9430  178.2440  142.8800 C   0  0  0  0  0  0  0  0  0  0  0  0
  189.3520  177.6640  139.3920 C   0  0  0  0  0  3  0  0  0  0  0  0
  183.5250  179.8690  143.7730 C   0  0  0  0  0  2  0  0  0  0  0  0
  189.9190  177.5200  140.6610 C   0  0  0  0  0  3  0  0  0  0  0  0
  184.9260  179.2890  143.9560 C   0  0  0  0  0  2  0  0  0  0  0  0
  183.6620  179.2680  140.9870 C   0  0  1  0  0  3  0  0  0  0  0  0
  188.0130  178.0420  139.2630 C   0  0  0  0  0  3  0  0  0  0  0  0
  185.8650  178.6710  140.2940 N   0  0  0  0  0  0  0  0  0  0  0  0
  181.4450  178.0240  141.1710 C   0  0  0  0  0  2  0  0  0  0  0  0
  180.4120  178.1390  142.1040 O   0  0  0  0  0  0  0  0  0  0  0  0
  179.5070  181.2300  141.5460 O   0  0  0  0  0  0  0  0  0  0  0  0
  180.0140  179.5130  140.2260 C   0  0  0  0  0  3  0  0  0  0  0  0
  179.4380  178.9070  141.4630 C   0  0  2  0  0  3  0  0  0  0  0  0
  180.0290  180.8270  140.3320 C   0  0  0  0  0  3  0  0  0  0  0  0
  179.0980  180.1220  142.3240 C   0  0  0  0  0  2  0  0  0  0  0  0
  1 18  1  0  0  0  0
  2 14  1  0  0  0  0
  2 27  1  0  0  0  0
  3  7  1  0  0  0  0
  4 15  1  0  0  0  0
  5 19  2  0  0  0  0
  8 16  1  0  0  0  0
  9 27  1  6  0  0  0
  9 13  1  0  0  0  0
 10 22  1  0  0  0  0
 11  5  1  0  0  0  0
 12  8  2  0  0  0  0
 13 20  1  0  0  0  0
 13 24  1  1  0  0  0
 15 12  1  1  0  0  0
 15  5  1  0  0  0  0
 16  3  2  0  0  0  0
 17 28  1  6  0  0  0
 17 10  1  0  0  0  0
 18  4  2  0  0  0  0
 18 20  1  0  0  0  0
 19  3  1  0  0  0  0
 19  6  1  0  0  0  0
 20 11  2  0  0  0  0
 21 23  2  0  0  0  0
 22 24  1  0  0  0  0
 23  4  1  0  0  0  0
 25 14  1  6  0  0  0
 25  9  1  0  0  0  0
 25 17  1  0  0  0  0
 26 21  1  0  0  0  0
 26  1  2  0  0  0  0
 27  1  1  0  0  0  0
 28 29  1  0  0  0  0
 30 34  1  0  0  0  0
 31 33  2  0  0  0  0
 31 32  1  0  0  0  0
 32 29  1  1  0  0  0
 32 34  1  0  0  0  0
 33 30  1  0  0  0  0
M  END
>  <MODEL>
1

>  <REMARK>
 VINA RESULT:      -9.7      0.000      0.000
  Name = 
  3 active torsions:
  status: ('A' for Active; 'I' for Inactive)
    1  A    between atoms: C_17  and  C_28
    2  A    between atoms: C_28  and  O_29
    3  A    between atoms: O_29  and  C_32
                            x       y       z     vdW  Elec       q    Type
                         _______ _______ _______ _____ _____    ______ ____

>  <TORSDO>
F 3

$$$$
=
 OpenBabel11122412243D

 34 40  0  0  1  0  0  0  0  0999 V2000
  187.5040  178.2150  140.1050 C   0  0  0  0  0  0  0  0  0  0  0  0
  185.3730  178.2570  138.7220 C   0  0  0  0  0  2  0  0  0  0  0  0
  190.5910  176.9960  145.7930 C   0  0  0  0  0  0  0  0  0  0  0  0
  189.3570  177.7600  141.6150 C   0  0  1  0  0  3  0  0  0  0  0  0
  188.8670  177.5870  144.0790 C   0  0  0  0  0  0  0  0  0  0  0  0
  188.1050  177.1260  146.3660 C   0  0  0  0  0  1  0  0  0  0  0  0
  190.8240  176.0040  146.8820 C   0  0  0  0  0  1  0  0  0  0  0  0
  191.6800  178.7450  144.3440 C   0  0  0  0  0  3  0  0  0  0  0  0
  185.3320  179.1410  140.9850 C   0  0  2  0  0  3  0  0  0  0  0  0
  182.6140  178.6270  142.6960 C   0  0  0  0  0  2  0  0  0  0  0  0
  187.5020  177.9050  143.7590 N   0  0  0  0  0  0  0  0  0  0  0  0
  190.8860  178.7480  143.2740 C   0  0  0  0  0  3  0  0  0  0  0  0
  185.6020  178.4220  142.3280 C   0  0  1  0  0  3  0  0  0  0  0  0
  183.9510  178.7040  139.0050 C   0  0  0  0  0  2  0  0  0  0  0  0
  189.9260  177.6380  143.0010 C   0  0  0  0  0  0  0  0  0  0  0  0
  191.6560  177.7040  145.3890 C   0  0  0  0  0  3  0  0  0  0  0  0
  182.9820  178.1040  141.2940 C   0  0  2  0  0  3  0  0  0  0  0  0
  188.0020  178.0750  141.4090 C   0  0  0  0  0  0  0  0  0  0  0  0
  189.1930  177.2540  145.3450 C   0  0  0  0  0  0  0  0  0  0  0  0
  187.0790  178.1820  142.5610 C   0  0  0  0  0  0  0  0  0  0  0  0
  189.6920  177.6770  139.2110 C   0  0  0  0  0  3  0  0  0  0  0  0
  183.5620  179.6870  143.2590 C   0  0  0  0  0  2  0  0  0  0  0  0
  190.1930  177.5570  140.5090 C   0  0  0  0  0  3  0  0  0  0  0  0
  184.9710  179.1570  143.5210 C   0  0  0  0  0  2  0  0  0  0  0  0
  183.8710  179.0830  140.4880 C   0  0  1  0  0  3  0  0  0  0  0  0
  188.3490  178.0060  139.0080 C   0  0  0  0  0  3  0  0  0  0  0  0
  186.1270  178.5620  139.9190 N   0  0  0  0  0  0  0  0  0  0  0  0
  181.6920  177.7620  140.5580 C   0  0  0  0  0  2  0  0  0  0  0  0
  181.7850  176.4830  140.0030 O   0  0  0  0  0  0  0  0  0  0  0  0
  179.6580  174.0030  139.9150 O   0  0  0  0  0  0  0  0  0  0  0  0
  179.6330  176.0190  140.8550 C   0  0  0  0  0  3  0  0  0  0  0  0
  180.4780  176.1610  139.6320 C   0  0  2  0  0  3  0  0  0  0  0  0
  179.1990  174.7780  140.9630 C   0  0  0  0  0  3  0  0  0  0  0  0
  180.4510  174.7610  139.0220 C   0  0  0  0  0  2  0  0  0  0  0  0
  1 18  1  0  0  0  0
  2 14  1  0  0  0  0
  2 27  1  0  0  0  0
  3  7  1  0  0  0  0
  4 23  1  6  0  0  0
  4 15  1  0  0  0  0
  5 19  1  0  0  0  0
  8 16  2  0  0  0  0
  9 27  1  6  0  0  0
  9 13  1  0  0  0  0
 10 22  1  0  0  0  0
 11  5  2  0  0  0  0
 12  8  1  0  0  0  0
 13 20  1  0  0  0  0
 13 24  1  1  0  0  0
 15 12  2  0  0  0  0
 15  5  1  0  0  0  0
 16  3  1  0  0  0  0
 17 28  1  6  0  0  0
 17 10  1  0  0  0  0
 18  4  1  0  0  0  0
 18 20  2  0  0  0  0
 19  3  2  0  0  0  0
 19  6  1  0  0  0  0
 20 11  1  0  0  0  0
 21 23  2  0  0  0  0
 22 24  1  0  0  0  0
 25 14  1  6  0  0  0
 25  9  1  0  0  0  0
 25 17  1  0  0  0  0
 26 21  1  0  0  0  0
 26  1  2  0  0  0  0
 27  1  1  0  0  0  0
 29 28  1  0  0  0  0
 30 33  1  0  0  0  0
 31 33  2  0  0  0  0
 32 29  1  1  0  0  0
 32 31  1  0  0  0  0
 34 32  1  0  0  0  0
 34 30  1  0  0  0  0
M  END
>  <MODEL>
2

>  <REMARK>
 VINA RESULT:      -9.5      1.572      2.253
  Name = 
  3 active torsions:
  status: ('A' for Active; 'I' for Inactive)
    1  A    between atoms: C_17  and  C_28
    2  A    between atoms: C_28  and  O_29
    3  A    between atoms: O_29  and  C_32
                            x       y       z     vdW  Elec       q    Type
                         _______ _______ _______ _____ _____    ______ ____

>  <TORSDO>
F 3

$$$$
=
 OpenBabel11122412243D

 34 40  0  0  1  0  0  0  0  0999 V2000
  182.3630  178.9090  143.2030 C   0  0  0  0  0  0  0  0  0  0  0  0
  183.8200  178.7430  145.2780 C   0  0  0  0  0  2  0  0  0  0  0  0
  181.1870  177.3370  136.9160 C   0  0  0  0  0  0  0  0  0  0  0  0
  181.0850  178.5930  141.1570 C   0  0  0  0  0  0  0  0  0  0  0  0
  182.3160  177.8500  139.0900 C   0  0  0  0  0  0  0  0  0  0  0  0
  183.6550  176.8060  137.3160 C   0  0  0  0  0  1  0  0  0  0  0  0
  181.0770  176.2320  135.9220 C   0  0  0  0  0  1  0  0  0  0  0  0
  180.1950  179.5260  137.6710 C   0  0  0  0  0  3  0  0  0  0  0  0
  184.8700  179.1490  143.1250 C   0  0  2  0  0  3  0  0  0  0  0  0
  187.7560  177.7340  142.6260 C   0  0  0  0  0  2  0  0  0  0  0  0
  183.5230  177.9150  139.8690 N   0  0  0  0  0  0  0  0  0  0  0  0
  180.5450  179.5590  138.9560 C   0  0  0  0  0  3  0  0  0  0  0  0
  184.8870  178.2640  141.8550 C   0  0  1  0  0  3  0  0  0  0  0  0
  185.3180  178.8050  145.5120 C   0  0  0  0  0  2  0  0  0  0  0  0
  181.0120  178.3370  139.6770 C   0  0  0  0  0  0  0  0  0  0  0  0
  180.2860  178.3260  136.8180 C   0  0  0  0  0  3  0  0  0  0  0  0
  186.8040  177.5820  143.8270 C   0  0  2  0  0  3  0  0  0  0  0  0
  182.3200  178.6350  141.8270 C   0  0  0  0  0  0  0  0  0  0  0  0
  182.3630  177.3620  137.8330 C   0  0  1  0  0  3  0  0  0  0  0  0
  183.5720  178.3150  141.1060 C   0  0  0  0  0  0  0  0  0  0  0  0
  179.9430  179.0450  143.2520 C   0  0  0  0  0  3  0  0  0  0  0  0
  187.3860  178.8490  141.6460 C   0  0  0  0  0  2  0  0  0  0  0  0
  179.9010  178.7930  141.8780 C   0  0  0  0  0  3  0  0  0  0  0  0
  186.0620  178.6020  140.9240 C   0  0  0  0  0  2  0  0  0  0  0  0
  185.9990  178.8670  144.1400 C   0  0  1  0  0  3  0  0  0  0  0  0
  181.1720  179.1040  143.9140 C   0  0  0  0  0  3  0  0  0  0  0  0
  183.6320  178.9730  143.8610 N   0  0  0  0  0  0  0  0  0  0  0  0
  187.6200  177.1110  145.0260 C   0  0  0  0  0  2  0  0  0  0  0  0
  188.9390  176.8670  144.6390 O   0  0  0  0  0  0  0  0  0  0  0  0
  190.6240  176.3880  147.3990 O   0  0  0  0  0  0  0  0  0  0  0  0
  191.1550  177.1820  145.3900 C   0  0  0  0  0  3  0  0  0  0  0  0
  189.7170  177.5330  145.5880 C   0  0  2  0  0  3  0  0  0  0  0  0
  191.6120  176.5350  146.4450 C   0  0  0  0  0  3  0  0  0  0  0  0
  189.4090  176.9790  146.9780 C   0  0  0  0  0  2  0  0  0  0  0  0
  1 27  1  0  0  0  0
  1 26  1  0  0  0  0
  2 14  1  0  0  0  0
  3 19  1  0  0  0  0
  4 18  1  0  0  0  0
  4 23  2  0  0  0  0
  5 15  2  0  0  0  0
  5 11  1  0  0  0  0
  7  3  1  0  0  0  0
  8 12  2  0  0  0  0
  9 27  1  1  0  0  0
  9 25  1  0  0  0  0
 10 17  1  0  0  0  0
 11 20  2  0  0  0  0
 12 15  1  0  0  0  0
 13 24  1  6  0  0  0
 13  9  1  0  0  0  0
 15  4  1  0  0  0  0
 16  3  2  0  0  0  0
 16  8  1  0  0  0  0
 17 25  1  0  0  0  0
 17 28  1  1  0  0  0
 18  1  2  0  0  0  0
 19  6  1  1  0  0  0
 19  5  1  0  0  0  0
 20 18  1  0  0  0  0
 20 13  1  0  0  0  0
 21 26  2  0  0  0  0
 22 10  1  0  0  0  0
 23 21  1  0  0  0  0
 24 22  1  0  0  0  0
 25 14  1  1  0  0  0
 27  2  1  0  0  0  0
 29 28  1  0  0  0  0
 31 32  1  0  0  0  0
 31 33  2  0  0  0  0
 32 29  1  6  0  0  0
 32 34  1  0  0  0  0
 33 30  1  0  0  0  0
 34 30  1  0  0  0  0
M  END
>  <MODEL>
3

>  <REMARK>
 VINA RESULT:      -9.3      3.200      9.142
  Name = 
  3 active torsions:
  status: ('A' for Active; 'I' for Inactive)
    1  A    between atoms: C_17  and  C_28
    2  A    between atoms: C_28  and  O_29
    3  A    between atoms: O_29  and  C_32
                            x       y       z     vdW  Elec       q    Type
                         _______ _______ _______ _____ _____    ______ ____

>  <TORSDO>
F 3

$$$$
=
 OpenBabel11122412243D

 34 40  0  0  1  0  0  0  0  0999 V2000
  183.3860  178.7800  143.2960 C   0  0  0  0  0  0  0  0  0  0  0  0
  181.1470  179.7550  142.5970 C   0  0  0  0  0  2  0  0  0  0  0  0
  189.7560  177.6540  142.0560 C   0  0  0  0  0  0  0  0  0  0  0  0
  185.7170  178.2520  143.7570 C   0  0  0  0  0  0  0  0  0  0  0  0
  187.2990  178.0570  141.8080 C   0  0  0  0  0  0  0  0  0  0  0  0
  188.7060  178.2550  139.8060 C   0  0  0  0  0  1  0  0  0  0  0  0
  191.0570  178.2550  141.6470 C   0  0  0  0  0  1  0  0  0  0  0  0
  188.6590  175.9870  143.5940 C   0  0  0  0  0  3  0  0  0  0  0  0
  182.4380  178.4810  140.9810 C   0  0  2  0  0  3  0  0  0  0  0  0
  182.3290  179.5110  137.8970 C   0  0  0  0  0  2  0  0  0  0  0  0
  186.1670  178.2950  140.9540 N   0  0  0  0  0  0  0  0  0  0  0  0
  187.4250  176.4780  143.6960 C   0  0  0  0  0  3  0  0  0  0  0  0
  183.8440  178.7660  140.3990 C   0  0  1  0  0  3  0  0  0  0  0  0
  180.3720  179.7660  141.2920 C   0  0  0  0  0  2  0  0  0  0  0  0
  187.0980  177.8790  143.2950 C   0  0  0  0  0  0  0  0  0  0  0  0
  189.8010  176.7290  143.0260 C   0  0  0  0  0  2  0  0  0  0  0  0
  181.7160  180.1610  139.1520 C   0  0  2  0  0  3  0  0  0  0  0  0
  184.6750  178.4650  142.8370 C   0  0  0  0  0  0  0  0  0  0  0  0
  188.5330  177.9850  141.2690 C   0  0  0  0  0  0  0  0  0  0  0  0
  184.9470  178.4370  141.3830 C   0  0  0  0  0  0  0  0  0  0  0  0
  184.1870  178.7210  145.5830 C   0  0  0  0  0  3  0  0  0  0  0  0
  182.8800  178.0990  138.1060 C   0  0  0  0  0  2  0  0  0  0  0  0
  185.4640  178.3880  145.1290 C   0  0  0  0  0  3  0  0  0  0  0  0
  184.0750  178.0530  139.0570 C   0  0  0  0  0  2  0  0  0  0  0  0
  181.2650  179.1330  140.2180 C   0  0  1  0  0  3  0  0  0  0  0  0
  183.1480  178.9160  144.6700 C   0  0  0  0  0  3  0  0  0  0  0  0
  182.3340  178.9670  142.3440 N   0  0  0  0  0  0  0  0  0  0  0  0
  180.5720  181.0670  138.7100 C   0  0  0  0  0  2  0  0  0  0  0  0
  180.5760  181.1960  137.3190 O   0  0  0  0  0  0  0  0  0  0  0  0
  181.3890  184.2470  136.4740 O   0  0  0  0  0  0  0  0  0  0  0  0
  180.0190  182.7230  135.6070 C   0  0  0  0  0  3  0  0  0  0  0  0
  180.0300  182.4580  137.0770 C   0  0  2  0  0  3  0  0  0  0  0  0
  180.8060  183.7440  135.3260 C   0  0  0  0  0  3  0  0  0  0  0  0
  180.9700  183.5320  137.6210 C   0  0  0  0  0  2  0  0  0  0  0  0
  1 26  1  0  0  0  0
  3 16  1  0  0  0  0
  4 23  2  0  0  0  0
  5 15  2  0  0  0  0
  6 19  1  0  0  0  0
  7  3  1  0  0  0  0
  8 12  2  0  0  0  0
  9 27  1  1  0  0  0
 10 22  1  0  0  0  0
 10 17  1  0  0  0  0
 11 20  2  0  0  0  0
 11  5  1  0  0  0  0
 13 24  1  6  0  0  0
 13  9  1  0  0  0  0
 13 20  1  0  0  0  0
 14  2  1  0  0  0  0
 15 12  1  0  0  0  0
 15  4  1  0  0  0  0
 16  8  1  0  0  0  0
 17 28  1  6  0  0  0
 17 25  1  0  0  0  0
 18  1  2  0  0  0  0
 18  4  1  0  0  0  0
 19  5  1  0  0  0  0
 19  3  2  0  0  0  0
 20 18  1  0  0  0  0
 22 24  1  0  0  0  0
 23 21  1  0  0  0  0
 25  9  1  0  0  0  0
 25 14  1  1  0  0  0
 26 21  2  0  0  0  0
 27  2  1  0  0  0  0
 27  1  1  0  0  0  0
 29 28  1  0  0  0  0
 30 34  1  0  0  0  0
 31 32  1  0  0  0  0
 32 29  1  6  0  0  0
 32 34  1  0  0  0  0
 33 31  2  0  0  0  0
 33 30  1  0  0  0  0
M  END
>  <MODEL>
4

>  <REMARK>
 VINA RESULT:      -9.2      2.494      4.889
  Name = 
  3 active torsions:
  status: ('A' for Active; 'I' for Inactive)
    1  A    between atoms: C_17  and  C_28
    2  A    between atoms: C_28  and  O_29
    3  A    between atoms: O_29  and  C_32
                            x       y       z     vdW  Elec       q    Type
                         _______ _______ _______ _____ _____    ______ ____

>  <TORSDO>
F 3

$$$$
=
 OpenBabel11122412243D

 34 40  0  0  1  0  0  0  0  0999 V2000
  188.9950  177.4500  143.5710 C   0  0  0  0  0  0  0  0  0  0  0  0
  191.2290  176.6110  142.6990 C   0  0  0  0  0  2  0  0  0  0  0  0
  182.5700  178.5730  142.6540 C   0  0  0  0  0  0  0  0  0  0  0  0
  186.6710  177.8700  144.1570 C   0  0  0  0  0  0  0  0  0  0  0  0
  185.0250  178.2550  142.2900 C   0  0  0  0  0  0  0  0  0  0  0  0
  183.5610  178.2590  140.3200 C   0  0  0  0  0  1  0  0  0  0  0  0
  181.2680  177.9950  142.2150 C   0  0  0  0  0  1  0  0  0  0  0  0
  183.6840  180.0740  144.3430 C   0  0  0  0  0  3  0  0  0  0  0  0
  189.8650  178.0360  141.2800 C   0  0  2  0  0  3  0  0  0  0  0  0
  189.8960  177.3720  138.0950 C   0  0  0  0  0  2  0  0  0  0  0  0
  186.1340  178.1420  141.3820 N   0  0  0  0  0  0  0  0  0  0  0  0
  184.9290  179.6010  144.3520 C   0  0  0  0  0  3  0  0  0  0  0  0
  188.4470  177.7890  140.7090 C   0  0  1  0  0  3  0  0  0  0  0  0
  191.9630  176.7680  141.3790 C   0  0  0  0  0  2  0  0  0  0  0  0
  185.2690  178.2640  143.7820 C   0  0  0  0  0  0  0  0  0  0  0  0
  182.5380  179.3770  143.7270 C   0  0  0  0  0  2  0  0  0  0  0  0
  190.5610  176.5940  139.2480 C   0  0  2  0  0  3  0  0  0  0  0  0
  187.6870  177.7870  143.1890 C   0  0  0  0  0  0  0  0  0  0  0  0
  183.7740  178.3620  141.7990 C   0  0  0  0  0  0  0  0  0  0  0  0
  187.3690  177.9780  141.7560 C   0  0  0  0  0  0  0  0  0  0  0  0
  188.2660  177.2250  145.8710 C   0  0  0  0  0  3  0  0  0  0  0  0
  189.3270  178.7380  138.4820 C   0  0  0  0  0  2  0  0  0  0  0  0
  186.9680  177.5810  145.4960 C   0  0  0  0  0  3  0  0  0  0  0  0
  188.1610  178.6470  139.4660 C   0  0  0  0  0  2  0  0  0  0  0  0
  191.0260  177.5010  140.4130 C   0  0  1  0  0  3  0  0  0  0  0  0
  189.2780  177.1600  144.9120 C   0  0  0  0  0  3  0  0  0  0  0  0
  190.0200  177.3970  142.5730 N   0  0  0  0  0  0  0  0  0  0  0  0
  191.7060  175.7710  138.6700 C   0  0  0  0  0  2  0  0  0  0  0  0
  192.4970  176.5700  137.8410 O   0  0  0  0  0  0  0  0  0  0  0  0
  195.3100  175.6290  136.4680 O   0  0  0  0  0  0  0  0  0  0  0  0
  193.7150  174.5630  137.5940 C   0  0  0  0  0  3  0  0  0  0  0  0
  193.0250  175.6880  136.8960 C   0  0  2  0  0  3  0  0  0  0  0  0
  195.0040  174.5820  137.3160 C   0  0  0  0  0  3  0  0  0  0  0  0
  194.1560  176.3750  136.1330 C   0  0  0  0  0  2  0  0  0  0  0  0
  1 26  1  0  0  0  0
  3 16  1  0  0  0  0
  4 23  2  0  0  0  0
  5 15  2  0  0  0  0
  6 19  1  0  0  0  0
  7  3  1  0  0  0  0
  8 12  2  0  0  0  0
  9 27  1  1  0  0  0
 10 22  1  0  0  0  0
 10 17  1  0  0  0  0
 11 20  2  0  0  0  0
 11  5  1  0  0  0  0
 13 24  1  6  0  0  0
 13  9  1  0  0  0  0
 13 20  1  0  0  0  0
 14  2  1  0  0  0  0
 15  4  1  0  0  0  0
 15 12  1  0  0  0  0
 16  8  1  0  0  0  0
 17 28  1  6  0  0  0
 17 25  1  0  0  0  0
 18  1  2  0  0  0  0
 18  4  1  0  0  0  0
 19  5  1  0  0  0  0
 19  3  2  0  0  0  0
 20 18  1  0  0  0  0
 22 24  1  0  0  0  0
 23 21  1  0  0  0  0
 25  9  1  0  0  0  0
 25 14  1  1  0  0  0
 26 21  2  0  0  0  0
 27  2  1  0  0  0  0
 27  1  1  0  0  0  0
 29 28  1  0  0  0  0
 30 33  1  0  0  0  0
 32 31  1  0  0  0  0
 32 29  1  1  0  0  0
 33 31  2  0  0  0  0
 34 30  1  0  0  0  0
 34 32  1  0  0  0  0
M  END
>  <MODEL>
5

>  <REMARK>
 VINA RESULT:      -9.0      4.258      9.003
  Name = 
  3 active torsions:
  status: ('A' for Active; 'I' for Inactive)
    1  A    between atoms: C_17  and  C_28
    2  A    between atoms: C_28  and  O_29
    3  A    between atoms: O_29  and  C_32
                            x       y       z     vdW  Elec       q    Type
                         _______ _______ _______ _____ _____    ______ ____

>  <TORSDO>
F 3

$$$$
=
 OpenBabel11122412243D

 34 40  0  0  1  0  0  0  0  0999 V2000
  189.2660  177.4840  138.9600 C   0  0  0  0  0  0  0  0  0  0  0  0
  187.9910  177.1700  136.7860 C   0  0  0  0  0  2  0  0  0  0  0  0
  189.3950  177.5070  145.5450 C   0  0  0  0  0  0  0  0  0  0  0  0
  190.2150  177.4040  141.2000 C   0  0  1  0  0  3  0  0  0  0  0  0
  188.6600  177.6860  143.1600 C   0  0  0  0  0  0  0  0  0  0  0  0
  186.9270  177.6400  144.8990 C   0  0  0  0  0  1  0  0  0  0  0  0
  189.0620  176.7530  146.7880 C   0  0  0  0  0  1  0  0  0  0  0  0
  191.1060  178.9900  144.4410 C   0  0  0  0  0  3  0  0  0  0  0  0
  186.9790  178.4690  138.5720 C   0  0  2  0  0  3  0  0  0  0  0  0
  183.7590  178.1790  138.9360 C   0  0  0  0  0  2  0  0  0  0  0  0
  187.6020  177.8790  142.2060 N   0  0  0  0  0  0  0  0  0  0  0  0
  190.8800  178.7550  143.1490 C   0  0  0  0  0  3  0  0  0  0  0  0
  186.5790  178.0320  140.0020 C   0  0  1  0  0  3  0  0  0  0  0  0
  186.6180  177.6040  136.3050 C   0  0  0  0  0  2  0  0  0  0  0  0
  190.0910  177.5740  142.6890 C   0  0  0  0  0  0  0  0  0  0  0  0
  190.5620  178.1680  145.5390 C   0  0  0  0  0  3  0  0  0  0  0  0
  184.6930  177.4140  137.9790 C   0  0  2  0  0  3  0  0  0  0  0  0
  189.1150  177.6160  140.3500 C   0  0  0  0  0  0  0  0  0  0  0  0
  188.3630  177.6160  144.4740 C   0  0  0  0  0  0  0  0  0  0  0  0
  187.7780  177.9030  140.9170 C   0  0  0  0  0  0  0  0  0  0  0  0
  191.5910  176.8760  139.2700 C   0  0  0  0  0  3  0  0  0  0  0  0
  184.4040  179.3670  139.6540 C   0  0  0  0  0  2  0  0  0  0  0  0
  191.4480  177.0280  140.6510 C   0  0  0  0  0  3  0  0  0  0  0  0
  185.5160  178.9560  140.6180 C   0  0  0  0  0  2  0  0  0  0  0  0
  185.8970  178.2560  137.4910 C   0  0  1  0  0  3  0  0  0  0  0  0
  190.5030  177.1040  138.4250 C   0  0  0  0  0  3  0  0  0  0  0  0
  188.1400  177.7300  138.1110 N   0  0  0  0  0  0  0  0  0  0  0  0
  183.8580  176.8830  136.8190 C   0  0  0  0  0  2  0  0  0  0  0  0
  184.3190  175.6200  136.4380 O   0  0  0  0  0  0  0  0  0  0  0  0
  182.8670  172.7150  136.8020 O   0  0  0  0  0  0  0  0  0  0  0  0
  184.7520  173.6010  137.5810 C   0  0  0  0  0  3  0  0  0  0  0  0
  183.8160  174.7500  137.4070 C   0  0  2  0  0  3  0  0  0  0  0  0
  184.1610  172.4780  137.2210 C   0  0  0  0  0  3  0  0  0  0  0  0
  182.5410  174.0890  136.8850 C   0  0  0  0  0  2  0  0  0  0  0  0
  1 18  1  0  0  0  0
  2 27  1  0  0  0  0
  3  7  1  0  0  0  0
  4 23  1  6  0  0  0
  4 15  1  0  0  0  0
  5 19  1  0  0  0  0
  8 16  2  0  0  0  0
  9 27  1  6  0  0  0
  9 13  1  0  0  0  0
 10 22  1  0  0  0  0
 11  5  2  0  0  0  0
 12  8  1  0  0  0  0
 13 24  1  1  0  0  0
 13 20  1  0  0  0  0
 14  2  1  0  0  0  0
 15 12  2  0  0  0  0
 15  5  1  0  0  0  0
 16  3  1  0  0  0  0
 17 28  1  6  0  0  0
 17 10  1  0  0  0  0
 18 20  2  0  0  0  0
 18  4  1  0  0  0  0
 19  6  1  0  0  0  0
 19  3  2  0  0  0  0
 20 11  1  0  0  0  0
 21 23  2  0  0  0  0
 22 24  1  0  0  0  0
 25 14  1  6  0  0  0
 25 17  1  0  0  0  0
 25  9  1  0  0  0  0
 26  1  2  0  0  0  0
 26 21  1  0  0  0  0
 27  1  1  0  0  0  0
 29 28  1  0  0  0  0
 30 34  1  0  0  0  0
 30 33  1  0  0  0  0
 32 29  1  6  0  0  0
 32 31  1  0  0  0  0
 33 31  2  0  0  0  0
 34 32  1  0  0  0  0
M  END
>  <MODEL>
6

>  <REMARK>
 VINA RESULT:      -8.5      3.121      4.492
  Name = 
  3 active torsions:
  status: ('A' for Active; 'I' for Inactive)
    1  A    between atoms: C_17  and  C_28
    2  A    between atoms: C_28  and  O_29
    3  A    between atoms: O_29  and  C_32
                            x       y       z     vdW  Elec       q    Type
                         _______ _______ _______ _____ _____    ______ ____

>  <TORSDO>
F 3

$$$$
=
 OpenBabel11122412243D

 34 40  0  0  1  0  0  0  0  0999 V2000
  182.5170  178.8900  142.6400 C   0  0  0  0  0  0  0  0  0  0  0  0
  180.3890  179.6030  141.4500 C   0  0  0  0  0  2  0  0  0  0  0  0
  189.0540  178.0850  142.6450 C   0  0  0  0  0  0  0  0  0  0  0  0
  184.7550  178.5970  143.5510 C   0  0  0  0  0  0  0  0  0  0  0  0
  186.6610  178.2730  141.9380 C   0  0  0  0  0  0  0  0  0  0  0  0
  188.3850  178.3180  140.1900 C   0  0  0  0  0  1  0  0  0  0  0  0
  190.3750  178.7230  142.3800 C   0  0  0  0  0  1  0  0  0  0  0  0
  187.7910  176.5510  144.1930 C   0  0  0  0  0  3  0  0  0  0  0  0
  182.0050  178.2320  140.2620 C   0  0  2  0  0  3  0  0  0  0  0  0
  182.3860  178.8530  137.0920 C   0  0  0  0  0  2  0  0  0  0  0  0
  185.6860  178.3170  140.8830 N   0  0  0  0  0  0  0  0  0  0  0  0
  186.5340  176.9590  144.0200 C   0  0  0  0  0  3  0  0  0  0  0  0
  183.4750  178.5430  139.8890 C   0  0  1  0  0  3  0  0  0  0  0  0
  179.8540  179.3920  140.0450 C   0  0  0  0  0  2  0  0  0  0  0  0
  186.2130  178.2700  143.3810 C   0  0  0  0  0  0  0  0  0  0  0  0
  188.9760  177.2970  143.7270 C   0  0  0  0  0  2  0  0  0  0  0  0
  181.5300  179.6100  138.1250 C   0  0  2  0  0  3  0  0  0  0  0  0
  183.8800  178.6150  142.4500 C   0  0  0  0  0  0  0  0  0  0  0  0
  187.9730  178.2230  141.6270 C   0  0  0  0  0  0  0  0  0  0  0  0
  184.4040  178.4230  141.0790 C   0  0  0  0  0  0  0  0  0  0  0  0
  182.9070  179.1810  145.0140 C   0  0  0  0  0  3  0  0  0  0  0  0
  182.9620  177.5230  137.5810 C   0  0  0  0  0  2  0  0  0  0  0  0
  184.2600  178.8870  144.8290 C   0  0  0  0  0  3  0  0  0  0  0  0
  183.9730  177.6850  138.7150 C   0  0  0  0  0  2  0  0  0  0  0  0
  180.9520  178.6950  139.2330 C   0  0  1  0  0  3  0  0  0  0  0  0
  182.0360  179.1820  143.9220 C   0  0  0  0  0  3  0  0  0  0  0  0
  181.6400  178.8780  141.5090 N   0  0  0  0  0  0  0  0  0  0  0  0
  180.4370  180.3670  137.3780 C   0  0  0  0  0  2  0  0  0  0  0  0
  181.0060  181.3740  136.5950 O   0  0  0  0  0  0  0  0  0  0  0  0
  181.7710  184.4570  137.3640 O   0  0  0  0  0  0  0  0  0  0  0  0
  180.3000  183.5390  135.9710 C   0  0  0  0  0  3  0  0  0  0  0  0
  180.4550  182.5590  137.0870 C   0  0  2  0  0  3  0  0  0  0  0  0
  181.0690  184.5900  136.1810 C   0  0  0  0  0  3  0  0  0  0  0  0
  181.4600  183.2400  138.0150 C   0  0  0  0  0  2  0  0  0  0  0  0
  1 26  1  0  0  0  0
  2 27  1  0  0  0  0
  3 16  1  0  0  0  0
  4 23  2  0  0  0  0
  5 15  2  0  0  0  0
  6 19  1  0  0  0  0
  7  3  1  0  0  0  0
  9 27  1  1  0  0  0
 10 22  1  0  0  0  0
 10 17  1  0  0  0  0
 11 20  2  0  0  0  0
 11  5  1  0  0  0  0
 12  8  2  0  0  0  0
 13 24  1  6  0  0  0
 13  9  1  0  0  0  0
 13 20  1  0  0  0  0
 14  2  1  0  0  0  0
 15  4  1  0  0  0  0
 15 12  1  0  0  0  0
 16  8  1  0  0  0  0
 17 28  1  6  0  0  0
 17 25  1  0  0  0  0
 18  1  2  0  0  0  0
 18  4  1  0  0  0  0
 19  5  1  0  0  0  0
 19  3  2  0  0  0  0
 20 18  1  0  0  0  0
 22 24  1  0  0  0  0
 23 21  1  0  0  0  0
 25 14  1  1  0  0  0
 25  9  1  0  0  0  0
 26 21  2  0  0  0  0
 27  1  1  0  0  0  0
 29 28  1  0  0  0  0
 30 34  1  0  0  0  0
 31 33  2  0  0  0  0
 31 32  1  0  0  0  0
 32 29  1  6  0  0  0
 32 34  1  0  0  0  0
 33 30  1  0  0  0  0
M  END
>  <MODEL>
7

>  <REMARK>
 VINA RESULT:      -8.4      2.550      5.178
  Name = 
  3 active torsions:
  status: ('A' for Active; 'I' for Inactive)
    1  A    between atoms: C_17  and  C_28
    2  A    between atoms: C_28  and  O_29
    3  A    between atoms: O_29  and  C_32
                            x       y       z     vdW  Elec       q    Type
                         _______ _______ _______ _____ _____    ______ ____

>  <TORSDO>
F 3

$$$$
=
 OpenBabel11122412243D

 34 40  0  0  1  0  0  0  0  0999 V2000
  188.8510  177.4770  139.1530 C   0  0  0  0  0  0  0  0  0  0  0  0
  187.4040  177.1640  137.0890 C   0  0  0  0  0  2  0  0  0  0  0  0
  189.5080  177.5120  145.7070 C   0  0  0  0  0  0  0  0  0  0  0  0
  189.9760  177.3980  141.3090 C   0  0  1  0  0  3  0  0  0  0  0  0
  188.5850  177.6890  143.3880 C   0  0  0  0  0  0  0  0  0  0  0  0
  186.9970  177.6530  145.2600 C   0  0  0  0  0  1  0  0  0  0  0  0
  189.2740  176.7610  146.9730 C   0  0  0  0  0  1  0  0  0  0  0  0
  191.1300  178.9870  144.4650 C   0  0  0  0  0  3  0  0  0  0  0  0
  186.5440  178.4700  138.9480 C   0  0  2  0  0  3  0  0  0  0  0  0
  183.3630  178.1920  139.5690 C   0  0  0  0  0  2  0  0  0  0  0  0
  187.4550  177.8850  142.5210 N   0  0  0  0  0  0  0  0  0  0  0  0
  190.8010  178.7500  143.1960 C   0  0  0  0  0  3  0  0  0  0  0  0
  186.2580  178.0380  140.4060 C   0  0  1  0  0  3  0  0  0  0  0  0
  185.9990  177.6020  136.7190 C   0  0  0  0  0  2  0  0  0  0  0  0
  189.9730  177.5710  142.8030 C   0  0  0  0  0  0  0  0  0  0  0  0
  190.6730  178.1690  145.6050 C   0  0  0  0  0  3  0  0  0  0  0  0
  184.2140  177.4220  138.5420 C   0  0  2  0  0  3  0  0  0  0  0  0
  188.8130  177.6130  140.5500 C   0  0  0  0  0  0  0  0  0  0  0  0
  188.3940  177.6230  144.7210 C   0  0  0  0  0  0  0  0  0  0  0  0
  187.5270  177.9060  141.2220 C   0  0  0  0  0  0  0  0  0  0  0  0
  191.1920  176.8620  139.2770 C   0  0  0  0  0  3  0  0  0  0  0  0
  184.0670  179.3790  140.2310 C   0  0  0  0  0  2  0  0  0  0  0  0
  191.1600  177.0170  140.6640 C   0  0  0  0  0  3  0  0  0  0  0  0
  185.2510  178.9660  141.1040 C   0  0  0  0  0  2  0  0  0  0  0  0
  185.3780  178.2590  137.9580 C   0  0  1  0  0  3  0  0  0  0  0  0
  190.0400  177.0920  138.5210 C   0  0  0  0  0  3  0  0  0  0  0  0
  187.6610  177.7260  138.3970 N   0  0  0  0  0  0  0  0  0  0  0  0
  183.2860  176.8920  137.4550 C   0  0  0  0  0  2  0  0  0  0  0  0
  183.3060  175.4950  137.4500 O   0  0  0  0  0  0  0  0  0  0  0  0
  180.6890  173.6070  137.9690 O   0  0  0  0  0  0  0  0  0  0  0  0
  180.9710  175.7880  137.6330 C   0  0  0  0  0  3  0  0  0  0  0  0
  182.0830  175.1240  136.8890 C   0  0  2  0  0  3  0  0  0  0  0  0
  180.2180  174.8810  138.2250 C   0  0  0  0  0  3  0  0  0  0  0  0
  181.8360  173.6380  137.1410 C   0  0  0  0  0  2  0  0  0  0  0  0
  1 18  1  0  0  0  0
  2 27  1  0  0  0  0
  3  7  1  0  0  0  0
  4 23  1  6  0  0  0
  4 15  1  0  0  0  0
  5 19  1  0  0  0  0
  8 16  2  0  0  0  0
  9 27  1  6  0  0  0
  9 13  1  0  0  0  0
 10 22  1  0  0  0  0
 11  5  2  0  0  0  0
 12  8  1  0  0  0  0
 13 24  1  1  0  0  0
 13 20  1  0  0  0  0
 14  2  1  0  0  0  0
 15 12  2  0  0  0  0
 15  5  1  0  0  0  0
 16  3  1  0  0  0  0
 17 28  1  6  0  0  0
 17 10  1  0  0  0  0
 18 20  2  0  0  0  0
 18  4  1  0  0  0  0
 19  6  1  0  0  0  0
 19  3  2  0  0  0  0
 20 11  1  0  0  0  0
 21 23  2  0  0  0  0
 22 24  1  0  0  0  0
 25 14  1  6  0  0  0
 25 17  1  0  0  0  0
 25  9  1  0  0  0  0
 26  1  2  0  0  0  0
 26 21  1  0  0  0  0
 27  1  1  0  0  0  0
 29 28  1  0  0  0  0
 30 33  1  0  0  0  0
 31 33  2  0  0  0  0
 32 34  1  0  0  0  0
 32 29  1  1  0  0  0
 32 31  1  0  0  0  0
 34 30  1  0  0  0  0
M  END
>  <MODEL>
8

>  <REMARK>
 VINA RESULT:      -8.2      2.748      3.668
  Name = 
  3 active torsions:
  status: ('A' for Active; 'I' for Inactive)
    1  A    between atoms: C_17  and  C_28
    2  A    between atoms: C_28  and  O_29
    3  A    between atoms: O_29  and  C_32
                            x       y       z     vdW  Elec       q    Type
                         _______ _______ _______ _____ _____    ______ ____

>  <TORSDO>
F 3

$$$$
=
 OpenBabel11122412243D

 34 40  0  0  1  0  0  0  0  0999 V2000
  186.3860  178.4530  141.0700 C   0  0  0  0  0  0  0  0  0  0  0  0
  188.7870  177.8290  141.6180 C   0  0  0  0  0  2  0  0  0  0  0  0
  181.1640  178.0830  137.0740 C   0  0  0  0  0  0  0  0  0  0  0  0
  184.0560  178.5870  140.3830 C   0  0  0  0  0  0  0  0  0  0  0  0
  183.5000  178.1310  137.9700 C   0  0  0  0  0  0  0  0  0  0  0  0
  183.1630  177.3190  135.6780 C   0  0  0  0  0  1  0  0  0  0  0  0
  180.2500  177.1770  136.3200 C   0  0  0  0  0  1  0  0  0  0  0  0
  181.2860  180.1710  138.4770 C   0  0  0  0  0  3  0  0  0  0  0  0
  188.2330  178.5280  139.3580 C   0  0  2  0  0  3  0  0  0  0  0  0
  189.8100  177.0220  136.9440 C   0  0  0  0  0  2  0  0  0  0  0  0
  184.9120  177.9740  137.7460 N   0  0  0  0  0  0  0  0  0  0  0  0
  182.3870  179.9560  139.1960 C   0  0  0  0  0  3  0  0  0  0  0  0
  187.2720  177.8780  138.3340 C   0  0  1  0  0  3  0  0  0  0  0  0
  190.0600  177.7440  140.7950 C   0  0  0  0  0  2  0  0  0  0  0  0
  182.9960  178.5980  139.3160 C   0  0  0  0  0  0  0  0  0  0  0  0
  180.5980  179.1340  137.6850 C   0  0  0  0  0  2  0  0  0  0  0  0
  189.8610  176.7310  138.4560 C   0  0  2  0  0  3  0  0  0  0  0  0
  185.4140  178.4260  140.0580 C   0  0  0  0  0  0  0  0  0  0  0  0
  182.6360  177.8660  136.9690 C   0  0  0  0  0  0  0  0  0  0  0  0
  185.8190  178.1500  138.6620 C   0  0  0  0  0  0  0  0  0  0  0  0
  184.6480  178.7480  142.7330 C   0  0  0  0  0  3  0  0  0  0  0  0
  189.0860  178.3140  136.5590 C   0  0  0  0  0  2  0  0  0  0  0  0
  183.6810  178.7420  141.7250 C   0  0  0  0  0  3  0  0  0  0  0  0
  187.5940  178.2890  136.8880 C   0  0  0  0  0  2  0  0  0  0  0  0
  189.6820  177.9950  139.3310 C   0  0  1  0  0  3  0  0  0  0  0  0
  185.9980  178.6050  142.4070 C   0  0  0  0  0  3  0  0  0  0  0  0
  187.7660  178.3140  140.7140 N   0  0  0  0  0  0  0  0  0  0  0  0
  191.1660  176.0030  138.7580 C   0  0  0  0  0  2  0  0  0  0  0  0
  191.2660  174.8550  137.9680 O   0  0  0  0  0  0  0  0  0  0  0  0
  194.4910  175.2530  138.3240 O   0  0  0  0  0  0  0  0  0  0  0  0
  193.2330  173.7590  137.2590 C   0  0  0  0  0  3  0  0  0  0  0  0
  192.4450  175.0270  137.2400 C   0  0  2  0  0  3  0  0  0  0  0  0
  194.3780  173.9470  137.8860 C   0  0  0  0  0  3  0  0  0  0  0  0
  193.3540  176.0160  137.9680 C   0  0  0  0  0  2  0  0  0  0  0  0
  1 26  1  0  0  0  0
  3 16  1  0  0  0  0
  4 23  2  0  0  0  0
  5 15  2  0  0  0  0
  6 19  1  0  0  0  0
  7  3  1  0  0  0  0
  8 12  2  0  0  0  0
  9 27  1  1  0  0  0
 10 17  1  0  0  0  0
 11  5  1  0  0  0  0
 11 20  2  0  0  0  0
 12 15  1  0  0  0  0
 13 24  1  6  0  0  0
 13 20  1  0  0  0  0
 13  9  1  0  0  0  0
 14  2  1  0  0  0  0
 15  4  1  0  0  0  0
 16  8  1  0  0  0  0
 17 28  1  6  0  0  0
 17 25  1  0  0  0  0
 18  4  1  0  0  0  0
 18  1  2  0  0  0  0
 19  3  2  0  0  0  0
 19  5  1  0  0  0  0
 20 18  1  0  0  0  0
 22 24  1  0  0  0  0
 22 10  1  0  0  0  0
 23 21  1  0  0  0  0
 25  9  1  0  0  0  0
 25 14  1  1  0  0  0
 26 21  2  0  0  0  0
 27  1  1  0  0  0  0
 27  2  1  0  0  0  0
 29 28  1  0  0  0  0
 31 33  2  0  0  0  0
 32 31  1  0  0  0  0
 32 34  1  0  0  0  0
 32 29  1  1  0  0  0
 33 30  1  0  0  0  0
 34 30  1  0  0  0  0
M  END
>  <MODEL>
9

>  <REMARK>
 VINA RESULT:      -7.8      4.236      9.835
  Name = 
  3 active torsions:
  status: ('A' for Active; 'I' for Inactive)
    1  A    between atoms: C_17  and  C_28
    2  A    between atoms: C_28  and  O_29
    3  A    between atoms: O_29  and  C_32
                            x       y       z     vdW  Elec       q    Type
                         _______ _______ _______ _____ _____    ______ ____

>  <TORSDO>
F 3

$$$$
