=
 OpenBabel11122412103D

 34 41  0  0  1  0  0  0  0  0999 V2000
  186.1090  176.2230  135.2770 C   0  0  0  0  0  0  0  0  0  0  0  0
  188.1470  177.6000  134.5950 C   0  0  0  0  0  2  0  0  0  0  0  0
  183.3360  171.2150  135.8610 C   0  0  2  0  0  0  0  0  0  0  0  0
  184.3110  175.0290  136.3770 C   0  0  0  0  0  0  0  0  0  0  0  0
  184.7180  172.7270  137.3350 N   0  0  1  0  0  0  0  0  0  0  0  0
  183.8110  172.3480  134.9700 C   0  0  0  0  0  2  0  0  0  0  0  0
  183.4220  169.8480  135.2140 C   0  0  0  0  0  1  0  0  0  0  0  0
  181.6470  172.9260  136.7320 C   0  0  0  0  0  2  0  0  0  0  0  0
  188.4700  175.3320  135.3590 C   0  0  2  0  0  3  0  0  0  0  0  0
  190.8620  175.1750  137.5600 C   0  0  0  0  0  2  0  0  0  0  0  0
  186.1130  173.1430  137.5470 C   0  0  0  0  0  2  0  0  0  0  0  0
  182.4210  173.7880  137.7100 C   0  0  0  0  0  2  0  0  0  0  0  0
  188.0340  174.5680  136.6150 C   0  0  1  0  0  3  0  0  0  0  0  0
  189.6480  177.3440  134.6780 C   0  0  0  0  0  2  0  0  0  0  0  0
  183.8950  173.9550  137.3440 C   0  0  2  0  0  3  0  0  0  0  0  0
  182.1480  171.4900  136.7900 C   0  0  0  0  0  2  0  0  0  0  0  0
  190.2820  176.3280  136.8460 N   0  0  0  0  0  0  0  0  0  0  0  0
  185.6650  175.1150  136.0180 C   0  0  0  0  0  0  0  0  0  0  0  0
  184.6920  171.8610  136.1260 C   0  0  2  0  0  3  0  0  0  0  0  0
  186.6320  174.0020  136.3740 C   0  0  2  0  0  3  0  0  0  0  0  0
  183.8510  177.0780  135.2630 C   0  0  0  0  0  3  0  0  0  0  0  0
  190.2980  173.7950  137.2610 C   0  0  0  0  0  3  0  0  0  0  0  0
  183.4440  176.0110  136.0030 N   0  0  0  0  0  0  0  0  0  0  0  0
  189.0450  173.5050  136.8860 C   0  0  0  0  0  3  0  0  0  0  0  0
  189.8260  176.0450  135.4660 C   0  0  1  0  0  3  0  0  0  0  0  0
  185.1930  177.2090  134.8960 C   0  0  0  0  0  3  0  0  0  0  0  0
  187.5110  176.3580  134.9950 N   0  0  0  0  0  0  0  0  0  0  0  0
  189.2720  176.9650  137.6920 C   0  0  0  0  0  2  0  0  0  0  0  0
  189.9150  177.5320  138.9430 C   0  0  0  0  0  2  0  0  0  0  0  0
  187.0270  178.7100  140.6690 N   0  0  0  0  0  0  0  0  0  0  0  0
  188.9920  177.8340  141.2450 N   0  0  0  0  0  0  0  0  0  0  0  0
  188.8520  177.9190  139.9100 C   0  0  0  0  0  0  0  0  0  0  0  0
  187.8220  178.3370  141.6900 C   0  0  0  0  0  3  0  0  0  0  0  0
  187.6760  178.4530  139.5470 N   0  0  0  0  0  2  0  0  0  0  0  0
  1 18  1  0  0  0  0
  2 14  1  0  0  0  0
  2 27  1  0  0  0  0
  3  7  1  6  0  0  0
  3 19  1  0  0  0  0
  3 16  1  0  0  0  0
  4 15  1  0  0  0  0
  5 15  1  0  0  0  0
  5 11  1  6  0  0  0
  6  3  1  0  0  0  0
  8 16  1  0  0  0  0
  8 12  1  0  0  0  0
  9 27  1  1  0  0  0
  9 25  1  0  0  0  0
  9 13  1  0  0  0  0
 13 24  1  6  0  0  0
 15 12  1  6  0  0  0
 17 10  1  0  0  0  0
 17 28  1  0  0  0  0
 18 20  1  0  0  0  0
 18  4  2  0  0  0  0
 19  6  1  6  0  0  0
 19  5  1  0  0  0  0
 20 13  1  0  0  0  0
 20 11  1  1  0  0  0
 21 23  2  0  0  0  0
 22 10  1  0  0  0  0
 23  4  1  0  0  0  0
 24 22  2  0  0  0  0
 25 14  1  6  0  0  0
 25 17  1  0  0  0  0
 26 21  1  0  0  0  0
 26  1  2  0  0  0  0
 27  1  1  0  0  0  0
 28 29  1  0  0  0  0
 29 32  1  0  0  0  0
 30 33  2  0  0  0  0
 31 33  1  0  0  0  0
 32 31  2  0  0  0  0
 34 32  1  0  0  0  0
 34 30  1  0  0  0  0
M  END
>  <MODEL>
1

>  <REMARK>
 VINA RESULT:      -6.3      0.000      0.000
  Name = 
  3 active torsions:
  status: ('A' for Active; 'I' for Inactive)
    1  A    between atoms: N_17  and  C_28
    2  A    between atoms: C_28  and  C_29
    3  A    between atoms: C_29  and  C_32
                            x       y       z     vdW  Elec       q    Type
                         _______ _______ _______ _____ _____    ______ ____

>  <TORSDO>
F 3

$$$$
=
 OpenBabel11122412103D

 34 41  0  0  1  0  0  0  0  0999 V2000
  186.3060  178.4580  139.5160 C   0  0  0  0  0  0  0  0  0  0  0  0
  188.7640  178.3000  138.8470 C   0  0  0  0  0  2  0  0  0  0  0  0
  180.8600  180.0080  138.4910 C   0  0  2  0  0  0  0  0  0  0  0  0
  183.9740  178.1270  140.0820 C   0  0  0  0  0  0  0  0  0  0  0  0
  182.2450  177.9110  138.2530 N   0  0  1  0  0  0  0  0  0  0  0  0
  182.2710  180.3890  138.8980 C   0  0  0  0  0  2  0  0  0  0  0  0
  180.1740  181.0370  137.6180 C   0  0  0  0  0  1  0  0  0  0  0  0
  180.7380  178.9310  140.8080 C   0  0  0  0  0  2  0  0  0  0  0  0
  187.0770  178.2680  137.1190 C   0  0  2  0  0  3  0  0  0  0  0  0
  187.6300  175.8630  134.9980 C   0  0  0  0  0  2  0  0  0  0  0  0
  183.3100  177.3410  137.4150 C   0  0  0  0  0  2  0  0  0  0  0  0
  181.4700  177.6100  140.6730 C   0  0  0  0  0  2  0  0  0  0  0  0
  185.8210  177.4200  136.8850 C   0  0  1  0  0  3  0  0  0  0  0  0
  189.4630  178.0500  137.5150 C   0  0  0  0  0  2  0  0  0  0  0  0
  182.6140  177.6460  139.6600 C   0  0  2  0  0  3  0  0  0  0  0  0
  180.0020  179.2570  139.5160 C   0  0  0  0  0  2  0  0  0  0  0  0
  188.3520  176.2530  136.2240 N   0  0  0  0  0  0  0  0  0  0  0  0
  184.9850  178.2030  139.1120 C   0  0  0  0  0  0  0  0  0  0  0  0
  182.0460  179.3210  137.8230 C   0  0  2  0  0  3  0  0  0  0  0  0
  184.6550  178.0670  137.6380 C   0  0  2  0  0  3  0  0  0  0  0  0
  185.5480  178.5790  141.8050 C   0  0  0  0  0  3  0  0  0  0  0  0
  186.4150  176.6830  134.5940 C   0  0  0  0  0  3  0  0  0  0  0  0
  184.2790  178.3050  141.3970 N   0  0  0  0  0  0  0  0  0  0  0  0
  185.5830  177.3400  135.4140 C   0  0  0  0  0  3  0  0  0  0  0  0
  188.3680  177.7070  136.5050 C   0  0  1  0  0  3  0  0  0  0  0  0
  186.5870  178.6500  140.8730 C   0  0  0  0  0  3  0  0  0  0  0  0
  187.3540  178.4380  138.5330 N   0  0  0  0  0  0  0  0  0  0  0  0
  187.8880  175.4320  137.3420 C   0  0  0  0  0  2  0  0  0  0  0  0
  188.3870  174.0070  137.1910 C   0  0  0  0  0  2  0  0  0  0  0  0
  191.8860  174.4700  137.6910 N   0  0  0  0  0  0  0  0  0  0  0  0
  190.6050  173.4150  136.2060 N   0  0  0  0  0  0  0  0  0  0  0  0
  189.8740  174.0070  137.1680 C   0  0  0  0  0  0  0  0  0  0  0  0
  191.8670  173.7230  136.5700 C   0  0  0  0  0  3  0  0  0  0  0  0
  190.6320  174.6550  138.0670 N   0  0  0  0  0  2  0  0  0  0  0  0
  1 26  1  0  0  0  0
  3  7  1  6  0  0  0
  3  6  1  0  0  0  0
  3 16  1  0  0  0  0
  4 23  2  0  0  0  0
  5 11  1  6  0  0  0
  5 15  1  0  0  0  0
  9 27  1  1  0  0  0
 10 17  1  0  0  0  0
 12  8  1  0  0  0  0
 13 24  1  6  0  0  0
 13  9  1  0  0  0  0
 13 20  1  0  0  0  0
 14  2  1  0  0  0  0
 15  4  1  0  0  0  0
 15 12  1  1  0  0  0
 16  8  1  0  0  0  0
 17 25  1  0  0  0  0
 17 28  1  0  0  0  0
 18  1  2  0  0  0  0
 18  4  1  0  0  0  0
 19  5  1  0  0  0  0
 19  3  1  0  0  0  0
 19  6  1  1  0  0  0
 20 11  1  1  0  0  0
 20 18  1  0  0  0  0
 22 10  1  0  0  0  0
 22 24  2  0  0  0  0
 23 21  1  0  0  0  0
 25  9  1  0  0  0  0
 25 14  1  1  0  0  0
 26 21  2  0  0  0  0
 27  2  1  0  0  0  0
 27  1  1  0  0  0  0
 29 28  1  0  0  0  0
 30 34  1  0  0  0  0
 31 33  1  0  0  0  0
 31 32  2  0  0  0  0
 32 29  1  0  0  0  0
 32 34  1  0  0  0  0
 33 30  2  0  0  0  0
M  END
>  <MODEL>
2

>  <REMARK>
 VINA RESULT:      -6.2      3.201      5.971
  Name = 
  3 active torsions:
  status: ('A' for Active; 'I' for Inactive)
    1  A    between atoms: N_17  and  C_28
    2  A    between atoms: C_28  and  C_29
    3  A    between atoms: C_29  and  C_32
                            x       y       z     vdW  Elec       q    Type
                         _______ _______ _______ _____ _____    ______ ____

>  <TORSDO>
F 3

$$$$
=
 OpenBabel11122412103D

 34 41  0  0  1  0  0  0  0  0999 V2000
  184.4740  178.1770  139.6000 C   0  0  0  0  0  0  0  0  0  0  0  0
  182.2690  178.6660  140.7870 C   0  0  0  0  0  2  0  0  0  0  0  0
  187.7150  175.0770  135.9950 C   0  0  2  0  0  0  0  0  0  0  0  0
  186.4670  178.1170  138.2230 C   0  0  0  0  0  0  0  0  0  0  0  0
  186.3540  177.1990  135.8720 N   0  0  1  0  0  0  0  0  0  0  0  0
  187.0600  175.2340  137.3540 C   0  0  0  0  0  2  0  0  0  0  0  0
  187.6860  173.6610  135.4600 C   0  0  0  0  0  1  0  0  0  0  0  0
  189.3250  176.8820  136.8270 C   0  0  0  0  0  2  0  0  0  0  0  0
  182.2180  177.6330  138.6050 C   0  0  2  0  0  3  0  0  0  0  0  0
  180.0710  179.1180  136.6640 C   0  0  0  0  0  2  0  0  0  0  0  0
  184.9560  177.6530  135.8410 C   0  0  0  0  0  2  0  0  0  0  0  0
  188.5760  178.1910  136.6630 C   0  0  0  0  0  2  0  0  0  0  0  0
  182.8370  177.9950  137.2510 C   0  0  1  0  0  3  0  0  0  0  0  0
  180.8110  178.5590  140.3540 C   0  0  0  0  0  2  0  0  0  0  0  0
  187.0650  178.0560  136.8450 C   0  0  2  0  0  3  0  0  0  0  0  0
  188.9580  175.9250  135.7010 C   0  0  0  0  0  2  0  0  0  0  0  0
  180.4770  179.4070  138.0520 N   0  0  0  0  0  0  0  0  0  0  0  0
  185.0820  177.9310  138.3580 C   0  0  0  0  0  0  0  0  0  0  0  0
  186.3400  175.7290  136.0960 C   0  0  2  0  0  3  0  0  0  0  0  0
  184.2540  177.4170  137.1960 C   0  0  2  0  0  3  0  0  0  0  0  0
  186.6370  178.7460  140.5090 C   0  0  0  0  0  3  0  0  0  0  0  0
  180.7210  177.9360  135.9610 C   0  0  0  0  0  3  0  0  0  0  0  0
  187.2040  178.5280  139.2910 N   0  0  0  0  0  0  0  0  0  0  0  0
  181.9530  177.4550  136.1770 C   0  0  0  0  0  3  0  0  0  0  0  0
  180.8210  178.2180  138.8640 C   0  0  1  0  0  3  0  0  0  0  0  0
  185.2600  178.5850  140.6830 C   0  0  0  0  0  3  0  0  0  0  0  0
  183.0450  178.0810  139.7110 N   0  0  0  0  0  0  0  0  0  0  0  0
  181.5040  180.4490  138.0490 C   0  0  0  0  0  2  0  0  0  0  0  0
  180.9250  181.7600  138.5450 C   0  0  0  0  0  2  0  0  0  0  0  0
  181.4990  184.5900  136.4540 N   0  0  0  0  0  0  0  0  0  0  0  0
  180.3780  182.6720  136.2840 N   0  0  0  0  0  0  0  0  0  0  0  0
  181.0170  182.7780  137.4640 C   0  0  0  0  0  0  0  0  0  0  0  0
  180.7090  183.8280  135.6730 C   0  0  0  0  0  3  0  0  0  0  0  0
  181.6900  183.9330  137.5850 N   0  0  0  0  0  2  0  0  0  0  0  0
  1 27  1  0  0  0  0
  1 26  1  0  0  0  0
  3  7  1  6  0  0  0
  3 19  1  0  0  0  0
  3  6  1  0  0  0  0
  4 18  1  0  0  0  0
  4 23  2  0  0  0  0
  5 11  1  1  0  0  0
  5 19  1  0  0  0  0
  5 15  1  0  0  0  0
  9 25  1  0  0  0  0
  9 27  1  1  0  0  0
 10 17  1  0  0  0  0
 12  8  1  0  0  0  0
 13 24  1  6  0  0  0
 13  9  1  0  0  0  0
 14  2  1  0  0  0  0
 15 12  1  1  0  0  0
 15  4  1  0  0  0  0
 16  3  1  0  0  0  0
 16  8  1  0  0  0  0
 17 25  1  0  0  0  0
 18  1  2  0  0  0  0
 19  6  1  1  0  0  0
 20 11  1  6  0  0  0
 20 13  1  0  0  0  0
 20 18  1  0  0  0  0
 21 26  2  0  0  0  0
 22 24  2  0  0  0  0
 22 10  1  0  0  0  0
 23 21  1  0  0  0  0
 25 14  1  1  0  0  0
 27  2  1  0  0  0  0
 28 17  1  0  0  0  0
 28 29  1  0  0  0  0
 30 34  1  0  0  0  0
 31 32  2  0  0  0  0
 32 34  1  0  0  0  0
 32 29  1  0  0  0  0
 33 31  1  0  0  0  0
 33 30  2  0  0  0  0
M  END
>  <MODEL>
3

>  <REMARK>
 VINA RESULT:      -6.0      4.271      7.781
  Name = 
  3 active torsions:
  status: ('A' for Active; 'I' for Inactive)
    1  A    between atoms: N_17  and  C_28
    2  A    between atoms: C_28  and  C_29
    3  A    between atoms: C_29  and  C_32
                            x       y       z     vdW  Elec       q    Type
                         _______ _______ _______ _____ _____    ______ ____

>  <TORSDO>
F 3

$$$$
=
 OpenBabel11122412103D

 34 41  0  0  1  0  0  0  0  0999 V2000
  188.4120  176.7840  138.3060 C   0  0  0  0  0  0  0  0  0  0  0  0
  187.1440  178.2900  139.9290 C   0  0  0  0  0  2  0  0  0  0  0  0
  193.0640  175.4710  135.1840 C   0  0  2  0  0  0  0  0  0  0  0  0
  189.6360  175.0470  137.1420 C   0  0  0  0  0  0  0  0  0  0  0  0
  192.1350  174.8390  137.4440 N   0  0  1  0  0  0  0  0  0  0  0  0
  191.8040  176.2960  135.3650 C   0  0  0  0  0  2  0  0  0  0  0  0
  194.2240  176.2440  134.5940 C   0  0  0  0  0  1  0  0  0  0  0  0
  191.4500  173.5560  134.6660 C   0  0  0  0  0  2  0  0  0  0  0  0
  189.5530  178.1870  140.0680 C   0  0  2  0  0  3  0  0  0  0  0  0
  190.5250  177.7830  143.1470 C   0  0  0  0  0  2  0  0  0  0  0  0
  191.9450  175.3970  138.7920 C   0  0  0  0  0  2  0  0  0  0  0  0
  190.9540  173.0760  136.0160 C   0  0  0  0  0  2  0  0  0  0  0  0
  190.5540  177.0330  140.1990 C   0  0  1  0  0  3  0  0  0  0  0  0
  187.5790  179.1120  141.1380 C   0  0  0  0  0  2  0  0  0  0  0  0
  190.8660  174.1840  137.0640 C   0  0  2  0  0  3  0  0  0  0  0  0
  192.9010  174.0030  134.7700 C   0  0  0  0  0  2  0  0  0  0  0  0
  189.1720  177.8640  142.5650 N   0  0  0  0  0  0  0  0  0  0  0  0
  189.6140  176.0930  138.0770 C   0  0  0  0  0  0  0  0  0  0  0  0
  192.6610  175.9300  136.5810 C   0  0  2  0  0  3  0  0  0  0  0  0
  190.8810  176.5160  138.7950 C   0  0  2  0  0  3  0  0  0  0  0  0
  187.3350  175.3880  136.6560 C   0  0  0  0  0  3  0  0  0  0  0  0
  191.7140  177.9070  142.2080 C   0  0  0  0  0  3  0  0  0  0  0  0
  188.5020  174.7140  136.4670 N   0  0  0  0  0  0  0  0  0  0  0  0
  191.7580  177.5430  140.9190 C   0  0  0  0  0  3  0  0  0  0  0  0
  189.0450  178.7650  141.3980 C   0  0  1  0  0  3  0  0  0  0  0  0
  187.2660  176.4280  137.5870 C   0  0  0  0  0  3  0  0  0  0  0  0
  188.3670  177.7880  139.3330 N   0  0  0  0  0  0  0  0  0  0  0  0
  188.6600  176.5120  142.3380 C   0  0  0  0  0  2  0  0  0  0  0  0
  188.0740  175.9480  143.6180 C   0  0  0  0  0  2  0  0  0  0  0  0
  185.6670  178.4150  144.5310 N   0  0  0  0  0  0  0  0  0  0  0  0
  187.4970  177.5420  145.4540 N   0  0  0  0  0  0  0  0  0  0  0  0
  187.2180  176.9810  144.2630 C   0  0  0  0  0  0  0  0  0  0  0  0
  186.4960  178.4360  145.5920 C   0  0  0  0  0  3  0  0  0  0  0  0
  186.1230  177.5030  143.6900 N   0  0  0  0  0  2  0  0  0  0  0  0
  1 27  1  0  0  0  0
  2 14  1  0  0  0  0
  3  7  1  6  0  0  0
  3  6  1  0  0  0  0
  3 19  1  0  0  0  0
  4 18  2  0  0  0  0
  5 11  1  1  0  0  0
  8 16  1  0  0  0  0
  8 12  1  0  0  0  0
  9 27  1  6  0  0  0
  9 13  1  0  0  0  0
  9 25  1  0  0  0  0
 13 24  1  6  0  0  0
 15 12  1  6  0  0  0
 15  4  1  0  0  0  0
 15  5  1  0  0  0  0
 16  3  1  0  0  0  0
 17 10  1  0  0  0  0
 18  1  1  0  0  0  0
 18 20  1  0  0  0  0
 19  6  1  6  0  0  0
 19  5  1  0  0  0  0
 20 11  1  1  0  0  0
 20 13  1  0  0  0  0
 21 26  1  0  0  0  0
 22 10  1  0  0  0  0
 23 21  2  0  0  0  0
 23  4  1  0  0  0  0
 24 22  2  0  0  0  0
 25 14  1  6  0  0  0
 25 17  1  0  0  0  0
 26  1  2  0  0  0  0
 27  2  1  0  0  0  0
 28 17  1  0  0  0  0
 28 29  1  0  0  0  0
 29 32  1  0  0  0  0
 30 33  2  0  0  0  0
 31 33  1  0  0  0  0
 32 31  2  0  0  0  0
 34 32  1  0  0  0  0
 34 30  1  0  0  0  0
M  END
>  <MODEL>
4

>  <REMARK>
 VINA RESULT:      -5.9      3.438      6.729
  Name = 
  3 active torsions:
  status: ('A' for Active; 'I' for Inactive)
    1  A    between atoms: N_17  and  C_28
    2  A    between atoms: C_28  and  C_29
    3  A    between atoms: C_29  and  C_32
                            x       y       z     vdW  Elec       q    Type
                         _______ _______ _______ _____ _____    ______ ____

>  <TORSDO>
F 3

$$$$
=
 OpenBabel11122412103D

 34 41  0  0  1  0  0  0  0  0999 V2000
  186.2030  178.4500  139.5250 C   0  0  0  0  0  0  0  0  0  0  0  0
  188.6680  178.2300  138.9040 C   0  0  0  0  0  2  0  0  0  0  0  0
  180.8220  180.1520  138.4030 C   0  0  2  0  0  0  0  0  0  0  0  0
  183.8510  178.1780  140.0420 C   0  0  0  0  0  0  0  0  0  0  0  0
  182.1550  178.0210  138.1780 N   0  0  1  0  0  0  0  0  0  0  0  0
  182.2340  180.4930  138.8410 C   0  0  0  0  0  2  0  0  0  0  0  0
  180.1810  181.2060  137.5240 C   0  0  0  0  0  1  0  0  0  0  0  0
  180.6240  179.0640  140.7090 C   0  0  0  0  0  2  0  0  0  0  0  0
  187.0160  178.2540  137.1430 C   0  0  2  0  0  3  0  0  0  0  0  0
  187.5470  175.8500  135.0160 C   0  0  0  0  0  2  0  0  0  0  0  0
  183.2200  177.4280  137.3560 C   0  0  0  0  0  2  0  0  0  0  0  0
  181.3230  177.7240  140.5790 C   0  0  0  0  0  2  0  0  0  0  0  0
  185.7430  177.4430  136.8780 C   0  0  1  0  0  3  0  0  0  0  0  0
  189.3870  177.9690  137.5850 C   0  0  0  0  0  2  0  0  0  0  0  0
  182.4870  177.7360  139.5900 C   0  0  2  0  0  3  0  0  0  0  0  0
  179.9230  179.4180  139.4050 C   0  0  0  0  0  2  0  0  0  0  0  0
  188.2540  176.2120  136.2590 N   0  0  0  0  0  0  0  0  0  0  0  0
  184.8840  178.2320  139.0930 C   0  0  0  0  0  0  0  0  0  0  0  0
  182.0030  179.4380  137.7540 C   0  0  2  0  0  3  0  0  0  0  0  0
  184.5800  178.1150  137.6120 C   0  0  2  0  0  3  0  0  0  0  0  0
  185.4020  178.5750  141.7990 C   0  0  0  0  0  3  0  0  0  0  0  0
  186.3630  176.7050  134.5940 C   0  0  0  0  0  3  0  0  0  0  0  0
  184.1340  178.3380  141.3640 N   0  0  0  0  0  0  0  0  0  0  0  0
  185.5330  177.3790  135.4020 C   0  0  0  0  0  3  0  0  0  0  0  0
  188.3040  177.6630  136.5500 C   0  0  1  0  0  3  0  0  0  0  0  0
  186.4610  178.6250  140.8890 C   0  0  0  0  0  3  0  0  0  0  0  0
  187.2690  178.4080  138.5630 N   0  0  0  0  0  0  0  0  0  0  0  0
  187.7460  175.3960  137.3610 C   0  0  0  0  0  2  0  0  0  0  0  0
  187.6320  173.9450  136.9340 C   0  0  0  0  0  2  0  0  0  0  0  0
  184.5030  172.2410  137.0470 N   0  0  0  0  0  0  0  0  0  0  0  0
  185.2220  174.3020  137.4890 N   0  0  0  0  0  0  0  0  0  0  0  0
  186.2250  173.4920  137.1050 C   0  0  0  0  0  0  0  0  0  0  0  0
  184.1540  173.4800  137.4460 C   0  0  0  0  0  3  0  0  0  0  0  0
  185.8060  172.2480  136.8260 N   0  0  0  0  0  2  0  0  0  0  0  0
  1 26  1  0  0  0  0
  3  7  1  6  0  0  0
  3  6  1  0  0  0  0
  3 16  1  0  0  0  0
  4 23  2  0  0  0  0
  5 11  1  6  0  0  0
  5 15  1  0  0  0  0
  9 27  1  1  0  0  0
 10 17  1  0  0  0  0
 12  8  1  0  0  0  0
 13 24  1  6  0  0  0
 13  9  1  0  0  0  0
 13 20  1  0  0  0  0
 14  2  1  0  0  0  0
 15  4  1  0  0  0  0
 15 12  1  1  0  0  0
 16  8  1  0  0  0  0
 17 25  1  0  0  0  0
 17 28  1  0  0  0  0
 18  1  2  0  0  0  0
 18  4  1  0  0  0  0
 19  5  1  0  0  0  0
 19  3  1  0  0  0  0
 19  6  1  1  0  0  0
 20 11  1  1  0  0  0
 20 18  1  0  0  0  0
 22 10  1  0  0  0  0
 22 24  2  0  0  0  0
 23 21  1  0  0  0  0
 25  9  1  0  0  0  0
 25 14  1  1  0  0  0
 26 21  2  0  0  0  0
 27  2  1  0  0  0  0
 27  1  1  0  0  0  0
 29 32  1  0  0  0  0
 29 28  1  0  0  0  0
 30 33  2  0  0  0  0
 32 31  2  0  0  0  0
 33 31  1  0  0  0  0
 34 30  1  0  0  0  0
 34 32  1  0  0  0  0
M  END
>  <MODEL>
5

>  <REMARK>
 VINA RESULT:      -5.9      3.157      6.103
  Name = 
  3 active torsions:
  status: ('A' for Active; 'I' for Inactive)
    1  A    between atoms: N_17  and  C_28
    2  A    between atoms: C_28  and  C_29
    3  A    between atoms: C_29  and  C_32
                            x       y       z     vdW  Elec       q    Type
                         _______ _______ _______ _____ _____    ______ ____

>  <TORSDO>
F 3

$$$$
=
 OpenBabel11122412103D

 34 41  0  0  1  0  0  0  0  0999 V2000
  187.3130  178.1810  140.1960 C   0  0  0  0  0  0  0  0  0  0  0  0
  185.4570  179.1860  138.7620 C   0  0  0  0  0  2  0  0  0  0  0  0
  190.4420  177.9660  145.0200 C   0  0  2  0  0  0  0  0  0  0  0  0
  188.7740  176.8480  141.5960 C   0  0  0  0  0  0  0  0  0  0  0  0
  188.4160  176.7790  144.0950 N   0  0  1  0  0  0  0  0  0  0  0  0
  190.1400  178.6270  143.6890 C   0  0  0  0  0  2  0  0  0  0  0  0
  190.8000  178.9400  146.1230 C   0  0  0  0  0  1  0  0  0  0  0  0
  191.4340  176.0900  143.5930 C   0  0  0  0  0  2  0  0  0  0  0  0
  185.2400  179.2470  141.1660 C   0  0  2  0  0  3  0  0  0  0  0  0
  182.2840  178.2530  142.0940 C   0  0  0  0  0  2  0  0  0  0  0  0
  186.9890  177.0080  143.8240 C   0  0  0  0  0  2  0  0  0  0  0  0
  190.2440  175.2850  143.1080 C   0  0  0  0  0  2  0  0  0  0  0  0
  185.3210  178.1770  142.2610 C   0  0  1  0  0  3  0  0  0  0  0  0
  184.0800  179.7530  139.0940 C   0  0  0  0  0  2  0  0  0  0  0  0
  188.9850  176.1250  142.8970 C   0  0  2  0  0  3  0  0  0  0  0  0
  191.1730  176.6180  144.9970 C   0  0  0  0  0  2  0  0  0  0  0  0
  182.8920  178.3520  140.7540 N   0  0  0  0  0  0  0  0  0  0  0  0
  187.6350  177.6570  141.4600 C   0  0  0  0  0  0  0  0  0  0  0  0
  188.9970  178.0720  144.5450 C   0  0  2  0  0  3  0  0  0  0  0  0
  186.7880  178.0110  142.6670 C   0  0  2  0  0  3  0  0  0  0  0  0
  189.2720  177.1040  139.2860 C   0  0  0  0  0  3  0  0  0  0  0  0
  183.1220  178.6760  143.2900 C   0  0  0  0  0  3  0  0  0  0  0  0
  189.5540  176.5830  140.5110 N   0  0  0  0  0  0  0  0  0  0  0  0
  184.4550  178.6100  143.3980 C   0  0  0  0  0  3  0  0  0  0  0  0
  183.8400  179.4760  140.5780 C   0  0  1  0  0  3  0  0  0  0  0  0
  188.1410  177.9030  139.1040 C   0  0  0  0  0  3  0  0  0  0  0  0
  186.0950  178.9270  140.0390 N   0  0  0  0  0  0  0  0  0  0  0  0
  183.4300  177.0470  140.3680 C   0  0  0  0  0  2  0  0  0  0  0  0
  182.4420  176.3090  139.4850 C   0  0  0  0  0  2  0  0  0  0  0  0
  184.2270  174.8980  136.7420 N   0  0  0  0  0  0  0  0  0  0  0  0
  183.1690  176.8150  137.1490 N   0  0  0  0  0  0  0  0  0  0  0  0
  183.0970  175.9690  138.1930 C   0  0  0  0  0  0  0  0  0  0  0  0
  183.8830  176.1050  136.2520 C   0  0  0  0  0  3  0  0  0  0  0  0
  183.7380  174.8120  137.9660 N   0  0  0  0  0  2  0  0  0  0  0  0
  1 18  1  0  0  0  0
  2 14  1  0  0  0  0
  2 27  1  0  0  0  0
  3  7  1  1  0  0  0
  4 15  1  0  0  0  0
  5 11  1  6  0  0  0
  5 19  1  0  0  0  0
  6  3  1  0  0  0  0
  8 16  1  0  0  0  0
  9 27  1  6  0  0  0
  9 13  1  0  0  0  0
 10 22  1  0  0  0  0
 12  8  1  0  0  0  0
 13 20  1  0  0  0  0
 13 24  1  1  0  0  0
 15 12  1  1  0  0  0
 15  5  1  0  0  0  0
 16  3  1  0  0  0  0
 17 10  1  0  0  0  0
 18  4  2  0  0  0  0
 18 20  1  0  0  0  0
 19  6  1  6  0  0  0
 19  3  1  0  0  0  0
 20 11  1  1  0  0  0
 21 23  2  0  0  0  0
 22 24  2  0  0  0  0
 23  4  1  0  0  0  0
 25 14  1  6  0  0  0
 25 17  1  0  0  0  0
 25  9  1  0  0  0  0
 26 21  1  0  0  0  0
 26  1  2  0  0  0  0
 27  1  1  0  0  0  0
 28 17  1  0  0  0  0
 29 28  1  0  0  0  0
 30 34  1  0  0  0  0
 31 32  2  0  0  0  0
 32 29  1  0  0  0  0
 33 30  2  0  0  0  0
 33 31  1  0  0  0  0
 34 32  1  0  0  0  0
M  END
>  <MODEL>
6

>  <REMARK>
 VINA RESULT:      -5.8      3.332      8.795
  Name = 
  3 active torsions:
  status: ('A' for Active; 'I' for Inactive)
    1  A    between atoms: N_17  and  C_28
    2  A    between atoms: C_28  and  C_29
    3  A    between atoms: C_29  and  C_32
                            x       y       z     vdW  Elec       q    Type
                         _______ _______ _______ _____ _____    ______ ____

>  <TORSDO>
F 3

$$$$
=
 OpenBabel11122412103D

 34 41  0  0  1  0  0  0  0  0999 V2000
  185.5720  177.9660  137.5860 C   0  0  0  0  0  0  0  0  0  0  0  0
  187.8860  178.8520  136.9740 C   0  0  0  0  0  2  0  0  0  0  0  0
  180.8200  174.9480  136.3990 C   0  0  2  0  0  0  0  0  0  0  0  0
  183.6200  176.8440  138.4790 C   0  0  0  0  0  0  0  0  0  0  0  0
  182.9830  174.5490  137.6370 N   0  0  1  0  0  0  0  0  0  0  0  0
  181.6450  176.2080  136.2180 C   0  0  0  0  0  2  0  0  0  0  0  0
  180.1150  174.4890  135.1390 C   0  0  0  0  0  1  0  0  0  0  0  0
  180.3600  175.8690  138.7390 C   0  0  0  0  0  2  0  0  0  0  0  0
  187.1630  176.7380  136.0580 C   0  0  2  0  0  3  0  0  0  0  0  0
  189.4790  174.4760  136.3820 C   0  0  0  0  0  2  0  0  0  0  0  0
  184.4130  174.3250  137.3830 C   0  0  0  0  0  2  0  0  0  0  0  0
  181.6030  175.5470  139.5460 C   0  0  0  0  0  2  0  0  0  0  0  0
  186.6120  175.4500  136.6810 C   0  0  1  0  0  3  0  0  0  0  0  0
  189.0560  178.2530  136.2010 C   0  0  0  0  0  2  0  0  0  0  0  0
  182.8870  175.5530  138.7180 C   0  0  2  0  0  3  0  0  0  0  0  0
  180.0870  174.7610  137.7330 C   0  0  0  0  0  2  0  0  0  0  0  0
  189.4400  175.8850  136.8150 N   0  0  0  0  0  0  0  0  0  0  0  0
  184.7630  176.8210  137.6650 C   0  0  0  0  0  0  0  0  0  0  0  0
  182.3400  174.8470  136.3290 C   0  0  2  0  0  3  0  0  0  0  0  0
  185.0960  175.5970  136.8330 C   0  0  2  0  0  3  0  0  0  0  0  0
  184.0630  179.0970  139.0940 C   0  0  0  0  0  3  0  0  0  0  0  0
  188.2680  173.9210  135.6490 C   0  0  0  0  0  3  0  0  0  0  0  0
  183.3050  177.9700  139.1780 N   0  0  0  0  0  0  0  0  0  0  0  0
  186.9940  174.3080  135.7990 C   0  0  0  0  0  3  0  0  0  0  0  0
  188.6920  176.7950  135.9180 C   0  0  1  0  0  3  0  0  0  0  0  0
  185.2160  179.1130  138.3050 C   0  0  0  0  0  3  0  0  0  0  0  0
  186.7930  177.9090  136.8310 N   0  0  0  0  0  0  0  0  0  0  0  0
  189.0260  175.9510  138.2170 C   0  0  0  0  0  2  0  0  0  0  0  0
  190.1680  176.4510  139.0810 C   0  0  0  0  0  2  0  0  0  0  0  0
  189.3550  177.7550  142.2980 N   0  0  0  0  0  0  0  0  0  0  0  0
  188.4870  177.8820  140.2510 N   0  0  0  0  0  0  0  0  0  0  0  0
  189.6130  177.1470  140.2740 C   0  0  0  0  0  0  0  0  0  0  0  0
  188.3570  178.2530  141.5410 C   0  0  0  0  0  3  0  0  0  0  0  0
  190.1430  177.0530  141.5030 N   0  0  0  0  0  2  0  0  0  0  0  0
  1 18  2  0  0  0  0
  1 26  1  0  0  0  0
  3  7  1  6  0  0  0
  3 16  1  0  0  0  0
  4 15  1  0  0  0  0
  4 23  2  0  0  0  0
  5 11  1  6  0  0  0
  5 15  1  0  0  0  0
  6  3  1  0  0  0  0
  8 12  1  0  0  0  0
  9 13  1  0  0  0  0
  9 27  1  1  0  0  0
 10 17  1  0  0  0  0
 13 24  1  6  0  0  0
 13 20  1  0  0  0  0
 14  2  1  0  0  0  0
 15 12  1  6  0  0  0
 16  8  1  0  0  0  0
 17 28  1  0  0  0  0
 18  4  1  0  0  0  0
 19  6  1  1  0  0  0
 19  3  1  0  0  0  0
 19  5  1  0  0  0  0
 20 11  1  1  0  0  0
 20 18  1  0  0  0  0
 21 23  1  0  0  0  0
 22 24  2  0  0  0  0
 22 10  1  0  0  0  0
 25  9  1  0  0  0  0
 25 14  1  1  0  0  0
 25 17  1  0  0  0  0
 26 21  2  0  0  0  0
 27  2  1  0  0  0  0
 27  1  1  0  0  0  0
 28 29  1  0  0  0  0
 29 32  1  0  0  0  0
 31 32  2  0  0  0  0
 31 33  1  0  0  0  0
 32 34  1  0  0  0  0
 33 30  2  0  0  0  0
 34 30  1  0  0  0  0
M  END
>  <MODEL>
7

>  <REMARK>
 VINA RESULT:      -5.6      2.165      2.913
  Name = 
  3 active torsions:
  status: ('A' for Active; 'I' for Inactive)
    1  A    between atoms: N_17  and  C_28
    2  A    between atoms: C_28  and  C_29
    3  A    between atoms: C_29  and  C_32
                            x       y       z     vdW  Elec       q    Type
                         _______ _______ _______ _____ _____    ______ ____

>  <TORSDO>
F 3

$$$$
=
 OpenBabel11122412103D

 34 41  0  0  1  0  0  0  0  0999 V2000
  183.7850  177.5600  138.8890 C   0  0  0  0  0  0  0  0  0  0  0  0
  181.3390  177.3780  139.5920 C   0  0  0  0  0  2  0  0  0  0  0  0
  188.4340  175.5720  136.1420 C   0  0  2  0  0  0  0  0  0  0  0  0
  185.9490  178.0940  137.9380 C   0  0  0  0  0  0  0  0  0  0  0  0
  186.5810  177.2150  135.6560 N   0  0  1  0  0  0  0  0  0  0  0  0
  187.5000  175.5160  137.3360 C   0  0  0  0  0  2  0  0  0  0  0  0
  188.9190  174.2150  135.6770 C   0  0  0  0  0  1  0  0  0  0  0  0
  189.2610  177.7530  137.1930 C   0  0  0  0  0  2  0  0  0  0  0  0
  182.0270  176.4040  137.4930 C   0  0  2  0  0  3  0  0  0  0  0  0
  179.9870  177.2350  135.0990 C   0  0  0  0  0  2  0  0  0  0  0  0
  185.1480  177.2480  135.3270 C   0  0  0  0  0  2  0  0  0  0  0  0
  188.2210  178.7930  136.8250 C   0  0  0  0  0  2  0  0  0  0  0  0
  182.7790  176.9480  136.2730 C   0  0  1  0  0  3  0  0  0  0  0  0
  180.0910  176.8620  138.8840 C   0  0  0  0  0  2  0  0  0  0  0  0
  186.8060  178.2270  136.7100 C   0  0  2  0  0  3  0  0  0  0  0  0
  189.4180  176.7460  136.0620 C   0  0  0  0  0  2  0  0  0  0  0  0
  180.0040  177.6100  136.5250 N   0  0  0  0  0  0  0  0  0  0  0  0
  184.6770  177.5160  137.8040 C   0  0  0  0  0  0  0  0  0  0  0  0
  186.9400  175.8000  135.9390 C   0  0  2  0  0  3  0  0  0  0  0  0
  184.2820  176.8010  136.5260 C   0  0  2  0  0  3  0  0  0  0  0  0
  185.4660  178.7150  140.1810 C   0  0  0  0  0  3  0  0  0  0  0  0
  181.0750  176.3000  134.5940 C   0  0  0  0  0  3  0  0  0  0  0  0
  186.3060  178.6850  139.1110 N   0  0  0  0  0  0  0  0  0  0  0  0
  182.3220  176.1900  135.0710 C   0  0  0  0  0  3  0  0  0  0  0  0
  180.5000  176.5590  137.4430 C   0  0  1  0  0  3  0  0  0  0  0  0
  184.1860  178.1620  140.0870 C   0  0  0  0  0  3  0  0  0  0  0  0
  182.4510  177.0550  138.7190 N   0  0  0  0  0  0  0  0  0  0  0  0
  180.6710  178.9030  136.6790 C   0  0  0  0  0  2  0  0  0  0  0  0
  180.3420  179.8080  135.5070 C   0  0  0  0  0  2  0  0  0  0  0  0
  179.4570  182.7600  137.2980 N   0  0  0  0  0  0  0  0  0  0  0  0
  180.1950  182.2890  135.2500 N   0  0  0  0  0  0  0  0  0  0  0  0
  180.0750  181.1830  136.0080 C   0  0  0  0  0  0  0  0  0  0  0  0
  179.8030  183.2630  136.0970 C   0  0  0  0  0  3  0  0  0  0  0  0
  179.6220  181.4500  137.2430 N   0  0  0  0  0  2  0  0  0  0  0  0
  1 26  1  0  0  0  0
  3  7  1  6  0  0  0
  3  6  1  0  0  0  0
  4 23  2  0  0  0  0
  5 11  1  1  0  0  0
  5 19  1  0  0  0  0
  5 15  1  0  0  0  0
  9 27  1  1  0  0  0
 10 17  1  0  0  0  0
 12  8  1  0  0  0  0
 13 24  1  6  0  0  0
 13 20  1  0  0  0  0
 13  9  1  0  0  0  0
 14  2  1  0  0  0  0
 15 12  1  1  0  0  0
 15  4  1  0  0  0  0
 16  3  1  0  0  0  0
 16  8  1  0  0  0  0
 17 28  1  0  0  0  0
 17 25  1  0  0  0  0
 18  4  1  0  0  0  0
 18  1  2  0  0  0  0
 19  3  1  0  0  0  0
 19  6  1  1  0  0  0
 20 11  1  6  0  0  0
 20 18  1  0  0  0  0
 22 24  2  0  0  0  0
 22 10  1  0  0  0  0
 23 21  1  0  0  0  0
 25  9  1  0  0  0  0
 25 14  1  1  0  0  0
 26 21  2  0  0  0  0
 27  1  1  0  0  0  0
 27  2  1  0  0  0  0
 29 32  1  0  0  0  0
 29 28  1  0  0  0  0
 31 32  2  0  0  0  0
 31 33  1  0  0  0  0
 32 34  1  0  0  0  0
 33 30  2  0  0  0  0
 34 30  1  0  0  0  0
M  END
>  <MODEL>
8

>  <REMARK>
 VINA RESULT:      -5.2      3.706      7.810
  Name = 
  3 active torsions:
  status: ('A' for Active; 'I' for Inactive)
    1  A    between atoms: N_17  and  C_28
    2  A    between atoms: C_28  and  C_29
    3  A    between atoms: C_29  and  C_32
                            x       y       z     vdW  Elec       q    Type
                         _______ _______ _______ _____ _____    ______ ____

>  <TORSDO>
F 3

$$$$
=
 OpenBabel11122412103D

 34 41  0  0  1  0  0  0  0  0999 V2000
  185.2760  177.9080  137.6730 C   0  0  0  0  0  0  0  0  0  0  0  0
  187.5840  178.7370  136.9680 C   0  0  0  0  0  2  0  0  0  0  0  0
  180.1740  175.5110  136.5140 C   0  0  2  0  0  0  0  0  0  0  0  0
  183.3330  176.7670  138.5660 C   0  0  0  0  0  0  0  0  0  0  0  0
  182.4090  174.7310  137.3890 N   0  0  1  0  0  0  0  0  0  0  0  0
  181.0850  176.7230  136.4770 C   0  0  0  0  0  2  0  0  0  0  0  0
  179.3050  175.3580  135.2840 C   0  0  0  0  0  1  0  0  0  0  0  0
  180.0440  175.9830  139.0250 C   0  0  0  0  0  2  0  0  0  0  0  0
  186.5830  176.8990  135.7630 C   0  0  2  0  0  3  0  0  0  0  0  0
  188.7080  174.4650  135.3780 C   0  0  0  0  0  2  0  0  0  0  0  0
  183.7800  174.4650  136.9290 C   0  0  0  0  0  2  0  0  0  0  0  0
  181.3300  175.4250  139.6030 C   0  0  0  0  0  2  0  0  0  0  0  0
  185.9870  175.5540  136.1940 C   0  0  1  0  0  3  0  0  0  0  0  0
  188.6080  178.2240  135.9620 C   0  0  0  0  0  2  0  0  0  0  0  0
  182.5170  175.5060  138.6440 C   0  0  2  0  0  3  0  0  0  0  0  0
  179.5700  175.1150  137.8670 C   0  0  0  0  0  2  0  0  0  0  0  0
  188.8400  175.7610  136.0700 N   0  0  0  0  0  0  0  0  0  0  0  0
  184.3790  176.8260  137.6310 C   0  0  0  0  0  0  0  0  0  0  0  0
  181.6640  175.3230  136.2470 C   0  0  2  0  0  3  0  0  0  0  0  0
  184.5130  175.7710  136.5510 C   0  0  2  0  0  3  0  0  0  0  0  0
  184.0380  178.8190  139.5360 C   0  0  0  0  0  3  0  0  0  0  0  0
  187.3820  174.1490  134.7040 C   0  0  0  0  0  3  0  0  0  0  0  0
  183.1950  177.7510  139.4960 N   0  0  0  0  0  0  0  0  0  0  0  0
  186.1710  174.5850  135.0740 C   0  0  0  0  0  3  0  0  0  0  0  0
  188.0880  176.8790  135.4560 C   0  0  1  0  0  3  0  0  0  0  0  0
  185.1000  178.9110  138.6320 C   0  0  0  0  0  3  0  0  0  0  0  0
  186.4010  177.9170  136.7810 N   0  0  0  0  0  0  0  0  0  0  0  0
  188.5820  175.5770  137.4980 C   0  0  0  0  0  2  0  0  0  0  0  0
  189.6810  176.2220  138.3200 C   0  0  0  0  0  2  0  0  0  0  0  0
  192.5900  174.3400  137.4800 N   0  0  0  0  0  0  0  0  0  0  0  0
  192.0080  176.4900  137.4490 N   0  0  0  0  0  0  0  0  0  0  0  0
  191.0010  175.7030  137.8690 C   0  0  0  0  0  0  0  0  0  0  0  0
  192.9900  175.5980  137.2080 C   0  0  0  0  0  3  0  0  0  0  0  0
  191.3390  174.4040  137.9020 N   0  0  0  0  0  2  0  0  0  0  0  0
  1 26  1  0  0  0  0
  3  7  1  6  0  0  0
  3 16  1  0  0  0  0
  4 15  1  0  0  0  0
  4 23  2  0  0  0  0
  5 11  1  6  0  0  0
  5 15  1  0  0  0  0
  6  3  1  0  0  0  0
  8 12  1  0  0  0  0
  9 13  1  0  0  0  0
  9 27  1  1  0  0  0
 10 17  1  0  0  0  0
 13 24  1  6  0  0  0
 13 20  1  0  0  0  0
 14  2  1  0  0  0  0
 15 12  1  6  0  0  0
 16  8  1  0  0  0  0
 17 28  1  0  0  0  0
 18  1  2  0  0  0  0
 18  4  1  0  0  0  0
 19  6  1  1  0  0  0
 19  3  1  0  0  0  0
 19  5  1  0  0  0  0
 20 11  1  1  0  0  0
 20 18  1  0  0  0  0
 22 24  2  0  0  0  0
 22 10  1  0  0  0  0
 23 21  1  0  0  0  0
 25  9  1  0  0  0  0
 25 14  1  1  0  0  0
 25 17  1  0  0  0  0
 26 21  2  0  0  0  0
 27  2  1  0  0  0  0
 27  1  1  0  0  0  0
 28 29  1  0  0  0  0
 30 34  1  0  0  0  0
 31 32  2  0  0  0  0
 32 34  1  0  0  0  0
 32 29  1  0  0  0  0
 33 31  1  0  0  0  0
 33 30  2  0  0  0  0
M  END
>  <MODEL>
9

>  <REMARK>
 VINA RESULT:      -5.1      2.479      4.005
  Name = 
  3 active torsions:
  status: ('A' for Active; 'I' for Inactive)
    1  A    between atoms: N_17  and  C_28
    2  A    between atoms: C_28  and  C_29
    3  A    between atoms: C_29  and  C_32
                            x       y       z     vdW  Elec       q    Type
                         _______ _______ _______ _____ _____    ______ ____

>  <TORSDO>
F 3

$$$$
