=
 OpenBabel11122411573D

 28 32  0  0  1  0  0  0  0  0999 V2000
  189.4520  178.0320  138.0410 C   0  0  0  0  0  0  0  0  0  0  0  0
  192.4550  175.9230  134.5940 F   0  0  0  0  0  0  0  0  0  0  0  0
  186.7730  174.4030  137.2340 O   0  0  0  0  0  0  0  0  0  0  0  0
  190.0070  176.7580  140.4700 C   0  0  0  0  0  3  0  0  0  0  0  0
  188.9630  173.4780  136.8390 C   0  0  2  0  0  3  0  0  0  0  0  0
  189.1410  178.6220  136.8150 O   0  0  0  0  0  0  0  0  0  0  0  0
  194.0070  176.7530  136.1620 C   0  0  0  0  0  1  0  0  0  0  0  0
  193.0670  175.6200  135.8010 C   0  0  1  0  0  0  0  0  0  0  0  0
  192.9280  173.1760  135.4820 C   0  0  1  0  0  3  0  0  0  0  0  0
  192.0300  175.4460  136.9350 C   0  0  2  0  0  3  0  0  0  0  0  0
  186.2810  177.3360  137.5950 C   0  0  0  0  0  1  0  0  0  0  0  0
  189.8180  175.5860  135.8920 C   0  0  1  0  0  3  0  0  0  0  0  0
  192.2530  172.9670  136.6980 O   0  0  0  0  0  0  0  0  0  0  0  0
  193.8840  174.3510  135.6210 C   0  0  0  0  0  2  0  0  0  0  0  0
  186.9100  177.7810  136.2860 C   0  0  2  0  0  3  0  0  0  0  0  0
  190.2960  176.9120  138.0590 C   0  0  0  0  0  0  0  0  0  0  0  0
  187.9540  174.5600  136.8280 C   0  0  0  0  0  0  0  0  0  0  0  0
  193.7100  171.9310  135.1220 C   0  0  0  0  0  1  0  0  0  0  0  0
  187.5410  176.6330  135.4800 C   0  0  0  0  0  2  0  0  0  0  0  0
  190.5570  176.2700  139.2820 C   0  0  0  0  0  3  0  0  0  0  0  0
  188.9000  178.5180  139.2360 C   0  0  0  0  0  3  0  0  0  0  0  0
  189.1830  177.8840  140.4470 C   0  0  0  0  0  3  0  0  0  0  0  0
  187.8160  179.0020  136.4680 C   0  0  0  0  0  2  0  0  0  0  0  0
  190.1400  174.0940  136.0890 C   0  0  1  0  0  3  0  0  0  0  0  0
  188.4240  175.7790  136.2770 N   0  0  0  0  0  0  0  0  0  0  0  0
  191.3840  174.0540  136.9610 C   0  0  2  0  0  3  0  0  0  0  0  0
  188.4860  172.3790  136.1270 O   0  0  0  0  0  1  0  0  0  0  0  0
  190.8370  176.3820  136.7450 C   0  0  1  0  0  3  0  0  0  0  0  0
  1 16  2  0  0  0  0
  1 21  1  0  0  0  0
  2  8  1  0  0  0  0
  5 27  1  6  0  0  0
  6  1  1  0  0  0  0
  8  7  1  1  0  0  0
  8 10  1  0  0  0  0
  9 18  1  1  0  0  0
  9 14  1  0  0  0  0
  9 13  1  0  0  0  0
 10 26  1  0  0  0  0
 12 24  1  0  0  0  0
 12 25  1  0  0  0  0
 12 28  1  0  0  0  0
 13 26  1  0  0  0  0
 14  8  1  0  0  0  0
 15 23  1  0  0  0  0
 15 11  1  0  0  0  0
 16 20  1  0  0  0  0
 17  5  1  0  0  0  0
 17  3  2  0  0  0  0
 19 25  1  0  0  0  0
 19 15  1  0  0  0  0
 20  4  2  0  0  0  0
 21 22  2  0  0  0  0
 22  4  1  0  0  0  0
 23  6  1  0  0  0  0
 24  5  1  0  0  0  0
 24 26  1  0  0  0  0
 25 17  1  0  0  0  0
 28 10  1  0  0  0  0
 28 16  1  0  0  0  0
M  END
>  <MODEL>
1

>  <REMARK>
 VINA RESULT:      -6.2      0.000      0.000
  Name = 
  0 active torsions:
  status: ('A' for Active; 'I' for Inactive)
                            x       y       z     vdW  Elec       q    Type
                         _______ _______ _______ _____ _____    ______ ____

>  <TORSDO>
F 0

$$$$
=
 OpenBabel11122411573D

 28 32  0  0  1  0  0  0  0  0999 V2000
  181.2130  179.1060  137.7910 C   0  0  0  0  0  0  0  0  0  0  0  0
  185.6060  176.7570  138.5240 F   0  0  0  0  0  0  0  0  0  0  0  0
  180.7720  178.6810  142.3320 O   0  0  0  0  0  0  0  0  0  0  0  0
  181.6540  181.8140  138.3460 C   0  0  0  0  0  3  0  0  0  0  0  0
  183.1630  178.8700  142.0990 C   0  0  2  0  0  3  0  0  0  0  0  0
  180.9880  177.7470  137.5720 O   0  0  0  0  0  0  0  0  0  0  0  0
  186.1610  178.3410  136.8690 C   0  0  0  0  0  1  0  0  0  0  0  0
  185.9620  178.0860  138.3500 C   0  0  1  0  0  0  0  0  0  0  0  0
  187.0320  178.2930  140.5650 C   0  0  1  0  0  3  0  0  0  0  0  0
  184.8680  179.0410  138.8830 C   0  0  2  0  0  3  0  0  0  0  0  0
  178.9310  178.3020  140.0000 C   0  0  0  0  0  1  0  0  0  0  0  0
  183.1770  177.6390  139.9650 C   0  0  1  0  0  3  0  0  0  0  0  0
  186.2430  179.3960  140.9410 O   0  0  0  0  0  0  0  0  0  0  0  0
  187.2810  178.3280  139.0650 C   0  0  0  0  0  2  0  0  0  0  0  0
  179.5960  177.0510  139.4540 C   0  0  2  0  0  3  0  0  0  0  0  0
  182.4380  179.5110  138.3420 C   0  0  0  0  0  0  0  0  0  0  0  0
  181.8130  178.4540  141.6620 C   0  0  0  0  0  0  0  0  0  0  0  0
  188.3560  178.3510  141.2960 C   0  0  0  0  0  1  0  0  0  0  0  0
  180.8590  176.6340  140.2260 C   0  0  0  0  0  2  0  0  0  0  0  0
  182.6440  180.8710  138.6310 C   0  0  0  0  0  3  0  0  0  0  0  0
  180.2200  180.0560  137.5080 C   0  0  0  0  0  3  0  0  0  0  0  0
  180.4440  181.4060  137.7810 C   0  0  0  0  0  3  0  0  0  0  0  0
  179.7710  177.1090  137.9340 C   0  0  0  0  0  2  0  0  0  0  0  0
  184.0800  178.2100  141.0730 C   0  0  1  0  0  3  0  0  0  0  0  0
  181.8010  177.7350  140.4400 N   0  0  0  0  0  0  0  0  0  0  0  0
  184.9410  179.2640  140.3990 C   0  0  2  0  0  3  0  0  0  0  0  0
  183.4330  178.3470  143.3640 O   0  0  0  0  0  1  0  0  0  0  0  0
  183.4720  178.4540  138.6810 C   0  0  1  0  0  3  0  0  0  0  0  0
  1 16  1  0  0  0  0
  4 20  1  0  0  0  0
  5 27  1  1  0  0  0
  6  1  1  0  0  0  0
  6 23  1  0  0  0  0
  8  7  1  6  0  0  0
  8  2  1  0  0  0  0
  8 10  1  0  0  0  0
  8 14  1  0  0  0  0
  9 13  1  0  0  0  0
  9 18  1  1  0  0  0
 10 26  1  0  0  0  0
 12 25  1  0  0  0  0
 12 24  1  0  0  0  0
 14  9  1  0  0  0  0
 15 11  1  0  0  0  0
 15 19  1  0  0  0  0
 16 20  2  0  0  0  0
 16 28  1  0  0  0  0
 17  5  1  0  0  0  0
 17  3  2  0  0  0  0
 19 25  1  0  0  0  0
 21 22  1  0  0  0  0
 21  1  2  0  0  0  0
 22  4  2  0  0  0  0
 23 15  1  0  0  0  0
 24  5  1  0  0  0  0
 25 17  1  0  0  0  0
 26 13  1  0  0  0  0
 26 24  1  0  0  0  0
 28 10  1  0  0  0  0
 28 12  1  0  0  0  0
M  END
>  <MODEL>
2

>  <REMARK>
 VINA RESULT:      -5.6      5.885      8.784
  Name = 
  0 active torsions:
  status: ('A' for Active; 'I' for Inactive)
                            x       y       z     vdW  Elec       q    Type
                         _______ _______ _______ _____ _____    ______ ____

>  <TORSDO>
F 0

$$$$
=
 OpenBabel11122411573D

 28 32  0  0  1  0  0  0  0  0999 V2000
  179.4860  177.5260  139.0320 C   0  0  0  0  0  0  0  0  0  0  0  0
  181.2680  180.3070  142.8320 F   0  0  0  0  0  0  0  0  0  0  0  0
  183.5760  178.3510  137.1390 O   0  0  0  0  0  0  0  0  0  0  0  0
  180.4700  174.9340  139.4090 C   0  0  0  0  0  3  0  0  0  0  0  0
  184.1270  178.3480  139.4850 C   0  0  2  0  0  3  0  0  0  0  0  0
  179.0460  178.8330  138.8200 O   0  0  0  0  0  0  0  0  0  0  0  0
  180.0710  178.6230  143.9690 C   0  0  0  0  0  1  0  0  0  0  0  0
  181.3740  179.0030  143.2930 C   0  0  1  0  0  0  0  0  0  0  0  0
  183.8210  179.1060  143.6060 C   0  0  1  0  0  3  0  0  0  0  0  0
  181.6490  178.0130  142.1370 C   0  0  2  0  0  3  0  0  0  0  0  0
  180.7580  178.3410  136.1240 C   0  0  0  0  0  1  0  0  0  0  0  0
  181.9720  179.3620  140.1180 C   0  0  1  0  0  3  0  0  0  0  0  0
  184.0600  177.9810  142.7960 O   0  0  0  0  0  0  0  0  0  0  0  0
  182.4890  178.9460  144.3240 C   0  0  0  0  0  2  0  0  0  0  0  0
  180.3010  179.5860  136.8650 C   0  0  2  0  0  3  0  0  0  0  0  0
  180.4360  177.2850  140.0340 C   0  0  0  0  0  0  0  0  0  0  0  0
  183.2430  178.6020  138.3270 C   0  0  0  0  0  0  0  0  0  0  0  0
  184.9300  179.2330  144.6270 C   0  0  0  0  0  1  0  0  0  0  0  0
  181.3730  180.1840  137.7910 C   0  0  0  0  0  2  0  0  0  0  0  0
  180.9350  175.9820  140.2070 C   0  0  0  0  0  3  0  0  0  0  0  0
  179.0220  176.4710  138.2320 C   0  0  0  0  0  3  0  0  0  0  0  0
  179.5110  175.1780  138.4250 C   0  0  0  0  0  3  0  0  0  0  0  0
  178.9310  179.3950  137.5190 C   0  0  0  0  0  2  0  0  0  0  0  0
  183.3670  178.9820  140.6470 C   0  0  1  0  0  3  0  0  0  0  0  0
  182.0020  179.1950  138.6700 N   0  0  0  0  0  0  0  0  0  0  0  0
  183.1270  177.9460  141.7310 C   0  0  2  0  0  3  0  0  0  0  0  0
  185.3400  179.0130  139.3090 O   0  0  0  0  0  1  0  0  0  0  0  0
  180.9520  178.4540  140.8500 C   0  0  1  0  0  3  0  0  0  0  0  0
  1 16  1  0  0  0  0
  2  8  1  0  0  0  0
  3 17  2  0  0  0  0
  4 20  1  0  0  0  0
  5 27  1  6  0  0  0
  5 24  1  0  0  0  0
  6  1  1  0  0  0  0
  8  7  1  1  0  0  0
  8 14  1  0  0  0  0
  9 14  1  0  0  0  0
  9 18  1  1  0  0  0
 10  8  1  0  0  0  0
 11 15  1  0  0  0  0
 12 24  1  0  0  0  0
 12 28  1  0  0  0  0
 13  9  1  0  0  0  0
 15 23  1  0  0  0  0
 15 19  1  0  0  0  0
 16 20  2  0  0  0  0
 16 28  1  0  0  0  0
 17 25  1  0  0  0  0
 17  5  1  0  0  0  0
 19 25  1  0  0  0  0
 21 22  1  0  0  0  0
 21  1  2  0  0  0  0
 22  4  2  0  0  0  0
 23  6  1  0  0  0  0
 24 26  1  0  0  0  0
 25 12  1  0  0  0  0
 26 10  1  0  0  0  0
 26 13  1  0  0  0  0
 28 10  1  0  0  0  0
M  END
>  <MODEL>
3

>  <REMARK>
 VINA RESULT:      -5.4      7.990     10.610
  Name = 
  0 active torsions:
  status: ('A' for Active; 'I' for Inactive)
                            x       y       z     vdW  Elec       q    Type
                         _______ _______ _______ _____ _____    ______ ____

>  <TORSDO>
F 0

$$$$
=
 OpenBabel11122411573D

 28 32  0  0  1  0  0  0  0  0999 V2000
  181.7260  175.8120  136.4160 C   0  0  0  0  0  0  0  0  0  0  0  0
  186.5590  175.0100  137.5770 F   0  0  0  0  0  0  0  0  0  0  0  0
  182.0010  179.0990  139.5960 O   0  0  0  0  0  0  0  0  0  0  0  0
  181.6850  177.9360  134.5940 C   0  0  0  0  0  3  0  0  0  0  0  0
  184.2510  179.0780  138.7330 C   0  0  2  0  0  3  0  0  0  0  0  0
  181.7510  174.7920  137.3670 O   0  0  0  0  0  0  0  0  0  0  0  0
  186.5540  174.7060  135.2400 C   0  0  0  0  0  1  0  0  0  0  0  0
  186.6140  175.7050  136.3780 C   0  0  1  0  0  0  0  0  0  0  0  0
  187.9110  177.5900  137.3050 C   0  0  1  0  0  3  0  0  0  0  0  0
  185.4330  176.6950  136.2420 C   0  0  2  0  0  3  0  0  0  0  0  0
  179.9730  177.0020  138.9160 C   0  0  0  0  0  1  0  0  0  0  0  0
  184.2210  176.6410  138.3690 C   0  0  1  0  0  3  0  0  0  0  0  0
  186.9760  178.5540  136.8880 O   0  0  0  0  0  0  0  0  0  0  0  0
  187.9420  176.4400  136.3090 C   0  0  0  0  0  2  0  0  0  0  0  0
  180.7960  175.8090  139.3720 C   0  0  2  0  0  3  0  0  0  0  0  0
  182.9070  176.5170  136.1470 C   0  0  0  0  0  0  0  0  0  0  0  0
  182.9660  178.4520  139.1110 C   0  0  0  0  0  0  0  0  0  0  0  0
  189.2830  178.2230  137.3830 C   0  0  0  0  0  1  0  0  0  0  0  0
  182.2100  176.1780  139.8500 C   0  0  0  0  0  2  0  0  0  0  0  0
  182.8730  177.5920  135.2410 C   0  0  0  0  0  3  0  0  0  0  0  0
  180.5330  176.1610  135.7650 C   0  0  0  0  0  3  0  0  0  0  0  0
  180.5160  177.2170  134.8520 C   0  0  0  0  0  3  0  0  0  0  0  0
  180.7470  174.6570  138.3650 C   0  0  0  0  0  2  0  0  0  0  0  0
  185.1330  177.8810  138.3900 C   0  0  1  0  0  3  0  0  0  0  0  0
  182.9320  177.0480  138.9180 N   0  0  0  0  0  0  0  0  0  0  0  0
  185.6650  178.0230  136.9740 C   0  0  2  0  0  3  0  0  0  0  0  0
  184.7900  179.7500  139.8300 O   0  0  0  0  0  1  0  0  0  0  0  0
  184.1690  176.1470  136.9030 C   0  0  1  0  0  3  0  0  0  0  0  0
  1  6  1  0  0  0  0
  4 22  2  0  0  0  0
  4 20  1  0  0  0  0
  5 17  1  0  0  0  0
  5 27  1  1  0  0  0
  6 23  1  0  0  0  0
  8  7  1  6  0  0  0
  8  2  1  0  0  0  0
  9 18  1  6  0  0  0
 10  8  1  0  0  0  0
 10 28  1  0  0  0  0
 10 26  1  0  0  0  0
 11 15  1  0  0  0  0
 12 24  1  0  0  0  0
 12 25  1  0  0  0  0
 13 26  1  0  0  0  0
 13  9  1  0  0  0  0
 14  8  1  0  0  0  0
 14  9  1  0  0  0  0
 15 19  1  0  0  0  0
 16  1  1  0  0  0  0
 16 28  1  0  0  0  0
 17  3  2  0  0  0  0
 20 16  2  0  0  0  0
 21  1  2  0  0  0  0
 22 21  1  0  0  0  0
 23 15  1  0  0  0  0
 24  5  1  0  0  0  0
 25 17  1  0  0  0  0
 25 19  1  0  0  0  0
 26 24  1  0  0  0  0
 28 12  1  0  0  0  0
M  END
>  <MODEL>
4

>  <REMARK>
 VINA RESULT:      -5.0      4.423      7.649
  Name = 
  0 active torsions:
  status: ('A' for Active; 'I' for Inactive)
                            x       y       z     vdW  Elec       q    Type
                         _______ _______ _______ _____ _____    ______ ____

>  <TORSDO>
F 0

$$$$
=
 OpenBabel11122411573D

 28 32  0  0  1  0  0  0  0  0999 V2000
  180.7860  177.6490  137.3030 C   0  0  0  0  0  0  0  0  0  0  0  0
  183.9680  173.8040  137.9670 F   0  0  0  0  0  0  0  0  0  0  0  0
  184.1830  180.1480  139.0940 O   0  0  0  0  0  0  0  0  0  0  0  0
  181.5030  178.8720  134.8900 C   0  0  0  0  0  3  0  0  0  0  0  0
  185.4110  178.4010  137.9790 C   0  0  2  0  0  3  0  0  0  0  0  0
  180.4710  177.0680  138.5320 O   0  0  0  0  0  0  0  0  0  0  0  0
  182.9680  173.2690  135.9000 C   0  0  0  0  0  1  0  0  0  0  0  0
  184.0430  174.0700  136.6070 C   0  0  1  0  0  0  0  0  0  0  0  0
  186.4630  174.5600  136.6390 C   0  0  1  0  0  3  0  0  0  0  0  0
  183.8290  175.5730  136.3110 C   0  0  2  0  0  3  0  0  0  0  0  0
  181.2120  180.0710  139.4690 C   0  0  0  0  0  1  0  0  0  0  0  0
  183.6950  176.7050  138.4780 C   0  0  1  0  0  3  0  0  0  0  0  0
  186.3030  175.8300  136.0550 O   0  0  0  0  0  0  0  0  0  0  0  0
  185.4010  173.6120  136.1020 C   0  0  0  0  0  2  0  0  0  0  0  0
  181.1610  178.7310  140.1830 C   0  0  2  0  0  3  0  0  0  0  0  0
  181.9560  177.2470  136.6430 C   0  0  0  0  0  0  0  0  0  0  0  0
  184.2580  178.9460  138.7270 C   0  0  0  0  0  0  0  0  0  0  0  0
  187.8360  174.0220  136.2990 C   0  0  0  0  0  1  0  0  0  0  0  0
  182.5290  178.0390  140.2990 C   0  0  0  0  0  2  0  0  0  0  0  0
  182.3160  177.8770  135.4400 C   0  0  0  0  0  3  0  0  0  0  0  0
  179.9730  178.6500  136.7490 C   0  0  0  0  0  3  0  0  0  0  0  0
  180.3300  179.2550  135.5430 C   0  0  0  0  0  3  0  0  0  0  0  0
  180.0400  177.8360  139.6480 C   0  0  0  0  0  2  0  0  0  0  0  0
  185.1240  176.9020  137.9430 C   0  0  1  0  0  3  0  0  0  0  0  0
  183.2640  177.9840  139.0330 N   0  0  0  0  0  0  0  0  0  0  0  0
  185.0950  176.4180  136.5030 C   0  0  2  0  0  3  0  0  0  0  0  0
  186.5880  178.6290  138.6910 O   0  0  0  0  0  1  0  0  0  0  0  0
  182.8380  176.1970  137.2920 C   0  0  1  0  0  3  0  0  0  0  0  0
  1  6  1  0  0  0  0
  4 20  2  0  0  0  0
  4 22  1  0  0  0  0
  5 27  1  1  0  0  0
  5 17  1  0  0  0  0
  6 23  1  0  0  0  0
  8  7  1  6  0  0  0
  8  2  1  0  0  0  0
  9 18  1  6  0  0  0
 10 26  1  0  0  0  0
 10  8  1  0  0  0  0
 10 28  1  0  0  0  0
 11 15  1  0  0  0  0
 12 25  1  0  0  0  0
 13 26  1  0  0  0  0
 13  9  1  0  0  0  0
 14  8  1  0  0  0  0
 14  9  1  0  0  0  0
 15 19  1  0  0  0  0
 16 28  1  0  0  0  0
 16  1  2  0  0  0  0
 17 25  1  0  0  0  0
 17  3  2  0  0  0  0
 20 16  1  0  0  0  0
 21  1  1  0  0  0  0
 22 21  2  0  0  0  0
 23 15  1  0  0  0  0
 24  5  1  0  0  0  0
 24 12  1  0  0  0  0
 25 19  1  0  0  0  0
 26 24  1  0  0  0  0
 28 12  1  0  0  0  0
M  END
>  <MODEL>
5

>  <REMARK>
 VINA RESULT:      -5.0      4.809      8.003
  Name = 
  0 active torsions:
  status: ('A' for Active; 'I' for Inactive)
                            x       y       z     vdW  Elec       q    Type
                         _______ _______ _______ _____ _____    ______ ____

>  <TORSDO>
F 0

$$$$
=
 OpenBabel11122411573D

 28 32  0  0  1  0  0  0  0  0999 V2000
  186.4580  175.4200  136.6440 C   0  0  0  0  0  0  0  0  0  0  0  0
  183.3710  177.1130  140.2430 F   0  0  0  0  0  0  0  0  0  0  0  0
  182.5750  174.1100  134.5940 O   0  0  0  0  0  0  0  0  0  0  0  0
  186.5340  177.3960  134.6630 C   0  0  0  0  0  3  0  0  0  0  0  0
  181.8450  176.0670  135.7940 C   0  0  2  0  0  3  0  0  0  0  0  0
  186.3700  174.4160  137.6080 O   0  0  0  0  0  0  0  0  0  0  0  0
  185.0140  178.8010  140.1650 C   0  0  0  0  0  1  0  0  0  0  0  0
  183.7390  178.2580  139.5520 C   0  0  1  0  0  0  0  0  0  0  0  0
  181.4290  178.8510  138.9140 C   0  0  1  0  0  3  0  0  0  0  0  0
  183.9870  177.9620  138.0540 C   0  0  2  0  0  3  0  0  0  0  0  0
  185.2570  172.8430  135.0140 C   0  0  0  0  0  1  0  0  0  0  0  0
  183.3590  175.6230  137.6870 C   0  0  1  0  0  3  0  0  0  0  0  0
  181.7280  178.9030  137.5400 O   0  0  0  0  0  0  0  0  0  0  0  0
  182.6410  179.2950  139.7200 C   0  0  0  0  0  2  0  0  0  0  0  0
  185.1160  172.6300  136.5120 C   0  0  2  0  0  3  0  0  0  0  0  0
  185.5860  176.5150  136.7230 C   0  0  0  0  0  0  0  0  0  0  0  0
  182.6670  174.8530  135.6060 C   0  0  0  0  0  0  0  0  0  0  0  0
  180.2650  179.7710  139.2080 C   0  0  0  0  0  1  0  0  0  0  0  0
  183.8120  173.1940  137.0980 C   0  0  0  0  0  2  0  0  0  0  0  0
  185.6210  177.4950  135.7160 C   0  0  0  0  0  3  0  0  0  0  0  0
  187.3720  175.3240  135.5830 C   0  0  0  0  0  3  0  0  0  0  0  0
  187.4120  176.3130  134.6000 C   0  0  0  0  0  3  0  0  0  0  0  0
  186.3820  173.0350  137.2720 C   0  0  0  0  0  2  0  0  0  0  0  0
  182.1800  176.4950  137.2200 C   0  0  1  0  0  3  0  0  0  0  0  0
  183.5380  174.5740  136.6890 N   0  0  0  0  0  0  0  0  0  0  0  0
  182.7000  177.9230  137.2200 C   0  0  2  0  0  3  0  0  0  0  0  0
  180.4920  175.7400  135.7160 O   0  0  0  0  0  1  0  0  0  0  0  0
  184.5760  176.5660  137.8540 C   0  0  1  0  0  3  0  0  0  0  0  0
  1 16  1  0  0  0  0
  1  6  1  0  0  0  0
  3 17  2  0  0  0  0
  4 20  1  0  0  0  0
  5 27  1  1  0  0  0
  5 24  1  0  0  0  0
  8 14  1  0  0  0  0
  8  7  1  1  0  0  0
  8  2  1  0  0  0  0
  9 18  1  6  0  0  0
  9 14  1  0  0  0  0
 10  8  1  0  0  0  0
 11 15  1  0  0  0  0
 12 28  1  0  0  0  0
 13  9  1  0  0  0  0
 15 19  1  0  0  0  0
 15 23  1  0  0  0  0
 16 28  1  0  0  0  0
 17  5  1  0  0  0  0
 17 25  1  0  0  0  0
 20 16  2  0  0  0  0
 21  1  2  0  0  0  0
 22  4  2  0  0  0  0
 22 21  1  0  0  0  0
 23  6  1  0  0  0  0
 24 12  1  0  0  0  0
 25 19  1  0  0  0  0
 25 12  1  0  0  0  0
 26 24  1  0  0  0  0
 26 13  1  0  0  0  0
 26 10  1  0  0  0  0
 28 10  1  0  0  0  0
M  END
>  <MODEL>
6

>  <REMARK>
 VINA RESULT:      -4.6      4.793      8.343
  Name = 
  0 active torsions:
  status: ('A' for Active; 'I' for Inactive)
                            x       y       z     vdW  Elec       q    Type
                         _______ _______ _______ _____ _____    ______ ____

>  <TORSDO>
F 0

$$$$
=
 OpenBabel11122411573D

 28 32  0  0  1  0  0  0  0  0999 V2000
  186.0510  174.9860  135.7790 C   0  0  0  0  0  0  0  0  0  0  0  0
  182.2770  178.2530  135.1170 F   0  0  0  0  0  0  0  0  0  0  0  0
  187.3600  177.8950  139.0690 O   0  0  0  0  0  0  0  0  0  0  0  0
  185.3050  173.3240  137.9030 C   0  0  0  0  0  3  0  0  0  0  0  0
  184.9660  178.1660  139.1150 C   0  0  2  0  0  3  0  0  0  0  0  0
  186.4400  175.8550  134.7590 O   0  0  0  0  0  0  0  0  0  0  0  0
  181.1970  176.1800  134.8170 C   0  0  0  0  0  1  0  0  0  0  0  0
  181.6950  177.2050  135.8150 C   0  0  1  0  0  0  0  0  0  0  0  0
  181.0210  178.6030  137.7360 C   0  0  1  0  0  3  0  0  0  0  0  0
  182.7060  176.5290  136.7710 C   0  0  2  0  0  3  0  0  0  0  0  0
  188.7900  176.3830  136.9140 C   0  0  0  0  0  1  0  0  0  0  0  0
  184.7600  177.8590  136.6790 C   0  0  1  0  0  3  0  0  0  0  0  0
  181.6850  177.7900  138.6730 O   0  0  0  0  0  0  0  0  0  0  0  0
  180.5040  177.7470  136.5900 C   0  0  0  0  0  2  0  0  0  0  0  0
  188.2380  177.1820  135.7450 C   0  0  2  0  0  3  0  0  0  0  0  0
  184.8980  175.2830  136.5190 C   0  0  0  0  0  0  0  0  0  0  0  0
  186.2630  177.9170  138.4510 C   0  0  0  0  0  0  0  0  0  0  0  0
  179.8570  179.2960  138.4100 C   0  0  0  0  0  1  0  0  0  0  0  0
  187.2140  178.2530  136.1550 C   0  0  0  0  0  2  0  0  0  0  0  0
  184.5390  174.4500  137.5940 C   0  0  0  0  0  3  0  0  0  0  0  0
  186.8190  173.8550  136.0940 C   0  0  0  0  0  3  0  0  0  0  0  0
  186.4420  173.0240  137.1510 C   0  0  0  0  0  3  0  0  0  0  0  0
  187.7870  176.2790  134.5940 C   0  0  0  0  0  2  0  0  0  0  0  0
  183.9930  178.2820  137.9450 C   0  0  1  0  0  3  0  0  0  0  0  0
  186.1670  177.7470  137.0460 N   0  0  0  0  0  0  0  0  0  0  0  0
  182.8730  177.2690  138.1040 C   0  0  2  0  0  3  0  0  0  0  0  0
  185.0110  179.3800  139.8000 O   0  0  0  0  0  1  0  0  0  0  0  0
  184.1170  176.5390  136.1850 C   0  0  1  0  0  3  0  0  0  0  0  0
  1 21  2  0  0  0  0
  1 16  1  0  0  0  0
  2  8  1  0  0  0  0
  5 27  1  6  0  0  0
  6  1  1  0  0  0  0
  8  7  1  6  0  0  0
  8 14  1  0  0  0  0
  8 10  1  0  0  0  0
  9 18  1  1  0  0  0
  9 13  1  0  0  0  0
 10 26  1  0  0  0  0
 12 25  1  0  0  0  0
 12 24  1  0  0  0  0
 14  9  1  0  0  0  0
 15 19  1  0  0  0  0
 15 11  1  0  0  0  0
 16 20  2  0  0  0  0
 17  3  2  0  0  0  0
 17  5  1  0  0  0  0
 19 25  1  0  0  0  0
 20  4  1  0  0  0  0
 21 22  1  0  0  0  0
 22  4  2  0  0  0  0
 23  6  1  0  0  0  0
 23 15  1  0  0  0  0
 24 26  1  0  0  0  0
 24  5  1  0  0  0  0
 25 17  1  0  0  0  0
 26 13  1  0  0  0  0
 28 16  1  0  0  0  0
 28 12  1  0  0  0  0
 28 10  1  0  0  0  0
M  END
>  <MODEL>
7

>  <REMARK>
 VINA RESULT:      -4.6      4.074      8.244
  Name = 
  0 active torsions:
  status: ('A' for Active; 'I' for Inactive)
                            x       y       z     vdW  Elec       q    Type
                         _______ _______ _______ _____ _____    ______ ____

>  <TORSDO>
F 0

$$$$
=
 OpenBabel11122411573D

 28 32  0  0  1  0  0  0  0  0999 V2000
  180.5600  175.1380  137.3910 C   0  0  0  0  0  0  0  0  0  0  0  0
  184.6450  172.2530  137.9680 F   0  0  0  0  0  0  0  0  0  0  0  0
  183.5080  178.5990  137.9650 O   0  0  0  0  0  0  0  0  0  0  0  0
  180.5280  175.9500  134.7120 C   0  0  0  0  0  3  0  0  0  0  0  0
  184.9100  176.9470  136.9120 C   0  0  2  0  0  3  0  0  0  0  0  0
  180.6140  174.7760  138.7370 O   0  0  0  0  0  0  0  0  0  0  0  0
  183.4610  171.1040  136.2840 C   0  0  0  0  0  1  0  0  0  0  0  0
  184.4160  172.2380  136.6000 C   0  0  1  0  0  0  0  0  0  0  0  0
  186.6120  173.2090  136.0240 C   0  0  1  0  0  3  0  0  0  0  0  0
  183.7950  173.5690  136.1150 C   0  0  2  0  0  3  0  0  0  0  0  0
  180.7560  177.9950  138.9840 C   0  0  0  0  0  1  0  0  0  0  0  0
  183.7700  175.0780  138.0440 C   0  0  1  0  0  3  0  0  0  0  0  0
  186.0490  174.2690  135.2890 O   0  0  0  0  0  0  0  0  0  0  0  0
  185.7350  171.9720  135.8940 C   0  0  0  0  0  2  0  0  0  0  0  0
  181.1570  176.8530  139.9020 C   0  0  2  0  0  3  0  0  0  0  0  0
  181.6590  174.8560  136.5670 C   0  0  0  0  0  0  0  0  0  0  0  0
  183.8070  177.3890  137.7930 C   0  0  0  0  0  0  0  0  0  0  0  0
  187.9930  172.9050  135.4870 C   0  0  0  0  0  1  0  0  0  0  0  0
  182.6510  176.4950  139.8300 C   0  0  0  0  0  2  0  0  0  0  0  0
  181.6400  175.2800  135.2280 C   0  0  0  0  0  3  0  0  0  0  0  0
  179.4450  175.8130  136.8700 C   0  0  0  0  0  3  0  0  0  0  0  0
  179.4290  176.2120  135.5320 C   0  0  0  0  0  3  0  0  0  0  0  0
  180.2110  175.6560  139.7780 C   0  0  0  0  0  2  0  0  0  0  0  0
  184.9930  175.4480  137.1860 C   0  0  1  0  0  3  0  0  0  0  0  0
  183.1450  176.3280  138.4610 N   0  0  0  0  0  0  0  0  0  0  0  0
  184.8320  174.6770  135.8860 C   0  0  2  0  0  3  0  0  0  0  0  0
  186.1010  177.5550  137.3040 O   0  0  0  0  0  1  0  0  0  0  0  0
  182.8690  174.1690  137.1720 C   0  0  1  0  0  3  0  0  0  0  0  0
  1  6  1  0  0  0  0
  4 20  2  0  0  0  0
  4 22  1  0  0  0  0
  5 24  1  0  0  0  0
  5 27  1  1  0  0  0
  5 17  1  0  0  0  0
  6 23  1  0  0  0  0
  8  7  1  6  0  0  0
  8  2  1  0  0  0  0
  9 18  1  6  0  0  0
 10  8  1  0  0  0  0
 10 28  1  0  0  0  0
 11 15  1  0  0  0  0
 12 25  1  0  0  0  0
 13 26  1  0  0  0  0
 13  9  1  0  0  0  0
 14  9  1  0  0  0  0
 14  8  1  0  0  0  0
 16 28  1  0  0  0  0
 16  1  2  0  0  0  0
 17  3  2  0  0  0  0
 17 25  1  0  0  0  0
 19 15  1  0  0  0  0
 20 16  1  0  0  0  0
 21  1  1  0  0  0  0
 22 21  2  0  0  0  0
 23 15  1  0  0  0  0
 24 12  1  0  0  0  0
 25 19  1  0  0  0  0
 26 10  1  0  0  0  0
 26 24  1  0  0  0  0
 28 12  1  0  0  0  0
M  END
>  <MODEL>
8

>  <REMARK>
 VINA RESULT:      -4.6      5.074      8.058
  Name = 
  0 active torsions:
  status: ('A' for Active; 'I' for Inactive)
                            x       y       z     vdW  Elec       q    Type
                         _______ _______ _______ _____ _____    ______ ____

>  <TORSDO>
F 0

$$$$
=
 OpenBabel11122411573D

 28 32  0  0  1  0  0  0  0  0999 V2000
  180.7580  178.4230  137.8000 C   0  0  0  0  0  0  0  0  0  0  0  0
  180.7230  173.4360  138.4950 F   0  0  0  0  0  0  0  0  0  0  0  0
  185.3120  177.9240  137.8870 O   0  0  0  0  0  0  0  0  0  0  0  0
  181.1140  178.8440  135.0560 C   0  0  0  0  0  3  0  0  0  0  0  0
  184.6170  175.8150  136.9500 C   0  0  2  0  0  3  0  0  0  0  0  0
  180.6370  178.2050  139.1730 O   0  0  0  0  0  0  0  0  0  0  0  0
  178.9330  173.7390  136.9920 C   0  0  0  0  0  1  0  0  0  0  0  0
  180.4330  173.5880  137.1470 C   0  0  1  0  0  0  0  0  0  0  0  0
  182.3920  172.2970  136.3800 C   0  0  1  0  0  3  0  0  0  0  0  0
  181.1290  174.8360  136.5550 C   0  0  2  0  0  3  0  0  0  0  0  0
  183.3930  179.8900  139.0810 C   0  0  0  0  0  1  0  0  0  0  0  0
  182.5680  175.7420  138.3170 C   0  0  1  0  0  3  0  0  0  0  0  0
  182.8700  173.3390  135.5650 O   0  0  0  0  0  0  0  0  0  0  0  0
  180.8720  172.3300  136.4160 C   0  0  0  0  0  2  0  0  0  0  0  0
  182.7770  178.9400  140.0940 C   0  0  2  0  0  3  0  0  0  0  0  0
  181.0470  177.3350  136.9640 C   0  0  0  0  0  0  0  0  0  0  0  0
  184.4630  176.9950  137.8270 C   0  0  0  0  0  0  0  0  0  0  0  0
  182.8530  170.9690  135.8180 C   0  0  0  0  0  1  0  0  0  0  0  0
  183.3070  177.5000  139.9940 C   0  0  0  0  0  2  0  0  0  0  0  0
  181.2390  177.5590  135.5890 C   0  0  0  0  0  3  0  0  0  0  0  0
  180.6350  179.7120  137.2610 C   0  0  0  0  0  3  0  0  0  0  0  0
  180.8080  179.9190  135.8920 C   0  0  0  0  0  3  0  0  0  0  0  0
  181.2510  179.0530  140.1340 C   0  0  0  0  0  2  0  0  0  0  0  0
  183.4600  174.9150  137.3740 C   0  0  1  0  0  3  0  0  0  0  0  0
  183.2950  176.9670  138.6300 N   0  0  0  0  0  0  0  0  0  0  0  0
  182.5930  174.5900  136.1690 C   0  0  2  0  0  3  0  0  0  0  0  0
  185.8250  175.1750  137.2260 O   0  0  0  0  0  1  0  0  0  0  0  0
  181.2220  175.9620  137.5830 C   0  0  1  0  0  3  0  0  0  0  0  0
  1  6  1  0  0  0  0
  4 20  2  0  0  0  0
  4 22  1  0  0  0  0
  5 27  1  1  0  0  0
  5 24  1  0  0  0  0
  5 17  1  0  0  0  0
  6 23  1  0  0  0  0
  8  7  1  6  0  0  0
  8  2  1  0  0  0  0
  9 18  1  6  0  0  0
  9 14  1  0  0  0  0
 10  8  1  0  0  0  0
 10 28  1  0  0  0  0
 11 15  1  0  0  0  0
 12 25  1  0  0  0  0
 13 26  1  0  0  0  0
 13  9  1  0  0  0  0
 14  8  1  0  0  0  0
 15 23  1  0  0  0  0
 16 28  1  0  0  0  0
 16  1  2  0  0  0  0
 17  3  2  0  0  0  0
 17 25  1  0  0  0  0
 19 15  1  0  0  0  0
 20 16  1  0  0  0  0
 21  1  1  0  0  0  0
 22 21  2  0  0  0  0
 24 12  1  0  0  0  0
 25 19  1  0  0  0  0
 26 10  1  0  0  0  0
 26 24  1  0  0  0  0
 28 12  1  0  0  0  0
M  END
>  <MODEL>
9

>  <REMARK>
 VINA RESULT:      -4.6      6.489      9.124
  Name = 
  0 active torsions:
  status: ('A' for Active; 'I' for Inactive)
                            x       y       z     vdW  Elec       q    Type
                         _______ _______ _______ _____ _____    ______ ____

>  <TORSDO>
F 0

$$$$
