=
 OpenBabel11122411053D

 31 35  0  0  1  0  0  0  0  0999 V2000
  181.6900  178.8410  143.4030 C   0  0  0  0  0  0  0  0  0  0  0  0
  181.4840  178.1550  139.6650 C   0  0  2  0  0  3  0  0  0  0  0  0
  181.1040  179.4490  138.9650 C   0  0  0  0  0  0  0  0  0  0  0  0
  186.7390  178.6090  138.9010 O   0  0  0  0  0  0  0  0  0  0  0  0
  186.2200  178.0520  137.8980 C   0  0  0  0  0  0  0  0  0  0  0  0
  180.1080  181.6680  139.0150 C   0  0  0  0  0  0  0  0  0  0  0  0
  182.0330  178.3960  141.0470 C   0  0  0  0  0  0  0  0  0  0  0  0
  183.0680  179.0000  143.5760 C   0  0  0  0  0  3  0  0  0  0  0  0
  180.4750  180.4890  139.6680 C   0  0  0  0  0  3  0  0  0  0  0  0
  183.9130  177.8380  138.9850 C   0  0  0  0  0  0  0  0  0  0  0  0
  180.8550  178.9850  144.4600 F   0  0  0  0  0  0  0  0  0  0  0  0
  181.8910  178.5570  136.8360 O   0  0  0  0  0  0  0  0  0  0  0  0
  179.5150  182.6690  139.7080 F   0  0  0  0  0  0  0  0  0  0  0  0
  184.3080  178.3490  140.1160 N   0  0  0  0  0  0  0  0  0  0  0  0
  182.4930  177.3220  138.8380 C   0  0  2  0  0  3  0  0  0  0  0  0
  184.8440  177.6470  137.9100 N   0  0  0  0  0  2  0  0  0  0  0  0
  181.1700  178.5450  142.1390 C   0  0  0  0  0  3  0  0  0  0  0  0
  180.3550  181.8160  137.6490 C   0  0  0  0  0  3  0  0  0  0  0  0
  183.4190  178.5410  141.2240 C   0  0  0  0  0  0  0  0  0  0  0  0
  183.9330  178.8500  142.4870 C   0  0  0  0  0  3  0  0  0  0  0  0
  182.0460  177.2480  137.3780 C   0  0  0  0  0  2  0  0  0  0  0  0
  181.3130  179.5920  137.5760 C   0  0  0  0  0  0  0  0  0  0  0  0
  180.9540  180.7780  136.9300 C   0  0  0  0  0  3  0  0  0  0  0  0
  189.4490  176.2350  137.0980 N   0  0  0  0  0  0  0  0  0  0  0  0
  187.1330  176.3580  136.2980 C   0  0  0  0  0  2  0  0  0  0  0  0
  188.4150  179.7580  137.2600 O   0  0  0  0  0  1  0  0  0  0  0  0
  190.3230  175.4830  137.9790 C   0  0  0  0  0  1  0  0  0  0  0  0
  188.1250  175.6230  137.2010 C   0  0  0  0  0  2  0  0  0  0  0  0
  188.4650  178.4530  136.7660 C   0  0  2  0  0  3  0  0  0  0  0  0
  187.0560  177.8420  136.6690 C   0  0  2  0  0  3  0  0  0  0  0  0
  189.3790  177.5920  137.6370 C   0  0  0  0  0  2  0  0  0  0  0  0
  1  8  1  0  0  0  0
  1 11  1  0  0  0  0
  2  3  1  6  0  0  0
  2  7  1  0  0  0  0
  3  9  1  0  0  0  0
  5 16  1  0  0  0  0
  5  4  2  0  0  0  0
  6  9  2  0  0  0  0
  6 13  1  0  0  0  0
  7 19  2  0  0  0  0
  7 17  1  0  0  0  0
 10 14  2  0  0  0  0
 12 21  1  0  0  0  0
 12 22  1  0  0  0  0
 14 19  1  0  0  0  0
 15 21  1  6  0  0  0
 15 10  1  0  0  0  0
 15  2  1  0  0  0  0
 16 10  1  0  0  0  0
 17  1  2  0  0  0  0
 18  6  1  0  0  0  0
 19 20  1  0  0  0  0
 20  8  2  0  0  0  0
 22  3  2  0  0  0  0
 23 22  1  0  0  0  0
 23 18  2  0  0  0  0
 24 28  1  0  0  0  0
 24 31  1  0  0  0  0
 24 27  1  0  0  0  0
 25 30  1  0  0  0  0
 25 28  1  0  0  0  0
 29 26  1  1  0  0  0
 29 31  1  0  0  0  0
 30 29  1  0  0  0  0
 30  5  1  1  0  0  0
M  END
>  <MODEL>
1

>  <REMARK>
 VINA RESULT:      -7.9      0.000      0.000
  Name = 
  1 active torsions:
  status: ('A' for Active; 'I' for Inactive)
    1  A    between atoms: C_5  and  C_30
                            x       y       z     vdW  Elec       q    Type
                         _______ _______ _______ _____ _____    ______ ____

>  <TORSDO>
F 1

$$$$
=
 OpenBabel11122411053D

 31 35  0  0  1  0  0  0  0  0999 V2000
  192.8480  174.6540  135.7100 C   0  0  0  0  0  0  0  0  0  0  0  0
  189.8740  176.8330  136.6560 C   0  0  2  0  0  3  0  0  0  0  0  0
  188.6230  175.9700  136.6210 C   0  0  0  0  0  0  0  0  0  0  0  0
  190.7300  176.3960  141.8980 O   0  0  0  0  0  0  0  0  0  0  0  0
  189.9350  177.3490  141.6850 C   0  0  0  0  0  0  0  0  0  0  0  0
  187.4350  173.9980  135.8380 C   0  0  0  0  0  0  0  0  0  0  0  0
  191.1310  176.0080  136.7520 C   0  0  0  0  0  0  0  0  0  0  0  0
  193.3740  174.3480  136.9690 C   0  0  0  0  0  3  0  0  0  0  0  0
  188.5940  174.7760  135.8840 C   0  0  0  0  0  3  0  0  0  0  0  0
  190.2070  177.2450  139.1430 C   0  0  0  0  0  0  0  0  0  0  0  0
  193.4210  174.1400  134.5950 F   0  0  0  0  0  0  0  0  0  0  0  0
  187.4270  177.6080  137.9750 O   0  0  0  0  0  0  0  0  0  0  0  0
  187.4240  172.8410  135.1340 F   0  0  0  0  0  0  0  0  0  0  0  0
  191.0890  176.2870  139.1940 N   0  0  0  0  0  0  0  0  0  0  0  0
  189.8360  177.8660  137.8080 C   0  0  2  0  0  3  0  0  0  0  0  0
  189.6690  177.8010  140.3500 N   0  0  0  0  0  2  0  0  0  0  0  0
  191.7240  175.4780  135.6000 C   0  0  0  0  0  3  0  0  0  0  0  0
  186.2880  174.4120  136.5190 C   0  0  0  0  0  3  0  0  0  0  0  0
  191.6690  175.7130  138.0160 C   0  0  0  0  0  0  0  0  0  0  0  0
  192.7850  174.8780  138.1210 C   0  0  0  0  0  3  0  0  0  0  0  0
  188.4770  178.5640  137.8470 C   0  0  0  0  0  2  0  0  0  0  0  0
  187.4480  176.4000  137.2740 C   0  0  0  0  0  0  0  0  0  0  0  0
  186.2940  175.6120  137.2330 C   0  0  0  0  0  3  0  0  0  0  0  0
  190.4640  177.4370  145.4380 N   0  0  0  0  0  0  0  0  0  0  0  0
  190.1630  178.9890  143.5620 C   0  0  0  0  0  2  0  0  0  0  0  0
  187.9420  175.9790  143.1970 O   0  0  0  0  0  1  0  0  0  0  0  0
  191.4830  176.7840  146.2380 C   0  0  0  0  0  1  0  0  0  0  0  0
  191.1680  178.2580  144.4540 C   0  0  0  0  0  2  0  0  0  0  0  0
  188.6510  176.9860  143.8530 C   0  0  2  0  0  3  0  0  0  0  0  0
  189.2430  177.9930  142.8510 C   0  0  2  0  0  3  0  0  0  0  0  0
  189.7440  176.3790  144.7320 C   0  0  0  0  0  2  0  0  0  0  0  0
  1  8  1  0  0  0  0
  2  3  1  1  0  0  0
  2  7  1  0  0  0  0
  2 15  1  0  0  0  0
  3 22  1  0  0  0  0
  5  4  2  0  0  0  0
  6  9  1  0  0  0  0
  6 18  2  0  0  0  0
  7 19  2  0  0  0  0
  8 20  2  0  0  0  0
  9  3  2  0  0  0  0
 10 14  2  0  0  0  0
 10 16  1  0  0  0  0
 11  1  1  0  0  0  0
 13  6  1  0  0  0  0
 15 21  1  1  0  0  0
 15 10  1  0  0  0  0
 16  5  1  0  0  0  0
 17  1  2  0  0  0  0
 17  7  1  0  0  0  0
 18 23  1  0  0  0  0
 19 20  1  0  0  0  0
 19 14  1  0  0  0  0
 21 12  1  0  0  0  0
 22 12  1  0  0  0  0
 23 22  2  0  0  0  0
 24 27  1  0  0  0  0
 25 28  1  0  0  0  0
 28 24  1  0  0  0  0
 29 26  1  6  0  0  0
 29 31  1  0  0  0  0
 30  5  1  6  0  0  0
 30 25  1  0  0  0  0
 30 29  1  0  0  0  0
 31 24  1  0  0  0  0
M  END
>  <MODEL>
2

>  <REMARK>
 VINA RESULT:      -7.7      6.118      9.290
  Name = 
  1 active torsions:
  status: ('A' for Active; 'I' for Inactive)
    1  A    between atoms: C_5  and  C_30
                            x       y       z     vdW  Elec       q    Type
                         _______ _______ _______ _____ _____    ______ ____

>  <TORSDO>
F 1

$$$$
=
 OpenBabel11122411053D

 31 35  0  0  1  0  0  0  0  0999 V2000
  192.1200  176.7530  138.5700 C   0  0  0  0  0  0  0  0  0  0  0  0
  188.7260  177.0590  136.8740 C   0  0  2  0  0  3  0  0  0  0  0  0
  188.1170  175.6690  136.7770 C   0  0  0  0  0  0  0  0  0  0  0  0
  186.1930  178.4870  141.3400 O   0  0  0  0  0  0  0  0  0  0  0  0
  185.4630  178.7470  140.3470 C   0  0  0  0  0  0  0  0  0  0  0  0
  188.3630  173.2500  136.7360 C   0  0  0  0  0  0  0  0  0  0  0  0
  189.8200  177.1280  137.9060 C   0  0  0  0  0  0  0  0  0  0  0  0
  191.8030  177.1160  139.8820 C   0  0  0  0  0  3  0  0  0  0  0  0
  188.9250  174.5240  136.8480 C   0  0  0  0  0  3  0  0  0  0  0  0
  187.2810  178.1860  138.6360 C   0  0  0  0  0  0  0  0  0  0  0  0
  193.3870  176.3890  138.2560 F   0  0  0  0  0  0  0  0  0  0  0  0
  185.9080  176.6370  136.4150 O   0  0  0  0  0  0  0  0  0  0  0  0
  189.1520  172.1520  136.8200 F   0  0  0  0  0  0  0  0  0  0  0  0
  188.1760  177.9320  139.5480 N   0  0  0  0  0  0  0  0  0  0  0  0
  187.6590  178.1410  137.1670 C   0  0  2  0  0  3  0  0  0  0  0  0
  185.9690  178.6270  139.0110 N   0  0  0  0  0  2  0  0  0  0  0  0
  191.1290  176.7530  137.5830 C   0  0  0  0  0  3  0  0  0  0  0  0
  186.9870  173.1080  136.5400 C   0  0  0  0  0  3  0  0  0  0  0  0
  189.5060  177.5080  139.2230 C   0  0  0  0  0  0  0  0  0  0  0  0
  190.4960  177.4930  140.2080 C   0  0  0  0  0  3  0  0  0  0  0  0
  186.4460  177.9480  136.2570 C   0  0  0  0  0  2  0  0  0  0  0  0
  186.7340  175.5170  136.5400 C   0  0  0  0  0  0  0  0  0  0  0  0
  186.1750  174.2400  136.4400 C   0  0  0  0  0  3  0  0  0  0  0  0
  182.0820  177.6990  138.9890 N   0  0  0  0  0  0  0  0  0  0  0  0
  183.2110  178.0050  141.1470 C   0  0  0  0  0  2  0  0  0  0  0  0
  184.1800  180.7060  138.7190 O   0  0  0  0  0  1  0  0  0  0  0  0
  181.7640  176.6970  137.9900 C   0  0  0  0  0  1  0  0  0  0  0  0
  182.8320  177.0160  140.0420 C   0  0  0  0  0  2  0  0  0  0  0  0
  183.3580  179.7620  139.3370 C   0  0  2  0  0  3  0  0  0  0  0  0
  184.0390  179.1610  140.5800 C   0  0  2  0  0  3  0  0  0  0  0  0
  182.9660  178.6690  138.3430 C   0  0  0  0  0  2  0  0  0  0  0  0
  1  8  1  0  0  0  0
  2  3  1  1  0  0  0
  2 15  1  0  0  0  0
  2  7  1  0  0  0  0
  3  9  1  0  0  0  0
  5  4  2  0  0  0  0
  6 13  1  0  0  0  0
  6  9  2  0  0  0  0
  7 19  2  0  0  0  0
  8 20  2  0  0  0  0
 10 16  1  0  0  0  0
 10 14  2  0  0  0  0
 11  1  1  0  0  0  0
 12 22  1  0  0  0  0
 15 21  1  6  0  0  0
 15 10  1  0  0  0  0
 16  5  1  0  0  0  0
 17  7  1  0  0  0  0
 17  1  2  0  0  0  0
 18  6  1  0  0  0  0
 19 14  1  0  0  0  0
 19 20  1  0  0  0  0
 21 12  1  0  0  0  0
 22  3  2  0  0  0  0
 23 22  1  0  0  0  0
 23 18  2  0  0  0  0
 24 28  1  0  0  0  0
 27 24  1  0  0  0  0
 28 25  1  0  0  0  0
 29 26  1  6  0  0  0
 29 30  1  0  0  0  0
 30  5  1  6  0  0  0
 30 25  1  0  0  0  0
 31 24  1  0  0  0  0
 31 29  1  0  0  0  0
M  END
>  <MODEL>
3

>  <REMARK>
 VINA RESULT:      -7.4      4.169      8.057
  Name = 
  1 active torsions:
  status: ('A' for Active; 'I' for Inactive)
    1  A    between atoms: C_5  and  C_30
                            x       y       z     vdW  Elec       q    Type
                         _______ _______ _______ _____ _____    ______ ____

>  <TORSDO>
F 1

$$$$
=
 OpenBabel11122411053D

 31 35  0  0  1  0  0  0  0  0999 V2000
  191.2990  177.3870  140.8220 C   0  0  0  0  0  0  0  0  0  0  0  0
  189.2480  177.7810  137.6400 C   0  0  2  0  0  3  0  0  0  0  0  0
  188.9750  176.3950  137.0770 C   0  0  0  0  0  0  0  0  0  0  0  0
  184.6160  178.2770  140.2270 O   0  0  0  0  0  0  0  0  0  0  0  0
  184.4700  178.6600  139.0360 C   0  0  0  0  0  0  0  0  0  0  0  0
  189.5400  174.0370  136.8940 C   0  0  0  0  0  0  0  0  0  0  0  0
  189.6380  177.7360  139.0940 C   0  0  0  0  0  0  0  0  0  0  0  0
  190.3080  177.5010  141.8010 C   0  0  0  0  0  3  0  0  0  0  0  0
  189.7830  175.3030  137.4310 C   0  0  0  0  0  3  0  0  0  0  0  0
  186.9650  178.5050  138.4900 C   0  0  0  0  0  0  0  0  0  0  0  0
  192.5850  177.1560  141.1840 F   0  0  0  0  0  0  0  0  0  0  0  0
  187.1540  177.2820  135.7180 O   0  0  0  0  0  0  0  0  0  0  0  0
  190.3180  172.9880  137.2540 F   0  0  0  0  0  0  0  0  0  0  0  0
  187.2920  178.1510  139.7010 N   0  0  0  0  0  0  0  0  0  0  0  0
  188.0450  178.7340  137.4480 C   0  0  2  0  0  3  0  0  0  0  0  0
  185.6000  178.7990  138.1640 N   0  0  0  0  0  2  0  0  0  0  0  0
  190.9650  177.4980  139.4690 C   0  0  0  0  0  3  0  0  0  0  0  0
  188.4940  173.8510  135.9870 C   0  0  0  0  0  3  0  0  0  0  0  0
  188.6450  177.8660  140.0800 C   0  0  0  0  0  0  0  0  0  0  0  0
  188.9810  177.7410  141.4300 C   0  0  0  0  0  3  0  0  0  0  0  0
  187.5090  178.6290  136.0200 C   0  0  0  0  0  2  0  0  0  0  0  0
  187.9450  176.2060  136.1300 C   0  0  0  0  0  0  0  0  0  0  0  0
  187.7000  174.9350  135.6040 C   0  0  0  0  0  3  0  0  0  0  0  0
  181.0910  176.9600  139.2840 N   0  0  0  0  0  0  0  0  0  0  0  0
  182.1040  179.1590  139.6830 C   0  0  0  0  0  2  0  0  0  0  0  0
  183.5110  177.5630  136.5840 O   0  0  0  0  0  1  0  0  0  0  0  0
  180.7310  175.7220  139.9480 C   0  0  0  0  0  1  0  0  0  0  0  0
  181.6930  177.8200  140.3010 C   0  0  0  0  0  2  0  0  0  0  0  0
  182.5550  177.8820  137.5500 C   0  0  2  0  0  3  0  0  0  0  0  0
  183.0860  178.9450  138.5280 C   0  0  2  0  0  3  0  0  0  0  0  0
  182.1120  176.6230  138.2940 C   0  0  0  0  0  2  0  0  0  0  0  0
  1 11  1  0  0  0  0
  1  8  1  0  0  0  0
  2  3  1  1  0  0  0
  2  7  1  0  0  0  0
  3  9  1  0  0  0  0
  5  4  2  0  0  0  0
  6 13  1  0  0  0  0
  6  9  2  0  0  0  0
  7 17  1  0  0  0  0
  7 19  2  0  0  0  0
 10 14  2  0  0  0  0
 12 21  1  0  0  0  0
 12 22  1  0  0  0  0
 14 19  1  0  0  0  0
 15 21  1  6  0  0  0
 15  2  1  0  0  0  0
 15 10  1  0  0  0  0
 16 10  1  0  0  0  0
 16  5  1  0  0  0  0
 17  1  2  0  0  0  0
 18  6  1  0  0  0  0
 19 20  1  0  0  0  0
 20  8  2  0  0  0  0
 22  3  2  0  0  0  0
 23 18  2  0  0  0  0
 23 22  1  0  0  0  0
 24 27  1  0  0  0  0
 24 28  1  0  0  0  0
 25 28  1  0  0  0  0
 29 26  1  6  0  0  0
 29 31  1  0  0  0  0
 29 30  1  0  0  0  0
 30  5  1  1  0  0  0
 30 25  1  0  0  0  0
 31 24  1  0  0  0  0
M  END
>  <MODEL>
4

>  <REMARK>
 VINA RESULT:      -7.1      4.008      7.979
  Name = 
  1 active torsions:
  status: ('A' for Active; 'I' for Inactive)
    1  A    between atoms: C_5  and  C_30
                            x       y       z     vdW  Elec       q    Type
                         _______ _______ _______ _____ _____    ______ ____

>  <TORSDO>
F 1

$$$$
=
 OpenBabel11122411053D

 31 35  0  0  1  0  0  0  0  0999 V2000
  190.1310  177.1560  137.3670 C   0  0  0  0  0  0  0  0  0  0  0  0
  186.4820  176.6490  136.4080 C   0  0  2  0  0  3  0  0  0  0  0  0
  186.0630  175.2580  136.8540 C   0  0  0  0  0  0  0  0  0  0  0  0
  184.6010  179.2190  140.6810 O   0  0  0  0  0  0  0  0  0  0  0  0
  183.6790  179.0950  139.8310 C   0  0  0  0  0  0  0  0  0  0  0  0
  186.6280  172.9760  137.4790 C   0  0  0  0  0  0  0  0  0  0  0  0
  187.7210  177.1250  137.1200 C   0  0  0  0  0  0  0  0  0  0  0  0
  190.0020  177.8900  138.5500 C   0  0  0  0  0  3  0  0  0  0  0  0
  187.0210  174.2590  137.0890 C   0  0  0  0  0  3  0  0  0  0  0  0
  185.2280  178.1620  138.0210 C   0  0  0  0  0  0  0  0  0  0  0  0
  191.3600  176.8090  136.9160 F   0  0  0  0  0  0  0  0  0  0  0  0
  183.7130  175.8890  136.6940 O   0  0  0  0  0  0  0  0  0  0  0  0
  187.5630  172.0250  137.7150 F   0  0  0  0  0  0  0  0  0  0  0  0
  186.2960  178.2780  138.7590 N   0  0  0  0  0  0  0  0  0  0  0  0
  185.3450  177.6830  136.5850 C   0  0  2  0  0  3  0  0  0  0  0  0
  183.9540  178.5960  138.5150 N   0  0  0  0  0  2  0  0  0  0  0  0
  188.9920  176.7680  136.6550 C   0  0  0  0  0  3  0  0  0  0  0  0
  185.2730  172.6750  137.6260 C   0  0  0  0  0  3  0  0  0  0  0  0
  187.5940  177.8760  138.3010 C   0  0  0  0  0  0  0  0  0  0  0  0
  188.7340  178.2500  139.0170 C   0  0  0  0  0  3  0  0  0  0  0  0
  184.0290  177.1200  136.0480 C   0  0  0  0  0  2  0  0  0  0  0  0
  184.6940  174.9330  136.9680 C   0  0  0  0  0  0  0  0  0  0  0  0
  184.3080  173.6510  137.3690 C   0  0  0  0  0  3  0  0  0  0  0  0
  180.2090  178.0720  138.6990 N   0  0  0  0  0  0  0  0  0  0  0  0
  181.5240  178.2310  140.7650 C   0  0  0  0  0  2  0  0  0  0  0  0
  182.2150  181.1450  138.4940 O   0  0  0  0  0  1  0  0  0  0  0  0
  179.8190  177.1470  137.6530 C   0  0  0  0  0  1  0  0  0  0  0  0
  181.0640  177.3250  139.6210 C   0  0  0  0  0  2  0  0  0  0  0  0
  181.4720  180.1320  139.1020 C   0  0  2  0  0  3  0  0  0  0  0  0
  182.2750  179.4510  140.2250 C   0  0  2  0  0  3  0  0  0  0  0  0
  181.0100  179.1140  138.0600 C   0  0  0  0  0  2  0  0  0  0  0  0
  1  8  1  0  0  0  0
  2 15  1  0  0  0  0
  2  3  1  1  0  0  0
  2  7  1  0  0  0  0
  3 22  2  0  0  0  0
  3  9  1  0  0  0  0
  5  4  2  0  0  0  0
  6 18  1  0  0  0  0
  6 13  1  0  0  0  0
  7 19  2  0  0  0  0
  8 20  2  0  0  0  0
  9  6  2  0  0  0  0
 10 16  1  0  0  0  0
 10 14  2  0  0  0  0
 11  1  1  0  0  0  0
 12 22  1  0  0  0  0
 15 21  1  1  0  0  0
 15 10  1  0  0  0  0
 16  5  1  0  0  0  0
 17  7  1  0  0  0  0
 17  1  2  0  0  0  0
 19 14  1  0  0  0  0
 19 20  1  0  0  0  0
 21 12  1  0  0  0  0
 22 23  1  0  0  0  0
 23 18  2  0  0  0  0
 24 28  1  0  0  0  0
 27 24  1  0  0  0  0
 28 25  1  0  0  0  0
 29 26  1  6  0  0  0
 29 30  1  0  0  0  0
 30  5  1  6  0  0  0
 30 25  1  0  0  0  0
 31 24  1  0  0  0  0
 31 29  1  0  0  0  0
M  END
>  <MODEL>
5

>  <REMARK>
 VINA RESULT:      -7.1      3.838      7.681
  Name = 
  1 active torsions:
  status: ('A' for Active; 'I' for Inactive)
    1  A    between atoms: C_5  and  C_30
                            x       y       z     vdW  Elec       q    Type
                         _______ _______ _______ _____ _____    ______ ____

>  <TORSDO>
F 1

$$$$
=
 OpenBabel11122411053D

 31 35  0  0  1  0  0  0  0  0999 V2000
  179.7520  178.6260  142.5710 C   0  0  0  0  0  0  0  0  0  0  0  0
  182.9550  179.3210  140.6360 C   0  0  2  0  0  3  0  0  0  0  0  0
  184.1310  178.8680  141.4860 C   0  0  0  0  0  0  0  0  0  0  0  0
  182.6100  174.8770  137.7150 O   0  0  0  0  0  0  0  0  0  0  0  0
  183.4450  175.6570  137.1860 C   0  0  0  0  0  0  0  0  0  0  0  0
  185.0890  178.3270  143.6550 C   0  0  0  0  0  0  0  0  0  0  0  0
  181.6590  178.6940  141.0790 C   0  0  0  0  0  0  0  0  0  0  0  0
  179.3370  177.4240  141.9890 C   0  0  0  0  0  3  0  0  0  0  0  0
  183.9990  178.7220  142.8760 C   0  0  0  0  0  3  0  0  0  0  0  0
  182.9080  177.5940  138.7710 C   0  0  0  0  0  0  0  0  0  0  0  0
  179.0330  179.1730  143.5810 F   0  0  0  0  0  0  0  0  0  0  0  0
  185.5730  178.8430  139.5190 O   0  0  0  0  0  0  0  0  0  0  0  0
  184.9460  178.1770  144.9930 F   0  0  0  0  0  0  0  0  0  0  0  0
  181.9700  176.9350  139.3890 N   0  0  0  0  0  0  0  0  0  0  0  0
  183.1850  179.0420  139.1310 C   0  0  2  0  0  3  0  0  0  0  0  0
  183.6050  176.9990  137.6670 N   0  0  0  0  0  2  0  0  0  0  0  0
  180.9150  179.2590  142.1220 C   0  0  0  0  0  3  0  0  0  0  0  0
  186.3260  178.0840  143.0540 C   0  0  0  0  0  3  0  0  0  0  0  0
  181.2330  177.4940  140.4840 C   0  0  0  0  0  0  0  0  0  0  0  0
  180.0770  176.8590  140.9460 C   0  0  0  0  0  3  0  0  0  0  0  0
  184.5870  179.4890  138.7180 C   0  0  0  0  0  2  0  0  0  0  0  0
  185.3950  178.6590  140.8930 C   0  0  0  0  0  0  0  0  0  0  0  0
  186.4790  178.2520  141.6750 C   0  0  0  0  0  3  0  0  0  0  0  0
  184.2690  172.2600  135.7180 N   0  0  0  0  0  0  0  0  0  0  0  0
  183.4500  174.4560  134.9900 C   0  0  0  0  0  2  0  0  0  0  0  0
  186.1380  174.8090  137.5940 O   0  0  0  0  0  1  0  0  0  0  0  0
  183.8190  170.9460  136.1340 C   0  0  0  0  0  1  0  0  0  0  0  0
  183.0660  173.0450  135.4400 C   0  0  0  0  0  2  0  0  0  0  0  0
  185.4570  174.2500  136.5110 C   0  0  2  0  0  3  0  0  0  0  0  0
  184.2980  175.1550  136.0570 C   0  0  2  0  0  3  0  0  0  0  0  0
  184.9550  172.8510  136.8650 C   0  0  0  0  0  2  0  0  0  0  0  0
  1 11  1  0  0  0  0
  2  7  1  1  0  0  0
  2  3  1  0  0  0  0
  3  9  1  0  0  0  0
  5 16  1  0  0  0  0
  5  4  2  0  0  0  0
  6 13  1  0  0  0  0
  7 17  2  0  0  0  0
  8  1  2  0  0  0  0
  9  6  2  0  0  0  0
 10 15  1  0  0  0  0
 10 14  2  0  0  0  0
 12 22  1  0  0  0  0
 14 19  1  0  0  0  0
 15 21  1  1  0  0  0
 15  2  1  0  0  0  0
 16 10  1  0  0  0  0
 17  1  1  0  0  0  0
 18  6  1  0  0  0  0
 19 20  2  0  0  0  0
 19  7  1  0  0  0  0
 20  8  1  0  0  0  0
 21 12  1  0  0  0  0
 22  3  2  0  0  0  0
 22 23  1  0  0  0  0
 23 18  2  0  0  0  0
 24 27  1  0  0  0  0
 24 31  1  0  0  0  0
 25 28  1  0  0  0  0
 25 30  1  0  0  0  0
 28 24  1  0  0  0  0
 29 31  1  0  0  0  0
 29 26  1  1  0  0  0
 30 29  1  0  0  0  0
 30  5  1  1  0  0  0
M  END
>  <MODEL>
6

>  <REMARK>
 VINA RESULT:      -6.7      3.055      5.011
  Name = 
  1 active torsions:
  status: ('A' for Active; 'I' for Inactive)
    1  A    between atoms: C_5  and  C_30
                            x       y       z     vdW  Elec       q    Type
                         _______ _______ _______ _____ _____    ______ ____

>  <TORSDO>
F 1

$$$$
=
 OpenBabel11122411053D

 31 35  0  0  1  0  0  0  0  0999 V2000
  191.0630  177.3110  139.6740 C   0  0  0  0  0  0  0  0  0  0  0  0
  188.7190  177.4250  136.6760 C   0  0  2  0  0  3  0  0  0  0  0  0
  188.4470  175.9970  136.2320 C   0  0  0  0  0  0  0  0  0  0  0  0
  184.3250  177.9540  139.6440 O   0  0  0  0  0  0  0  0  0  0  0  0
  184.0580  178.2510  138.4490 C   0  0  0  0  0  0  0  0  0  0  0  0
  189.0790  173.6490  136.1510 C   0  0  0  0  0  0  0  0  0  0  0  0
  189.2400  177.4910  138.0880 C   0  0  0  0  0  0  0  0  0  0  0  0
  190.1600  177.4610  140.7310 C   0  0  0  0  0  3  0  0  0  0  0  0
  189.3230  174.9560  136.5800 C   0  0  0  0  0  3  0  0  0  0  0  0
  186.4980  178.1360  137.6860 C   0  0  0  0  0  0  0  0  0  0  0  0
  192.3830  177.1440  139.9290 F   0  0  0  0  0  0  0  0  0  0  0  0
  186.4800  176.7330  134.9930 O   0  0  0  0  0  0  0  0  0  0  0  0
  189.9250  172.6520  136.5050 F   0  0  0  0  0  0  0  0  0  0  0  0
  186.9450  177.8750  138.8820 N   0  0  0  0  0  0  0  0  0  0  0  0
  187.4690  178.3260  136.5350 C   0  0  2  0  0  3  0  0  0  0  0  0
  185.0980  178.3650  137.4690 N   0  0  0  0  0  2  0  0  0  0  0  0
  190.6040  177.3200  138.3530 C   0  0  0  0  0  3  0  0  0  0  0  0
  187.9630  173.3710  135.3590 C   0  0  0  0  0  3  0  0  0  0  0  0
  188.3360  177.6580  139.1510 C   0  0  0  0  0  0  0  0  0  0  0  0
  188.7980  177.6350  140.4700 C   0  0  0  0  0  3  0  0  0  0  0  0
  186.8110  178.1080  135.1730 C   0  0  0  0  0  2  0  0  0  0  0  0
  187.3440  175.7120  135.3990 C   0  0  0  0  0  0  0  0  0  0  0  0
  187.0990  174.4010  134.9820 C   0  0  0  0  0  3  0  0  0  0  0  0
  180.7400  178.3990  140.2770 N   0  0  0  0  0  0  0  0  0  0  0  0
  182.0530  179.7300  138.6880 C   0  0  0  0  0  2  0  0  0  0  0  0
  182.3110  176.0600  137.9160 O   0  0  0  0  0  1  0  0  0  0  0  0
  180.4620  178.2430  141.6920 C   0  0  0  0  0  1  0  0  0  0  0  0
  181.7020  179.4940  140.1580 C   0  0  0  0  0  2  0  0  0  0  0  0
  181.7200  177.2490  138.3490 C   0  0  2  0  0  3  0  0  0  0  0  0
  182.6240  178.4590  138.0540 C   0  0  2  0  0  3  0  0  0  0  0  0
  181.3840  177.1630  139.8380 C   0  0  0  0  0  2  0  0  0  0  0  0
  1 11  1  0  0  0  0
  1  8  1  0  0  0  0
  2  3  1  1  0  0  0
  2  7  1  0  0  0  0
  3  9  1  0  0  0  0
  5  4  2  0  0  0  0
  6 13  1  0  0  0  0
  6  9  2  0  0  0  0
  7 17  1  0  0  0  0
  7 19  2  0  0  0  0
 10 14  2  0  0  0  0
 12 21  1  0  0  0  0
 12 22  1  0  0  0  0
 14 19  1  0  0  0  0
 15 21  1  6  0  0  0
 15  2  1  0  0  0  0
 15 10  1  0  0  0  0
 16 10  1  0  0  0  0
 16  5  1  0  0  0  0
 17  1  2  0  0  0  0
 18  6  1  0  0  0  0
 19 20  1  0  0  0  0
 20  8  2  0  0  0  0
 22  3  2  0  0  0  0
 23 18  2  0  0  0  0
 23 22  1  0  0  0  0
 24 27  1  0  0  0  0
 25 28  1  0  0  0  0
 28 24  1  0  0  0  0
 29 26  1  1  0  0  0
 29 31  1  0  0  0  0
 30 29  1  0  0  0  0
 30  5  1  1  0  0  0
 30 25  1  0  0  0  0
 31 24  1  0  0  0  0
M  END
>  <MODEL>
7

>  <REMARK>
 VINA RESULT:      -6.3      3.928      8.173
  Name = 
  1 active torsions:
  status: ('A' for Active; 'I' for Inactive)
    1  A    between atoms: C_5  and  C_30
                            x       y       z     vdW  Elec       q    Type
                         _______ _______ _______ _____ _____    ______ ____

>  <TORSDO>
F 1

$$$$
=
 OpenBabel11122411053D

 31 35  0  0  1  0  0  0  0  0999 V2000
  188.8850  177.6150  137.8670 C   0  0  0  0  0  0  0  0  0  0  0  0
  185.5300  176.6550  136.3460 C   0  0  2  0  0  3  0  0  0  0  0  0
  185.2620  175.1940  136.6720 C   0  0  0  0  0  0  0  0  0  0  0  0
  182.6890  178.6770  140.3750 O   0  0  0  0  0  0  0  0  0  0  0  0
  181.9290  178.4740  139.3920 C   0  0  0  0  0  0  0  0  0  0  0  0
  186.0640  172.9830  137.2900 C   0  0  0  0  0  0  0  0  0  0  0  0
  186.5680  177.2580  137.2550 C   0  0  0  0  0  0  0  0  0  0  0  0
  188.4780  178.2530  139.0430 C   0  0  0  0  0  3  0  0  0  0  0  0
  186.3130  174.3290  137.0120 C   0  0  0  0  0  3  0  0  0  0  0  0
  183.8450  177.8780  137.8040 C   0  0  0  0  0  0  0  0  0  0  0  0
  190.2050  177.4730  137.5950 F   0  0  0  0  0  0  0  0  0  0  0  0
  182.8920  175.4960  136.1800 O   0  0  0  0  0  0  0  0  0  0  0  0
  187.0850  172.1610  137.6300 F   0  0  0  0  0  0  0  0  0  0  0  0
  184.7650  178.1000  138.7000 N   0  0  0  0  0  0  0  0  0  0  0  0
  184.2380  177.5060  136.3860 C   0  0  2  0  0  3  0  0  0  0  0  0
  182.4620  178.0980  138.1150 N   0  0  0  0  0  2  0  0  0  0  0  0
  187.9320  177.1120  136.9750 C   0  0  0  0  0  3  0  0  0  0  0  0
  184.7610  172.4850  137.2180 C   0  0  0  0  0  3  0  0  0  0  0  0
  186.1610  177.9130  138.4300 C   0  0  0  0  0  0  0  0  0  0  0  0
  187.1170  178.4020  139.3240 C   0  0  0  0  0  3  0  0  0  0  0  0
  183.1130  176.7950  135.6350 C   0  0  0  0  0  2  0  0  0  0  0  0
  183.9540  174.6730  136.5640 C   0  0  0  0  0  0  0  0  0  0  0  0
  183.7090  173.3280  136.8540 C   0  0  0  0  0  3  0  0  0  0  0  0
  179.5830  178.6730  142.3630 N   0  0  0  0  0  0  0  0  0  0  0  0
  180.0890  179.9060  140.3030 C   0  0  0  0  0  2  0  0  0  0  0  0
  180.2490  176.1940  139.7330 O   0  0  0  0  0  1  0  0  0  0  0  0
  179.8890  178.6280  143.7800 C   0  0  0  0  0  1  0  0  0  0  0  0
  180.3540  179.7830  141.8050 C   0  0  0  0  0  2  0  0  0  0  0  0
  179.8020  177.3960  140.2850 C   0  0  2  0  0  3  0  0  0  0  0  0
  180.4450  178.6040  139.5800 C   0  0  2  0  0  3  0  0  0  0  0  0
  180.0790  177.4250  141.7880 C   0  0  0  0  0  2  0  0  0  0  0  0
  1  8  1  0  0  0  0
  2 15  1  0  0  0  0
  2  3  1  1  0  0  0
  2  7  1  0  0  0  0
  3  9  1  0  0  0  0
  5  4  2  0  0  0  0
  6 13  1  0  0  0  0
  7 19  2  0  0  0  0
  8 20  2  0  0  0  0
  9  6  2  0  0  0  0
 10 16  1  0  0  0  0
 10 14  2  0  0  0  0
 11  1  1  0  0  0  0
 12 22  1  0  0  0  0
 15 21  1  1  0  0  0
 15 10  1  0  0  0  0
 16  5  1  0  0  0  0
 17  7  1  0  0  0  0
 17  1  2  0  0  0  0
 18  6  1  0  0  0  0
 19 14  1  0  0  0  0
 19 20  1  0  0  0  0
 21 12  1  0  0  0  0
 22  3  2  0  0  0  0
 22 23  1  0  0  0  0
 23 18  2  0  0  0  0
 24 27  1  0  0  0  0
 25 28  1  0  0  0  0
 28 24  1  0  0  0  0
 29 26  1  6  0  0  0
 29 31  1  0  0  0  0
 30  5  1  1  0  0  0
 30 29  1  0  0  0  0
 30 25  1  0  0  0  0
 31 24  1  0  0  0  0
M  END
>  <MODEL>
8

>  <REMARK>
 VINA RESULT:      -6.2      3.921      7.869
  Name = 
  1 active torsions:
  status: ('A' for Active; 'I' for Inactive)
    1  A    between atoms: C_5  and  C_30
                            x       y       z     vdW  Elec       q    Type
                         _______ _______ _______ _____ _____    ______ ____

>  <TORSDO>
F 1

$$$$
=
 OpenBabel11122411053D

 31 35  0  0  1  0  0  0  0  0999 V2000
  190.1030  177.4900  141.3150 C   0  0  0  0  0  0  0  0  0  0  0  0
  189.9540  175.5260  138.0570 C   0  0  2  0  0  3  0  0  0  0  0  0
  189.3630  176.4280  136.9860 C   0  0  0  0  0  0  0  0  0  0  0  0
  195.0580  176.4370  136.8260 O   0  0  0  0  0  0  0  0  0  0  0  0
  194.6200  175.4980  136.1100 C   0  0  0  0  0  0  0  0  0  0  0  0
  188.0290  178.3590  136.3450 C   0  0  0  0  0  0  0  0  0  0  0  0
  190.4780  176.3080  139.2330 C   0  0  0  0  0  0  0  0  0  0  0  0
  191.4410  177.8950  141.3270 C   0  0  0  0  0  3  0  0  0  0  0  0
  188.5880  177.5460  137.3340 C   0  0  0  0  0  3  0  0  0  0  0  0
  192.3920  175.3450  137.3610 C   0  0  0  0  0  0  0  0  0  0  0  0
  189.2710  177.8710  142.3140 F   0  0  0  0  0  0  0  0  0  0  0  0
  190.2510  174.9750  135.2400 O   0  0  0  0  0  0  0  0  0  0  0  0
  187.2950  179.4420  136.6950 F   0  0  0  0  0  0  0  0  0  0  0  0
  192.7180  176.2690  138.2200 N   0  0  0  0  0  0  0  0  0  0  0  0
  191.0700  174.6120  137.4960 C   0  0  2  0  0  3  0  0  0  0  0  0
  193.3260  174.9290  136.3540 N   0  0  0  0  0  2  0  0  0  0  0  0
  189.6190  176.7020  140.2660 C   0  0  0  0  0  3  0  0  0  0  0  0
  188.2290  178.0560  134.9970 C   0  0  0  0  0  3  0  0  0  0  0  0
  191.8260  176.7040  139.2550 C   0  0  0  0  0  0  0  0  0  0  0  0
  192.3020  177.5020  140.2980 C   0  0  0  0  0  3  0  0  0  0  0  0
  190.6190  173.9720  136.1830 C   0  0  0  0  0  2  0  0  0  0  0  0
  189.5270  176.1080  135.6210 C   0  0  0  0  0  0  0  0  0  0  0  0
  188.9750  176.9310  134.6360 C   0  0  0  0  0  3  0  0  0  0  0  0
  197.1370  172.7040  135.6290 N   0  0  0  0  0  0  0  0  0  0  0  0
  195.0830  173.5610  134.5940 C   0  0  0  0  0  2  0  0  0  0  0  0
  197.3060  176.3750  135.7220 O   0  0  0  0  0  1  0  0  0  0  0  0
  197.6200  171.7280  136.5870 C   0  0  0  0  0  1  0  0  0  0  0  0
  195.6820  172.5630  135.5870 C   0  0  0  0  0  2  0  0  0  0  0  0
  196.9740  175.1140  135.2220 C   0  0  2  0  0  3  0  0  0  0  0  0
  195.4600  174.9960  134.9720 C   0  0  2  0  0  3  0  0  0  0  0  0
  197.4610  174.0210  136.1730 C   0  0  0  0  0  2  0  0  0  0  0  0
  1  8  1  0  0  0  0
  1 11  1  0  0  0  0
  2  3  1  6  0  0  0
  2  7  1  0  0  0  0
  3  9  1  0  0  0  0
  5 16  1  0  0  0  0
  5  4  2  0  0  0  0
  6 13  1  0  0  0  0
  6  9  2  0  0  0  0
  7 19  2  0  0  0  0
  7 17  1  0  0  0  0
 10 15  1  0  0  0  0
 10 14  2  0  0  0  0
 12 22  1  0  0  0  0
 12 21  1  0  0  0  0
 14 19  1  0  0  0  0
 15 21  1  6  0  0  0
 15  2  1  0  0  0  0
 16 10  1  0  0  0  0
 17  1  2  0  0  0  0
 18  6  1  0  0  0  0
 19 20  1  0  0  0  0
 20  8  2  0  0  0  0
 22  3  2  0  0  0  0
 23 18  2  0  0  0  0
 23 22  1  0  0  0  0
 24 31  1  0  0  0  0
 24 27  1  0  0  0  0
 25 30  1  0  0  0  0
 25 28  1  0  0  0  0
 28 24  1  0  0  0  0
 29 26  1  1  0  0  0
 29 31  1  0  0  0  0
 30 29  1  0  0  0  0
 30  5  1  1  0  0  0
M  END
>  <MODEL>
9

>  <REMARK>
 VINA RESULT:      -5.9      6.660      8.937
  Name = 
  1 active torsions:
  status: ('A' for Active; 'I' for Inactive)
    1  A    between atoms: C_5  and  C_30
                            x       y       z     vdW  Elec       q    Type
                         _______ _______ _______ _____ _____    ______ ____

>  <TORSDO>
F 1

$$$$
