=
 OpenBabel11122411543D

 28 32  0  0  1  0  0  0  0  0999 V2000
  184.3950  177.6590  138.2610 C   0  0  0  0  0  0  0  0  0  0  0  0
  182.0810  179.6900  138.9170 O   0  0  0  0  0  0  0  0  0  0  0  0
  185.3080  177.8920  144.1990 O   0  0  0  0  0  0  0  0  0  0  0  0
  183.3060  175.2070  137.4360 C   0  0  0  0  0  3  0  0  0  0  0  0
  183.3280  178.8660  143.3960 N   0  0  0  0  0  0  0  0  0  0  0  0
  185.0860  178.9260  138.6460 C   0  0  0  0  0  2  0  0  0  0  0  0
  180.5420  177.9390  138.1570 O   0  0  0  0  0  0  0  0  0  0  0  0
  181.0090  178.7290  139.3470 S   0  0  0  0  0  0  0  0  0  0  0  0
  180.0420  180.1040  141.3820 C   0  0  1  0  0  3  0  0  0  0  0  0
  181.5880  177.6300  140.5920 N   0  0  2  0  0  0  0  0  0  0  0  0
  188.0240  177.9620  140.5880 O   0  0  0  0  0  0  0  0  0  0  0  0
  183.7310  178.5810  141.0820 N   0  0  1  0  0  0  0  0  0  0  0  0
  180.2460  178.9260  142.2160 N   0  0  0  0  0  2  0  0  0  0  0  0
  179.6550  179.6670  139.9900 C   0  0  0  0  0  2  0  0  0  0  0  0
  186.9060  178.4910  140.3570 C   0  0  0  0  0  0  0  0  0  0  0  0
  183.5130  176.9550  139.1220 C   0  0  0  0  0  0  0  0  0  0  0  0
  184.5780  178.2520  143.2380 C   0  0  0  0  0  0  0  0  0  0  0  0
  178.9320  180.9500  141.9680 C   0  0  0  0  0  1  0  0  0  0  0  0
  186.0970  179.0030  141.5030 C   0  0  0  0  0  2  0  0  0  0  0  0
  182.9870  175.7280  138.6900 C   0  0  0  0  0  3  0  0  0  0  0  0
  184.7060  177.1240  137.0030 C   0  0  0  0  0  3  0  0  0  0  0  0
  184.1630  175.9080  136.5900 C   0  0  0  0  0  3  0  0  0  0  0  0
  186.4630  178.6280  139.0070 N   0  0  0  0  0  2  0  0  0  0  0  0
  182.7660  179.0980  142.0830 C   0  0  1  0  0  3  0  0  0  0  0  0
  184.9170  178.0940  141.8140 C   0  0  2  0  0  3  0  0  0  0  0  0
  181.5180  178.2530  141.9120 C   0  0  2  0  0  3  0  0  0  0  0  0
  182.7720  179.3460  144.6500 C   0  0  0  0  0  1  0  0  0  0  0  0
  183.0400  177.4310  140.4850 C   0  0  2  0  0  3  0  0  0  0  0  0
  1  6  1  0  0  0  0
  1 16  1  0  0  0  0
  2  8  2  0  0  0  0
  4 20  1  0  0  0  0
  5 27  1  0  0  0  0
  6 23  1  0  0  0  0
  7  8  2  0  0  0  0
  8 14  1  0  0  0  0
  9 18  1  1  0  0  0
  9 13  1  0  0  0  0
 10  8  1  6  0  0  0
 10 26  1  0  0  0  0
 12 25  1  0  0  0  0
 12 24  1  0  0  0  0
 14  9  1  0  0  0  0
 15 11  2  0  0  0  0
 15 19  1  0  0  0  0
 16 28  1  0  0  0  0
 17  5  1  0  0  0  0
 17  3  2  0  0  0  0
 19 25  1  0  0  0  0
 20 16  2  0  0  0  0
 21  1  2  0  0  0  0
 22 21  1  0  0  0  0
 22  4  2  0  0  0  0
 23 15  1  0  0  0  0
 24  5  1  0  0  0  0
 25 17  1  0  0  0  0
 26 24  1  0  0  0  0
 26 13  1  0  0  0  0
 28 10  1  0  0  0  0
 28 12  1  0  0  0  0
M  END
>  <MODEL>
1

>  <REMARK>
 VINA RESULT:      -6.3      0.000      0.000
  Name = 
  0 active torsions:
  status: ('A' for Active; 'I' for Inactive)
                            x       y       z     vdW  Elec       q    Type
                         _______ _______ _______ _____ _____    ______ ____

>  <TORSDO>
F 0

$$$$
=
 OpenBabel11122411543D

 28 32  0  0  1  0  0  0  0  0999 V2000
  180.5780  179.4680  141.2450 C   0  0  0  0  0  0  0  0  0  0  0  0
  180.2640  176.9840  139.3370 O   0  0  0  0  0  0  0  0  0  0  0  0
  186.3820  178.9680  139.7540 O   0  0  0  0  0  0  0  0  0  0  0  0
  179.3620  181.7190  140.0900 C   0  0  0  0  0  3  0  0  0  0  0  0
  184.8570  177.6940  138.5040 N   0  0  0  0  0  0  0  0  0  0  0  0
  181.2210  178.3330  141.9720 C   0  0  0  0  0  2  0  0  0  0  0  0
  178.9310  178.4570  137.8990 O   0  0  0  0  0  0  0  0  0  0  0  0
  180.2150  177.6850  138.0080 S   0  0  0  0  0  0  0  0  0  0  0  0
  181.6990  175.9990  136.6210 C   0  0  1  0  0  3  0  0  0  0  0  0
  181.5780  178.7780  137.8040 N   0  0  2  0  0  0  0  0  0  0  0  0
  184.1750  179.6980  143.6300 O   0  0  0  0  0  0  0  0  0  0  0  0
  182.9000  178.2240  139.7230 N   0  0  1  0  0  0  0  0  0  0  0  0
  182.5340  177.1280  136.2280 N   0  0  0  0  0  2  0  0  0  0  0  0
  180.2650  176.4570  136.7370 C   0  0  0  0  0  2  0  0  0  0  0  0
  183.5180  178.9820  142.8320 C   0  0  0  0  0  0  0  0  0  0  0  0
  181.0040  179.9220  139.9690 C   0  0  0  0  0  0  0  0  0  0  0  0
  185.2110  178.5470  139.5570 C   0  0  0  0  0  0  0  0  0  0  0  0
  181.7950  174.9130  135.5710 C   0  0  0  0  0  1  0  0  0  0  0  0
  184.2440  178.2380  141.7590 C   0  0  0  0  0  2  0  0  0  0  0  0
  180.3850  181.0520  139.4150 C   0  0  0  0  0  3  0  0  0  0  0  0
  179.5490  180.1460  141.9110 C   0  0  0  0  0  3  0  0  0  0  0  0
  178.9400  181.2620  141.3370 C   0  0  0  0  0  3  0  0  0  0  0  0
  182.1050  178.8630  142.9990 N   0  0  0  0  0  2  0  0  0  0  0  0
  183.4310  177.4570  138.5710 C   0  0  1  0  0  3  0  0  0  0  0  0
  184.0440  178.8760  140.3930 C   0  0  2  0  0  3  0  0  0  0  0  0
  182.7630  178.0560  137.3470 C   0  0  2  0  0  3  0  0  0  0  0  0
  185.7840  177.0210  137.6090 C   0  0  0  0  0  1  0  0  0  0  0  0
  182.0650  179.2610  139.1040 C   0  0  2  0  0  3  0  0  0  0  0  0
  1 21  1  0  0  0  0
  1  6  1  0  0  0  0
  4 22  1  0  0  0  0
  5 24  1  0  0  0  0
  5 17  1  0  0  0  0
  6 23  1  0  0  0  0
  7  8  2  0  0  0  0
  8  2  2  0  0  0  0
  9 18  1  6  0  0  0
  9 14  1  0  0  0  0
 10  8  1  1  0  0  0
 10 28  1  0  0  0  0
 12 25  1  0  0  0  0
 13  9  1  0  0  0  0
 13 26  1  0  0  0  0
 14  8  1  0  0  0  0
 15 23  1  0  0  0  0
 15 11  2  0  0  0  0
 16  1  2  0  0  0  0
 17  3  2  0  0  0  0
 17 25  1  0  0  0  0
 19 15  1  0  0  0  0
 20 16  1  0  0  0  0
 20  4  2  0  0  0  0
 22 21  2  0  0  0  0
 24 12  1  0  0  0  0
 25 19  1  0  0  0  0
 26 10  1  0  0  0  0
 26 24  1  0  0  0  0
 27  5  1  0  0  0  0
 28 12  1  0  0  0  0
 28 16  1  0  0  0  0
M  END
>  <MODEL>
2

>  <REMARK>
 VINA RESULT:      -5.7      1.935      5.310
  Name = 
  0 active torsions:
  status: ('A' for Active; 'I' for Inactive)
                            x       y       z     vdW  Elec       q    Type
                         _______ _______ _______ _____ _____    ______ ____

>  <TORSDO>
F 0

$$$$
=
 OpenBabel11122411543D

 28 32  0  0  1  0  0  0  0  0999 V2000
  182.5970  176.9510  137.1460 C   0  0  0  0  0  0  0  0  0  0  0  0
  184.0840  174.1920  137.4430 O   0  0  0  0  0  0  0  0  0  0  0  0
  188.1880  179.1590  137.2580 O   0  0  0  0  0  0  0  0  0  0  0  0
  181.4210  177.1320  134.6040 C   0  0  0  0  0  3  0  0  0  0  0  0
  187.9760  176.8330  137.0210 N   0  0  0  0  0  0  0  0  0  0  0  0
  183.1440  176.9500  138.5360 C   0  0  0  0  0  2  0  0  0  0  0  0
  183.2080  173.6590  135.2160 O   0  0  0  0  0  0  0  0  0  0  0  0
  184.4530  173.9430  136.0070 S   0  0  0  0  0  0  0  0  0  0  0  0
  186.8840  172.9860  136.3870 C   0  0  1  0  0  3  0  0  0  0  0  0
  185.2940  175.3200  135.3080 N   0  0  2  0  0  0  0  0  0  0  0  0
  184.2890  180.3520  139.2060 O   0  0  0  0  0  0  0  0  0  0  0  0
  185.6260  176.6870  137.2460 N   0  0  1  0  0  0  0  0  0  0  0  0
  187.3760  173.9910  135.4520 N   0  0  0  0  0  2  0  0  0  0  0  0
  185.5130  172.5290  135.9500 C   0  0  0  0  0  2  0  0  0  0  0  0
  184.3780  179.1090  139.0340 C   0  0  0  0  0  0  0  0  0  0  0  0
  183.4070  176.8370  135.9860 C   0  0  0  0  0  0  0  0  0  0  0  0
  187.4730  178.1220  137.2380 C   0  0  0  0  0  0  0  0  0  0  0  0
  187.8270  171.8030  136.3970 C   0  0  0  0  0  1  0  0  0  0  0  0
  185.7300  178.4940  138.8830 C   0  0  0  0  0  2  0  0  0  0  0  0
  182.7960  176.9370  134.7270 C   0  0  0  0  0  3  0  0  0  0  0  0
  181.2160  177.1450  137.0080 C   0  0  0  0  0  3  0  0  0  0  0  0
  180.6290  177.2310  135.7470 C   0  0  0  0  0  3  0  0  0  0  0  0
  183.1900  178.3170  139.0310 N   0  0  0  0  0  2  0  0  0  0  0  0
  186.8660  175.9050  137.0270 C   0  0  1  0  0  3  0  0  0  0  0  0
  186.0150  178.0980  137.4410 C   0  0  2  0  0  3  0  0  0  0  0  0
  186.7150  175.2910  135.6470 C   0  0  2  0  0  3  0  0  0  0  0  0
  189.3820  176.4670  136.9770 C   0  0  0  0  0  1  0  0  0  0  0  0
  184.9030  176.5700  135.9740 C   0  0  2  0  0  3  0  0  0  0  0  0
  1  6  1  0  0  0  0
  4 20  2  0  0  0  0
  4 22  1  0  0  0  0
  5 24  1  0  0  0  0
  5 17  1  0  0  0  0
  6 23  1  0  0  0  0
  7  8  2  0  0  0  0
  8  2  2  0  0  0  0
  9 18  1  6  0  0  0
 10 26  1  0  0  0  0
 10 28  1  0  0  0  0
 10  8  1  1  0  0  0
 12 25  1  0  0  0  0
 13 26  1  0  0  0  0
 13  9  1  0  0  0  0
 14  8  1  0  0  0  0
 14  9  1  0  0  0  0
 15 11  2  0  0  0  0
 16  1  2  0  0  0  0
 17  3  2  0  0  0  0
 17 25  1  0  0  0  0
 19 15  1  0  0  0  0
 20 16  1  0  0  0  0
 21  1  1  0  0  0  0
 22 21  2  0  0  0  0
 23 15  1  0  0  0  0
 24 12  1  0  0  0  0
 25 19  1  0  0  0  0
 26 24  1  0  0  0  0
 27  5  1  0  0  0  0
 28 16  1  0  0  0  0
 28 12  1  0  0  0  0
M  END
>  <MODEL>
3

>  <REMARK>
 VINA RESULT:      -5.6      3.650      6.831
  Name = 
  0 active torsions:
  status: ('A' for Active; 'I' for Inactive)
                            x       y       z     vdW  Elec       q    Type
                         _______ _______ _______ _____ _____    ______ ____

>  <TORSDO>
F 0

$$$$
=
 OpenBabel11122411543D

 28 32  0  0  1  0  0  0  0  0999 V2000
  182.9170  178.8100  138.5340 C   0  0  0  0  0  0  0  0  0  0  0  0
  181.7260  175.9800  139.2280 O   0  0  0  0  0  0  0  0  0  0  0  0
  186.1960  175.6670  134.5940 O   0  0  0  0  0  0  0  0  0  0  0  0
  180.9600  180.3890  137.2860 C   0  0  0  0  0  3  0  0  0  0  0  0
  184.4110  174.5380  135.6200 N   0  0  0  0  0  0  0  0  0  0  0  0
  184.0230  178.0790  139.2220 C   0  0  0  0  0  2  0  0  0  0  0  0
  179.5950  176.8420  138.3730 O   0  0  0  0  0  0  0  0  0  0  0  0
  180.7030  175.8550  138.1330 S   0  0  0  0  0  0  0  0  0  0  0  0
  181.0670  173.3090  137.5430 C   0  0  1  0  0  3  0  0  0  0  0  0
  181.4140  176.1420  136.5500 N   0  0  2  0  0  0  0  0  0  0  0  0
  187.1090  179.0030  137.5020 O   0  0  0  0  0  0  0  0  0  0  0  0
  183.7410  176.2540  137.1050 N   0  0  1  0  0  0  0  0  0  0  0  0
  181.2620  173.7050  136.1540 N   0  0  0  0  0  2  0  0  0  0  0  0
  180.0430  174.2160  138.1810 C   0  0  0  0  0  2  0  0  0  0  0  0
  186.1870  178.2510  137.9100 C   0  0  0  0  0  0  0  0  0  0  0  0
  182.3070  178.3580  137.3340 C   0  0  0  0  0  0  0  0  0  0  0  0
  185.2670  175.6340  135.4440 C   0  0  0  0  0  0  0  0  0  0  0  0
  180.5710  171.8800  137.5940 C   0  0  0  0  0  1  0  0  0  0  0  0
  186.0890  176.8640  137.3650 C   0  0  0  0  0  2  0  0  0  0  0  0
  181.3360  179.1680  136.7260 C   0  0  0  0  0  3  0  0  0  0  0  0
  182.5290  180.0380  139.0860 C   0  0  0  0  0  3  0  0  0  0  0  0
  181.5540  180.8220  138.4700 C   0  0  0  0  0  3  0  0  0  0  0  0
  185.2880  178.7270  138.9130 N   0  0  0  0  0  2  0  0  0  0  0  0
  183.4500  174.8740  136.6500 C   0  0  1  0  0  3  0  0  0  0  0  0
  184.9380  176.7230  136.3800 C   0  0  2  0  0  3  0  0  0  0  0  0
  182.0610  174.9350  136.0420 C   0  0  2  0  0  3  0  0  0  0  0  0
  184.5690  173.2310  135.0060 C   0  0  0  0  0  1  0  0  0  0  0  0
  182.5810  177.0300  136.6490 C   0  0  2  0  0  3  0  0  0  0  0  0
  1 21  1  0  0  0  0
  1  6  1  0  0  0  0
  3 17  2  0  0  0  0
  4 22  1  0  0  0  0
  5 24  1  0  0  0  0
  8 14  1  0  0  0  0
  8  7  2  0  0  0  0
  8  2  2  0  0  0  0
  9 18  1  6  0  0  0
  9 14  1  0  0  0  0
 10 28  1  0  0  0  0
 10  8  1  1  0  0  0
 11 15  2  0  0  0  0
 13  9  1  0  0  0  0
 15 23  1  0  0  0  0
 16  1  2  0  0  0  0
 17  5  1  0  0  0  0
 17 25  1  0  0  0  0
 19 15  1  0  0  0  0
 20  4  2  0  0  0  0
 20 16  1  0  0  0  0
 22 21  2  0  0  0  0
 23  6  1  0  0  0  0
 24 12  1  0  0  0  0
 25 12  1  0  0  0  0
 25 19  1  0  0  0  0
 26 13  1  0  0  0  0
 26 10  1  0  0  0  0
 26 24  1  0  0  0  0
 27  5  1  0  0  0  0
 28 12  1  0  0  0  0
 28 16  1  0  0  0  0
M  END
>  <MODEL>
4

>  <REMARK>
 VINA RESULT:      -5.4      3.344      5.995
  Name = 
  0 active torsions:
  status: ('A' for Active; 'I' for Inactive)
                            x       y       z     vdW  Elec       q    Type
                         _______ _______ _______ _____ _____    ______ ____

>  <TORSDO>
F 0

$$$$
=
 OpenBabel11122411543D

 28 32  0  0  1  0  0  0  0  0999 V2000
  190.3360  174.0540  136.1720 C   0  0  0  0  0  0  0  0  0  0  0  0
  190.3260  175.2970  139.0640 O   0  0  0  0  0  0  0  0  0  0  0  0
  184.9590  176.7180  135.7890 O   0  0  0  0  0  0  0  0  0  0  0  0
  192.2790  175.3230  134.5950 C   0  0  0  0  0  3  0  0  0  0  0  0
  186.2970  177.2980  137.6300 N   0  0  0  0  0  0  0  0  0  0  0  0
  189.3020  173.2820  136.9250 C   0  0  0  0  0  2  0  0  0  0  0  0
  192.2280  176.6530  138.3170 O   0  0  0  0  0  0  0  0  0  0  0  0
  190.7880  176.6920  138.7470 S   0  0  0  0  0  0  0  0  0  0  0  0
  189.1860  178.0170  140.3720 C   0  0  1  0  0  3  0  0  0  0  0  0
  189.8150  177.4210  137.4770 N   0  0  2  0  0  0  0  0  0  0  0  0
  186.5600  172.6650  134.5940 O   0  0  0  0  0  0  0  0  0  0  0  0
  188.0770  175.7900  137.2370 N   0  0  1  0  0  0  0  0  0  0  0  0
  188.7560  178.8110  139.2280 N   0  0  0  0  0  2  0  0  0  0  0  0
  190.6460  177.6660  140.2150 C   0  0  0  0  0  2  0  0  0  0  0  0
  187.1390  173.1270  135.6100 C   0  0  0  0  0  0  0  0  0  0  0  0
  190.2750  175.4580  135.9740 C   0  0  0  0  0  0  0  0  0  0  0  0
  185.9960  176.5490  136.4840 C   0  0  0  0  0  0  0  0  0  0  0  0
  188.9980  178.8190  141.6410 C   0  0  0  0  0  1  0  0  0  0  0  0
  186.4450  174.1670  136.4280 C   0  0  0  0  0  2  0  0  0  0  0  0
  191.2540  176.0680  135.1770 C   0  0  0  0  0  3  0  0  0  0  0  0
  191.3720  173.3170  135.5830 C   0  0  0  0  0  3  0  0  0  0  0  0
  192.3420  173.9460  134.8020 C   0  0  0  0  0  3  0  0  0  0  0  0
  188.4200  172.6160  135.9790 N   0  0  0  0  0  2  0  0  0  0  0  0
  187.5770  176.8560  138.1390 C   0  0  1  0  0  3  0  0  0  0  0  0
  187.0430  175.5490  136.2110 C   0  0  2  0  0  3  0  0  0  0  0  0
  188.5830  177.9860  138.0220 C   0  0  2  0  0  3  0  0  0  0  0  0
  185.4000  178.2290  138.2930 C   0  0  0  0  0  1  0  0  0  0  0  0
  189.2490  176.3940  136.5900 C   0  0  2  0  0  3  0  0  0  0  0  0
  1  6  1  0  0  0  0
  3 17  2  0  0  0  0
  4 22  2  0  0  0  0
  4 20  1  0  0  0  0
  5 24  1  0  0  0  0
  5 27  1  0  0  0  0
  7  8  2  0  0  0  0
  8  2  2  0  0  0  0
  8 14  1  0  0  0  0
  9 18  1  1  0  0  0
 10 26  1  0  0  0  0
 10  8  1  1  0  0  0
 11 15  2  0  0  0  0
 12 24  1  0  0  0  0
 13  9  1  0  0  0  0
 14  9  1  0  0  0  0
 15 23  1  0  0  0  0
 15 19  1  0  0  0  0
 16  1  1  0  0  0  0
 16 28  1  0  0  0  0
 17  5  1  0  0  0  0
 20 16  2  0  0  0  0
 21  1  2  0  0  0  0
 22 21  1  0  0  0  0
 23  6  1  0  0  0  0
 25 19  1  0  0  0  0
 25 17  1  0  0  0  0
 25 12  1  0  0  0  0
 26 24  1  0  0  0  0
 26 13  1  0  0  0  0
 28 12  1  0  0  0  0
 28 10  1  0  0  0  0
M  END
>  <MODEL>
5

>  <REMARK>
 VINA RESULT:      -5.4      5.269      8.347
  Name = 
  0 active torsions:
  status: ('A' for Active; 'I' for Inactive)
                            x       y       z     vdW  Elec       q    Type
                         _______ _______ _______ _____ _____    ______ ____

>  <TORSDO>
F 0

$$$$
=
 OpenBabel11122411543D

 28 32  0  0  1  0  0  0  0  0999 V2000
  182.1340  178.4690  140.4140 C   0  0  0  0  0  0  0  0  0  0  0  0
  181.9670  175.7190  138.8920 O   0  0  0  0  0  0  0  0  0  0  0  0
  187.3090  179.0030  137.4000 O   0  0  0  0  0  0  0  0  0  0  0  0
  180.1500  180.2100  139.4610 C   0  0  0  0  0  3  0  0  0  0  0  0
  185.8790  177.2610  136.7420 N   0  0  0  0  0  0  0  0  0  0  0  0
  183.1990  177.6190  141.0260 C   0  0  0  0  0  2  0  0  0  0  0  0
  179.9940  176.6420  137.7660 O   0  0  0  0  0  0  0  0  0  0  0  0
  181.4130  176.1870  137.5750 S   0  0  0  0  0  0  0  0  0  0  0  0
  182.8640  174.6690  135.9760 C   0  0  1  0  0  3  0  0  0  0  0  0
  182.3670  177.5020  136.9040 N   0  0  2  0  0  0  0  0  0  0  0  0
  186.0470  179.8150  141.6620 O   0  0  0  0  0  0  0  0  0  0  0  0
  184.2270  177.5370  138.4130 N   0  0  1  0  0  0  0  0  0  0  0  0
  183.2680  175.8790  135.2700 N   0  0  0  0  0  2  0  0  0  0  0  0
  181.4400  174.8220  136.4510 C   0  0  0  0  0  2  0  0  0  0  0  0
  185.4060  178.8640  141.1460 C   0  0  0  0  0  0  0  0  0  0  0  0
  182.0980  178.8070  139.0360 C   0  0  0  0  0  0  0  0  0  0  0  0
  186.2670  178.3170  137.5770 C   0  0  0  0  0  0  0  0  0  0  0  0
  182.9560  173.4850  135.0390 C   0  0  0  0  0  1  0  0  0  0  0  0
  185.9960  178.1410  139.9800 C   0  0  0  0  0  2  0  0  0  0  0  0
  181.1000  179.6840  138.5850 C   0  0  0  0  0  3  0  0  0  0  0  0
  181.1730  179.0030  141.2830 C   0  0  0  0  0  3  0  0  0  0  0  0
  180.1830  179.8650  140.8100 C   0  0  0  0  0  3  0  0  0  0  0  0
  184.1550  178.4730  141.7140 N   0  0  0  0  0  2  0  0  0  0  0  0
  184.6200  176.7370  137.2280 C   0  0  1  0  0  3  0  0  0  0  0  0
  185.3060  178.5100  138.6760 C   0  0  2  0  0  3  0  0  0  0  0  0
  183.5370  176.9900  136.1950 C   0  0  2  0  0  3  0  0  0  0  0  0
  186.6840  176.6760  135.6840 C   0  0  0  0  0  1  0  0  0  0  0  0
  183.0330  178.2670  137.9680 C   0  0  2  0  0  3  0  0  0  0  0  0
  1  6  1  0  0  0  0
  1 21  1  0  0  0  0
  3 17  2  0  0  0  0
  4 22  1  0  0  0  0
  5 24  1  0  0  0  0
  5 17  1  0  0  0  0
  6 23  1  0  0  0  0
  8  7  2  0  0  0  0
  8  2  2  0  0  0  0
  9 18  1  6  0  0  0
  9 14  1  0  0  0  0
 10  8  1  1  0  0  0
 10 28  1  0  0  0  0
 12 25  1  0  0  0  0
 13  9  1  0  0  0  0
 13 26  1  0  0  0  0
 14  8  1  0  0  0  0
 15 11  2  0  0  0  0
 15 23  1  0  0  0  0
 16  1  2  0  0  0  0
 17 25  1  0  0  0  0
 19 15  1  0  0  0  0
 20 16  1  0  0  0  0
 20  4  2  0  0  0  0
 22 21  2  0  0  0  0
 24 12  1  0  0  0  0
 25 19  1  0  0  0  0
 26 10  1  0  0  0  0
 26 24  1  0  0  0  0
 27  5  1  0  0  0  0
 28 12  1  0  0  0  0
 28 16  1  0  0  0  0
M  END
>  <MODEL>
6

>  <REMARK>
 VINA RESULT:      -5.3      2.272      5.573
  Name = 
  0 active torsions:
  status: ('A' for Active; 'I' for Inactive)
                            x       y       z     vdW  Elec       q    Type
                         _______ _______ _______ _____ _____    ______ ____

>  <TORSDO>
F 0

$$$$
=
 OpenBabel11122411543D

 28 32  0  0  1  0  0  0  0  0999 V2000
  189.4000  177.4090  137.2140 C   0  0  0  0  0  0  0  0  0  0  0  0
  192.2060  176.6820  135.9880 O   0  0  0  0  0  0  0  0  0  0  0  0
  187.9020  171.9520  135.1810 O   0  0  0  0  0  0  0  0  0  0  0  0
  189.5760  177.5020  140.0130 C   0  0  0  0  0  3  0  0  0  0  0  0
  190.1870  172.4920  135.1730 N   0  0  0  0  0  0  0  0  0  0  0  0
  189.1960  177.4270  135.7340 C   0  0  0  0  0  2  0  0  0  0  0  0
  193.0530  176.7520  138.2880 O   0  0  0  0  0  0  0  0  0  0  0  0
  192.7730  175.8600  137.1120 S   0  0  0  0  0  0  0  0  0  0  0  0
  193.9230  173.9690  135.6740 C   0  0  1  0  0  3  0  0  0  0  0  0
  191.6700  174.5790  137.5950 N   0  0  2  0  0  0  0  0  0  0  0  0
  185.8920  175.9980  135.1200 O   0  0  0  0  0  0  0  0  0  0  0  0
  190.0020  174.7410  135.8840 N   0  0  1  0  0  0  0  0  0  0  0  0
  193.1860  172.9870  136.4610 N   0  0  0  0  0  2  0  0  0  0  0  0
  194.2880  175.1390  136.5560 C   0  0  0  0  0  2  0  0  0  0  0  0
  187.1450  176.0860  135.0770 C   0  0  0  0  0  0  0  0  0  0  0  0
  189.8340  176.2630  137.9300 C   0  0  0  0  0  0  0  0  0  0  0  0
  188.8290  172.7890  135.3460 C   0  0  0  0  0  0  0  0  0  0  0  0
  195.1870  173.3350  135.1340 C   0  0  0  0  0  1  0  0  0  0  0  0
  187.9370  174.9150  134.5950 C   0  0  0  0  0  2  0  0  0  0  0  0
  189.9080  176.3330  139.3290 C   0  0  0  0  0  3  0  0  0  0  0  0
  189.0710  178.5780  137.9130 C   0  0  0  0  0  3  0  0  0  0  0  0
  189.1620  178.6280  139.3040 C   0  0  0  0  0  3  0  0  0  0  0  0
  187.7740  177.3140  135.4460 N   0  0  0  0  0  2  0  0  0  0  0  0
  190.9560  173.6780  135.4860 C   0  0  1  0  0  3  0  0  0  0  0  0
  188.6370  174.1960  135.7380 C   0  0  2  0  0  3  0  0  0  0  0  0
  191.8030  173.4170  136.7180 C   0  0  2  0  0  3  0  0  0  0  0  0
  190.7210  171.2650  134.6060 C   0  0  0  0  0  1  0  0  0  0  0  0
  190.2760  174.9480  137.3110 C   0  0  2  0  0  3  0  0  0  0  0  0
  1 21  2  0  0  0  0
  1 16  1  0  0  0  0
  2  8  2  0  0  0  0
  3 17  2  0  0  0  0
  5 17  1  0  0  0  0
  5 24  1  0  0  0  0
  6  1  1  0  0  0  0
  8  7  2  0  0  0  0
  9 18  1  1  0  0  0
  9 13  1  0  0  0  0
  9 14  1  0  0  0  0
 10  8  1  6  0  0  0
 12 28  1  0  0  0  0
 13 26  1  0  0  0  0
 14  8  1  0  0  0  0
 15 11  2  0  0  0  0
 15 23  1  0  0  0  0
 16 20  2  0  0  0  0
 17 25  1  0  0  0  0
 19 15  1  0  0  0  0
 19 25  1  0  0  0  0
 20  4  1  0  0  0  0
 21 22  1  0  0  0  0
 22  4  2  0  0  0  0
 23  6  1  0  0  0  0
 24 12  1  0  0  0  0
 24 26  1  0  0  0  0
 25 12  1  0  0  0  0
 26 10  1  0  0  0  0
 27  5  1  0  0  0  0
 28 10  1  0  0  0  0
 28 16  1  0  0  0  0
M  END
>  <MODEL>
7

>  <REMARK>
 VINA RESULT:      -5.3      7.122     10.702
  Name = 
  0 active torsions:
  status: ('A' for Active; 'I' for Inactive)
                            x       y       z     vdW  Elec       q    Type
                         _______ _______ _______ _____ _____    ______ ____

>  <TORSDO>
F 0

$$$$
=
 OpenBabel11122411543D

 28 32  0  0  1  0  0  0  0  0999 V2000
  187.3040  174.6310  135.4550 C   0  0  0  0  0  0  0  0  0  0  0  0
  184.2840  174.8490  134.5950 O   0  0  0  0  0  0  0  0  0  0  0  0
  185.7820  179.0080  139.2860 O   0  0  0  0  0  0  0  0  0  0  0  0
  187.7540  172.1800  136.7470 C   0  0  0  0  0  3  0  0  0  0  0  0
  184.0240  177.9220  138.1710 N   0  0  0  0  0  0  0  0  0  0  0  0
  187.1930  175.9430  134.7510 C   0  0  0  0  0  2  0  0  0  0  0  0
  184.0380  172.5660  135.4550 O   0  0  0  0  0  0  0  0  0  0  0  0
  183.6500  174.0020  135.6630 S   0  0  0  0  0  0  0  0  0  0  0  0
  181.5180  175.4870  136.1270 C   0  0  1  0  0  3  0  0  0  0  0  0
  184.1420  174.5170  137.2710 N   0  0  2  0  0  0  0  0  0  0  0  0
  189.3210  178.2870  136.5710 O   0  0  0  0  0  0  0  0  0  0  0  0
  185.3270  176.5360  136.7650 N   0  0  1  0  0  0  0  0  0  0  0  0
  181.8830  175.4900  137.5390 N   0  0  0  0  0  2  0  0  0  0  0  0
  181.8950  174.1580  135.5190 C   0  0  0  0  0  2  0  0  0  0  0  0
  188.2560  177.8030  136.1080 C   0  0  0  0  0  0  0  0  0  0  0  0
  186.5600  174.3010  136.6190 C   0  0  0  0  0  0  0  0  0  0  0  0
  185.3770  178.1890  138.4190 C   0  0  0  0  0  0  0  0  0  0  0  0
  180.0240  175.6930  135.9940 C   0  0  0  0  0  1  0  0  0  0  0  0
  186.9480  178.3490  136.5790 C   0  0  0  0  0  2  0  0  0  0  0  0
  186.8070  173.0730  137.2500 C   0  0  0  0  0  3  0  0  0  0  0  0
  188.2500  173.7240  134.9600 C   0  0  0  0  0  3  0  0  0  0  0  0
  188.4720  172.5040  135.5980 C   0  0  0  0  0  3  0  0  0  0  0  0
  188.3260  176.7790  135.1160 N   0  0  0  0  0  2  0  0  0  0  0  0
  183.9420  176.9060  137.1430 C   0  0  1  0  0  3  0  0  0  0  0  0
  186.2470  177.3950  137.5350 C   0  0  2  0  0  3  0  0  0  0  0  0
  183.3340  175.6450  137.7280 C   0  0  2  0  0  3  0  0  0  0  0  0
  182.8990  178.6610  138.7200 C   0  0  0  0  0  1  0  0  0  0  0  0
  185.4660  175.1530  137.2400 C   0  0  2  0  0  3  0  0  0  0  0  0
  1 16  1  0  0  0  0
  2  8  2  0  0  0  0
  4 20  1  0  0  0  0
  5 17  1  0  0  0  0
  5 27  1  0  0  0  0
  6 23  1  0  0  0  0
  6  1  1  0  0  0  0
  7  8  2  0  0  0  0
  9 18  1  1  0  0  0
  9 13  1  0  0  0  0
 10  8  1  6  0  0  0
 10 26  1  0  0  0  0
 12 24  1  0  0  0  0
 12 28  1  0  0  0  0
 12 25  1  0  0  0  0
 13 26  1  0  0  0  0
 14  8  1  0  0  0  0
 14  9  1  0  0  0  0
 15 11  2  0  0  0  0
 15 19  1  0  0  0  0
 16 28  1  0  0  0  0
 16 20  2  0  0  0  0
 17  3  2  0  0  0  0
 19 25  1  0  0  0  0
 21  1  2  0  0  0  0
 21 22  1  0  0  0  0
 22  4  2  0  0  0  0
 23 15  1  0  0  0  0
 24 26  1  0  0  0  0
 24  5  1  0  0  0  0
 25 17  1  0  0  0  0
 28 10  1  0  0  0  0
M  END
>  <MODEL>
8

>  <REMARK>
 VINA RESULT:      -5.1      3.871      5.629
  Name = 
  0 active torsions:
  status: ('A' for Active; 'I' for Inactive)
                            x       y       z     vdW  Elec       q    Type
                         _______ _______ _______ _____ _____    ______ ____

>  <TORSDO>
F 0

$$$$
=
 OpenBabel11122411543D

 28 32  0  0  1  0  0  0  0  0999 V2000
  181.6560  178.0990  141.2800 C   0  0  0  0  0  0  0  0  0  0  0  0
  181.1970  175.1250  140.3540 O   0  0  0  0  0  0  0  0  0  0  0  0
  181.7900  179.1610  135.3630 O   0  0  0  0  0  0  0  0  0  0  0  0
  179.3300  179.0890  142.4970 C   0  0  0  0  0  3  0  0  0  0  0  0
  181.0530  177.0360  136.0380 N   0  0  0  0  0  0  0  0  0  0  0  0
  182.9590  177.6680  140.6890 C   0  0  0  0  0  2  0  0  0  0  0  0
  178.9890  175.3050  141.4050 O   0  0  0  0  0  0  0  0  0  0  0  0
  179.7160  175.1610  140.0980 S   0  0  0  0  0  0  0  0  0  0  0  0
  179.6630  173.7160  137.8900 C   0  0  1  0  0  3  0  0  0  0  0  0
  179.2770  176.4880  139.0320 N   0  0  2  0  0  0  0  0  0  0  0  0
  184.2790  180.5470  138.8710 O   0  0  0  0  0  0  0  0  0  0  0  0
  181.4380  177.2720  138.3600 N   0  0  1  0  0  0  0  0  0  0  0  0
  178.9410  174.8070  137.2480 N   0  0  0  0  0  2  0  0  0  0  0  0
  179.2520  173.6330  139.3410 C   0  0  0  0  0  2  0  0  0  0  0  0
  183.8250  179.3860  139.0350 C   0  0  0  0  0  0  0  0  0  0  0  0
  180.4360  178.1180  140.5550 C   0  0  0  0  0  0  0  0  0  0  0  0
  181.5980  178.3070  136.2690 C   0  0  0  0  0  0  0  0  0  0  0  0
  179.3260  172.4130  137.1990 C   0  0  0  0  0  1  0  0  0  0  0  0
  183.4250  178.5880  137.8380 C   0  0  0  0  0  2  0  0  0  0  0  0
  179.2880  178.6240  141.1830 C   0  0  0  0  0  3  0  0  0  0  0  0
  181.6830  178.5680  142.6000 C   0  0  0  0  0  3  0  0  0  0  0  0
  180.5280  179.0570  143.2080 C   0  0  0  0  0  3  0  0  0  0  0  0
  183.7440  178.8460  140.3550 N   0  0  0  0  0  2  0  0  0  0  0  0
  180.9440  176.3520  137.3080 C   0  0  1  0  0  3  0  0  0  0  0  0
  181.9130  178.5010  137.6940 C   0  0  2  0  0  3  0  0  0  0  0  0
  179.4790  176.1210  137.6320 C   0  0  2  0  0  3  0  0  0  0  0  0
  180.8090  176.4420  134.7350 C   0  0  0  0  0  1  0  0  0  0  0  0
  180.2380  177.5940  139.1420 C   0  0  2  0  0  3  0  0  0  0  0  0
  1 21  1  0  0  0  0
  3 17  2  0  0  0  0
  4 22  1  0  0  0  0
  5 17  1  0  0  0  0
  5 24  1  0  0  0  0
  6  1  1  0  0  0  0
  8  2  2  0  0  0  0
  8  7  2  0  0  0  0
  9 18  1  6  0  0  0
  9 14  1  0  0  0  0
 10 28  1  0  0  0  0
 10  8  1  1  0  0  0
 11 15  2  0  0  0  0
 12 28  1  0  0  0  0
 13 26  1  0  0  0  0
 13  9  1  0  0  0  0
 14  8  1  0  0  0  0
 15 23  1  0  0  0  0
 16 20  1  0  0  0  0
 16  1  2  0  0  0  0
 17 25  1  0  0  0  0
 19 15  1  0  0  0  0
 20  4  2  0  0  0  0
 21 22  2  0  0  0  0
 23  6  1  0  0  0  0
 24 26  1  0  0  0  0
 24 12  1  0  0  0  0
 25 19  1  0  0  0  0
 25 12  1  0  0  0  0
 26 10  1  0  0  0  0
 27  5  1  0  0  0  0
 28 16  1  0  0  0  0
M  END
>  <MODEL>
9

>  <REMARK>
 VINA RESULT:      -4.9      3.052      6.067
  Name = 
  0 active torsions:
  status: ('A' for Active; 'I' for Inactive)
                            x       y       z     vdW  Elec       q    Type
                         _______ _______ _______ _____ _____    ______ ____

>  <TORSDO>
F 0

$$$$
