=
 OpenBabel11122410383D

 32 37  0  0  1  0  0  0  0  0999 V2000
  190.9820  176.0020  138.7200 C   0  0  0  0  0  2  0  0  0  0  0  0
  187.1030  178.2230  141.9770 N   0  0  1  0  0  0  0  0  0  0  0  0
  188.2840  177.5030  146.6830 C   0  0  0  0  0  3  0  0  0  0  0  0
  187.0300  177.9710  147.0730 C   0  0  0  0  0  3  0  0  0  0  0  0
  184.8300  179.0870  141.3900 C   0  0  0  0  0  0  0  0  0  0  0  0
  183.4080  179.4050  141.7640 C   0  0  1  0  0  3  0  0  0  0  0  0
  188.7540  177.9120  140.1770 C   0  0  1  0  0  3  0  0  0  0  0  0
  189.3910  177.5420  142.5820 C   0  0  0  0  0  2  0  0  0  0  0  0
  181.7780  178.2600  143.0650 C   0  0  2  0  0  3  0  0  0  0  0  0
  191.1830  177.3890  140.8650 C   0  0  0  0  0  2  0  0  0  0  0  0
  188.5690  177.3240  145.3270 C   0  0  0  0  0  3  0  0  0  0  0  0
  187.8950  177.3600  142.8830 C   0  0  1  0  0  3  0  0  0  0  0  0
  187.6110  177.6310  144.3450 C   0  0  0  0  0  0  0  0  0  0  0  0
  185.3170  178.3340  143.7160 C   0  0  0  0  0  0  0  0  0  0  0  0
  181.3220  178.3760  141.6220 C   0  0  0  0  0  2  0  0  0  0  0  0
  189.4570  176.0750  138.5280 C   0  0  0  0  0  2  0  0  0  0  0  0
  189.6950  177.1600  141.1400 C   0  0  2  0  0  3  0  0  0  0  0  0
  182.4660  178.8160  140.8200 N   0  0  0  0  0  2  0  0  0  0  0  0
  188.8870  177.4860  138.7050 C   0  0  0  0  0  2  0  0  0  0  0  0
  191.5980  177.2340  139.3990 C   0  0  1  0  0  3  0  0  0  0  0  0
  186.0600  178.2480  146.1090 C   0  0  0  0  0  3  0  0  0  0  0  0
  186.3380  178.0680  144.7420 C   0  0  0  0  0  0  0  0  0  0  0  0
  184.0540  178.6010  144.0720 C   0  0  0  0  0  3  0  0  0  0  0  0
  187.3150  177.6890  140.6240 C   0  0  0  0  0  2  0  0  0  0  0  0
  185.3050  179.6100  140.3950 O   0  0  0  0  0  0  0  0  0  0  0  0
  180.8200  179.0120  143.9690 C   0  0  0  0  0  1  0  0  0  0  0  0
  185.6520  178.1270  142.2480 C   0  0  2  0  0  3  0  0  0  0  0  0
  183.0700  178.8930  143.0780 N   0  0  0  0  0  0  0  0  0  0  0  0
  193.1140  177.1900  139.3110 C   0  0  0  0  0  2  0  0  0  0  0  0
  193.5750  176.1990  138.2550 C   0  0  0  0  0  3  0  0  0  0  0  0
  194.6780  175.4820  138.7200 O   0  0  0  0  0  1  0  0  0  0  0  0
  193.9300  176.8890  137.0980 O   0  0  0  0  0  1  0  0  0  0  0  0
  1 20  1  0  0  0  0
  2 24  1  6  0  0  0
  2 27  1  0  0  0  0
  2 12  1  0  0  0  0
  3  4  1  0  0  0  0
  5  6  1  0  0  0  0
  6 18  1  6  0  0  0
  6 28  1  0  0  0  0
  7 19  1  6  0  0  0
  7 24  1  0  0  0  0
  7 17  1  0  0  0  0
  9 28  1  0  0  0  0
  9 26  1  1  0  0  0
 11  3  2  0  0  0  0
 12  8  1  1  0  0  0
 12 13  1  0  0  0  0
 13 22  2  0  0  0  0
 13 11  1  0  0  0  0
 14 23  2  0  0  0  0
 14 22  1  0  0  0  0
 15  9  1  0  0  0  0
 16 19  1  0  0  0  0
 16  1  1  0  0  0  0
 17 10  1  6  0  0  0
 17  8  1  0  0  0  0
 18 15  1  0  0  0  0
 20 29  1  1  0  0  0
 20 10  1  0  0  0  0
 21  4  2  0  0  0  0
 22 21  1  0  0  0  0
 25  5  2  0  0  0  0
 27  5  1  6  0  0  0
 27 14  1  0  0  0  0
 28 23  1  0  0  0  0
 30 31  1  0  0  0  0
 30 29  1  0  0  0  0
 32 30  1  0  0  0  0
M  END
>  <MODEL>
1

>  <REMARK>
 VINA RESULT:      -9.8      0.000      0.000
  Name = 
  2 active torsions:
  status: ('A' for Active; 'I' for Inactive)
    1  A    between atoms: C_20  and  C_29
    2  A    between atoms: C_29  and  C_30
                            x       y       z     vdW  Elec       q    Type
                         _______ _______ _______ _____ _____    ______ ____

>  <TORSDO>
F 2

$$$$
=
 OpenBabel11122410383D

 32 37  0  0  1  0  0  0  0  0999 V2000
  191.1430  175.4470  137.1290 C   0  0  0  0  0  2  0  0  0  0  0  0
  188.7290  177.7720  141.5270 N   0  0  1  0  0  0  0  0  0  0  0  0
  191.2030  176.5840  145.5920 C   0  0  0  0  0  3  0  0  0  0  0  0
  190.1910  177.1380  146.3750 C   0  0  0  0  0  3  0  0  0  0  0  0
  186.5000  178.8920  141.7180 C   0  0  0  0  0  0  0  0  0  0  0  0
  185.3060  179.3140  142.5320 C   0  0  1  0  0  3  0  0  0  0  0  0
  189.7020  177.4440  139.2900 C   0  0  1  0  0  3  0  0  0  0  0  0
  190.9970  176.8320  141.3570 C   0  0  0  0  0  2  0  0  0  0  0  0
  184.0330  178.2340  144.2270 C   0  0  2  0  0  3  0  0  0  0  0  0
  192.1490  176.6400  139.1610 C   0  0  0  0  0  2  0  0  0  0  0  0
  191.0360  176.4830  144.2100 C   0  0  0  0  0  3  0  0  0  0  0  0
  189.6550  176.7710  142.1030 C   0  0  1  0  0  3  0  0  0  0  0  0
  189.8660  176.9550  143.5900 C   0  0  0  0  0  0  0  0  0  0  0  0
  187.5850  177.9200  143.7410 C   0  0  0  0  0  0  0  0  0  0  0  0
  183.1740  178.5040  143.0050 C   0  0  0  0  0  2  0  0  0  0  0  0
  189.6520  175.6800  137.4270 C   0  0  0  0  0  2  0  0  0  0  0  0
  190.8000  176.5340  139.8770 C   0  0  2  0  0  3  0  0  0  0  0  0
  184.0600  178.8920  141.9050 N   0  0  0  0  0  2  0  0  0  0  0  0
  189.3290  177.1210  137.8340 C   0  0  0  0  0  2  0  0  0  0  0  0
  192.0740  176.5590  137.6330 C   0  0  1  0  0  3  0  0  0  0  0  0
  189.0110  177.5800  145.7760 C   0  0  0  0  0  3  0  0  0  0  0  0
  188.8350  177.4800  144.3840 C   0  0  0  0  0  0  0  0  0  0  0  0
  186.5320  178.2780  144.4850 C   0  0  0  0  0  3  0  0  0  0  0  0
  188.4530  177.3260  140.1550 C   0  0  0  0  0  2  0  0  0  0  0  0
  186.7030  179.4420  140.6480 O   0  0  0  0  0  0  0  0  0  0  0  0
  183.4910  179.0030  145.4160 C   0  0  0  0  0  1  0  0  0  0  0  0
  187.4290  177.7950  142.2340 C   0  0  2  0  0  3  0  0  0  0  0  0
  185.3310  178.7380  143.8620 N   0  0  0  0  0  0  0  0  0  0  0  0
  193.4750  176.3780  137.0750 C   0  0  0  0  0  2  0  0  0  0  0  0
  194.0680  175.0440  137.5000 C   0  0  0  0  0  3  0  0  0  0  0  0
  195.1940  175.2530  138.2970 O   0  0  0  0  0  1  0  0  0  0  0  0
  194.4340  174.3200  136.3680 O   0  0  0  0  0  1  0  0  0  0  0  0
  1 16  1  0  0  0  0
  1 20  1  0  0  0  0
  2 24  1  6  0  0  0
  2 12  1  0  0  0  0
  2 27  1  0  0  0  0
  3  4  1  0  0  0  0
  6  5  1  6  0  0  0
  6 28  1  0  0  0  0
  7 19  1  6  0  0  0
  7 17  1  0  0  0  0
  7 24  1  0  0  0  0
  9 26  1  1  0  0  0
 11  3  2  0  0  0  0
 12  8  1  6  0  0  0
 12 13  1  0  0  0  0
 13 11  1  0  0  0  0
 13 22  2  0  0  0  0
 14 22  1  0  0  0  0
 14 23  2  0  0  0  0
 15  9  1  0  0  0  0
 16 19  1  0  0  0  0
 17 10  1  6  0  0  0
 17  8  1  0  0  0  0
 18  6  1  0  0  0  0
 18 15  1  0  0  0  0
 20 29  1  6  0  0  0
 20 10  1  0  0  0  0
 21  4  2  0  0  0  0
 22 21  1  0  0  0  0
 25  5  2  0  0  0  0
 27  5  1  6  0  0  0
 27 14  1  0  0  0  0
 28  9  1  0  0  0  0
 28 23  1  0  0  0  0
 29 30  1  0  0  0  0
 30 31  1  0  0  0  0
 32 30  1  0  0  0  0
M  END
>  <MODEL>
2

>  <REMARK>
 VINA RESULT:      -9.5      1.447      2.196
  Name = 
  2 active torsions:
  status: ('A' for Active; 'I' for Inactive)
    1  A    between atoms: C_20  and  C_29
    2  A    between atoms: C_29  and  C_30
                            x       y       z     vdW  Elec       q    Type
                         _______ _______ _______ _____ _____    ______ ____

>  <TORSDO>
F 2

$$$$
=
 OpenBabel11122410383D

 32 37  0  0  1  0  0  0  0  0999 V2000
  186.9300  178.8350  147.3210 C   0  0  0  0  0  2  0  0  0  0  0  0
  184.9460  178.3380  142.1830 N   0  0  1  0  0  0  0  0  0  0  0  0
  188.6630  178.0930  138.9920 C   0  0  0  0  0  3  0  0  0  0  0  0
  187.7650  178.2060  137.9310 C   0  0  0  0  0  3  0  0  0  0  0  0
  182.6080  178.6280  141.3400 C   0  0  0  0  0  0  0  0  0  0  0  0
  181.6410  178.9510  140.2340 C   0  0  1  0  0  3  0  0  0  0  0  0
  185.3040  178.0160  144.5980 C   0  0  1  0  0  3  0  0  0  0  0  0
  187.2280  177.8780  142.9840 C   0  0  0  0  0  2  0  0  0  0  0  0
  181.6280  180.6000  138.5190 C   0  0  2  0  0  3  0  0  0  0  0  0
  187.6690  177.3450  145.3730 C   0  0  0  0  0  2  0  0  0  0  0  0
  188.2080  178.2290  140.3060 C   0  0  0  0  0  3  0  0  0  0  0  0
  186.3730  178.6850  141.9940 C   0  0  1  0  0  3  0  0  0  0  0  0
  186.8470  178.4580  140.5760 C   0  0  0  0  0  0  0  0  0  0  0  0
  184.5380  178.9040  139.7870 C   0  0  0  0  0  0  0  0  0  0  0  0
  180.4630  180.8100  139.4690 C   0  0  0  0  0  2  0  0  0  0  0  0
  185.6810  179.4650  146.6820 C   0  0  0  0  0  2  0  0  0  0  0  0
  186.8250  178.1920  144.4180 C   0  0  2  0  0  3  0  0  0  0  0  0
  180.6820  179.9690  140.6470 N   0  0  0  0  0  2  0  0  0  0  0  0
  184.7770  178.4490  145.9760 C   0  0  0  0  0  2  0  0  0  0  0  0
  187.2390  177.4100  146.8420 C   0  0  1  0  0  3  0  0  0  0  0  0
  186.4170  178.4660  138.1850 C   0  0  0  0  0  3  0  0  0  0  0  0
  185.9530  178.6060  139.5050 C   0  0  0  0  0  0  0  0  0  0  0  0
  183.6990  179.2020  138.7880 C   0  0  0  0  0  3  0  0  0  0  0  0
  184.5860  178.8230  143.5230 C   0  0  0  0  0  2  0  0  0  0  0  0
  182.1990  178.0250  142.3190 O   0  0  0  0  0  0  0  0  0  0  0  0
  181.1080  180.2880  137.1290 C   0  0  0  0  0  1  0  0  0  0  0  0
  184.0710  179.0510  141.2260 C   0  0  2  0  0  3  0  0  0  0  0  0
  182.3190  179.4580  139.0570 N   0  0  0  0  0  0  0  0  0  0  0  0
  188.3190  176.7780  147.7050 C   0  0  0  0  0  2  0  0  0  0  0  0
  189.6450  177.5030  147.5440 C   0  0  0  0  0  3  0  0  0  0  0  0
  190.6730  176.5820  147.3440 O   0  0  0  0  0  1  0  0  0  0  0  0
  189.9090  178.2440  148.6940 O   0  0  0  0  0  1  0  0  0  0  0  0
  2 24  1  1  0  0  0
  3 11  1  0  0  0  0
  4 21  1  0  0  0  0
  4  3  2  0  0  0  0
  5 25  2  0  0  0  0
  6 18  1  1  0  0  0
  6  5  1  0  0  0  0
  7 24  1  6  0  0  0
  7 19  1  0  0  0  0
  9 26  1  6  0  0  0
  9 28  1  0  0  0  0
  9 15  1  0  0  0  0
 10 20  1  0  0  0  0
 11 13  2  0  0  0  0
 12  2  1  0  0  0  0
 12  8  1  1  0  0  0
 13 12  1  0  0  0  0
 15 18  1  0  0  0  0
 16  1  1  0  0  0  0
 17  8  1  6  0  0  0
 17  7  1  0  0  0  0
 17 10  1  0  0  0  0
 19 16  1  0  0  0  0
 20  1  1  0  0  0  0
 20 29  1  1  0  0  0
 21 22  2  0  0  0  0
 22 14  1  0  0  0  0
 22 13  1  0  0  0  0
 23 28  1  0  0  0  0
 23 14  2  0  0  0  0
 27 14  1  6  0  0  0
 27  5  1  0  0  0  0
 27  2  1  0  0  0  0
 28  6  1  0  0  0  0
 30 29  1  0  0  0  0
 30 32  1  0  0  0  0
 31 30  1  0  0  0  0
M  END
>  <MODEL>
3

>  <REMARK>
 VINA RESULT:      -9.5      3.334      6.501
  Name = 
  2 active torsions:
  status: ('A' for Active; 'I' for Inactive)
    1  A    between atoms: C_20  and  C_29
    2  A    between atoms: C_29  and  C_30
                            x       y       z     vdW  Elec       q    Type
                         _______ _______ _______ _____ _____    ______ ____

>  <TORSDO>
F 2

$$$$
=
 OpenBabel11122410383D

 32 37  0  0  1  0  0  0  0  0999 V2000
  188.5580  178.9870  137.0790 C   0  0  0  0  0  2  0  0  0  0  0  0
  187.1450  177.6830  142.2640 N   0  0  1  0  0  0  0  0  0  0  0  0
  182.5580  179.1780  143.1530 C   0  0  0  0  0  3  0  0  0  0  0  0
  182.7190  178.8790  144.5060 C   0  0  0  0  0  3  0  0  0  0  0  0
  188.5750  176.8870  144.1560 C   0  0  0  0  0  0  0  0  0  0  0  0
  188.8460  176.7440  145.6290 C   0  0  1  0  0  3  0  0  0  0  0  0
  188.0260  177.5400  139.9690 C   0  0  1  0  0  3  0  0  0  0  0  0
  185.6680  178.3030  140.3940 C   0  0  0  0  0  2  0  0  0  0  0  0
  188.5900  178.2210  147.4760 C   0  0  2  0  0  3  0  0  0  0  0  0
  186.3900  178.0100  138.0330 C   0  0  0  0  0  2  0  0  0  0  0  0
  183.6490  179.0820  142.2850 C   0  0  0  0  0  3  0  0  0  0  0  0
  186.1030  178.6410  141.8290 C   0  0  1  0  0  3  0  0  0  0  0  0
  184.9070  178.6660  142.7550 C   0  0  0  0  0  0  0  0  0  0  0  0
  186.4050  178.0210  144.6240 C   0  0  0  0  0  0  0  0  0  0  0  0
  190.0530  177.8720  147.2720 C   0  0  0  0  0  2  0  0  0  0  0  0
  189.4070  178.9860  138.3610 C   0  0  0  0  0  2  0  0  0  0  0  0
  186.8520  178.3890  139.4420 C   0  0  2  0  0  3  0  0  0  0  0  0
  190.1830  177.2120  145.9710 N   0  0  0  0  0  2  0  0  0  0  0  0
  189.3200  177.6760  139.1500 C   0  0  0  0  0  2  0  0  0  0  0  0
  187.5160  177.8620  137.0050 C   0  0  1  0  0  3  0  0  0  0  0  0
  183.9700  178.4960  144.9900 C   0  0  0  0  0  3  0  0  0  0  0  0
  185.0740  178.4000  144.1230 C   0  0  0  0  0  0  0  0  0  0  0  0
  186.6270  177.9130  145.9400 C   0  0  0  0  0  3  0  0  0  0  0  0
  188.3130  177.9420  141.4110 C   0  0  0  0  0  2  0  0  0  0  0  0
  189.1670  176.1560  143.3780 O   0  0  0  0  0  0  0  0  0  0  0  0
  188.1260  177.7180  148.8290 C   0  0  0  0  0  1  0  0  0  0  0  0
  187.5760  177.9290  143.6580 C   0  0  2  0  0  3  0  0  0  0  0  0
  187.9090  177.5120  146.4250 N   0  0  0  0  0  0  0  0  0  0  0  0
  186.9130  177.7820  135.6130 C   0  0  0  0  0  2  0  0  0  0  0  0
  186.9290  176.3560  135.0880 C   0  0  0  0  0  3  0  0  0  0  0  0
  185.7080  175.7340  135.3510 O   0  0  0  0  0  1  0  0  0  0  0  0
  187.9500  175.6440  135.7160 O   0  0  0  0  0  1  0  0  0  0  0  0
  1 16  1  0  0  0  0
  2 24  1  6  0  0  0
  2 27  1  0  0  0  0
  3  4  1  0  0  0  0
  4 21  2  0  0  0  0
  6  5  1  6  0  0  0
  6 18  1  0  0  0  0
  6 28  1  0  0  0  0
  7 19  1  6  0  0  0
  7 24  1  0  0  0  0
  9 26  1  1  0  0  0
 11 13  1  0  0  0  0
 11  3  2  0  0  0  0
 12  8  1  6  0  0  0
 12  2  1  0  0  0  0
 12 13  1  0  0  0  0
 13 22  2  0  0  0  0
 14 23  2  0  0  0  0
 15  9  1  0  0  0  0
 16 19  1  0  0  0  0
 17 10  1  6  0  0  0
 17  7  1  0  0  0  0
 17  8  1  0  0  0  0
 18 15  1  0  0  0  0
 20 29  1  6  0  0  0
 20  1  1  0  0  0  0
 20 10  1  0  0  0  0
 22 14  1  0  0  0  0
 22 21  1  0  0  0  0
 23 28  1  0  0  0  0
 25  5  2  0  0  0  0
 27  5  1  1  0  0  0
 27 14  1  0  0  0  0
 28  9  1  0  0  0  0
 30 31  1  0  0  0  0
 30 29  1  0  0  0  0
 30 32  1  0  0  0  0
M  END
>  <MODEL>
4

>  <REMARK>
 VINA RESULT:      -9.3      2.822      5.586
  Name = 
  2 active torsions:
  status: ('A' for Active; 'I' for Inactive)
    1  A    between atoms: C_20  and  C_29
    2  A    between atoms: C_29  and  C_30
                            x       y       z     vdW  Elec       q    Type
                         _______ _______ _______ _____ _____    ______ ____

>  <TORSDO>
F 2

$$$$
=
 OpenBabel11122410383D

 32 37  0  0  1  0  0  0  0  0999 V2000
  187.4040  177.1380  146.0140 C   0  0  0  0  0  2  0  0  0  0  0  0
  183.9460  178.8200  142.0380 N   0  0  1  0  0  0  0  0  0  0  0  0
  179.4430  179.3890  143.8960 C   0  0  0  0  0  3  0  0  0  0  0  0
  178.9310  179.5670  142.6110 C   0  0  0  0  0  3  0  0  0  0  0  0
  184.2820  178.9020  139.5610 C   0  0  0  0  0  0  0  0  0  0  0  0
  183.7350  178.8900  138.1590 C   0  0  1  0  0  3  0  0  0  0  0  0
  185.9200  178.6200  143.4970 C   0  0  1  0  0  3  0  0  0  0  0  0
  183.6240  178.9180  144.4770 C   0  0  0  0  0  2  0  0  0  0  0  0
  182.0220  177.6260  137.0970 C   0  0  2  0  0  3  0  0  0  0  0  0
  185.5650  178.9220  146.0320 C   0  0  0  0  0  2  0  0  0  0  0  0
  180.7810  179.0310  144.0680 C   0  0  0  0  0  3  0  0  0  0  0  0
  183.0570  178.4010  143.1460 C   0  0  1  0  0  3  0  0  0  0  0  0
  181.6300  178.8670  142.9590 C   0  0  0  0  0  0  0  0  0  0  0  0
  181.9780  178.7830  140.5040 C   0  0  0  0  0  0  0  0  0  0  0  0
  183.3710  177.3270  136.4690 C   0  0  0  0  0  2  0  0  0  0  0  0
  187.3530  176.7550  144.5240 C   0  0  0  0  0  2  0  0  0  0  0  0
  185.0180  178.3570  144.7190 C   0  0  2  0  0  3  0  0  0  0  0  0
  184.4080  177.8940  137.3350 N   0  0  0  0  0  2  0  0  0  0  0  0
  187.3090  177.9650  143.5850 C   0  0  0  0  0  2  0  0  0  0  0  0
  187.0370  178.5990  146.3080 C   0  0  1  0  0  3  0  0  0  0  0  0
  179.7550  179.3760  141.5020 C   0  0  0  0  0  3  0  0  0  0  0  0
  181.1030  179.0120  141.6660 C   0  0  0  0  0  0  0  0  0  0  0  0
  181.4670  178.7630  139.2670 C   0  0  0  0  0  3  0  0  0  0  0  0
  185.2150  178.1080  142.2470 C   0  0  0  0  0  2  0  0  0  0  0  0
  185.4110  179.3280  139.7450 O   0  0  0  0  0  0  0  0  0  0  0  0
  181.1040  178.2520  136.0660 C   0  0  0  0  0  1  0  0  0  0  0  0
  183.4300  178.3900  140.7200 C   0  0  2  0  0  3  0  0  0  0  0  0
  182.3200  178.5750  138.1370 N   0  0  0  0  0  0  0  0  0  0  0  0
  187.3620  178.9520  147.7490 C   0  0  0  0  0  2  0  0  0  0  0  0
  188.1840  177.8580  148.4100 C   0  0  0  0  0  3  0  0  0  0  0  0
  187.5870  177.4670  149.6090 O   0  0  0  0  0  1  0  0  0  0  0  0
  189.4670  178.3380  148.6720 O   0  0  0  0  0  1  0  0  0  0  0  0
  1 20  1  0  0  0  0
  2 24  1  1  0  0  0
  2 12  1  0  0  0  0
  3 11  1  0  0  0  0
  4  3  2  0  0  0  0
  5 25  2  0  0  0  0
  6 18  1  6  0  0  0
  6  5  1  0  0  0  0
  7 24  1  6  0  0  0
  7 19  1  0  0  0  0
  7 17  1  0  0  0  0
  9 26  1  6  0  0  0
  9 28  1  0  0  0  0
 10 20  1  0  0  0  0
 12  8  1  1  0  0  0
 13 12  1  0  0  0  0
 13 11  2  0  0  0  0
 14 27  1  0  0  0  0
 14 22  1  0  0  0  0
 15  9  1  0  0  0  0
 15 18  1  0  0  0  0
 16  1  1  0  0  0  0
 17  8  1  6  0  0  0
 17 10  1  0  0  0  0
 19 16  1  0  0  0  0
 20 29  1  1  0  0  0
 21 22  2  0  0  0  0
 21  4  1  0  0  0  0
 22 13  1  0  0  0  0
 23 14  2  0  0  0  0
 27  5  1  6  0  0  0
 27  2  1  0  0  0  0
 28  6  1  0  0  0  0
 28 23  1  0  0  0  0
 29 30  1  0  0  0  0
 30 32  1  0  0  0  0
 30 31  1  0  0  0  0
M  END
>  <MODEL>
5

>  <REMARK>
 VINA RESULT:      -8.7      4.102      7.081
  Name = 
  2 active torsions:
  status: ('A' for Active; 'I' for Inactive)
    1  A    between atoms: C_20  and  C_29
    2  A    between atoms: C_29  and  C_30
                            x       y       z     vdW  Elec       q    Type
                         _______ _______ _______ _____ _____    ______ ____

>  <TORSDO>
F 2

$$$$
=
 OpenBabel11122410383D

 32 37  0  0  1  0  0  0  0  0999 V2000
  191.3780  174.7070  135.7240 C   0  0  0  0  0  2  0  0  0  0  0  0
  188.9210  177.6250  139.7280 N   0  0  1  0  0  0  0  0  0  0  0  0
  191.6800  177.5190  143.7820 C   0  0  0  0  0  3  0  0  0  0  0  0
  190.6490  178.1200  144.5040 C   0  0  0  0  0  3  0  0  0  0  0  0
  186.5960  178.5420  139.8370 C   0  0  0  0  0  0  0  0  0  0  0  0
  185.4010  179.0030  140.6260 C   0  0  1  0  0  3  0  0  0  0  0  0
  189.8280  176.9490  137.5410 C   0  0  1  0  0  3  0  0  0  0  0  0
  191.2680  176.8910  139.6010 C   0  0  0  0  0  2  0  0  0  0  0  0
  184.3240  178.1680  142.5760 C   0  0  2  0  0  3  0  0  0  0  0  0
  192.3380  176.3740  137.4170 C   0  0  0  0  0  2  0  0  0  0  0  0
  191.4660  177.1270  142.4590 C   0  0  0  0  0  3  0  0  0  0  0  0
  189.9730  176.8530  140.4280 C   0  0  1  0  0  3  0  0  0  0  0  0
  190.2260  177.3510  141.8340 C   0  0  0  0  0  0  0  0  0  0  0  0
  187.8650  178.1040  141.9380 C   0  0  0  0  0  0  0  0  0  0  0  0
  183.3890  178.1040  141.3820 C   0  0  0  0  0  2  0  0  0  0  0  0
  189.8850  174.8510  136.0640 C   0  0  0  0  0  2  0  0  0  0  0  0
  191.0400  176.2850  138.2230 C   0  0  2  0  0  3  0  0  0  0  0  0
  184.1810  178.3470  140.1740 N   0  0  0  0  0  2  0  0  0  0  0  0
  189.4280  176.3070  136.2020 C   0  0  0  0  0  2  0  0  0  0  0  0
  192.2060  175.9810  135.9420 C   0  0  1  0  0  3  0  0  0  0  0  0
  189.4050  178.3180  143.9060 C   0  0  0  0  0  3  0  0  0  0  0  0
  189.1800  177.9240  142.5740 C   0  0  0  0  0  0  0  0  0  0  0  0
  186.8120  178.5020  142.6630 C   0  0  0  0  0  3  0  0  0  0  0  0
  188.6360  176.8880  138.4890 C   0  0  0  0  0  2  0  0  0  0  0  0
  186.6940  178.8830  138.6690 O   0  0  0  0  0  0  0  0  0  0  0  0
  183.7540  179.1040  143.6240 C   0  0  0  0  0  1  0  0  0  0  0  0
  187.6580  177.6650  140.4970 C   0  0  2  0  0  3  0  0  0  0  0  0
  185.5440  178.7100  142.0390 N   0  0  0  0  0  0  0  0  0  0  0  0
  193.5930  175.8270  135.3420 C   0  0  0  0  0  2  0  0  0  0  0  0
  194.6460  176.4930  136.2120 C   0  0  0  0  0  3  0  0  0  0  0  0
  195.0840  177.6750  135.6150 O   0  0  0  0  0  1  0  0  0  0  0  0
  195.7290  175.6300  136.3700 O   0  0  0  0  0  1  0  0  0  0  0  0
  1 20  1  0  0  0  0
  1 16  1  0  0  0  0
  2 24  1  6  0  0  0
  2 12  1  0  0  0  0
  2 27  1  0  0  0  0
  3  4  1  0  0  0  0
  6  5  1  6  0  0  0
  6 28  1  0  0  0  0
  7 19  1  6  0  0  0
  7 17  1  0  0  0  0
  7 24  1  0  0  0  0
  9 26  1  1  0  0  0
 11  3  2  0  0  0  0
 12  8  1  6  0  0  0
 12 13  1  0  0  0  0
 13 11  1  0  0  0  0
 13 22  2  0  0  0  0
 14 22  1  0  0  0  0
 14 23  2  0  0  0  0
 15  9  1  0  0  0  0
 16 19  1  0  0  0  0
 17 10  1  6  0  0  0
 17  8  1  0  0  0  0
 18  6  1  0  0  0  0
 18 15  1  0  0  0  0
 20 29  1  1  0  0  0
 20 10  1  0  0  0  0
 21  4  2  0  0  0  0
 22 21  1  0  0  0  0
 25  5  2  0  0  0  0
 27  5  1  6  0  0  0
 27 14  1  0  0  0  0
 28  9  1  0  0  0  0
 28 23  1  0  0  0  0
 29 30  1  0  0  0  0
 30 32  1  0  0  0  0
 31 30  1  0  0  0  0
M  END
>  <MODEL>
6

>  <REMARK>
 VINA RESULT:      -8.5      1.928      3.209
  Name = 
  2 active torsions:
  status: ('A' for Active; 'I' for Inactive)
    1  A    between atoms: C_20  and  C_29
    2  A    between atoms: C_29  and  C_30
                            x       y       z     vdW  Elec       q    Type
                         _______ _______ _______ _____ _____    ______ ____

>  <TORSDO>
F 2

$$$$
=
 OpenBabel11122410383D

 32 37  0  0  1  0  0  0  0  0999 V2000
  191.2990  175.5520  144.6660 C   0  0  0  0  0  2  0  0  0  0  0  0
  187.0350  178.0920  142.2260 N   0  0  1  0  0  0  0  0  0  0  0  0
  183.4620  178.8400  145.5020 C   0  0  0  0  0  3  0  0  0  0  0  0
  182.6030  179.2410  144.4790 C   0  0  0  0  0  3  0  0  0  0  0  0
  186.5860  178.4780  139.7960 C   0  0  0  0  0  0  0  0  0  0  0  0
  185.6320  178.7110  138.6560 C   0  0  1  0  0  3  0  0  0  0  0  0
  189.3190  177.5020  142.9310 C   0  0  1  0  0  3  0  0  0  0  0  0
  187.5090  177.8870  144.6340 C   0  0  0  0  0  2  0  0  0  0  0  0
  183.5160  177.7780  138.0950 C   0  0  2  0  0  3  0  0  0  0  0  0
  189.8200  177.4880  145.4600 C   0  0  0  0  0  2  0  0  0  0  0  0
  184.7250  178.3320  145.1900 C   0  0  0  0  0  3  0  0  0  0  0  0
  186.4890  177.6140  143.5170 C   0  0  1  0  0  3  0  0  0  0  0  0
  185.1530  178.2390  143.8540 C   0  0  0  0  0  0  0  0  0  0  0  0
  184.7000  178.4580  141.4250 C   0  0  0  0  0  0  0  0  0  0  0  0
  184.5470  177.4370  137.0340 C   0  0  0  0  0  2  0  0  0  0  0  0
  190.7330  175.3830  143.2460 C   0  0  0  0  0  2  0  0  0  0  0  0
  188.8180  177.1640  144.3490 C   0  0  2  0  0  3  0  0  0  0  0  0
  185.8700  177.7760  137.5640 N   0  0  0  0  0  2  0  0  0  0  0  0
  190.5620  176.7080  142.4960 C   0  0  0  0  0  2  0  0  0  0  0  0
  191.2460  176.9880  145.2060 C   0  0  1  0  0  3  0  0  0  0  0  0
  183.0040  179.1230  143.1480 C   0  0  0  0  0  3  0  0  0  0  0  0
  184.2730  178.6100  142.8260 C   0  0  0  0  0  0  0  0  0  0  0  0
  183.8290  178.6570  140.4280 C   0  0  0  0  0  3  0  0  0  0  0  0
  188.1950  177.2370  141.9370 C   0  0  0  0  0  2  0  0  0  0  0  0
  187.7630  178.7620  139.6410 O   0  0  0  0  0  0  0  0  0  0  0  0
  182.4160  178.6260  137.4880 C   0  0  0  0  0  1  0  0  0  0  0  0
  186.0790  177.8980  141.1140 C   0  0  2  0  0  3  0  0  0  0  0  0
  184.2520  178.5420  139.0670 N   0  0  0  0  0  0  0  0  0  0  0  0
  192.0520  177.1070  146.4880 C   0  0  0  0  0  2  0  0  0  0  0  0
  192.2460  175.7490  147.1430 C   0  0  0  0  0  3  0  0  0  0  0  0
  191.0770  175.3620  147.7990 O   0  0  0  0  0  1  0  0  0  0  0  0
  193.2860  175.8270  148.0680 O   0  0  0  0  0  1  0  0  0  0  0  0
  1 20  1  0  0  0  0
  2 24  1  6  0  0  0
  2 12  1  0  0  0  0
  4  3  2  0  0  0  0
  6 18  1  6  0  0  0
  6 28  1  0  0  0  0
  6  5  1  0  0  0  0
  7 24  1  6  0  0  0
  7 17  1  0  0  0  0
  9 26  1  6  0  0  0
  9 28  1  0  0  0  0
 11  3  1  0  0  0  0
 12 13  1  0  0  0  0
 12  8  1  1  0  0  0
 13 11  2  0  0  0  0
 14 22  1  0  0  0  0
 15 18  1  0  0  0  0
 15  9  1  0  0  0  0
 16  1  1  0  0  0  0
 17  8  1  1  0  0  0
 17 10  1  0  0  0  0
 19  7  1  0  0  0  0
 19 16  1  0  0  0  0
 20 10  1  0  0  0  0
 20 29  1  1  0  0  0
 21  4  1  0  0  0  0
 22 21  2  0  0  0  0
 22 13  1  0  0  0  0
 23 14  2  0  0  0  0
 25  5  2  0  0  0  0
 27  5  1  6  0  0  0
 27 14  1  0  0  0  0
 27  2  1  0  0  0  0
 28 23  1  0  0  0  0
 29 30  1  0  0  0  0
 30 31  1  0  0  0  0
 30 32  1  0  0  0  0
M  END
>  <MODEL>
7

>  <REMARK>
 VINA RESULT:      -8.4      3.368      5.051
  Name = 
  2 active torsions:
  status: ('A' for Active; 'I' for Inactive)
    1  A    between atoms: C_20  and  C_29
    2  A    between atoms: C_29  and  C_30
                            x       y       z     vdW  Elec       q    Type
                         _______ _______ _______ _____ _____    ______ ____

>  <TORSDO>
F 2

$$$$
=
 OpenBabel11122410383D

 32 37  0  0  1  0  0  0  0  0999 V2000
  186.8100  177.1710  144.4640 C   0  0  0  0  0  2  0  0  0  0  0  0
  189.7570  177.5200  139.7970 N   0  0  1  0  0  0  0  0  0  0  0  0
  186.7300  177.8870  135.9550 C   0  0  0  0  0  3  0  0  0  0  0  0
  187.8080  177.7220  135.0850 C   0  0  0  0  0  3  0  0  0  0  0  0
  192.1970  177.1210  139.4170 C   0  0  0  0  0  0  0  0  0  0  0  0
  193.3420  176.7430  138.5170 C   0  0  1  0  0  3  0  0  0  0  0  0
  188.9600  177.8870  142.0980 C   0  0  1  0  0  3  0  0  0  0  0  0
  187.3860  178.0880  140.1470 C   0  0  0  0  0  2  0  0  0  0  0  0
  193.6070  175.0750  136.8420 C   0  0  2  0  0  3  0  0  0  0  0  0
  186.5220  178.6680  142.4050 C   0  0  0  0  0  2  0  0  0  0  0  0
  186.9190  177.7470  137.3310 C   0  0  0  0  0  3  0  0  0  0  0  0
  188.3780  177.2330  139.3410 C   0  0  1  0  0  3  0  0  0  0  0  0
  188.1920  177.4630  137.8570 C   0  0  0  0  0  0  0  0  0  0  0  0
  190.5870  176.9090  137.5250 C   0  0  0  0  0  0  0  0  0  0  0  0
  194.5600  174.8260  137.9970 C   0  0  0  0  0  2  0  0  0  0  0  0
  188.1290  176.4800  144.0770 C   0  0  0  0  0  2  0  0  0  0  0  0
  187.4940  177.7740  141.6320 C   0  0  2  0  0  3  0  0  0  0  0  0
  194.1580  175.6900  139.1090 N   0  0  0  0  0  2  0  0  0  0  0  0
  189.1940  177.4480  143.5530 C   0  0  0  0  0  2  0  0  0  0  0  0
  186.6610  178.6020  143.9290 C   0  0  1  0  0  3  0  0  0  0  0  0
  189.0690  177.4080  135.5920 C   0  0  0  0  0  3  0  0  0  0  0  0
  189.2670  177.2640  136.9770 C   0  0  0  0  0  0  0  0  0  0  0  0
  191.5880  176.5630  136.7060 C   0  0  0  0  0  3  0  0  0  0  0  0
  189.8330  177.0370  141.1830 C   0  0  0  0  0  2  0  0  0  0  0  0
  192.4380  177.7170  140.4540 O   0  0  0  0  0  0  0  0  0  0  0  0
  194.3960  175.3470  135.5760 C   0  0  0  0  0  1  0  0  0  0  0  0
  190.7650  176.7590  139.0270 C   0  0  2  0  0  3  0  0  0  0  0  0
  192.8790  176.2520  137.2340 N   0  0  0  0  0  0  0  0  0  0  0  0
  185.4660  179.2900  144.5680 C   0  0  0  0  0  2  0  0  0  0  0  0
  185.1760  178.7180  145.9470 C   0  0  0  0  0  3  0  0  0  0  0  0
  183.8000  178.6900  146.1740 O   0  0  0  0  0  1  0  0  0  0  0  0
  185.7850  179.5160  146.9140 O   0  0  0  0  0  1  0  0  0  0  0  0
  2 24  1  1  0  0  0
  3 11  1  0  0  0  0
  4 21  1  0  0  0  0
  4  3  2  0  0  0  0
  5 25  2  0  0  0  0
  6 18  1  1  0  0  0
  6  5  1  0  0  0  0
  7 24  1  6  0  0  0
  7 19  1  0  0  0  0
  9 26  1  6  0  0  0
  9 28  1  0  0  0  0
  9 15  1  0  0  0  0
 10 20  1  0  0  0  0
 11 13  2  0  0  0  0
 12  2  1  0  0  0  0
 12  8  1  1  0  0  0
 13 12  1  0  0  0  0
 15 18  1  0  0  0  0
 16  1  1  0  0  0  0
 17  8  1  6  0  0  0
 17  7  1  0  0  0  0
 17 10  1  0  0  0  0
 19 16  1  0  0  0  0
 20  1  1  0  0  0  0
 20 29  1  1  0  0  0
 21 22  2  0  0  0  0
 22 14  1  0  0  0  0
 22 13  1  0  0  0  0
 23 28  1  0  0  0  0
 23 14  2  0  0  0  0
 27 14  1  6  0  0  0
 27  5  1  0  0  0  0
 27  2  1  0  0  0  0
 28  6  1  0  0  0  0
 29 30  1  0  0  0  0
 30 31  1  0  0  0  0
 30 32  1  0  0  0  0
M  END
>  <MODEL>
8

>  <REMARK>
 VINA RESULT:      -8.4      3.112      9.309
  Name = 
  2 active torsions:
  status: ('A' for Active; 'I' for Inactive)
    1  A    between atoms: C_20  and  C_29
    2  A    between atoms: C_29  and  C_30
                            x       y       z     vdW  Elec       q    Type
                         _______ _______ _______ _____ _____    ______ ____

>  <TORSDO>
F 2

$$$$
=
 OpenBabel11122410383D

 32 37  0  0  1  0  0  0  0  0999 V2000
  191.8860  175.5360  147.0490 C   0  0  0  0  0  2  0  0  0  0  0  0
  188.2970  177.9540  143.6050 N   0  0  1  0  0  0  0  0  0  0  0  0
  184.0100  178.6290  145.8900 C   0  0  0  0  0  3  0  0  0  0  0  0
  183.4210  179.0030  144.6830 C   0  0  0  0  0  3  0  0  0  0  0  0
  188.4530  178.3150  141.1340 C   0  0  0  0  0  0  0  0  0  0  0  0
  187.8040  178.5170  139.7920 C   0  0  1  0  0  3  0  0  0  0  0  0
  190.3500  177.4260  144.8570 C   0  0  1  0  0  3  0  0  0  0  0  0
  188.1680  177.7740  146.0570 C   0  0  0  0  0  2  0  0  0  0  0  0
  185.9140  177.5270  138.7380 C   0  0  2  0  0  3  0  0  0  0  0  0
  190.2120  177.4390  147.4320 C   0  0  0  0  0  2  0  0  0  0  0  0
  185.3230  178.1520  145.9050 C   0  0  0  0  0  3  0  0  0  0  0  0
  187.4610  177.4690  144.7260 C   0  0  1  0  0  3  0  0  0  0  0  0
  186.0690  178.0620  144.7170 C   0  0  0  0  0  0  0  0  0  0  0  0
  186.2240  178.2560  142.2490 C   0  0  0  0  0  0  0  0  0  0  0  0
  187.1820  177.2070  137.9680 C   0  0  0  0  0  2  0  0  0  0  0  0
  191.6910  175.3450  145.5350 C   0  0  0  0  0  2  0  0  0  0  0  0
  189.5230  177.0830  146.1120 C   0  0  2  0  0  3  0  0  0  0  0  0
  188.3260  177.5820  138.8030 N   0  0  0  0  0  2  0  0  0  0  0  0
  191.6800  176.6610  144.7510 C   0  0  0  0  0  2  0  0  0  0  0  0
  191.6680  176.9730  147.5420 C   0  0  1  0  0  3  0  0  0  0  0  0
  184.1400  178.8880  143.4930 C   0  0  0  0  0  3  0  0  0  0  0  0
  185.4610  178.4050  143.4990 C   0  0  0  0  0  0  0  0  0  0  0  0
  185.6220  178.4270  141.0650 C   0  0  0  0  0  3  0  0  0  0  0  0
  189.5120  177.1270  143.6200 C   0  0  0  0  0  2  0  0  0  0  0  0
  189.6250  178.6280  141.2710 O   0  0  0  0  0  0  0  0  0  0  0  0
  184.9780  178.3440  137.8690 C   0  0  0  0  0  1  0  0  0  0  0  0
  187.6490  177.7300  142.2930 C   0  0  2  0  0  3  0  0  0  0  0  0
  186.3690  178.3160  139.8520 N   0  0  0  0  0  0  0  0  0  0  0  0
  192.1290  177.1200  148.9830 C   0  0  0  0  0  2  0  0  0  0  0  0
  193.4280  176.3680  149.2220 C   0  0  0  0  0  3  0  0  0  0  0  0
  193.1800  175.2010  149.9450 O   0  0  0  0  0  1  0  0  0  0  0  0
  194.3040  177.1780  149.9440 O   0  0  0  0  0  1  0  0  0  0  0  0
  1 20  1  0  0  0  0
  2 24  1  6  0  0  0
  2 12  1  0  0  0  0
  3 11  1  0  0  0  0
  4  3  2  0  0  0  0
  5 25  2  0  0  0  0
  6 18  1  6  0  0  0
  6 28  1  0  0  0  0
  6  5  1  0  0  0  0
  7 24  1  6  0  0  0
  7 17  1  0  0  0  0
  9 26  1  6  0  0  0
  9 28  1  0  0  0  0
 10 20  1  0  0  0  0
 12  8  1  1  0  0  0
 13 12  1  0  0  0  0
 13 11  2  0  0  0  0
 14 27  1  0  0  0  0
 14 22  1  0  0  0  0
 15  9  1  0  0  0  0
 15 18  1  0  0  0  0
 16  1  1  0  0  0  0
 17  8  1  6  0  0  0
 17 10  1  0  0  0  0
 19  7  1  0  0  0  0
 19 16  1  0  0  0  0
 20 29  1  1  0  0  0
 21 22  2  0  0  0  0
 21  4  1  0  0  0  0
 22 13  1  0  0  0  0
 23 14  2  0  0  0  0
 27  5  1  6  0  0  0
 27  2  1  0  0  0  0
 28 23  1  0  0  0  0
 29 30  1  0  0  0  0
 30 32  1  0  0  0  0
 30 31  1  0  0  0  0
M  END
>  <MODEL>
9

>  <REMARK>
 VINA RESULT:      -8.3      3.751      6.175
  Name = 
  2 active torsions:
  status: ('A' for Active; 'I' for Inactive)
    1  A    between atoms: C_20  and  C_29
    2  A    between atoms: C_29  and  C_30
                            x       y       z     vdW  Elec       q    Type
                         _______ _______ _______ _____ _____    ______ ____

>  <TORSDO>
F 2

$$$$
