=
 OpenBabel11122411213D

 37 43  0  0  1  0  0  0  0  0999 V2000
  189.8220  176.9450  139.1190 C   0  0  0  0  0  2  0  0  0  0  0  0
  189.4760  177.3150  143.4780 C   0  0  0  0  0  0  0  0  0  0  0  0
  185.9670  178.6670  141.5150 C   0  0  2  0  0  3  0  0  0  0  0  0
  190.3330  176.7340  137.6850 C   0  0  2  0  0  3  0  0  0  0  0  0
  185.9710  179.0960  138.0490 O   0  0  0  0  0  0  0  0  0  0  0  0
  186.9890  177.8590  143.5700 C   0  0  2  0  0  3  0  0  0  0  0  0
  186.3510  178.2900  140.2850 C   0  0  0  0  0  0  0  0  0  0  0  0
  189.0770  177.8640  136.1980 C   0  0  2  0  0  3  0  0  0  0  0  0
  187.1530  178.7910  142.3970 C   0  0  1  0  0  3  0  0  0  0  0  0
  185.5630  178.1420  138.9990 C   0  0  1  0  0  3  0  0  0  0  0  0
  185.7810  178.3380  144.3700 C   0  0  0  0  0  2  0  0  0  0  0  0
  189.2610  176.5960  136.7830 O   0  0  0  0  0  0  0  0  0  0  0  0
  188.2440  178.2990  141.5400 C   0  0  1  0  0  3  0  0  0  0  0  0
  189.3020  175.8260  143.2290 C   0  0  0  0  0  1  0  0  0  0  0  0
  183.4120  178.5630  141.2880 C   0  0  0  0  0  2  0  0  0  0  0  0
  184.5070  178.2350  143.4990 C   0  0  0  0  0  2  0  0  0  0  0  0
  189.6010  178.0490  142.1200 C   0  0  0  0  0  2  0  0  0  0  0  0
  188.1760  178.7800  137.0590 C   0  0  1  0  0  3  0  0  0  0  0  0
  186.6860  178.3660  137.0820 C   0  0  0  0  0  2  0  0  0  0  0  0
  184.6150  178.9540  142.1320 C   0  0  1  0  0  3  0  0  0  0  0  0
  187.7920  178.0480  140.3210 C   0  0  0  0  0  0  0  0  0  0  0  0
  188.3050  177.8380  144.3560 C   0  0  0  0  0  2  0  0  0  0  0  0
  184.0420  178.0490  139.1410 C   0  0  1  0  0  3  0  0  0  0  0  0
  190.7670  177.5140  144.2430 C   0  0  0  0  0  1  0  0  0  0  0  0
  188.7340  178.9910  138.3420 O   0  0  0  0  0  0  0  0  0  0  0  0
  188.5450  177.7220  134.9160 O   0  0  0  0  0  1  0  0  0  0  0  0
  188.5690  177.8050  139.0760 C   0  0  1  0  0  3  0  0  0  0  0  0
  183.5090  179.1250  139.9560 N   0  0  0  0  0  2  0  0  0  0  0  0
  182.3020  178.8510  137.5350 C   0  0  0  0  0  3  0  0  0  0  0  0
  183.3360  177.9540  137.8220 C   0  0  0  0  0  0  0  0  0  0  0  0
  183.6650  176.9550  136.8910 C   0  0  0  0  0  3  0  0  0  0  0  0
  183.3110  175.8580  134.7390 N   0  0  0  0  0  1  0  0  0  0  0  0
  181.9440  177.7720  135.3970 C   0  0  0  0  0  3  0  0  0  0  0  0
  182.9720  176.8680  135.6810 C   0  0  0  0  0  0  0  0  0  0  0  0
  181.6090  178.7630  136.3250 C   0  0  0  0  0  3  0  0  0  0  0  0
  190.4470  174.3510  137.7800 O   0  0  0  0  0  1  0  0  0  0  0  0
  191.2180  175.5030  137.6190 C   0  0  0  0  0  2  0  0  0  0  0  0
  2 24  1  0  0  0  0
  2 22  1  0  0  0  0
  3  7  1  1  0  0  0
  3 20  1  0  0  0  0
  3  9  1  0  0  0  0
  4 37  1  1  0  0  0
  4  1  1  0  0  0  0
  5 10  1  0  0  0  0
  6 22  1  1  0  0  0
  6 11  1  0  0  0  0
  7 21  2  0  0  0  0
  8 26  1  6  0  0  0
  8 12  1  0  0  0  0
  8 18  1  0  0  0  0
  9  6  1  0  0  0  0
 10 23  1  0  0  0  0
 10  7  1  0  0  0  0
 12  4  1  0  0  0  0
 13 17  1  0  0  0  0
 13  9  1  0  0  0  0
 14  2  1  0  0  0  0
 15 20  1  0  0  0  0
 16 11  1  0  0  0  0
 17  2  1  0  0  0  0
 18 19  1  0  0  0  0
 18 25  1  0  0  0  0
 19  5  1  0  0  0  0
 20 16  1  0  0  0  0
 21 13  1  0  0  0  0
 23 28  1  0  0  0  0
 25 27  1  0  0  0  0
 27  1  1  0  0  0  0
 27 21  1  0  0  0  0
 28 15  1  0  0  0  0
 29 30  1  0  0  0  0
 30 23  1  0  0  0  0
 31 30  2  0  0  0  0
 32 34  1  0  0  0  0
 33 34  2  0  0  0  0
 33 35  1  0  0  0  0
 34 31  1  0  0  0  0
 35 29  2  0  0  0  0
 37 36  1  0  0  0  0
M  END
>  <MODEL>
1

>  <REMARK>
 VINA RESULT:      -9.9      0.000      0.000
  Name = 
  2 active torsions:
  status: ('A' for Active; 'I' for Inactive)
    1  A    between atoms: C_4  and  C_37
    2  A    between atoms: C_23  and  C_30
                            x       y       z     vdW  Elec       q    Type
                         _______ _______ _______ _____ _____    ______ ____

>  <TORSDO>
F 2

$$$$
=
 OpenBabel11122411213D

 37 43  0  0  1  0  0  0  0  0999 V2000
  189.7770  176.9600  139.0540 C   0  0  0  0  0  2  0  0  0  0  0  0
  189.5440  177.3090  143.4230 C   0  0  0  0  0  0  0  0  0  0  0  0
  185.9850  178.6670  141.5580 C   0  0  2  0  0  3  0  0  0  0  0  0
  190.2500  176.7560  137.6060 C   0  0  2  0  0  3  0  0  0  0  0  0
  185.8970  179.1120  138.0950 O   0  0  0  0  0  0  0  0  0  0  0  0
  187.0600  177.8500  143.5820 C   0  0  2  0  0  3  0  0  0  0  0  0
  186.3370  178.2960  140.3160 C   0  0  0  0  0  0  0  0  0  0  0  0
  188.9550  177.8920  136.1580 C   0  0  2  0  0  3  0  0  0  0  0  0
  187.1930  178.7880  142.4090 C   0  0  1  0  0  3  0  0  0  0  0  0
  185.5160  178.1540  139.0510 C   0  0  1  0  0  3  0  0  0  0  0  0
  185.8730  178.3250  144.4150 C   0  0  0  0  0  2  0  0  0  0  0  0
  189.1550  176.6210  136.7310 O   0  0  0  0  0  0  0  0  0  0  0  0
  188.2620  178.3010  141.5220 C   0  0  1  0  0  3  0  0  0  0  0  0
  189.3650  175.8210  143.1710 C   0  0  0  0  0  1  0  0  0  0  0  0
  183.4240  178.5610  141.3980 C   0  0  0  0  0  2  0  0  0  0  0  0
  184.5770  178.2240  143.5770 C   0  0  0  0  0  2  0  0  0  0  0  0
  189.6330  178.0490  142.0650 C   0  0  0  0  0  2  0  0  0  0  0  0
  188.0760  178.8030  137.0470 C   0  0  1  0  0  3  0  0  0  0  0  0
  186.5870  178.3870  137.1070 C   0  0  0  0  0  2  0  0  0  0  0  0
  184.6480  178.9500  142.2120 C   0  0  1  0  0  3  0  0  0  0  0  0
  187.7780  178.0550  140.3140 C   0  0  0  0  0  0  0  0  0  0  0  0
  188.3970  177.8260  144.3330 C   0  0  0  0  0  2  0  0  0  0  0  0
  183.9990  178.0580  139.2320 C   0  0  1  0  0  3  0  0  0  0  0  0
  190.8550  177.5050  144.1540 C   0  0  0  0  0  1  0  0  0  0  0  0
  188.6670  179.0090  138.3160 O   0  0  0  0  0  0  0  0  0  0  0  0
  188.3910  177.7550  134.8900 O   0  0  0  0  0  1  0  0  0  0  0  0
  188.5230  177.8190  139.0480 C   0  0  1  0  0  3  0  0  0  0  0  0
  183.4870  179.1300  140.0660 N   0  0  0  0  0  2  0  0  0  0  0  0
  183.5710  176.9390  137.0380 C   0  0  0  0  0  3  0  0  0  0  0  0
  183.2590  177.9690  137.9310 C   0  0  0  0  0  0  0  0  0  0  0  0
  182.2920  178.9230  137.5770 C   0  0  0  0  0  3  0  0  0  0  0  0
  180.6560  179.8030  135.9930 N   0  0  0  0  0  1  0  0  0  0  0  0
  181.9490  177.8000  135.4600 C   0  0  0  0  0  3  0  0  0  0  0  0
  181.6380  178.8360  136.3450 C   0  0  0  0  0  0  0  0  0  0  0  0
  182.9170  176.8530  135.8060 C   0  0  0  0  0  3  0  0  0  0  0  0
  190.3660  174.3720  137.6730 O   0  0  0  0  0  1  0  0  0  0  0  0
  191.1350  175.5260  137.5120 C   0  0  0  0  0  2  0  0  0  0  0  0
  2 24  1  0  0  0  0
  2 22  1  0  0  0  0
  3  7  1  1  0  0  0
  3 20  1  0  0  0  0
  3  9  1  0  0  0  0
  4 37  1  1  0  0  0
  4  1  1  0  0  0  0
  5 10  1  0  0  0  0
  6 22  1  1  0  0  0
  6 11  1  0  0  0  0
  8 26  1  6  0  0  0
  8 12  1  0  0  0  0
  8 18  1  0  0  0  0
  9  6  1  0  0  0  0
 10 23  1  0  0  0  0
 10  7  1  0  0  0  0
 12  4  1  0  0  0  0
 13 17  1  0  0  0  0
 13  9  1  0  0  0  0
 14  2  1  0  0  0  0
 15 20  1  0  0  0  0
 16 11  1  0  0  0  0
 17  2  1  0  0  0  0
 18 19  1  0  0  0  0
 18 25  1  0  0  0  0
 19  5  1  0  0  0  0
 20 16  1  0  0  0  0
 21  7  2  0  0  0  0
 21 13  1  0  0  0  0
 23 28  1  0  0  0  0
 25 27  1  0  0  0  0
 27  1  1  0  0  0  0
 27 21  1  0  0  0  0
 28 15  1  0  0  0  0
 29 30  1  0  0  0  0
 30 23  1  0  0  0  0
 31 30  2  0  0  0  0
 32 34  1  0  0  0  0
 33 35  1  0  0  0  0
 33 34  2  0  0  0  0
 34 31  1  0  0  0  0
 35 29  2  0  0  0  0
 37 36  1  0  0  0  0
M  END
>  <MODEL>
2

>  <REMARK>
 VINA RESULT:      -9.8      0.815      1.138
  Name = 
  2 active torsions:
  status: ('A' for Active; 'I' for Inactive)
    1  A    between atoms: C_4  and  C_37
    2  A    between atoms: C_23  and  C_30
                            x       y       z     vdW  Elec       q    Type
                         _______ _______ _______ _____ _____    ______ ____

>  <TORSDO>
F 2

$$$$
=
 OpenBabel11122411213D

 37 43  0  0  1  0  0  0  0  0999 V2000
  184.4920  177.7920  139.1730 C   0  0  0  0  0  2  0  0  0  0  0  0
  187.4550  177.1940  135.9910 C   0  0  0  0  0  0  0  0  0  0  0  0
  189.3110  177.8340  139.7510 C   0  0  2  0  0  3  0  0  0  0  0  0
  183.1970  178.0200  139.9690 C   0  0  2  0  0  3  0  0  0  0  0  0
  187.4030  178.9100  142.4710 O   0  0  0  0  0  0  0  0  0  0  0  0
  189.5070  176.9710  137.4840 C   0  0  2  0  0  3  0  0  0  0  0  0
  188.1720  177.8300  140.4620 C   0  0  0  0  0  0  0  0  0  0  0  0
  183.6210  179.0070  141.9470 C   0  0  2  0  0  3  0  0  0  0  0  0
  189.0140  178.1200  138.3260 C   0  0  1  0  0  3  0  0  0  0  0  0
  187.9320  177.7140  141.9540 C   0  0  1  0  0  3  0  0  0  0  0  0
  191.0250  176.9180  137.6260 C   0  0  0  0  0  2  0  0  0  0  0  0
  183.3950  177.7570  141.3380 O   0  0  0  0  0  0  0  0  0  0  0  0
  187.5420  178.1390  138.3020 C   0  0  1  0  0  3  0  0  0  0  0  0
  186.9190  175.7960  136.2510 C   0  0  0  0  0  1  0  0  0  0  0  0
  191.0000  177.0450  141.5170 C   0  0  0  0  0  2  0  0  0  0  0  0
  191.4000  176.6240  139.0970 C   0  0  0  0  0  2  0  0  0  0  0  0
  186.8120  178.1820  136.9970 C   0  0  0  0  0  2  0  0  0  0  0  0
  185.1030  179.4400  141.8620 C   0  0  1  0  0  3  0  0  0  0  0  0
  186.0580  178.6180  142.7600 C   0  0  0  0  0  2  0  0  0  0  0  0
  190.7600  177.5940  140.1190 C   0  0  1  0  0  3  0  0  0  0  0  0
  187.0620  178.0100  139.5300 C   0  0  0  0  0  0  0  0  0  0  0  0
  189.0070  177.1770  136.0500 C   0  0  0  0  0  2  0  0  0  0  0  0
  189.0910  177.1610  142.7880 C   0  0  1  0  0  3  0  0  0  0  0  0
  187.0370  177.6030  134.5940 C   0  0  0  0  0  1  0  0  0  0  0  0
  185.5300  179.5500  140.5170 O   0  0  0  0  0  0  0  0  0  0  0  0
  183.1980  178.9700  143.2760 O   0  0  0  0  0  1  0  0  0  0  0  0
  185.6740  178.2470  140.0120 C   0  0  1  0  0  3  0  0  0  0  0  0
  190.3340  177.8590  142.5140 N   0  0  0  0  0  2  0  0  0  0  0  0
  187.4570  177.1290  144.6800 C   0  0  0  0  0  3  0  0  0  0  0  0
  188.7900  177.1250  144.2560 C   0  0  0  0  0  0  0  0  0  0  0  0
  189.8200  177.1320  145.2100 C   0  0  0  0  0  3  0  0  0  0  0  0
  190.5600  177.1310  147.5370 N   0  0  0  0  0  1  0  0  0  0  0  0
  188.1800  177.1250  146.9910 C   0  0  0  0  0  3  0  0  0  0  0  0
  189.5130  177.1290  146.5740 C   0  0  0  0  0  0  0  0  0  0  0  0
  187.1510  177.1270  146.0440 C   0  0  0  0  0  3  0  0  0  0  0  0
  182.4830  175.7950  139.4810 O   0  0  0  0  0  1  0  0  0  0  0  0
  182.0880  177.1330  139.4330 C   0  0  0  0  0  2  0  0  0  0  0  0
  1  4  1  0  0  0  0
  1 27  1  0  0  0  0
  2 22  1  0  0  0  0
  2 14  1  0  0  0  0
  2 17  1  0  0  0  0
  3 20  1  0  0  0  0
  3  7  1  6  0  0  0
  4 37  1  6  0  0  0
  4 12  1  0  0  0  0
  5 19  1  0  0  0  0
  6 22  1  6  0  0  0
  6 11  1  0  0  0  0
  6  9  1  0  0  0  0
  7 10  1  0  0  0  0
  8 26  1  1  0  0  0
  9  3  1  0  0  0  0
 10  5  1  0  0  0  0
 10 23  1  0  0  0  0
 11 16  1  0  0  0  0
 12  8  1  0  0  0  0
 13  9  1  0  0  0  0
 13 21  1  0  0  0  0
 15 28  1  0  0  0  0
 16 20  1  0  0  0  0
 17 13  1  0  0  0  0
 18  8  1  0  0  0  0
 18 19  1  0  0  0  0
 20 15  1  0  0  0  0
 21 27  1  0  0  0  0
 21  7  2  0  0  0  0
 23 30  1  0  0  0  0
 24  2  1  0  0  0  0
 25 18  1  0  0  0  0
 27 25  1  0  0  0  0
 28 23  1  0  0  0  0
 29 35  1  0  0  0  0
 30 29  2  0  0  0  0
 30 31  1  0  0  0  0
 31 34  2  0  0  0  0
 34 33  1  0  0  0  0
 34 32  1  0  0  0  0
 35 33  2  0  0  0  0
 37 36  1  0  0  0  0
M  END
>  <MODEL>
3

>  <REMARK>
 VINA RESULT:      -8.9      3.339      7.877
  Name = 
  2 active torsions:
  status: ('A' for Active; 'I' for Inactive)
    1  A    between atoms: C_4  and  C_37
    2  A    between atoms: C_23  and  C_30
                            x       y       z     vdW  Elec       q    Type
                         _______ _______ _______ _____ _____    ______ ____

>  <TORSDO>
F 2

$$$$
=
 OpenBabel11122411213D

 37 43  0  0  1  0  0  0  0  0999 V2000
  188.4000  177.5440  142.5650 C   0  0  0  0  0  2  0  0  0  0  0  0
  185.4420  178.5660  145.6420 C   0  0  0  0  0  0  0  0  0  0  0  0
  183.7880  178.8180  141.7450 C   0  0  2  0  0  3  0  0  0  0  0  0
  189.6920  177.2040  141.8050 C   0  0  2  0  0  3  0  0  0  0  0  0
  185.8800  178.6460  138.9540 O   0  0  0  0  0  0  0  0  0  0  0  0
  183.3890  178.5950  144.1350 C   0  0  2  0  0  3  0  0  0  0  0  0
  184.8660  178.3250  141.1130 C   0  0  0  0  0  0  0  0  0  0  0  0
  189.5380  177.7850  139.6370 C   0  0  2  0  0  3  0  0  0  0  0  0
  184.1790  179.3290  143.0810 C   0  0  1  0  0  3  0  0  0  0  0  0
  185.0370  177.8040  139.7000 C   0  0  1  0  0  3  0  0  0  0  0  0
  181.9180  178.9440  143.9310 C   0  0  0  0  0  2  0  0  0  0  0  0
  189.4040  176.6980  140.5230 O   0  0  0  0  0  0  0  0  0  0  0  0
  185.5930  178.9340  143.1760 C   0  0  1  0  0  3  0  0  0  0  0  0
  185.5480  177.0530  145.7340 C   0  0  0  0  0  1  0  0  0  0  0  0
  181.9150  178.1540  140.1190 C   0  0  0  0  0  2  0  0  0  0  0  0
  181.4500  178.4370  142.5480 C   0  0  0  0  0  2  0  0  0  0  0  0
  186.3260  179.0700  144.4740 C   0  0  0  0  0  2  0  0  0  0  0  0
  188.2450  178.6280  139.5450 C   0  0  1  0  0  3  0  0  0  0  0  0
  187.0800  177.9260  138.8080 C   0  0  0  0  0  2  0  0  0  0  0  0
  182.3250  178.9210  141.3660 C   0  0  1  0  0  3  0  0  0  0  0  0
  185.9960  178.3930  142.0360 C   0  0  0  0  0  0  0  0  0  0  0  0
  183.9500  178.9780  145.5090 C   0  0  0  0  0  2  0  0  0  0  0  0
  183.7550  177.4260  138.9550 C   0  0  1  0  0  3  0  0  0  0  0  0
  185.9830  179.1520  146.9300 C   0  0  0  0  0  1  0  0  0  0  0  0
  187.8900  179.1630  140.8060 O   0  0  0  0  0  0  0  0  0  0  0  0
  189.9100  177.3210  138.3740 O   0  0  0  0  0  1  0  0  0  0  0  0
  187.3850  178.1090  141.5850 C   0  0  1  0  0  3  0  0  0  0  0  0
  182.7710  178.4920  138.9990 N   0  0  0  0  0  2  0  0  0  0  0  0
  183.3890  177.6370  136.4910 C   0  0  0  0  0  3  0  0  0  0  0  0
  184.0090  176.9660  137.5500 C   0  0  0  0  0  0  0  0  0  0  0  0
  184.8200  175.8520  137.2850 C   0  0  0  0  0  3  0  0  0  0  0  0
  185.8430  174.2970  135.7040 N   0  0  0  0  0  1  0  0  0  0  0  0
  184.4010  176.1030  134.9140 C   0  0  0  0  0  3  0  0  0  0  0  0
  185.0170  175.4240  135.9690 C   0  0  0  0  0  0  0  0  0  0  0  0
  183.5860  177.2080  135.1750 C   0  0  0  0  0  3  0  0  0  0  0  0
  191.6370  176.7990  143.1290 O   0  0  0  0  0  1  0  0  0  0  0  0
  190.5070  176.1880  142.5850 C   0  0  0  0  0  2  0  0  0  0  0  0
  2 14  1  0  0  0  0
  2 24  1  0  0  0  0
  3  7  1  1  0  0  0
  3  9  1  0  0  0  0
  4  1  1  0  0  0  0
  4 37  1  1  0  0  0
  5 10  1  0  0  0  0
  6 11  1  1  0  0  0
  6 22  1  0  0  0  0
  7 21  2  0  0  0  0
  8 26  1  6  0  0  0
  8 12  1  0  0  0  0
  9 13  1  0  0  0  0
  9  6  1  0  0  0  0
 10  7  1  0  0  0  0
 12  4  1  0  0  0  0
 13 17  1  0  0  0  0
 15 20  1  0  0  0  0
 16 11  1  0  0  0  0
 17  2  1  0  0  0  0
 18  8  1  0  0  0  0
 18 25  1  0  0  0  0
 19  5  1  0  0  0  0
 19 18  1  0  0  0  0
 20  3  1  0  0  0  0
 20 16  1  0  0  0  0
 21 13  1  0  0  0  0
 22  2  1  0  0  0  0
 23 28  1  0  0  0  0
 23 10  1  0  0  0  0
 25 27  1  0  0  0  0
 27 21  1  0  0  0  0
 27  1  1  0  0  0  0
 28 15  1  0  0  0  0
 29 30  1  0  0  0  0
 30 23  1  0  0  0  0
 31 30  2  0  0  0  0
 32 34  1  0  0  0  0
 33 35  1  0  0  0  0
 33 34  2  0  0  0  0
 34 31  1  0  0  0  0
 35 29  2  0  0  0  0
 37 36  1  0  0  0  0
M  END
>  <MODEL>
4

>  <REMARK>
 VINA RESULT:      -8.3      1.922      3.295
  Name = 
  2 active torsions:
  status: ('A' for Active; 'I' for Inactive)
    1  A    between atoms: C_4  and  C_37
    2  A    between atoms: C_23  and  C_30
                            x       y       z     vdW  Elec       q    Type
                         _______ _______ _______ _____ _____    ______ ____

>  <TORSDO>
F 2

$$$$
=
 OpenBabel11122411213D

 37 43  0  0  1  0  0  0  0  0999 V2000
  189.1930  177.0390  143.1930 C   0  0  0  0  0  2  0  0  0  0  0  0
  185.7190  178.2690  145.5770 C   0  0  0  0  0  0  0  0  0  0  0  0
  185.0760  178.9170  141.4340 C   0  0  2  0  0  3  0  0  0  0  0  0
  190.5830  176.5780  142.7280 C   0  0  2  0  0  3  0  0  0  0  0  0
  187.7410  178.6230  139.1960 O   0  0  0  0  0  0  0  0  0  0  0  0
  184.0990  178.6280  143.6440 C   0  0  2  0  0  3  0  0  0  0  0  0
  186.2130  178.3250  141.0310 C   0  0  0  0  0  0  0  0  0  0  0  0
  191.0140  177.2800  140.6330 C   0  0  2  0  0  3  0  0  0  0  0  0
  185.1920  179.3090  142.8600 C   0  0  1  0  0  3  0  0  0  0  0  0
  186.6570  177.8570  139.6600 C   0  0  1  0  0  3  0  0  0  0  0  0
  182.7660  179.1680  143.1350 C   0  0  0  0  0  2  0  0  0  0  0  0
  190.5550  176.1760  141.3780 O   0  0  0  0  0  0  0  0  0  0  0  0
  186.4910  178.7370  143.2480 C   0  0  1  0  0  3  0  0  0  0  0  0
  185.6340  176.7520  145.5730 C   0  0  0  0  0  1  0  0  0  0  0  0
  183.5830  178.5730  139.3750 C   0  0  0  0  0  2  0  0  0  0  0  0
  182.5880  178.7910  141.6460 C   0  0  0  0  0  2  0  0  0  0  0  0
  186.9050  178.7150  144.6850 C   0  0  0  0  0  2  0  0  0  0  0  0
  189.8810  178.2810  140.3120 C   0  0  1  0  0  3  0  0  0  0  0  0
  188.8540  177.7670  139.2750 C   0  0  0  0  0  2  0  0  0  0  0  0
  183.7660  179.2200  140.7390 C   0  0  1  0  0  3  0  0  0  0  0  0
  187.0910  178.2070  142.1920 C   0  0  0  0  0  0  0  0  0  0  0  0
  184.3560  178.8690  145.1360 C   0  0  0  0  0  2  0  0  0  0  0  0
  185.5560  177.6790  138.6130 C   0  0  1  0  0  3  0  0  0  0  0  0
  185.9990  178.7180  146.9950 C   0  0  0  0  0  1  0  0  0  0  0  0
  189.2960  178.7930  141.4940 O   0  0  0  0  0  0  0  0  0  0  0  0
  191.6230  176.8370  139.4580 O   0  0  0  0  0  1  0  0  0  0  0  0
  188.5080  177.7730  142.0530 C   0  0  1  0  0  3  0  0  0  0  0  0
  184.7120  178.8560  138.5110 N   0  0  0  0  0  2  0  0  0  0  0  0
  186.3910  178.2430  136.3250 C   0  0  0  0  0  3  0  0  0  0  0  0
  186.0840  177.2610  137.2730 C   0  0  0  0  0  0  0  0  0  0  0  0
  186.2340  175.9050  136.9410 C   0  0  0  0  0  3  0  0  0  0  0  0
  186.8540  174.1660  135.3430 N   0  0  0  0  0  1  0  0  0  0  0  0
  187.0120  176.5260  134.7340 C   0  0  0  0  0  3  0  0  0  0  0  0
  186.6990  175.5410  135.6750 C   0  0  0  0  0  0  0  0  0  0  0  0
  186.8560  177.8770  135.0590 C   0  0  0  0  0  3  0  0  0  0  0  0
  191.8580  175.9230  144.6380 O   0  0  0  0  0  1  0  0  0  0  0  0
  191.0730  175.4310  143.5930 C   0  0  0  0  0  2  0  0  0  0  0  0
  2 24  1  0  0  0  0
  3  7  1  1  0  0  0
  3  9  1  0  0  0  0
  4  1  1  0  0  0  0
  4 37  1  1  0  0  0
  5 19  1  0  0  0  0
  5 10  1  0  0  0  0
  6 11  1  6  0  0  0
  6 22  1  0  0  0  0
  7 21  2  0  0  0  0
  8 26  1  6  0  0  0
  8 12  1  0  0  0  0
  9 13  1  0  0  0  0
  9  6  1  0  0  0  0
 10  7  1  0  0  0  0
 12  4  1  0  0  0  0
 13 17  1  0  0  0  0
 14  2  1  0  0  0  0
 15 20  1  0  0  0  0
 16 11  1  0  0  0  0
 17  2  1  0  0  0  0
 18  8  1  0  0  0  0
 18 25  1  0  0  0  0
 19 18  1  0  0  0  0
 20  3  1  0  0  0  0
 20 16  1  0  0  0  0
 21 13  1  0  0  0  0
 22  2  1  0  0  0  0
 23 10  1  0  0  0  0
 25 27  1  0  0  0  0
 27 21  1  0  0  0  0
 27  1  1  0  0  0  0
 28 23  1  0  0  0  0
 28 15  1  0  0  0  0
 29 30  1  0  0  0  0
 30 23  1  0  0  0  0
 31 30  2  0  0  0  0
 32 34  1  0  0  0  0
 33 35  1  0  0  0  0
 33 34  2  0  0  0  0
 34 31  1  0  0  0  0
 35 29  2  0  0  0  0
 37 36  1  0  0  0  0
M  END
>  <MODEL>
5

>  <REMARK>
 VINA RESULT:      -7.5      2.223      3.817
  Name = 
  2 active torsions:
  status: ('A' for Active; 'I' for Inactive)
    1  A    between atoms: C_4  and  C_37
    2  A    between atoms: C_23  and  C_30
                            x       y       z     vdW  Elec       q    Type
                         _______ _______ _______ _____ _____    ______ ____

>  <TORSDO>
F 2

$$$$
=
 OpenBabel11122411213D

 37 43  0  0  1  0  0  0  0  0999 V2000
  184.5000  178.2460  143.4130 C   0  0  0  0  0  2  0  0  0  0  0  0
  180.1330  178.6610  143.2790 C   0  0  0  0  0  0  0  0  0  0  0  0
  181.7950  178.4030  139.3850 C   0  0  2  0  0  3  0  0  0  0  0  0
  185.9710  178.1870  143.8560 C   0  0  2  0  0  3  0  0  0  0  0  0
  185.2540  178.6260  138.9540 O   0  0  0  0  0  0  0  0  0  0  0  0
  179.8280  178.1710  140.7980 C   0  0  2  0  0  3  0  0  0  0  0  0
  183.0490  178.1500  139.7940 C   0  0  0  0  0  0  0  0  0  0  0  0
  187.3560  178.6470  142.1430 C   0  0  2  0  0  3  0  0  0  0  0  0
  181.0250  179.0320  140.4850 C   0  0  1  0  0  3  0  0  0  0  0  0
  184.2580  177.6370  139.0370 C   0  0  1  0  0  3  0  0  0  0  0  0
  178.9310  178.1670  139.5640 C   0  0  0  0  0  2  0  0  0  0  0  0
  186.7720  177.5880  142.8640 O   0  0  0  0  0  0  0  0  0  0  0  0
  181.9680  178.9750  141.6140 C   0  0  1  0  0  3  0  0  0  0  0  0
  180.3440  177.2160  143.7000 C   0  0  0  0  0  1  0  0  0  0  0  0
  181.7920  177.2770  137.0780 C   0  0  0  0  0  2  0  0  0  0  0  0
  179.6830  177.5220  138.3770 C   0  0  0  0  0  2  0  0  0  0  0  0
  181.5080  179.3160  142.9960 C   0  0  0  0  0  2  0  0  0  0  0  0
  186.4310  179.1680  141.0180 C   0  0  1  0  0  3  0  0  0  0  0  0
  186.2690  178.1960  139.8260 C   0  0  0  0  0  2  0  0  0  0  0  0
  181.0640  178.1560  138.0830 C   0  0  1  0  0  3  0  0  0  0  0  0
  183.1380  178.5050  141.2090 C   0  0  0  0  0  0  0  0  0  0  0  0
  179.1630  178.7150  142.0680 C   0  0  0  0  0  2  0  0  0  0  0  0
  183.9790  176.9520  137.6970 C   0  0  1  0  0  3  0  0  0  0  0  0
  179.4900  179.3960  144.4360 C   0  0  0  0  0  1  0  0  0  0  0  0
  185.2060  179.6480  141.5390 O   0  0  0  0  0  0  0  0  0  0  0  0
  188.5830  178.2420  141.6180 O   0  0  0  0  0  1  0  0  0  0  0  0
  184.4440  178.5320  141.9220 C   0  0  1  0  0  3  0  0  0  0  0  0
  183.1360  177.7650  136.8400 N   0  0  0  0  0  2  0  0  0  0  0  0
  185.7820  177.3500  136.0120 C   0  0  0  0  0  3  0  0  0  0  0  0
  185.2280  176.5190  136.9910 C   0  0  0  0  0  0  0  0  0  0  0  0
  185.8250  175.2770  137.2640 C   0  0  0  0  0  3  0  0  0  0  0  0
  187.5750  173.6250  136.8530 N   0  0  0  0  0  1  0  0  0  0  0  0
  187.5250  175.7210  135.5980 C   0  0  0  0  0  3  0  0  0  0  0  0
  186.9720  174.8820  136.5700 C   0  0  0  0  0  0  0  0  0  0  0  0
  186.9290  176.9540  135.3180 C   0  0  0  0  0  3  0  0  0  0  0  0
  187.2090  177.8560  145.8700 O   0  0  0  0  0  1  0  0  0  0  0  0
  186.0970  177.4100  145.1530 C   0  0  0  0  0  2  0  0  0  0  0  0
  1  4  1  0  0  0  0
  2 14  1  0  0  0  0
  2 24  1  0  0  0  0
  3  7  1  1  0  0  0
  3  9  1  0  0  0  0
  4 37  1  1  0  0  0
  5 10  1  0  0  0  0
  5 19  1  0  0  0  0
  6 11  1  6  0  0  0
  6 22  1  0  0  0  0
  7 21  2  0  0  0  0
  8 26  1  6  0  0  0
  8 12  1  0  0  0  0
  9  6  1  0  0  0  0
  9 13  1  0  0  0  0
 10  7  1  0  0  0  0
 12  4  1  0  0  0  0
 13 17  1  0  0  0  0
 15 20  1  0  0  0  0
 16 11  1  0  0  0  0
 17  2  1  0  0  0  0
 18 25  1  0  0  0  0
 18  8  1  0  0  0  0
 19 18  1  0  0  0  0
 20 16  1  0  0  0  0
 20  3  1  0  0  0  0
 21 13  1  0  0  0  0
 21 27  1  0  0  0  0
 22  2  1  0  0  0  0
 23 10  1  0  0  0  0
 25 27  1  0  0  0  0
 27  1  1  0  0  0  0
 28 15  1  0  0  0  0
 28 23  1  0  0  0  0
 29 30  1  0  0  0  0
 30 31  2  0  0  0  0
 30 23  1  0  0  0  0
 33 34  2  0  0  0  0
 34 32  1  0  0  0  0
 34 31  1  0  0  0  0
 35 33  1  0  0  0  0
 35 29  2  0  0  0  0
 37 36  1  0  0  0  0
M  END
>  <MODEL>
6

>  <REMARK>
 VINA RESULT:      -7.0      2.996      6.323
  Name = 
  2 active torsions:
  status: ('A' for Active; 'I' for Inactive)
    1  A    between atoms: C_4  and  C_37
    2  A    between atoms: C_23  and  C_30
                            x       y       z     vdW  Elec       q    Type
                         _______ _______ _______ _____ _____    ______ ____

>  <TORSDO>
F 2

$$$$
