=
 OpenBabel11122410373D

 32 37  0  0  1  0  0  0  0  0999 V2000
  191.8560  175.2550  137.9010 C   0  0  0  0  0  2  0  0  0  0  0  0
  189.0930  177.9710  141.6780 C   0  0  1  0  0  3  0  0  0  0  0  0
  191.7500  176.2700  145.5440 C   0  0  0  0  0  3  0  0  0  0  0  0
  190.6770  176.5000  146.4060 C   0  0  0  0  0  3  0  0  0  0  0  0
  186.5720  178.2490  142.0920 C   0  0  0  0  0  0  0  0  0  0  0  0
  185.4870  178.3540  143.0730 C   0  0  0  0  0  0  0  0  0  0  0  0
  190.1540  177.5440  139.4420 C   0  0  1  0  0  3  0  0  0  0  0  0
  191.5840  177.6970  141.4980 C   0  0  0  0  0  2  0  0  0  0  0  0
  184.5020  178.3690  145.0480 N   0  0  0  0  0  0  0  0  0  0  0  0
  192.7060  177.1980  139.3300 C   0  0  0  0  0  2  0  0  0  0  0  0
  191.6490  176.6130  144.1950 C   0  0  0  0  0  3  0  0  0  0  0  0
  190.3650  177.5380  142.2930 N   0  0  0  0  0  0  0  0  0  0  0  0
  190.4690  177.1830  143.6890 C   0  0  0  0  0  0  0  0  0  0  0  0
  188.1560  178.0750  144.0260 C   0  0  2  0  0  3  0  0  0  0  0  0
  183.4780  178.7070  144.2100 O   0  0  0  0  0  0  0  0  0  0  0  0
  190.3320  175.4770  137.9250 C   0  0  0  0  0  2  0  0  0  0  0  0
  191.4200  177.0190  140.1440 C   0  0  2  0  0  3  0  0  0  0  0  0
  184.0800  178.8080  142.9190 C   0  0  0  0  0  2  0  0  0  0  0  0
  189.9110  176.9470  138.0490 C   0  0  0  0  0  2  0  0  0  0  0  0
  192.6770  176.5500  137.9410 C   0  0  1  0  0  3  0  0  0  0  0  0
  189.4990  177.0670  145.9160 C   0  0  0  0  0  3  0  0  0  0  0  0
  189.3800  177.3920  144.5560 C   0  0  0  0  0  0  0  0  0  0  0  0
  186.9760  177.8590  144.8770 N   0  0  0  0  0  2  0  0  0  0  0  0
  188.9350  177.2850  140.3200 C   0  0  0  0  0  2  0  0  0  0  0  0
  186.3860  178.5880  140.8930 O   0  0  0  0  0  0  0  0  0  0  0  0
  184.5350  178.8470  146.4190 C   0  0  0  0  0  1  0  0  0  0  0  0
  187.8830  177.6450  142.5690 C   0  0  2  0  0  3  0  0  0  0  0  0
  185.6830  178.1300  144.3270 C   0  0  0  0  0  0  0  0  0  0  0  0
  194.0410  176.2930  137.5040 N   0  0  0  0  0  2  0  0  0  0  0  0
  194.4060  176.2090  136.1260 C   0  0  0  0  0  0  0  0  0  0  0  0
  193.5460  176.3830  135.2220 O   0  0  0  0  0  0  0  0  0  0  0  0
  195.7550  175.9300  135.7710 N   0  0  0  0  0  1  0  0  0  0  0  0
  1 16  1  0  0  0  0
  1 20  1  0  0  0  0
  2 24  1  6  0  0  0
  2 12  1  0  0  0  0
  2 27  1  0  0  0  0
  3  4  1  0  0  0  0
  5  6  1  0  0  0  0
  6 28  2  0  0  0  0
  7 19  1  6  0  0  0
  7 17  1  0  0  0  0
  7 24  1  0  0  0  0
  8 12  1  0  0  0  0
  9 26  1  0  0  0  0
 11  3  2  0  0  0  0
 12 13  1  0  0  0  0
 13 11  1  0  0  0  0
 13 22  2  0  0  0  0
 14 22  1  1  0  0  0
 14 23  1  0  0  0  0
 15  9  1  0  0  0  0
 16 19  1  0  0  0  0
 17 10  1  6  0  0  0
 17  8  1  0  0  0  0
 18  6  1  0  0  0  0
 18 15  1  0  0  0  0
 20 29  1  1  0  0  0
 20 10  1  0  0  0  0
 21  4  2  0  0  0  0
 22 21  1  0  0  0  0
 25  5  2  0  0  0  0
 27  5  1  6  0  0  0
 27 14  1  0  0  0  0
 28 23  1  0  0  0  0
 28  9  1  0  0  0  0
 30 29  1  0  0  0  0
 31 30  2  0  0  0  0
 32 30  1  0  0  0  0
M  END
>  <MODEL>
1

>  <REMARK>
 VINA RESULT:     -10.8      0.000      0.000
  Name = 
  1 active torsions:
  status: ('A' for Active; 'I' for Inactive)
    1  A    between atoms: C_20  and  N_29
                            x       y       z     vdW  Elec       q    Type
                         _______ _______ _______ _____ _____    ______ ____

>  <TORSDO>
F 1

$$$$
=
 OpenBabel11122410373D

 32 37  0  0  1  0  0  0  0  0999 V2000
  181.9610  177.7100  139.4510 C   0  0  0  0  0  2  0  0  0  0  0  0
  186.3720  178.5300  142.4750 C   0  0  1  0  0  3  0  0  0  0  0  0
  189.6280  177.0130  139.0110 C   0  0  0  0  0  3  0  0  0  0  0  0
  190.5600  176.6970  140.0010 C   0  0  0  0  0  3  0  0  0  0  0  0
  186.9360  177.8820  144.8970 C   0  0  0  0  0  0  0  0  0  0  0  0
  187.9560  177.4220  145.8460 C   0  0  0  0  0  0  0  0  0  0  0  0
  184.0590  178.9480  141.5910 C   0  0  1  0  0  3  0  0  0  0  0  0
  186.0370  179.1220  140.0570 C   0  0  0  0  0  2  0  0  0  0  0  0
  189.9160  176.7030  146.5620 N   0  0  0  0  0  0  0  0  0  0  0  0
  183.7710  179.4800  139.0860 C   0  0  0  0  0  2  0  0  0  0  0  0
  188.4010  177.5790  139.3620 C   0  0  0  0  0  3  0  0  0  0  0  0
  186.8190  178.4140  141.0730 N   0  0  0  0  0  0  0  0  0  0  0  0
  188.0880  177.8280  140.7090 C   0  0  0  0  0  0  0  0  0  0  0  0
  188.7140  177.8310  143.1320 C   0  0  2  0  0  3  0  0  0  0  0  0
  189.2200  176.8570  147.7270 O   0  0  0  0  0  0  0  0  0  0  0  0
  182.0940  177.4160  140.9570 C   0  0  0  0  0  2  0  0  0  0  0  0
  184.5690  178.7270  140.1550 C   0  0  2  0  0  3  0  0  0  0  0  0
  187.9670  177.4160  147.3320 C   0  0  0  0  0  2  0  0  0  0  0  0
  182.5750  178.6100  141.7920 C   0  0  0  0  0  2  0  0  0  0  0  0
  182.2710  179.1630  139.0680 C   0  0  1  0  0  3  0  0  0  0  0  0
  190.2620  176.9400  141.3430 C   0  0  0  0  0  3  0  0  0  0  0  0
  189.0220  177.4860  141.7060 C   0  0  0  0  0  0  0  0  0  0  0  0
  189.5350  177.0700  144.0860 N   0  0  0  0  0  2  0  0  0  0  0  0
  184.8980  178.1290  142.5660 C   0  0  0  0  0  2  0  0  0  0  0  0
  185.8580  178.3850  145.3110 O   0  0  0  0  0  0  0  0  0  0  0  0
  191.3580  176.8680  146.5240 C   0  0  0  0  0  1  0  0  0  0  0  0
  187.2080  177.6500  143.4200 C   0  0  2  0  0  3  0  0  0  0  0  0
  189.1140  177.0160  145.4520 C   0  0  0  0  0  0  0  0  0  0  0  0
  181.7340  179.4600  137.7480 N   0  0  0  0  0  2  0  0  0  0  0  0
  181.1800  180.7320  137.4100 C   0  0  0  0  0  0  0  0  0  0  0  0
  181.1590  181.6690  138.2520 O   0  0  0  0  0  0  0  0  0  0  0  0
  180.6500  180.9440  136.1070 N   0  0  0  0  0  1  0  0  0  0  0  0
  1 16  1  0  0  0  0
  2 24  1  6  0  0  0
  2 27  1  0  0  0  0
  3 11  2  0  0  0  0
  3  4  1  0  0  0  0
  4 21  2  0  0  0  0
  5 25  2  0  0  0  0
  5  6  1  0  0  0  0
  6 18  1  0  0  0  0
  7 19  1  6  0  0  0
  7 24  1  0  0  0  0
  8 17  1  0  0  0  0
  8 12  1  0  0  0  0
  9 15  1  0  0  0  0
 11 13  1  0  0  0  0
 12  2  1  0  0  0  0
 13 12  1  0  0  0  0
 13 22  2  0  0  0  0
 14 22  1  6  0  0  0
 14 27  1  0  0  0  0
 14 23  1  0  0  0  0
 16 19  1  0  0  0  0
 17 10  1  6  0  0  0
 17  7  1  0  0  0  0
 18 15  1  0  0  0  0
 20 29  1  6  0  0  0
 20 10  1  0  0  0  0
 20  1  1  0  0  0  0
 21 22  1  0  0  0  0
 23 28  1  0  0  0  0
 26  9  1  0  0  0  0
 27  5  1  1  0  0  0
 28  6  2  0  0  0  0
 28  9  1  0  0  0  0
 30 29  1  0  0  0  0
 30 31  2  0  0  0  0
 32 30  1  0  0  0  0
M  END
>  <MODEL>
2

>  <REMARK>
 VINA RESULT:      -9.7      3.909      7.585
  Name = 
  1 active torsions:
  status: ('A' for Active; 'I' for Inactive)
    1  A    between atoms: C_20  and  N_29
                            x       y       z     vdW  Elec       q    Type
                         _______ _______ _______ _____ _____    ______ ____

>  <TORSDO>
F 1

$$$$
=
 OpenBabel11122410373D

 32 37  0  0  1  0  0  0  0  0999 V2000
  192.3100  174.7900  137.3210 C   0  0  0  0  0  2  0  0  0  0  0  0
  189.3180  177.8550  140.6270 C   0  0  1  0  0  3  0  0  0  0  0  0
  191.6290  176.4490  144.8210 C   0  0  0  0  0  3  0  0  0  0  0  0
  190.4960  176.7650  145.5720 C   0  0  0  0  0  3  0  0  0  0  0  0
  186.7790  178.2030  140.8150 C   0  0  0  0  0  0  0  0  0  0  0  0
  185.6230  178.4060  141.6950 C   0  0  0  0  0  0  0  0  0  0  0  0
  190.5410  177.2260  138.5260 C   0  0  1  0  0  3  0  0  0  0  0  0
  191.8090  177.5310  140.6700 C   0  0  0  0  0  2  0  0  0  0  0  0
  184.4870  178.6010  143.5760 N   0  0  0  0  0  0  0  0  0  0  0  0
  193.0860  176.8350  138.6470 C   0  0  0  0  0  2  0  0  0  0  0  0
  191.6410  176.6780  143.4440 C   0  0  0  0  0  3  0  0  0  0  0  0
  190.5280  177.4570  141.3750 N   0  0  0  0  0  0  0  0  0  0  0  0
  190.5160  177.2190  142.8000 C   0  0  0  0  0  0  0  0  0  0  0  0
  188.2030  178.1700  142.8770 C   0  0  2  0  0  3  0  0  0  0  0  0
  183.5390  178.8810  142.6340 O   0  0  0  0  0  0  0  0  0  0  0  0
  190.7940  175.0350  137.2050 C   0  0  0  0  0  2  0  0  0  0  0  0
  191.7380  176.7440  139.3680 C   0  0  2  0  0  3  0  0  0  0  0  0
  184.2420  178.8640  141.3920 C   0  0  0  0  0  2  0  0  0  0  0  0
  190.3960  176.5170  137.1730 C   0  0  0  0  0  2  0  0  0  0  0  0
  193.1530  176.0730  137.3190 C   0  0  1  0  0  3  0  0  0  0  0  0
  189.3720  177.3060  144.9450 C   0  0  0  0  0  3  0  0  0  0  0  0
  189.3670  177.5170  143.5580 C   0  0  0  0  0  0  0  0  0  0  0  0
  186.9560  178.0430  143.6460 N   0  0  0  0  0  2  0  0  0  0  0  0
  189.2520  177.0590  139.3230 C   0  0  0  0  0  2  0  0  0  0  0  0
  186.6940  178.4420  139.5810 O   0  0  0  0  0  0  0  0  0  0  0  0
  184.4230  179.1930  144.9010 C   0  0  0  0  0  1  0  0  0  0  0  0
  188.0350  177.6220  141.4430 C   0  0  2  0  0  3  0  0  0  0  0  0
  185.7160  178.2850  142.9740 C   0  0  0  0  0  0  0  0  0  0  0  0
  194.5410  175.7600  137.0140 N   0  0  0  0  0  2  0  0  0  0  0  0
  195.2990  174.8090  137.7630 C   0  0  0  0  0  0  0  0  0  0  0  0
  194.7730  174.1760  138.7170 O   0  0  0  0  0  0  0  0  0  0  0  0
  196.6600  174.5700  137.4240 N   0  0  0  0  0  1  0  0  0  0  0  0
  2 24  1  6  0  0  0
  2 12  1  0  0  0  0
  2 27  1  0  0  0  0
  3  4  1  0  0  0  0
  5  6  1  0  0  0  0
  6 28  2  0  0  0  0
  7 19  1  6  0  0  0
  7 24  1  0  0  0  0
  7 17  1  0  0  0  0
  8 12  1  0  0  0  0
  9 26  1  0  0  0  0
 11  3  2  0  0  0  0
 12 13  1  0  0  0  0
 13 11  1  0  0  0  0
 13 22  2  0  0  0  0
 14 22  1  1  0  0  0
 14 23  1  0  0  0  0
 15  9  1  0  0  0  0
 16  1  1  0  0  0  0
 17 10  1  6  0  0  0
 17  8  1  0  0  0  0
 18  6  1  0  0  0  0
 18 15  1  0  0  0  0
 19 16  1  0  0  0  0
 20 29  1  1  0  0  0
 20  1  1  0  0  0  0
 20 10  1  0  0  0  0
 21  4  2  0  0  0  0
 22 21  1  0  0  0  0
 25  5  2  0  0  0  0
 27  5  1  6  0  0  0
 27 14  1  0  0  0  0
 28  9  1  0  0  0  0
 28 23  1  0  0  0  0
 29 30  1  0  0  0  0
 30 31  2  0  0  0  0
 32 30  1  0  0  0  0
M  END
>  <MODEL>
3

>  <REMARK>
 VINA RESULT:      -9.4      1.376      1.439
  Name = 
  1 active torsions:
  status: ('A' for Active; 'I' for Inactive)
    1  A    between atoms: C_20  and  N_29
                            x       y       z     vdW  Elec       q    Type
                         _______ _______ _______ _____ _____    ______ ____

>  <TORSDO>
F 1

$$$$
=
 OpenBabel11122410373D

 32 37  0  0  1  0  0  0  0  0999 V2000
  189.8600  175.7010  138.0830 C   0  0  0  0  0  2  0  0  0  0  0  0
  185.9920  178.6950  140.3970 C   0  0  1  0  0  3  0  0  0  0  0  0
  187.1970  177.5040  145.0910 C   0  0  0  0  0  3  0  0  0  0  0  0
  185.8970  177.7830  145.5150 C   0  0  0  0  0  3  0  0  0  0  0  0
  183.4790  178.9220  139.9140 C   0  0  0  0  0  0  0  0  0  0  0  0
  182.1270  179.0890  140.4590 C   0  0  0  0  0  0  0  0  0  0  0  0
  187.7410  178.0750  138.7040 C   0  0  1  0  0  3  0  0  0  0  0  0
  188.3990  178.4940  141.0900 C   0  0  0  0  0  2  0  0  0  0  0  0
  180.5370  179.2740  141.9780 N   0  0  0  0  0  0  0  0  0  0  0  0
  190.1820  177.8130  139.4890 C   0  0  0  0  0  2  0  0  0  0  0  0
  187.5550  177.7010  143.7560 C   0  0  0  0  0  3  0  0  0  0  0  0
  186.9830  178.3750  141.4450 N   0  0  0  0  0  0  0  0  0  0  0  0
  186.6130  178.1710  142.8260 C   0  0  0  0  0  0  0  0  0  0  0  0
  184.3220  179.0090  142.2720 C   0  0  2  0  0  3  0  0  0  0  0  0
  179.8530  179.4840  140.8140 O   0  0  0  0  0  0  0  0  0  0  0  0
  188.4170  175.8690  137.5720 C   0  0  0  0  0  2  0  0  0  0  0  0
  188.6980  177.6730  139.8420 C   0  0  2  0  0  3  0  0  0  0  0  0
  180.8540  179.4720  139.7960 C   0  0  0  0  0  2  0  0  0  0  0  0
  187.9790  177.3280  137.3860 C   0  0  0  0  0  2  0  0  0  0  0  0
  190.6210  177.0230  138.2510 C   0  0  1  0  0  3  0  0  0  0  0  0
  184.9520  178.2530  144.6010 C   0  0  0  0  0  3  0  0  0  0  0  0
  185.2960  178.4300  143.2520 C   0  0  0  0  0  0  0  0  0  0  0  0
  182.9250  178.8390  142.6990 N   0  0  0  0  0  2  0  0  0  0  0  0
  186.2980  177.8650  139.1490 C   0  0  0  0  0  2  0  0  0  0  0  0
  183.7060  179.1270  138.6920 O   0  0  0  0  0  0  0  0  0  0  0  0
  180.1090  179.8930  143.2190 C   0  0  0  0  0  1  0  0  0  0  0  0
  184.5530  178.4180  140.8640 C   0  0  2  0  0  3  0  0  0  0  0  0
  181.8910  179.0040  141.7230 C   0  0  0  0  0  0  0  0  0  0  0  0
  192.0530  176.7720  138.3250 N   0  0  0  0  0  2  0  0  0  0  0  0
  192.8000  176.2470  137.2270 C   0  0  0  0  0  0  0  0  0  0  0  0
  192.2400  176.0010  136.1270 O   0  0  0  0  0  0  0  0  0  0  0  0
  194.1940  176.0030  137.3780 N   0  0  0  0  0  1  0  0  0  0  0  0
  1 20  1  0  0  0  0
  2 24  1  6  0  0  0
  2 27  1  0  0  0  0
  2 12  1  0  0  0  0
  3  4  1  0  0  0  0
  5  6  1  0  0  0  0
  6 28  2  0  0  0  0
  7 19  1  6  0  0  0
  7 24  1  0  0  0  0
  7 17  1  0  0  0  0
  8 12  1  0  0  0  0
  9 26  1  0  0  0  0
 11  3  2  0  0  0  0
 12 13  1  0  0  0  0
 13 22  2  0  0  0  0
 13 11  1  0  0  0  0
 14 23  1  1  0  0  0
 14 22  1  0  0  0  0
 15  9  1  0  0  0  0
 16  1  1  0  0  0  0
 17 10  1  6  0  0  0
 17  8  1  0  0  0  0
 18  6  1  0  0  0  0
 18 15  1  0  0  0  0
 19 16  1  0  0  0  0
 20 29  1  1  0  0  0
 20 10  1  0  0  0  0
 21  4  2  0  0  0  0
 22 21  1  0  0  0  0
 25  5  2  0  0  0  0
 27  5  1  6  0  0  0
 27 14  1  0  0  0  0
 28  9  1  0  0  0  0
 28 23  1  0  0  0  0
 30 32  1  0  0  0  0
 30 29  1  0  0  0  0
 31 30  2  0  0  0  0
M  END
>  <MODEL>
4

>  <REMARK>
 VINA RESULT:      -8.9      2.458      3.752
  Name = 
  1 active torsions:
  status: ('A' for Active; 'I' for Inactive)
    1  A    between atoms: C_20  and  N_29
                            x       y       z     vdW  Elec       q    Type
                         _______ _______ _______ _____ _____    ______ ____

>  <TORSDO>
F 1

$$$$
=
 OpenBabel11122410373D

 32 37  0  0  1  0  0  0  0  0999 V2000
  188.6840  175.6370  136.5280 C   0  0  0  0  0  2  0  0  0  0  0  0
  187.8770  178.2250  141.2110 C   0  0  1  0  0  3  0  0  0  0  0  0
  191.7290  176.1320  143.5950 C   0  0  0  0  0  3  0  0  0  0  0  0
  191.1120  176.3560  144.8270 C   0  0  0  0  0  3  0  0  0  0  0  0
  185.7620  178.6000  142.6220 C   0  0  0  0  0  0  0  0  0  0  0  0
  185.1730  178.6920  143.9620 C   0  0  0  0  0  0  0  0  0  0  0  0
  187.9160  177.8990  138.7210 C   0  0  1  0  0  3  0  0  0  0  0  0
  190.0590  177.8380  140.0270 C   0  0  0  0  0  2  0  0  0  0  0  0
  185.0670  178.6210  146.1650 N   0  0  0  0  0  0  0  0  0  0  0  0
  190.1760  177.4340  137.5710 C   0  0  0  0  0  2  0  0  0  0  0  0
  191.1210  176.5710  142.4180 C   0  0  0  0  0  3  0  0  0  0  0  0
  189.2530  177.6870  141.2400 N   0  0  0  0  0  0  0  0  0  0  0  0
  189.8820  177.2320  142.4570 C   0  0  0  0  0  0  0  0  0  0  0  0
  187.9710  178.2150  143.7400 C   0  0  2  0  0  3  0  0  0  0  0  0
  183.8200  179.0660  145.8290 O   0  0  0  0  0  0  0  0  0  0  0  0
  187.3190  175.9340  137.1760 C   0  0  0  0  0  2  0  0  0  0  0  0
  189.3160  177.2640  138.8280 C   0  0  2  0  0  3  0  0  0  0  0  0
  183.8600  179.2250  144.4100 C   0  0  0  0  0  2  0  0  0  0  0  0
  187.0920  177.4110  137.5220 C   0  0  0  0  0  2  0  0  0  0  0  0
  189.5450  176.8840  136.2870 C   0  0  1  0  0  3  0  0  0  0  0  0
  189.8810  177.0130  144.8800 C   0  0  0  0  0  3  0  0  0  0  0  0
  189.2510  177.4360  143.7000 C   0  0  0  0  0  0  0  0  0  0  0  0
  187.2200  178.0000  144.9860 N   0  0  0  0  0  2  0  0  0  0  0  0
  187.1370  177.6410  140.0060 C   0  0  0  0  0  2  0  0  0  0  0  0
  185.1360  179.0290  141.6160 O   0  0  0  0  0  0  0  0  0  0  0  0
  185.6830  179.0020  147.4240 C   0  0  0  0  0  1  0  0  0  0  0  0
  187.1060  177.8990  142.5010 C   0  0  2  0  0  3  0  0  0  0  0  0
  185.8390  178.3730  145.0180 C   0  0  0  0  0  0  0  0  0  0  0  0
  190.5960  176.5890  135.3240 N   0  0  0  0  0  2  0  0  0  0  0  0
  191.6450  175.6580  135.5910 C   0  0  0  0  0  0  0  0  0  0  0  0
  191.6840  175.0270  136.6800 O   0  0  0  0  0  0  0  0  0  0  0  0
  192.6540  175.4360  134.6120 N   0  0  0  0  0  1  0  0  0  0  0  0
  1 16  1  0  0  0  0
  2 24  1  6  0  0  0
  2 12  1  0  0  0  0
  2 27  1  0  0  0  0
  3  4  1  0  0  0  0
  4 21  2  0  0  0  0
  5  6  1  0  0  0  0
  6 18  1  0  0  0  0
  6 28  2  0  0  0  0
  7 19  1  6  0  0  0
  7 17  1  0  0  0  0
  7 24  1  0  0  0  0
  8 12  1  0  0  0  0
  9 26  1  0  0  0  0
 11 13  1  0  0  0  0
 11  3  2  0  0  0  0
 12 13  1  0  0  0  0
 13 22  2  0  0  0  0
 14 22  1  1  0  0  0
 14 23  1  0  0  0  0
 15  9  1  0  0  0  0
 16 19  1  0  0  0  0
 17 10  1  6  0  0  0
 17  8  1  0  0  0  0
 18 15  1  0  0  0  0
 20 29  1  6  0  0  0
 20  1  1  0  0  0  0
 20 10  1  0  0  0  0
 22 21  1  0  0  0  0
 23 28  1  0  0  0  0
 25  5  2  0  0  0  0
 27  5  1  1  0  0  0
 27 14  1  0  0  0  0
 28  9  1  0  0  0  0
 29 30  1  0  0  0  0
 30 31  2  0  0  0  0
 32 30  1  0  0  0  0
M  END
>  <MODEL>
5

>  <REMARK>
 VINA RESULT:      -8.7      1.767      2.158
  Name = 
  1 active torsions:
  status: ('A' for Active; 'I' for Inactive)
    1  A    between atoms: C_20  and  N_29
                            x       y       z     vdW  Elec       q    Type
                         _______ _______ _______ _____ _____    ______ ____

>  <TORSDO>
F 1

$$$$
=
 OpenBabel11122410373D

 32 37  0  0  1  0  0  0  0  0999 V2000
  186.9750  176.7530  145.4770 C   0  0  0  0  0  2  0  0  0  0  0  0
  183.9550  178.7840  141.4740 C   0  0  1  0  0  3  0  0  0  0  0  0
  179.6490  178.6460  143.9930 C   0  0  0  0  0  3  0  0  0  0  0  0
  178.9310  178.5920  142.7970 C   0  0  0  0  0  3  0  0  0  0  0  0
  183.8040  178.2050  138.9750 C   0  0  0  0  0  0  0  0  0  0  0  0
  182.9490  178.0470  137.7940 C   0  0  0  0  0  0  0  0  0  0  0  0
  185.9900  178.4730  142.9120 C   0  0  1  0  0  3  0  0  0  0  0  0
  183.8770  179.3860  143.9120 C   0  0  0  0  0  2  0  0  0  0  0  0
  181.0940  177.9680  136.6010 N   0  0  0  0  0  0  0  0  0  0  0  0
  185.8290  179.0390  145.4210 C   0  0  0  0  0  2  0  0  0  0  0  0
  181.0410  178.7540  143.9680 C   0  0  0  0  0  3  0  0  0  0  0  0
  183.1720  178.9110  142.7200 N   0  0  0  0  0  0  0  0  0  0  0  0
  181.7320  178.7990  142.7460 C   0  0  0  0  0  0  0  0  0  0  0  0
  181.7440  178.8540  140.2440 C   0  0  2  0  0  3  0  0  0  0  0  0
  182.0590  177.8110  135.6480 O   0  0  0  0  0  0  0  0  0  0  0  0
  187.1160  176.4240  143.9800 C   0  0  0  0  0  2  0  0  0  0  0  0
  185.1070  178.5250  144.1720 C   0  0  2  0  0  3  0  0  0  0  0  0
  183.2940  177.9500  136.3520 C   0  0  0  0  0  2  0  0  0  0  0  0
  187.2770  177.6540  143.0770 C   0  0  0  0  0  2  0  0  0  0  0  0
  187.0860  178.2480  145.8020 C   0  0  1  0  0  3  0  0  0  0  0  0
  179.6060  178.6380  141.5760 C   0  0  0  0  0  3  0  0  0  0  0  0
  181.0060  178.7210  141.5420 C   0  0  0  0  0  0  0  0  0  0  0  0
  180.9700  178.3470  139.1010 N   0  0  0  0  0  2  0  0  0  0  0  0
  185.1850  177.9160  141.7430 C   0  0  0  0  0  2  0  0  0  0  0  0
  185.0550  178.2980  138.8520 O   0  0  0  0  0  0  0  0  0  0  0  0
  179.8260  178.6010  136.2840 C   0  0  0  0  0  1  0  0  0  0  0  0
  183.1250  178.1690  140.3340 C   0  0  2  0  0  3  0  0  0  0  0  0
  181.6630  178.0700  137.8810 C   0  0  0  0  0  0  0  0  0  0  0  0
  187.3590  178.4350  147.2200 N   0  0  0  0  0  2  0  0  0  0  0  0
  188.6000  178.0640  147.8210 C   0  0  0  0  0  0  0  0  0  0  0  0
  189.5300  177.5750  147.1270 O   0  0  0  0  0  0  0  0  0  0  0  0
  188.7880  178.2530  149.2190 N   0  0  0  0  0  1  0  0  0  0  0  0
  1 20  1  0  0  0  0
  2 24  1  1  0  0  0
  2 12  1  0  0  0  0
  4  3  2  0  0  0  0
  6 28  2  0  0  0  0
  6  5  1  0  0  0  0
  7 24  1  6  0  0  0
  7 19  1  0  0  0  0
  7 17  1  0  0  0  0
  9 28  1  0  0  0  0
 10 20  1  0  0  0  0
 11  3  1  0  0  0  0
 12 13  1  0  0  0  0
 12  8  1  0  0  0  0
 13 11  2  0  0  0  0
 14 23  1  6  0  0  0
 14 27  1  0  0  0  0
 14 22  1  0  0  0  0
 15 18  1  0  0  0  0
 15  9  1  0  0  0  0
 16  1  1  0  0  0  0
 17  8  1  6  0  0  0
 17 10  1  0  0  0  0
 18  6  1  0  0  0  0
 19 16  1  0  0  0  0
 20 29  1  1  0  0  0
 21  4  1  0  0  0  0
 22 21  2  0  0  0  0
 22 13  1  0  0  0  0
 25  5  2  0  0  0  0
 26  9  1  0  0  0  0
 27  5  1  6  0  0  0
 27  2  1  0  0  0  0
 28 23  1  0  0  0  0
 29 30  1  0  0  0  0
 30 32  1  0  0  0  0
 31 30  2  0  0  0  0
M  END
>  <MODEL>
6

>  <REMARK>
 VINA RESULT:      -7.9      5.638      9.046
  Name = 
  1 active torsions:
  status: ('A' for Active; 'I' for Inactive)
    1  A    between atoms: C_20  and  N_29
                            x       y       z     vdW  Elec       q    Type
                         _______ _______ _______ _____ _____    ______ ____

>  <TORSDO>
F 1

$$$$
