=
 OpenBabel11122412063D

 34 40  0  0  1  0  0  0  0  0999 V2000
  184.3900  178.9160  143.9720 C   0  0  2  0  0  3  0  0  0  0  0  0
  181.9910  179.2860  143.3660 C   0  0  0  0  0  2  0  0  0  0  0  0
  190.6930  177.1670  141.9010 C   0  0  0  0  0  0  0  0  0  0  0  0
  186.8870  178.2760  144.1700 C   0  0  0  0  0  0  0  0  0  0  0  0
  188.2010  177.9870  142.0860 C   0  0  0  0  0  0  0  0  0  0  0  0
  189.5100  178.1480  140.1310 O   0  0  0  0  0  0  0  0  0  0  0  0
  191.8060  177.5520  141.4550 O   0  0  0  0  0  0  0  0  0  0  0  0
  189.5830  176.0320  143.9200 C   0  0  0  0  0  2  0  0  0  0  0  0
  183.4020  178.3050  141.6390 C   0  0  2  0  0  3  0  0  0  0  0  0
  182.9010  179.4590  138.7310 C   0  0  0  0  0  2  0  0  0  0  0  0
  187.1410  178.3270  141.4040 N   0  0  0  0  0  0  0  0  0  0  0  0
  189.2320  177.4400  144.3470 C   0  0  0  0  0  2  0  0  0  0  0  0
  184.6850  179.0050  141.1430 C   0  0  1  0  0  3  0  0  0  0  0  0
  181.1310  179.0900  142.1370 C   0  0  0  0  0  2  0  0  0  0  0  0
  188.1220  177.9130  143.5300 N   0  0  0  0  0  0  0  0  0  0  0  0
  190.7030  176.0320  142.8890 C   0  0  0  0  0  2  0  0  0  0  0  0
  182.1780  179.9210  139.9910 C   0  0  2  0  0  3  0  0  0  0  0  0
  185.7160  178.5800  143.3280 C   0  0  0  0  0  0  0  0  0  0  0  0
  189.4640  177.7650  141.3310 C   0  0  0  0  0  0  0  0  0  0  0  0
  185.8600  178.6070  141.9990 C   0  0  0  0  0  0  0  0  0  0  0  0
  185.5790  178.7480  146.1650 C   0  0  0  0  0  2  0  0  0  0  0  0
  184.3290  179.7220  138.8410 N   0  0  0  0  0  2  0  0  0  0  0  0
  186.7910  178.3100  145.4680 N   0  0  0  0  0  0  0  0  0  0  0  0
  184.9260  178.6870  139.6720 C   0  0  0  0  0  2  0  0  0  0  0  0
  182.0760  178.7570  140.9910 C   0  0  1  0  0  3  0  0  0  0  0  0
  184.3280  178.3450  145.3890 C   0  0  0  0  0  2  0  0  0  0  0  0
  183.1940  178.3960  143.1600 C   0  0  1  0  0  3  0  0  0  0  0  0
  180.9020  180.3670  139.6350 O   0  0  0  0  0  0  0  0  0  0  0  0
  180.8200  180.1560  138.2560 C   0  0  0  0  0  2  0  0  0  0  0  0
  180.7190  183.3540  137.4940 N   0  0  0  0  0  2  0  0  0  0  0  0
  180.3460  181.3540  136.3040 C   0  0  0  0  0  2  0  0  0  0  0  0
  179.9030  181.1170  137.6660 N   0  0  0  0  0  0  0  0  0  0  0  0
  180.5150  182.8390  136.1580 C   0  0  0  0  0  2  0  0  0  0  0  0
  180.0910  182.3770  138.3760 C   0  0  0  0  0  2  0  0  0  0  0  0
  1 26  1  1  0  0  0
  3 16  1  0  0  0  0
  4 23  2  0  0  0  0
  5 15  1  0  0  0  0
  6 19  2  0  0  0  0
  7  3  2  0  0  0  0
  8 12  1  0  0  0  0
  9 27  1  0  0  0  0
 10 22  1  0  0  0  0
 10 17  1  0  0  0  0
 11 20  1  0  0  0  0
 11  5  2  0  0  0  0
 13  9  1  0  0  0  0
 13 20  1  0  0  0  0
 14  2  1  0  0  0  0
 15  4  1  0  0  0  0
 15 12  1  0  0  0  0
 16  8  1  0  0  0  0
 17 25  1  0  0  0  0
 18  1  1  0  0  0  0
 18  4  1  0  0  0  0
 19  3  1  0  0  0  0
 19  5  1  0  0  0  0
 20 18  2  0  0  0  0
 22 24  1  0  0  0  0
 23 21  1  0  0  0  0
 24 13  1  0  0  0  0
 25  9  1  0  0  0  0
 25 14  1  0  0  0  0
 26 21  1  0  0  0  0
 27  2  1  0  0  0  0
 27  1  1  0  0  0  0
 28 17  1  0  0  0  0
 29 28  1  0  0  0  0
 30 34  1  0  0  0  0
 31 32  1  0  0  0  0
 32 29  1  0  0  0  0
 32 34  1  0  0  0  0
 33 31  1  0  0  0  0
 33 30  1  0  0  0  0
M  END
>  <MODEL>
1

>  <REMARK>
 VINA RESULT:      -9.0      0.000      0.000
  Name = 
  3 active torsions:
  status: ('A' for Active; 'I' for Inactive)
    1  A    between atoms: C_17  and  O_28
    2  A    between atoms: O_28  and  C_29
    3  A    between atoms: C_29  and  N_32
                            x       y       z     vdW  Elec       q    Type
                         _______ _______ _______ _____ _____    ______ ____

>  <TORSDO>
F 3

$$$$
=
 OpenBabel11122412063D

 34 40  0  0  1  0  0  0  0  0999 V2000
  182.4210  178.5320  143.8590 C   0  0  2  0  0  3  0  0  0  0  0  0
  183.8930  178.6420  145.8800 C   0  0  0  0  0  2  0  0  0  0  0  0
  181.9320  178.7670  137.0200 C   0  0  0  0  0  0  0  0  0  0  0  0
  181.2850  178.6380  141.5390 C   0  0  0  0  0  0  0  0  0  0  0  0
  182.7150  178.5080  139.5170 C   0  0  0  0  0  0  0  0  0  0  0  0
  184.0380  177.9490  137.6460 O   0  0  0  0  0  0  0  0  0  0  0  0
  181.9350  178.1260  135.9350 O   0  0  0  0  0  0  0  0  0  0  0  0
  180.4550  180.2370  138.5200 C   0  0  0  0  0  2  0  0  0  0  0  0
  184.9410  179.1890  143.7490 C   0  0  2  0  0  3  0  0  0  0  0  0
  187.8490  177.9860  143.3760 C   0  0  0  0  0  2  0  0  0  0  0  0
  183.7530  178.3580  140.2940 N   0  0  0  0  0  0  0  0  0  0  0  0
  180.2220  178.9660  139.3050 C   0  0  0  0  0  2  0  0  0  0  0  0
  184.9330  178.2030  142.5620 C   0  0  1  0  0  3  0  0  0  0  0  0
  185.3500  178.9380  146.1560 C   0  0  0  0  0  2  0  0  0  0  0  0
  181.4060  178.6890  140.1080 N   0  0  0  0  0  0  0  0  0  0  0  0
  180.9880  179.9340  137.1270 C   0  0  0  0  0  2  0  0  0  0  0  0
  186.9630  177.7690  144.5980 C   0  0  2  0  0  3  0  0  0  0  0  0
  182.5120  178.5370  142.3510 C   0  0  0  0  0  0  0  0  0  0  0  0
  182.9350  178.4080  138.0480 C   0  0  0  0  0  0  0  0  0  0  0  0
  183.6890  178.3950  141.7320 C   0  0  0  0  0  0  0  0  0  0  0  0
  179.9390  178.5820  143.5640 C   0  0  0  0  0  2  0  0  0  0  0  0
  187.2150  177.4330  142.1870 N   0  0  0  0  0  2  0  0  0  0  0  0
  180.1190  178.7070  142.1160 N   0  0  0  0  0  0  0  0  0  0  0  0
  186.1980  178.3690  141.7290 C   0  0  0  0  0  2  0  0  0  0  0  0
  186.0500  178.9890  144.8040 C   0  0  1  0  0  3  0  0  0  0  0  0
  181.1200  179.1910  144.3150 C   0  0  0  0  0  2  0  0  0  0  0  0
  183.6130  179.2420  144.5220 C   0  0  1  0  0  3  0  0  0  0  0  0
  187.7820  177.5830  145.7150 O   0  0  0  0  0  0  0  0  0  0  0  0
  188.9740  177.0660  145.2030 C   0  0  0  0  0  2  0  0  0  0  0  0
  190.9920  175.9410  147.5430 N   0  0  0  0  0  2  0  0  0  0  0  0
  191.2990  176.9500  145.4350 C   0  0  0  0  0  2  0  0  0  0  0  0
  190.0950  177.5300  146.0040 N   0  0  0  0  0  0  0  0  0  0  0  0
  192.0050  176.2390  146.5550 C   0  0  0  0  0  2  0  0  0  0  0  0
  189.9480  176.9350  147.3280 C   0  0  0  0  0  2  0  0  0  0  0  0
  1 26  1  6  0  0  0
  1 27  1  0  0  0  0
  2 14  1  0  0  0  0
  3 16  1  0  0  0  0
  3 19  1  0  0  0  0
  4 23  2  0  0  0  0
  4 18  1  0  0  0  0
  5 15  1  0  0  0  0
  5 11  2  0  0  0  0
  6 19  2  0  0  0  0
  7  3  2  0  0  0  0
  8 12  1  0  0  0  0
  9 27  1  0  0  0  0
  9 25  1  0  0  0  0
 10 17  1  0  0  0  0
 11 20  1  0  0  0  0
 12 15  1  0  0  0  0
 13  9  1  0  0  0  0
 15  4  1  0  0  0  0
 16  8  1  0  0  0  0
 17 25  1  0  0  0  0
 17 28  1  0  0  0  0
 18  1  1  0  0  0  0
 19  5  1  0  0  0  0
 20 18  2  0  0  0  0
 20 13  1  0  0  0  0
 21 26  1  0  0  0  0
 22 10  1  0  0  0  0
 23 21  1  0  0  0  0
 24 22  1  0  0  0  0
 24 13  1  0  0  0  0
 25 14  1  0  0  0  0
 27  2  1  0  0  0  0
 29 28  1  0  0  0  0
 29 32  1  0  0  0  0
 31 32  1  0  0  0  0
 31 33  1  0  0  0  0
 32 34  1  0  0  0  0
 33 30  1  0  0  0  0
 34 30  1  0  0  0  0
M  END
>  <MODEL>
2

>  <REMARK>
 VINA RESULT:      -8.9      2.533      8.691
  Name = 
  3 active torsions:
  status: ('A' for Active; 'I' for Inactive)
    1  A    between atoms: C_17  and  O_28
    2  A    between atoms: O_28  and  C_29
    3  A    between atoms: C_29  and  N_32
                            x       y       z     vdW  Elec       q    Type
                         _______ _______ _______ _____ _____    ______ ____

>  <TORSDO>
F 3

$$$$
=
 OpenBabel11122412063D

 34 40  0  0  1  0  0  0  0  0999 V2000
  189.7090  177.1490  143.7080 C   0  0  2  0  0  3  0  0  0  0  0  0
  191.9350  176.9330  142.5870 C   0  0  0  0  0  2  0  0  0  0  0  0
  183.0850  178.8530  143.1730 C   0  0  0  0  0  0  0  0  0  0  0  0
  187.2980  177.6700  144.4810 C   0  0  0  0  0  0  0  0  0  0  0  0
  185.5740  178.1140  142.7540 C   0  0  0  0  0  0  0  0  0  0  0  0
  183.8890  178.0980  141.1040 O   0  0  0  0  0  0  0  0  0  0  0  0
  181.9100  178.4710  142.9270 O   0  0  0  0  0  0  0  0  0  0  0  0
  184.5720  179.8230  145.0280 C   0  0  0  0  0  2  0  0  0  0  0  0
  190.1780  178.0260  141.2990 C   0  0  2  0  0  3  0  0  0  0  0  0
  190.0820  177.1850  138.2450 C   0  0  0  0  0  2  0  0  0  0  0  0
  186.4740  177.8840  141.8370 N   0  0  0  0  0  0  0  0  0  0  0  0
  185.0280  178.3950  145.2230 C   0  0  0  0  0  2  0  0  0  0  0  0
  188.8320  177.3290  141.0070 C   0  0  1  0  0  3  0  0  0  0  0  0
  192.5170  177.2820  141.2350 C   0  0  0  0  0  2  0  0  0  0  0  0
  185.9510  178.0480  144.1510 N   0  0  0  0  0  0  0  0  0  0  0  0
  183.2620  179.8830  144.2550 C   0  0  0  0  0  2  0  0  0  0  0  0
  191.0590  176.6280  139.2750 C   0  0  2  0  0  3  0  0  0  0  0  0
  188.2730  177.4960  143.3900 C   0  0  0  0  0  0  0  0  0  0  0  0
  184.1770  178.3610  142.3030 C   0  0  0  0  0  0  0  0  0  0  0  0
  187.8550  177.5960  142.1230 C   0  0  0  0  0  0  0  0  0  0  0  0
  189.0010  177.0530  146.1040 C   0  0  0  0  0  2  0  0  0  0  0  0
  188.7130  176.8580  138.6180 N   0  0  0  0  0  2  0  0  0  0  0  0
  187.6630  177.5120  145.7210 N   0  0  0  0  0  0  0  0  0  0  0  0
  188.2850  177.7820  139.6590 C   0  0  0  0  0  2  0  0  0  0  0  0
  191.3480  177.6900  140.3490 C   0  0  1  0  0  3  0  0  0  0  0  0
  190.0560  177.5790  145.1340 C   0  0  0  0  0  2  0  0  0  0  0  0
  190.7010  177.7930  142.7260 C   0  0  1  0  0  3  0  0  0  0  0  0
  192.2400  176.2690  138.6190 O   0  0  0  0  0  0  0  0  0  0  0  0
  191.9190  176.3000  137.2600 C   0  0  0  0  0  2  0  0  0  0  0  0
  195.1140  175.6890  136.7750 N   0  0  0  0  0  2  0  0  0  0  0  0
  193.2730  174.4080  137.5010 C   0  0  0  0  0  2  0  0  0  0  0  0
  192.7610  175.3630  136.5350 N   0  0  0  0  0  0  0  0  0  0  0  0
  194.7690  174.4110  137.3600 C   0  0  0  0  0  2  0  0  0  0  0  0
  193.9180  176.1120  136.0560 C   0  0  0  0  0  2  0  0  0  0  0  0
  1 26  1  1  0  0  0
  2 27  1  0  0  0  0
  3 16  1  0  0  0  0
  4 23  2  0  0  0  0
  5 15  1  0  0  0  0
  6 19  2  0  0  0  0
  7  3  2  0  0  0  0
  8 12  1  0  0  0  0
  9 27  1  0  0  0  0
 10 22  1  0  0  0  0
 10 17  1  0  0  0  0
 11 20  1  0  0  0  0
 11  5  2  0  0  0  0
 13  9  1  0  0  0  0
 13 20  1  0  0  0  0
 14  2  1  0  0  0  0
 15  4  1  0  0  0  0
 15 12  1  0  0  0  0
 16  8  1  0  0  0  0
 17 25  1  0  0  0  0
 18  1  1  0  0  0  0
 18  4  1  0  0  0  0
 19  5  1  0  0  0  0
 19  3  1  0  0  0  0
 20 18  2  0  0  0  0
 22 24  1  0  0  0  0
 23 21  1  0  0  0  0
 24 13  1  0  0  0  0
 25 14  1  0  0  0  0
 25  9  1  0  0  0  0
 26 21  1  0  0  0  0
 27  1  1  0  0  0  0
 28 17  1  0  0  0  0
 29 28  1  0  0  0  0
 30 33  1  0  0  0  0
 32 29  1  0  0  0  0
 32 31  1  0  0  0  0
 33 31  1  0  0  0  0
 34 32  1  0  0  0  0
 34 30  1  0  0  0  0
M  END
>  <MODEL>
3

>  <REMARK>
 VINA RESULT:      -8.4      3.776      8.712
  Name = 
  3 active torsions:
  status: ('A' for Active; 'I' for Inactive)
    1  A    between atoms: C_17  and  O_28
    2  A    between atoms: O_28  and  C_29
    3  A    between atoms: C_29  and  N_32
                            x       y       z     vdW  Elec       q    Type
                         _______ _______ _______ _____ _____    ______ ____

>  <TORSDO>
F 3

$$$$
=
 OpenBabel11122412063D

 34 40  0  0  1  0  0  0  0  0999 V2000
  182.2040  178.5680  143.6680 C   0  0  2  0  0  3  0  0  0  0  0  0
  183.9190  178.5620  145.4890 C   0  0  0  0  0  2  0  0  0  0  0  0
  180.8300  179.3780  136.9950 C   0  0  0  0  0  0  0  0  0  0  0  0
  180.7760  178.8290  141.5290 C   0  0  0  0  0  0  0  0  0  0  0  0
  181.9360  178.9360  139.3400 C   0  0  0  0  0  0  0  0  0  0  0  0
  183.0230  178.5970  137.2740 O   0  0  0  0  0  0  0  0  0  0  0  0
  180.7130  178.8360  135.8650 O   0  0  0  0  0  0  0  0  0  0  0  0
  179.5160  180.6500  138.7970 C   0  0  0  0  0  2  0  0  0  0  0  0
  184.6670  179.3360  143.3030 C   0  0  2  0  0  3  0  0  0  0  0  0
  187.5380  178.2900  142.4590 C   0  0  0  0  0  2  0  0  0  0  0  0
  183.0700  178.7610  139.9640 N   0  0  0  0  0  0  0  0  0  0  0  0
  179.4240  179.3070  139.4860 C   0  0  0  0  0  2  0  0  0  0  0  0
  184.5360  178.4570  142.0410 C   0  0  1  0  0  3  0  0  0  0  0  0
  185.3910  178.8920  145.6060 C   0  0  0  0  0  2  0  0  0  0  0  0
  180.7090  179.0100  140.1050 N   0  0  0  0  0  0  0  0  0  0  0  0
  179.8740  180.4920  137.3270 C   0  0  0  0  0  2  0  0  0  0  0  0
  186.8230  177.9310  143.7570 C   0  0  2  0  0  3  0  0  0  0  0  0
  182.0990  178.7080  142.1670 C   0  0  0  0  0  0  0  0  0  0  0  0
  181.9680  178.9730  137.8520 C   0  0  0  0  0  0  0  0  0  0  0  0
  183.1910  178.6700  141.3950 C   0  0  0  0  0  0  0  0  0  0  0  0
  179.7040  178.5410  143.6930 C   0  0  0  0  0  2  0  0  0  0  0  0
  186.7730  177.8180  141.3130 N   0  0  0  0  0  2  0  0  0  0  0  0
  179.6920  178.8000  142.2510 N   0  0  0  0  0  0  0  0  0  0  0  0
  185.6780  178.7470  141.0740 C   0  0  0  0  0  2  0  0  0  0  0  0
  185.9080  179.0900  144.1880 C   0  0  1  0  0  3  0  0  0  0  0  0
  180.9530  179.1310  144.3430 C   0  0  0  0  0  2  0  0  0  0  0  0
  183.4490  179.2660  144.2380 C   0  0  1  0  0  3  0  0  0  0  0  0
  187.7850  177.6820  144.7410 O   0  0  0  0  0  0  0  0  0  0  0  0
  188.6790  176.7870  144.1490 C   0  0  0  0  0  2  0  0  0  0  0  0
  191.7590  177.4290  143.1920 N   0  0  0  0  0  2  0  0  0  0  0  0
  190.2810  178.3770  144.7640 C   0  0  0  0  0  2  0  0  0  0  0  0
  190.0000  176.9530  144.7340 N   0  0  0  0  0  0  0  0  0  0  0  0
  191.5950  178.5720  144.0630 C   0  0  0  0  0  2  0  0  0  0  0  0
  190.9560  176.3730  143.7970 C   0  0  0  0  0  2  0  0  0  0  0  0
  1 27  1  0  0  0  0
  1 26  1  1  0  0  0
  2 14  1  0  0  0  0
  3 16  1  0  0  0  0
  3 19  1  0  0  0  0
  4 18  1  0  0  0  0
  4 23  2  0  0  0  0
  5 11  2  0  0  0  0
  5 15  1  0  0  0  0
  6 19  2  0  0  0  0
  7  3  2  0  0  0  0
  8 12  1  0  0  0  0
  9 25  1  0  0  0  0
  9 27  1  0  0  0  0
 10 17  1  0  0  0  0
 11 20  1  0  0  0  0
 12 15  1  0  0  0  0
 13  9  1  0  0  0  0
 15  4  1  0  0  0  0
 16  8  1  0  0  0  0
 17 25  1  0  0  0  0
 17 28  1  0  0  0  0
 18  1  1  0  0  0  0
 19  5  1  0  0  0  0
 20 13  1  0  0  0  0
 20 18  2  0  0  0  0
 21 26  1  0  0  0  0
 22 10  1  0  0  0  0
 23 21  1  0  0  0  0
 24 22  1  0  0  0  0
 24 13  1  0  0  0  0
 25 14  1  0  0  0  0
 27  2  1  0  0  0  0
 29 32  1  0  0  0  0
 29 28  1  0  0  0  0
 30 34  1  0  0  0  0
 30 33  1  0  0  0  0
 32 31  1  0  0  0  0
 33 31  1  0  0  0  0
 34 32  1  0  0  0  0
M  END
>  <MODEL>
4

>  <REMARK>
 VINA RESULT:      -8.1      2.213      8.478
  Name = 
  3 active torsions:
  status: ('A' for Active; 'I' for Inactive)
    1  A    between atoms: C_17  and  O_28
    2  A    between atoms: O_28  and  C_29
    3  A    between atoms: C_29  and  N_32
                            x       y       z     vdW  Elec       q    Type
                         _______ _______ _______ _____ _____    ______ ____

>  <TORSDO>
F 3

$$$$
=
 OpenBabel11122412063D

 34 40  0  0  1  0  0  0  0  0999 V2000
  188.6630  176.8220  137.2830 C   0  0  2  0  0  3  0  0  0  0  0  0
  186.9180  177.8580  138.7460 C   0  0  0  0  0  2  0  0  0  0  0  0
  195.2690  175.1960  136.3940 C   0  0  0  0  0  0  0  0  0  0  0  0
  190.7880  176.0090  136.0540 C   0  0  0  0  0  0  0  0  0  0  0  0
  192.8950  175.8080  137.3460 C   0  0  0  0  0  0  0  0  0  0  0  0
  194.7480  175.2160  138.6790 O   0  0  0  0  0  0  0  0  0  0  0  0
  196.1770  174.3360  136.5430 O   0  0  0  0  0  0  0  0  0  0  0  0
  193.9560  176.4910  134.6070 C   0  0  0  0  0  2  0  0  0  0  0  0
  189.2310  178.1420  139.4570 C   0  0  2  0  0  3  0  0  0  0  0  0
  189.6920  177.7940  142.5720 C   0  0  0  0  0  2  0  0  0  0  0  0
  192.2400  176.1680  138.4160 N   0  0  0  0  0  0  0  0  0  0  0  0
  192.8870  175.4450  134.8280 C   0  0  0  0  0  2  0  0  0  0  0  0
  190.1610  176.9340  139.6990 C   0  0  1  0  0  3  0  0  0  0  0  0
  186.8990  178.6280  140.0470 C   0  0  0  0  0  2  0  0  0  0  0  0
  192.1980  175.7360  136.0790 N   0  0  0  0  0  0  0  0  0  0  0  0
  195.3030  176.0220  135.1370 C   0  0  0  0  0  2  0  0  0  0  0  0
  188.3520  177.6370  141.8640 C   0  0  2  0  0  3  0  0  0  0  0  0
  190.1350  176.4780  137.2900 C   0  0  0  0  0  0  0  0  0  0  0  0
  194.3210  175.4150  137.5100 C   0  0  0  0  0  0  0  0  0  0  0  0
  190.8500  176.5400  138.4180 C   0  0  0  0  0  0  0  0  0  0  0  0
  188.6480  176.0640  134.9000 C   0  0  0  0  0  2  0  0  0  0  0  0
  190.6420  176.8020  142.0860 N   0  0  0  0  0  2  0  0  0  0  0  0
  190.0990  175.8740  134.9570 N   0  0  0  0  0  0  0  0  0  0  0  0
  191.1630  177.2530  140.8030 C   0  0  0  0  0  2  0  0  0  0  0  0
  188.3060  178.5450  140.6240 C   0  0  1  0  0  3  0  0  0  0  0  0
  188.2040  177.1610  135.8640 C   0  0  0  0  0  2  0  0  0  0  0  0
  188.3280  177.9920  138.2210 C   0  0  1  0  0  3  0  0  0  0  0  0
  187.3330  177.9830  142.7570 O   0  0  0  0  0  0  0  0  0  0  0  0
  187.7210  177.4260  143.9770 C   0  0  0  0  0  2  0  0  0  0  0  0
  186.3430  178.7320  146.6620 N   0  0  0  0  0  2  0  0  0  0  0  0
  185.5950  178.2630  144.4770 C   0  0  0  0  0  2  0  0  0  0  0  0
  186.5530  177.2280  144.8200 N   0  0  0  0  0  0  0  0  0  0  0  0
  185.2380  178.9630  145.7570 C   0  0  0  0  0  2  0  0  0  0  0  0
  186.9670  177.5020  146.1920 C   0  0  0  0  0  2  0  0  0  0  0  0
  1 26  1  6  0  0  0
  1 18  1  0  0  0  0
  1 27  1  0  0  0  0
  2 14  1  0  0  0  0
  3  7  2  0  0  0  0
  3 19  1  0  0  0  0
  4 15  1  0  0  0  0
  4 18  1  0  0  0  0
  5 19  1  0  0  0  0
  5 11  2  0  0  0  0
  8 12  1  0  0  0  0
  8 16  1  0  0  0  0
  9 13  1  0  0  0  0
  9 25  1  0  0  0  0
 11 20  1  0  0  0  0
 12 15  1  0  0  0  0
 13 24  1  0  0  0  0
 14 25  1  0  0  0  0
 15  5  1  0  0  0  0
 16  3  1  0  0  0  0
 17 10  1  0  0  0  0
 17 28  1  0  0  0  0
 18 20  2  0  0  0  0
 19  6  2  0  0  0  0
 20 13  1  0  0  0  0
 21 23  1  0  0  0  0
 21 26  1  0  0  0  0
 22 10  1  0  0  0  0
 23  4  2  0  0  0  0
 24 22  1  0  0  0  0
 25 17  1  0  0  0  0
 27  2  1  0  0  0  0
 27  9  1  0  0  0  0
 28 29  1  0  0  0  0
 29 32  1  0  0  0  0
 31 32  1  0  0  0  0
 31 33  1  0  0  0  0
 32 34  1  0  0  0  0
 33 30  1  0  0  0  0
 34 30  1  0  0  0  0
M  END
>  <MODEL>
5

>  <REMARK>
 VINA RESULT:      -8.1      4.841      8.584
  Name = 
  3 active torsions:
  status: ('A' for Active; 'I' for Inactive)
    1  A    between atoms: C_17  and  O_28
    2  A    between atoms: O_28  and  C_29
    3  A    between atoms: C_29  and  N_32
                            x       y       z     vdW  Elec       q    Type
                         _______ _______ _______ _____ _____    ______ ____

>  <TORSDO>
F 3

$$$$
=
 OpenBabel11122412063D

 34 40  0  0  1  0  0  0  0  0999 V2000
  190.1760  176.6040  141.9070 C   0  0  2  0  0  3  0  0  0  0  0  0
  190.9230  176.7510  139.5240 C   0  0  0  0  0  2  0  0  0  0  0  0
  185.6390  178.5010  146.6910 C   0  0  0  0  0  0  0  0  0  0  0  0
  189.1450  176.8660  144.2630 C   0  0  0  0  0  0  0  0  0  0  0  0
  186.9040  177.9110  144.4630 C   0  0  0  0  0  0  0  0  0  0  0  0
  184.6230  178.4970  144.5780 O   0  0  0  0  0  0  0  0  0  0  0  0
  184.5560  178.2490  147.2830 O   0  0  0  0  0  0  0  0  0  0  0  0
  188.1670  178.7430  147.0710 C   0  0  0  0  0  2  0  0  0  0  0  0
  189.1220  178.2530  140.1860 C   0  0  2  0  0  3  0  0  0  0  0  0
  186.7970  178.5240  138.0490 C   0  0  0  0  0  2  0  0  0  0  0  0
  186.8600  177.9970  143.1610 N   0  0  0  0  0  0  0  0  0  0  0  0
  188.2450  177.3270  146.5450 C   0  0  0  0  0  2  0  0  0  0  0  0
  187.8070  177.7240  140.7970 C   0  0  1  0  0  3  0  0  0  0  0  0
  190.5170  177.5370  138.2970 C   0  0  0  0  0  2  0  0  0  0  0  0
  188.0830  177.3580  145.0970 N   0  0  0  0  0  0  0  0  0  0  0  0
  186.7530  179.0890  147.5140 C   0  0  0  0  0  2  0  0  0  0  0  0
  188.0220  177.6290  137.8990 C   0  0  2  0  0  3  0  0  0  0  0  0
  189.0510  177.0640  142.8050 C   0  0  0  0  0  0  0  0  0  0  0  0
  185.6930  178.3230  145.2220 C   0  0  0  0  0  0  0  0  0  0  0  0
  187.9400  177.6040  142.2940 C   0  0  0  0  0  0  0  0  0  0  0  0
  191.2560  175.6950  143.9700 C   0  0  0  0  0  2  0  0  0  0  0  0
  186.0070  178.1130  139.2010 N   0  0  0  0  0  2  0  0  0  0  0  0
  190.1870  176.2810  144.7820 N   0  0  0  0  0  0  0  0  0  0  0  0
  186.6430  178.6260  140.4050 C   0  0  0  0  0  2  0  0  0  0  0  0
  189.2160  178.2480  138.6450 C   0  0  1  0  0  3  0  0  0  0  0  0
  191.4810  176.5060  142.6970 C   0  0  0  0  0  2  0  0  0  0  0  0
  190.3790  177.5300  140.6980 C   0  0  1  0  0  3  0  0  0  0  0  0
  188.3150  177.4990  136.5390 O   0  0  0  0  0  0  0  0  0  0  0  0
  187.6980  176.3070  136.1510 C   0  0  0  0  0  2  0  0  0  0  0  0
  186.9500  173.1540  136.7110 N   0  0  0  0  0  2  0  0  0  0  0  0
  188.9400  174.4170  136.7470 C   0  0  0  0  0  2  0  0  0  0  0  0
  187.8770  175.3020  137.1860 N   0  0  0  0  0  0  0  0  0  0  0  0
  188.3870  173.0210  136.7990 C   0  0  0  0  0  2  0  0  0  0  0  0
  186.6620  174.4940  137.2100 C   0  0  0  0  0  2  0  0  0  0  0  0
  1 26  1  1  0  0  0
  1 18  1  0  0  0  0
  2 27  1  0  0  0  0
  3  7  2  0  0  0  0
  3 16  1  0  0  0  0
  4 23  2  0  0  0  0
  4 15  1  0  0  0  0
  5 15  1  0  0  0  0
  5 19  1  0  0  0  0
  6 19  2  0  0  0  0
  8 16  1  0  0  0  0
  9 27  1  0  0  0  0
  9 13  1  0  0  0  0
 10 22  1  0  0  0  0
 11  5  2  0  0  0  0
 12  8  1  0  0  0  0
 13 20  1  0  0  0  0
 14 25  1  0  0  0  0
 14  2  1  0  0  0  0
 15 12  1  0  0  0  0
 17 10  1  0  0  0  0
 17 25  1  0  0  0  0
 18  4  1  0  0  0  0
 19  3  1  0  0  0  0
 20 18  2  0  0  0  0
 20 11  1  0  0  0  0
 21 23  1  0  0  0  0
 22 24  1  0  0  0  0
 24 13  1  0  0  0  0
 25  9  1  0  0  0  0
 26 21  1  0  0  0  0
 27  1  1  0  0  0  0
 28 17  1  0  0  0  0
 29 28  1  0  0  0  0
 29 32  1  0  0  0  0
 30 33  1  0  0  0  0
 30 34  1  0  0  0  0
 31 33  1  0  0  0  0
 31 32  1  0  0  0  0
 32 34  1  0  0  0  0
M  END
>  <MODEL>
6

>  <REMARK>
 VINA RESULT:      -7.9      4.136      7.059
  Name = 
  3 active torsions:
  status: ('A' for Active; 'I' for Inactive)
    1  A    between atoms: C_17  and  O_28
    2  A    between atoms: O_28  and  C_29
    3  A    between atoms: C_29  and  N_32
                            x       y       z     vdW  Elec       q    Type
                         _______ _______ _______ _____ _____    ______ ____

>  <TORSDO>
F 3

$$$$
=
 OpenBabel11122412063D

 34 40  0  0  1  0  0  0  0  0999 V2000
  187.5530  177.5200  140.1740 C   0  0  2  0  0  3  0  0  0  0  0  0
  185.6230  178.3250  138.8000 C   0  0  0  0  0  2  0  0  0  0  0  0
  190.4700  177.0470  146.3650 C   0  0  0  0  0  0  0  0  0  0  0  0
  189.3830  177.0180  141.9300 C   0  0  0  0  0  0  0  0  0  0  0  0
  188.8220  177.2880  144.3310 C   0  0  0  0  0  0  0  0  0  0  0  0
  188.1370  177.1310  146.5820 O   0  0  0  0  0  0  0  0  0  0  0  0
  190.6070  176.3760  147.4230 O   0  0  0  0  0  0  0  0  0  0  0  0
  191.7620  177.9590  144.3430 C   0  0  0  0  0  2  0  0  0  0  0  0
  185.6830  179.0670  141.1200 C   0  0  2  0  0  3  0  0  0  0  0  0
  182.8690  179.0240  142.5780 C   0  0  0  0  0  2  0  0  0  0  0  0
  187.6030  177.5970  143.9820 N   0  0  0  0  0  0  0  0  0  0  0  0
  191.2050  176.7560  143.6160 C   0  0  0  0  0  2  0  0  0  0  0  0
  185.7350  178.0660  142.2930 C   0  0  1  0  0  3  0  0  0  0  0  0
  184.3890  179.1670  139.0370 C   0  0  0  0  0  2  0  0  0  0  0  0
  189.8030  177.0050  143.3040 N   0  0  0  0  0  0  0  0  0  0  0  0
  191.6810  177.7770  145.8510 C   0  0  0  0  0  2  0  0  0  0  0  0
  183.1160  178.5800  141.1410 C   0  0  2  0  0  3  0  0  0  0  0  0
  188.0090  177.4470  141.6130 C   0  0  0  0  0  0  0  0  0  0  0  0
  189.1130  177.1690  145.7850 C   0  0  0  0  0  0  0  0  0  0  0  0
  187.1650  177.7140  142.6150 C   0  0  0  0  0  0  0  0  0  0  0  0
  189.8020  176.6090  139.5690 C   0  0  0  0  0  2  0  0  0  0  0  0
  183.6220  178.1870  143.5030 N   0  0  0  0  0  2  0  0  0  0  0  0
  190.2050  176.6860  140.9750 N   0  0  0  0  0  0  0  0  0  0  0  0
  185.0070  178.6340  143.5060 C   0  0  0  0  0  2  0  0  0  0  0  0
  184.2860  179.3780  140.5410 C   0  0  1  0  0  3  0  0  0  0  0  0
  188.7570  177.6720  139.2430 C   0  0  0  0  0  2  0  0  0  0  0  0
  186.5680  178.6720  139.9270 C   0  0  1  0  0  3  0  0  0  0  0  0
  181.9500  178.7990  140.4010 O   0  0  0  0  0  0  0  0  0  0  0  0
  180.9580  178.0840  141.0750 C   0  0  0  0  0  2  0  0  0  0  0  0
  179.5560  180.8780  142.0960 N   0  0  0  0  0  2  0  0  0  0  0  0
  179.8680  179.8520  139.9970 C   0  0  0  0  0  2  0  0  0  0  0  0
  179.6870  178.7820  140.9620 N   0  0  0  0  0  0  0  0  0  0  0  0
  179.4350  181.1210  140.6750 C   0  0  0  0  0  2  0  0  0  0  0  0
  179.4430  179.4320  142.2450 C   0  0  0  0  0  2  0  0  0  0  0  0
  1 26  1  6  0  0  0
  1 18  1  0  0  0  0
  2 14  1  0  0  0  0
  2 27  1  0  0  0  0
  3  7  2  0  0  0  0
  4 15  1  0  0  0  0
  5 19  1  0  0  0  0
  8 16  1  0  0  0  0
  9 13  1  0  0  0  0
 10 22  1  0  0  0  0
 11  5  2  0  0  0  0
 12  8  1  0  0  0  0
 13 20  1  0  0  0  0
 13 24  1  0  0  0  0
 14 25  1  0  0  0  0
 15 12  1  0  0  0  0
 15  5  1  0  0  0  0
 16  3  1  0  0  0  0
 17 10  1  0  0  0  0
 18  4  1  0  0  0  0
 18 20  2  0  0  0  0
 19  3  1  0  0  0  0
 19  6  2  0  0  0  0
 20 11  1  0  0  0  0
 21 23  1  0  0  0  0
 22 24  1  0  0  0  0
 23  4  2  0  0  0  0
 25  9  1  0  0  0  0
 25 17  1  0  0  0  0
 26 21  1  0  0  0  0
 27  1  1  0  0  0  0
 27  9  1  0  0  0  0
 28 29  1  0  0  0  0
 28 17  1  0  0  0  0
 30 34  1  0  0  0  0
 31 33  1  0  0  0  0
 31 32  1  0  0  0  0
 32 29  1  0  0  0  0
 32 34  1  0  0  0  0
 33 30  1  0  0  0  0
M  END
>  <MODEL>
7

>  <REMARK>
 VINA RESULT:      -7.7      2.747      4.382
  Name = 
  3 active torsions:
  status: ('A' for Active; 'I' for Inactive)
    1  A    between atoms: C_17  and  O_28
    2  A    between atoms: O_28  and  C_29
    3  A    between atoms: C_29  and  N_32
                            x       y       z     vdW  Elec       q    Type
                         _______ _______ _______ _____ _____    ______ ____

>  <TORSDO>
F 3

$$$$
=
 OpenBabel11122412063D

 34 40  0  0  1  0  0  0  0  0999 V2000
  188.8390  177.3120  137.4580 C   0  0  2  0  0  3  0  0  0  0  0  0
  189.7930  176.4030  135.3310 C   0  0  0  0  0  2  0  0  0  0  0  0
  189.3840  177.9100  144.2700 C   0  0  0  0  0  0  0  0  0  0  0  0
  188.1440  177.9090  139.8750 C   0  0  0  0  0  0  0  0  0  0  0  0
  189.7990  177.5870  141.6940 C   0  0  0  0  0  0  0  0  0  0  0  0
  191.5120  177.6830  143.3120 O   0  0  0  0  0  0  0  0  0  0  0  0
  189.8240  178.5790  145.2430 O   0  0  0  0  0  0  0  0  0  0  0  0
  187.2140  177.0940  143.1670 C   0  0  0  0  0  2  0  0  0  0  0  0
  190.8420  175.6470  137.3960 C   0  0  2  0  0  3  0  0  0  0  0  0
  194.0060  175.5090  137.2780 C   0  0  0  0  0  2  0  0  0  0  0  0
  190.6680  177.2070  140.7970 N   0  0  0  0  0  0  0  0  0  0  0  0
  187.4070  178.2670  142.2330 C   0  0  0  0  0  2  0  0  0  0  0  0
  191.4310  176.6400  138.4190 C   0  0  1  0  0  3  0  0  0  0  0  0
  190.9330  175.4860  134.9480 C   0  0  0  0  0  2  0  0  0  0  0  0
  188.4570  177.9360  141.2780 N   0  0  0  0  0  0  0  0  0  0  0  0
  188.0380  177.2580  144.4360 C   0  0  0  0  0  2  0  0  0  0  0  0
  193.1090  175.9780  136.1390 C   0  0  2  0  0  3  0  0  0  0  0  0
  189.1570  177.4010  138.9320 C   0  0  0  0  0  0  0  0  0  0  0  0
  190.2690  177.7110  143.1010 C   0  0  0  0  0  0  0  0  0  0  0  0
  190.3680  177.0750  139.3950 C   0  0  0  0  0  0  0  0  0  0  0  0
  186.6400  178.3620  138.0180 C   0  0  0  0  0  2  0  0  0  0  0  0
  193.8550  176.3820  138.4340 N   0  0  0  0  0  2  0  0  0  0  0  0
  186.9780  178.2980  139.4420 N   0  0  0  0  0  0  0  0  0  0  0  0
  192.6290  176.0190  139.1290 C   0  0  0  0  0  2  0  0  0  0  0  0
  191.7520  175.2570  136.2110 C   0  0  1  0  0  3  0  0  0  0  0  0
  187.3270  177.2410  137.2430 C   0  0  0  0  0  2  0  0  0  0  0  0
  189.5080  176.1040  136.7840 C   0  0  1  0  0  3  0  0  0  0  0  0
  193.7440  175.6950  134.9260 O   0  0  0  0  0  0  0  0  0  0  0  0
  194.6050  174.6330  135.2110 C   0  0  0  0  0  2  0  0  0  0  0  0
  197.3300  176.3780  135.7950 N   0  0  0  0  0  2  0  0  0  0  0  0
  196.8790  174.1060  135.3560 C   0  0  0  0  0  2  0  0  0  0  0  0
  195.9040  174.8770  134.6070 N   0  0  0  0  0  0  0  0  0  0  0  0
  197.9470  175.0690  135.7930 C   0  0  0  0  0  2  0  0  0  0  0  0
  196.2280  176.2790  134.8460 C   0  0  0  0  0  2  0  0  0  0  0  0
  1 26  1  1  0  0  0
  1 18  1  0  0  0  0
  2 27  1  0  0  0  0
  3 16  1  0  0  0  0
  3  7  2  0  0  0  0
  4 15  1  0  0  0  0
  5 19  1  0  0  0  0
  8 16  1  0  0  0  0
  9 13  1  0  0  0  0
 10 22  1  0  0  0  0
 11  5  2  0  0  0  0
 12  8  1  0  0  0  0
 13 24  1  0  0  0  0
 13 20  1  0  0  0  0
 14  2  1  0  0  0  0
 14 25  1  0  0  0  0
 15  5  1  0  0  0  0
 15 12  1  0  0  0  0
 17 25  1  0  0  0  0
 17 10  1  0  0  0  0
 18 20  2  0  0  0  0
 18  4  1  0  0  0  0
 19  6  2  0  0  0  0
 19  3  1  0  0  0  0
 20 11  1  0  0  0  0
 21 23  1  0  0  0  0
 22 24  1  0  0  0  0
 23  4  2  0  0  0  0
 25  9  1  0  0  0  0
 26 21  1  0  0  0  0
 27  9  1  0  0  0  0
 27  1  1  0  0  0  0
 28 29  1  0  0  0  0
 28 17  1  0  0  0  0
 31 33  1  0  0  0  0
 32 34  1  0  0  0  0
 32 29  1  0  0  0  0
 32 31  1  0  0  0  0
 33 30  1  0  0  0  0
 34 30  1  0  0  0  0
M  END
>  <MODEL>
8

>  <REMARK>
 VINA RESULT:      -7.7      5.646     10.291
  Name = 
  3 active torsions:
  status: ('A' for Active; 'I' for Inactive)
    1  A    between atoms: C_17  and  O_28
    2  A    between atoms: O_28  and  C_29
    3  A    between atoms: C_29  and  N_32
                            x       y       z     vdW  Elec       q    Type
                         _______ _______ _______ _____ _____    ______ ____

>  <TORSDO>
F 3

$$$$
=
 OpenBabel11122412063D

 34 40  0  0  1  0  0  0  0  0999 V2000
  188.0500  178.3480  141.1120 C   0  0  2  0  0  3  0  0  0  0  0  0
  189.1280  178.0890  143.3550 C   0  0  0  0  0  2  0  0  0  0  0  0
  182.2680  178.3410  137.4200 C   0  0  0  0  0  0  0  0  0  0  0  0
  186.5500  178.3800  139.0070 C   0  0  0  0  0  0  0  0  0  0  0  0
  184.0910  178.4790  139.3100 C   0  0  0  0  0  0  0  0  0  0  0  0
  181.8140  179.0080  139.6210 O   0  0  0  0  0  0  0  0  0  0  0  0
  181.3090  179.0110  136.9520 O   0  0  0  0  0  0  0  0  0  0  0  0
  184.2950  176.9220  136.7360 C   0  0  0  0  0  2  0  0  0  0  0  0
  186.7580  177.5400  143.2260 C   0  0  2  0  0  3  0  0  0  0  0  0
  185.0430  178.5720  145.6830 C   0  0  0  0  0  2  0  0  0  0  0  0
  184.2810  178.5420  140.6000 N   0  0  0  0  0  0  0  0  0  0  0  0
  185.0920  178.1820  136.9910 C   0  0  0  0  0  2  0  0  0  0  0  0
  185.7140  178.5590  142.7220 C   0  0  1  0  0  3  0  0  0  0  0  0
  188.6800  177.6960  144.7450 C   0  0  0  0  0  2  0  0  0  0  0  0
  185.2340  178.3620  138.4300 N   0  0  0  0  0  0  0  0  0  0  0  0
  182.8160  177.2320  136.5640 C   0  0  0  0  0  2  0  0  0  0  0  0
  186.5370  178.8070  145.5000 C   0  0  2  0  0  3  0  0  0  0  0  0
  186.6800  178.3810  140.4750 C   0  0  0  0  0  0  0  0  0  0  0  0
  182.6940  178.6070  138.8130 C   0  0  0  0  0  0  0  0  0  0  0  0
  185.5760  178.4670  141.2240 C   0  0  0  0  0  0  0  0  0  0  0  0
  188.9710  178.4600  138.7900 C   0  0  0  0  0  2  0  0  0  0  0  0
  184.2950  179.1960  144.6000 N   0  0  0  0  0  2  0  0  0  0  0  0
  187.6120  178.3660  138.2520 N   0  0  0  0  0  0  0  0  0  0  0  0
  184.3800  178.3390  143.4260 C   0  0  0  0  0  2  0  0  0  0  0  0
  187.1580  177.6410  144.7130 C   0  0  1  0  0  3  0  0  0  0  0  0
  189.0730  177.7580  140.1410 C   0  0  0  0  0  2  0  0  0  0  0  0
  188.0700  177.5470  142.4230 C   0  0  1  0  0  3  0  0  0  0  0  0
  187.1300  178.9110  146.7620 O   0  0  0  0  0  0  0  0  0  0  0  0
  186.7790  177.7300  147.4200 C   0  0  0  0  0  2  0  0  0  0  0  0
  189.8780  176.6370  147.5600 N   0  0  0  0  0  2  0  0  0  0  0  0
  188.7370  178.5020  148.4400 C   0  0  0  0  0  2  0  0  0  0  0  0
  187.7860  177.4050  148.4170 N   0  0  0  0  0  0  0  0  0  0  0  0
  190.0970  177.8980  148.2320 C   0  0  0  0  0  2  0  0  0  0  0  0
  188.5200  176.2460  147.9190 C   0  0  0  0  0  2  0  0  0  0  0  0
  1 26  1  6  0  0  0
  1 27  1  0  0  0  0
  2 14  1  0  0  0  0
  3 19  1  0  0  0  0
  4 18  1  0  0  0  0
  5 11  2  0  0  0  0
  7  3  2  0  0  0  0
  8 12  1  0  0  0  0
  9 25  1  0  0  0  0
 11 20  1  0  0  0  0
 12 15  1  0  0  0  0
 13  9  1  0  0  0  0
 13 24  1  0  0  0  0
 15  4  1  0  0  0  0
 15  5  1  0  0  0  0
 16  8  1  0  0  0  0
 16  3  1  0  0  0  0
 17 10  1  0  0  0  0
 17 28  1  0  0  0  0
 18  1  1  0  0  0  0
 18 20  2  0  0  0  0
 19  5  1  0  0  0  0
 19  6  2  0  0  0  0
 20 13  1  0  0  0  0
 21 26  1  0  0  0  0
 22 10  1  0  0  0  0
 23 21  1  0  0  0  0
 23  4  2  0  0  0  0
 24 22  1  0  0  0  0
 25 14  1  0  0  0  0
 25 17  1  0  0  0  0
 27  9  1  0  0  0  0
 27  2  1  0  0  0  0
 28 29  1  0  0  0  0
 29 32  1  0  0  0  0
 30 34  1  0  0  0  0
 30 33  1  0  0  0  0
 32 31  1  0  0  0  0
 33 31  1  0  0  0  0
 34 32  1  0  0  0  0
M  END
>  <MODEL>
9

>  <REMARK>
 VINA RESULT:      -7.7      3.193      8.695
  Name = 
  3 active torsions:
  status: ('A' for Active; 'I' for Inactive)
    1  A    between atoms: C_17  and  O_28
    2  A    between atoms: O_28  and  C_29
    3  A    between atoms: C_29  and  N_32
                            x       y       z     vdW  Elec       q    Type
                         _______ _______ _______ _____ _____    ______ ____

>  <TORSDO>
F 3

$$$$
