=
 OpenBabel11122411103D

 31 35  0  0  1  0  0  0  0  0999 V2000
  183.3900  178.5420  138.8500 C   0  0  0  0  0  0  0  0  0  0  0  0
  187.0390  178.3230  139.4680 C   0  0  0  0  0  0  0  0  0  0  0  0
  187.6340  178.1250  138.1830 C   0  0  0  0  0  0  0  0  0  0  0  0
  187.2800  177.0570  135.9580 C   0  0  1  0  0  3  0  0  0  0  0  0
  185.7080  178.5720  139.6540 C   0  0  2  0  0  3  0  0  0  0  0  0
  182.9200  178.5120  140.2470 C   0  0  0  0  0  3  0  0  0  0  0  0
  186.8900  178.2160  136.8770 C   0  0  0  0  0  2  0  0  0  0  0  0
  187.4000  178.3000  141.8650 C   0  0  2  0  0  3  0  0  0  0  0  0
  182.4680  178.5210  137.8140 O   0  0  0  0  0  1  0  0  0  0  0  0
  189.7890  177.8490  139.1930 N   0  0  0  0  0  0  0  0  0  0  0  0
  186.6460  177.2450  134.5960 C   0  0  0  0  0  1  0  0  0  0  0  0
  186.0320  178.5000  142.0590 O   0  0  0  0  0  0  0  0  0  0  0  0
  187.8930  178.2310  140.6110 C   0  0  0  0  0  0  0  0  0  0  0  0
  184.6960  178.5490  138.5720 C   0  0  0  0  0  3  0  0  0  0  0  0
  188.8000  176.8650  135.8070 C   0  0  0  0  0  2  0  0  0  0  0  0
  185.2160  179.0130  141.0180 C   0  0  2  0  0  3  0  0  0  0  0  0
  183.7690  178.6840  141.2630 C   0  0  0  0  0  3  0  0  0  0  0  0
  189.2640  178.0020  140.4300 C   0  0  0  0  0  3  0  0  0  0  0  0
  189.0160  177.8910  138.0840 C   0  0  0  0  0  0  0  0  0  0  0  0
  189.6500  177.7430  136.7360 C   0  0  0  0  0  2  0  0  0  0  0  0
  187.9700  175.8330  143.2690 O   0  0  0  0  0  0  0  0  0  0  0  0
  188.5260  176.8910  143.6700 C   0  0  0  0  0  0  0  0  0  0  0  0
  188.2640  178.1330  143.0000 N   0  0  0  0  0  2  0  0  0  0  0  0
  191.3190  176.7900  146.9390 C   0  0  0  0  0  0  0  0  0  0  0  0
  190.7940  176.5250  144.5960 C   0  0  0  0  0  3  0  0  0  0  0  0
  187.6570  177.5580  146.5180 C   0  0  0  0  0  1  0  0  0  0  0  0
  192.2390  176.7500  147.9770 O   0  0  0  0  0  1  0  0  0  0  0  0
  191.7210  176.4850  145.6390 C   0  0  0  0  0  3  0  0  0  0  0  0
  189.0530  177.1790  146.1580 C   0  0  0  0  0  0  0  0  0  0  0  0
  189.4520  176.8700  144.8310 C   0  0  0  0  0  0  0  0  0  0  0  0
  189.9920  177.1350  147.1950 C   0  0  0  0  0  3  0  0  0  0  0  0
  1  6  1  0  0  0  0
  2  5  1  0  0  0  0
  2 13  1  0  0  0  0
  3  2  2  0  0  0  0
  4 11  1  6  0  0  0
  4  7  1  0  0  0  0
  5 14  1  6  0  0  0
  5 16  1  0  0  0  0
  6 17  2  0  0  0  0
  7  3  1  0  0  0  0
  8 12  1  0  0  0  0
  8 23  1  6  0  0  0
  9  1  1  0  0  0  0
 10 18  1  0  0  0  0
 13  8  1  0  0  0  0
 14  1  2  0  0  0  0
 15  4  1  0  0  0  0
 15 20  1  0  0  0  0
 16 17  1  1  0  0  0
 16 12  1  0  0  0  0
 18 13  2  0  0  0  0
 19  3  1  0  0  0  0
 19 10  2  0  0  0  0
 20 19  1  0  0  0  0
 21 22  2  0  0  0  0
 22 30  1  0  0  0  0
 23 22  1  0  0  0  0
 24 31  1  0  0  0  0
 24 27  1  0  0  0  0
 25 30  2  0  0  0  0
 25 28  1  0  0  0  0
 28 24  2  0  0  0  0
 29 26  1  0  0  0  0
 29 31  2  0  0  0  0
 30 29  1  0  0  0  0
M  END
>  <MODEL>
1

>  <REMARK>
 VINA RESULT:     -10.2      0.000      0.000
  Name = 
  2 active torsions:
  status: ('A' for Active; 'I' for Inactive)
    1  A    between atoms: C_5  and  C_30
    2  A    between atoms: C_10  and  N_16
                            x       y       z     vdW  Elec       q    Type
                         _______ _______ _______ _____ _____    ______ ____

>  <TORSDO>
F 2

$$$$
=
 OpenBabel11122411103D

 31 35  0  0  1  0  0  0  0  0999 V2000
  185.5230  178.6190  144.8670 C   0  0  0  0  0  0  0  0  0  0  0  0
  188.8400  177.0430  144.3600 C   0  0  0  0  0  0  0  0  0  0  0  0
  189.4280  176.9630  145.6610 C   0  0  0  0  0  0  0  0  0  0  0  0
  189.5840  178.1250  147.8610 C   0  0  1  0  0  3  0  0  0  0  0  0
  187.5570  177.4590  144.1360 C   0  0  2  0  0  3  0  0  0  0  0  0
  185.1560  178.8370  143.4550 C   0  0  0  0  0  3  0  0  0  0  0  0
  188.7040  177.2730  146.9440 C   0  0  0  0  0  2  0  0  0  0  0  0
  189.2190  176.8290  141.9750 C   0  0  2  0  0  3  0  0  0  0  0  0
  184.7020  179.1070  145.8730 O   0  0  0  0  0  1  0  0  0  0  0  0
  191.4730  176.1440  144.7140 N   0  0  0  0  0  0  0  0  0  0  0  0
  188.9090  178.2980  149.2050 C   0  0  0  0  0  1  0  0  0  0  0  0
  187.9290  177.3070  141.7420 O   0  0  0  0  0  0  0  0  0  0  0  0
  189.6570  176.6840  143.2430 C   0  0  0  0  0  0  0  0  0  0  0  0
  186.6580  177.9930  145.1850 C   0  0  0  0  0  3  0  0  0  0  0  0
  191.0050  177.5660  148.0570 C   0  0  0  0  0  2  0  0  0  0  0  0
  186.9440  177.2750  142.7620 C   0  0  2  0  0  3  0  0  0  0  0  0
  185.8390  178.2530  142.4690 C   0  0  0  0  0  3  0  0  0  0  0  0
  190.9650  176.2310  143.4630 C   0  0  0  0  0  3  0  0  0  0  0  0
  190.7500  176.5060  145.7990 C   0  0  0  0  0  0  0  0  0  0  0  0
  191.3480  176.3640  147.1650 C   0  0  0  0  0  2  0  0  0  0  0  0
  189.3970  178.2760  139.4730 O   0  0  0  0  0  0  0  0  0  0  0  0
  190.1450  177.2760  139.6400 C   0  0  0  0  0  0  0  0  0  0  0  0
  190.0820  176.5320  140.8650 N   0  0  0  0  0  2  0  0  0  0  0  0
  192.7780  176.0230  136.4780 C   0  0  0  0  0  0  0  0  0  0  0  0
  190.5630  176.4370  137.3480 C   0  0  0  0  0  3  0  0  0  0  0  0
  193.1750  177.2670  140.0100 C   0  0  0  0  0  1  0  0  0  0  0  0
  193.6080  175.6140  135.4430 O   0  0  0  0  0  1  0  0  0  0  0  0
  191.3960  176.0250  136.3050 C   0  0  0  0  0  3  0  0  0  0  0  0
  192.5060  176.8460  138.7460 C   0  0  0  0  0  0  0  0  0  0  0  0
  191.0950  176.8520  138.5800 C   0  0  0  0  0  0  0  0  0  0  0  0
  193.3290  176.4320  137.6930 C   0  0  0  0  0  3  0  0  0  0  0  0
  1 14  2  0  0  0  0
  1  9  1  0  0  0  0
  2  3  1  0  0  0  0
  3 19  2  0  0  0  0
  3  7  1  0  0  0  0
  4 15  1  0  0  0  0
  4 11  1  1  0  0  0
  5  2  1  0  0  0  0
  5 14  1  1  0  0  0
  6  1  1  0  0  0  0
  7  4  1  0  0  0  0
  8 23  1  6  0  0  0
  8 13  1  0  0  0  0
 10 19  1  0  0  0  0
 12  8  1  0  0  0  0
 12 16  1  0  0  0  0
 13 18  1  0  0  0  0
 13  2  2  0  0  0  0
 16 17  1  6  0  0  0
 16  5  1  0  0  0  0
 17  6  2  0  0  0  0
 18 10  2  0  0  0  0
 19 20  1  0  0  0  0
 20 15  1  0  0  0  0
 21 22  2  0  0  0  0
 22 23  1  0  0  0  0
 24 31  1  0  0  0  0
 25 30  2  0  0  0  0
 27 24  1  0  0  0  0
 28 24  2  0  0  0  0
 28 25  1  0  0  0  0
 29 26  1  0  0  0  0
 30 29  1  0  0  0  0
 30 22  1  0  0  0  0
 31 29  2  0  0  0  0
M  END
>  <MODEL>
2

>  <REMARK>
 VINA RESULT:     -10.1      3.101      7.895
  Name = 
  2 active torsions:
  status: ('A' for Active; 'I' for Inactive)
    1  A    between atoms: C_5  and  C_30
    2  A    between atoms: C_10  and  N_16
                            x       y       z     vdW  Elec       q    Type
                         _______ _______ _______ _____ _____    ______ ____

>  <TORSDO>
F 2

$$$$
=
 OpenBabel11122411103D

 31 35  0  0  1  0  0  0  0  0999 V2000
  186.2440  177.5770  136.5910 C   0  0  0  0  0  0  0  0  0  0  0  0
  188.9930  177.5610  139.0780 C   0  0  0  0  0  0  0  0  0  0  0  0
  190.1460  177.0980  138.3710 C   0  0  0  0  0  0  0  0  0  0  0  0
  190.8970  175.5660  136.5540 C   0  0  1  0  0  3  0  0  0  0  0  0
  187.7920  177.8220  138.4770 C   0  0  2  0  0  3  0  0  0  0  0  0
  185.1140  177.8440  137.5000 C   0  0  0  0  0  3  0  0  0  0  0  0
  190.2050  176.8900  136.8810 C   0  0  0  0  0  2  0  0  0  0  0  0
  188.0480  178.0680  141.2530 C   0  0  2  0  0  3  0  0  0  0  0  0
  186.0000  177.3160  135.2500 O   0  0  0  0  0  1  0  0  0  0  0  0
  191.4190  177.0860  140.4020 N   0  0  0  0  0  0  0  0  0  0  0  0
  191.0880  175.4410  135.0580 C   0  0  0  0  0  1  0  0  0  0  0  0
  186.8080  178.2810  140.6480 O   0  0  0  0  0  0  0  0  0  0  0  0
  189.1120  177.7360  140.4920 C   0  0  0  0  0  0  0  0  0  0  0  0
  187.4960  177.5460  137.0520 C   0  0  0  0  0  3  0  0  0  0  0  0
  192.2450  175.3720  137.2730 C   0  0  0  0  0  2  0  0  0  0  0  0
  186.7100  178.5410  139.2570 C   0  0  2  0  0  3  0  0  0  0  0  0
  185.3220  178.2480  138.7560 C   0  0  0  0  0  3  0  0  0  0  0  0
  190.3450  177.4960  141.1150 C   0  0  0  0  0  3  0  0  0  0  0  0
  191.3450  176.8730  139.0680 C   0  0  0  0  0  0  0  0  0  0  0  0
  192.5700  176.4460  138.3200 C   0  0  0  0  0  2  0  0  0  0  0  0
  187.8760  175.9030  143.1680 O   0  0  0  0  0  0  0  0  0  0  0  0
  188.0850  177.0690  143.6000 C   0  0  0  0  0  0  0  0  0  0  0  0
  188.1720  178.1660  142.6800 N   0  0  0  0  0  2  0  0  0  0  0  0
  188.3860  177.8310  147.8220 C   0  0  0  0  0  0  0  0  0  0  0  0
  187.0880  177.6390  145.7940 C   0  0  0  0  0  3  0  0  0  0  0  0
  190.7690  176.9380  145.0470 C   0  0  0  0  0  1  0  0  0  0  0  0
  188.4590  178.0810  149.1860 O   0  0  0  0  0  1  0  0  0  0  0  0
  187.1590  177.8910  147.1660 C   0  0  0  0  0  3  0  0  0  0  0  0
  189.4870  177.2640  145.7330 C   0  0  0  0  0  0  0  0  0  0  0  0
  188.2410  177.3230  145.0550 C   0  0  0  0  0  0  0  0  0  0  0  0
  189.5430  177.5190  147.1080 C   0  0  0  0  0  3  0  0  0  0  0  0
  1 14  2  0  0  0  0
  1  6  1  0  0  0  0
  2 13  1  0  0  0  0
  3 19  1  0  0  0  0
  3  2  2  0  0  0  0
  4 11  1  6  0  0  0
  4  7  1  0  0  0  0
  4 15  1  0  0  0  0
  5 14  1  6  0  0  0
  5  2  1  0  0  0  0
  5 16  1  0  0  0  0
  6 17  2  0  0  0  0
  7  3  1  0  0  0  0
  8 23  1  1  0  0  0
  9  1  1  0  0  0  0
 10 18  1  0  0  0  0
 12  8  1  0  0  0  0
 13 18  2  0  0  0  0
 13  8  1  0  0  0  0
 15 20  1  0  0  0  0
 16 17  1  6  0  0  0
 16 12  1  0  0  0  0
 19 10  2  0  0  0  0
 20 19  1  0  0  0  0
 21 22  2  0  0  0  0
 22 30  1  0  0  0  0
 23 22  1  0  0  0  0
 24 27  1  0  0  0  0
 25 28  2  0  0  0  0
 26 29  1  0  0  0  0
 28 24  1  0  0  0  0
 29 31  1  0  0  0  0
 30 29  2  0  0  0  0
 30 25  1  0  0  0  0
 31 24  2  0  0  0  0
M  END
>  <MODEL>
3

>  <REMARK>
 VINA RESULT:     -10.0      1.888      2.982
  Name = 
  2 active torsions:
  status: ('A' for Active; 'I' for Inactive)
    1  A    between atoms: C_5  and  C_30
    2  A    between atoms: C_10  and  N_16
                            x       y       z     vdW  Elec       q    Type
                         _______ _______ _______ _____ _____    ______ ____

>  <TORSDO>
F 2

$$$$
=
 OpenBabel11122411103D

 31 35  0  0  1  0  0  0  0  0999 V2000
  189.9390  177.1480  146.8280 C   0  0  0  0  0  0  0  0  0  0  0  0
  188.6780  177.6700  143.3810 C   0  0  0  0  0  0  0  0  0  0  0  0
  187.3520  178.1840  143.5330 C   0  0  0  0  0  0  0  0  0  0  0  0
  185.3160  178.0750  144.9670 C   0  0  1  0  0  3  0  0  0  0  0  0
  189.5300  177.4580  144.4300 C   0  0  2  0  0  3  0  0  0  0  0  0
  191.1820  176.4220  146.5090 C   0  0  0  0  0  3  0  0  0  0  0  0
  186.7460  178.6040  144.8460 C   0  0  0  0  0  2  0  0  0  0  0  0
  190.3070  176.7600  141.8340 C   0  0  2  0  0  3  0  0  0  0  0  0
  189.5600  177.3120  148.1530 O   0  0  0  0  0  1  0  0  0  0  0  0
  187.0200  178.0990  141.1610 N   0  0  0  0  0  0  0  0  0  0  0  0
  184.6660  178.6310  146.2160 C   0  0  0  0  0  1  0  0  0  0  0  0
  191.1560  176.4910  142.9080 O   0  0  0  0  0  0  0  0  0  0  0  0
  189.1120  177.3470  142.0580 C   0  0  0  0  0  0  0  0  0  0  0  0
  189.1550  177.6150  145.8540 C   0  0  0  0  0  3  0  0  0  0  0  0
  184.4340  178.3740  143.7400 C   0  0  0  0  0  2  0  0  0  0  0  0
  190.9880  177.1500  144.1530 C   0  0  2  0  0  3  0  0  0  0  0  0
  191.6520  176.3790  145.2600 C   0  0  0  0  0  3  0  0  0  0  0  0
  188.2570  177.5850  140.9740 C   0  0  0  0  0  3  0  0  0  0  0  0
  186.5510  178.3880  142.3960 C   0  0  0  0  0  0  0  0  0  0  0  0
  185.1850  178.9830  142.5480 C   0  0  0  0  0  2  0  0  0  0  0  0
  192.4630  177.8780  140.2580 O   0  0  0  0  0  0  0  0  0  0  0  0
  191.7730  176.9510  139.7550 C   0  0  0  0  0  0  0  0  0  0  0  0
  190.6940  176.3760  140.5050 N   0  0  0  0  0  2  0  0  0  0  0  0
  192.7460  175.4420  135.8460 C   0  0  0  0  0  0  0  0  0  0  0  0
  193.3190  175.8620  138.1550 C   0  0  0  0  0  3  0  0  0  0  0  0
  189.7790  177.1150  137.4500 C   0  0  0  0  0  1  0  0  0  0  0  0
  193.0830  174.9480  134.5940 O   0  0  0  0  0  1  0  0  0  0  0  0
  193.6600  175.3640  136.8960 C   0  0  0  0  0  3  0  0  0  0  0  0
  191.1380  176.5180  137.3130 C   0  0  0  0  0  0  0  0  0  0  0  0
  192.0620  176.4440  138.3880 C   0  0  0  0  0  0  0  0  0  0  0  0
  191.4920  176.0160  136.0550 C   0  0  0  0  0  3  0  0  0  0  0  0
  1  9  1  0  0  0  0
  2  3  1  0  0  0  0
  2  5  1  0  0  0  0
  3  7  1  0  0  0  0
  4 11  1  1  0  0  0
  5 14  1  1  0  0  0
  6  1  1  0  0  0  0
  7  4  1  0  0  0  0
  8 23  1  1  0  0  0
  8 13  1  0  0  0  0
  8 12  1  0  0  0  0
 10 19  1  0  0  0  0
 12 16  1  0  0  0  0
 13  2  2  0  0  0  0
 14  1  2  0  0  0  0
 15  4  1  0  0  0  0
 16  5  1  0  0  0  0
 16 17  1  1  0  0  0
 17  6  2  0  0  0  0
 18 10  2  0  0  0  0
 18 13  1  0  0  0  0
 19 20  1  0  0  0  0
 19  3  2  0  0  0  0
 20 15  1  0  0  0  0
 22 21  2  0  0  0  0
 22 23  1  0  0  0  0
 24 31  2  0  0  0  0
 24 28  1  0  0  0  0
 25 30  1  0  0  0  0
 27 24  1  0  0  0  0
 28 25  2  0  0  0  0
 29 26  1  0  0  0  0
 29 30  2  0  0  0  0
 30 22  1  0  0  0  0
 31 29  1  0  0  0  0
M  END
>  <MODEL>
4

>  <REMARK>
 VINA RESULT:      -9.9      3.095      8.119
  Name = 
  2 active torsions:
  status: ('A' for Active; 'I' for Inactive)
    1  A    between atoms: C_5  and  C_30
    2  A    between atoms: C_10  and  N_16
                            x       y       z     vdW  Elec       q    Type
                         _______ _______ _______ _____ _____    ______ ____

>  <TORSDO>
F 2

$$$$
=
 OpenBabel11122411103D

 31 35  0  0  1  0  0  0  0  0999 V2000
  186.6310  178.1260  146.5360 C   0  0  0  0  0  0  0  0  0  0  0  0
  187.0420  177.9880  142.8550 C   0  0  0  0  0  0  0  0  0  0  0  0
  188.3930  177.5740  142.6350 C   0  0  0  0  0  0  0  0  0  0  0  0
  190.7070  177.7350  143.5480 C   0  0  1  0  0  3  0  0  0  0  0  0
  186.4600  178.0450  144.0910 C   0  0  2  0  0  3  0  0  0  0  0  0
  185.3060  178.7710  146.5950 C   0  0  0  0  0  3  0  0  0  0  0  0
  189.3250  177.1010  143.7190 C   0  0  0  0  0  2  0  0  0  0  0  0
  185.0320  178.8840  141.8350 C   0  0  2  0  0  3  0  0  0  0  0  0
  187.3310  177.8880  147.7100 O   0  0  0  0  0  1  0  0  0  0  0  0
  188.1300  177.8770  140.2720 N   0  0  0  0  0  0  0  0  0  0  0  0
  191.6750  177.1350  144.5460 C   0  0  0  0  0  1  0  0  0  0  0  0
  184.4570  178.9940  143.1020 O   0  0  0  0  0  0  0  0  0  0  0  0
  186.2790  178.3810  141.7110 C   0  0  0  0  0  0  0  0  0  0  0  0
  187.1810  177.8050  145.3630 C   0  0  0  0  0  3  0  0  0  0  0  0
  191.2790  177.6090  142.1240 C   0  0  0  0  0  2  0  0  0  0  0  0
  184.9630  178.2530  144.2010 C   0  0  2  0  0  3  0  0  0  0  0  0
  184.5440  178.8760  145.5040 C   0  0  0  0  0  3  0  0  0  0  0  0
  186.8560  178.3020  140.4360 C   0  0  0  0  0  3  0  0  0  0  0  0
  188.9030  177.5300  141.3270 C   0  0  0  0  0  0  0  0  0  0  0  0
  190.2980  177.0390  141.0900 C   0  0  0  0  0  2  0  0  0  0  0  0
  182.4120  178.0120  140.9650 O   0  0  0  0  0  0  0  0  0  0  0  0
  183.0090  178.8880  140.2820 C   0  0  0  0  0  0  0  0  0  0  0  0
  184.3100  179.3410  140.6810 N   0  0  0  0  0  2  0  0  0  0  0  0
  181.1780  180.6740  136.8240 C   0  0  0  0  0  0  0  0  0  0  0  0
  181.9930  180.8090  139.0940 C   0  0  0  0  0  3  0  0  0  0  0  0
  182.5260  177.2780  137.7340 C   0  0  0  0  0  1  0  0  0  0  0  0
  180.5850  181.2720  135.7210 O   0  0  0  0  0  1  0  0  0  0  0  0
  181.3970  181.4130  137.9850 C   0  0  0  0  0  3  0  0  0  0  0  0
  182.1540  178.7150  137.8750 C   0  0  0  0  0  0  0  0  0  0  0  0
  182.3810  179.4580  139.0630 C   0  0  0  0  0  0  0  0  0  0  0  0
  181.5550  179.3320  136.7710 C   0  0  0  0  0  3  0  0  0  0  0  0
  1  6  1  0  0  0  0
  1  9  1  0  0  0  0
  2  5  1  0  0  0  0
  3  2  1  0  0  0  0
  3  7  1  0  0  0  0
  4  7  1  0  0  0  0
  4 11  1  1  0  0  0
  5 16  1  0  0  0  0
  5 14  1  6  0  0  0
  8 23  1  1  0  0  0
  8 12  1  0  0  0  0
 10 18  2  0  0  0  0
 10 19  1  0  0  0  0
 12 16  1  0  0  0  0
 13  8  1  0  0  0  0
 13  2  2  0  0  0  0
 14  1  2  0  0  0  0
 15  4  1  0  0  0  0
 16 17  1  1  0  0  0
 17  6  2  0  0  0  0
 18 13  1  0  0  0  0
 19  3  2  0  0  0  0
 20 19  1  0  0  0  0
 20 15  1  0  0  0  0
 22 23  1  0  0  0  0
 22 21  2  0  0  0  0
 24 28  1  0  0  0  0
 26 29  1  0  0  0  0
 27 24  1  0  0  0  0
 28 25  2  0  0  0  0
 29 30  2  0  0  0  0
 30 25  1  0  0  0  0
 30 22  1  0  0  0  0
 31 24  2  0  0  0  0
 31 29  1  0  0  0  0
M  END
>  <MODEL>
5

>  <REMARK>
 VINA RESULT:      -9.8      2.788      8.366
  Name = 
  2 active torsions:
  status: ('A' for Active; 'I' for Inactive)
    1  A    between atoms: C_5  and  C_30
    2  A    between atoms: C_10  and  N_16
                            x       y       z     vdW  Elec       q    Type
                         _______ _______ _______ _____ _____    ______ ____

>  <TORSDO>
F 2

$$$$
=
 OpenBabel11122411103D

 31 35  0  0  1  0  0  0  0  0999 V2000
  180.7240  178.6330  142.1730 C   0  0  0  0  0  0  0  0  0  0  0  0
  184.3740  178.6920  141.5260 C   0  0  0  0  0  0  0  0  0  0  0  0
  184.5110  178.6400  140.1030 C   0  0  0  0  0  0  0  0  0  0  0  0
  183.4920  177.7070  138.0280 C   0  0  1  0  0  3  0  0  0  0  0  0
  183.1710  178.8090  142.1640 C   0  0  2  0  0  3  0  0  0  0  0  0
  180.7540  178.4620  143.6370 C   0  0  0  0  0  3  0  0  0  0  0  0
  183.3670  178.7590  139.1320 C   0  0  0  0  0  2  0  0  0  0  0  0
  185.5220  178.5300  143.6550 C   0  0  2  0  0  3  0  0  0  0  0  0
  179.5090  178.6060  141.5030 O   0  0  0  0  0  1  0  0  0  0  0  0
  186.8940  178.4830  140.3130 N   0  0  0  0  0  0  0  0  0  0  0  0
  182.4270  177.9360  136.9770 C   0  0  0  0  0  1  0  0  0  0  0  0
  184.2900  178.5940  144.3080 O   0  0  0  0  0  0  0  0  0  0  0  0
  185.5670  178.5950  142.3070 C   0  0  0  0  0  0  0  0  0  0  0  0
  181.8570  178.7750  141.4810 C   0  0  0  0  0  3  0  0  0  0  0  0
  184.8810  177.6620  137.3650 C   0  0  0  0  0  2  0  0  0  0  0  0
  183.1420  179.1060  143.6500 C   0  0  2  0  0  3  0  0  0  0  0  0
  181.8850  178.6340  144.3270 C   0  0  0  0  0  3  0  0  0  0  0  0
  186.8080  178.5000  141.6630 C   0  0  0  0  0  3  0  0  0  0  0  0
  185.7910  178.5360  139.5310 C   0  0  0  0  0  0  0  0  0  0  0  0
  185.9410  178.5430  138.0410 C   0  0  0  0  0  2  0  0  0  0  0  0
  187.0750  176.1020  143.9320 O   0  0  0  0  0  0  0  0  0  0  0  0
  187.4730  177.1380  144.5300 C   0  0  0  0  0  0  0  0  0  0  0  0
  186.7270  178.3580  144.4190 N   0  0  0  0  0  2  0  0  0  0  0  0
  190.9650  177.0680  147.0410 C   0  0  0  0  0  0  0  0  0  0  0  0
  188.5670  177.1220  146.7520 C   0  0  0  0  0  3  0  0  0  0  0  0
  190.2820  177.0670  143.3380 C   0  0  0  0  0  1  0  0  0  0  0  0
  192.0760  177.0460  147.8710 O   0  0  0  0  0  1  0  0  0  0  0  0
  189.6840  177.1000  147.5890 C   0  0  0  0  0  3  0  0  0  0  0  0
  190.0180  177.0800  144.8050 C   0  0  0  0  0  0  0  0  0  0  0  0
  188.7090  177.1130  145.3540 C   0  0  0  0  0  0  0  0  0  0  0  0
  191.1290  177.0580  145.6550 C   0  0  0  0  0  3  0  0  0  0  0  0
  1  6  1  0  0  0  0
  2  5  1  0  0  0  0
  2 13  1  0  0  0  0
  3  2  2  0  0  0  0
  4 11  1  6  0  0  0
  4  7  1  0  0  0  0
  5 14  1  6  0  0  0
  5 16  1  0  0  0  0
  6 17  2  0  0  0  0
  7  3  1  0  0  0  0
  8 12  1  0  0  0  0
  8 23  1  6  0  0  0
  9  1  1  0  0  0  0
 10 18  1  0  0  0  0
 13  8  1  0  0  0  0
 14  1  2  0  0  0  0
 15  4  1  0  0  0  0
 15 20  1  0  0  0  0
 16 12  1  0  0  0  0
 16 17  1  1  0  0  0
 18 13  2  0  0  0  0
 19  3  1  0  0  0  0
 19 10  2  0  0  0  0
 20 19  1  0  0  0  0
 21 22  2  0  0  0  0
 22 30  1  0  0  0  0
 23 22  1  0  0  0  0
 24 28  1  0  0  0  0
 24 27  1  0  0  0  0
 25 28  2  0  0  0  0
 26 29  1  0  0  0  0
 29 30  2  0  0  0  0
 29 31  1  0  0  0  0
 30 25  1  0  0  0  0
 31 24  2  0  0  0  0
M  END
>  <MODEL>
6

>  <REMARK>
 VINA RESULT:      -9.7      2.095      3.291
  Name = 
  2 active torsions:
  status: ('A' for Active; 'I' for Inactive)
    1  A    between atoms: C_5  and  C_30
    2  A    between atoms: C_10  and  N_16
                            x       y       z     vdW  Elec       q    Type
                         _______ _______ _______ _____ _____    ______ ____

>  <TORSDO>
F 2

$$$$
=
 OpenBabel11122411103D

 31 35  0  0  1  0  0  0  0  0999 V2000
  191.4430  177.3330  142.1600 C   0  0  0  0  0  0  0  0  0  0  0  0
  188.2040  177.8770  143.8780 C   0  0  0  0  0  0  0  0  0  0  0  0
  188.4970  177.8130  145.2760 C   0  0  0  0  0  0  0  0  0  0  0  0
  189.9570  176.7050  146.9650 C   0  0  1  0  0  3  0  0  0  0  0  0
  189.1620  177.8420  142.9030 C   0  0  2  0  0  3  0  0  0  0  0  0
  190.9490  177.1990  140.7770 C   0  0  0  0  0  3  0  0  0  0  0  0
  189.8860  177.7530  145.8530 C   0  0  0  0  0  2  0  0  0  0  0  0
  186.4550  177.9200  142.1990 C   0  0  2  0  0  3  0  0  0  0  0  0
  192.7870  177.1250  142.4310 O   0  0  0  0  0  1  0  0  0  0  0  0
  186.1640  177.9890  145.8000 N   0  0  0  0  0  0  0  0  0  0  0  0
  191.3110  176.7620  147.6400 C   0  0  0  0  0  1  0  0  0  0  0  0
  187.4290  177.8280  141.2040 O   0  0  0  0  0  0  0  0  0  0  0  0
  186.8280  177.9610  143.4960 C   0  0  0  0  0  0  0  0  0  0  0  0
  190.6030  177.6130  143.1580 C   0  0  0  0  0  3  0  0  0  0  0  0
  188.8410  176.8350  148.0180 C   0  0  0  0  0  2  0  0  0  0  0  0
  188.7800  178.1650  141.4720 C   0  0  2  0  0  3  0  0  0  0  0  0
  189.6980  177.5400  140.4580 C   0  0  0  0  0  3  0  0  0  0  0  0
  185.8400  178.0230  144.4870 C   0  0  0  0  0  3  0  0  0  0  0  0
  187.4480  177.8730  146.2100 C   0  0  0  0  0  0  0  0  0  0  0  0
  187.7580  177.8680  147.6750 C   0  0  0  0  0  2  0  0  0  0  0  0
  185.1440  179.7530  140.3810 O   0  0  0  0  0  0  0  0  0  0  0  0
  184.4490  178.8540  140.9290 C   0  0  0  0  0  0  0  0  0  0  0  0
  185.0640  177.9310  141.8390 N   0  0  0  0  0  2  0  0  0  0  0  0
  180.2720  178.5050  139.9640 C   0  0  0  0  0  0  0  0  0  0  0  0
  182.5980  178.5530  139.3120 C   0  0  0  0  0  3  0  0  0  0  0  0
  182.3040  179.0030  143.0950 C   0  0  0  0  0  1  0  0  0  0  0  0
  178.9310  178.3900  139.6280 O   0  0  0  0  0  1  0  0  0  0  0  0
  181.2490  178.4370  138.9720 C   0  0  0  0  0  3  0  0  0  0  0  0
  181.9930  178.8080  141.6500 C   0  0  0  0  0  0  0  0  0  0  0  0
  182.9950  178.7390  140.6470 C   0  0  0  0  0  0  0  0  0  0  0  0
  180.6440  178.6900  141.2960 C   0  0  0  0  0  3  0  0  0  0  0  0
  1  9  1  0  0  0  0
  1 14  2  0  0  0  0
  2  3  1  0  0  0  0
  3  7  1  0  0  0  0
  3 19  2  0  0  0  0
  4 11  1  1  0  0  0
  4 15  1  0  0  0  0
  5 14  1  1  0  0  0
  5  2  1  0  0  0  0
  6  1  1  0  0  0  0
  7  4  1  0  0  0  0
  8 23  1  1  0  0  0
  8 13  1  0  0  0  0
 10 19  1  0  0  0  0
 12 16  1  0  0  0  0
 12  8  1  0  0  0  0
 13  2  2  0  0  0  0
 13 18  1  0  0  0  0
 16 17  1  6  0  0  0
 16  5  1  0  0  0  0
 17  6  2  0  0  0  0
 18 10  2  0  0  0  0
 19 20  1  0  0  0  0
 20 15  1  0  0  0  0
 21 22  2  0  0  0  0
 22 23  1  0  0  0  0
 24 31  1  0  0  0  0
 25 30  2  0  0  0  0
 27 24  1  0  0  0  0
 28 25  1  0  0  0  0
 28 24  2  0  0  0  0
 29 26  1  0  0  0  0
 30 22  1  0  0  0  0
 30 29  1  0  0  0  0
 31 29  2  0  0  0  0
M  END
>  <MODEL>
7

>  <REMARK>
 VINA RESULT:      -9.6      2.968      8.763
  Name = 
  2 active torsions:
  status: ('A' for Active; 'I' for Inactive)
    1  A    between atoms: C_5  and  C_30
    2  A    between atoms: C_10  and  N_16
                            x       y       z     vdW  Elec       q    Type
                         _______ _______ _______ _____ _____    ______ ____

>  <TORSDO>
F 2

$$$$
=
 OpenBabel11122411103D

 31 35  0  0  1  0  0  0  0  0999 V2000
  187.2390  178.6010  136.4810 C   0  0  0  0  0  0  0  0  0  0  0  0
  186.1670  178.2260  140.0100 C   0  0  0  0  0  0  0  0  0  0  0  0
  184.7500  178.4200  140.0020 C   0  0  0  0  0  0  0  0  0  0  0  0
  182.9090  179.6780  138.8870 C   0  0  1  0  0  3  0  0  0  0  0  0
  186.9270  178.1680  138.8750 C   0  0  2  0  0  3  0  0  0  0  0  0
  188.6990  178.6060  136.6850 C   0  0  0  0  0  3  0  0  0  0  0  0
  183.9120  178.5310  138.7560 C   0  0  0  0  0  2  0  0  0  0  0  0
  188.1530  178.0310  141.3870 C   0  0  2  0  0  3  0  0  0  0  0  0
  186.7220  178.8300  135.2150 O   0  0  0  0  0  1  0  0  0  0  0  0
  184.6940  178.2990  142.3960 N   0  0  0  0  0  0  0  0  0  0  0  0
  181.9720  179.6810  137.6980 C   0  0  0  0  0  1  0  0  0  0  0  0
  188.9360  178.0270  140.2320 O   0  0  0  0  0  0  0  0  0  0  0  0
  186.8090  178.1100  141.2820 C   0  0  0  0  0  0  0  0  0  0  0  0
  186.4090  178.4170  137.5100 C   0  0  0  0  0  3  0  0  0  0  0  0
  182.0960  179.6490  140.1940 C   0  0  0  0  0  2  0  0  0  0  0  0
  188.3700  177.7140  138.9690 C   0  0  2  0  0  3  0  0  0  0  0  0
  189.2320  178.2400  137.8540 C   0  0  0  0  0  3  0  0  0  0  0  0
  186.0360  178.1430  142.4510 C   0  0  0  0  0  3  0  0  0  0  0  0
  184.0450  178.4490  141.2180 C   0  0  0  0  0  0  0  0  0  0  0  0
  182.5540  178.5910  141.2090 C   0  0  0  0  0  2  0  0  0  0  0  0
  188.6130  175.6870  143.0230 O   0  0  0  0  0  0  0  0  0  0  0  0
  188.9990  176.8050  143.4590 C   0  0  0  0  0  0  0  0  0  0  0  0
  188.7830  177.9890  142.6770 N   0  0  0  0  0  2  0  0  0  0  0  0
  191.0840  177.0850  147.2100 C   0  0  0  0  0  0  0  0  0  0  0  0
  191.0490  176.6340  144.8370 C   0  0  0  0  0  3  0  0  0  0  0  0
  187.5500  177.6110  146.0220 C   0  0  0  0  0  1  0  0  0  0  0  0
  191.7780  177.1670  148.4090 O   0  0  0  0  0  1  0  0  0  0  0  0
  191.7490  176.7160  146.0420 C   0  0  0  0  0  3  0  0  0  0  0  0
  189.0050  177.2900  145.9730 C   0  0  0  0  0  0  0  0  0  0  0  0
  189.6740  176.9160  144.7770 C   0  0  0  0  0  0  0  0  0  0  0  0
  189.7190  177.3700  147.1740 C   0  0  0  0  0  3  0  0  0  0  0  0
  1  6  1  0  0  0  0
  1 14  2  0  0  0  0
  2 13  1  0  0  0  0
  3  2  2  0  0  0  0
  3 19  1  0  0  0  0
  4 11  1  6  0  0  0
  4 15  1  0  0  0  0
  5 14  1  6  0  0  0
  5 16  1  0  0  0  0
  5  2  1  0  0  0  0
  6 17  2  0  0  0  0
  7  4  1  0  0  0  0
  7  3  1  0  0  0  0
  8 23  1  1  0  0  0
  9  1  1  0  0  0  0
 10 18  1  0  0  0  0
 12  8  1  0  0  0  0
 13  8  1  0  0  0  0
 13 18  2  0  0  0  0
 15 20  1  0  0  0  0
 16 17  1  6  0  0  0
 16 12  1  0  0  0  0
 19 10  2  0  0  0  0
 20 19  1  0  0  0  0
 21 22  2  0  0  0  0
 22 30  1  0  0  0  0
 23 22  1  0  0  0  0
 24 27  1  0  0  0  0
 25 28  1  0  0  0  0
 28 24  2  0  0  0  0
 29 26  1  0  0  0  0
 29 31  2  0  0  0  0
 30 25  2  0  0  0  0
 30 29  1  0  0  0  0
 31 24  1  0  0  0  0
M  END
>  <MODEL>
8

>  <REMARK>
 VINA RESULT:      -9.2      1.572      4.011
  Name = 
  2 active torsions:
  status: ('A' for Active; 'I' for Inactive)
    1  A    between atoms: C_5  and  C_30
    2  A    between atoms: C_10  and  N_16
                            x       y       z     vdW  Elec       q    Type
                         _______ _______ _______ _____ _____    ______ ____

>  <TORSDO>
F 2

$$$$
=
 OpenBabel11122411103D

 31 35  0  0  1  0  0  0  0  0999 V2000
  182.7610  178.0660  138.2020 C   0  0  0  0  0  0  0  0  0  0  0  0
  186.1530  178.4300  139.6530 C   0  0  0  0  0  0  0  0  0  0  0  0
  187.0580  178.2380  138.5630 C   0  0  0  0  0  0  0  0  0  0  0  0
  187.3860  176.9870  136.4320 C   0  0  1  0  0  3  0  0  0  0  0  0
  184.7950  178.4910  139.5050 C   0  0  2  0  0  3  0  0  0  0  0  0
  181.9770  178.0570  139.4510 C   0  0  0  0  0  3  0  0  0  0  0  0
  186.6430  178.1330  137.1190 C   0  0  0  0  0  2  0  0  0  0  0  0
  185.9290  178.6170  142.0600 C   0  0  2  0  0  3  0  0  0  0  0  0
  182.1230  177.8410  136.9900 O   0  0  0  0  0  1  0  0  0  0  0  0
  188.9260  178.3510  140.0600 N   0  0  0  0  0  0  0  0  0  0  0  0
  187.0790  176.9900  134.9500 C   0  0  0  0  0  1  0  0  0  0  0  0
  184.5410  178.6240  141.9160 O   0  0  0  0  0  0  0  0  0  0  0  0
  186.7130  178.5400  140.9640 C   0  0  0  0  0  0  0  0  0  0  0  0
  184.0830  178.2470  138.2290 C   0  0  0  0  0  3  0  0  0  0  0  0
  188.9110  177.0130  136.6500 C   0  0  0  0  0  2  0  0  0  0  0  0
  183.9380  178.9420  140.6710 C   0  0  2  0  0  3  0  0  0  0  0  0
  182.5290  178.4190  140.6120 C   0  0  0  0  0  3  0  0  0  0  0  0
  188.1050  178.5050  141.1240 C   0  0  0  0  0  3  0  0  0  0  0  0
  188.4420  178.2060  138.8050 C   0  0  0  0  0  0  0  0  0  0  0  0
  189.3940  178.0660  137.6570 C   0  0  0  0  0  2  0  0  0  0  0  0
  186.8510  176.3580  143.6180 O   0  0  0  0  0  0  0  0  0  0  0  0
  186.9610  177.5120  144.1150 C   0  0  0  0  0  0  0  0  0  0  0  0
  186.5110  178.6540  143.3730 N   0  0  0  0  0  2  0  0  0  0  0  0
  188.8020  178.0300  147.9670 C   0  0  0  0  0  0  0  0  0  0  0  0
  188.9210  177.4460  145.6260 C   0  0  0  0  0  3  0  0  0  0  0  0
  185.3450  178.4400  146.5320 C   0  0  0  0  0  1  0  0  0  0  0  0
  189.4190  178.1890  149.2000 O   0  0  0  0  0  1  0  0  0  0  0  0
  189.5440  177.6060  146.8660 C   0  0  0  0  0  3  0  0  0  0  0  0
  186.8040  178.1370  146.5920 C   0  0  0  0  0  0  0  0  0  0  0  0
  187.5500  177.7050  145.4640 C   0  0  0  0  0  0  0  0  0  0  0  0
  187.4390  178.2930  147.8290 C   0  0  0  0  0  3  0  0  0  0  0  0
  1 14  2  0  0  0  0
  1  6  1  0  0  0  0
  2 13  1  0  0  0  0
  3 19  1  0  0  0  0
  3  2  2  0  0  0  0
  4 11  1  6  0  0  0
  4 15  1  0  0  0  0
  4  7  1  0  0  0  0
  5 14  1  6  0  0  0
  5  2  1  0  0  0  0
  5 16  1  0  0  0  0
  6 17  2  0  0  0  0
  7  3  1  0  0  0  0
  8 23  1  1  0  0  0
  9  1  1  0  0  0  0
 10 18  1  0  0  0  0
 12  8  1  0  0  0  0
 13 18  2  0  0  0  0
 13  8  1  0  0  0  0
 15 20  1  0  0  0  0
 16 17  1  6  0  0  0
 16 12  1  0  0  0  0
 19 10  2  0  0  0  0
 20 19  1  0  0  0  0
 21 22  2  0  0  0  0
 22 30  1  0  0  0  0
 23 22  1  0  0  0  0
 24 27  1  0  0  0  0
 25 28  1  0  0  0  0
 26 29  1  0  0  0  0
 28 24  2  0  0  0  0
 29 31  2  0  0  0  0
 30 25  2  0  0  0  0
 30 29  1  0  0  0  0
 31 24  1  0  0  0  0
M  END
>  <MODEL>
9

>  <REMARK>
 VINA RESULT:      -9.0      1.355      1.712
  Name = 
  2 active torsions:
  status: ('A' for Active; 'I' for Inactive)
    1  A    between atoms: C_5  and  C_30
    2  A    between atoms: C_10  and  N_16
                            x       y       z     vdW  Elec       q    Type
                         _______ _______ _______ _____ _____    ______ ____

>  <TORSDO>
F 2

$$$$
