=
 OpenBabel11122411323D

 37 43  0  0  1  0  0  0  0  0999 V2000
  182.6010  176.3980  136.1200 C   0  0  0  0  0  0  0  0  0  0  0  0
  186.3620  174.5200  136.5850 C   0  0  2  0  0  3  0  0  0  0  0  0
  189.4820  176.9330  136.9820 C   0  0  0  0  0  2  0  0  0  0  0  0
  183.9280  174.2850  136.2440 C   0  0  0  0  0  0  0  0  0  0  0  0
  187.2180  175.6140  137.1240 C   0  0  1  0  0  3  0  0  0  0  0  0
  185.1330  175.1100  136.0380 C   0  0  1  0  0  3  0  0  0  0  0  0
  188.6910  175.6420  136.5770 C   0  0  2  0  0  3  0  0  0  0  0  0
  184.0260  173.0000  136.4390 N   0  0  0  0  0  0  0  0  0  0  0  0
  184.9620  176.3330  136.7820 N   0  0  2  0  0  0  0  0  0  0  0  0
  181.8550  176.9370  137.3240 C   0  0  0  0  0  1  0  0  0  0  0  0
  187.7200  172.6360  137.4060 C   0  0  0  0  0  2  0  0  0  0  0  0
  185.3250  172.2990  136.4060 C   0  0  0  0  0  2  0  0  0  0  0  0
  183.9850  177.1100  136.0310 C   0  0  0  0  0  2  0  0  0  0  0  0
  188.8350  178.9820  138.3930 O   0  0  0  0  0  0  0  0  0  0  0  0
  188.8150  177.5900  138.1690 C   0  0  1  0  0  3  0  0  0  0  0  0
  186.4720  173.2060  136.8150 C   0  0  2  0  0  3  0  0  0  0  0  0
  186.3270  176.8490  136.7830 C   0  0  1  0  0  3  0  0  0  0  0  0
  182.6970  174.9550  136.2390 O   0  0  0  0  0  0  0  0  0  0  0  0
  189.4960  174.3970  137.0430 C   0  0  1  0  0  3  0  0  0  0  0  0
  181.8060  176.7360  134.8760 C   0  0  0  0  0  1  0  0  0  0  0  0
  187.9420  178.5290  137.4130 C   0  0  1  0  0  3  0  0  0  0  0  0
  186.5230  178.0550  137.7240 C   0  0  2  0  0  3  0  0  0  0  0  0
  188.9240  173.0560  136.5730 C   0  0  0  0  0  2  0  0  0  0  0  0
  191.2720  174.4040  135.2790 C   0  0  0  0  0  3  0  0  0  0  0  0
  190.9400  174.4610  136.6360 C   0  0  0  0  0  0  0  0  0  0  0  0
  191.9590  174.5820  137.5950 C   0  0  0  0  0  3  0  0  0  0  0  0
  194.2780  174.7560  138.1200 F   0  0  0  0  0  0  0  0  0  0  0  0
  193.6210  174.5810  135.8350 C   0  0  0  0  0  3  0  0  0  0  0  0
  193.2970  174.6400  137.1930 C   0  0  0  0  0  0  0  0  0  0  0  0
  192.6090  174.4620  134.8770 C   0  0  0  0  0  3  0  0  0  0  0  0
  186.3240  177.7110  139.0740 O   0  0  0  0  0  0  0  0  0  0  0  0
  185.7210  178.8290  139.6640 C   0  0  1  0  0  3  0  0  0  0  0  0
  184.1730  180.5220  138.9810 O   0  0  0  0  0  1  0  0  0  0  0  0
  184.4040  179.1460  138.9700 C   0  0  0  0  0  2  0  0  0  0  0  0
  185.5050  178.6100  141.1650 C   0  0  0  0  0  2  0  0  0  0  0  0
  186.7890  178.4710  141.9260 C   0  0  0  0  0  3  0  0  0  0  0  0
  187.8390  178.8680  141.4480 O   0  0  0  0  0  0  0  0  0  0  0  0
  1 18  1  0  0  0  0
  1 10  1  0  0  0  0
  2 16  1  0  0  0  0
  2  5  1  0  0  0  0
  3 15  1  0  0  0  0
  4  8  2  0  0  0  0
  6  4  1  0  0  0  0
  6  2  1  0  0  0  0
  6  9  1  0  0  0  0
  7  3  1  0  0  0  0
  7 19  1  0  0  0  0
  7  5  1  0  0  0  0
  9 17  1  0  0  0  0
 12  8  1  0  0  0  0
 12 16  1  0  0  0  0
 13  1  1  0  0  0  0
 13  9  1  0  0  0  0
 15 14  1  0  0  0  0
 16 11  1  0  0  0  0
 17  5  1  0  0  0  0
 17 22  1  0  0  0  0
 18  4  1  0  0  0  0
 20  1  1  0  0  0  0
 21 22  1  0  0  0  0
 21 15  1  0  0  0  0
 21 14  1  0  0  0  0
 22 31  1  0  0  0  0
 23 19  1  0  0  0  0
 23 11  1  0  0  0  0
 24 25  1  0  0  0  0
 25 19  1  0  0  0  0
 25 26  2  0  0  0  0
 28 29  2  0  0  0  0
 29 26  1  0  0  0  0
 29 27  1  0  0  0  0
 30 24  2  0  0  0  0
 30 28  1  0  0  0  0
 31 32  1  0  0  0  0
 32 35  1  0  0  0  0
 34 33  1  0  0  0  0
 34 32  1  0  0  0  0
 35 36  1  0  0  0  0
 37 36  2  0  0  0  0
M  END
>  <MODEL>
1

>  <REMARK>
 VINA RESULT:      -5.9      0.000      0.000
  Name = 
  6 active torsions:
  status: ('A' for Active; 'I' for Inactive)
    1  A    between atoms: O_1  and  C_4
    2  A    between atoms: O_1  and  C_27
    3  A    between atoms: C_4  and  C_12
    4  A    between atoms: C_4  and  C_37
    5  A    between atoms: C_8  and  C_12
    6  A    between atoms: C_23  and  C_30
                            x       y       z     vdW  Elec       q    Type
                         _______ _______ _______ _____ _____    ______ ____

>  <TORSDO>
F 6

$$$$
=
 OpenBabel11122411323D

 37 43  0  0  1  0  0  0  0  0999 V2000
  179.6040  177.2410  139.5680 C   0  0  0  0  0  0  0  0  0  0  0  0
  182.0900  178.2140  142.8480 C   0  0  2  0  0  3  0  0  0  0  0  0
  185.9960  178.0460  142.1890 C   0  0  0  0  0  2  0  0  0  0  0  0
  179.8040  177.9050  141.9680 C   0  0  0  0  0  0  0  0  0  0  0  0
  183.4080  178.4770  142.2030 C   0  0  1  0  0  3  0  0  0  0  0  0
  181.2260  177.5190  141.8850 C   0  0  1  0  0  3  0  0  0  0  0  0
  184.6590  177.9620  143.0030 C   0  0  2  0  0  3  0  0  0  0  0  0
  179.3150  178.4140  143.0630 N   0  0  0  0  0  0  0  0  0  0  0  0
  181.7210  177.9330  140.5960 N   0  0  2  0  0  0  0  0  0  0  0  0
  179.3250  178.2620  138.4840 C   0  0  0  0  0  1  0  0  0  0  0  0
  182.4970  179.4960  144.9100 C   0  0  0  0  0  2  0  0  0  0  0  0
  180.1290  178.5760  144.2840 C   0  0  0  0  0  2  0  0  0  0  0  0
  181.1420  176.9980  139.6400 C   0  0  0  0  0  2  0  0  0  0  0  0
  186.5250  178.8950  139.8210 O   0  0  0  0  0  0  0  0  0  0  0  0
  185.8390  179.0230  141.0460 C   0  0  1  0  0  3  0  0  0  0  0  0
  181.6020  178.7640  143.9660 C   0  0  2  0  0  3  0  0  0  0  0  0
  183.1600  177.8270  140.8060 C   0  0  1  0  0  3  0  0  0  0  0  0
  179.0320  177.7150  140.8130 O   0  0  0  0  0  0  0  0  0  0  0  0
  184.8380  178.7350  144.3400 C   0  0  1  0  0  3  0  0  0  0  0  0
  178.9310  175.9400  139.1830 C   0  0  0  0  0  1  0  0  0  0  0  0
  185.4260  178.0440  140.0030 C   0  0  1  0  0  3  0  0  0  0  0  0
  183.9920  178.4420  139.6620 C   0  0  2  0  0  3  0  0  0  0  0  0
  183.6630  178.6050  145.3130 C   0  0  0  0  0  2  0  0  0  0  0  0
  186.1910  178.5750  146.4390 C   0  0  0  0  0  3  0  0  0  0  0  0
  186.0950  178.3470  145.0630 C   0  0  0  0  0  0  0  0  0  0  0  0
  187.1710  177.7560  144.3810 C   0  0  0  0  0  3  0  0  0  0  0  0
  189.3700  176.8340  144.4140 F   0  0  0  0  0  0  0  0  0  0  0  0
  188.4220  177.6350  146.4500 C   0  0  0  0  0  3  0  0  0  0  0  0
  188.3330  177.4030  145.0750 C   0  0  0  0  0  0  0  0  0  0  0  0
  187.3520  178.2210  147.1330 C   0  0  0  0  0  3  0  0  0  0  0  0
  183.7980  179.8320  139.5550 O   0  0  0  0  0  0  0  0  0  0  0  0
  183.2360  180.0400  138.2890 C   0  0  1  0  0  3  0  0  0  0  0  0
  182.1060  178.6730  136.6820 O   0  0  0  0  0  1  0  0  0  0  0  0
  183.2390  178.7430  137.4920 C   0  0  0  0  0  2  0  0  0  0  0  0
  181.8170  180.6030  138.4030 C   0  0  0  0  0  2  0  0  0  0  0  0
  181.7820  182.1020  138.4130 C   0  0  0  0  0  3  0  0  0  0  0  0
  181.2680  182.7160  137.4910 O   0  0  0  0  0  0  0  0  0  0  0  0
  1 13  1  0  0  0  0
  1 18  1  0  0  0  0
  2 16  1  0  0  0  0
  3  7  1  0  0  0  0
  4  8  2  0  0  0  0
  5  2  1  0  0  0  0
  5  7  1  0  0  0  0
  6  4  1  0  0  0  0
  6  2  1  0  0  0  0
  7 19  1  0  0  0  0
  8 12  1  0  0  0  0
  9 17  1  0  0  0  0
  9  6  1  0  0  0  0
 10  1  1  0  0  0  0
 11 23  1  0  0  0  0
 13  9  1  0  0  0  0
 14 21  1  0  0  0  0
 14 15  1  0  0  0  0
 15  3  1  0  0  0  0
 16 12  1  0  0  0  0
 16 11  1  0  0  0  0
 17  5  1  0  0  0  0
 18  4  1  0  0  0  0
 19 25  1  0  0  0  0
 19 23  1  0  0  0  0
 20  1  1  0  0  0  0
 21 15  1  0  0  0  0
 22 21  1  0  0  0  0
 22 17  1  0  0  0  0
 24 30  1  0  0  0  0
 25 24  2  0  0  0  0
 26 25  1  0  0  0  0
 26 29  2  0  0  0  0
 27 29  1  0  0  0  0
 28 30  2  0  0  0  0
 29 28  1  0  0  0  0
 31 22  1  0  0  0  0
 32 35  1  0  0  0  0
 32 31  1  0  0  0  0
 33 34  1  0  0  0  0
 34 32  1  0  0  0  0
 35 36  1  0  0  0  0
 37 36  2  0  0  0  0
M  END
>  <MODEL>
2

>  <REMARK>
 VINA RESULT:      -5.6      5.338      7.890
  Name = 
  6 active torsions:
  status: ('A' for Active; 'I' for Inactive)
    1  A    between atoms: O_1  and  C_4
    2  A    between atoms: O_1  and  C_27
    3  A    between atoms: C_4  and  C_12
    4  A    between atoms: C_4  and  C_37
    5  A    between atoms: C_8  and  C_12
    6  A    between atoms: C_23  and  C_30
                            x       y       z     vdW  Elec       q    Type
                         _______ _______ _______ _____ _____    ______ ____

>  <TORSDO>
F 6

$$$$
=
 OpenBabel11122411323D

 37 43  0  0  1  0  0  0  0  0999 V2000
  184.4380  178.8550  139.2560 C   0  0  0  0  0  0  0  0  0  0  0  0
  187.5180  176.4120  137.6980 C   0  0  2  0  0  3  0  0  0  0  0  0
  191.1680  177.1110  139.0780 C   0  0  0  0  0  2  0  0  0  0  0  0
  185.1260  177.0230  137.7040 C   0  0  0  0  0  0  0  0  0  0  0  0
  188.6260  176.6040  138.6770 C   0  0  1  0  0  3  0  0  0  0  0  0
  186.5180  177.4680  137.9060 C   0  0  1  0  0  3  0  0  0  0  0  0
  190.0660  176.6760  138.0530 C   0  0  2  0  0  3  0  0  0  0  0  0
  184.8600  175.9830  136.9660 N   0  0  0  0  0  0  0  0  0  0  0  0
  186.6680  177.8330  139.2930 N   0  0  2  0  0  0  0  0  0  0  0  0
  183.8310  178.5590  140.6130 C   0  0  0  0  0  1  0  0  0  0  0  0
  188.2770  174.2490  136.7980 C   0  0  0  0  0  2  0  0  0  0  0  0
  185.9160  175.2360  136.2530 C   0  0  0  0  0  2  0  0  0  0  0  0
  185.9660  179.1020  139.4360 C   0  0  0  0  0  2  0  0  0  0  0  0
  191.0660  177.6880  141.5810 O   0  0  0  0  0  0  0  0  0  0  0  0
  190.6710  176.8900  140.4890 C   0  0  1  0  0  3  0  0  0  0  0  0
  187.2550  175.3250  136.9640 C   0  0  2  0  0  3  0  0  0  0  0  0
  188.1200  177.8860  139.4100 C   0  0  1  0  0  3  0  0  0  0  0  0
  184.1280  177.7590  138.3580 O   0  0  0  0  0  0  0  0  0  0  0  0
  190.4810  175.3200  137.4180 C   0  0  1  0  0  3  0  0  0  0  0  0
  183.8070  180.1230  138.7190 C   0  0  0  0  0  1  0  0  0  0  0  0
  190.1150  178.2510  140.7200 C   0  0  1  0  0  3  0  0  0  0  0  0
  188.6120  178.0220  140.8660 C   0  0  2  0  0  3  0  0  0  0  0  0
  189.5760  174.8470  136.2760 C   0  0  0  0  0  2  0  0  0  0  0  0
  192.2150  176.0370  135.7620 C   0  0  0  0  0  3  0  0  0  0  0  0
  191.8990  175.3270  136.9240 C   0  0  0  0  0  0  0  0  0  0  0  0
  192.9100  174.6370  137.6130 C   0  0  0  0  0  3  0  0  0  0  0  0
  195.1970  173.9890  137.7990 F   0  0  0  0  0  0  0  0  0  0  0  0
  194.5330  175.3680  135.9710 C   0  0  0  0  0  3  0  0  0  0  0  0
  194.2240  174.6570  137.1340 C   0  0  0  0  0  0  0  0  0  0  0  0
  193.5290  176.0580  135.2840 C   0  0  0  0  0  3  0  0  0  0  0  0
  188.2820  176.8970  141.6430 O   0  0  0  0  0  0  0  0  0  0  0  0
  188.0090  177.3890  142.9260 C   0  0  1  0  0  3  0  0  0  0  0  0
  186.2390  178.0510  144.3940 O   0  0  0  0  0  1  0  0  0  0  0  0
  186.5070  177.5200  143.1320 C   0  0  0  0  0  2  0  0  0  0  0  0
  188.6300  176.4940  144.0020 C   0  0  0  0  0  2  0  0  0  0  0  0
  189.7540  177.1580  144.7380 C   0  0  0  0  0  3  0  0  0  0  0  0
  189.6480  178.3110  145.1230 O   0  0  0  0  0  0  0  0  0  0  0  0
  1 13  1  0  0  0  0
  1 10  1  0  0  0  0
  2  6  1  0  0  0  0
  2  5  1  0  0  0  0
  3 15  1  0  0  0  0
  4  6  1  0  0  0  0
  4 18  1  0  0  0  0
  5 17  1  0  0  0  0
  6  9  1  0  0  0  0
  7  5  1  0  0  0  0
  7  3  1  0  0  0  0
  8  4  2  0  0  0  0
  9 17  1  0  0  0  0
  9 13  1  0  0  0  0
 11 16  1  0  0  0  0
 12 16  1  0  0  0  0
 12  8  1  0  0  0  0
 15 21  1  0  0  0  0
 15 14  1  0  0  0  0
 16  2  1  0  0  0  0
 17 22  1  0  0  0  0
 18  1  1  0  0  0  0
 19  7  1  0  0  0  0
 20  1  1  0  0  0  0
 21 22  1  0  0  0  0
 21 14  1  0  0  0  0
 22 31  1  0  0  0  0
 23 11  1  0  0  0  0
 23 19  1  0  0  0  0
 24 25  1  0  0  0  0
 25 19  1  0  0  0  0
 25 26  2  0  0  0  0
 28 29  2  0  0  0  0
 29 26  1  0  0  0  0
 29 27  1  0  0  0  0
 30 24  2  0  0  0  0
 30 28  1  0  0  0  0
 31 32  1  0  0  0  0
 32 34  1  0  0  0  0
 32 35  1  0  0  0  0
 34 33  1  0  0  0  0
 35 36  1  0  0  0  0
 36 37  2  0  0  0  0
M  END
>  <MODEL>
3

>  <REMARK>
 VINA RESULT:      -5.6      2.057      3.382
  Name = 
  6 active torsions:
  status: ('A' for Active; 'I' for Inactive)
    1  A    between atoms: O_1  and  C_4
    2  A    between atoms: O_1  and  C_27
    3  A    between atoms: C_4  and  C_12
    4  A    between atoms: C_4  and  C_37
    5  A    between atoms: C_8  and  C_12
    6  A    between atoms: C_23  and  C_30
                            x       y       z     vdW  Elec       q    Type
                         _______ _______ _______ _____ _____    ______ ____

>  <TORSDO>
F 6

$$$$
=
 OpenBabel11122411323D

 37 43  0  0  1  0  0  0  0  0999 V2000
  187.4420  178.5860  137.3030 C   0  0  0  0  0  0  0  0  0  0  0  0
  188.0930  177.5630  141.3540 C   0  0  2  0  0  3  0  0  0  0  0  0
  185.3750  178.8470  143.9380 C   0  0  0  0  0  2  0  0  0  0  0  0
  188.8820  177.4760  139.0160 C   0  0  0  0  0  0  0  0  0  0  0  0
  186.7580  177.7890  141.9750 C   0  0  1  0  0  3  0  0  0  0  0  0
  188.1160  178.2150  140.0380 C   0  0  1  0  0  3  0  0  0  0  0  0
  186.7870  178.4100  143.4190 C   0  0  2  0  0  3  0  0  0  0  0  0
  189.8100  176.6300  139.3620 N   0  0  0  0  0  0  0  0  0  0  0  0
  186.7350  178.2360  139.6250 N   0  0  2  0  0  0  0  0  0  0  0  0
  186.4660  177.7960  136.4560 C   0  0  0  0  0  1  0  0  0  0  0  0
  188.9570  175.9970  143.0470 C   0  0  0  0  0  2  0  0  0  0  0  0
  190.1840  176.4090  140.7740 C   0  0  0  0  0  2  0  0  0  0  0  0
  186.6760  179.1850  138.5210 C   0  0  0  0  0  2  0  0  0  0  0  0
  183.0320  178.7080  142.8910 O   0  0  0  0  0  0  0  0  0  0  0  0
  184.2980  178.1430  143.1460 C   0  0  1  0  0  3  0  0  0  0  0  0
  189.0240  176.6730  141.7170 C   0  0  2  0  0  3  0  0  0  0  0  0
  186.0840  178.6510  140.8620 C   0  0  1  0  0  3  0  0  0  0  0  0
  188.5420  177.7180  137.6770 O   0  0  0  0  0  0  0  0  0  0  0  0
  187.4160  177.4290  144.4480 C   0  0  1  0  0  3  0  0  0  0  0  0
  187.9820  179.7290  136.4670 C   0  0  0  0  0  1  0  0  0  0  0  0
  184.0910  179.1930  142.1120 C   0  0  1  0  0  3  0  0  0  0  0  0
  184.5460  178.5350  140.8110 C   0  0  2  0  0  3  0  0  0  0  0  0
  188.8680  177.0400  144.1530 C   0  0  0  0  0  2  0  0  0  0  0  0
  186.1560  178.5320  146.3090 C   0  0  0  0  0  3  0  0  0  0  0  0
  187.3440  177.9490  145.8550 C   0  0  0  0  0  0  0  0  0  0  0  0
  188.4460  177.8550  146.7200 C   0  0  0  0  0  3  0  0  0  0  0  0
  189.4210  178.2570  148.8580 F   0  0  0  0  0  0  0  0  0  0  0  0
  187.1670  178.9300  148.4730 C   0  0  0  0  0  3  0  0  0  0  0  0
  188.3560  178.3470  148.0260 C   0  0  0  0  0  0  0  0  0  0  0  0
  186.0670  179.0220  147.6150 C   0  0  0  0  0  3  0  0  0  0  0  0
  184.1210  177.2010  140.6720 O   0  0  0  0  0  0  0  0  0  0  0  0
  182.9780  177.2510  139.8630 C   0  0  1  0  0  3  0  0  0  0  0  0
  182.1800  178.9720  138.4030 O   0  0  0  0  0  1  0  0  0  0  0  0
  183.2450  178.0980  138.6260 C   0  0  0  0  0  2  0  0  0  0  0  0
  182.5210  175.8430  139.4680 C   0  0  0  0  0  2  0  0  0  0  0  0
  182.9890  175.4370  138.1040 C   0  0  0  0  0  3  0  0  0  0  0  0
  183.8000  174.5350  137.9690 O   0  0  0  0  0  0  0  0  0  0  0  0
  1 18  1  0  0  0  0
  1 13  1  0  0  0  0
  2 16  1  0  0  0  0
  2  5  1  0  0  0  0
  4  8  2  0  0  0  0
  4  6  1  0  0  0  0
  5  7  1  0  0  0  0
  6  2  1  0  0  0  0
  7  3  1  0  0  0  0
  7 19  1  0  0  0  0
  8 12  1  0  0  0  0
  9  6  1  0  0  0  0
  9 17  1  0  0  0  0
 10  1  1  0  0  0  0
 11 23  1  0  0  0  0
 12 16  1  0  0  0  0
 13  9  1  0  0  0  0
 14 15  1  0  0  0  0
 15  3  1  0  0  0  0
 16 11  1  0  0  0  0
 17  5  1  0  0  0  0
 18  4  1  0  0  0  0
 19 25  1  0  0  0  0
 20  1  1  0  0  0  0
 21 14  1  0  0  0  0
 21 15  1  0  0  0  0
 22 17  1  0  0  0  0
 22 21  1  0  0  0  0
 23 19  1  0  0  0  0
 24 30  1  0  0  0  0
 25 24  2  0  0  0  0
 25 26  1  0  0  0  0
 26 29  2  0  0  0  0
 29 28  1  0  0  0  0
 29 27  1  0  0  0  0
 30 28  2  0  0  0  0
 31 22  1  0  0  0  0
 32 31  1  0  0  0  0
 33 34  1  0  0  0  0
 34 32  1  0  0  0  0
 35 32  1  0  0  0  0
 36 35  1  0  0  0  0
 37 36  2  0  0  0  0
M  END
>  <MODEL>
4

>  <REMARK>
 VINA RESULT:      -5.6      4.040      7.756
  Name = 
  6 active torsions:
  status: ('A' for Active; 'I' for Inactive)
    1  A    between atoms: O_1  and  C_4
    2  A    between atoms: O_1  and  C_27
    3  A    between atoms: C_4  and  C_12
    4  A    between atoms: C_4  and  C_37
    5  A    between atoms: C_8  and  C_12
    6  A    between atoms: C_23  and  C_30
                            x       y       z     vdW  Elec       q    Type
                         _______ _______ _______ _____ _____    ______ ____

>  <TORSDO>
F 6

$$$$
=
 OpenBabel11122411323D

 37 43  0  0  1  0  0  0  0  0999 V2000
  189.6300  176.1220  135.7380 C   0  0  0  0  0  0  0  0  0  0  0  0
  186.7750  177.8310  138.3490 C   0  0  2  0  0  3  0  0  0  0  0  0
  182.9840  177.5260  137.2310 C   0  0  0  0  0  2  0  0  0  0  0  0
  189.1490  177.3840  137.8400 C   0  0  0  0  0  0  0  0  0  0  0  0
  185.4980  177.2020  137.9060 C   0  0  1  0  0  3  0  0  0  0  0  0
  187.7910  177.6120  137.3100 C   0  0  1  0  0  3  0  0  0  0  0  0
  184.2450  178.1500  137.9190 C   0  0  2  0  0  3  0  0  0  0  0  0
  189.4820  177.8090  139.0250 N   0  0  0  0  0  0  0  0  0  0  0  0
  187.3690  176.4050  136.6450 N   0  0  2  0  0  0  0  0  0  0  0  0
  189.8910  174.6290  135.7520 C   0  0  0  0  0  1  0  0  0  0  0  0
  186.0520  178.4220  140.6270 C   0  0  0  0  0  2  0  0  0  0  0  0
  188.5510  178.5830  139.8710 C   0  0  0  0  0  2  0  0  0  0  0  0
  188.1280  176.3630  135.4020 C   0  0  0  0  0  2  0  0  0  0  0  0
  182.5750  175.2430  136.1230 O   0  0  0  0  0  0  0  0  0  0  0  0
  183.1330  176.0240  137.1550 C   0  0  1  0  0  3  0  0  0  0  0  0
  187.1010  178.2430  139.5790 C   0  0  2  0  0  3  0  0  0  0  0  0
  185.9370  176.6490  136.5140 C   0  0  1  0  0  3  0  0  0  0  0  0
  190.0360  176.6770  137.0150 O   0  0  0  0  0  0  0  0  0  0  0  0
  183.8670  178.5740  139.3660 C   0  0  1  0  0  3  0  0  0  0  0  0
  190.4720  176.7430  134.6430 C   0  0  0  0  0  1  0  0  0  0  0  0
  183.7390  175.9510  135.7980 C   0  0  1  0  0  3  0  0  0  0  0  0
  185.1460  175.4100  136.0440 C   0  0  2  0  0  3  0  0  0  0  0  0
  184.9590  179.3480  140.1100 C   0  0  0  0  0  2  0  0  0  0  0  0
  181.5500  178.9540  140.2350 C   0  0  0  0  0  3  0  0  0  0  0  0
  182.6010  179.3800  139.4160 C   0  0  0  0  0  0  0  0  0  0  0  0
  182.4570  180.5520  138.6570 C   0  0  0  0  0  3  0  0  0  0  0  0
  181.1330  182.4170  137.9840 F   0  0  0  0  0  0  0  0  0  0  0  0
  180.2230  180.8550  139.5380 C   0  0  0  0  0  3  0  0  0  0  0  0
  181.2690  181.2870  138.7180 C   0  0  0  0  0  0  0  0  0  0  0  0
  180.3630  179.6890  140.2970 C   0  0  0  0  0  3  0  0  0  0  0  0
  185.1960  174.3630  136.9830 O   0  0  0  0  0  0  0  0  0  0  0  0
  185.7630  173.2750  136.3070 C   0  0  1  0  0  3  0  0  0  0  0  0
  187.7010  171.8710  136.3310 O   0  0  0  0  0  1  0  0  0  0  0  0
  186.8840  172.6660  137.1360 C   0  0  0  0  0  2  0  0  0  0  0  0
  184.7010  172.2230  135.9720 C   0  0  0  0  0  2  0  0  0  0  0  0
  183.7760  171.9400  137.1160 C   0  0  0  0  0  3  0  0  0  0  0  0
  182.5660  171.9860  136.9620 O   0  0  0  0  0  0  0  0  0  0  0  0
  1 10  1  0  0  0  0
  1 18  1  0  0  0  0
  2 16  1  0  0  0  0
  3  7  1  0  0  0  0
  4  8  2  0  0  0  0
  5  7  1  0  0  0  0
  5  2  1  0  0  0  0
  6  4  1  0  0  0  0
  6  2  1  0  0  0  0
  7 19  1  0  0  0  0
  8 12  1  0  0  0  0
  9  6  1  0  0  0  0
 13  1  1  0  0  0  0
 13  9  1  0  0  0  0
 14 15  1  0  0  0  0
 15  3  1  0  0  0  0
 16 12  1  0  0  0  0
 16 11  1  0  0  0  0
 17  9  1  0  0  0  0
 17  5  1  0  0  0  0
 18  4  1  0  0  0  0
 19 25  1  0  0  0  0
 19 23  1  0  0  0  0
 20  1  1  0  0  0  0
 21 22  1  0  0  0  0
 21 14  1  0  0  0  0
 21 15  1  0  0  0  0
 22 17  1  0  0  0  0
 22 31  1  0  0  0  0
 23 11  1  0  0  0  0
 24 30  1  0  0  0  0
 25 24  2  0  0  0  0
 26 29  2  0  0  0  0
 26 25  1  0  0  0  0
 27 29  1  0  0  0  0
 28 30  2  0  0  0  0
 29 28  1  0  0  0  0
 32 31  1  0  0  0  0
 32 34  1  0  0  0  0
 33 34  1  0  0  0  0
 35 32  1  0  0  0  0
 35 36  1  0  0  0  0
 37 36  2  0  0  0  0
M  END
>  <MODEL>
5

>  <REMARK>
 VINA RESULT:      -5.5      3.434      8.309
  Name = 
  6 active torsions:
  status: ('A' for Active; 'I' for Inactive)
    1  A    between atoms: O_1  and  C_4
    2  A    between atoms: O_1  and  C_27
    3  A    between atoms: C_4  and  C_12
    4  A    between atoms: C_4  and  C_37
    5  A    between atoms: C_8  and  C_12
    6  A    between atoms: C_23  and  C_30
                            x       y       z     vdW  Elec       q    Type
                         _______ _______ _______ _____ _____    ______ ____

>  <TORSDO>
F 6

$$$$
=
 OpenBabel11122411323D

 37 43  0  0  1  0  0  0  0  0999 V2000
  186.9890  176.9080  136.1510 C   0  0  0  0  0  0  0  0  0  0  0  0
  190.6950  174.8710  136.1910 C   0  0  2  0  0  3  0  0  0  0  0  0
  193.5600  176.5030  138.3940 C   0  0  0  0  0  2  0  0  0  0  0  0
  188.3800  174.9960  135.3440 C   0  0  0  0  0  0  0  0  0  0  0  0
  191.3810  175.4470  137.3830 C   0  0  1  0  0  3  0  0  0  0  0  0
  189.5580  175.7320  135.8420 C   0  0  1  0  0  3  0  0  0  0  0  0
  192.9250  175.6860  137.2170 C   0  0  2  0  0  3  0  0  0  0  0  0
  188.5080  173.8090  134.8230 N   0  0  0  0  0  0  0  0  0  0  0  0
  189.1900  176.3620  137.0860 N   0  0  2  0  0  0  0  0  0  0  0  0
  186.0090  176.7460  137.2960 C   0  0  0  0  0  1  0  0  0  0  0  0
  191.9780  172.7720  136.0860 C   0  0  0  0  0  2  0  0  0  0  0  0
  189.8270  173.1660  134.6500 C   0  0  0  0  0  2  0  0  0  0  0  0
  188.3260  177.4750  136.7150 C   0  0  0  0  0  2  0  0  0  0  0  0
  192.5600  177.4880  140.5470 O   0  0  0  0  0  0  0  0  0  0  0  0
  192.6550  176.4450  139.6030 C   0  0  1  0  0  3  0  0  0  0  0  0
  190.8300  173.6400  135.6860 C   0  0  2  0  0  3  0  0  0  0  0  0
  190.5030  176.7160  137.6140 C   0  0  1  0  0  3  0  0  0  0  0  0
  187.1370  175.6290  135.4820 O   0  0  0  0  0  0  0  0  0  0  0  0
  193.6960  174.3440  137.0670 C   0  0  1  0  0  3  0  0  0  0  0  0
  186.4170  177.9110  135.1710 C   0  0  0  0  0  1  0  0  0  0  0  0
  191.8860  177.6910  139.3360 C   0  0  1  0  0  3  0  0  0  0  0  0
  190.4610  177.2050  139.0770 C   0  0  2  0  0  3  0  0  0  0  0  0
  193.2900  173.5080  135.8500 C   0  0  0  0  0  2  0  0  0  0  0  0
  195.9620  174.0730  138.0960 C   0  0  0  0  0  3  0  0  0  0  0  0
  195.1840  174.5380  137.0300 C   0  0  0  0  0  0  0  0  0  0  0  0
  195.8060  175.1740  135.9430 C   0  0  0  0  0  3  0  0  0  0  0  0
  197.7910  175.9590  134.8810 F   0  0  0  0  0  0  0  0  0  0  0  0
  197.9650  174.8780  137.0000 C   0  0  0  0  0  3  0  0  0  0  0  0
  197.1940  175.3440  135.9310 C   0  0  0  0  0  0  0  0  0  0  0  0
  197.3490  174.2430  138.0820 C   0  0  0  0  0  3  0  0  0  0  0  0
  190.0370  176.1940  139.9590 O   0  0  0  0  0  0  0  0  0  0  0  0
  189.0530  176.7830  140.7630 C   0  0  1  0  0  3  0  0  0  0  0  0
  190.2720  175.6570  142.4880 O   0  0  0  0  0  1  0  0  0  0  0  0
  189.4930  176.7830  142.2210 C   0  0  0  0  0  2  0  0  0  0  0  0
  188.7350  178.2050  140.2920 C   0  0  0  0  0  2  0  0  0  0  0  0
  187.6650  178.8660  141.1070 C   0  0  0  0  0  3  0  0  0  0  0  0
  186.4860  178.6850  140.8480 O   0  0  0  0  0  0  0  0  0  0  0  0
  1 13  1  0  0  0  0
  1 10  1  0  0  0  0
  2  5  1  0  0  0  0
  3 15  1  0  0  0  0
  4 18  1  0  0  0  0
  4  6  1  0  0  0  0
  5 17  1  0  0  0  0
  6  2  1  0  0  0  0
  6  9  1  0  0  0  0
  7  5  1  0  0  0  0
  7  3  1  0  0  0  0
  8  4  2  0  0  0  0
  9 17  1  0  0  0  0
 12  8  1  0  0  0  0
 12 16  1  0  0  0  0
 13  9  1  0  0  0  0
 15 14  1  0  0  0  0
 16 11  1  0  0  0  0
 16  2  1  0  0  0  0
 17 22  1  0  0  0  0
 18  1  1  0  0  0  0
 19  7  1  0  0  0  0
 20  1  1  0  0  0  0
 21 15  1  0  0  0  0
 21 14  1  0  0  0  0
 22 21  1  0  0  0  0
 22 31  1  0  0  0  0
 23 11  1  0  0  0  0
 23 19  1  0  0  0  0
 25 19  1  0  0  0  0
 25 24  2  0  0  0  0
 26 25  1  0  0  0  0
 27 29  1  0  0  0  0
 28 30  2  0  0  0  0
 29 26  2  0  0  0  0
 29 28  1  0  0  0  0
 30 24  1  0  0  0  0
 31 32  1  0  0  0  0
 32 34  1  0  0  0  0
 34 33  1  0  0  0  0
 35 32  1  0  0  0  0
 35 36  1  0  0  0  0
 37 36  2  0  0  0  0
M  END
>  <MODEL>
6

>  <REMARK>
 VINA RESULT:      -5.4      2.767      4.583
  Name = 
  6 active torsions:
  status: ('A' for Active; 'I' for Inactive)
    1  A    between atoms: O_1  and  C_4
    2  A    between atoms: O_1  and  C_27
    3  A    between atoms: C_4  and  C_12
    4  A    between atoms: C_4  and  C_37
    5  A    between atoms: C_8  and  C_12
    6  A    between atoms: C_23  and  C_30
                            x       y       z     vdW  Elec       q    Type
                         _______ _______ _______ _____ _____    ______ ____

>  <TORSDO>
F 6

$$$$
=
 OpenBabel11122411323D

 37 43  0  0  1  0  0  0  0  0999 V2000
  189.7790  177.8600  142.4870 C   0  0  0  0  0  0  0  0  0  0  0  0
  185.7340  178.4030  141.3780 C   0  0  2  0  0  3  0  0  0  0  0  0
  185.0620  179.1780  137.5490 C   0  0  0  0  0  2  0  0  0  0  0  0
  187.3780  177.9670  143.1680 C   0  0  0  0  0  0  0  0  0  0  0  0
  185.7680  178.2440  139.8970 C   0  0  1  0  0  3  0  0  0  0  0  0
  187.1070  178.5980  141.8620 C   0  0  1  0  0  3  0  0  0  0  0  0
  184.8240  179.2130  139.0970 C   0  0  2  0  0  3  0  0  0  0  0  0
  186.4060  177.7030  143.9950 N   0  0  0  0  0  0  0  0  0  0  0  0
  187.9300  177.9440  140.8760 N   0  0  2  0  0  0  0  0  0  0  0  0
  190.4740  176.5360  142.2400 C   0  0  0  0  0  1  0  0  0  0  0  0
  183.3480  177.8780  141.6860 C   0  0  0  0  0  2  0  0  0  0  0  0
  185.0060  178.0700  143.7010 C   0  0  0  0  0  2  0  0  0  0  0  0
  189.2840  178.4250  141.1210 C   0  0  0  0  0  2  0  0  0  0  0  0
  186.6720  177.8150  136.0800 O   0  0  0  0  0  0  0  0  0  0  0  0
  185.7830  177.9050  137.1700 C   0  0  1  0  0  3  0  0  0  0  0  0
  184.7280  178.1070  142.2090 C   0  0  2  0  0  3  0  0  0  0  0  0
  187.3000  178.4010  139.6430 C   0  0  1  0  0  3  0  0  0  0  0  0
  188.7150  177.6540  143.4510 O   0  0  0  0  0  0  0  0  0  0  0  0
  183.3260  178.9110  139.3800 C   0  0  1  0  0  3  0  0  0  0  0  0
  190.7880  178.8270  143.0690 C   0  0  0  0  0  1  0  0  0  0  0  0
  187.1720  178.4360  137.2330 C   0  0  1  0  0  3  0  0  0  0  0  0
  187.8160  177.6690  138.3860 C   0  0  2  0  0  3  0  0  0  0  0  0
  182.9090  179.0690  140.8450 C   0  0  0  0  0  2  0  0  0  0  0  0
  181.6260  179.1160  137.5540 C   0  0  0  0  0  3  0  0  0  0  0  0
  182.4030  179.7410  138.5350 C   0  0  0  0  0  0  0  0  0  0  0  0
  182.3060  181.1300  138.7170 C   0  0  0  0  0  3  0  0  0  0  0  0
  181.3490  183.2230  138.0950 F   0  0  0  0  0  0  0  0  0  0  0  0
  180.6670  181.2530  136.9390 C   0  0  0  0  0  3  0  0  0  0  0  0
  181.4400  181.8830  137.9180 C   0  0  0  0  0  0  0  0  0  0  0  0
  180.7600  179.8700  136.7560 C   0  0  0  0  0  3  0  0  0  0  0  0
  187.4970  176.2990  138.4040 O   0  0  0  0  0  0  0  0  0  0  0  0
  188.6530  175.6360  137.9720 C   0  0  1  0  0  3  0  0  0  0  0  0
  189.1470  175.6460  135.6300 O   0  0  0  0  0  1  0  0  0  0  0  0
  188.4130  174.9870  136.6160 C   0  0  0  0  0  2  0  0  0  0  0  0
  189.8470  176.5940  137.9110 C   0  0  0  0  0  2  0  0  0  0  0  0
  191.0770  176.0370  138.5600 C   0  0  0  0  0  3  0  0  0  0  0  0
  191.4270  174.8880  138.3430 O   0  0  0  0  0  0  0  0  0  0  0  0
  1 20  1  0  0  0  0
  1 18  1  0  0  0  0
  2  6  1  0  0  0  0
  2 16  1  0  0  0  0
  3  7  1  0  0  0  0
  4 18  1  0  0  0  0
  4  8  2  0  0  0  0
  5  2  1  0  0  0  0
  6  4  1  0  0  0  0
  7 19  1  0  0  0  0
  7  5  1  0  0  0  0
  9 13  1  0  0  0  0
  9  6  1  0  0  0  0
 10  1  1  0  0  0  0
 11 16  1  0  0  0  0
 12  8  1  0  0  0  0
 13  1  1  0  0  0  0
 14 15  1  0  0  0  0
 14 21  1  0  0  0  0
 15 21  1  0  0  0  0
 15  3  1  0  0  0  0
 16 12  1  0  0  0  0
 17  5  1  0  0  0  0
 17  9  1  0  0  0  0
 19 23  1  0  0  0  0
 21 22  1  0  0  0  0
 22 31  1  0  0  0  0
 22 17  1  0  0  0  0
 23 11  1  0  0  0  0
 24 25  1  0  0  0  0
 25 26  2  0  0  0  0
 25 19  1  0  0  0  0
 28 29  2  0  0  0  0
 29 27  1  0  0  0  0
 29 26  1  0  0  0  0
 30 28  1  0  0  0  0
 30 24  2  0  0  0  0
 32 31  1  0  0  0  0
 33 34  1  0  0  0  0
 34 32  1  0  0  0  0
 35 32  1  0  0  0  0
 35 36  1  0  0  0  0
 37 36  2  0  0  0  0
M  END
>  <MODEL>
7

>  <REMARK>
 VINA RESULT:      -5.4      3.905      8.476
  Name = 
  6 active torsions:
  status: ('A' for Active; 'I' for Inactive)
    1  A    between atoms: O_1  and  C_4
    2  A    between atoms: O_1  and  C_27
    3  A    between atoms: C_4  and  C_12
    4  A    between atoms: C_4  and  C_37
    5  A    between atoms: C_8  and  C_12
    6  A    between atoms: C_23  and  C_30
                            x       y       z     vdW  Elec       q    Type
                         _______ _______ _______ _____ _____    ______ ____

>  <TORSDO>
F 6

$$$$
=
 OpenBabel11122411323D

 37 43  0  0  1  0  0  0  0  0999 V2000
  180.4570  179.0040  143.1880 C   0  0  0  0  0  0  0  0  0  0  0  0
  183.7610  178.4270  140.6120 C   0  0  2  0  0  3  0  0  0  0  0  0
  182.9080  177.3710  136.8870 C   0  0  0  0  0  2  0  0  0  0  0  0
  182.9350  178.9780  142.8720 C   0  0  0  0  0  0  0  0  0  0  0  0
  183.1410  178.4720  139.2570 C   0  0  1  0  0  3  0  0  0  0  0  0
  182.6980  178.2520  141.6100 C   0  0  1  0  0  3  0  0  0  0  0  0
  183.7350  177.4570  138.2150 C   0  0  2  0  0  3  0  0  0  0  0  0
  184.1420  179.3150  143.2300 N   0  0  0  0  0  0  0  0  0  0  0  0
  181.5270  178.8200  140.9880 N   0  0  2  0  0  0  0  0  0  0  0  0
  179.6680  180.2960  143.1500 C   0  0  0  0  0  1  0  0  0  0  0  0
  186.0530  179.0030  139.9190 C   0  0  0  0  0  2  0  0  0  0  0  0
  185.3290  178.9440  142.4320 C   0  0  0  0  0  2  0  0  0  0  0  0
  180.4000  178.3420  141.7780 C   0  0  0  0  0  2  0  0  0  0  0  0
  180.7950  178.5980  136.0880 O   0  0  0  0  0  0  0  0  0  0  0  0
  182.0440  178.6030  136.7420 C   0  0  1  0  0  3  0  0  0  0  0  0
  185.0000  178.7970  140.9570 C   0  0  2  0  0  3  0  0  0  0  0  0
  181.6410  178.2780  139.6390 C   0  0  1  0  0  3  0  0  0  0  0  0
  181.8050  179.2950  143.6390 O   0  0  0  0  0  0  0  0  0  0  0  0
  185.2100  177.7980  137.8630 C   0  0  1  0  0  3  0  0  0  0  0  0
  179.7990  178.0710  144.1830 C   0  0  0  0  0  1  0  0  0  0  0  0
  180.8140  178.0610  137.3820 C   0  0  1  0  0  3  0  0  0  0  0  0
  180.6440  178.9050  138.6430 C   0  0  2  0  0  3  0  0  0  0  0  0
  186.1750  177.7570  139.0520 C   0  0  0  0  0  2  0  0  0  0  0  0
  186.2740  177.5020  135.6170 C   0  0  0  0  0  3  0  0  0  0  0  0
  185.7610  176.9170  136.7790 C   0  0  0  0  0  0  0  0  0  0  0  0
  185.7720  175.5200  136.9160 C   0  0  0  0  0  3  0  0  0  0  0  0
  186.2980  173.3710  136.0270 F   0  0  0  0  0  0  0  0  0  0  0  0
  186.7990  175.3100  134.7330 C   0  0  0  0  0  3  0  0  0  0  0  0
  186.2890  174.7190  135.8920 C   0  0  0  0  0  0  0  0  0  0  0  0
  186.7910  176.7010  134.5950 C   0  0  0  0  0  3  0  0  0  0  0  0
  180.8870  180.2770  138.4450 O   0  0  0  0  0  0  0  0  0  0  0  0
  179.6270  180.8890  138.4550 C   0  0  1  0  0  3  0  0  0  0  0  0
  178.9340  182.9310  139.4930 O   0  0  0  0  0  1  0  0  0  0  0  0
  179.4220  181.6520  139.7560 C   0  0  0  0  0  2  0  0  0  0  0  0
  179.4580  181.8180  137.2480 C   0  0  0  0  0  2  0  0  0  0  0  0
  180.7510  182.1160  136.5530 C   0  0  0  0  0  3  0  0  0  0  0  0
  180.8030  182.1700  135.3350 O   0  0  0  0  0  0  0  0  0  0  0  0
  1 18  1  0  0  0  0
  1 20  1  0  0  0  0
  2 16  1  0  0  0  0
  2  6  1  0  0  0  0
  3  7  1  0  0  0  0
  4  8  2  0  0  0  0
  4 18  1  0  0  0  0
  5 17  1  0  0  0  0
  5  2  1  0  0  0  0
  6  4  1  0  0  0  0
  7  5  1  0  0  0  0
  9  6  1  0  0  0  0
  9 13  1  0  0  0  0
 10  1  1  0  0  0  0
 11 16  1  0  0  0  0
 12  8  1  0  0  0  0
 13  1  1  0  0  0  0
 14 15  1  0  0  0  0
 14 21  1  0  0  0  0
 15  3  1  0  0  0  0
 15 21  1  0  0  0  0
 16 12  1  0  0  0  0
 17  9  1  0  0  0  0
 19  7  1  0  0  0  0
 19 23  1  0  0  0  0
 21 22  1  0  0  0  0
 22 17  1  0  0  0  0
 23 11  1  0  0  0  0
 24 25  1  0  0  0  0
 25 26  2  0  0  0  0
 25 19  1  0  0  0  0
 28 29  2  0  0  0  0
 29 27  1  0  0  0  0
 29 26  1  0  0  0  0
 30 28  1  0  0  0  0
 30 24  2  0  0  0  0
 31 32  1  0  0  0  0
 31 22  1  0  0  0  0
 32 34  1  0  0  0  0
 33 34  1  0  0  0  0
 35 32  1  0  0  0  0
 36 35  1  0  0  0  0
 37 36  2  0  0  0  0
M  END
>  <MODEL>
8

>  <REMARK>
 VINA RESULT:      -5.3      4.187      7.140
  Name = 
  6 active torsions:
  status: ('A' for Active; 'I' for Inactive)
    1  A    between atoms: O_1  and  C_4
    2  A    between atoms: O_1  and  C_27
    3  A    between atoms: C_4  and  C_12
    4  A    between atoms: C_4  and  C_37
    5  A    between atoms: C_8  and  C_12
    6  A    between atoms: C_23  and  C_30
                            x       y       z     vdW  Elec       q    Type
                         _______ _______ _______ _____ _____    ______ ____

>  <TORSDO>
F 6

$$$$
=
 OpenBabel11122411323D

 37 43  0  0  1  0  0  0  0  0999 V2000
  180.2020  179.1160  142.2990 C   0  0  0  0  0  0  0  0  0  0  0  0
  182.4970  176.9880  139.4550 C   0  0  2  0  0  3  0  0  0  0  0  0
  186.2190  178.2440  138.9230 C   0  0  0  0  0  2  0  0  0  0  0  0
  180.3330  177.2850  140.6050 C   0  0  0  0  0  0  0  0  0  0  0  0
  183.8940  177.3880  139.7850 C   0  0  1  0  0  3  0  0  0  0  0  0
  181.5730  177.9180  140.1170 C   0  0  1  0  0  3  0  0  0  0  0  0
  184.8400  177.6020  138.5490 C   0  0  2  0  0  3  0  0  0  0  0  0
  179.9040  176.1710  140.0840 N   0  0  0  0  0  0  0  0  0  0  0  0
  182.3050  178.3940  141.2640 N   0  0  2  0  0  0  0  0  0  0  0  0
  180.3600  178.8380  143.7800 C   0  0  0  0  0  1  0  0  0  0  0  0
  183.0460  174.8840  138.2990 C   0  0  0  0  0  2  0  0  0  0  0  0
  180.5930  175.5190  138.9510 C   0  0  0  0  0  2  0  0  0  0  0  0
  181.5790  179.5700  141.7270 C   0  0  0  0  0  2  0  0  0  0  0  0
  187.2310  178.9750  141.1700 O   0  0  0  0  0  0  0  0  0  0  0  0
  186.4870  178.0590  140.3980 C   0  0  1  0  0  3  0  0  0  0  0  0
  182.0790  175.8280  138.9360 C   0  0  2  0  0  3  0  0  0  0  0  0
  183.6150  178.6420  140.6720 C   0  0  1  0  0  3  0  0  0  0  0  0
  179.6680  177.9300  141.6580 O   0  0  0  0  0  0  0  0  0  0  0  0
  185.0980  176.2690  137.7910 C   0  0  1  0  0  3  0  0  0  0  0  0
  179.2150  180.2520  142.1300 C   0  0  0  0  0  1  0  0  0  0  0  0
  185.9140  179.3500  140.8690 C   0  0  1  0  0  3  0  0  0  0  0  0
  184.7110  178.9400  141.7160 C   0  0  2  0  0  3  0  0  0  0  0  0
  183.8400  175.6070  137.2200 C   0  0  0  0  0  2  0  0  0  0  0  0
  185.9740  177.5040  135.7980 C   0  0  0  0  0  3  0  0  0  0  0  0
  186.0950  176.4250  136.6790 C   0  0  0  0  0  0  0  0  0  0  0  0
  187.1460  175.5090  136.5150 C   0  0  0  0  0  3  0  0  0  0  0  0
  189.0760  174.7870  135.3150 F   0  0  0  0  0  0  0  0  0  0  0  0
  187.9360  176.7530  134.5940 C   0  0  0  0  0  3  0  0  0  0  0  0
  188.0640  175.6730  135.4720 C   0  0  0  0  0  0  0  0  0  0  0  0
  186.8910  177.6680  134.7560 C   0  0  0  0  0  3  0  0  0  0  0  0
  184.9570  177.8380  142.5550 O   0  0  0  0  0  0  0  0  0  0  0  0
  185.5050  178.3710  143.7290 C   0  0  1  0  0  3  0  0  0  0  0  0
  184.8900  179.3510  145.8240 O   0  0  0  0  0  1  0  0  0  0  0  0
  184.4300  179.0900  144.5330 C   0  0  0  0  0  2  0  0  0  0  0  0
  186.1730  177.2780  144.5690 C   0  0  0  0  0  2  0  0  0  0  0  0
  187.5930  177.6000  144.9240 C   0  0  0  0  0  3  0  0  0  0  0  0
  188.0780  177.1970  145.9690 O   0  0  0  0  0  0  0  0  0  0  0  0
  1 10  1  0  0  0  0
  2  5  1  0  0  0  0
  2  6  1  0  0  0  0
  3 15  1  0  0  0  0
  4 18  1  0  0  0  0
  5 17  1  0  0  0  0
  6  4  1  0  0  0  0
  6  9  1  0  0  0  0
  7  3  1  0  0  0  0
  7  5  1  0  0  0  0
  8  4  2  0  0  0  0
  9 13  1  0  0  0  0
 11 16  1  0  0  0  0
 12  8  1  0  0  0  0
 13  1  1  0  0  0  0
 15 21  1  0  0  0  0
 15 14  1  0  0  0  0
 16 12  1  0  0  0  0
 16  2  1  0  0  0  0
 17  9  1  0  0  0  0
 17 22  1  0  0  0  0
 18  1  1  0  0  0  0
 19  7  1  0  0  0  0
 20  1  1  0  0  0  0
 21 14  1  0  0  0  0
 21 22  1  0  0  0  0
 22 31  1  0  0  0  0
 23 19  1  0  0  0  0
 23 11  1  0  0  0  0
 24 25  1  0  0  0  0
 25 19  1  0  0  0  0
 26 25  2  0  0  0  0
 27 29  1  0  0  0  0
 28 30  1  0  0  0  0
 28 29  2  0  0  0  0
 29 26  1  0  0  0  0
 30 24  2  0  0  0  0
 31 32  1  0  0  0  0
 32 34  1  0  0  0  0
 32 35  1  0  0  0  0
 34 33  1  0  0  0  0
 35 36  1  0  0  0  0
 36 37  2  0  0  0  0
M  END
>  <MODEL>
9

>  <REMARK>
 VINA RESULT:      -5.1      3.410      5.538
  Name = 
  6 active torsions:
  status: ('A' for Active; 'I' for Inactive)
    1  A    between atoms: O_1  and  C_4
    2  A    between atoms: O_1  and  C_27
    3  A    between atoms: C_4  and  C_12
    4  A    between atoms: C_4  and  C_37
    5  A    between atoms: C_8  and  C_12
    6  A    between atoms: C_23  and  C_30
                            x       y       z     vdW  Elec       q    Type
                         _______ _______ _______ _____ _____    ______ ____

>  <TORSDO>
F 6

$$$$
