=
 OpenBabel11122412203D

 34 42  0  0  1  0  0  0  0  0999 V2000
  184.5480  178.4480  144.2750 C   0  0  0  0  0  0  0  0  0  0  0  0
  182.4500  179.1290  143.0990 N   0  0  0  0  0  2  0  0  0  0  0  0
  190.9200  178.3010  144.3960 C   0  0  2  0  0  0  0  0  0  0  0  0
  186.6790  177.8380  145.2660 C   0  0  0  0  0  0  0  0  0  0  0  0
  188.6760  177.9250  143.8340 N   0  0  1  0  0  0  0  0  0  0  0  0
  190.9940  178.1000  142.8870 C   0  0  1  0  0  3  0  0  0  0  0  0
  192.0580  178.6140  143.6360 O   0  0  0  0  0  0  0  0  0  0  0  0
  190.2650  177.0360  146.5080 C   0  0  0  0  0  2  0  0  0  0  0  0
  184.3110  178.4960  141.8730 C   0  0  0  0  0  0  0  0  0  0  0  0
  184.4100  178.6540  138.7520 C   0  0  0  0  0  2  0  0  0  0  0  0
  187.8730  177.4190  142.7200 C   0  0  0  0  0  2  0  0  0  0  0  0
  188.9580  177.8460  146.3400 C   0  0  0  0  0  2  0  0  0  0  0  0
  185.6590  178.1310  141.6760 C   0  0  0  0  0  0  0  0  0  0  0  0
  182.0900  179.3340  141.7000 C   0  0  0  0  0  2  0  0  0  0  0  0
  188.1200  177.4060  145.1110 C   0  0  1  0  0  3  0  0  0  0  0  0
  191.4000  177.3830  145.5090 C   0  0  0  0  0  2  0  0  0  0  0  0
  183.7160  179.5880  139.7240 C   0  0  2  0  0  3  0  0  0  0  0  0
  185.8920  178.0490  144.1200 C   0  0  0  0  0  0  0  0  0  0  0  0
  189.9960  177.3360  143.6910 C   0  0  1  0  0  3  0  0  0  0  0  0
  186.4480  177.8970  142.8290 C   0  0  0  0  0  0  0  0  0  0  0  0
  184.8180  178.3450  146.6670 C   0  0  0  0  0  3  0  0  0  0  0  0
  185.8250  178.3390  139.1290 C   0  0  0  0  0  3  0  0  0  0  0  0
  186.1160  177.9700  146.5010 N   0  0  0  0  0  0  0  0  0  0  0  0
  186.3230  178.0940  140.3470 C   0  0  0  0  0  3  0  0  0  0  0  0
  183.2330  178.7150  140.8710 C   0  0  1  0  0  3  0  0  0  0  0  0
  184.0110  178.5980  145.5560 C   0  0  0  0  0  3  0  0  0  0  0  0
  183.7890  178.6740  143.1290 C   0  0  0  0  0  0  0  0  0  0  0  0
  182.6300  180.1800  139.0720 O   0  0  0  0  0  0  0  0  0  0  0  0
  182.2450  179.2490  138.1040 C   0  0  0  0  0  2  0  0  0  0  0  0
  180.2200  181.7590  137.2380 N   0  0  0  0  0  0  0  0  0  0  0  0
  180.8770  179.8910  136.1470 C   0  0  0  0  0  3  0  0  0  0  0  0
  180.8470  179.5720  137.6060 C   0  0  2  0  0  3  0  0  0  0  0  0
  180.5080  181.1520  135.9880 C   0  0  0  0  0  3  0  0  0  0  0  0
  180.4080  180.8820  138.1660 C   0  0  0  0  0  3  0  0  0  0  0  0
  1 26  2  0  0  0  0
  2 27  1  0  0  0  0
  3 16  1  6  0  0  0
  4 23  1  0  0  0  0
  5 11  1  6  0  0  0
  5 15  1  0  0  0  0
  6  7  1  1  0  0  0
  6 19  1  0  0  0  0
  6  3  1  0  0  0  0
  7  3  1  0  0  0  0
  9 27  2  0  0  0  0
 10 22  1  0  0  0  0
 10 17  1  0  0  0  0
 11 20  1  0  0  0  0
 12  8  1  0  0  0  0
 13  9  1  0  0  0  0
 13 20  2  0  0  0  0
 14  2  1  0  0  0  0
 15  4  1  0  0  0  0
 15 12  1  1  0  0  0
 16  8  1  0  0  0  0
 17 28  1  6  0  0  0
 17 25  1  0  0  0  0
 18  1  1  0  0  0  0
 18  4  2  0  0  0  0
 19  5  1  0  0  0  0
 19  3  1  0  0  0  0
 20 18  1  0  0  0  0
 22 24  2  0  0  0  0
 23 21  2  0  0  0  0
 24 13  1  0  0  0  0
 25 14  1  0  0  0  0
 25  9  1  0  0  0  0
 26 21  1  0  0  0  0
 27  1  1  0  0  0  0
 29 28  1  0  0  0  0
 30 34  2  0  0  0  0
 31 32  1  0  0  0  0
 32 29  1  0  0  0  0
 32 34  1  0  0  0  0
 33 31  2  0  0  0  0
 33 30  1  0  0  0  0
M  END
>  <MODEL>
1

>  <REMARK>
 VINA RESULT:      -9.4      0.000      0.000
  Name = 
  3 active torsions:
  status: ('A' for Active; 'I' for Inactive)
    1  A    between atoms: C_17  and  O_28
    2  A    between atoms: O_28  and  C_29
    3  A    between atoms: C_29  and  C_32
                            x       y       z     vdW  Elec       q    Type
                         _______ _______ _______ _____ _____    ______ ____

>  <TORSDO>
F 3

$$$$
=
 OpenBabel11122412203D

 34 42  0  0  1  0  0  0  0  0999 V2000
  187.6040  177.7490  143.4590 C   0  0  0  0  0  0  0  0  0  0  0  0
  189.9520  176.9860  143.0670 N   0  0  0  0  0  2  0  0  0  0  0  0
  181.6140  178.2450  141.3320 C   0  0  2  0  0  0  0  0  0  0  0  0
  185.2870  178.4490  143.6610 C   0  0  0  0  0  0  0  0  0  0  0  0
  183.9260  178.5120  141.6150 N   0  0  1  0  0  0  0  0  0  0  0  0
  182.0880  178.4910  139.9050 C   0  0  1  0  0  3  0  0  0  0  0  0
  180.8070  178.0160  140.2070 O   0  0  0  0  0  0  0  0  0  0  0  0
  181.5320  179.4130  143.5940 C   0  0  0  0  0  2  0  0  0  0  0  0
  188.6740  177.7540  141.2940 C   0  0  0  0  0  0  0  0  0  0  0  0
  189.6810  177.6870  138.3350 C   0  0  0  0  0  2  0  0  0  0  0  0
  185.0920  179.0030  140.8790 C   0  0  0  0  0  2  0  0  0  0  0  0
  182.7780  178.5370  143.8620 C   0  0  0  0  0  2  0  0  0  0  0  0
  187.5000  178.1980  140.6520 C   0  0  0  0  0  0  0  0  0  0  0  0
  190.7750  176.8000  141.8780 C   0  0  0  0  0  2  0  0  0  0  0  0
  184.0140  178.9640  143.0270 C   0  0  1  0  0  3  0  0  0  0  0  0
  180.8110  179.1570  142.2440 C   0  0  0  0  0  2  0  0  0  0  0  0
  189.9460  176.6900  139.4460 C   0  0  2  0  0  3  0  0  0  0  0  0
  186.4200  178.2260  142.8580 C   0  0  0  0  0  0  0  0  0  0  0  0
  182.7680  179.1770  141.0420 C   0  0  1  0  0  3  0  0  0  0  0  0
  186.3640  178.4440  141.4620 C   0  0  0  0  0  0  0  0  0  0  0  0
  186.5090  177.8020  145.6030 C   0  0  0  0  0  3  0  0  0  0  0  0
  188.2390  178.0690  138.2030 C   0  0  0  0  0  3  0  0  0  0  0  0
  185.3710  178.2530  145.0080 N   0  0  0  0  0  0  0  0  0  0  0  0
  187.3520  178.3080  139.1770 C   0  0  0  0  0  3  0  0  0  0  0  0
  190.0270  177.5030  140.7270 C   0  0  1  0  0  3  0  0  0  0  0  0
  187.6460  177.5350  144.8390 C   0  0  0  0  0  3  0  0  0  0  0  0
  188.7100  177.5130  142.6440 C   0  0  0  0  0  0  0  0  0  0  0  0
  191.1660  176.0570  139.1930 O   0  0  0  0  0  0  0  0  0  0  0  0
  190.9850  175.4080  137.9690 C   0  0  0  0  0  2  0  0  0  0  0  0
  194.3060  175.6280  138.2370 N   0  0  0  0  0  0  0  0  0  0  0  0
  192.9600  174.1280  137.2130 C   0  0  0  0  0  3  0  0  0  0  0  0
  192.2730  175.4530  137.1660 C   0  0  2  0  0  3  0  0  0  0  0  0
  194.1190  174.2810  137.8340 C   0  0  0  0  0  3  0  0  0  0  0  0
  193.2710  176.3060  137.8710 C   0  0  0  0  0  3  0  0  0  0  0  0
  1 26  2  0  0  0  0
  3 16  1  6  0  0  0
  4 23  1  0  0  0  0
  5 11  1  6  0  0  0
  5 15  1  0  0  0  0
  6  7  1  6  0  0  0
  6 19  1  0  0  0  0
  6  3  1  0  0  0  0
  7  3  1  0  0  0  0
  8 12  1  0  0  0  0
  9 27  2  0  0  0  0
 10 17  1  0  0  0  0
 11 20  1  0  0  0  0
 13  9  1  0  0  0  0
 13 20  2  0  0  0  0
 14  2  1  0  0  0  0
 15  4  1  0  0  0  0
 15 12  1  1  0  0  0
 16  8  1  0  0  0  0
 17 28  1  6  0  0  0
 17 25  1  0  0  0  0
 18  1  1  0  0  0  0
 18  4  2  0  0  0  0
 19  3  1  0  0  0  0
 19  5  1  0  0  0  0
 20 18  1  0  0  0  0
 22 10  1  0  0  0  0
 22 24  2  0  0  0  0
 23 21  2  0  0  0  0
 24 13  1  0  0  0  0
 25  9  1  0  0  0  0
 25 14  1  0  0  0  0
 26 21  1  0  0  0  0
 27  2  1  0  0  0  0
 27  1  1  0  0  0  0
 29 28  1  0  0  0  0
 31 33  2  0  0  0  0
 32 31  1  0  0  0  0
 32 34  1  0  0  0  0
 32 29  1  0  0  0  0
 33 30  1  0  0  0  0
 34 30  2  0  0  0  0
M  END
>  <MODEL>
2

>  <REMARK>
 VINA RESULT:      -9.4      3.400      8.131
  Name = 
  3 active torsions:
  status: ('A' for Active; 'I' for Inactive)
    1  A    between atoms: C_17  and  O_28
    2  A    between atoms: O_28  and  C_29
    3  A    between atoms: C_29  and  C_32
                            x       y       z     vdW  Elec       q    Type
                         _______ _______ _______ _____ _____    ______ ____

>  <TORSDO>
F 3

$$$$
=
 OpenBabel11122412203D

 34 42  0  0  1  0  0  0  0  0999 V2000
  182.6930  178.8080  143.6340 C   0  0  0  0  0  0  0  0  0  0  0  0
  184.0560  178.6230  145.7220 N   0  0  0  0  0  2  0  0  0  0  0  0
  181.8810  177.2490  137.5070 C   0  0  2  0  0  0  0  0  0  0  0  0
  181.5080  178.9010  141.5170 C   0  0  0  0  0  0  0  0  0  0  0  0
  182.7050  178.1670  139.4990 N   0  0  1  0  0  0  0  0  0  0  0  0
  183.3810  177.3020  137.2430 C   0  0  1  0  0  3  0  0  0  0  0  0
  182.4940  176.5820  136.4340 O   0  0  0  0  0  0  0  0  0  0  0  0
  179.9230  178.8090  137.9790 C   0  0  0  0  0  2  0  0  0  0  0  0
  185.1020  178.6320  143.6550 C   0  0  0  0  0  0  0  0  0  0  0  0
  188.1800  178.2030  143.3190 C   0  0  0  0  0  2  0  0  0  0  0  0
  183.9260  178.7790  140.0270 C   0  0  0  0  0  2  0  0  0  0  0  0
  180.1910  178.3690  139.4370 C   0  0  0  0  0  2  0  0  0  0  0  0
  185.1680  178.6050  142.2470 C   0  0  0  0  0  0  0  0  0  0  0  0
  185.4730  178.4100  145.9950 C   0  0  0  0  0  2  0  0  0  0  0  0
  181.5260  178.9170  140.0050 C   0  0  1  0  0  3  0  0  0  0  0  0
  180.7720  178.0910  136.8970 C   0  0  0  0  0  2  0  0  0  0  0  0
  187.2420  177.5710  144.3280 C   0  0  2  0  0  3  0  0  0  0  0  0
  182.7200  178.8180  142.2240 C   0  0  0  0  0  0  0  0  0  0  0  0
  182.7330  178.3670  138.0610 C   0  0  1  0  0  3  0  0  0  0  0  0
  183.9490  178.7110  141.5320 C   0  0  0  0  0  0  0  0  0  0  0  0
  180.2960  179.0270  143.5660 C   0  0  0  0  0  3  0  0  0  0  0  0
  187.6670  178.1560  141.9120 C   0  0  0  0  0  3  0  0  0  0  0  0
  180.3370  179.0250  142.2060 N   0  0  0  0  0  0  0  0  0  0  0  0
  186.4160  178.3560  141.4790 C   0  0  0  0  0  3  0  0  0  0  0  0
  186.2030  178.6300  144.6550 C   0  0  1  0  0  3  0  0  0  0  0  0
  181.4730  178.9110  144.3070 C   0  0  0  0  0  3  0  0  0  0  0  0
  183.9030  178.7020  144.3180 C   0  0  0  0  0  0  0  0  0  0  0  0
  187.9780  177.2420  145.4710 O   0  0  0  0  0  0  0  0  0  0  0  0
  189.2310  176.8560  144.9900 C   0  0  0  0  0  2  0  0  0  0  0  0
  191.1180  176.0240  147.6160 N   0  0  0  0  0  0  0  0  0  0  0  0
  191.6380  176.7720  145.5470 C   0  0  0  0  0  3  0  0  0  0  0  0
  190.3190  177.3640  145.9200 C   0  0  2  0  0  3  0  0  0  0  0  0
  192.0550  176.0160  146.5510 C   0  0  0  0  0  3  0  0  0  0  0  0
  190.1280  176.7790  147.2770 C   0  0  0  0  0  3  0  0  0  0  0  0
  1 26  1  0  0  0  0
  1 27  1  0  0  0  0
  2 14  1  0  0  0  0
  3 16  1  6  0  0  0
  3 19  1  0  0  0  0
  4 23  2  0  0  0  0
  4 18  1  0  0  0  0
  5 15  1  0  0  0  0
  5 11  1  1  0  0  0
  6  7  1  6  0  0  0
  6  3  1  0  0  0  0
  6 19  1  0  0  0  0
  7  3  1  0  0  0  0
  8 12  1  0  0  0  0
  9 27  2  0  0  0  0
  9 25  1  0  0  0  0
 10 17  1  0  0  0  0
 11 20  1  0  0  0  0
 13  9  1  0  0  0  0
 15 12  1  6  0  0  0
 15  4  1  0  0  0  0
 16  8  1  0  0  0  0
 17 25  1  0  0  0  0
 17 28  1  1  0  0  0
 18  1  2  0  0  0  0
 19  5  1  0  0  0  0
 20 18  1  0  0  0  0
 20 13  2  0  0  0  0
 21 26  2  0  0  0  0
 22 10  1  0  0  0  0
 23 21  1  0  0  0  0
 24 22  2  0  0  0  0
 24 13  1  0  0  0  0
 25 14  1  0  0  0  0
 27  2  1  0  0  0  0
 29 28  1  0  0  0  0
 29 32  1  0  0  0  0
 31 32  1  0  0  0  0
 31 33  2  0  0  0  0
 32 34  1  0  0  0  0
 33 30  1  0  0  0  0
 34 30  2  0  0  0  0
M  END
>  <MODEL>
3

>  <REMARK>
 VINA RESULT:      -9.4      2.172      8.908
  Name = 
  3 active torsions:
  status: ('A' for Active; 'I' for Inactive)
    1  A    between atoms: C_17  and  O_28
    2  A    between atoms: O_28  and  C_29
    3  A    between atoms: C_29  and  C_32
                            x       y       z     vdW  Elec       q    Type
                         _______ _______ _______ _____ _____    ______ ____

>  <TORSDO>
F 3

$$$$
=
 OpenBabel11122412203D

 34 42  0  0  1  0  0  0  0  0999 V2000
  188.8800  177.4340  138.1830 C   0  0  0  0  0  0  0  0  0  0  0  0
  187.1990  178.2750  139.8310 N   0  0  0  0  0  2  0  0  0  0  0  0
  194.0090  173.8410  136.9900 C   0  0  2  0  0  0  0  0  0  0  0  0
  190.6060  176.5440  136.7260 C   0  0  0  0  0  0  0  0  0  0  0  0
  192.5810  175.5250  137.7770 N   0  0  1  0  0  0  0  0  0  0  0  0
  194.6220  174.1780  138.3440 C   0  0  1  0  0  3  0  0  0  0  0  0
  194.9800  173.0400  137.6130 O   0  0  0  0  0  0  0  0  0  0  0  0
  193.5190  174.9280  134.7390 C   0  0  0  0  0  2  0  0  0  0  0  0
  189.3810  177.8810  140.5030 C   0  0  0  0  0  0  0  0  0  0  0  0
  190.3060  178.1510  143.4760 C   0  0  0  0  0  2  0  0  0  0  0  0
  192.5360  176.5580  138.8130 C   0  0  0  0  0  2  0  0  0  0  0  0
  192.1010  175.0610  135.3440 C   0  0  0  0  0  2  0  0  0  0  0  0
  190.7060  177.4210  140.3640 C   0  0  0  0  0  0  0  0  0  0  0  0
  187.2200  178.5220  141.2680 C   0  0  0  0  0  2  0  0  0  0  0  0
  192.0290  176.0770  136.5130 C   0  0  1  0  0  3  0  0  0  0  0  0
  194.5410  174.1370  135.5980 C   0  0  0  0  0  2  0  0  0  0  0  0
  188.9740  177.6630  142.9420 C   0  0  2  0  0  3  0  0  0  0  0  0
  190.2090  176.9970  137.9960 C   0  0  0  0  0  0  0  0  0  0  0  0
  193.9860  175.2530  137.5270 C   0  0  1  0  0  3  0  0  0  0  0  0
  191.1160  176.9850  139.0800 C   0  0  0  0  0  0  0  0  0  0  0  0
  188.4380  177.0130  135.8530 C   0  0  0  0  0  3  0  0  0  0  0  0
  191.4880  177.5280  142.8000 C   0  0  0  0  0  3  0  0  0  0  0  0
  189.7200  176.5860  135.6900 N   0  0  0  0  0  0  0  0  0  0  0  0
  191.6520  177.2590  141.4990 C   0  0  0  0  0  3  0  0  0  0  0  0
  188.7040  178.4760  141.6870 C   0  0  1  0  0  3  0  0  0  0  0  0
  187.9910  177.4400  137.1050 C   0  0  0  0  0  3  0  0  0  0  0  0
  188.4970  177.8590  139.4540 C   0  0  0  0  0  0  0  0  0  0  0  0
  187.9910  177.9130  143.9040 O   0  0  0  0  0  0  0  0  0  0  0  0
  188.5700  177.5230  145.1150 C   0  0  0  0  0  2  0  0  0  0  0  0
  186.8060  178.6450  147.7180 N   0  0  0  0  0  0  0  0  0  0  0  0
  186.1870  177.7790  145.7240 C   0  0  0  0  0  3  0  0  0  0  0  0
  187.4840  177.1440  146.1070 C   0  0  2  0  0  3  0  0  0  0  0  0
  185.8400  178.6280  146.6790 C   0  0  0  0  0  3  0  0  0  0  0  0
  187.7440  177.8140  147.4120 C   0  0  0  0  0  3  0  0  0  0  0  0
  1 27  1  0  0  0  0
  2 14  1  0  0  0  0
  3 16  1  6  0  0  0
  3 19  1  0  0  0  0
  3  7  1  0  0  0  0
  3  6  1  0  0  0  0
  4 18  1  0  0  0  0
  5 11  1  1  0  0  0
  6  7  1  6  0  0  0
  8 12  1  0  0  0  0
  8 16  1  0  0  0  0
  9 25  1  0  0  0  0
 11 20  1  0  0  0  0
 13  9  1  0  0  0  0
 13 24  1  0  0  0  0
 14 25  1  0  0  0  0
 15 12  1  6  0  0  0
 15  4  1  0  0  0  0
 15  5  1  0  0  0  0
 17 10  1  0  0  0  0
 17 28  1  1  0  0  0
 18  1  2  0  0  0  0
 18 20  1  0  0  0  0
 19  5  1  0  0  0  0
 19  6  1  0  0  0  0
 20 13  2  0  0  0  0
 21 26  2  0  0  0  0
 22 10  1  0  0  0  0
 23 21  1  0  0  0  0
 23  4  2  0  0  0  0
 24 22  2  0  0  0  0
 25 17  1  0  0  0  0
 26  1  1  0  0  0  0
 27  2  1  0  0  0  0
 27  9  2  0  0  0  0
 28 29  1  0  0  0  0
 29 32  1  0  0  0  0
 31 32  1  0  0  0  0
 31 33  2  0  0  0  0
 32 34  1  0  0  0  0
 33 30  1  0  0  0  0
 34 30  2  0  0  0  0
M  END
>  <MODEL>
4

>  <REMARK>
 VINA RESULT:      -9.1      4.968      8.868
  Name = 
  3 active torsions:
  status: ('A' for Active; 'I' for Inactive)
    1  A    between atoms: C_17  and  O_28
    2  A    between atoms: O_28  and  C_29
    3  A    between atoms: C_29  and  C_32
                            x       y       z     vdW  Elec       q    Type
                         _______ _______ _______ _____ _____    ______ ____

>  <TORSDO>
F 3

$$$$
=
 OpenBabel11122412203D

 34 42  0  0  1  0  0  0  0  0999 V2000
  186.5090  178.1520  144.0570 C   0  0  0  0  0  0  0  0  0  0  0  0
  188.9280  177.5320  143.9420 N   0  0  0  0  0  2  0  0  0  0  0  0
  180.7260  178.0410  141.3780 C   0  0  2  0  0  0  0  0  0  0  0  0
  184.1440  178.6960  143.9940 C   0  0  0  0  0  0  0  0  0  0  0  0
  182.9790  178.4960  141.8380 N   0  0  1  0  0  0  0  0  0  0  0  0
  181.3150  178.2060  139.9820 C   0  0  1  0  0  3  0  0  0  0  0  0
  180.0450  177.6640  140.2090 O   0  0  0  0  0  0  0  0  0  0  0  0
  180.3560  179.3780  143.5140 C   0  0  0  0  0  2  0  0  0  0  0  0
  187.7760  178.0610  142.0030 C   0  0  0  0  0  0  0  0  0  0  0  0
  189.0570  177.8300  139.1610 C   0  0  0  0  0  2  0  0  0  0  0  0
  184.1750  179.0100  141.1690 C   0  0  0  0  0  2  0  0  0  0  0  0
  181.6260  178.6190  143.9650 C   0  0  0  0  0  2  0  0  0  0  0  0
  186.6410  178.3660  141.2240 C   0  0  0  0  0  0  0  0  0  0  0  0
  189.8690  177.3110  142.8500 C   0  0  0  0  0  2  0  0  0  0  0  0
  182.9050  179.0650  143.2090 C   0  0  1  0  0  3  0  0  0  0  0  0
  179.7830  178.9630  142.1330 C   0  0  0  0  0  2  0  0  0  0  0  0
  189.2810  176.9470  140.3730 C   0  0  2  0  0  3  0  0  0  0  0  0
  185.3580  178.4930  143.3160 C   0  0  0  0  0  0  0  0  0  0  0  0
  181.8390  179.0270  141.1110 C   0  0  1  0  0  3  0  0  0  0  0  0
  185.4200  178.5930  141.9070 C   0  0  0  0  0  0  0  0  0  0  0  0
  185.2170  178.2970  146.0850 C   0  0  0  0  0  3  0  0  0  0  0  0
  187.6120  178.0950  138.8700 C   0  0  0  0  0  3  0  0  0  0  0  0
  184.1130  178.6150  145.3550 N   0  0  0  0  0  0  0  0  0  0  0  0
  186.6250  178.3470  139.7380 C   0  0  0  0  0  3  0  0  0  0  0  0
  189.1890  177.8640  141.5810 C   0  0  1  0  0  3  0  0  0  0  0  0
  186.4360  178.0530  145.4490 C   0  0  0  0  0  3  0  0  0  0  0  0
  187.7000  177.9330  143.3670 C   0  0  0  0  0  0  0  0  0  0  0  0
  190.5580  176.3860  140.2840 O   0  0  0  0  0  0  0  0  0  0  0  0
  191.0450  176.8040  139.0430 C   0  0  0  0  0  2  0  0  0  0  0  0
  192.0380  175.6780  136.0600 N   0  0  0  0  0  0  0  0  0  0  0  0
  193.1440  176.0130  138.0030 C   0  0  0  0  0  3  0  0  0  0  0  0
  191.7370  175.6460  138.3450 C   0  0  2  0  0  3  0  0  0  0  0  0
  193.2660  176.0150  136.6850 C   0  0  0  0  0  3  0  0  0  0  0  0
  191.1600  175.4680  136.9830 C   0  0  0  0  0  3  0  0  0  0  0  0
  1 26  2  0  0  0  0
  3 16  1  6  0  0  0
  4 23  1  0  0  0  0
  5 11  1  6  0  0  0
  5 15  1  0  0  0  0
  6  7  1  6  0  0  0
  6 19  1  0  0  0  0
  6  3  1  0  0  0  0
  7  3  1  0  0  0  0
  8 12  1  0  0  0  0
  9 27  2  0  0  0  0
 10 17  1  0  0  0  0
 11 20  1  0  0  0  0
 13 20  2  0  0  0  0
 13  9  1  0  0  0  0
 14  2  1  0  0  0  0
 15 12  1  1  0  0  0
 15  4  1  0  0  0  0
 16  8  1  0  0  0  0
 17 28  1  6  0  0  0
 17 25  1  0  0  0  0
 18  4  2  0  0  0  0
 18  1  1  0  0  0  0
 19  3  1  0  0  0  0
 19  5  1  0  0  0  0
 20 18  1  0  0  0  0
 22 10  1  0  0  0  0
 22 24  2  0  0  0  0
 23 21  2  0  0  0  0
 24 13  1  0  0  0  0
 25  9  1  0  0  0  0
 25 14  1  0  0  0  0
 26 21  1  0  0  0  0
 27  2  1  0  0  0  0
 27  1  1  0  0  0  0
 29 28  1  0  0  0  0
 30 33  1  0  0  0  0
 30 34  2  0  0  0  0
 31 32  1  0  0  0  0
 32 29  1  0  0  0  0
 33 31  2  0  0  0  0
 34 32  1  0  0  0  0
M  END
>  <MODEL>
5

>  <REMARK>
 VINA RESULT:      -9.0      3.169      7.877
  Name = 
  3 active torsions:
  status: ('A' for Active; 'I' for Inactive)
    1  A    between atoms: C_17  and  O_28
    2  A    between atoms: O_28  and  C_29
    3  A    between atoms: C_29  and  C_32
                            x       y       z     vdW  Elec       q    Type
                         _______ _______ _______ _____ _____    ______ ____

>  <TORSDO>
F 3

$$$$
=
 OpenBabel11122412203D

 34 42  0  0  1  0  0  0  0  0999 V2000
  189.6910  176.8460  141.5550 C   0  0  0  0  0  0  0  0  0  0  0  0
  190.9990  176.0620  139.5740 N   0  0  0  0  0  2  0  0  0  0  0  0
  184.0400  178.3260  144.1090 C   0  0  2  0  0  0  0  0  0  0  0  0
  188.2720  177.6190  143.3680 C   0  0  0  0  0  0  0  0  0  0  0  0
  185.9900  178.3440  142.8080 N   0  0  1  0  0  0  0  0  0  0  0  0
  183.5490  178.9270  142.7980 C   0  0  1  0  0  3  0  0  0  0  0  0
  182.6800  178.4760  143.7970 O   0  0  0  0  0  0  0  0  0  0  0  0
  185.6820  178.8200  145.9930 C   0  0  0  0  0  2  0  0  0  0  0  0
  189.1180  177.3800  139.2710 C   0  0  0  0  0  0  0  0  0  0  0  0
  187.9810  178.0720  136.4430 C   0  0  0  0  0  2  0  0  0  0  0  0
  186.5050  178.9390  141.5740 C   0  0  0  0  0  2  0  0  0  0  0  0
  186.5650  177.8210  145.2090 C   0  0  0  0  0  2  0  0  0  0  0  0
  187.9500  178.0650  139.6640 C   0  0  0  0  0  0  0  0  0  0  0  0
  190.8130  176.1590  138.1310 C   0  0  0  0  0  2  0  0  0  0  0  0
  187.0530  178.3770  143.8460 C   0  0  1  0  0  3  0  0  0  0  0  0
  184.2380  179.0010  145.4570 C   0  0  0  0  0  2  0  0  0  0  0  0
  188.6410  176.7890  136.9080 C   0  0  2  0  0  3  0  0  0  0  0  0
  188.5500  177.5520  141.9910 C   0  0  0  0  0  0  0  0  0  0  0  0
  184.9310  179.2200  143.2780 C   0  0  1  0  0  3  0  0  0  0  0  0
  187.6800  178.1530  141.0520 C   0  0  0  0  0  0  0  0  0  0  0  0
  190.2460  176.3740  143.8510 C   0  0  0  0  0  3  0  0  0  0  0  0
  186.9210  178.5740  137.3750 C   0  0  0  0  0  3  0  0  0  0  0  0
  189.1370  177.0500  144.2560 N   0  0  0  0  0  0  0  0  0  0  0  0
  186.9370  178.5930  138.7130 C   0  0  0  0  0  3  0  0  0  0  0  0
  189.7010  177.2050  137.9130 C   0  0  1  0  0  3  0  0  0  0  0  0
  190.5420  176.2530  142.4920 C   0  0  0  0  0  3  0  0  0  0  0  0
  189.9390  176.7710  140.1860 C   0  0  0  0  0  0  0  0  0  0  0  0
  189.2330  176.1690  135.8030 O   0  0  0  0  0  0  0  0  0  0  0  0
  188.3270  175.1770  135.4220 C   0  0  0  0  0  2  0  0  0  0  0  0
  186.5540  172.5250  136.4090 N   0  0  0  0  0  0  0  0  0  0  0  0
  188.6770  173.1770  136.8330 C   0  0  0  0  0  3  0  0  0  0  0  0
  187.8570  174.4110  136.6460 C   0  0  2  0  0  3  0  0  0  0  0  0
  187.8860  172.1250  136.6900 C   0  0  0  0  0  3  0  0  0  0  0  0
  186.5180  173.8140  136.3780 C   0  0  0  0  0  3  0  0  0  0  0  0
  1 18  1  0  0  0  0
  1 26  2  0  0  0  0
  2 27  1  0  0  0  0
  3 16  1  1  0  0  0
  4 15  1  0  0  0  0
  4 23  1  0  0  0  0
  5 11  1  6  0  0  0
  5 19  1  0  0  0  0
  5 15  1  0  0  0  0
  6 19  1  0  0  0  0
  6  7  1  1  0  0  0
  6  3  1  0  0  0  0
  7  3  1  0  0  0  0
  9 13  1  0  0  0  0
  9 27  2  0  0  0  0
 10 17  1  0  0  0  0
 10 22  1  0  0  0  0
 12  8  1  0  0  0  0
 13 20  2  0  0  0  0
 14  2  1  0  0  0  0
 15 12  1  1  0  0  0
 16  8  1  0  0  0  0
 17 28  1  6  0  0  0
 17 25  1  0  0  0  0
 18  4  2  0  0  0  0
 19  3  1  0  0  0  0
 20 11  1  0  0  0  0
 20 18  1  0  0  0  0
 21 23  2  0  0  0  0
 22 24  2  0  0  0  0
 24 13  1  0  0  0  0
 25 14  1  0  0  0  0
 25  9  1  0  0  0  0
 26 21  1  0  0  0  0
 27  1  1  0  0  0  0
 29 28  1  0  0  0  0
 29 32  1  0  0  0  0
 30 33  1  0  0  0  0
 32 31  1  0  0  0  0
 33 31  2  0  0  0  0
 34 30  2  0  0  0  0
 34 32  1  0  0  0  0
M  END
>  <MODEL>
6

>  <REMARK>
 VINA RESULT:      -8.9      3.887      6.790
  Name = 
  3 active torsions:
  status: ('A' for Active; 'I' for Inactive)
    1  A    between atoms: C_17  and  O_28
    2  A    between atoms: O_28  and  C_29
    3  A    between atoms: C_29  and  C_32
                            x       y       z     vdW  Elec       q    Type
                         _______ _______ _______ _____ _____    ______ ____

>  <TORSDO>
F 3

$$$$
=
 OpenBabel11122412203D

 34 42  0  0  1  0  0  0  0  0999 V2000
  185.8320  178.6020  142.3160 C   0  0  0  0  0  0  0  0  0  0  0  0
  185.8050  178.9620  139.8430 N   0  0  0  0  0  2  0  0  0  0  0  0
  189.1860  178.1900  147.7220 C   0  0  2  0  0  0  0  0  0  0  0  0
  186.0440  178.2460  144.7090 C   0  0  0  0  0  0  0  0  0  0  0  0
  188.2820  177.7610  145.6020 N   0  0  1  0  0  0  0  0  0  0  0  0
  190.3450  177.5030  147.0090 C   0  0  1  0  0  3  0  0  0  0  0  0
  190.4970  178.1810  148.2230 O   0  0  0  0  0  0  0  0  0  0  0  0
  186.7990  177.7200  148.4760 C   0  0  0  0  0  2  0  0  0  0  0  0
  187.5930  177.8730  140.8330 C   0  0  0  0  0  0  0  0  0  0  0  0
  190.1310  176.9960  139.2340 C   0  0  0  0  0  2  0  0  0  0  0  0
  188.5610  176.9590  144.4100 C   0  0  0  0  0  2  0  0  0  0  0  0
  186.4560  178.4930  147.1810 C   0  0  0  0  0  2  0  0  0  0  0  0
  188.3760  177.3980  141.9060 C   0  0  0  0  0  0  0  0  0  0  0  0
  186.7610  178.7160  138.7700 C   0  0  0  0  0  2  0  0  0  0  0  0
  186.8250  177.7170  145.8900 C   0  0  1  0  0  3  0  0  0  0  0  0
  188.3050  177.6650  148.8430 C   0  0  0  0  0  2  0  0  0  0  0  0
  189.2720  178.2300  139.0400 C   0  0  2  0  0  3  0  0  0  0  0  0
  186.5700  178.1090  143.4130 C   0  0  0  0  0  0  0  0  0  0  0  0
  188.9410  177.0940  146.7110 C   0  0  1  0  0  3  0  0  0  0  0  0
  187.8380  177.5160  143.2110 C   0  0  0  0  0  0  0  0  0  0  0  0
  184.0810  179.2740  143.8280 C   0  0  0  0  0  3  0  0  0  0  0  0
  190.5190  176.7530  140.6600 C   0  0  0  0  0  3  0  0  0  0  0  0
  184.8090  178.8020  144.8770 N   0  0  0  0  0  0  0  0  0  0  0  0
  189.7670  176.8950  141.7580 C   0  0  0  0  0  3  0  0  0  0  0  0
  187.8510  177.8050  139.3700 C   0  0  1  0  0  3  0  0  0  0  0  0
  184.5810  179.1890  142.5280 C   0  0  0  0  0  3  0  0  0  0  0  0
  186.3790  178.4770  141.0400 C   0  0  0  0  0  0  0  0  0  0  0  0
  189.3630  178.6280  137.7020 O   0  0  0  0  0  0  0  0  0  0  0  0
  189.8070  177.4920  137.0220 C   0  0  0  0  0  2  0  0  0  0  0  0
  188.1780  175.7590  134.6780 N   0  0  0  0  0  0  0  0  0  0  0  0
  187.8700  177.8320  135.5240 C   0  0  0  0  0  3  0  0  0  0  0  0
  189.3330  177.5380  135.5790 C   0  0  2  0  0  3  0  0  0  0  0  0
  187.2530  176.7850  134.9990 C   0  0  0  0  0  3  0  0  0  0  0  0
  189.3600  176.1650  135.0020 C   0  0  0  0  0  3  0  0  0  0  0  0
  1 26  2  0  0  0  0
  1 18  1  0  0  0  0
  2 27  1  0  0  0  0
  3  7  1  0  0  0  0
  3 16  1  1  0  0  0
  4 23  1  0  0  0  0
  4 15  1  0  0  0  0
  5 11  1  6  0  0  0
  5 15  1  0  0  0  0
  5 19  1  0  0  0  0
  6  3  1  0  0  0  0
  6  7  1  1  0  0  0
  8 16  1  0  0  0  0
  9 27  2  0  0  0  0
  9 13  1  0  0  0  0
 10 22  1  0  0  0  0
 12  8  1  0  0  0  0
 13 20  2  0  0  0  0
 14 25  1  0  0  0  0
 14  2  1  0  0  0  0
 15 12  1  1  0  0  0
 17 28  1  6  0  0  0
 17 10  1  0  0  0  0
 17 25  1  0  0  0  0
 18  4  2  0  0  0  0
 19  6  1  0  0  0  0
 19  3  1  0  0  0  0
 20 18  1  0  0  0  0
 20 11  1  0  0  0  0
 21 23  2  0  0  0  0
 22 24  2  0  0  0  0
 24 13  1  0  0  0  0
 25  9  1  0  0  0  0
 26 21  1  0  0  0  0
 27  1  1  0  0  0  0
 29 28  1  0  0  0  0
 30 33  1  0  0  0  0
 30 34  2  0  0  0  0
 31 32  1  0  0  0  0
 32 29  1  0  0  0  0
 33 31  2  0  0  0  0
 34 32  1  0  0  0  0
M  END
>  <MODEL>
7

>  <REMARK>
 VINA RESULT:      -8.7      3.380      5.150
  Name = 
  3 active torsions:
  status: ('A' for Active; 'I' for Inactive)
    1  A    between atoms: C_17  and  O_28
    2  A    between atoms: O_28  and  C_29
    3  A    between atoms: C_29  and  C_32
                            x       y       z     vdW  Elec       q    Type
                         _______ _______ _______ _____ _____    ______ ____

>  <TORSDO>
F 3

$$$$
=
 OpenBabel11122412203D

 34 42  0  0  1  0  0  0  0  0999 V2000
  185.6180  178.3180  140.8220 C   0  0  0  0  0  0  0  0  0  0  0  0
  187.5800  177.9350  142.3240 N   0  0  0  0  0  2  0  0  0  0  0  0
  179.9510  181.0770  139.8660 C   0  0  2  0  0  0  0  0  0  0  0  0
  183.6280  178.7740  139.5070 C   0  0  0  0  0  0  0  0  0  0  0  0
  181.6740  179.7060  140.6710 N   0  0  1  0  0  0  0  0  0  0  0  0
  179.5530  180.8800  141.3240 C   0  0  1  0  0  3  0  0  0  0  0  0
  178.9630  181.8460  140.5010 O   0  0  0  0  0  0  0  0  0  0  0  0
  180.3120  179.7250  137.7370 C   0  0  0  0  0  2  0  0  0  0  0  0
  185.4600  178.1720  143.2280 C   0  0  0  0  0  0  0  0  0  0  0  0
  184.9390  178.2520  146.3090 C   0  0  0  0  0  2  0  0  0  0  0  0
  181.9790  178.8540  141.8220 C   0  0  0  0  0  2  0  0  0  0  0  0
  181.7960  179.8490  138.1550 C   0  0  0  0  0  2  0  0  0  0  0  0
  184.0780  178.4510  143.2100 C   0  0  0  0  0  0  0  0  0  0  0  0
  187.7620  177.9070  143.7710 C   0  0  0  0  0  2  0  0  0  0  0  0
  182.1410  179.0360  139.4300 C   0  0  1  0  0  3  0  0  0  0  0  0
  179.3020  180.5140  138.6120 C   0  0  0  0  0  2  0  0  0  0  0  0
  186.1210  178.8030  145.5360 C   0  0  2  0  0  3  0  0  0  0  0  0
  184.2310  178.5660  140.7610 C   0  0  0  0  0  0  0  0  0  0  0  0
  180.2250  179.7750  140.5810 C   0  0  1  0  0  3  0  0  0  0  0  0
  183.4650  178.6390  141.9470 C   0  0  0  0  0  0  0  0  0  0  0  0
  185.7210  178.4300  138.4190 C   0  0  0  0  0  3  0  0  0  0  0  0
  183.6120  178.6250  145.7220 C   0  0  0  0  0  3  0  0  0  0  0  0
  184.3830  178.6780  138.3750 N   0  0  0  0  0  0  0  0  0  0  0  0
  183.2610  178.6730  144.4320 C   0  0  0  0  0  3  0  0  0  0  0  0
  186.3460  177.8460  144.3780 C   0  0  1  0  0  3  0  0  0  0  0  0
  186.3660  178.2520  139.6440 C   0  0  0  0  0  3  0  0  0  0  0  0
  186.2030  178.1370  142.0750 C   0  0  0  0  0  0  0  0  0  0  0  0
  187.2350  178.8160  146.3800 O   0  0  0  0  0  0  0  0  0  0  0  0
  186.7940  178.2180  147.5630 C   0  0  0  0  0  2  0  0  0  0  0  0
  189.9210  177.1620  147.0630 N   0  0  0  0  0  0  0  0  0  0  0  0
  188.9440  178.2560  148.7830 C   0  0  0  0  0  3  0  0  0  0  0  0
  187.9080  177.3770  148.1620 C   0  0  2  0  0  3  0  0  0  0  0  0
  190.0790  178.0950  148.1200 C   0  0  0  0  0  3  0  0  0  0  0  0
  188.7000  176.7460  147.0690 C   0  0  0  0  0  3  0  0  0  0  0  0
  1 27  1  0  0  0  0
  2 14  1  0  0  0  0
  3 16  1  1  0  0  0
  3  7  1  0  0  0  0
  3 19  1  0  0  0  0
  3  6  1  0  0  0  0
  4 18  1  0  0  0  0
  5 11  1  1  0  0  0
  6  7  1  6  0  0  0
  8 12  1  0  0  0  0
  8 16  1  0  0  0  0
  9 25  1  0  0  0  0
 11 20  1  0  0  0  0
 13  9  1  0  0  0  0
 13 24  1  0  0  0  0
 14 25  1  0  0  0  0
 15 12  1  6  0  0  0
 15  4  1  0  0  0  0
 15  5  1  0  0  0  0
 17 10  1  0  0  0  0
 17 28  1  1  0  0  0
 18  1  2  0  0  0  0
 18 20  1  0  0  0  0
 19  5  1  0  0  0  0
 19  6  1  0  0  0  0
 20 13  2  0  0  0  0
 21 26  2  0  0  0  0
 22 10  1  0  0  0  0
 23 21  1  0  0  0  0
 23  4  2  0  0  0  0
 24 22  2  0  0  0  0
 25 17  1  0  0  0  0
 26  1  1  0  0  0  0
 27  2  1  0  0  0  0
 27  9  2  0  0  0  0
 28 29  1  0  0  0  0
 29 32  1  0  0  0  0
 30 34  2  0  0  0  0
 30 33  1  0  0  0  0
 32 31  1  0  0  0  0
 33 31  2  0  0  0  0
 34 32  1  0  0  0  0
M  END
>  <MODEL>
8

>  <REMARK>
 VINA RESULT:      -8.6      2.149      9.418
  Name = 
  3 active torsions:
  status: ('A' for Active; 'I' for Inactive)
    1  A    between atoms: C_17  and  O_28
    2  A    between atoms: O_28  and  C_29
    3  A    between atoms: C_29  and  C_32
                            x       y       z     vdW  Elec       q    Type
                         _______ _______ _______ _____ _____    ______ ____

>  <TORSDO>
F 3

$$$$
=
 OpenBabel11122412203D

 34 42  0  0  1  0  0  0  0  0999 V2000
  187.4920  178.2500  140.7320 C   0  0  0  0  0  0  0  0  0  0  0  0
  185.5850  178.4410  139.1280 N   0  0  0  0  0  2  0  0  0  0  0  0
  189.6150  176.4930  146.4810 C   0  0  2  0  0  0  0  0  0  0  0  0
  189.2200  178.0170  142.4210 C   0  0  0  0  0  0  0  0  0  0  0  0
  188.5110  177.6080  144.7400 N   0  0  1  0  0  0  0  0  0  0  0  0
  188.3180  176.9340  147.1500 C   0  0  1  0  0  3  0  0  0  0  0  0
  189.1890  176.0020  147.7250 O   0  0  0  0  0  0  0  0  0  0  0  0
  191.6810  177.4900  145.3730 C   0  0  0  0  0  2  0  0  0  0  0  0
  185.2160  178.7100  141.3990 C   0  0  0  0  0  0  0  0  0  0  0  0
  182.3620  179.0980  142.6110 C   0  0  0  0  0  2  0  0  0  0  0  0
  187.3850  178.5210  144.5330 C   0  0  0  0  0  2  0  0  0  0  0  0
  190.9020  177.1450  144.0820 C   0  0  0  0  0  2  0  0  0  0  0  0
  185.5540  178.6920  142.7670 C   0  0  0  0  0  0  0  0  0  0  0  0
  184.1430  178.6070  139.2770 C   0  0  0  0  0  2  0  0  0  0  0  0
  189.6430  178.0270  143.8730 C   0  0  1  0  0  3  0  0  0  0  0  0
  191.0270  177.0120  146.6960 C   0  0  0  0  0  2  0  0  0  0  0  0
  182.7770  178.2490  141.4260 C   0  0  2  0  0  3  0  0  0  0  0  0
  187.8750  178.2580  142.0900 C   0  0  0  0  0  0  0  0  0  0  0  0
  188.9500  177.7980  146.1110 C   0  0  1  0  0  3  0  0  0  0  0  0
  186.9130  178.4710  143.1030 C   0  0  0  0  0  0  0  0  0  0  0  0
  189.7810  177.8350  140.1120 C   0  0  0  0  0  3  0  0  0  0  0  0
  183.2290  178.9090  143.8180 C   0  0  0  0  0  3  0  0  0  0  0  0
  190.1350  177.8350  141.4260 N   0  0  0  0  0  0  0  0  0  0  0  0
  184.5590  178.7720  143.8690 C   0  0  0  0  0  3  0  0  0  0  0  0
  183.9100  179.0020  140.7490 C   0  0  1  0  0  3  0  0  0  0  0  0
  188.4510  178.0360  139.7400 C   0  0  0  0  0  3  0  0  0  0  0  0
  186.1500  178.4690  140.4230 C   0  0  0  0  0  0  0  0  0  0  0  0
  181.6850  178.1310  140.5600 O   0  0  0  0  0  0  0  0  0  0  0  0
  180.7790  179.1010  140.9950 C   0  0  0  0  0  2  0  0  0  0  0  0
  180.6740  181.6300  138.8180 N   0  0  0  0  0  0  0  0  0  0  0  0
  180.7530  179.3890  138.5400 C   0  0  0  0  0  3  0  0  0  0  0  0
  180.0120  179.6580  139.8090 C   0  0  2  0  0  3  0  0  0  0  0  0
  181.1080  180.5480  138.0100 C   0  0  0  0  0  3  0  0  0  0  0  0
  180.0540  181.1470  139.8420 C   0  0  0  0  0  3  0  0  0  0  0  0
  1 18  1  0  0  0  0
  2 14  1  0  0  0  0
  2 27  1  0  0  0  0
  3 16  1  1  0  0  0
  3  6  1  0  0  0  0
  3  7  1  0  0  0  0
  4 15  1  0  0  0  0
  5 11  1  6  0  0  0
  5 19  1  0  0  0  0
  6  7  1  1  0  0  0
  8 16  1  0  0  0  0
  9 13  2  0  0  0  0
 10 22  1  0  0  0  0
 12  8  1  0  0  0  0
 13 20  1  0  0  0  0
 13 24  1  0  0  0  0
 14 25  1  0  0  0  0
 15 12  1  6  0  0  0
 15  5  1  0  0  0  0
 17 28  1  6  0  0  0
 17 10  1  0  0  0  0
 18  4  1  0  0  0  0
 18 20  2  0  0  0  0
 19  3  1  0  0  0  0
 19  6  1  0  0  0  0
 20 11  1  0  0  0  0
 21 23  1  0  0  0  0
 22 24  2  0  0  0  0
 23  4  2  0  0  0  0
 25  9  1  0  0  0  0
 25 17  1  0  0  0  0
 26 21  2  0  0  0  0
 26  1  1  0  0  0  0
 27  1  2  0  0  0  0
 27  9  1  0  0  0  0
 28 29  1  0  0  0  0
 30 34  2  0  0  0  0
 31 32  1  0  0  0  0
 32 34  1  0  0  0  0
 32 29  1  0  0  0  0
 33 31  2  0  0  0  0
 33 30  1  0  0  0  0
M  END
>  <MODEL>
9

>  <REMARK>
 VINA RESULT:      -8.5      1.897      3.719
  Name = 
  3 active torsions:
  status: ('A' for Active; 'I' for Inactive)
    1  A    between atoms: C_17  and  O_28
    2  A    between atoms: O_28  and  C_29
    3  A    between atoms: C_29  and  C_32
                            x       y       z     vdW  Elec       q    Type
                         _______ _______ _______ _____ _____    ______ ____

>  <TORSDO>
F 3

$$$$
