=
 OpenBabel11122412013D

 28 32  0  0  1  0  0  0  0  0999 V2000
  182.3790  177.2230  137.4270 C   0  0  2  0  0  3  0  0  0  0  0  0
  185.3980  173.3610  138.0540 O   0  0  0  0  0  1  0  0  0  0  0  0
  187.6130  179.5600  136.6000 O   0  0  0  0  0  0  0  0  0  0  0  0
  182.6790  177.7910  134.6740 C   0  0  0  0  0  2  0  0  0  0  0  0
  187.8190  177.2210  136.5230 N   0  0  0  0  0  0  0  0  0  0  0  0
  182.6530  177.6330  138.8770 C   0  0  0  0  0  2  0  0  0  0  0  0
  183.3240  173.2860  136.9090 C   0  0  0  0  0  1  0  0  0  0  0  0
  184.8200  173.5140  136.7910 C   0  0  1  0  0  0  0  0  0  0  0  0
  186.6270  172.8710  135.0580 C   0  0  2  0  0  3  0  0  0  0  0  0
  185.0890  174.9350  136.2490 C   0  0  2  0  0  3  0  0  0  0  0  0
  185.1370  179.0220  141.1550 C   0  0  0  0  0  1  0  0  0  0  0  0
  185.9050  176.6450  137.8210 C   0  0  1  0  0  3  0  0  0  0  0  0
  187.4170  173.9450  135.7930 C   0  0  0  0  0  2  0  0  0  0  0  0
  185.3880  172.4380  135.8520 C   0  0  0  0  0  2  0  0  0  0  0  0
  184.9480  178.5210  139.7400 C   0  0  2  0  0  3  0  0  0  0  0  0
  183.6580  177.0500  136.5770 C   0  0  2  0  0  3  0  0  0  0  0  0
  187.1860  178.4180  136.9170 C   0  0  0  0  0  0  0  0  0  0  0  0
  187.4420  171.7640  134.8260 O   0  0  0  0  0  1  0  0  0  0  0  0
  186.1020  178.8010  138.9830 O   0  0  0  0  0  0  0  0  0  0  0  0
  183.3150  176.6840  135.2580 O   0  0  0  0  0  0  0  0  0  0  0  0
  181.4270  178.2250  136.7680 C   0  0  0  0  0  2  0  0  0  0  0  0
  181.2880  177.9510  135.2750 C   0  0  0  0  0  2  0  0  0  0  0  0
  183.4470  179.2710  139.0220 S   0  0  0  0  0  0  0  0  0  0  0  0
  187.1140  176.0750  137.0630 C   0  0  1  0  0  3  0  0  0  0  0  0
  185.9690  178.1890  137.7220 C   0  0  2  0  0  3  0  0  0  0  0  0
  186.5700  175.2100  135.9410 C   0  0  2  0  0  3  0  0  0  0  0  0
  189.1060  177.1480  135.8530 C   0  0  0  0  0  1  0  0  0  0  0  0
  184.6310  176.0270  137.2160 C   0  0  1  0  0  3  0  0  0  0  0  0
  1 21  1  6  0  0  0
  1  6  1  0  0  0  0
  3 17  2  0  0  0  0
  4 20  1  0  0  0  0
  4 22  1  0  0  0  0
  5 17  1  0  0  0  0
  5 24  1  0  0  0  0
  6 23  1  0  0  0  0
  8  7  1  1  0  0  0
  8  2  1  0  0  0  0
  9 18  1  1  0  0  0
  9 13  1  0  0  0  0
  9 14  1  0  0  0  0
 10  8  1  0  0  0  0
 10 28  1  0  0  0  0
 13 26  1  0  0  0  0
 14  8  1  0  0  0  0
 15 11  1  0  0  0  0
 16 28  1  0  0  0  0
 16  1  1  0  0  0  0
 17 25  1  0  0  0  0
 19 15  1  0  0  0  0
 20 16  1  0  0  0  0
 22 21  1  0  0  0  0
 23 15  1  0  0  0  0
 24 12  1  0  0  0  0
 25 12  1  0  0  0  0
 25 19  1  0  0  0  0
 26 10  1  0  0  0  0
 26 24  1  0  0  0  0
 27  5  1  0  0  0  0
 28 12  1  0  0  0  0
M  END
>  <MODEL>
1

>  <REMARK>
 VINA RESULT:      -5.4      0.000      0.000
  Name = 
  0 active torsions:
  status: ('A' for Active; 'I' for Inactive)
                            x       y       z     vdW  Elec       q    Type
                         _______ _______ _______ _____ _____    ______ ____

>  <TORSDO>
F 0

$$$$
=
 OpenBabel11122412013D

 28 32  0  0  1  0  0  0  0  0999 V2000
  180.4160  179.0160  142.5660 C   0  0  2  0  0  3  0  0  0  0  0  0
  181.0300  174.6440  140.3440 O   0  0  0  0  0  1  0  0  0  0  0  0
  184.9460  179.9870  139.0910 O   0  0  0  0  0  0  0  0  0  0  0  0
  179.5690  180.6700  140.4340 C   0  0  0  0  0  2  0  0  0  0  0  0
  183.9190  177.9780  138.4350 N   0  0  0  0  0  0  0  0  0  0  0  0
  181.5200  178.6330  143.5550 C   0  0  0  0  0  2  0  0  0  0  0  0
  178.9320  175.6530  140.7920 C   0  0  0  0  0  1  0  0  0  0  0  0
  180.0710  175.5020  139.7990 C   0  0  1  0  0  0  0  0  0  0  0  0
  180.2240  175.2620  137.2300 C   0  0  2  0  0  3  0  0  0  0  0  0
  180.6930  176.8850  139.5070 C   0  0  2  0  0  3  0  0  0  0  0  0
  185.1070  178.1190  143.9550 C   0  0  0  0  0  1  0  0  0  0  0  0
  182.8830  177.4080  140.5040 C   0  0  1  0  0  3  0  0  0  0  0  0
  181.6770  175.6320  137.4910 C   0  0  0  0  0  2  0  0  0  0  0  0
  179.5010  174.8630  138.5230 C   0  0  0  0  0  2  0  0  0  0  0  0
  184.0370  178.3870  142.9190 C   0  0  2  0  0  3  0  0  0  0  0  0
  180.8450  178.9150  141.0850 C   0  0  2  0  0  3  0  0  0  0  0  0
  184.2350  178.9860  139.3710 C   0  0  0  0  0  0  0  0  0  0  0  0
  180.1620  174.2100  136.3180 O   0  0  0  0  0  1  0  0  0  0  0  0
  184.6410  178.6610  141.6770 O   0  0  0  0  0  0  0  0  0  0  0  0
  179.7750  179.2940  140.2450 O   0  0  0  0  0  0  0  0  0  0  0  0
  179.8920  180.4210  142.8790 C   0  0  0  0  0  2  0  0  0  0  0  0
  178.9310  180.9030  141.7990 C   0  0  0  0  0  2  0  0  0  0  0  0
  182.9640  179.7490  143.4860 S   0  0  0  0  0  0  0  0  0  0  0  0
  183.1120  176.9460  139.0570 C   0  0  1  0  0  3  0  0  0  0  0  0
  183.6330  178.7490  140.6980 C   0  0  2  0  0  3  0  0  0  0  0  0
  181.7510  176.8660  138.3920 C   0  0  2  0  0  3  0  0  0  0  0  0
  184.4910  177.8780  137.1030 C   0  0  0  0  0  1  0  0  0  0  0  0
  181.3630  177.4970  140.7380 C   0  0  1  0  0  3  0  0  0  0  0  0
  1 21  1  1  0  0  0
  1  6  1  0  0  0  0
  3 17  2  0  0  0  0
  4 22  1  0  0  0  0
  5 24  1  0  0  0  0
  5 17  1  0  0  0  0
  8  2  1  0  0  0  0
  8  7  1  1  0  0  0
  9 18  1  6  0  0  0
  9 13  1  0  0  0  0
  9 14  1  0  0  0  0
 10  8  1  0  0  0  0
 10 28  1  0  0  0  0
 12 25  1  0  0  0  0
 12 28  1  0  0  0  0
 13 26  1  0  0  0  0
 14  8  1  0  0  0  0
 15 23  1  0  0  0  0
 15 11  1  0  0  0  0
 16  1  1  0  0  0  0
 17 25  1  0  0  0  0
 19 15  1  0  0  0  0
 20  4  1  0  0  0  0
 20 16  1  0  0  0  0
 22 21  1  0  0  0  0
 23  6  1  0  0  0  0
 24 12  1  0  0  0  0
 25 19  1  0  0  0  0
 26 24  1  0  0  0  0
 26 10  1  0  0  0  0
 27  5  1  0  0  0  0
 28 16  1  0  0  0  0
M  END
>  <MODEL>
2

>  <REMARK>
 VINA RESULT:      -5.4      3.661      5.512
  Name = 
  0 active torsions:
  status: ('A' for Active; 'I' for Inactive)
                            x       y       z     vdW  Elec       q    Type
                         _______ _______ _______ _____ _____    ______ ____

>  <TORSDO>
F 0

$$$$
=
 OpenBabel11122412013D

 28 32  0  0  1  0  0  0  0  0999 V2000
  189.6500  178.1660  138.4740 C   0  0  2  0  0  3  0  0  0  0  0  0
  192.4620  175.7430  135.2120 O   0  0  0  0  0  1  0  0  0  0  0  0
  186.3180  173.6530  137.0370 O   0  0  0  0  0  0  0  0  0  0  0  0
  189.5760  176.3780  140.6630 C   0  0  0  0  0  2  0  0  0  0  0  0
  188.5050  173.2350  136.2870 N   0  0  0  0  0  0  0  0  0  0  0  0
  188.9100  178.8210  137.3040 C   0  0  0  0  0  2  0  0  0  0  0  0
  193.2610  176.7530  137.2020 C   0  0  0  0  0  1  0  0  0  0  0  0
  192.7040  175.4930  136.5650 C   0  0  1  0  0  0  0  0  0  0  0  0
  193.2140  172.9680  136.7800 C   0  0  2  0  0  3  0  0  0  0  0  0
  191.3950  175.0860  137.2760 C   0  0  2  0  0  3  0  0  0  0  0  0
  186.5410  178.2510  134.5940 C   0  0  0  0  0  1  0  0  0  0  0  0
  189.2640  175.4870  136.1100 C   0  0  1  0  0  3  0  0  0  0  0  0
  191.8580  172.8490  136.1000 C   0  0  0  0  0  2  0  0  0  0  0  0
  193.7710  174.3940  136.6830 C   0  0  0  0  0  2  0  0  0  0  0  0
  187.3390  177.5400  135.6640 C   0  0  2  0  0  3  0  0  0  0  0  0
  189.6690  176.6220  138.4130 C   0  0  2  0  0  3  0  0  0  0  0  0
  187.4440  174.0820  136.6720 C   0  0  0  0  0  0  0  0  0  0  0  0
  194.1130  172.0750  136.1980 O   0  0  0  0  0  1  0  0  0  0  0  0
  186.9410  176.1910  135.7310 O   0  0  0  0  0  0  0  0  0  0  0  0
  190.3590  176.1040  139.5300 O   0  0  0  0  0  0  0  0  0  0  0  0
  189.0580  178.6440  139.8040 C   0  0  0  0  0  2  0  0  0  0  0  0
  189.6450  177.8670  140.9770 C   0  0  0  0  0  2  0  0  0  0  0  0
  187.1320  178.4050  137.2570 S   0  0  0  0  0  0  0  0  0  0  0  0
  189.6600  174.0180  135.8940 C   0  0  1  0  0  3  0  0  0  0  0  0
  187.8010  175.5140  136.6160 C   0  0  2  0  0  3  0  0  0  0  0  0
  190.8330  173.7320  136.8130 C   0  0  2  0  0  3  0  0  0  0  0  0
  188.3920  171.7970  136.1100 C   0  0  0  0  0  1  0  0  0  0  0  0
  190.2790  176.1140  137.0830 C   0  0  1  0  0  3  0  0  0  0  0  0
  1  6  1  6  0  0  0
  1 21  1  0  0  0  0
  2  8  1  0  0  0  0
  4 22  1  0  0  0  0
  5 17  1  0  0  0  0
  8 14  1  0  0  0  0
  8  7  1  1  0  0  0
  8 10  1  0  0  0  0
  9 18  1  6  0  0  0
 11 15  1  0  0  0  0
 12 25  1  0  0  0  0
 12 28  1  0  0  0  0
 13  9  1  0  0  0  0
 13 26  1  0  0  0  0
 14  9  1  0  0  0  0
 15 19  1  0  0  0  0
 15 23  1  0  0  0  0
 16  1  1  0  0  0  0
 16 20  1  0  0  0  0
 17  3  2  0  0  0  0
 19 25  1  0  0  0  0
 20  4  1  0  0  0  0
 21 22  1  0  0  0  0
 23  6  1  0  0  0  0
 24 12  1  0  0  0  0
 24  5  1  0  0  0  0
 24 26  1  0  0  0  0
 25 17  1  0  0  0  0
 26 10  1  0  0  0  0
 27  5  1  0  0  0  0
 28 10  1  0  0  0  0
 28 16  1  0  0  0  0
M  END
>  <MODEL>
3

>  <REMARK>
 VINA RESULT:      -5.3      3.804      6.627
  Name = 
  0 active torsions:
  status: ('A' for Active; 'I' for Inactive)
                            x       y       z     vdW  Elec       q    Type
                         _______ _______ _______ _____ _____    ______ ____

>  <TORSDO>
F 0

$$$$
=
 OpenBabel11122412013D

 28 32  0  0  1  0  0  0  0  0999 V2000
  179.2690  176.8550  138.8420 C   0  0  2  0  0  3  0  0  0  0  0  0
  180.7170  180.2390  142.1400 O   0  0  0  0  0  1  0  0  0  0  0  0
  184.8390  177.6540  137.4720 O   0  0  0  0  0  0  0  0  0  0  0  0
  180.7230  174.5640  139.6400 C   0  0  0  0  0  2  0  0  0  0  0  0
  184.4460  178.6020  139.5870 N   0  0  0  0  0  0  0  0  0  0  0  0
  179.0710  177.9790  137.8220 C   0  0  0  0  0  2  0  0  0  0  0  0
  179.2870  178.4100  142.6160 C   0  0  0  0  0  1  0  0  0  0  0  0
  180.7200  178.9060  142.5580 C   0  0  1  0  0  0  0  0  0  0  0  0
  182.8150  178.5920  144.0390 C   0  0  2  0  0  3  0  0  0  0  0  0
  181.5320  178.0380  141.5720 C   0  0  2  0  0  3  0  0  0  0  0  0
  180.7770  180.3850  135.6810 C   0  0  0  0  0  1  0  0  0  0  0  0
  182.1050  178.9970  139.3780 C   0  0  1  0  0  3  0  0  0  0  0  0
  183.5170  179.1170  142.7950 C   0  0  0  0  0  2  0  0  0  0  0  0
  181.3010  178.8340  143.9790 C   0  0  0  0  0  2  0  0  0  0  0  0
  181.0140  179.3630  136.7710 C   0  0  2  0  0  3  0  0  0  0  0  0
  180.6820  176.8220  139.4660 C   0  0  2  0  0  3  0  0  0  0  0  0
  184.0440  178.1610  138.3080 C   0  0  0  0  0  0  0  0  0  0  0  0
  183.3410  179.2090  145.1730 O   0  0  0  0  0  1  0  0  0  0  0  0
  182.3990  179.1720  136.9450 O   0  0  0  0  0  0  0  0  0  0  0  0
  180.7810  175.7540  140.3840 O   0  0  0  0  0  0  0  0  0  0  0  0
  178.9310  175.5020  138.2080 C   0  0  0  0  0  2  0  0  0  0  0  0
  179.3000  174.3510  139.1380 C   0  0  0  0  0  2  0  0  0  0  0  0
  180.1460  177.8140  136.3550 S   0  0  0  0  0  0  0  0  0  0  0  0
  183.3190  179.1620  140.3050 C   0  0  1  0  0  3  0  0  0  0  0  0
  182.5990  178.3420  138.0650 C   0  0  2  0  0  3  0  0  0  0  0  0
  183.0350  178.3550  141.5590 C   0  0  2  0  0  3  0  0  0  0  0  0
  185.8250  178.6780  140.0390 C   0  0  0  0  0  1  0  0  0  0  0  0
  181.0410  178.1760  140.1300 C   0  0  1  0  0  3  0  0  0  0  0  0
  1  6  1  6  0  0  0
  1 16  1  0  0  0  0
  2  8  1  0  0  0  0
  3 17  2  0  0  0  0
  4 20  1  0  0  0  0
  5 27  1  0  0  0  0
  5 24  1  0  0  0  0
  8  7  1  1  0  0  0
  8 14  1  0  0  0  0
  9 18  1  1  0  0  0
 10  8  1  0  0  0  0
 11 15  1  0  0  0  0
 12 28  1  0  0  0  0
 12 24  1  0  0  0  0
 13  9  1  0  0  0  0
 14  9  1  0  0  0  0
 15 19  1  0  0  0  0
 16 28  1  0  0  0  0
 16 20  1  0  0  0  0
 17  5  1  0  0  0  0
 19 25  1  0  0  0  0
 21  1  1  0  0  0  0
 21 22  1  0  0  0  0
 22  4  1  0  0  0  0
 23 15  1  0  0  0  0
 23  6  1  0  0  0  0
 24 26  1  0  0  0  0
 25 17  1  0  0  0  0
 25 12  1  0  0  0  0
 26 10  1  0  0  0  0
 26 13  1  0  0  0  0
 28 10  1  0  0  0  0
M  END
>  <MODEL>
4

>  <REMARK>
 VINA RESULT:      -5.2      3.933      6.854
  Name = 
  0 active torsions:
  status: ('A' for Active; 'I' for Inactive)
                            x       y       z     vdW  Elec       q    Type
                         _______ _______ _______ _____ _____    ______ ____

>  <TORSDO>
F 0

$$$$
=
 OpenBabel11122412013D

 28 32  0  0  1  0  0  0  0  0999 V2000
  188.7680  173.5520  135.2160 C   0  0  2  0  0  3  0  0  0  0  0  0
  186.5110  177.9490  135.2170 O   0  0  0  0  0  1  0  0  0  0  0  0
  190.8270  176.0300  140.0280 O   0  0  0  0  0  0  0  0  0  0  0  0
  187.6040  172.2680  137.4500 C   0  0  0  0  0  2  0  0  0  0  0  0
  188.9650  177.2600  139.2930 N   0  0  0  0  0  0  0  0  0  0  0  0
  189.9990  174.2190  134.5940 C   0  0  0  0  0  2  0  0  0  0  0  0
  185.4830  175.8990  134.6180 C   0  0  0  0  0  1  0  0  0  0  0  0
  185.7960  176.8700  135.7420 C   0  0  1  0  0  0  0  0  0  0  0  0
  184.4950  177.7600  137.7910 C   0  0  2  0  0  3  0  0  0  0  0  0
  186.6270  176.1550  136.8310 C   0  0  2  0  0  3  0  0  0  0  0  0
  192.7990  176.4650  135.2230 C   0  0  0  0  0  1  0  0  0  0  0  0
  189.0290  176.6700  136.9850 C   0  0  1  0  0  3  0  0  0  0  0  0
  185.8900  178.1790  138.2330 C   0  0  0  0  0  2  0  0  0  0  0  0
  184.4620  177.3860  136.3040 C   0  0  0  0  0  2  0  0  0  0  0  0
  191.5290  175.9220  135.8410 C   0  0  2  0  0  3  0  0  0  0  0  0
  188.2960  174.2180  136.5280 C   0  0  2  0  0  3  0  0  0  0  0  0
  190.0590  176.3910  139.0970 C   0  0  0  0  0  0  0  0  0  0  0  0
  183.5940  178.7960  138.0320 O   0  0  0  0  0  1  0  0  0  0  0  0
  191.4530  176.3210  137.1890 O   0  0  0  0  0  0  0  0  0  0  0  0
  187.1680  173.5370  137.0360 O   0  0  0  0  0  0  0  0  0  0  0  0
  189.0320  172.0590  135.4360 C   0  0  0  0  0  2  0  0  0  0  0  0
  187.9010  171.4110  136.2250 C   0  0  0  0  0  2  0  0  0  0  0  0
  191.4850  174.1080  135.6500 S   0  0  0  0  0  0  0  0  0  0  0  0
  188.2900  177.5130  138.0350 C   0  0  1  0  0  3  0  0  0  0  0  0
  190.1950  175.9420  137.6970 C   0  0  2  0  0  3  0  0  0  0  0  0
  186.8610  177.0050  138.0890 C   0  0  2  0  0  3  0  0  0  0  0  0
  188.6810  177.9660  140.5310 C   0  0  0  0  0  1  0  0  0  0  0  0
  188.0050  175.7270  136.3270 C   0  0  1  0  0  3  0  0  0  0  0  0
  1  6  1  1  0  0  0
  1 21  1  0  0  0  0
  1 16  1  0  0  0  0
  2  8  1  0  0  0  0
  5 27  1  0  0  0  0
  6 23  1  0  0  0  0
  8  7  1  6  0  0  0
  8 14  1  0  0  0  0
  8 10  1  0  0  0  0
  9 18  1  6  0  0  0
  9 13  1  0  0  0  0
 10 26  1  0  0  0  0
 11 15  1  0  0  0  0
 12 25  1  0  0  0  0
 12 24  1  0  0  0  0
 14  9  1  0  0  0  0
 15 19  1  0  0  0  0
 16 20  1  0  0  0  0
 17  5  1  0  0  0  0
 17  3  2  0  0  0  0
 19 25  1  0  0  0  0
 20  4  1  0  0  0  0
 21 22  1  0  0  0  0
 22  4  1  0  0  0  0
 23 15  1  0  0  0  0
 24 26  1  0  0  0  0
 24  5  1  0  0  0  0
 25 17  1  0  0  0  0
 26 13  1  0  0  0  0
 28 16  1  0  0  0  0
 28 10  1  0  0  0  0
 28 12  1  0  0  0  0
M  END
>  <MODEL>
5

>  <REMARK>
 VINA RESULT:      -4.9      3.197      6.332
  Name = 
  0 active torsions:
  status: ('A' for Active; 'I' for Inactive)
                            x       y       z     vdW  Elec       q    Type
                         _______ _______ _______ _____ _____    ______ ____

>  <TORSDO>
F 0

$$$$
=
 OpenBabel11122412013D

 28 32  0  0  1  0  0  0  0  0999 V2000
  180.4000  177.0300  136.3440 C   0  0  2  0  0  3  0  0  0  0  0  0
  185.0830  175.7290  137.2380 O   0  0  0  0  0  1  0  0  0  0  0  0
  181.2020  178.8440  141.7850 O   0  0  0  0  0  0  0  0  0  0  0  0
  180.5440  179.8540  136.3330 C   0  0  0  0  0  2  0  0  0  0  0  0
  183.2990  178.3600  140.8430 N   0  0  0  0  0  0  0  0  0  0  0  0
  179.9420  175.7540  137.0560 C   0  0  0  0  0  2  0  0  0  0  0  0
  184.2980  176.6420  135.1970 C   0  0  0  0  0  1  0  0  0  0  0  0
  184.8790  176.9370  136.5670 C   0  0  1  0  0  0  0  0  0  0  0  0
  186.6320  178.6040  137.4790 C   0  0  2  0  0  3  0  0  0  0  0  0
  183.9050  177.8330  137.3640 C   0  0  2  0  0  3  0  0  0  0  0  0
  179.6260  174.1060  140.2920 C   0  0  0  0  0  1  0  0  0  0  0  0
  182.5990  176.8050  139.1790 C   0  0  1  0  0  3  0  0  0  0  0  0
  185.9940  178.2260  138.8080 C   0  0  0  0  0  2  0  0  0  0  0  0
  186.2370  177.6270  136.3640 C   0  0  0  0  0  2  0  0  0  0  0  0
  180.1980  175.3330  139.6170 C   0  0  2  0  0  3  0  0  0  0  0  0
  181.3370  177.9160  137.1960 C   0  0  2  0  0  3  0  0  0  0  0  0
  181.8980  178.2210  140.9410 C   0  0  0  0  0  0  0  0  0  0  0  0
  188.0190  178.6250  137.6110 O   0  0  0  0  0  1  0  0  0  0  0  0
  180.6730  176.2300  140.5930 O   0  0  0  0  0  0  0  0  0  0  0  0
  181.7010  179.0710  136.4700 O   0  0  0  0  0  0  0  0  0  0  0  0
  179.1850  177.8340  135.8700 C   0  0  0  0  0  2  0  0  0  0  0  0
  179.6040  179.1960  135.3290 C   0  0  0  0  0  2  0  0  0  0  0  0
  178.9310  176.0850  138.5410 S   0  0  0  0  0  0  0  0  0  0  0  0
  183.8210  177.4980  139.8010 C   0  0  1  0  0  3  0  0  0  0  0  0
  181.3410  177.2860  139.9440 C   0  0  2  0  0  3  0  0  0  0  0  0
  184.4710  178.3230  138.7060 C   0  0  2  0  0  3  0  0  0  0  0  0
  184.1250  179.0980  141.7840 C   0  0  0  0  0  1  0  0  0  0  0  0
  182.5840  177.1300  137.6740 C   0  0  1  0  0  3  0  0  0  0  0  0
  1 21  1  1  0  0  0
  1  6  1  0  0  0  0
  1 16  1  0  0  0  0
  4 20  1  0  0  0  0
  5 17  1  0  0  0  0
  5 27  1  0  0  0  0
  6 23  1  0  0  0  0
  8  7  1  6  0  0  0
  8  2  1  0  0  0  0
  8 10  1  0  0  0  0
  9 18  1  1  0  0  0
  9 13  1  0  0  0  0
 10 28  1  0  0  0  0
 10 26  1  0  0  0  0
 12 24  1  0  0  0  0
 12 25  1  0  0  0  0
 14  8  1  0  0  0  0
 14  9  1  0  0  0  0
 15 11  1  0  0  0  0
 15 19  1  0  0  0  0
 16 28  1  0  0  0  0
 17  3  2  0  0  0  0
 20 16  1  0  0  0  0
 22 21  1  0  0  0  0
 22  4  1  0  0  0  0
 23 15  1  0  0  0  0
 24  5  1  0  0  0  0
 25 19  1  0  0  0  0
 25 17  1  0  0  0  0
 26 13  1  0  0  0  0
 26 24  1  0  0  0  0
 28 12  1  0  0  0  0
M  END
>  <MODEL>
6

>  <REMARK>
 VINA RESULT:      -4.6      2.938      5.054
  Name = 
  0 active torsions:
  status: ('A' for Active; 'I' for Inactive)
                            x       y       z     vdW  Elec       q    Type
                         _______ _______ _______ _____ _____    ______ ____

>  <TORSDO>
F 0

$$$$
=
 OpenBabel11122412013D

 28 32  0  0  1  0  0  0  0  0999 V2000
  181.0410  179.2640  137.9820 C   0  0  2  0  0  3  0  0  0  0  0  0
  180.6760  174.5440  139.4030 O   0  0  0  0  0  1  0  0  0  0  0  0
  186.1620  177.0660  136.4030 O   0  0  0  0  0  0  0  0  0  0  0  0
  181.0910  179.0500  135.1630 C   0  0  0  0  0  2  0  0  0  0  0  0
  184.7030  175.2880  136.8870 N   0  0  0  0  0  0  0  0  0  0  0  0
  181.8020  179.5620  139.2770 C   0  0  0  0  0  2  0  0  0  0  0  0
  178.9320  175.7940  138.3940 C   0  0  0  0  0  1  0  0  0  0  0  0
  180.1200  174.8780  138.1650 C   0  0  1  0  0  0  0  0  0  0  0  0
  180.6150  172.9060  136.5670 C   0  0  2  0  0  3  0  0  0  0  0  0
  181.1670  175.5940  137.2840 C   0  0  2  0  0  3  0  0  0  0  0  0
  184.9530  179.0970  141.0490 C   0  0  0  0  0  1  0  0  0  0  0  0
  183.2180  176.4280  138.3610 C   0  0  1  0  0  3  0  0  0  0  0  0
  182.0490  173.1980  136.9870 C   0  0  0  0  0  2  0  0  0  0  0  0
  179.6040  173.5960  137.4920 C   0  0  0  0  0  2  0  0  0  0  0  0
  184.1980  178.6810  139.8050 C   0  0  2  0  0  3  0  0  0  0  0  0
  181.6580  178.1180  137.1480 C   0  0  2  0  0  3  0  0  0  0  0  0
  185.1470  176.6220  137.0040 C   0  0  0  0  0  0  0  0  0  0  0  0
  180.3930  171.5300  136.5770 O   0  0  0  0  0  1  0  0  0  0  0  0
  185.0530  177.9500  138.9570 O   0  0  0  0  0  0  0  0  0  0  0  0
  180.9040  177.9170  135.9720 O   0  0  0  0  0  0  0  0  0  0  0  0
  180.9180  180.5360  137.1380 C   0  0  0  0  0  2  0  0  0  0  0  0
  180.3360  180.2300  135.7630 C   0  0  0  0  0  2  0  0  0  0  0  0
  183.5040  180.1570  138.9880 S   0  0  0  0  0  0  0  0  0  0  0  0
  183.5340  175.0710  137.7150 C   0  0  1  0  0  3  0  0  0  0  0  0
  184.2920  177.4380  137.8890 C   0  0  2  0  0  3  0  0  0  0  0  0
  182.3390  174.6950  136.8590 C   0  0  2  0  0  3  0  0  0  0  0  0
  185.4300  174.2320  136.2020 C   0  0  0  0  0  1  0  0  0  0  0  0
  181.7780  176.8140  137.9750 C   0  0  1  0  0  3  0  0  0  0  0  0
  1 21  1  6  0  0  0
  1  6  1  0  0  0  0
  3 17  2  0  0  0  0
  4 22  1  0  0  0  0
  4 20  1  0  0  0  0
  5 17  1  0  0  0  0
  5 24  1  0  0  0  0
  8  7  1  1  0  0  0
  8  2  1  0  0  0  0
  9 18  1  1  0  0  0
  9 13  1  0  0  0  0
  9 14  1  0  0  0  0
 10 28  1  0  0  0  0
 10  8  1  0  0  0  0
 14  8  1  0  0  0  0
 15 11  1  0  0  0  0
 16 28  1  0  0  0  0
 16  1  1  0  0  0  0
 17 25  1  0  0  0  0
 19 15  1  0  0  0  0
 20 16  1  0  0  0  0
 22 21  1  0  0  0  0
 23  6  1  0  0  0  0
 23 15  1  0  0  0  0
 24 12  1  0  0  0  0
 25 12  1  0  0  0  0
 25 19  1  0  0  0  0
 26 13  1  0  0  0  0
 26 10  1  0  0  0  0
 26 24  1  0  0  0  0
 27  5  1  0  0  0  0
 28 12  1  0  0  0  0
M  END
>  <MODEL>
7

>  <REMARK>
 VINA RESULT:      -4.6      2.502      3.801
  Name = 
  0 active torsions:
  status: ('A' for Active; 'I' for Inactive)
                            x       y       z     vdW  Elec       q    Type
                         _______ _______ _______ _____ _____    ______ ____

>  <TORSDO>
F 0

$$$$
=
 OpenBabel11122412013D

 28 32  0  0  1  0  0  0  0  0999 V2000
  181.0260  179.4350  137.6400 C   0  0  2  0  0  3  0  0  0  0  0  0
  184.9740  176.5450  138.3400 O   0  0  0  0  0  1  0  0  0  0  0  0
  181.6010  179.4510  143.4030 O   0  0  0  0  0  0  0  0  0  0  0  0
  181.9810  181.9750  138.4360 C   0  0  0  0  0  2  0  0  0  0  0  0
  183.5730  178.5900  142.4580 N   0  0  0  0  0  0  0  0  0  0  0  0
  180.1300  178.2300  137.9410 C   0  0  0  0  0  2  0  0  0  0  0  0
  184.7590  178.1480  136.6080 C   0  0  0  0  0  1  0  0  0  0  0  0
  185.2170  177.8860  138.0310 C   0  0  1  0  0  0  0  0  0  0  0  0
  187.2430  178.6260  139.4560 C   0  0  2  0  0  3  0  0  0  0  0  0
  184.4500  178.8080  139.0030 C   0  0  2  0  0  3  0  0  0  0  0  0
  178.9310  175.9960  140.5580 C   0  0  0  0  0  1  0  0  0  0  0  0
  182.6760  177.8140  140.3920 C   0  0  1  0  0  3  0  0  0  0  0  0
  186.3550  178.1410  140.5930 C   0  0  0  0  0  2  0  0  0  0  0  0
  186.7310  178.1410  138.0930 C   0  0  0  0  0  2  0  0  0  0  0  0
  179.9170  177.1110  140.2850 C   0  0  2  0  0  3  0  0  0  0  0  0
  182.0600  179.7330  138.7500 C   0  0  2  0  0  3  0  0  0  0  0  0
  182.1920  178.8790  142.4490 C   0  0  0  0  0  0  0  0  0  0  0  0
  188.5480  178.1750  139.6510 O   0  0  0  0  0  1  0  0  0  0  0  0
  180.4990  177.5320  141.4960 O   0  0  0  0  0  0  0  0  0  0  0  0
  182.8340  180.8600  138.3980 O   0  0  0  0  0  0  0  0  0  0  0  0
  180.1690  180.6730  137.3590 C   0  0  0  0  0  2  0  0  0  0  0  0
  181.0310  181.9250  137.2460 C   0  0  0  0  0  2  0  0  0  0  0  0
  179.0730  178.4710  139.4100 S   0  0  0  0  0  0  0  0  0  0  0  0
  183.9540  177.9050  141.2390 C   0  0  1  0  0  3  0  0  0  0  0  0
  181.5230  178.4530  141.2030 C   0  0  2  0  0  3  0  0  0  0  0  0
  184.9530  178.7340  140.4540 C   0  0  2  0  0  3  0  0  0  0  0  0
  184.4470  178.7650  143.6060 C   0  0  0  0  0  1  0  0  0  0  0  0
  182.9520  178.5000  139.0410 C   0  0  1  0  0  3  0  0  0  0  0  0
  1 21  1  1  0  0  0
  1  6  1  0  0  0  0
  1 16  1  0  0  0  0
  5 27  1  0  0  0  0
  6 23  1  0  0  0  0
  8  7  1  6  0  0  0
  8 14  1  0  0  0  0
  8  2  1  0  0  0  0
  8 10  1  0  0  0  0
  9 18  1  1  0  0  0
  9 13  1  0  0  0  0
 10 28  1  0  0  0  0
 10 26  1  0  0  0  0
 12 25  1  0  0  0  0
 12 24  1  0  0  0  0
 14  9  1  0  0  0  0
 15 11  1  0  0  0  0
 15 19  1  0  0  0  0
 16 28  1  0  0  0  0
 17  5  1  0  0  0  0
 17  3  2  0  0  0  0
 20  4  1  0  0  0  0
 20 16  1  0  0  0  0
 22 21  1  0  0  0  0
 22  4  1  0  0  0  0
 23 15  1  0  0  0  0
 24  5  1  0  0  0  0
 25 19  1  0  0  0  0
 25 17  1  0  0  0  0
 26 13  1  0  0  0  0
 26 24  1  0  0  0  0
 28 12  1  0  0  0  0
M  END
>  <MODEL>
8

>  <REMARK>
 VINA RESULT:      -4.5      3.643      5.785
  Name = 
  0 active torsions:
  status: ('A' for Active; 'I' for Inactive)
                            x       y       z     vdW  Elec       q    Type
                         _______ _______ _______ _____ _____    ______ ____

>  <TORSDO>
F 0

$$$$
=
 OpenBabel11122412013D

 28 32  0  0  1  0  0  0  0  0999 V2000
  184.6940  175.0360  135.6990 C   0  0  2  0  0  3  0  0  0  0  0  0
  181.6750  178.6010  137.3110 O   0  0  0  0  0  1  0  0  0  0  0  0
  187.9430  177.7580  139.6460 O   0  0  0  0  0  0  0  0  0  0  0  0
  184.9310  173.3650  137.9690 C   0  0  0  0  0  2  0  0  0  0  0  0
  185.7110  178.4410  139.9170 N   0  0  0  0  0  0  0  0  0  0  0  0
  185.3470  176.0560  134.7620 C   0  0  0  0  0  2  0  0  0  0  0  0
  181.0110  176.3760  136.8390 C   0  0  0  0  0  1  0  0  0  0  0  0
  181.5300  177.3380  137.8910 C   0  0  1  0  0  0  0  0  0  0  0  0
  181.0500  177.7190  140.4030 C   0  0  2  0  0  3  0  0  0  0  0  0
  182.8880  176.8380  138.4310 C   0  0  2  0  0  3  0  0  0  0  0  0
  187.5250  178.9740  134.5950 C   0  0  0  0  0  1  0  0  0  0  0  0
  184.9290  178.0080  137.7080 C   0  0  1  0  0  3  0  0  0  0  0  0
  182.3560  178.4960  140.3200 C   0  0  0  0  0  2  0  0  0  0  0  0
  180.4790  177.4240  139.0090 C   0  0  0  0  0  2  0  0  0  0  0  0
  186.8070  178.0610  135.5650 C   0  0  2  0  0  3  0  0  0  0  0  0
  184.6800  175.4740  137.1810 C   0  0  2  0  0  3  0  0  0  0  0  0
  186.7920  177.9300  139.1660 C   0  0  0  0  0  0  0  0  0  0  0  0
  180.1180  178.4420  141.1450 O   0  0  0  0  0  1  0  0  0  0  0  0
  187.2170  178.3550  136.8800 O   0  0  0  0  0  0  0  0  0  0  0  0
  184.0720  174.4760  137.9740 O   0  0  0  0  0  0  0  0  0  0  0  0
  185.3750  173.6720  135.5500 C   0  0  0  0  0  2  0  0  0  0  0  0
  184.8760  172.6900  136.6030 C   0  0  0  0  0  2  0  0  0  0  0  0
  187.1200  176.3210  135.1120 S   0  0  0  0  0  0  0  0  0  0  0  0
  184.5280  178.5520  139.0870 C   0  0  1  0  0  3  0  0  0  0  0  0
  186.4240  177.6090  137.7730 C   0  0  2  0  0  3  0  0  0  0  0  0
  183.4230  177.6560  139.6160 C   0  0  2  0  0  3  0  0  0  0  0  0
  185.8200  178.9750  141.2640 C   0  0  0  0  0  1  0  0  0  0  0  0
  183.9810  176.8450  137.3620 C   0  0  1  0  0  3  0  0  0  0  0  0
  1  6  1  6  0  0  0
  1 16  1  0  0  0  0
  2  8  1  0  0  0  0
  4 20  1  0  0  0  0
  5 27  1  0  0  0  0
  6 23  1  0  0  0  0
  8  7  1  6  0  0  0
  8 10  1  0  0  0  0
  8 14  1  0  0  0  0
  9 18  1  1  0  0  0
 10 26  1  0  0  0  0
 11 15  1  0  0  0  0
 12 25  1  0  0  0  0
 12 24  1  0  0  0  0
 13  9  1  0  0  0  0
 14  9  1  0  0  0  0
 15 19  1  0  0  0  0
 16 28  1  0  0  0  0
 16 20  1  0  0  0  0
 17  3  2  0  0  0  0
 17  5  1  0  0  0  0
 19 25  1  0  0  0  0
 21  1  1  0  0  0  0
 21 22  1  0  0  0  0
 22  4  1  0  0  0  0
 23 15  1  0  0  0  0
 24 26  1  0  0  0  0
 24  5  1  0  0  0  0
 25 17  1  0  0  0  0
 26 13  1  0  0  0  0
 28 12  1  0  0  0  0
 28 10  1  0  0  0  0
M  END
>  <MODEL>
9

>  <REMARK>
 VINA RESULT:      -4.3      2.365      5.538
  Name = 
  0 active torsions:
  status: ('A' for Active; 'I' for Inactive)
                            x       y       z     vdW  Elec       q    Type
                         _______ _______ _______ _____ _____    ______ ____

>  <TORSDO>
F 0

$$$$
