=
 OpenBabel11122411303D

 37 44  0  0  1  0  0  0  0  0999 V2000
  187.8700  177.6250  146.2170 C   0  0  0  0  0  2  0  0  0  0  0  0
  190.5280  177.5550  142.7730 C   0  0  0  0  0  0  0  0  0  0  0  0
  186.5480  178.0090  141.7030 N   0  0  0  0  0  0  0  0  0  0  0  0
  187.4900  177.4830  147.6100 N   0  0  0  0  0  0  0  0  0  0  0  0
  184.3680  179.3050  144.3340 O   0  0  0  0  0  0  0  0  0  0  0  0
  188.8750  177.8930  140.9460 C   0  0  0  0  0  0  0  0  0  0  0  0
  185.9670  177.9130  142.9290 C   0  0  0  0  0  0  0  0  0  0  0  0
  186.1360  179.5060  147.5340 C   0  0  0  0  0  0  0  0  0  0  0  0
  187.8100  177.5940  141.8720 C   0  0  0  0  0  0  0  0  0  0  0  0
  184.5270  178.3470  143.2810 C   0  0  2  0  0  3  0  0  0  0  0  0
  188.5690  178.4100  139.7580 C   0  0  0  0  0  3  0  0  0  0  0  0
  187.1920  178.7500  148.0550 O   0  0  0  0  0  0  0  0  0  0  0  0
  188.0660  177.1850  143.1410 C   0  0  0  0  0  0  0  0  0  0  0  0
  190.7250  178.9340  143.3770 C   0  0  0  0  0  1  0  0  0  0  0  0
  184.7380  178.3430  139.9860 C   0  0  0  0  0  2  0  0  0  0  0  0
  187.1240  178.5780  139.3350 C   0  0  0  0  0  2  0  0  0  0  0  0
  189.4450  176.8000  143.5890 C   0  0  0  0  0  2  0  0  0  0  0  0
  185.0500  178.9520  146.6460 C   0  0  1  0  0  3  0  0  0  0  0  0
  185.4110  179.1670  145.2640 C   0  0  1  0  0  3  0  0  0  0  0  0
  186.1240  178.7610  140.5070 C   0  0  2  0  0  3  0  0  0  0  0  0
  186.8930  177.3760  143.8510 C   0  0  0  0  0  0  0  0  0  0  0  0
  190.1940  177.6960  141.3760 O   0  0  0  0  0  0  0  0  0  0  0  0
  183.6840  178.7400  142.0680 C   0  0  1  0  0  3  0  0  0  0  0  0
  191.8340  176.7990  142.8900 C   0  0  0  0  0  1  0  0  0  0  0  0
  185.3730  177.7760  145.7820 N   0  0  1  0  0  0  0  0  0  0  0  0
  186.0560  180.7170  147.8670 O   0  0  0  0  0  0  0  0  0  0  0  0
  186.6810  177.2370  145.3540 C   0  0  2  0  0  3  0  0  0  0  0  0
  183.8690  177.7640  141.0040 N   0  0  0  0  0  2  0  0  0  0  0  0
  181.8420  178.6760  143.7560 C   0  0  0  0  0  3  0  0  0  0  0  0
  182.2330  178.8420  142.4220 C   0  0  0  0  0  0  0  0  0  0  0  0
  181.2620  179.0910  141.4390 C   0  0  0  0  0  3  0  0  0  0  0  0
  178.9310  179.4260  140.7950 N   0  0  0  0  0  1  0  0  0  0  0  0
  179.5270  179.0090  143.1260 C   0  0  0  0  0  3  0  0  0  0  0  0
  179.9130  179.1740  141.7930 C   0  0  0  0  0  0  0  0  0  0  0  0
  180.4920  178.7610  144.1080 C   0  0  0  0  0  3  0  0  0  0  0  0
  189.8360  176.8980  147.3680 C   0  0  0  0  0  1  0  0  0  0  0  0
  188.6770  177.0590  148.3320 C   0  0  0  0  0  2  0  0  0  0  0  0
  1  4  1  0  0  0  0
  2 24  1  0  0  0  0
  2 14  1  0  0  0  0
  2 17  1  0  0  0  0
  3  9  1  0  0  0  0
  3  7  1  0  0  0  0
  4 12  1  0  0  0  0
  4 37  1  0  0  0  0
  6 22  1  0  0  0  0
  6  9  1  0  0  0  0
  7 21  2  0  0  0  0
  8 26  2  0  0  0  0
  8 12  1  0  0  0  0
  9 13  2  0  0  0  0
 10  7  1  6  0  0  0
 10  5  1  0  0  0  0
 11  6  2  0  0  0  0
 13 17  1  0  0  0  0
 13 21  1  0  0  0  0
 15 20  1  0  0  0  0
 15 28  1  0  0  0  0
 16 11  1  0  0  0  0
 18  8  1  1  0  0  0
 19  5  1  6  0  0  0
 19 25  1  0  0  0  0
 19 18  1  0  0  0  0
 20 16  1  6  0  0  0
 20  3  1  0  0  0  0
 21 27  1  0  0  0  0
 22  2  1  0  0  0  0
 23 30  1  1  0  0  0
 23 10  1  0  0  0  0
 25 18  1  0  0  0  0
 27 25  1  0  0  0  0
 27  1  1  0  0  0  0
 28 23  1  0  0  0  0
 29 35  1  0  0  0  0
 30 29  2  0  0  0  0
 31 34  2  0  0  0  0
 31 30  1  0  0  0  0
 32 34  1  0  0  0  0
 33 35  2  0  0  0  0
 34 33  1  0  0  0  0
 36 37  1  0  0  0  0
M  END
>  <MODEL>
1

>  <REMARK>
 VINA RESULT:     -10.5      0.000      0.000
  Name = 
  2 active torsions:
  status: ('A' for Active; 'I' for Inactive)
    1  A    between atoms: N_4  and  C_37
    2  A    between atoms: C_23  and  C_30
                            x       y       z     vdW  Elec       q    Type
                         _______ _______ _______ _____ _____    ______ ____

>  <TORSDO>
F 2

$$$$
=
 OpenBabel11122411303D

 37 44  0  0  1  0  0  0  0  0999 V2000
  187.7870  177.5000  146.0160 C   0  0  0  0  0  2  0  0  0  0  0  0
  190.7120  177.3810  142.7970 C   0  0  0  0  0  0  0  0  0  0  0  0
  186.8450  177.9550  141.4140 N   0  0  0  0  0  0  0  0  0  0  0  0
  187.2920  177.3580  147.3720 N   0  0  0  0  0  0  0  0  0  0  0  0
  184.4970  179.2930  143.8730 O   0  0  0  0  0  0  0  0  0  0  0  0
  189.2220  177.7800  140.8460 C   0  0  0  0  0  0  0  0  0  0  0  0
  186.1650  177.8660  142.5880 C   0  0  0  0  0  0  0  0  0  0  0  0
  186.0050  179.4190  147.2080 C   0  0  0  0  0  0  0  0  0  0  0  0
  188.0780  177.5030  141.6800 C   0  0  0  0  0  0  0  0  0  0  0  0
  184.7140  178.3380  142.8270 C   0  0  2  0  0  3  0  0  0  0  0  0
  189.0270  178.3130  139.6420 C   0  0  0  0  0  3  0  0  0  0  0  0
  186.9940  178.6300  147.8040 O   0  0  0  0  0  0  0  0  0  0  0  0
  188.2190  177.0780  142.9620 C   0  0  0  0  0  0  0  0  0  0  0  0
  190.8970  178.7490  143.4280 C   0  0  0  0  0  1  0  0  0  0  0  0
  185.1900  178.3530  139.5600 C   0  0  0  0  0  2  0  0  0  0  0  0
  187.6260  178.5260  139.1060 C   0  0  0  0  0  2  0  0  0  0  0  0
  189.5460  176.6500  143.5150 C   0  0  0  0  0  2  0  0  0  0  0  0
  184.9790  178.9030  146.2290 C   0  0  1  0  0  3  0  0  0  0  0  0
  185.4560  179.1180  144.8830 C   0  0  1  0  0  3  0  0  0  0  0  0
  186.5400  178.7280  140.1950 C   0  0  2  0  0  3  0  0  0  0  0  0
  186.9980  177.2970  143.5760 C   0  0  0  0  0  0  0  0  0  0  0  0
  190.4960  177.5420  141.3790 O   0  0  0  0  0  0  0  0  0  0  0  0
  183.9830  178.7640  141.5540 C   0  0  1  0  0  3  0  0  0  0  0  0
  191.9830  176.5870  143.0110 C   0  0  0  0  0  1  0  0  0  0  0  0
  185.3380  177.7240  145.3830 N   0  0  1  0  0  0  0  0  0  0  0  0
  185.9320  180.6290  147.5450 O   0  0  0  0  0  0  0  0  0  0  0  0
  186.6610  177.1520  145.0560 C   0  0  2  0  0  3  0  0  0  0  0  0
  184.2260  177.7910  140.5000 N   0  0  0  0  0  2  0  0  0  0  0  0
  181.6770  179.2580  140.7250 C   0  0  0  0  0  3  0  0  0  0  0  0
  182.5110  178.9040  141.7910 C   0  0  0  0  0  0  0  0  0  0  0  0
  181.9580  178.6950  143.0650 C   0  0  0  0  0  3  0  0  0  0  0  0
  180.0260  178.6260  144.5560 N   0  0  0  0  0  1  0  0  0  0  0  0
  179.7540  179.1920  142.1960 C   0  0  0  0  0  3  0  0  0  0  0  0
  180.5830  178.8390  143.2640 C   0  0  0  0  0  0  0  0  0  0  0  0
  180.3010  179.4010  140.9250 C   0  0  0  0  0  3  0  0  0  0  0  0
  189.6680  176.8500  147.3470 C   0  0  0  0  0  1  0  0  0  0  0  0
  188.4040  176.8950  148.1840 C   0  0  0  0  0  2  0  0  0  0  0  0
  1  4  1  0  0  0  0
  2 24  1  0  0  0  0
  2 14  1  0  0  0  0
  2 17  1  0  0  0  0
  3  9  1  0  0  0  0
  3  7  1  0  0  0  0
  4 12  1  0  0  0  0
  4 37  1  0  0  0  0
  6 22  1  0  0  0  0
  6  9  1  0  0  0  0
  7 21  2  0  0  0  0
  8 26  2  0  0  0  0
  8 12  1  0  0  0  0
  9 13  2  0  0  0  0
 10  7  1  6  0  0  0
 10  5  1  0  0  0  0
 11  6  2  0  0  0  0
 13 17  1  0  0  0  0
 13 21  1  0  0  0  0
 15 20  1  0  0  0  0
 15 28  1  0  0  0  0
 16 11  1  0  0  0  0
 18  8  1  1  0  0  0
 19  5  1  6  0  0  0
 19 25  1  0  0  0  0
 19 18  1  0  0  0  0
 20 16  1  6  0  0  0
 20  3  1  0  0  0  0
 21 27  1  0  0  0  0
 22  2  1  0  0  0  0
 23 30  1  1  0  0  0
 23 10  1  0  0  0  0
 25 18  1  0  0  0  0
 27 25  1  0  0  0  0
 27  1  1  0  0  0  0
 28 23  1  0  0  0  0
 29 35  2  0  0  0  0
 29 30  1  0  0  0  0
 30 31  2  0  0  0  0
 31 34  1  0  0  0  0
 33 34  2  0  0  0  0
 34 32  1  0  0  0  0
 35 33  1  0  0  0  0
 36 37  1  0  0  0  0
M  END
>  <MODEL>
2

>  <REMARK>
 VINA RESULT:      -9.6      0.811      1.143
  Name = 
  2 active torsions:
  status: ('A' for Active; 'I' for Inactive)
    1  A    between atoms: N_4  and  C_37
    2  A    between atoms: C_23  and  C_30
                            x       y       z     vdW  Elec       q    Type
                         _______ _______ _______ _____ _____    ______ ____

>  <TORSDO>
F 2

$$$$
=
 OpenBabel11122411303D

 37 44  0  0  1  0  0  0  0  0999 V2000
  187.0250  178.2320  139.2390 C   0  0  0  0  0  2  0  0  0  0  0  0
  189.8070  177.4250  142.4860 C   0  0  0  0  0  0  0  0  0  0  0  0
  185.9960  178.3350  143.8440 N   0  0  0  0  0  0  0  0  0  0  0  0
  186.6110  178.4860  137.8720 N   0  0  0  0  0  0  0  0  0  0  0  0
  183.3170  177.8290  141.4100 O   0  0  0  0  0  0  0  0  0  0  0  0
  188.2790  177.6690  144.4320 C   0  0  0  0  0  0  0  0  0  0  0  0
  185.3900  178.6130  142.6590 C   0  0  0  0  0  0  0  0  0  0  0  0
  184.6700  177.0320  138.1020 C   0  0  0  0  0  0  0  0  0  0  0  0
  187.3080  178.3030  143.5750 C   0  0  0  0  0  0  0  0  0  0  0  0
  183.8650  178.6850  142.4210 C   0  0  2  0  0  3  0  0  0  0  0  0
  187.9090  177.2900  145.6540 C   0  0  0  0  0  3  0  0  0  0  0  0
  185.8750  177.3890  137.4870 O   0  0  0  0  0  0  0  0  0  0  0  0
  187.5890  178.5960  142.2790 C   0  0  0  0  0  0  0  0  0  0  0  0
  189.4870  176.0570  141.9110 C   0  0  0  0  0  1  0  0  0  0  0  0
  184.3130  178.6340  145.6910 C   0  0  0  0  0  2  0  0  0  0  0  0
  186.5270  177.6170  146.1810 C   0  0  0  0  0  2  0  0  0  0  0  0
  188.9790  178.4950  141.7250 C   0  0  0  0  0  2  0  0  0  0  0  0
  183.9010  177.9230  139.0470 C   0  0  1  0  0  3  0  0  0  0  0  0
  184.2730  177.6060  140.4060 C   0  0  1  0  0  3  0  0  0  0  0  0
  185.4370  177.7740  145.0880 C   0  0  2  0  0  3  0  0  0  0  0  0
  186.3700  178.8040  141.6590 C   0  0  0  0  0  0  0  0  0  0  0  0
  189.5520  177.4110  143.9070 O   0  0  0  0  0  0  0  0  0  0  0  0
  183.0340  178.6020  143.7000 C   0  0  1  0  0  3  0  0  0  0  0  0
  191.2780  177.7000  142.2560 C   0  0  0  0  0  1  0  0  0  0  0  0
  184.6610  178.9280  139.8500 N   0  0  1  0  0  0  0  0  0  0  0  0
  184.1660  175.9170  137.8120 O   0  0  0  0  0  0  0  0  0  0  0  0
  186.1030  178.9990  140.1700 C   0  0  2  0  0  3  0  0  0  0  0  0
  183.6140  179.4660  144.7180 N   0  0  0  0  0  2  0  0  0  0  0  0
  180.6240  178.5950  144.3620 C   0  0  0  0  0  3  0  0  0  0  0  0
  181.6100  178.9900  143.4510 C   0  0  0  0  0  0  0  0  0  0  0  0
  181.2480  179.7340  142.3160 C   0  0  0  0  0  3  0  0  0  0  0  0
  179.5480  180.8310  140.9500 N   0  0  0  0  0  1  0  0  0  0  0  0
  178.9310  179.6820  143.0140 C   0  0  0  0  0  3  0  0  0  0  0  0
  179.9110  180.0780  142.1000 C   0  0  0  0  0  0  0  0  0  0  0  0
  179.2870  178.9400  144.1450 C   0  0  0  0  0  3  0  0  0  0  0  0
  189.0360  178.6350  137.9420 C   0  0  0  0  0  1  0  0  0  0  0  0
  187.8130  178.4850  137.0560 C   0  0  0  0  0  2  0  0  0  0  0  0
  1 27  1  0  0  0  0
  2 22  1  0  0  0  0
  3 20  1  0  0  0  0
  4  1  1  0  0  0  0
  6 11  2  0  0  0  0
  7  3  1  0  0  0  0
  9  3  1  0  0  0  0
  9  6  1  0  0  0  0
 10  5  1  6  0  0  0
 10  7  1  0  0  0  0
 10 23  1  0  0  0  0
 11 16  1  0  0  0  0
 12  4  1  0  0  0  0
 12  8  1  0  0  0  0
 13  9  2  0  0  0  0
 14  2  1  0  0  0  0
 17 13  1  0  0  0  0
 17  2  1  0  0  0  0
 18  8  1  6  0  0  0
 18 25  1  0  0  0  0
 18 19  1  0  0  0  0
 19  5  1  1  0  0  0
 20 15  1  1  0  0  0
 20 16  1  0  0  0  0
 21 13  1  0  0  0  0
 21  7  2  0  0  0  0
 22  6  1  0  0  0  0
 23 30  1  6  0  0  0
 23 28  1  0  0  0  0
 24  2  1  0  0  0  0
 25 27  1  0  0  0  0
 25 19  1  0  0  0  0
 26  8  2  0  0  0  0
 27 21  1  0  0  0  0
 28 15  1  0  0  0  0
 30 29  2  0  0  0  0
 31 30  1  0  0  0  0
 32 34  1  0  0  0  0
 33 35  2  0  0  0  0
 34 31  2  0  0  0  0
 34 33  1  0  0  0  0
 35 29  1  0  0  0  0
 37  4  1  0  0  0  0
 37 36  1  0  0  0  0
M  END
>  <MODEL>
3

>  <REMARK>
 VINA RESULT:      -9.0      2.191      5.469
  Name = 
  2 active torsions:
  status: ('A' for Active; 'I' for Inactive)
    1  A    between atoms: N_4  and  C_37
    2  A    between atoms: C_23  and  C_30
                            x       y       z     vdW  Elec       q    Type
                         _______ _______ _______ _____ _____    ______ ____

>  <TORSDO>
F 2

$$$$
=
 OpenBabel11122411303D

 37 44  0  0  1  0  0  0  0  0999 V2000
  188.6750  177.4150  139.2180 C   0  0  0  0  0  2  0  0  0  0  0  0
  188.0810  177.6560  143.5220 C   0  0  0  0  0  0  0  0  0  0  0  0
  184.6750  178.6710  141.3860 N   0  0  0  0  0  0  0  0  0  0  0  0
  189.4220  177.2750  137.9820 N   0  0  0  0  0  0  0  0  0  0  0  0
  184.5440  177.3870  137.9660 O   0  0  0  0  0  0  0  0  0  0  0  0
  185.6850  178.3160  143.5890 C   0  0  0  0  0  0  0  0  0  0  0  0
  185.1650  178.5910  140.1190 C   0  0  0  0  0  0  0  0  0  0  0  0
  187.7180  175.8250  137.0200 C   0  0  0  0  0  0  0  0  0  0  0  0
  185.7490  178.6440  142.1860 C   0  0  0  0  0  0  0  0  0  0  0  0
  184.3200  178.5090  138.8290 C   0  0  2  0  0  3  0  0  0  0  0  0
  184.4940  178.2530  144.1820 C   0  0  0  0  0  3  0  0  0  0  0  0
  189.0300  176.0750  137.4350 O   0  0  0  0  0  0  0  0  0  0  0  0
  186.9190  178.6010  141.4990 C   0  0  0  0  0  0  0  0  0  0  0  0
  188.0640  176.1680  143.2180 C   0  0  0  0  0  1  0  0  0  0  0  0
  182.2550  179.3500  141.2630 C   0  0  0  0  0  2  0  0  0  0  0  0
  183.2330  178.6280  143.4300 C   0  0  0  0  0  2  0  0  0  0  0  0
  188.2400  178.4380  142.1900 C   0  0  0  0  0  2  0  0  0  0  0  0
  186.6580  176.8870  136.8630 C   0  0  1  0  0  3  0  0  0  0  0  0
  185.8780  176.9630  138.0760 C   0  0  1  0  0  3  0  0  0  0  0  0
  183.3120  178.4270  141.8940 C   0  0  2  0  0  3  0  0  0  0  0  0
  186.5770  178.5680  140.1590 C   0  0  0  0  0  0  0  0  0  0  0  0
  186.8810  178.0030  144.2460 O   0  0  0  0  0  0  0  0  0  0  0  0
  182.8230  178.7200  139.0540 C   0  0  1  0  0  3  0  0  0  0  0  0
  189.2820  177.9450  144.3970 C   0  0  0  0  0  1  0  0  0  0  0  0
  186.7490  178.1100  137.7160 N   0  0  1  0  0  0  0  0  0  0  0  0
  187.4120  174.6450  136.7080 O   0  0  0  0  0  0  0  0  0  0  0  0
  187.5020  178.3470  138.9670 C   0  0  2  0  0  3  0  0  0  0  0  0
  182.6150  179.8530  139.9430 N   0  0  0  0  0  2  0  0  0  0  0  0
  182.0740  177.9210  136.8070 C   0  0  0  0  0  3  0  0  0  0  0  0
  182.1040  178.9460  137.7610 C   0  0  0  0  0  0  0  0  0  0  0  0
  181.4690  180.1680  137.4870 C   0  0  0  0  0  3  0  0  0  0  0  0
  180.1670  181.5960  135.9950 N   0  0  0  0  0  1  0  0  0  0  0  0
  180.7820  179.3310  135.3210 C   0  0  0  0  0  3  0  0  0  0  0  0
  180.8100  180.3580  136.2690 C   0  0  0  0  0  0  0  0  0  0  0  0
  181.4140  178.1130  135.5900 C   0  0  0  0  0  3  0  0  0  0  0  0
  190.9630  177.1280  139.8550 C   0  0  0  0  0  1  0  0  0  0  0  0
  190.8210  177.1280  138.3460 C   0  0  0  0  0  2  0  0  0  0  0  0
  2 22  1  0  0  0  0
  2 24  1  0  0  0  0
  3 20  1  0  0  0  0
  3  9  1  0  0  0  0
  4 37  1  0  0  0  0
  4  1  1  0  0  0  0
  6 11  2  0  0  0  0
  6 22  1  0  0  0  0
  7 21  2  0  0  0  0
  7  3  1  0  0  0  0
  8 12  1  0  0  0  0
  9  6  1  0  0  0  0
 10  5  1  1  0  0  0
 10 23  1  0  0  0  0
 10  7  1  0  0  0  0
 12  4  1  0  0  0  0
 13  9  2  0  0  0  0
 13 17  1  0  0  0  0
 14  2  1  0  0  0  0
 16 11  1  0  0  0  0
 17  2  1  0  0  0  0
 18  8  1  1  0  0  0
 18 25  1  0  0  0  0
 18 19  1  0  0  0  0
 19  5  1  6  0  0  0
 20 15  1  6  0  0  0
 20 16  1  0  0  0  0
 21 13  1  0  0  0  0
 23 30  1  6  0  0  0
 23 28  1  0  0  0  0
 25 19  1  0  0  0  0
 25 27  1  0  0  0  0
 26  8  2  0  0  0  0
 27  1  1  0  0  0  0
 27 21  1  0  0  0  0
 28 15  1  0  0  0  0
 29 30  1  0  0  0  0
 31 30  2  0  0  0  0
 32 34  1  0  0  0  0
 33 35  1  0  0  0  0
 33 34  2  0  0  0  0
 34 31  1  0  0  0  0
 35 29  2  0  0  0  0
 37 36  1  0  0  0  0
M  END
>  <MODEL>
4

>  <REMARK>
 VINA RESULT:      -8.1      3.259      6.489
  Name = 
  2 active torsions:
  status: ('A' for Active; 'I' for Inactive)
    1  A    between atoms: N_4  and  C_37
    2  A    between atoms: C_23  and  C_30
                            x       y       z     vdW  Elec       q    Type
                         _______ _______ _______ _____ _____    ______ ____

>  <TORSDO>
F 2

$$$$
=
 OpenBabel11122411303D

 37 44  0  0  1  0  0  0  0  0999 V2000
  189.8770  177.1040  138.8930 C   0  0  0  0  0  2  0  0  0  0  0  0
  190.1970  177.0200  143.2310 C   0  0  0  0  0  0  0  0  0  0  0  0
  186.4720  178.2980  141.9350 N   0  0  0  0  0  0  0  0  0  0  0  0
  190.3450  177.0410  137.5210 N   0  0  0  0  0  0  0  0  0  0  0  0
  185.5800  177.2940  138.5360 O   0  0  0  0  0  0  0  0  0  0  0  0
  187.8990  177.7410  143.8470 C   0  0  0  0  0  0  0  0  0  0  0  0
  186.6850  178.3050  140.5920 C   0  0  0  0  0  0  0  0  0  0  0  0
  188.4160  175.7210  136.8360 C   0  0  0  0  0  0  0  0  0  0  0  0
  187.6860  178.1780  142.4890 C   0  0  0  0  0  0  0  0  0  0  0  0
  185.5890  178.3500  139.5050 C   0  0  2  0  0  3  0  0  0  0  0  0
  186.8550  177.6660  144.6700 C   0  0  0  0  0  3  0  0  0  0  0  0
  189.7950  175.9000  136.9840 O   0  0  0  0  0  0  0  0  0  0  0  0
  188.6850  178.1550  141.5700 C   0  0  0  0  0  0  0  0  0  0  0  0
  190.0510  175.5620  142.8320 C   0  0  0  0  0  1  0  0  0  0  0  0
  184.1110  179.0540  142.3720 C   0  0  0  0  0  2  0  0  0  0  0  0
  185.4830  178.1350  144.2280 C   0  0  0  0  0  2  0  0  0  0  0  0
  190.1120  177.9000  141.9560 C   0  0  0  0  0  2  0  0  0  0  0  0
  187.3950  176.8220  136.9810 C   0  0  1  0  0  3  0  0  0  0  0  0
  186.8870  176.8240  138.3340 C   0  0  1  0  0  3  0  0  0  0  0  0
  185.2340  178.0540  142.6990 C   0  0  2  0  0  3  0  0  0  0  0  0
  188.0720  178.2380  140.3320 C   0  0  0  0  0  0  0  0  0  0  0  0
  189.1900  177.3430  144.2140 O   0  0  0  0  0  0  0  0  0  0  0  0
  184.1820  178.5850  140.0530 C   0  0  1  0  0  3  0  0  0  0  0  0
  191.5650  177.2040  143.8540 C   0  0  0  0  0  1  0  0  0  0  0  0
  187.7150  177.9710  137.8820 N   0  0  1  0  0  0  0  0  0  0  0  0
  188.0000  174.5790  136.5110 O   0  0  0  0  0  0  0  0  0  0  0  0
  188.7200  178.0860  138.9600 C   0  0  2  0  0  3  0  0  0  0  0  0
  184.2130  179.6500  141.0450 N   0  0  0  0  0  2  0  0  0  0  0  0
  182.8840  177.9610  138.0100 C   0  0  0  0  0  3  0  0  0  0  0  0
  183.2210  178.9330  138.9590 C   0  0  0  0  0  0  0  0  0  0  0  0
  182.6620  180.2180  138.8650 C   0  0  0  0  0  3  0  0  0  0  0  0
  181.2090  181.8230  137.7380 N   0  0  0  0  0  1  0  0  0  0  0  0
  181.4400  179.5470  136.8860 C   0  0  0  0  0  3  0  0  0  0  0  0
  181.7740  180.5210  137.8300 C   0  0  0  0  0  0  0  0  0  0  0  0
  181.9950  178.2660  136.9760 C   0  0  0  0  0  3  0  0  0  0  0  0
  192.2480  176.8130  139.0140 C   0  0  0  0  0  1  0  0  0  0  0  0
  191.7810  176.8260  137.5710 C   0  0  0  0  0  2  0  0  0  0  0  0
  1 27  1  0  0  0  0
  2 24  1  0  0  0  0
  2 22  1  0  0  0  0
  3  9  1  0  0  0  0
  3 20  1  0  0  0  0
  4 37  1  0  0  0  0
  4  1  1  0  0  0  0
  6 22  1  0  0  0  0
  6 11  2  0  0  0  0
  7  3  1  0  0  0  0
  8 12  1  0  0  0  0
  9  6  1  0  0  0  0
 10  5  1  1  0  0  0
 10 23  1  0  0  0  0
 10  7  1  0  0  0  0
 12  4  1  0  0  0  0
 13 17  1  0  0  0  0
 13  9  2  0  0  0  0
 14  2  1  0  0  0  0
 16 11  1  0  0  0  0
 17  2  1  0  0  0  0
 18  8  1  1  0  0  0
 18 25  1  0  0  0  0
 18 19  1  0  0  0  0
 19  5  1  6  0  0  0
 20 15  1  6  0  0  0
 20 16  1  0  0  0  0
 21  7  2  0  0  0  0
 21 13  1  0  0  0  0
 23 30  1  6  0  0  0
 23 28  1  0  0  0  0
 25 19  1  0  0  0  0
 25 27  1  0  0  0  0
 26  8  2  0  0  0  0
 27 21  1  0  0  0  0
 28 15  1  0  0  0  0
 29 30  1  0  0  0  0
 31 30  2  0  0  0  0
 32 34  1  0  0  0  0
 33 35  1  0  0  0  0
 33 34  2  0  0  0  0
 34 31  1  0  0  0  0
 35 29  2  0  0  0  0
 37 36  1  0  0  0  0
M  END
>  <MODEL>
5

>  <REMARK>
 VINA RESULT:      -8.1      2.965      6.304
  Name = 
  2 active torsions:
  status: ('A' for Active; 'I' for Inactive)
    1  A    between atoms: N_4  and  C_37
    2  A    between atoms: C_23  and  C_30
                            x       y       z     vdW  Elec       q    Type
                         _______ _______ _______ _____ _____    ______ ____

>  <TORSDO>
F 2

$$$$
=
 OpenBabel11122411303D

 37 44  0  0  1  0  0  0  0  0999 V2000
  183.5990  178.6570  138.1980 C   0  0  0  0  0  2  0  0  0  0  0  0
  187.2030  177.5190  136.0420 C   0  0  0  0  0  0  0  0  0  0  0  0
  187.8230  177.8270  140.1310 N   0  0  0  0  0  0  0  0  0  0  0  0
  182.2330  179.1190  138.3590 N   0  0  0  0  0  0  0  0  0  0  0  0
  184.8150  177.5400  142.1860 O   0  0  0  0  0  0  0  0  0  0  0  0
  188.7820  177.2680  137.9470 C   0  0  0  0  0  0  0  0  0  0  0  0
  186.5950  178.2620  140.5180 C   0  0  0  0  0  0  0  0  0  0  0  0
  181.7980  177.4830  140.1100 C   0  0  0  0  0  0  0  0  0  0  0  0
  187.8460  177.9600  138.7980 C   0  0  0  0  0  0  0  0  0  0  0  0
  186.0440  178.2410  141.9610 C   0  0  2  0  0  3  0  0  0  0  0  0
  189.8170  176.6420  138.5030 C   0  0  0  0  0  3  0  0  0  0  0  0
  181.5260  178.0510  138.8610 O   0  0  0  0  0  0  0  0  0  0  0  0
  186.7070  178.5080  138.3030 C   0  0  0  0  0  0  0  0  0  0  0  0
  186.3610  176.2560  136.0690 C   0  0  0  0  0  1  0  0  0  0  0  0
  189.2820  177.6340  142.1730 C   0  0  0  0  0  2  0  0  0  0  0  0
  190.0750  176.7440  139.9930 C   0  0  0  0  0  2  0  0  0  0  0  0
  186.4610  178.6330  136.8290 C   0  0  0  0  0  2  0  0  0  0  0  0
  182.6820  178.1150  141.1580 C   0  0  1  0  0  3  0  0  0  0  0  0
  184.0210  177.5890  141.0280 C   0  0  1  0  0  3  0  0  0  0  0  0
  188.8090  177.0010  140.8530 C   0  0  2  0  0  3  0  0  0  0  0  0
  185.8770  178.7180  139.3900 C   0  0  0  0  0  0  0  0  0  0  0  0
  188.5130  177.2240  136.5730 O   0  0  0  0  0  0  0  0  0  0  0  0
  187.0810  177.8540  143.0150 C   0  0  1  0  0  3  0  0  0  0  0  0
  187.3470  177.9600  134.6010 C   0  0  0  0  0  1  0  0  0  0  0  0
  183.7820  179.0190  140.7040 N   0  0  1  0  0  0  0  0  0  0  0  0
  181.2300  176.3990  140.4030 O   0  0  0  0  0  0  0  0  0  0  0  0
  184.4160  179.1570  139.3760 C   0  0  2  0  0  3  0  0  0  0  0  0
  188.3260  178.5640  142.7620 N   0  0  0  0  0  2  0  0  0  0  0  0
  185.3300  178.7350  144.5650 C   0  0  0  0  0  3  0  0  0  0  0  0
  186.5920  178.1540  144.3970 C   0  0  0  0  0  0  0  0  0  0  0  0
  187.3810  177.8700  145.5240 C   0  0  0  0  0  3  0  0  0  0  0  0
  187.7070  177.8770  147.9430 N   0  0  0  0  0  1  0  0  0  0  0  0
  185.6450  178.7450  146.9660 C   0  0  0  0  0  3  0  0  0  0  0  0
  186.9060  178.1660  146.8040 C   0  0  0  0  0  0  0  0  0  0  0  0
  184.8560  179.0300  145.8470 C   0  0  0  0  0  3  0  0  0  0  0  0
  181.9170  178.1520  136.1530 C   0  0  0  0  0  1  0  0  0  0  0  0
  181.7100  179.3730  137.0280 C   0  0  0  0  0  2  0  0  0  0  0  0
  1  4  1  0  0  0  0
  1 27  1  0  0  0  0
  2 14  1  0  0  0  0
  2 22  1  0  0  0  0
  2 17  1  0  0  0  0
  3  7  1  0  0  0  0
  3 20  1  0  0  0  0
  4 12  1  0  0  0  0
  6 11  2  0  0  0  0
  6  9  1  0  0  0  0
  8 26  2  0  0  0  0
  9  3  1  0  0  0  0
 10  7  1  6  0  0  0
 10  5  1  0  0  0  0
 10 23  1  0  0  0  0
 11 16  1  0  0  0  0
 12  8  1  0  0  0  0
 13  9  2  0  0  0  0
 13 21  1  0  0  0  0
 15 28  1  0  0  0  0
 17 13  1  0  0  0  0
 18  8  1  6  0  0  0
 19 18  1  0  0  0  0
 19  5  1  1  0  0  0
 20 16  1  6  0  0  0
 20 15  1  0  0  0  0
 21  7  2  0  0  0  0
 22  6  1  0  0  0  0
 23 30  1  1  0  0  0
 24  2  1  0  0  0  0
 25 19  1  0  0  0  0
 25 18  1  0  0  0  0
 27 21  1  0  0  0  0
 27 25  1  0  0  0  0
 28 23  1  0  0  0  0
 29 35  1  0  0  0  0
 30 29  2  0  0  0  0
 30 31  1  0  0  0  0
 31 34  2  0  0  0  0
 34 33  1  0  0  0  0
 34 32  1  0  0  0  0
 35 33  2  0  0  0  0
 36 37  1  0  0  0  0
 37  4  1  0  0  0  0
M  END
>  <MODEL>
6

>  <REMARK>
 VINA RESULT:      -8.0      2.715      7.095
  Name = 
  2 active torsions:
  status: ('A' for Active; 'I' for Inactive)
    1  A    between atoms: N_4  and  C_37
    2  A    between atoms: C_23  and  C_30
                            x       y       z     vdW  Elec       q    Type
                         _______ _______ _______ _____ _____    ______ ____

>  <TORSDO>
F 2

$$$$
=
 OpenBabel11122411303D

 37 44  0  0  1  0  0  0  0  0999 V2000
  191.2880  176.2990  146.5490 C   0  0  0  0  0  2  0  0  0  0  0  0
  187.4920  177.7560  148.0980 C   0  0  0  0  0  0  0  0  0  0  0  0
  187.7310  178.0180  143.9660 N   0  0  0  0  0  0  0  0  0  0  0  0
  192.6590  175.8280  146.6100 N   0  0  0  0  0  0  0  0  0  0  0  0
  190.1800  175.7980  142.4070 O   0  0  0  0  0  0  0  0  0  0  0  0
  186.3540  178.3420  145.9660 C   0  0  0  0  0  0  0  0  0  0  0  0
  189.0080  177.5890  143.7820 C   0  0  0  0  0  0  0  0  0  0  0  0
  192.2330  174.1160  144.9300 C   0  0  0  0  0  0  0  0  0  0  0  0
  187.6190  178.2530  145.2800 C   0  0  0  0  0  0  0  0  0  0  0  0
  189.6160  177.1150  142.4430 C   0  0  2  0  0  3  0  0  0  0  0  0
  185.2360  178.4210  145.2470 C   0  0  0  0  0  3  0  0  0  0  0  0
  192.6270  174.5110  146.2130 O   0  0  0  0  0  0  0  0  0  0  0  0
  188.7790  178.0440  145.9550 C   0  0  0  0  0  0  0  0  0  0  0  0
  187.3850  176.2440  148.1900 C   0  0  0  0  0  1  0  0  0  0  0  0
  186.7410  178.5660  141.7180 C   0  0  0  0  0  2  0  0  0  0  0  0
  185.2920  178.5280  143.7360 C   0  0  0  0  0  2  0  0  0  0  0  0
  188.8540  178.1240  147.4510 C   0  0  0  0  0  2  0  0  0  0  0  0
  192.0630  175.0580  143.7640 C   0  0  1  0  0  3  0  0  0  0  0  0
  190.6790  175.4600  143.6750 C   0  0  1  0  0  3  0  0  0  0  0  0
  186.5520  177.8940  143.0890 C   0  0  2  0  0  3  0  0  0  0  0  0
  189.7000  177.6160  145.0140 C   0  0  0  0  0  0  0  0  0  0  0  0
  186.3570  178.2650  147.3650 O   0  0  0  0  0  0  0  0  0  0  0  0
  188.7070  177.3410  141.2360 C   0  0  1  0  0  3  0  0  0  0  0  0
  187.4580  178.3180  149.5030 C   0  0  0  0  0  1  0  0  0  0  0  0
  191.6940  176.4780  144.0490 N   0  0  1  0  0  0  0  0  0  0  0  0
  192.0560  172.8880  144.7180 O   0  0  0  0  0  0  0  0  0  0  0  0
  191.1070  177.0860  145.2620 C   0  0  2  0  0  3  0  0  0  0  0  0
  188.1330  178.6770  141.2970 N   0  0  0  0  0  2  0  0  0  0  0  0
  188.7410  177.1070  138.7470 C   0  0  0  0  0  3  0  0  0  0  0  0
  189.4540  177.1640  139.9500 C   0  0  0  0  0  0  0  0  0  0  0  0
  190.8530  177.0450  139.9350 C   0  0  0  0  0  3  0  0  0  0  0  0
  192.9460  176.7530  138.7110 N   0  0  0  0  0  1  0  0  0  0  0  0
  190.8120  176.8170  137.5250 C   0  0  0  0  0  3  0  0  0  0  0  0
  191.5290  176.8720  138.7240 C   0  0  0  0  0  0  0  0  0  0  0  0
  189.4190  176.9350  137.5360 C   0  0  0  0  0  3  0  0  0  0  0  0
  192.3450  176.9610  148.7360 C   0  0  0  0  0  1  0  0  0  0  0  0
  193.0470  175.8300  148.0090 C   0  0  0  0  0  2  0  0  0  0  0  0
  1  4  1  0  0  0  0
  2 14  1  0  0  0  0
  2 24  1  0  0  0  0
  3  9  1  0  0  0  0
  4 37  1  0  0  0  0
  6 22  1  0  0  0  0
  7  3  1  0  0  0  0
  7 21  2  0  0  0  0
  8 12  1  0  0  0  0
  9 13  2  0  0  0  0
  9  6  1  0  0  0  0
 10  5  1  1  0  0  0
 10  7  1  0  0  0  0
 11  6  2  0  0  0  0
 12  4  1  0  0  0  0
 13 17  1  0  0  0  0
 16 11  1  0  0  0  0
 17  2  1  0  0  0  0
 18 25  1  0  0  0  0
 18  8  1  1  0  0  0
 19  5  1  6  0  0  0
 19 18  1  0  0  0  0
 19 25  1  0  0  0  0
 20 15  1  6  0  0  0
 20 16  1  0  0  0  0
 20  3  1  0  0  0  0
 21 27  1  0  0  0  0
 21 13  1  0  0  0  0
 22  2  1  0  0  0  0
 23 30  1  6  0  0  0
 23 28  1  0  0  0  0
 23 10  1  0  0  0  0
 25 27  1  0  0  0  0
 26  8  2  0  0  0  0
 27  1  1  0  0  0  0
 28 15  1  0  0  0  0
 29 30  1  0  0  0  0
 31 30  2  0  0  0  0
 32 34  1  0  0  0  0
 33 35  1  0  0  0  0
 33 34  2  0  0  0  0
 34 31  1  0  0  0  0
 35 29  2  0  0  0  0
 37 36  1  0  0  0  0
M  END
>  <MODEL>
7

>  <REMARK>
 VINA RESULT:      -8.0      3.048      7.093
  Name = 
  2 active torsions:
  status: ('A' for Active; 'I' for Inactive)
    1  A    between atoms: N_4  and  C_37
    2  A    between atoms: C_23  and  C_30
                            x       y       z     vdW  Elec       q    Type
                         _______ _______ _______ _____ _____    ______ ____

>  <TORSDO>
F 2

$$$$
=
 OpenBabel11122411303D

 37 44  0  0  1  0  0  0  0  0999 V2000
  185.1260  178.9360  142.2560 C   0  0  0  0  0  2  0  0  0  0  0  0
  182.5390  178.1100  138.8560 C   0  0  0  0  0  0  0  0  0  0  0  0
  186.5480  177.5030  137.9900 N   0  0  0  0  0  0  0  0  0  0  0  0
  185.4740  179.4200  143.5790 N   0  0  0  0  0  0  0  0  0  0  0  0
  188.6960  176.9320  140.8900 O   0  0  0  0  0  0  0  0  0  0  0  0
  184.2350  177.3790  137.1920 C   0  0  0  0  0  0  0  0  0  0  0  0
  187.1010  177.9060  139.1650 C   0  0  0  0  0  0  0  0  0  0  0  0
  186.8660  177.4700  144.0160 C   0  0  0  0  0  0  0  0  0  0  0  0
  185.2750  177.9180  138.0340 C   0  0  0  0  0  0  0  0  0  0  0  0
  188.5420  177.6030  139.6340 C   0  0  2  0  0  3  0  0  0  0  0  0
  184.5760  176.5970  136.1680 C   0  0  0  0  0  3  0  0  0  0  0  0
  185.7860  178.3050  144.3210 O   0  0  0  0  0  0  0  0  0  0  0  0
  184.9850  178.6150  139.1620 C   0  0  0  0  0  0  0  0  0  0  0  0
  182.3560  176.9140  139.7730 C   0  0  0  0  0  1  0  0  0  0  0  0
  188.3990  176.8060  136.4340 C   0  0  0  0  0  2  0  0  0  0  0  0
  186.0320  176.3650  135.8220 C   0  0  0  0  0  2  0  0  0  0  0  0
  183.5910  179.0650  139.4810 C   0  0  0  0  0  2  0  0  0  0  0  0
  187.9600  177.8180  143.0370 C   0  0  1  0  0  3  0  0  0  0  0  0
  187.6320  177.2670  141.7430 C   0  0  1  0  0  3  0  0  0  0  0  0
  187.0110  176.4940  137.0180 C   0  0  2  0  0  3  0  0  0  0  0  0
  186.1470  178.6280  139.9150 C   0  0  0  0  0  0  0  0  0  0  0  0
  182.9050  177.6440  137.5400 O   0  0  0  0  0  0  0  0  0  0  0  0
  189.4170  176.9480  138.5660 C   0  0  1  0  0  3  0  0  0  0  0  0
  181.2170  178.8420  138.7660 C   0  0  0  0  0  1  0  0  0  0  0  0
  187.6340  178.7430  141.9090 N   0  0  1  0  0  0  0  0  0  0  0  0
  186.9620  176.3780  144.6340 O   0  0  0  0  0  0  0  0  0  0  0  0
  186.3250  179.1310  141.3430 C   0  0  2  0  0  3  0  0  0  0  0  0
  189.2360  177.6340  137.2950 N   0  0  0  0  0  2  0  0  0  0  0  0
  191.2260  177.5020  140.1980 C   0  0  0  0  0  3  0  0  0  0  0  0
  190.8620  176.9690  138.9570 C   0  0  0  0  0  0  0  0  0  0  0  0
  191.8540  176.4710  138.0970 C   0  0  0  0  0  3  0  0  0  0  0  0
  194.1990  176.0020  137.6070 N   0  0  0  0  0  1  0  0  0  0  0  0
  193.5550  177.0400  139.7210 C   0  0  0  0  0  3  0  0  0  0  0  0
  193.1970  176.5070  138.4800 C   0  0  0  0  0  0  0  0  0  0  0  0
  192.5710  177.5370  140.5810 C   0  0  0  0  0  3  0  0  0  0  0  0
  183.1160  179.0020  143.9940 C   0  0  0  0  0  1  0  0  0  0  0  0
  184.2650  179.9790  144.1580 C   0  0  0  0  0  2  0  0  0  0  0  0
  1  4  1  0  0  0  0
  2 17  1  0  0  0  0
  2 14  1  0  0  0  0
  3  9  1  0  0  0  0
  3  7  1  0  0  0  0
  4 37  1  0  0  0  0
  4 12  1  0  0  0  0
  6 22  1  0  0  0  0
  6  9  1  0  0  0  0
  7 21  2  0  0  0  0
  8 12  1  0  0  0  0
  8 26  2  0  0  0  0
  9 13  2  0  0  0  0
 10  7  1  6  0  0  0
 10  5  1  0  0  0  0
 11  6  2  0  0  0  0
 13 17  1  0  0  0  0
 13 21  1  0  0  0  0
 15 20  1  0  0  0  0
 15 28  1  0  0  0  0
 16 11  1  0  0  0  0
 18  8  1  1  0  0  0
 19  5  1  6  0  0  0
 19 25  1  0  0  0  0
 19 18  1  0  0  0  0
 20 16  1  6  0  0  0
 20  3  1  0  0  0  0
 21 27  1  0  0  0  0
 22  2  1  0  0  0  0
 23 30  1  1  0  0  0
 23 10  1  0  0  0  0
 24  2  1  0  0  0  0
 25 18  1  0  0  0  0
 27 25  1  0  0  0  0
 27  1  1  0  0  0  0
 28 23  1  0  0  0  0
 29 35  1  0  0  0  0
 30 29  2  0  0  0  0
 31 34  2  0  0  0  0
 31 30  1  0  0  0  0
 32 34  1  0  0  0  0
 33 35  2  0  0  0  0
 34 33  1  0  0  0  0
 36 37  1  0  0  0  0
M  END
>  <MODEL>
8

>  <REMARK>
 VINA RESULT:      -8.0      3.221      7.811
  Name = 
  2 active torsions:
  status: ('A' for Active; 'I' for Inactive)
    1  A    between atoms: N_4  and  C_37
    2  A    between atoms: C_23  and  C_30
                            x       y       z     vdW  Elec       q    Type
                         _______ _______ _______ _____ _____    ______ ____

>  <TORSDO>
F 2

$$$$
=
 OpenBabel11122411303D

 37 44  0  0  1  0  0  0  0  0999 V2000
  187.8260  177.7650  139.0080 C   0  0  0  0  0  2  0  0  0  0  0  0
  189.0240  177.6100  143.1880 C   0  0  0  0  0  0  0  0  0  0  0  0
  185.0250  178.5980  142.7140 N   0  0  0  0  0  0  0  0  0  0  0  0
  188.0110  177.7730  137.5690 N   0  0  0  0  0  0  0  0  0  0  0  0
  183.5450  177.5990  139.5250 O   0  0  0  0  0  0  0  0  0  0  0  0
  186.8490  178.1200  144.2780 C   0  0  0  0  0  0  0  0  0  0  0  0
  184.9610  178.6530  141.3560 C   0  0  0  0  0  0  0  0  0  0  0  0
  186.0920  176.3110  137.2320 C   0  0  0  0  0  0  0  0  0  0  0  0
  186.3310  178.5670  143.0090 C   0  0  0  0  0  0  0  0  0  0  0  0
  183.6670  178.6300  140.5130 C   0  0  2  0  0  3  0  0  0  0  0  0
  186.0020  177.9380  145.2900 C   0  0  0  0  0  3  0  0  0  0  0  0
  187.4550  176.6020  137.1070 O   0  0  0  0  0  0  0  0  0  0  0  0
  187.1230  178.6500  141.9090 C   0  0  0  0  0  0  0  0  0  0  0  0
  188.9150  176.1540  142.7690 C   0  0  0  0  0  1  0  0  0  0  0  0
  182.7500  179.1410  143.6430 C   0  0  0  0  0  2  0  0  0  0  0  0
  184.5370  178.2990  145.1500 C   0  0  0  0  0  2  0  0  0  0  0  0
  188.6140  178.5090  141.9910 C   0  0  0  0  0  2  0  0  0  0  0  0
  185.0380  177.3180  137.6220 C   0  0  1  0  0  3  0  0  0  0  0  0
  184.8160  177.2460  139.0470 C   0  0  1  0  0  3  0  0  0  0  0  0
  183.9900  178.2330  143.6990 C   0  0  2  0  0  3  0  0  0  0  0  0
  186.2670  178.7100  140.8230 C   0  0  0  0  0  0  0  0  0  0  0  0
  188.2150  177.8240  144.3640 O   0  0  0  0  0  0  0  0  0  0  0  0
  182.3860  178.7330  141.3410 C   0  0  1  0  0  3  0  0  0  0  0  0
  190.4710  177.8950  143.5310 C   0  0  0  0  0  1  0  0  0  0  0  0
  185.4440  178.4690  138.4840 N   0  0  1  0  0  0  0  0  0  0  0  0
  185.7090  175.1450  136.9520 O   0  0  0  0  0  0  0  0  0  0  0  0
  186.6340  178.6440  139.3440 C   0  0  2  0  0  3  0  0  0  0  0  0
  182.5340  179.7730  142.3470 N   0  0  0  0  0  2  0  0  0  0  0  0
  180.0590  178.2190  140.5860 C   0  0  0  0  0  3  0  0  0  0  0  0
  181.2000  179.0230  140.4750 C   0  0  0  0  0  0  0  0  0  0  0  0
  181.2170  180.0790  139.5500 C   0  0  0  0  0  3  0  0  0  0  0  0
  180.1210  181.3970  137.8120 N   0  0  0  0  0  1  0  0  0  0  0  0
  178.9640  179.5220  138.8630 C   0  0  0  0  0  3  0  0  0  0  0  0
  180.1010  180.3260  138.7470 C   0  0  0  0  0  0  0  0  0  0  0  0
  178.9420  178.4680  139.7830 C   0  0  0  0  0  3  0  0  0  0  0  0
  190.1730  177.4630  138.6320 C   0  0  0  0  0  1  0  0  0  0  0  0
  189.4390  177.6790  137.3230 C   0  0  0  0  0  2  0  0  0  0  0  0
  1 27  1  0  0  0  0
  2 24  1  0  0  0  0
  2 22  1  0  0  0  0
  3  9  1  0  0  0  0
  3 20  1  0  0  0  0
  4  1  1  0  0  0  0
  6 22  1  0  0  0  0
  6 11  2  0  0  0  0
  7  3  1  0  0  0  0
  9  6  1  0  0  0  0
 10  5  1  1  0  0  0
 10 23  1  0  0  0  0
 10  7  1  0  0  0  0
 12  8  1  0  0  0  0
 12  4  1  0  0  0  0
 13 17  1  0  0  0  0
 13  9  2  0  0  0  0
 14  2  1  0  0  0  0
 16 11  1  0  0  0  0
 17  2  1  0  0  0  0
 18  8  1  1  0  0  0
 18 25  1  0  0  0  0
 18 19  1  0  0  0  0
 19  5  1  6  0  0  0
 20 15  1  1  0  0  0
 20 16  1  0  0  0  0
 21  7  2  0  0  0  0
 21 13  1  0  0  0  0
 23 30  1  6  0  0  0
 23 28  1  0  0  0  0
 25 19  1  0  0  0  0
 25 27  1  0  0  0  0
 26  8  2  0  0  0  0
 27 21  1  0  0  0  0
 28 15  1  0  0  0  0
 30 29  1  0  0  0  0
 31 30  2  0  0  0  0
 32 34  1  0  0  0  0
 33 35  1  0  0  0  0
 34 33  2  0  0  0  0
 34 31  1  0  0  0  0
 35 29  2  0  0  0  0
 37  4  1  0  0  0  0
 37 36  1  0  0  0  0
M  END
>  <MODEL>
9

>  <REMARK>
 VINA RESULT:      -7.8      2.595      5.894
  Name = 
  2 active torsions:
  status: ('A' for Active; 'I' for Inactive)
    1  A    between atoms: N_4  and  C_37
    2  A    between atoms: C_23  and  C_30
                            x       y       z     vdW  Elec       q    Type
                         _______ _______ _______ _____ _____    ______ ____

>  <TORSDO>
F 2

$$$$
