=
 OpenBabel11122412223D

 34 41  0  0  1  0  0  0  0  0999 V2000
  185.4310  178.2570  145.0750 C   0  0  0  0  0  0  0  0  0  0  0  0
  183.0680  179.0040  144.7080 C   0  0  0  0  0  2  0  0  0  0  0  0
  191.8020  177.2950  143.0240 C   0  0  2  0  0  3  0  0  0  0  0  0
  187.9020  178.0350  145.4170 C   0  0  1  0  0  3  0  0  0  0  0  0
  189.2290  177.5660  143.2320 C   0  0  2  0  0  3  0  0  0  0  0  0
  190.8370  177.9650  141.4100 C   0  0  0  0  0  2  0  0  0  0  0  0
  191.9020  177.0770  141.6440 O   0  0  0  0  0  0  0  0  0  0  0  0
  191.3320  176.3630  145.2160 C   0  0  0  0  0  3  0  0  0  0  0  0
  184.3680  178.1710  142.7650 C   0  0  2  0  0  3  0  0  0  0  0  0
  183.7110  177.8270  139.8620 C   0  0  0  0  0  2  0  0  0  0  0  0
  188.1650  178.4250  142.6910 N   0  0  0  0  0  2  0  0  0  0  0  0
  190.2000  176.9510  145.6190 C   0  0  0  0  0  3  0  0  0  0  0  0
  185.7570  178.5700  142.2220 C   0  0  1  0  0  3  0  0  0  0  0  0
  181.9220  179.2270  143.3260 S   0  0  0  0  0  0  0  0  0  0  0  0
  188.9950  177.1950  144.7360 C   0  0  1  0  0  3  0  0  0  0  0  0
  191.5660  175.9990  143.7880 C   0  0  0  0  0  2  0  0  0  0  0  0
  182.6770  178.3880  140.8370 C   0  0  1  0  0  3  0  0  0  0  0  0
  186.6590  178.0720  144.5500 C   0  0  0  0  0  0  0  0  0  0  0  0
  190.5880  178.1980  142.8810 C   0  0  2  0  0  3  0  0  0  0  0  0
  186.8510  177.9050  143.0640 C   0  0  2  0  0  3  0  0  0  0  0  0
  186.4810  178.4200  147.3920 C   0  0  0  0  0  2  0  0  0  0  0  0
  184.9670  178.6760  139.7920 C   0  0  0  0  0  2  0  0  0  0  0  0
  187.5800  177.5420  146.8250 C   0  0  0  0  0  2  0  0  0  0  0  0
  185.9760  178.1150  140.7750 C   0  0  0  0  0  2  0  0  0  0  0  0
  183.2610  179.0040  142.1170 C   0  0  2  0  0  3  0  0  0  0  0  0
  185.2060  178.2360  146.5740 C   0  0  0  0  0  2  0  0  0  0  0  0
  184.2970  178.4160  144.2050 N   0  0  0  0  0  0  0  0  0  0  0  0
  181.8890  179.3360  140.1790 O   0  0  0  0  0  0  0  0  0  0  0  0
  181.6110  178.7720  138.9310 C   0  0  0  0  0  2  0  0  0  0  0  0
  179.5720  181.5470  138.0540 C   0  0  0  0  0  2  0  0  0  0  0  0
  181.9190  181.1840  138.3850 C   0  0  0  0  0  2  0  0  0  0  0  0
  181.3340  179.8660  137.9170 C   0  0  0  0  0  3  0  0  0  0  0  0
  180.9150  182.2370  137.9810 C   0  0  0  0  0  2  0  0  0  0  0  0
  179.8370  180.0790  137.7830 C   0  0  0  0  0  2  0  0  0  0  0  0
  1 26  1  0  0  0  0
  3 16  1  1  0  0  0
  4 23  1  1  0  0  0
  5 11  1  1  0  0  0
  5 15  1  0  0  0  0
  6  7  1  0  0  0  0
  7  3  1  0  0  0  0
  8 12  2  0  0  0  0
  9 27  1  1  0  0  0
 10 17  1  0  0  0  0
 13 24  1  6  0  0  0
 13  9  1  0  0  0  0
 13 20  1  0  0  0  0
 14  2  1  0  0  0  0
 15  4  1  0  0  0  0
 15 12  1  1  0  0  0
 16  8  1  0  0  0  0
 17 28  1  6  0  0  0
 17 25  1  0  0  0  0
 18  1  2  0  0  0  0
 18  4  1  0  0  0  0
 19  6  1  6  0  0  0
 19  3  1  0  0  0  0
 19  5  1  0  0  0  0
 20 11  1  6  0  0  0
 20 18  1  0  0  0  0
 22 10  1  0  0  0  0
 22 24  1  0  0  0  0
 23 21  1  0  0  0  0
 25  9  1  0  0  0  0
 25 14  1  1  0  0  0
 26 21  1  0  0  0  0
 27  2  1  0  0  0  0
 27  1  1  0  0  0  0
 29 28  1  0  0  0  0
 32 31  1  0  0  0  0
 32 29  1  0  0  0  0
 33 30  1  0  0  0  0
 33 31  1  0  0  0  0
 34 32  1  0  0  0  0
 34 30  1  0  0  0  0
M  END
>  <MODEL>
1

>  <REMARK>
 VINA RESULT:      -9.7      0.000      0.000
  Name = 
  3 active torsions:
  status: ('A' for Active; 'I' for Inactive)
    1  A    between atoms: C_17  and  O_28
    2  A    between atoms: O_28  and  C_29
    3  A    between atoms: C_29  and  C_32
                            x       y       z     vdW  Elec       q    Type
                         _______ _______ _______ _____ _____    ______ ____

>  <TORSDO>
F 3

$$$$
=
 OpenBabel11122412223D

 34 41  0  0  1  0  0  0  0  0999 V2000
  183.5340  178.6780  143.6370 C   0  0  0  0  0  0  0  0  0  0  0  0
  181.1980  179.4500  143.1610 C   0  0  0  0  0  2  0  0  0  0  0  0
  189.9400  177.4880  141.8310 C   0  0  2  0  0  3  0  0  0  0  0  0
  185.9880  178.4260  144.0640 C   0  0  1  0  0  3  0  0  0  0  0  0
  187.3680  177.8190  141.9470 C   0  0  2  0  0  3  0  0  0  0  0  0
  189.0370  178.0920  140.1560 C   0  0  0  0  0  2  0  0  0  0  0  0
  190.0750  177.1970  140.4670 O   0  0  0  0  0  0  0  0  0  0  0  0
  189.3870  176.6800  144.0530 C   0  0  0  0  0  3  0  0  0  0  0  0
  182.5360  178.4920  141.3040 C   0  0  2  0  0  3  0  0  0  0  0  0
  181.9570  178.0100  138.4030 C   0  0  0  0  0  2  0  0  0  0  0  0
  186.3390  178.6690  141.3310 N   0  0  0  0  0  2  0  0  0  0  0  0
  188.2570  177.3100  144.3900 C   0  0  0  0  0  3  0  0  0  0  0  0
  183.9480  178.8360  140.7830 C   0  0  1  0  0  3  0  0  0  0  0  0
  180.0980  179.6230  141.7360 S   0  0  0  0  0  0  0  0  0  0  0  0
  187.0830  177.5310  143.4600 C   0  0  1  0  0  3  0  0  0  0  0  0
  189.6550  176.2380  142.6530 C   0  0  0  0  0  2  0  0  0  0  0  0
  180.9070  178.6410  139.3170 C   0  0  1  0  0  3  0  0  0  0  0  0
  184.7720  178.4420  143.1600 C   0  0  0  0  0  0  0  0  0  0  0  0
  188.7500  178.4060  141.6050 C   0  0  2  0  0  3  0  0  0  0  0  0
  185.0040  178.1950  141.6900 C   0  0  2  0  0  3  0  0  0  0  0  0
  184.5190  178.9400  145.9730 C   0  0  0  0  0  2  0  0  0  0  0  0
  183.2330  178.8310  138.3270 C   0  0  0  0  0  2  0  0  0  0  0  0
  185.6160  178.0130  145.4850 C   0  0  0  0  0  2  0  0  0  0  0  0
  184.2010  178.3020  139.3680 C   0  0  0  0  0  2  0  0  0  0  0  0
  181.4660  179.3120  140.5800 C   0  0  2  0  0  3  0  0  0  0  0  0
  183.2640  178.7380  145.1280 C   0  0  0  0  0  2  0  0  0  0  0  0
  182.4290  178.8130  142.7260 N   0  0  0  0  0  0  0  0  0  0  0  0
  180.1590  179.5690  138.5870 O   0  0  0  0  0  0  0  0  0  0  0  0
  179.6650  178.8550  137.4920 C   0  0  0  0  0  2  0  0  0  0  0  0
  180.5480  181.9310  135.9470 C   0  0  0  0  0  2  0  0  0  0  0  0
  180.5270  179.6260  135.2840 C   0  0  0  0  0  2  0  0  0  0  0  0
  179.4340  179.7930  136.3220 C   0  0  0  0  0  3  0  0  0  0  0  0
  180.8110  181.0180  134.7720 C   0  0  0  0  0  2  0  0  0  0  0  0
  179.5010  181.2340  136.7950 C   0  0  0  0  0  2  0  0  0  0  0  0
  1 26  1  0  0  0  0
  3 16  1  1  0  0  0
  4 23  1  1  0  0  0
  5 11  1  1  0  0  0
  5 15  1  0  0  0  0
  6  7  1  0  0  0  0
  7  3  1  0  0  0  0
  8 12  2  0  0  0  0
  9 27  1  1  0  0  0
 10 17  1  0  0  0  0
 13 24  1  6  0  0  0
 13  9  1  0  0  0  0
 13 20  1  0  0  0  0
 14  2  1  0  0  0  0
 15  4  1  0  0  0  0
 15 12  1  1  0  0  0
 16  8  1  0  0  0  0
 17 28  1  6  0  0  0
 17 25  1  0  0  0  0
 18  1  2  0  0  0  0
 18  4  1  0  0  0  0
 19  6  1  6  0  0  0
 19  3  1  0  0  0  0
 19  5  1  0  0  0  0
 20 11  1  6  0  0  0
 20 18  1  0  0  0  0
 22 10  1  0  0  0  0
 22 24  1  0  0  0  0
 23 21  1  0  0  0  0
 25  9  1  0  0  0  0
 25 14  1  1  0  0  0
 26 21  1  0  0  0  0
 27  2  1  0  0  0  0
 27  1  1  0  0  0  0
 29 28  1  0  0  0  0
 30 34  1  0  0  0  0
 31 32  1  0  0  0  0
 32 34  1  0  0  0  0
 32 29  1  0  0  0  0
 33 31  1  0  0  0  0
 33 30  1  0  0  0  0
M  END
>  <MODEL>
2

>  <REMARK>
 VINA RESULT:      -9.6      1.645      2.417
  Name = 
  3 active torsions:
  status: ('A' for Active; 'I' for Inactive)
    1  A    between atoms: C_17  and  O_28
    2  A    between atoms: O_28  and  C_29
    3  A    between atoms: C_29  and  C_32
                            x       y       z     vdW  Elec       q    Type
                         _______ _______ _______ _____ _____    ______ ____

>  <TORSDO>
F 3

$$$$
=
 OpenBabel11122412223D

 34 41  0  0  1  0  0  0  0  0999 V2000
  185.3480  178.4920  142.7020 C   0  0  0  0  0  0  0  0  0  0  0  0
  184.2930  179.0310  140.4940 C   0  0  0  0  0  2  0  0  0  0  0  0
  190.7070  177.4280  146.6860 C   0  0  2  0  0  3  0  0  0  0  0  0
  186.5610  178.4670  144.8930 C   0  0  1  0  0  3  0  0  0  0  0  0
  189.0100  177.6120  144.7300 C   0  0  2  0  0  3  0  0  0  0  0  0
  191.4680  177.6960  144.8600 C   0  0  0  0  0  2  0  0  0  0  0  0
  191.8140  176.9290  145.9870 O   0  0  0  0  0  0  0  0  0  0  0  0
  188.5820  176.9570  147.7630 C   0  0  0  0  0  3  0  0  0  0  0  0
  186.4870  177.8710  140.5140 C   0  0  2  0  0  3  0  0  0  0  0  0
  188.3020  176.8920  138.3390 C   0  0  0  0  0  2  0  0  0  0  0  0
  188.9000  178.2860  143.4290 N   0  0  0  0  0  2  0  0  0  0  0  0
  187.6580  177.5610  147.0090 C   0  0  0  0  0  3  0  0  0  0  0  0
  187.8140  178.2130  141.2240 C   0  0  1  0  0  3  0  0  0  0  0  0
  184.7010  178.9020  138.7370 S   0  0  0  0  0  0  0  0  0  0  0  0
  187.6440  177.5560  145.4940 C   0  0  1  0  0  3  0  0  0  0  0  0
  189.7880  176.3120  147.1660 C   0  0  0  0  0  2  0  0  0  0  0  0
  186.9870  177.5950  138.0040 C   0  0  1  0  0  3  0  0  0  0  0  0
  186.4820  178.2600  143.3940 C   0  0  0  0  0  0  0  0  0  0  0  0
  190.2010  178.2210  145.4930 C   0  0  2  0  0  3  0  0  0  0  0  0
  187.7350  177.7940  142.6960 C   0  0  2  0  0  3  0  0  0  0  0  0
  184.2060  179.1900  144.8720 C   0  0  0  0  0  2  0  0  0  0  0  0
  189.2410  177.7660  139.1490 C   0  0  0  0  0  2  0  0  0  0  0  0
  185.1990  178.2660  145.5520 C   0  0  0  0  0  2  0  0  0  0  0  0
  189.0140  177.4740  140.6200 C   0  0  0  0  0  2  0  0  0  0  0  0
  186.4310  178.4950  139.1180 C   0  0  2  0  0  3  0  0  0  0  0  0
  184.0390  178.7760  143.4120 C   0  0  0  0  0  2  0  0  0  0  0  0
  185.3550  178.4100  141.2660 N   0  0  0  0  0  0  0  0  0  0  0  0
  187.1500  178.3440  136.8360 O   0  0  0  0  0  0  0  0  0  0  0  0
  186.4570  177.6350  135.8510 C   0  0  0  0  0  2  0  0  0  0  0  0
  189.8120  176.7710  135.0570 C   0  0  0  0  0  2  0  0  0  0  0  0
  187.6820  175.6760  134.9140 C   0  0  0  0  0  2  0  0  0  0  0  0
  187.4210  177.1640  134.7770 C   0  0  0  0  0  3  0  0  0  0  0  0
  189.1470  175.4950  134.5940 C   0  0  0  0  0  2  0  0  0  0  0  0
  188.7600  177.8580  134.9450 C   0  0  0  0  0  2  0  0  0  0  0  0
  1 18  2  0  0  0  0
  1 26  1  0  0  0  0
  2 27  1  0  0  0  0
  3 16  1  6  0  0  0
  4 15  1  0  0  0  0
  4 23  1  1  0  0  0
  5 11  1  6  0  0  0
  5 19  1  0  0  0  0
  5 15  1  0  0  0  0
  6  7  1  0  0  0  0
  7  3  1  0  0  0  0
  9 13  1  0  0  0  0
  9 27  1  1  0  0  0
 10 22  1  0  0  0  0
 12  8  2  0  0  0  0
 13 24  1  6  0  0  0
 13 20  1  0  0  0  0
 14  2  1  0  0  0  0
 15 12  1  1  0  0  0
 16  8  1  0  0  0  0
 17 28  1  6  0  0  0
 17 10  1  0  0  0  0
 17 25  1  0  0  0  0
 18  4  1  0  0  0  0
 19  6  1  6  0  0  0
 19  3  1  0  0  0  0
 20 18  1  1  0  0  0
 20 11  1  0  0  0  0
 21 23  1  0  0  0  0
 22 24  1  0  0  0  0
 25 14  1  6  0  0  0
 25  9  1  0  0  0  0
 26 21  1  0  0  0  0
 27  1  1  0  0  0  0
 29 28  1  0  0  0  0
 32 31  1  0  0  0  0
 32 34  1  0  0  0  0
 32 29  1  0  0  0  0
 33 31  1  0  0  0  0
 33 30  1  0  0  0  0
 34 30  1  0  0  0  0
M  END
>  <MODEL>
3

>  <REMARK>
 VINA RESULT:      -9.3      3.357      5.056
  Name = 
  3 active torsions:
  status: ('A' for Active; 'I' for Inactive)
    1  A    between atoms: C_17  and  O_28
    2  A    between atoms: O_28  and  C_29
    3  A    between atoms: C_29  and  C_32
                            x       y       z     vdW  Elec       q    Type
                         _______ _______ _______ _____ _____    ______ ____

>  <TORSDO>
F 3

$$$$
=
 OpenBabel11122412223D

 34 41  0  0  1  0  0  0  0  0999 V2000
  185.4860  178.2570  145.0690 C   0  0  0  0  0  0  0  0  0  0  0  0
  183.1310  178.9880  144.6210 C   0  0  0  0  0  2  0  0  0  0  0  0
  191.9260  177.3220  143.2300 C   0  0  2  0  0  3  0  0  0  0  0  0
  187.9460  178.0520  145.4910 C   0  0  1  0  0  3  0  0  0  0  0  0
  189.3450  177.5780  143.3530 C   0  0  2  0  0  3  0  0  0  0  0  0
  191.0100  177.9770  141.5820 C   0  0  0  0  0  2  0  0  0  0  0  0
  192.0710  177.0970  141.8560 O   0  0  0  0  0  0  0  0  0  0  0  0
  191.3900  176.3990  145.4120 C   0  0  0  0  0  3  0  0  0  0  0  0
  184.4990  178.1520  142.7260 C   0  0  2  0  0  3  0  0  0  0  0  0
  183.9380  177.7870  139.8050 C   0  0  0  0  0  2  0  0  0  0  0  0
  188.2950  178.4280  142.7740 N   0  0  0  0  0  2  0  0  0  0  0  0
  190.2430  176.9820  145.7740 C   0  0  0  0  0  3  0  0  0  0  0  0
  185.9020  178.5560  142.2260 C   0  0  1  0  0  3  0  0  0  0  0  0
  182.0300  179.1960  143.2020 S   0  0  0  0  0  0  0  0  0  0  0  0
  189.0650  177.2150  144.8510 C   0  0  1  0  0  3  0  0  0  0  0  0
  191.6720  176.0280  143.9940 C   0  0  0  0  0  2  0  0  0  0  0  0
  182.8700  178.3480  140.7430 C   0  0  1  0  0  3  0  0  0  0  0  0
  186.7310  178.0760  144.5850 C   0  0  0  0  0  0  0  0  0  0  0  0
  190.7120  178.2170  143.0430 C   0  0  2  0  0  3  0  0  0  0  0  0
  186.9720  177.9030  143.1070 C   0  0  2  0  0  3  0  0  0  0  0  0
  186.4590  178.4390  147.4180 C   0  0  0  0  0  2  0  0  0  0  0  0
  185.1910  178.6440  139.7700 C   0  0  0  0  0  2  0  0  0  0  0  0
  187.5810  177.5650  146.8910 C   0  0  0  0  0  2  0  0  0  0  0  0
  186.1710  178.0940  140.7890 C   0  0  0  0  0  2  0  0  0  0  0  0
  183.4080  178.9750  142.0380 C   0  0  2  0  0  3  0  0  0  0  0  0
  185.2120  178.2430  146.5600 C   0  0  0  0  0  2  0  0  0  0  0  0
  184.3790  178.4040  144.1610 N   0  0  0  0  0  0  0  0  0  0  0  0
  182.0990  179.2870  140.0540 O   0  0  0  0  0  0  0  0  0  0  0  0
  181.1650  178.5340  139.3360 C   0  0  0  0  0  2  0  0  0  0  0  0
  178.9310  175.9730  140.3750 C   0  0  0  0  0  2  0  0  0  0  0  0
  180.8030  176.1100  138.8820 C   0  0  0  0  0  2  0  0  0  0  0  0
  181.0220  177.1570  139.9570 C   0  0  0  0  0  3  0  0  0  0  0  0
  179.8020  175.1400  139.4640 C   0  0  0  0  0  2  0  0  0  0  0  0
  179.7990  177.1200  140.8550 C   0  0  0  0  0  2  0  0  0  0  0  0
  1 26  1  0  0  0  0
  3 16  1  1  0  0  0
  4 23  1  1  0  0  0
  5 11  1  1  0  0  0
  5 15  1  0  0  0  0
  6  7  1  0  0  0  0
  7  3  1  0  0  0  0
  8 12  2  0  0  0  0
  9 27  1  1  0  0  0
 10 17  1  0  0  0  0
 13 24  1  6  0  0  0
 13  9  1  0  0  0  0
 13 20  1  0  0  0  0
 14  2  1  0  0  0  0
 15  4  1  0  0  0  0
 15 12  1  1  0  0  0
 16  8  1  0  0  0  0
 17 28  1  6  0  0  0
 17 25  1  0  0  0  0
 18  1  2  0  0  0  0
 18  4  1  0  0  0  0
 19  6  1  6  0  0  0
 19  3  1  0  0  0  0
 19  5  1  0  0  0  0
 20 11  1  6  0  0  0
 20 18  1  0  0  0  0
 22 10  1  0  0  0  0
 22 24  1  0  0  0  0
 23 21  1  0  0  0  0
 25  9  1  0  0  0  0
 25 14  1  1  0  0  0
 26 21  1  0  0  0  0
 27  2  1  0  0  0  0
 27  1  1  0  0  0  0
 29 32  1  0  0  0  0
 29 28  1  0  0  0  0
 30 34  1  0  0  0  0
 31 33  1  0  0  0  0
 31 32  1  0  0  0  0
 32 34  1  0  0  0  0
 33 30  1  0  0  0  0
M  END
>  <MODEL>
4

>  <REMARK>
 VINA RESULT:      -9.0      1.290      2.093
  Name = 
  3 active torsions:
  status: ('A' for Active; 'I' for Inactive)
    1  A    between atoms: C_17  and  O_28
    2  A    between atoms: O_28  and  C_29
    3  A    between atoms: C_29  and  C_32
                            x       y       z     vdW  Elec       q    Type
                         _______ _______ _______ _____ _____    ______ ____

>  <TORSDO>
F 3

$$$$
=
 OpenBabel11122412223D

 34 41  0  0  1  0  0  0  0  0999 V2000
  187.3820  177.9080  143.6730 C   0  0  0  0  0  0  0  0  0  0  0  0
  185.5810  178.5660  145.2870 C   0  0  0  0  0  2  0  0  0  0  0  0
  190.1200  177.7220  137.4930 C   0  0  2  0  0  3  0  0  0  0  0  0
  189.2860  177.7760  142.0520 C   0  0  1  0  0  3  0  0  0  0  0  0
  188.5510  177.7960  139.5600 C   0  0  2  0  0  3  0  0  0  0  0  0
  188.3530  178.6180  137.2470 C   0  0  0  0  0  2  0  0  0  0  0  0
  189.1610  177.7680  136.4730 O   0  0  0  0  0  0  0  0  0  0  0  0
  191.3090  176.3770  139.1280 C   0  0  0  0  0  3  0  0  0  0  0  0
  184.9700  178.1830  142.9120 C   0  0  2  0  0  3  0  0  0  0  0  0
  182.3760  178.3390  141.4180 C   0  0  0  0  0  2  0  0  0  0  0  0
  187.5160  178.6740  140.1260 N   0  0  0  0  0  2  0  0  0  0  0  0
  190.8900  176.8120  140.3210 C   0  0  0  0  0  3  0  0  0  0  0  0
  185.5540  178.7580  141.6040 C   0  0  1  0  0  3  0  0  0  0  0  0
  183.8180  178.9700  145.2510 S   0  0  0  0  0  0  0  0  0  0  0  0
  189.4520  177.1420  140.6610 C   0  0  1  0  0  3  0  0  0  0  0  0
  190.3930  176.2960  137.9530 C   0  0  0  0  0  2  0  0  0  0  0  0
  182.4380  178.6480  142.9140 C   0  0  1  0  0  3  0  0  0  0  0  0
  187.8150  177.8960  142.3970 C   0  0  0  0  0  0  0  0  0  0  0  0
  189.2770  178.5620  138.4390 C   0  0  2  0  0  3  0  0  0  0  0  0
  186.8470  178.0170  141.2470 C   0  0  2  0  0  3  0  0  0  0  0  0
  189.7980  177.7060  144.4610 C   0  0  0  0  0  2  0  0  0  0  0  0
  183.2580  179.2600  140.5950 C   0  0  0  0  0  2  0  0  0  0  0  0
  190.0470  177.0140  143.1350 C   0  0  0  0  0  2  0  0  0  0  0  0
  184.6060  178.5900  140.4110 C   0  0  0  0  0  2  0  0  0  0  0  0
  183.8250  179.0530  143.4350 C   0  0  2  0  0  3  0  0  0  0  0  0
  188.3190  177.5980  144.8240 C   0  0  0  0  0  2  0  0  0  0  0  0
  185.9930  178.1550  143.9560 N   0  0  0  0  0  0  0  0  0  0  0  0
  181.5140  179.6520  143.2150 O   0  0  0  0  0  0  0  0  0  0  0  0
  180.3090  178.9800  143.4410 C   0  0  0  0  0  2  0  0  0  0  0  0
  179.6260  180.8280  140.4840 C   0  0  0  0  0  2  0  0  0  0  0  0
  179.1730  178.6020  141.2550 C   0  0  0  0  0  2  0  0  0  0  0  0
  179.2450  179.4860  142.4850 C   0  0  0  0  0  3  0  0  0  0  0  0
  178.9310  179.5420  140.0980 C   0  0  0  0  0  2  0  0  0  0  0  0
  179.6080  180.8780  141.9990 C   0  0  0  0  0  2  0  0  0  0  0  0
  1 27  1  0  0  0  0
  1 26  1  0  0  0  0
  3 16  1  1  0  0  0
  3 19  1  0  0  0  0
  4 18  1  0  0  0  0
  4 23  1  1  0  0  0
  5 11  1  1  0  0  0
  5 15  1  0  0  0  0
  7  6  1  0  0  0  0
  7  3  1  0  0  0  0
  8 12  2  0  0  0  0
  9 25  1  0  0  0  0
  9 27  1  1  0  0  0
 10 17  1  0  0  0  0
 13 24  1  6  0  0  0
 13  9  1  0  0  0  0
 14  2  1  0  0  0  0
 15 12  1  6  0  0  0
 15  4  1  0  0  0  0
 16  8  1  0  0  0  0
 17 28  1  6  0  0  0
 17 25  1  0  0  0  0
 18  1  2  0  0  0  0
 19  6  1  6  0  0  0
 19  5  1  0  0  0  0
 20 11  1  6  0  0  0
 20 13  1  0  0  0  0
 20 18  1  0  0  0  0
 21 26  1  0  0  0  0
 22 10  1  0  0  0  0
 23 21  1  0  0  0  0
 24 22  1  0  0  0  0
 25 14  1  1  0  0  0
 27  2  1  0  0  0  0
 28 29  1  0  0  0  0
 30 34  1  0  0  0  0
 31 32  1  0  0  0  0
 32 29  1  0  0  0  0
 33 30  1  0  0  0  0
 33 31  1  0  0  0  0
 34 32  1  0  0  0  0
M  END
>  <MODEL>
5

>  <REMARK>
 VINA RESULT:      -9.0      2.556      3.795
  Name = 
  3 active torsions:
  status: ('A' for Active; 'I' for Inactive)
    1  A    between atoms: C_17  and  O_28
    2  A    between atoms: O_28  and  C_29
    3  A    between atoms: C_29  and  C_32
                            x       y       z     vdW  Elec       q    Type
                         _______ _______ _______ _____ _____    ______ ____

>  <TORSDO>
F 3

$$$$
=
 OpenBabel11122412223D

 34 41  0  0  1  0  0  0  0  0999 V2000
  186.9170  178.1720  140.2220 C   0  0  0  0  0  0  0  0  0  0  0  0
  187.0340  178.3030  137.7220 C   0  0  0  0  0  2  0  0  0  0  0  0
  189.7570  177.7190  146.3410 C   0  0  2  0  0  3  0  0  0  0  0  0
  187.0100  178.5340  142.6980 C   0  0  1  0  0  3  0  0  0  0  0  0
  189.1490  177.5760  143.8210 C   0  0  2  0  0  3  0  0  0  0  0  0
  191.2800  177.5940  145.0560 C   0  0  0  0  0  2  0  0  0  0  0  0
  190.9890  177.0530  146.3200 O   0  0  0  0  0  0  0  0  0  0  0  0
  187.3350  177.5460  146.3740 C   0  0  0  0  0  3  0  0  0  0  0  0
  188.8270  177.0910  138.9350 C   0  0  2  0  0  3  0  0  0  0  0  0
  191.2860  175.6380  138.0300 C   0  0  0  0  0  2  0  0  0  0  0  0
  189.7150  177.9840  142.5280 N   0  0  0  0  0  2  0  0  0  0  0  0
  186.9270  178.0230  145.1940 C   0  0  0  0  0  3  0  0  0  0  0  0
  189.7280  177.5180  140.1140 C   0  0  1  0  0  3  0  0  0  0  0  0
  188.1640  177.8160  136.3960 S   0  0  0  0  0  0  0  0  0  0  0  0
  187.5900  177.7210  143.8670 C   0  0  1  0  0  3  0  0  0  0  0  0
  188.5910  176.7530  146.5120 C   0  0  0  0  0  2  0  0  0  0  0  0
  190.3570  176.3090  137.0190 C   0  0  1  0  0  3  0  0  0  0  0  0
  187.5840  178.0390  141.3850 C   0  0  0  0  0  0  0  0  0  0  0  0
  189.9390  178.2800  144.9400 C   0  0  2  0  0  3  0  0  0  0  0  0
  188.9490  177.4000  141.4290 C   0  0  2  0  0  3  0  0  0  0  0  0
  185.0210  179.3240  141.4780 C   0  0  0  0  0  2  0  0  0  0  0  0
  191.8650  176.6200  139.0320 C   0  0  0  0  0  2  0  0  0  0  0  0
  185.4840  178.5170  142.6750 C   0  0  0  0  0  2  0  0  0  0  0  0
  190.9700  176.6320  140.2570 C   0  0  0  0  0  2  0  0  0  0  0  0
  189.4770  177.4290  137.5920 C   0  0  2  0  0  3  0  0  0  0  0  0
  185.4740  178.6370  140.1920 C   0  0  0  0  0  2  0  0  0  0  0  0
  187.5540  177.8080  138.9840 N   0  0  0  0  0  0  0  0  0  0  0  0
  191.1150  176.8070  135.9560 O   0  0  0  0  0  0  0  0  0  0  0  0
  191.0660  175.8100  134.9780 C   0  0  0  0  0  2  0  0  0  0  0  0
  194.4640  175.5750  135.9900 C   0  0  0  0  0  2  0  0  0  0  0  0
  192.8060  174.0370  135.1920 C   0  0  0  0  0  2  0  0  0  0  0  0
  192.4730  175.3900  134.5940 C   0  0  0  0  0  3  0  0  0  0  0  0
  194.2540  174.1280  135.6090 C   0  0  0  0  0  2  0  0  0  0  0  0
  193.4780  176.3760  135.1620 C   0  0  0  0  0  2  0  0  0  0  0  0
  1 18  2  0  0  0  0
  2 27  1  0  0  0  0
  3 16  1  6  0  0  0
  4 23  1  6  0  0  0
  4 15  1  0  0  0  0
  5 11  1  6  0  0  0
  5 15  1  0  0  0  0
  5 19  1  0  0  0  0
  6  7  1  0  0  0  0
  7  3  1  0  0  0  0
  8 16  1  0  0  0  0
  9 27  1  1  0  0  0
  9 13  1  0  0  0  0
 10 22  1  0  0  0  0
 12  8  2  0  0  0  0
 13 24  1  1  0  0  0
 13 20  1  0  0  0  0
 14  2  1  0  0  0  0
 15 12  1  1  0  0  0
 17 28  1  6  0  0  0
 17 25  1  0  0  0  0
 17 10  1  0  0  0  0
 18  4  1  0  0  0  0
 19  6  1  6  0  0  0
 19  3  1  0  0  0  0
 20 18  1  6  0  0  0
 20 11  1  0  0  0  0
 21 23  1  0  0  0  0
 22 24  1  0  0  0  0
 25 14  1  6  0  0  0
 25  9  1  0  0  0  0
 26  1  1  0  0  0  0
 26 21  1  0  0  0  0
 27  1  1  0  0  0  0
 29 28  1  0  0  0  0
 31 33  1  0  0  0  0
 32 29  1  0  0  0  0
 32 34  1  0  0  0  0
 32 31  1  0  0  0  0
 33 30  1  0  0  0  0
 34 30  1  0  0  0  0
M  END
>  <MODEL>
6

>  <REMARK>
 VINA RESULT:      -8.7      4.160      7.810
  Name = 
  3 active torsions:
  status: ('A' for Active; 'I' for Inactive)
    1  A    between atoms: C_17  and  O_28
    2  A    between atoms: O_28  and  C_29
    3  A    between atoms: C_29  and  C_32
                            x       y       z     vdW  Elec       q    Type
                         _______ _______ _______ _____ _____    ______ ____

>  <TORSDO>
F 3

$$$$
=
 OpenBabel11122412223D

 34 41  0  0  1  0  0  0  0  0999 V2000
  190.8130  177.0180  143.3260 C   0  0  0  0  0  0  0  0  0  0  0  0
  192.0770  176.4750  141.2320 C   0  0  0  0  0  2  0  0  0  0  0  0
  185.1180  178.3660  146.7130 C   0  0  2  0  0  3  0  0  0  0  0  0
  189.3560  177.0630  145.3620 C   0  0  1  0  0  3  0  0  0  0  0  0
  187.0150  178.1160  144.9580 C   0  0  2  0  0  3  0  0  0  0  0  0
  184.5590  178.2250  144.8010 C   0  0  0  0  0  2  0  0  0  0  0  0
  184.1420  178.9760  145.9140 O   0  0  0  0  0  0  0  0  0  0  0  0
  187.1310  178.6280  148.0450 C   0  0  0  0  0  3  0  0  0  0  0  0
  189.9900  177.8060  141.0510 C   0  0  2  0  0  3  0  0  0  0  0  0
  188.5230  179.0030  138.7290 C   0  0  0  0  0  2  0  0  0  0  0  0
  187.2260  177.4820  143.6490 N   0  0  0  0  0  2  0  0  0  0  0  0
  188.0890  177.9790  147.3760 C   0  0  0  0  0  3  0  0  0  0  0  0
  188.5670  177.5460  141.5890 C   0  0  1  0  0  3  0  0  0  0  0  0
  191.8910  176.6980  139.4470 S   0  0  0  0  0  0  0  0  0  0  0  0
  188.2820  178.0360  145.8750 C   0  0  1  0  0  3  0  0  0  0  0  0
  186.0560  179.3880  147.3430 C   0  0  0  0  0  2  0  0  0  0  0  0
  189.8120  178.2080  138.5160 C   0  0  1  0  0  3  0  0  0  0  0  0
  189.6270  177.3160  143.8930 C   0  0  0  0  0  0  0  0  0  0  0  0
  185.7000  177.5780  145.5510 C   0  0  2  0  0  3  0  0  0  0  0  0
  188.5030  177.9050  143.0780 C   0  0  2  0  0  3  0  0  0  0  0  0
  191.6360  176.1550  145.5800 C   0  0  0  0  0  2  0  0  0  0  0  0
  187.4320  178.1780  139.3860 C   0  0  0  0  0  2  0  0  0  0  0  0
  190.6430  177.1310  146.1810 C   0  0  0  0  0  2  0  0  0  0  0  0
  187.5060  178.3990  140.8850 C   0  0  0  0  0  2  0  0  0  0  0  0
  190.1640  177.2290  139.6450 C   0  0  2  0  0  3  0  0  0  0  0  0
  192.0050  176.6060  144.1680 C   0  0  0  0  0  2  0  0  0  0  0  0
  190.9820  177.1520  141.9040 N   0  0  0  0  0  0  0  0  0  0  0  0
  189.7320  177.5170  137.3040 O   0  0  0  0  0  0  0  0  0  0  0  0
  189.0570  178.3810  136.4370 C   0  0  0  0  0  2  0  0  0  0  0  0
  186.4140  176.0100  136.2890 C   0  0  0  0  0  2  0  0  0  0  0  0
  186.7510  178.2500  135.5000 C   0  0  0  0  0  2  0  0  0  0  0  0
  188.1170  177.5920  135.5460 C   0  0  0  0  0  3  0  0  0  0  0  0
  185.7570  177.1140  135.4920 C   0  0  0  0  0  2  0  0  0  0  0  0
  187.9090  176.2010  136.1180 C   0  0  0  0  0  2  0  0  0  0  0  0
  1 18  2  0  0  0  0
  1 26  1  0  0  0  0
  2 27  1  0  0  0  0
  3 16  1  6  0  0  0
  4 15  1  0  0  0  0
  4 23  1  1  0  0  0
  5 11  1  6  0  0  0
  5 19  1  0  0  0  0
  5 15  1  0  0  0  0
  6  7  1  0  0  0  0
  7  3  1  0  0  0  0
  9 13  1  0  0  0  0
  9 27  1  1  0  0  0
 10 22  1  0  0  0  0
 12  8  2  0  0  0  0
 13 24  1  6  0  0  0
 13 20  1  0  0  0  0
 14  2  1  0  0  0  0
 15 12  1  1  0  0  0
 16  8  1  0  0  0  0
 17 28  1  6  0  0  0
 17 10  1  0  0  0  0
 17 25  1  0  0  0  0
 18  4  1  0  0  0  0
 19  6  1  6  0  0  0
 19  3  1  0  0  0  0
 20 11  1  1  0  0  0
 20 18  1  0  0  0  0
 21 23  1  0  0  0  0
 22 24  1  0  0  0  0
 25 14  1  6  0  0  0
 25  9  1  0  0  0  0
 26 21  1  0  0  0  0
 27  1  1  0  0  0  0
 29 28  1  0  0  0  0
 31 32  1  0  0  0  0
 32 34  1  0  0  0  0
 32 29  1  0  0  0  0
 33 31  1  0  0  0  0
 33 30  1  0  0  0  0
 34 30  1  0  0  0  0
M  END
>  <MODEL>
7

>  <REMARK>
 VINA RESULT:      -8.6      4.004      6.406
  Name = 
  3 active torsions:
  status: ('A' for Active; 'I' for Inactive)
    1  A    between atoms: C_17  and  O_28
    2  A    between atoms: O_28  and  C_29
    3  A    between atoms: C_29  and  C_32
                            x       y       z     vdW  Elec       q    Type
                         _______ _______ _______ _____ _____    ______ ____

>  <TORSDO>
F 3

$$$$
=
 OpenBabel11122412223D

 34 41  0  0  1  0  0  0  0  0999 V2000
  184.8090  178.3610  144.0690 C   0  0  0  0  0  0  0  0  0  0  0  0
  182.6010  179.0090  143.0770 C   0  0  0  0  0  2  0  0  0  0  0  0
  191.5150  177.5520  143.7580 C   0  0  2  0  0  3  0  0  0  0  0  0
  187.1140  178.2400  145.0400 C   0  0  1  0  0  3  0  0  0  0  0  0
  188.9680  177.7380  143.2900 C   0  0  2  0  0  3  0  0  0  0  0  0
  190.9800  178.1260  141.9230 C   0  0  0  0  0  2  0  0  0  0  0  0
  191.9710  177.2870  142.4610 O   0  0  0  0  0  0  0  0  0  0  0  0
  190.5210  176.6860  145.7970 C   0  0  0  0  0  3  0  0  0  0  0  0
  184.3760  178.1510  141.5710 C   0  0  2  0  0  3  0  0  0  0  0  0
  184.4950  177.6750  138.6140 C   0  0  0  0  0  2  0  0  0  0  0  0
  188.0580  178.5370  142.4570 N   0  0  0  0  0  2  0  0  0  0  0  0
  189.3100  177.2470  145.8710 C   0  0  0  0  0  3  0  0  0  0  0  0
  185.8480  178.5790  141.3830 C   0  0  1  0  0  3  0  0  0  0  0  0
  181.8430  179.1390  141.4400 S   0  0  0  0  0  0  0  0  0  0  0  0
  188.3660  177.4150  144.6990 C   0  0  1  0  0  3  0  0  0  0  0  0
  191.1230  176.2770  144.4950 C   0  0  0  0  0  2  0  0  0  0  0  0
  183.2320  178.2350  139.2670 C   0  0  1  0  0  3  0  0  0  0  0  0
  186.1340  178.2000  143.8840 C   0  0  0  0  0  0  0  0  0  0  0  0
  190.3560  178.4050  143.2700 C   0  0  2  0  0  3  0  0  0  0  0  0
  186.7060  177.9860  142.5050 C   0  0  2  0  0  3  0  0  0  0  0  0
  185.2240  178.6470  146.5680 C   0  0  0  0  0  2  0  0  0  0  0  0
  185.7060  178.5660  138.8290 C   0  0  0  0  0  2  0  0  0  0  0  0
  186.4540  177.7890  146.3400 C   0  0  0  0  0  2  0  0  0  0  0  0
  186.4430  178.0780  140.0620 C   0  0  0  0  0  2  0  0  0  0  0  0
  183.4520  178.9190  140.6240 C   0  0  2  0  0  3  0  0  0  0  0  0
  184.2070  178.3870  145.4600 C   0  0  0  0  0  2  0  0  0  0  0  0
  183.9320  178.4470  142.9320 N   0  0  0  0  0  0  0  0  0  0  0  0
  182.6160  179.1290  138.3870 O   0  0  0  0  0  0  0  0  0  0  0  0
  181.9550  178.3240  137.4550 C   0  0  0  0  0  2  0  0  0  0  0  0
  178.9310  176.4650  137.6250 C   0  0  0  0  0  2  0  0  0  0  0  0
  181.2580  175.9310  137.3930 C   0  0  0  0  0  2  0  0  0  0  0  0
  181.1820  177.2310  138.1700 C   0  0  0  0  0  3  0  0  0  0  0  0
  179.8920  175.3020  137.5270 C   0  0  0  0  0  2  0  0  0  0  0  0
  179.7130  177.6050  138.2480 C   0  0  0  0  0  2  0  0  0  0  0  0
  1 26  1  0  0  0  0
  3 16  1  6  0  0  0
  4 23  1  1  0  0  0
  5 11  1  1  0  0  0
  5 15  1  0  0  0  0
  6  7  1  0  0  0  0
  7  3  1  0  0  0  0
  8 12  2  0  0  0  0
  9 27  1  1  0  0  0
 10 22  1  0  0  0  0
 10 17  1  0  0  0  0
 13 24  1  6  0  0  0
 13  9  1  0  0  0  0
 13 20  1  0  0  0  0
 14  2  1  0  0  0  0
 15  4  1  0  0  0  0
 15 12  1  1  0  0  0
 16  8  1  0  0  0  0
 17 28  1  6  0  0  0
 17 25  1  0  0  0  0
 18  1  2  0  0  0  0
 18  4  1  0  0  0  0
 19  6  1  6  0  0  0
 19  5  1  0  0  0  0
 19  3  1  0  0  0  0
 20 11  1  1  0  0  0
 20 18  1  0  0  0  0
 22 24  1  0  0  0  0
 23 21  1  0  0  0  0
 25 14  1  1  0  0  0
 25  9  1  0  0  0  0
 26 21  1  0  0  0  0
 27  2  1  0  0  0  0
 27  1  1  0  0  0  0
 29 32  1  0  0  0  0
 29 28  1  0  0  0  0
 30 34  1  0  0  0  0
 31 33  1  0  0  0  0
 31 32  1  0  0  0  0
 32 34  1  0  0  0  0
 33 30  1  0  0  0  0
M  END
>  <MODEL>
8

>  <REMARK>
 VINA RESULT:      -8.5      1.555      2.163
  Name = 
  3 active torsions:
  status: ('A' for Active; 'I' for Inactive)
    1  A    between atoms: C_17  and  O_28
    2  A    between atoms: O_28  and  C_29
    3  A    between atoms: C_29  and  C_32
                            x       y       z     vdW  Elec       q    Type
                         _______ _______ _______ _____ _____    ______ ____

>  <TORSDO>
F 3

$$$$
=
 OpenBabel11122412223D

 34 41  0  0  1  0  0  0  0  0999 V2000
  186.6180  178.2600  140.1930 C   0  0  0  0  0  0  0  0  0  0  0  0
  184.3020  178.3930  139.2460 C   0  0  0  0  0  2  0  0  0  0  0  0
  190.9750  177.1340  145.2400 C   0  0  2  0  0  3  0  0  0  0  0  0
  188.8340  177.6010  141.1550 C   0  0  1  0  0  3  0  0  0  0  0  0
  188.9400  177.7440  143.7480 C   0  0  2  0  0  3  0  0  0  0  0  0
  189.1690  176.9510  146.0690 C   0  0  0  0  0  2  0  0  0  0  0  0
  190.4280  177.4030  146.5000 O   0  0  0  0  0  0  0  0  0  0  0  0
  192.0160  178.0120  143.2290 C   0  0  0  0  0  3  0  0  0  0  0  0
  184.6290  178.8690  141.6590 C   0  0  2  0  0  3  0  0  0  0  0  0
  182.7490  179.6230  143.8670 C   0  0  0  0  0  2  0  0  0  0  0  0
  187.5360  177.3400  143.5840 N   0  0  0  0  0  2  0  0  0  0  0  0
  191.1250  177.8180  142.2520 C   0  0  0  0  0  3  0  0  0  0  0  0
  185.3300  178.0600  142.7710 C   0  0  1  0  0  3  0  0  0  0  0  0
  182.6160  178.6740  139.8370 S   0  0  0  0  0  0  0  0  0  0  0  0
  189.6360  178.0630  142.3820 C   0  0  1  0  0  3  0  0  0  0  0  0
  191.6000  178.3750  144.6150 C   0  0  0  0  0  2  0  0  0  0  0  0
  182.2340  179.3800  142.4490 C   0  0  1  0  0  3  0  0  0  0  0  0
  187.3920  178.0520  141.2770 C   0  0  0  0  0  0  0  0  0  0  0  0
  189.6380  176.7120  144.6530 C   0  0  2  0  0  3  0  0  0  0  0  0
  186.8480  178.2490  142.6690 C   0  0  2  0  0  3  0  0  0  0  0  0
  188.5740  177.5830  138.7050 C   0  0  0  0  0  2  0  0  0  0  0  0
  183.4360  178.4040  144.4550 C   0  0  0  0  0  2  0  0  0  0  0  0
  189.4520  178.0720  139.8420 C   0  0  0  0  0  2  0  0  0  0  0  0
  184.9230  178.5150  144.1770 C   0  0  0  0  0  2  0  0  0  0  0  0
  183.1440  178.5120  141.5680 C   0  0  2  0  0  3  0  0  0  0  0  0
  187.2040  178.2500  138.7950 C   0  0  0  0  0  2  0  0  0  0  0  0
  185.2210  178.5600  140.3580 N   0  0  0  0  0  0  0  0  0  0  0  0
  180.9610  178.8080  142.5130 O   0  0  0  0  0  0  0  0  0  0  0  0
  180.1010  179.8690  142.8110 C   0  0  0  0  0  2  0  0  0  0  0  0
  179.5100  180.8630  139.4510 C   0  0  0  0  0  2  0  0  0  0  0  0
  179.1510  178.8690  140.7350 C   0  0  0  0  0  2  0  0  0  0  0  0
  179.0770  180.0330  141.7040 C   0  0  0  0  0  3  0  0  0  0  0  0
  178.9310  179.4700  139.3670 C   0  0  0  0  0  2  0  0  0  0  0  0
  179.3810  181.2860  140.9020 C   0  0  0  0  0  2  0  0  0  0  0  0
  1 27  1  0  0  0  0
  1 18  2  0  0  0  0
  2 14  1  0  0  0  0
  2 27  1  0  0  0  0
  3 16  1  6  0  0  0
  3  7  1  0  0  0  0
  4 23  1  6  0  0  0
  4 18  1  0  0  0  0
  4 15  1  0  0  0  0
  5 11  1  6  0  0  0
  5 19  1  0  0  0  0
  6  7  1  0  0  0  0
  8 16  1  0  0  0  0
  9 27  1  6  0  0  0
  9 13  1  0  0  0  0
 10 22  1  0  0  0  0
 12  8  2  0  0  0  0
 13 24  1  1  0  0  0
 15 12  1  1  0  0  0
 15  5  1  0  0  0  0
 17 28  1  1  0  0  0
 17 10  1  0  0  0  0
 19  3  1  0  0  0  0
 19  6  1  1  0  0  0
 20 18  1  6  0  0  0
 20 13  1  0  0  0  0
 20 11  1  0  0  0  0
 21 26  1  0  0  0  0
 21 23  1  0  0  0  0
 24 22  1  0  0  0  0
 25 14  1  6  0  0  0
 25  9  1  0  0  0  0
 25 17  1  0  0  0  0
 26  1  1  0  0  0  0
 28 29  1  0  0  0  0
 30 34  1  0  0  0  0
 31 32  1  0  0  0  0
 32 29  1  0  0  0  0
 33 30  1  0  0  0  0
 33 31  1  0  0  0  0
 34 32  1  0  0  0  0
M  END
>  <MODEL>
9

>  <REMARK>
 VINA RESULT:      -8.4      2.159      4.086
  Name = 
  3 active torsions:
  status: ('A' for Active; 'I' for Inactive)
    1  A    between atoms: C_17  and  O_28
    2  A    between atoms: O_28  and  C_29
    3  A    between atoms: C_29  and  C_32
                            x       y       z     vdW  Elec       q    Type
                         _______ _______ _______ _____ _____    ______ ____

>  <TORSDO>
F 3

$$$$
