=
 OpenBabel11122410243D

 30 35  0  0  1  0  0  0  0  0999 V2000
  187.2920  177.9030  145.2910 C   0  0  1  0  0  3  0  0  0  0  0  0
  184.9180  178.6880  145.8280 C   0  0  0  0  0  0  0  0  0  0  0  0
  186.5910  178.6460  141.2740 C   0  0  0  0  0  2  0  0  0  0  0  0
  188.3180  178.1560  144.1770 C   0  0  1  0  0  3  0  0  0  0  0  0
  187.7140  178.5580  146.4660 O   0  0  0  0  0  0  0  0  0  0  0  0
  191.0710  177.3830  146.4850 O   0  0  0  0  0  0  0  0  0  0  0  0
  190.8740  176.7650  142.7090 C   0  0  1  0  0  3  0  0  0  0  0  0
  189.9170  177.6560  146.0560 C   0  0  0  0  0  0  0  0  0  0  0  0
  189.9760  176.9650  141.5010 C   0  0  2  0  0  3  0  0  0  0  0  0
  187.9900  178.4490  140.8590 C   0  0  0  0  0  0  0  0  0  0  0  0
  188.7860  177.8260  147.0290 C   0  0  2  0  0  3  0  0  0  0  0  0
  189.6730  177.7950  144.6430 N   0  0  0  0  0  0  0  0  0  0  0  0
  183.6190  178.9950  145.4180 C   0  0  0  0  0  3  0  0  0  0  0  0
  190.8820  177.6380  140.4920 C   0  0  0  0  0  2  0  0  0  0  0  0
  192.2670  176.6590  142.1180 C   0  0  0  0  0  2  0  0  0  0  0  0
  185.2110  178.7450  147.1850 O   0  0  0  0  0  1  0  0  0  0  0  0
  186.4730  177.6950  142.4620 C   0  0  1  0  0  3  0  0  0  0  0  0
  183.2630  178.9040  144.0750 C   0  0  0  0  0  3  0  0  0  0  0  0
  185.8980  178.3170  144.8760 C   0  0  0  0  0  0  0  0  0  0  0  0
  187.9140  177.3660  142.9280 C   0  0  1  0  0  3  0  0  0  0  0  0
  188.4450  178.8720  139.7640 O   0  0  0  0  0  0  0  0  0  0  0  0
  188.7720  177.7410  141.8130 N   0  0  0  0  0  0  0  0  0  0  0  0
  192.2430  177.1880  140.7560 N   0  0  0  0  0  2  0  0  0  0  0  0
  191.0230  179.3040  143.2190 C   0  0  0  0  0  1  0  0  0  0  0  0
  184.2060  178.4970  143.1340 C   0  0  0  0  0  3  0  0  0  0  0  0
  185.5200  178.2000  143.5180 C   0  0  0  0  0  0  0  0  0  0  0  0
  190.8390  177.8890  143.7620 C   0  0  2  0  0  3  0  0  0  0  0  0
  188.3410  176.4860  147.6110 C   0  0  0  0  0  2  0  0  0  0  0  0
  187.9670  177.9180  149.4580 F   0  0  0  0  0  0  0  0  0  0  0  0
  187.5980  176.7030  148.9150 C   0  0  0  0  0  2  0  0  0  0  0  0
  1 19  1  6  0  0  0
  1  5  1  0  0  0  0
  2 16  1  0  0  0  0
  4 12  1  1  0  0  0
  4  1  1  0  0  0  0
  5 11  1  0  0  0  0
  7 15  1  6  0  0  0
  7 27  1  0  0  0  0
  8  6  2  0  0  0  0
  8 11  1  0  0  0  0
  9 14  1  6  0  0  0
  9 22  1  0  0  0  0
  9  7  1  0  0  0  0
 10  3  1  0  0  0  0
 10 22  1  0  0  0  0
 11 28  1  6  0  0  0
 12  8  1  0  0  0  0
 13  2  1  0  0  0  0
 14 23  1  0  0  0  0
 17  3  1  6  0  0  0
 17 20  1  0  0  0  0
 17 26  1  0  0  0  0
 18 13  2  0  0  0  0
 19  2  2  0  0  0  0
 20 22  1  6  0  0  0
 20  4  1  0  0  0  0
 21 10  2  0  0  0  0
 23 15  1  0  0  0  0
 25 26  2  0  0  0  0
 25 18  1  0  0  0  0
 26 19  1  0  0  0  0
 27 24  1  6  0  0  0
 27 12  1  0  0  0  0
 28 30  1  0  0  0  0
 30 29  1  0  0  0  0
M  END
>  <MODEL>
1

>  <REMARK>
 VINA RESULT:      -9.1      0.000      0.000
  Name = 
  2 active torsions:
  status: ('A' for Active; 'I' for Inactive)
    1  A    between atoms: C_11  and  C_28
    2  A    between atoms: C_28  and  C_30
                            x       y       z     vdW  Elec       q    Type
                         _______ _______ _______ _____ _____    ______ ____

>  <TORSDO>
F 2

$$$$
=
 OpenBabel11122410243D

 30 35  0  0  1  0  0  0  0  0999 V2000
  189.0540  177.4470  143.4310 C   0  0  1  0  0  3  0  0  0  0  0  0
  191.1580  177.1140  144.8460 C   0  0  0  0  0  0  0  0  0  0  0  0
  186.8500  177.9920  146.8990 C   0  0  0  0  0  2  0  0  0  0  0  0
  187.7070  178.1630  143.5990 C   0  0  1  0  0  3  0  0  0  0  0  0
  189.8500  178.1680  142.5170 O   0  0  0  0  0  0  0  0  0  0  0  0
  187.4110  178.5450  139.9570 O   0  0  0  0  0  0  0  0  0  0  0  0
  184.6250  178.0670  142.5420 C   0  0  1  0  0  3  0  0  0  0  0  0
  187.9040  178.3160  141.0950 C   0  0  0  0  0  0  0  0  0  0  0  0
  184.3780  177.9160  144.0330 C   0  0  2  0  0  3  0  0  0  0  0  0
  185.6270  178.4310  146.2080 C   0  0  0  0  0  0  0  0  0  0  0  0
  189.3540  177.9420  141.2110 C   0  0  2  0  0  3  0  0  0  0  0  0
  187.0880  178.3970  142.2780 N   0  0  0  0  0  0  0  0  0  0  0  0
  191.7660  176.8530  146.0760 C   0  0  0  0  0  3  0  0  0  0  0  0
  183.3170  178.9540  144.3250 C   0  0  0  0  0  2  0  0  0  0  0  0
  183.3080  178.5930  142.0030 C   0  0  0  0  0  2  0  0  0  0  0  0
  191.9690  177.2330  143.7230 O   0  0  0  0  0  1  0  0  0  0  0  0
  187.4640  177.0320  145.8830 C   0  0  1  0  0  3  0  0  0  0  0  0
  190.9930  176.6770  147.2200 C   0  0  0  0  0  3  0  0  0  0  0  0
  189.7510  177.2420  144.7570 C   0  0  0  0  0  0  0  0  0  0  0  0
  186.8020  177.3310  144.5140 C   0  0  1  0  0  3  0  0  0  0  0  0
  184.7000  179.0560  146.7890 O   0  0  0  0  0  0  0  0  0  0  0  0
  185.5970  178.0860  144.8280 N   0  0  0  0  0  0  0  0  0  0  0  0
  182.5200  179.1210  143.1160 N   0  0  0  0  0  2  0  0  0  0  0  0
  185.7280  180.4000  142.8000 C   0  0  0  0  0  1  0  0  0  0  0  0
  189.6040  176.7540  147.1390 C   0  0  0  0  0  3  0  0  0  0  0  0
  188.9730  177.0330  145.9190 C   0  0  0  0  0  0  0  0  0  0  0  0
  185.7690  179.0210  142.1480 C   0  0  2  0  0  3  0  0  0  0  0  0
  189.6070  176.5160  140.7250 C   0  0  0  0  0  2  0  0  0  0  0  0
  190.3430  177.7350  138.8350 F   0  0  0  0  0  0  0  0  0  0  0  0
  190.4950  176.5320  139.4970 C   0  0  0  0  0  2  0  0  0  0  0  0
  1  5  1  6  0  0  0
  1  4  1  0  0  0  0
  1 19  1  0  0  0  0
  2 13  1  0  0  0  0
  4 12  1  6  0  0  0
  4 20  1  0  0  0  0
  6  8  2  0  0  0  0
  7 15  1  6  0  0  0
  7  9  1  0  0  0  0
  8 11  1  0  0  0  0
  8 12  1  0  0  0  0
  9 14  1  1  0  0  0
  9 22  1  0  0  0  0
 10 21  2  0  0  0  0
 10  3  1  0  0  0  0
 11 28  1  1  0  0  0
 11  5  1  0  0  0  0
 13 18  2  0  0  0  0
 15 23  1  0  0  0  0
 16  2  1  0  0  0  0
 17 26  1  0  0  0  0
 17  3  1  1  0  0  0
 19  2  2  0  0  0  0
 19 26  1  0  0  0  0
 20 22  1  1  0  0  0
 20 17  1  0  0  0  0
 22 10  1  0  0  0  0
 23 14  1  0  0  0  0
 25 18  1  0  0  0  0
 26 25  2  0  0  0  0
 27 12  1  0  0  0  0
 27  7  1  0  0  0  0
 27 24  1  1  0  0  0
 29 30  1  0  0  0  0
 30 28  1  0  0  0  0
M  END
>  <MODEL>
2

>  <REMARK>
 VINA RESULT:      -8.9      2.828      6.641
  Name = 
  2 active torsions:
  status: ('A' for Active; 'I' for Inactive)
    1  A    between atoms: C_11  and  C_28
    2  A    between atoms: C_28  and  C_30
                            x       y       z     vdW  Elec       q    Type
                         _______ _______ _______ _____ _____    ______ ____

>  <TORSDO>
F 2

$$$$
=
 OpenBabel11122410243D

 30 35  0  0  1  0  0  0  0  0999 V2000
  187.4190  178.2370  140.1950 C   0  0  1  0  0  3  0  0  0  0  0  0
  185.1070  178.3810  139.1100 C   0  0  0  0  0  0  0  0  0  0  0  0
  185.6150  177.9440  143.9150 C   0  0  0  0  0  2  0  0  0  0  0  0
  188.0000  177.6550  141.4910 C   0  0  1  0  0  3  0  0  0  0  0  0
  187.8170  177.4330  139.1070 O   0  0  0  0  0  0  0  0  0  0  0  0
  191.2820  177.2640  139.8870 O   0  0  0  0  0  0  0  0  0  0  0  0
  190.4940  178.0360  143.5560 C   0  0  1  0  0  3  0  0  0  0  0  0
  190.0460  177.4580  140.0380 C   0  0  0  0  0  0  0  0  0  0  0  0
  189.3400  178.2260  144.5250 C   0  0  2  0  0  3  0  0  0  0  0  0
  186.8550  177.6170  144.6360 C   0  0  0  0  0  0  0  0  0  0  0  0
  189.1810  177.6910  138.8330 C   0  0  2  0  0  3  0  0  0  0  0  0
  189.4590  177.4680  141.3530 N   0  0  0  0  0  0  0  0  0  0  0  0
  183.7310  178.5970  139.2080 C   0  0  0  0  0  3  0  0  0  0  0  0
  189.6810  177.2970  145.6710 C   0  0  0  0  0  2  0  0  0  0  0  0
  191.6560  177.6320  144.4420 C   0  0  0  0  0  2  0  0  0  0  0  0
  185.6530  178.1740  137.8480 O   0  0  0  0  0  1  0  0  0  0  0  0
  186.1270  178.8300  142.7820 C   0  0  1  0  0  3  0  0  0  0  0  0
  183.1450  178.8580  140.4430 C   0  0  0  0  0  3  0  0  0  0  0  0
  185.9150  178.3890  140.2720 C   0  0  0  0  0  0  0  0  0  0  0  0
  187.6520  178.5800  142.6620 C   0  0  1  0  0  3  0  0  0  0  0  0
  186.8630  177.0900  145.7800 O   0  0  0  0  0  0  0  0  0  0  0  0
  188.0360  177.9480  143.9160 N   0  0  0  0  0  0  0  0  0  0  0  0
  191.1340  177.1950  145.7360 N   0  0  0  0  0  2  0  0  0  0  0  0
  189.7970  175.6100  142.9560 C   0  0  0  0  0  1  0  0  0  0  0  0
  183.9360  178.9140  141.5890 C   0  0  0  0  0  3  0  0  0  0  0  0
  185.3160  178.6840  141.5180 C   0  0  0  0  0  0  0  0  0  0  0  0
  190.2780  176.9720  142.4620 C   0  0  2  0  0  3  0  0  0  0  0  0
  189.4080  179.0810  138.2400 C   0  0  0  0  0  2  0  0  0  0  0  0
  189.3740  178.0290  136.1200 F   0  0  0  0  0  0  0  0  0  0  0  0
  188.9040  179.1290  136.8120 C   0  0  0  0  0  2  0  0  0  0  0  0
  1  5  1  6  0  0  0
  1 19  1  0  0  0  0
  1  4  1  0  0  0  0
  2 13  2  0  0  0  0
  2 19  1  0  0  0  0
  3 10  1  0  0  0  0
  4 12  1  6  0  0  0
  4 20  1  0  0  0  0
  6  8  2  0  0  0  0
  7 15  1  1  0  0  0
  7  9  1  0  0  0  0
  8 12  1  0  0  0  0
  9 14  1  1  0  0  0
 10 21  2  0  0  0  0
 11 28  1  1  0  0  0
 11  5  1  0  0  0  0
 11  8  1  0  0  0  0
 12 27  1  0  0  0  0
 13 18  1  0  0  0  0
 14 23  1  0  0  0  0
 15 23  1  0  0  0  0
 16  2  1  0  0  0  0
 17  3  1  1  0  0  0
 18 25  2  0  0  0  0
 19 26  2  0  0  0  0
 20 17  1  0  0  0  0
 20 22  1  1  0  0  0
 22  9  1  0  0  0  0
 22 10  1  0  0  0  0
 26 25  1  0  0  0  0
 26 17  1  0  0  0  0
 27 24  1  1  0  0  0
 27  7  1  0  0  0  0
 29 30  1  0  0  0  0
 30 28  1  0  0  0  0
M  END
>  <MODEL>
3

>  <REMARK>
 VINA RESULT:      -8.0      3.137      5.937
  Name = 
  2 active torsions:
  status: ('A' for Active; 'I' for Inactive)
    1  A    between atoms: C_11  and  C_28
    2  A    between atoms: C_28  and  C_30
                            x       y       z     vdW  Elec       q    Type
                         _______ _______ _______ _____ _____    ______ ____

>  <TORSDO>
F 2

$$$$
=
 OpenBabel11122410243D

 30 35  0  0  1  0  0  0  0  0999 V2000
  186.4580  178.1570  142.9970 C   0  0  1  0  0  3  0  0  0  0  0  0
  188.7360  177.2460  143.7200 C   0  0  0  0  0  0  0  0  0  0  0  0
  187.5400  177.6190  139.0320 C   0  0  0  0  0  2  0  0  0  0  0  0
  185.5430  178.0110  141.7730 C   0  0  1  0  0  3  0  0  0  0  0  0
  185.8960  177.4530  144.0820 O   0  0  0  0  0  0  0  0  0  0  0  0
  182.5980  178.7610  143.8370 O   0  0  0  0  0  0  0  0  0  0  0  0
  183.2010  179.5880  140.1450 C   0  0  1  0  0  3  0  0  0  0  0  0
  183.7790  178.4660  143.5100 C   0  0  0  0  0  0  0  0  0  0  0  0
  184.2100  179.4210  139.0230 C   0  0  2  0  0  3  0  0  0  0  0  0
  186.1990  177.8970  138.4930 C   0  0  0  0  0  0  0  0  0  0  0  0
  184.7980  178.1940  144.5790 C   0  0  2  0  0  3  0  0  0  0  0  0
  184.1620  178.4000  142.1230 N   0  0  0  0  0  0  0  0  0  0  0  0
  190.0590  176.9100  143.4240 C   0  0  0  0  0  3  0  0  0  0  0  0
  183.3890  178.8460  137.8890 C   0  0  0  0  0  2  0  0  0  0  0  0
  181.8810  179.7850  139.4260 C   0  0  0  0  0  2  0  0  0  0  0  0
  188.3040  177.1220  145.0350 O   0  0  0  0  0  1  0  0  0  0  0  0
  187.5690  178.4940  140.2830 C   0  0  1  0  0  3  0  0  0  0  0  0
  190.5530  177.0630  142.1310 C   0  0  0  0  0  3  0  0  0  0  0  0
  187.8720  177.7100  142.6990 C   0  0  0  0  0  0  0  0  0  0  0  0
  186.1000  178.8550  140.6220 C   0  0  1  0  0  3  0  0  0  0  0  0
  185.8440  177.5560  137.3330 O   0  0  0  0  0  0  0  0  0  0  0  0
  185.3480  178.5800  139.4060 N   0  0  0  0  0  0  0  0  0  0  0  0
  182.0250  179.3340  138.0430 N   0  0  0  0  0  2  0  0  0  0  0  0
  182.9120  177.0320  140.4800 C   0  0  0  0  0  1  0  0  0  0  0  0
  189.7260  177.5630  141.1270 C   0  0  0  0  0  3  0  0  0  0  0  0
  188.3900  177.8900  141.3960 C   0  0  0  0  0  0  0  0  0  0  0  0
  183.0890  178.4040  141.1250 C   0  0  2  0  0  3  0  0  0  0  0  0
  185.2280  179.4790  145.2840 C   0  0  0  0  0  2  0  0  0  0  0  0
  184.8500  178.2590  147.2760 F   0  0  0  0  0  0  0  0  0  0  0  0
  185.7060  179.1700  146.6890 C   0  0  0  0  0  2  0  0  0  0  0  0
  1 19  1  6  0  0  0
  1  5  1  0  0  0  0
  2 16  1  0  0  0  0
  4 12  1  1  0  0  0
  4  1  1  0  0  0  0
  5 11  1  0  0  0  0
  7 15  1  6  0  0  0
  7 27  1  0  0  0  0
  8  6  2  0  0  0  0
  8 11  1  0  0  0  0
  9 14  1  6  0  0  0
  9 22  1  0  0  0  0
  9  7  1  0  0  0  0
 10  3  1  0  0  0  0
 10 22  1  0  0  0  0
 11 28  1  6  0  0  0
 12  8  1  0  0  0  0
 13  2  1  0  0  0  0
 14 23  1  0  0  0  0
 17  3  1  6  0  0  0
 17 20  1  0  0  0  0
 17 26  1  0  0  0  0
 18 13  2  0  0  0  0
 19  2  2  0  0  0  0
 20 22  1  6  0  0  0
 20  4  1  0  0  0  0
 21 10  2  0  0  0  0
 23 15  1  0  0  0  0
 25 26  2  0  0  0  0
 25 18  1  0  0  0  0
 26 19  1  0  0  0  0
 27 24  1  6  0  0  0
 27 12  1  0  0  0  0
 28 30  1  0  0  0  0
 30 29  1  0  0  0  0
M  END
>  <MODEL>
4

>  <REMARK>
 VINA RESULT:      -7.4      2.998      6.081
  Name = 
  2 active torsions:
  status: ('A' for Active; 'I' for Inactive)
    1  A    between atoms: C_11  and  C_28
    2  A    between atoms: C_28  and  C_30
                            x       y       z     vdW  Elec       q    Type
                         _______ _______ _______ _____ _____    ______ ____

>  <TORSDO>
F 2

$$$$
=
 OpenBabel11122410243D

 30 35  0  0  1  0  0  0  0  0999 V2000
  188.5050  177.5040  145.6950 C   0  0  1  0  0  3  0  0  0  0  0  0
  186.5600  178.2750  147.1660 C   0  0  0  0  0  0  0  0  0  0  0  0
  186.3170  178.5250  142.3260 C   0  0  0  0  0  2  0  0  0  0  0  0
  189.0230  177.8210  144.2850 C   0  0  1  0  0  3  0  0  0  0  0  0
  189.3770  178.0730  146.6470 O   0  0  0  0  0  0  0  0  0  0  0  0
  192.4280  176.8640  145.2780 O   0  0  0  0  0  0  0  0  0  0  0  0
  190.7490  176.5050  141.8530 C   0  0  1  0  0  3  0  0  0  0  0  0
  191.2090  177.1780  145.3530 C   0  0  0  0  0  0  0  0  0  0  0  0
  189.4590  176.7970  141.1080 C   0  0  2  0  0  3  0  0  0  0  0  0
  187.4350  178.3420  141.3850 C   0  0  0  0  0  0  0  0  0  0  0  0
  190.5560  177.2930  146.7000 C   0  0  2  0  0  3  0  0  0  0  0  0
  190.4380  177.4140  144.1600 N   0  0  0  0  0  0  0  0  0  0  0  0
  185.2160  178.6230  147.3170 C   0  0  0  0  0  3  0  0  0  0  0  0
  189.9220  177.5270  139.8660 C   0  0  0  0  0  2  0  0  0  0  0  0
  191.7950  176.4250  140.7580 C   0  0  0  0  0  2  0  0  0  0  0  0
  187.3630  178.2370  148.3000 O   0  0  0  0  0  1  0  0  0  0  0  0
  186.6390  177.4970  143.4080 C   0  0  1  0  0  3  0  0  0  0  0  0
  184.3610  178.6280  146.2180 C   0  0  0  0  0  3  0  0  0  0  0  0
  187.0760  177.9600  145.8850 C   0  0  0  0  0  0  0  0  0  0  0  0
  188.1350  177.1210  143.2510 C   0  0  1  0  0  3  0  0  0  0  0  0
  187.4400  178.8330  140.2260 O   0  0  0  0  0  0  0  0  0  0  0  0
  188.5010  177.5620  141.9130 N   0  0  0  0  0  0  0  0  0  0  0  0
  191.2610  177.0460  139.5480 N   0  0  0  0  0  2  0  0  0  0  0  0
  191.1780  179.0030  142.4100 C   0  0  0  0  0  1  0  0  0  0  0  0
  184.8450  178.2750  144.9610 C   0  0  0  0  0  3  0  0  0  0  0  0
  186.1940  177.9390  144.7800 C   0  0  0  0  0  0  0  0  0  0  0  0
  191.1690  177.5570  142.8990 C   0  0  2  0  0  3  0  0  0  0  0  0
  190.3250  175.9210  147.3310 C   0  0  0  0  0  2  0  0  0  0  0  0
  192.4290  176.2310  148.3690 F   0  0  0  0  0  0  0  0  0  0  0  0
  191.6500  175.2940  147.7180 C   0  0  0  0  0  2  0  0  0  0  0  0
  1 19  1  6  0  0  0
  1  5  1  0  0  0  0
  2 13  1  0  0  0  0
  2 16  1  0  0  0  0
  4 12  1  1  0  0  0
  4  1  1  0  0  0  0
  5 11  1  0  0  0  0
  6  8  2  0  0  0  0
  7 15  1  6  0  0  0
  7 27  1  0  0  0  0
  8 11  1  0  0  0  0
  9 14  1  6  0  0  0
  9  7  1  0  0  0  0
  9 22  1  0  0  0  0
 10 22  1  0  0  0  0
 10  3  1  0  0  0  0
 11 28  1  6  0  0  0
 12  8  1  0  0  0  0
 17  3  1  6  0  0  0
 17 26  1  0  0  0  0
 18 13  2  0  0  0  0
 19  2  2  0  0  0  0
 20 22  1  6  0  0  0
 20 17  1  0  0  0  0
 20  4  1  0  0  0  0
 21 10  2  0  0  0  0
 23 14  1  0  0  0  0
 23 15  1  0  0  0  0
 25 18  1  0  0  0  0
 26 25  2  0  0  0  0
 26 19  1  0  0  0  0
 27 24  1  6  0  0  0
 27 12  1  0  0  0  0
 28 30  1  0  0  0  0
 30 29  1  0  0  0  0
M  END
>  <MODEL>
5

>  <REMARK>
 VINA RESULT:      -7.2      1.608      1.903
  Name = 
  2 active torsions:
  status: ('A' for Active; 'I' for Inactive)
    1  A    between atoms: C_11  and  C_28
    2  A    between atoms: C_28  and  C_30
                            x       y       z     vdW  Elec       q    Type
                         _______ _______ _______ _____ _____    ______ ____

>  <TORSDO>
F 2

$$$$
=
 OpenBabel11122410243D

 30 35  0  0  1  0  0  0  0  0999 V2000
  188.6600  177.4250  143.2720 C   0  0  1  0  0  3  0  0  0  0  0  0
  188.0600  177.9420  145.7040 C   0  0  0  0  0  0  0  0  0  0  0  0
  185.0560  179.0800  142.0670 C   0  0  0  0  0  2  0  0  0  0  0  0
  188.2860  177.9880  141.8940 C   0  0  1  0  0  3  0  0  0  0  0  0
  189.9850  177.7970  143.5800 O   0  0  0  0  0  0  0  0  0  0  0  0
  191.4780  176.8150  140.5050 O   0  0  0  0  0  0  0  0  0  0  0  0
  188.0810  177.1170  138.7600 C   0  0  1  0  0  3  0  0  0  0  0  0
  190.5840  177.1270  141.3380 C   0  0  0  0  0  0  0  0  0  0  0  0
  186.6460  177.5590  138.9860 C   0  0  2  0  0  3  0  0  0  0  0  0
  185.3760  179.0570  140.6310 C   0  0  0  0  0  0  0  0  0  0  0  0
  190.8660  177.0030  142.8070 C   0  0  2  0  0  3  0  0  0  0  0  0
  189.2960  177.5900  140.8920 N   0  0  0  0  0  0  0  0  0  0  0  0
  187.1150  178.2760  146.6770 C   0  0  0  0  0  3  0  0  0  0  0  0
  186.3770  178.4980  137.8300 C   0  0  0  0  0  2  0  0  0  0  0  0
  188.2660  177.2230  137.2590 C   0  0  0  0  0  2  0  0  0  0  0  0
  189.3630  177.6840  146.1130 O   0  0  0  0  0  1  0  0  0  0  0  0
  185.8230  177.8670  142.5850 C   0  0  1  0  0  3  0  0  0  0  0  0
  185.7860  178.4960  146.3230 C   0  0  0  0  0  3  0  0  0  0  0  0
  187.6830  177.8600  144.3420 C   0  0  0  0  0  0  0  0  0  0  0  0
  186.8830  177.5040  141.5140 C   0  0  1  0  0  3  0  0  0  0  0  0
  184.7600  179.7530  139.7810 O   0  0  0  0  0  0  0  0  0  0  0  0
  186.4450  178.1780  140.3000 N   0  0  0  0  0  0  0  0  0  0  0  0
  187.2030  178.0640  136.7100 N   0  0  0  0  0  2  0  0  0  0  0  0
  189.0550  179.4620  139.2880 C   0  0  0  0  0  1  0  0  0  0  0  0
  185.3930  178.3730  144.9930 C   0  0  0  0  0  3  0  0  0  0  0  0
  186.3260  178.0560  143.9960 C   0  0  0  0  0  0  0  0  0  0  0  0
  189.1580  177.9510  139.4790 C   0  0  2  0  0  3  0  0  0  0  0  0
  190.8840  175.5420  143.2530 C   0  0  0  0  0  2  0  0  0  0  0  0
  191.8640  175.9960  145.3590 F   0  0  0  0  0  0  0  0  0  0  0  0
  192.0540  175.2940  144.1840 C   0  0  0  0  0  2  0  0  0  0  0  0
  1  5  1  1  0  0  0
  1 19  1  0  0  0  0
  2 16  1  0  0  0  0
  2 13  1  0  0  0  0
  4 12  1  6  0  0  0
  4  1  1  0  0  0  0
  6  8  2  0  0  0  0
  7 15  1  6  0  0  0
  7  9  1  0  0  0  0
  7 27  1  0  0  0  0
  8 11  1  0  0  0  0
  9 14  1  6  0  0  0
  9 22  1  0  0  0  0
 10  3  1  0  0  0  0
 11 28  1  1  0  0  0
 11  5  1  0  0  0  0
 12  8  1  0  0  0  0
 17  3  1  6  0  0  0
 17 26  1  0  0  0  0
 18 13  2  0  0  0  0
 19  2  2  0  0  0  0
 20 22  1  6  0  0  0
 20  4  1  0  0  0  0
 20 17  1  0  0  0  0
 21 10  2  0  0  0  0
 22 10  1  0  0  0  0
 23 15  1  0  0  0  0
 23 14  1  0  0  0  0
 25 18  1  0  0  0  0
 26 19  1  0  0  0  0
 26 25  2  0  0  0  0
 27 24  1  1  0  0  0
 27 12  1  0  0  0  0
 28 30  1  0  0  0  0
 30 29  1  0  0  0  0
M  END
>  <MODEL>
6

>  <REMARK>
 VINA RESULT:      -7.1      2.469      4.171
  Name = 
  2 active torsions:
  status: ('A' for Active; 'I' for Inactive)
    1  A    between atoms: C_11  and  C_28
    2  A    between atoms: C_28  and  C_30
                            x       y       z     vdW  Elec       q    Type
                         _______ _______ _______ _____ _____    ______ ____

>  <TORSDO>
F 2

$$$$
=
 OpenBabel11122410243D

 30 35  0  0  1  0  0  0  0  0999 V2000
  189.0520  177.5350  141.8630 C   0  0  1  0  0  3  0  0  0  0  0  0
  189.4880  177.0690  139.3870 C   0  0  0  0  0  0  0  0  0  0  0  0
  185.0810  178.3250  140.9790 C   0  0  0  0  0  2  0  0  0  0  0  0
  187.8410  177.4850  142.8040 C   0  0  1  0  0  3  0  0  0  0  0  0
  189.9130  176.4580  142.1590 O   0  0  0  0  0  0  0  0  0  0  0  0
  190.0510  176.9170  145.6830 O   0  0  0  0  0  0  0  0  0  0  0  0
  186.7110  178.7900  145.5690 C   0  0  1  0  0  3  0  0  0  0  0  0
  189.6480  177.0210  144.4930 C   0  0  0  0  0  0  0  0  0  0  0  0
  185.5780  179.1760  144.6350 C   0  0  2  0  0  3  0  0  0  0  0  0
  184.6450  178.3880  142.3840 C   0  0  0  0  0  0  0  0  0  0  0  0
  190.5980  176.7470  143.3630 C   0  0  2  0  0  3  0  0  0  0  0  0
  188.2920  177.4120  144.2090 N   0  0  0  0  0  0  0  0  0  0  0  0
  189.1040  177.1620  138.0470 C   0  0  0  0  0  3  0  0  0  0  0  0
  184.3370  178.7260  145.3760 C   0  0  0  0  0  2  0  0  0  0  0  0
  186.0800  178.8290  146.9480 C   0  0  0  0  0  2  0  0  0  0  0  0
  190.7260  176.5070  139.6790 O   0  0  0  0  0  1  0  0  0  0  0  0
  186.5200  178.8260  141.0690 C   0  0  1  0  0  3  0  0  0  0  0  0
  187.8960  177.7620  137.7010 C   0  0  0  0  0  3  0  0  0  0  0  0
  188.6350  177.5490  140.4090 C   0  0  0  0  0  0  0  0  0  0  0  0
  186.9530  178.7080  142.5520 C   0  0  1  0  0  3  0  0  0  0  0  0
  183.4390  178.2800  142.7320 O   0  0  0  0  0  0  0  0  0  0  0  0
  185.7130  178.5770  143.3030 N   0  0  0  0  0  0  0  0  0  0  0  0
  184.6260  178.8010  146.8020 N   0  0  0  0  0  2  0  0  0  0  0  0
  186.3510  176.2460  145.2130 C   0  0  0  0  0  1  0  0  0  0  0  0
  187.0680  178.2800  138.6950 C   0  0  0  0  0  3  0  0  0  0  0  0
  187.4240  178.1820  140.0470 C   0  0  0  0  0  0  0  0  0  0  0  0
  187.3390  177.4050  145.3220 C   0  0  2  0  0  3  0  0  0  0  0  0
  191.6180  177.8730  143.2020 C   0  0  0  0  0  2  0  0  0  0  0  0
  190.8900  180.0160  143.8930 F   0  0  0  0  0  0  0  0  0  0  0  0
  191.4940  178.8590  144.3470 C   0  0  0  0  0  2  0  0  0  0  0  0
  1 19  1  6  0  0  0
  1  5  1  0  0  0  0
  1  4  1  0  0  0  0
  2 16  1  0  0  0  0
  2 19  1  0  0  0  0
  3 10  1  0  0  0  0
  4 12  1  1  0  0  0
  5 11  1  0  0  0  0
  7 15  1  1  0  0  0
  8  6  2  0  0  0  0
  9 14  1  1  0  0  0
  9  7  1  0  0  0  0
 10 21  2  0  0  0  0
 10 22  1  0  0  0  0
 11 28  1  6  0  0  0
 11  8  1  0  0  0  0
 12  8  1  0  0  0  0
 12 27  1  0  0  0  0
 13  2  2  0  0  0  0
 14 23  1  0  0  0  0
 17  3  1  1  0  0  0
 17 20  1  0  0  0  0
 18 13  1  0  0  0  0
 18 25  2  0  0  0  0
 20  4  1  0  0  0  0
 20 22  1  1  0  0  0
 22  9  1  0  0  0  0
 23 15  1  0  0  0  0
 25 26  1  0  0  0  0
 26 19  2  0  0  0  0
 26 17  1  0  0  0  0
 27 24  1  6  0  0  0
 27  7  1  0  0  0  0
 28 30  1  0  0  0  0
 29 30  1  0  0  0  0
M  END
>  <MODEL>
7

>  <REMARK>
 VINA RESULT:      -7.1      2.526      5.716
  Name = 
  2 active torsions:
  status: ('A' for Active; 'I' for Inactive)
    1  A    between atoms: C_11  and  C_28
    2  A    between atoms: C_28  and  C_30
                            x       y       z     vdW  Elec       q    Type
                         _______ _______ _______ _____ _____    ______ ____

>  <TORSDO>
F 2

$$$$
=
 OpenBabel11122410243D

 30 35  0  0  1  0  0  0  0  0999 V2000
  184.9680  178.2430  139.3210 C   0  0  1  0  0  3  0  0  0  0  0  0
  182.5650  178.8540  138.6940 C   0  0  0  0  0  0  0  0  0  0  0  0
  185.6670  177.1080  135.3960 C   0  0  0  0  0  2  0  0  0  0  0  0
  186.3120  178.1360  138.5880 C   0  0  1  0  0  3  0  0  0  0  0  0
  184.9830  179.3860  140.1480 O   0  0  0  0  0  0  0  0  0  0  0  0
  188.1180  178.7950  141.7180 O   0  0  0  0  0  0  0  0  0  0  0  0
  189.1890  176.6120  138.7570 C   0  0  1  0  0  3  0  0  0  0  0  0
  187.1800  178.7020  140.8810 C   0  0  0  0  0  0  0  0  0  0  0  0
  188.7510  176.1580  137.3760 C   0  0  2  0  0  3  0  0  0  0  0  0
  187.1200  176.9450  135.5650 C   0  0  0  0  0  0  0  0  0  0  0  0
  185.7920  179.1140  141.2770 C   0  0  2  0  0  3  0  0  0  0  0  0
  187.4260  178.1930  139.5570 N   0  0  0  0  0  0  0  0  0  0  0  0
  181.4840  178.7790  137.8130 C   0  0  0  0  0  3  0  0  0  0  0  0
  189.9540  176.4530  136.5070 C   0  0  0  0  0  2  0  0  0  0  0  0
  190.6970  176.4540  138.7360 C   0  0  0  0  0  2  0  0  0  0  0  0
  182.3870  179.5210  139.9000 O   0  0  0  0  0  1  0  0  0  0  0  0
  185.1420  176.7460  136.7830 C   0  0  1  0  0  3  0  0  0  0  0  0
  181.5980  178.0800  136.6150 C   0  0  0  0  0  3  0  0  0  0  0  0
  183.8010  178.2500  138.3590 C   0  0  0  0  0  0  0  0  0  0  0  0
  186.3370  176.8430  137.7650 C   0  0  1  0  0  3  0  0  0  0  0  0
  187.9230  176.9200  134.5950 O   0  0  0  0  0  0  0  0  0  0  0  0
  187.5250  176.8220  136.9230 N   0  0  0  0  0  0  0  0  0  0  0  0
  191.1400  176.3470  137.3470 N   0  0  0  0  0  2  0  0  0  0  0  0
  189.2010  179.1220  138.1020 C   0  0  0  0  0  1  0  0  0  0  0  0
  182.7940  177.4430  136.2940 C   0  0  0  0  0  3  0  0  0  0  0  0
  183.8990  177.5180  137.1530 C   0  0  0  0  0  0  0  0  0  0  0  0
  188.8210  178.0610  139.1310 C   0  0  2  0  0  3  0  0  0  0  0  0
  185.1540  178.1010  142.2260 C   0  0  0  0  0  2  0  0  0  0  0  0
  184.1110  178.3910  144.3310 F   0  0  0  0  0  0  0  0  0  0  0  0
  184.0220  178.7490  142.9990 C   0  0  0  0  0  2  0  0  0  0  0  0
  1 19  1  6  0  0  0
  1  5  1  0  0  0  0
  2 16  1  0  0  0  0
  3 10  1  0  0  0  0
  4  1  1  0  0  0  0
  4 12  1  1  0  0  0
  5 11  1  0  0  0  0
  7 15  1  6  0  0  0
  7 27  1  0  0  0  0
  8 11  1  0  0  0  0
  8  6  2  0  0  0  0
  9 14  1  6  0  0  0
  9  7  1  0  0  0  0
 10 22  1  0  0  0  0
 11 28  1  6  0  0  0
 12  8  1  0  0  0  0
 13  2  2  0  0  0  0
 14 23  1  0  0  0  0
 17  3  1  6  0  0  0
 17 26  1  0  0  0  0
 17 20  1  0  0  0  0
 18 13  1  0  0  0  0
 19  2  1  0  0  0  0
 20 22  1  6  0  0  0
 20  4  1  0  0  0  0
 21 10  2  0  0  0  0
 22  9  1  0  0  0  0
 23 15  1  0  0  0  0
 25 18  2  0  0  0  0
 25 26  1  0  0  0  0
 26 19  2  0  0  0  0
 27 24  1  6  0  0  0
 27 12  1  0  0  0  0
 28 30  1  0  0  0  0
 30 29  1  0  0  0  0
M  END
>  <MODEL>
8

>  <REMARK>
 VINA RESULT:      -7.0      4.267      6.088
  Name = 
  2 active torsions:
  status: ('A' for Active; 'I' for Inactive)
    1  A    between atoms: C_11  and  C_28
    2  A    between atoms: C_28  and  C_30
                            x       y       z     vdW  Elec       q    Type
                         _______ _______ _______ _____ _____    ______ ____

>  <TORSDO>
F 2

$$$$
=
 OpenBabel11122410243D

 30 35  0  0  1  0  0  0  0  0999 V2000
  186.4610  178.1820  140.5570 C   0  0  1  0  0  3  0  0  0  0  0  0
  188.1870  178.1580  138.6700 C   0  0  0  0  0  0  0  0  0  0  0  0
  189.5330  177.8780  143.3230 C   0  0  0  0  0  2  0  0  0  0  0  0
  186.4460  178.5730  142.0420 C   0  0  1  0  0  3  0  0  0  0  0  0
  185.7480  179.1470  139.8170 O   0  0  0  0  0  0  0  0  0  0  0  0
  182.8430  179.2640  141.8640 O   0  0  0  0  0  0  0  0  0  0  0  0
  184.8770  177.9350  144.8260 C   0  0  1  0  0  3  0  0  0  0  0  0
  184.0290  179.0260  141.5090 C   0  0  0  0  0  0  0  0  0  0  0  0
  186.2900  177.5790  145.2530 C   0  0  2  0  0  3  0  0  0  0  0  0
  188.6760  178.1170  144.4960 C   0  0  0  0  0  0  0  0  0  0  0  0
  184.3650  178.9600  140.0470 C   0  0  2  0  0  3  0  0  0  0  0  0
  185.0590  178.8080  142.4910 N   0  0  0  0  0  0  0  0  0  0  0  0
  189.4810  177.9030  138.2120 C   0  0  0  0  0  3  0  0  0  0  0  0
  186.4680  178.3320  146.5540 C   0  0  0  0  0  2  0  0  0  0  0  0
  184.1600  178.2230  146.1310 C   0  0  0  0  0  2  0  0  0  0  0  0
  187.2290  178.5630  137.7480 O   0  0  0  0  0  1  0  0  0  0  0  0
  188.5720  177.1820  142.3620 C   0  0  1  0  0  3  0  0  0  0  0  0
  190.4630  177.4480  139.0880 C   0  0  0  0  0  3  0  0  0  0  0  0
  187.8690  177.9910  140.0400 C   0  0  0  0  0  0  0  0  0  0  0  0
  187.1350  177.4770  142.8610 C   0  0  1  0  0  3  0  0  0  0  0  0
  189.1330  178.4660  145.6170 O   0  0  0  0  0  0  0  0  0  0  0  0
  187.2910  177.9200  144.2390 N   0  0  0  0  0  0  0  0  0  0  0  0
  185.1550  178.4510  147.1770 N   0  0  0  0  0  2  0  0  0  0  0  0
  185.4790  180.4100  144.3330 C   0  0  0  0  0  1  0  0  0  0  0  0
  190.1520  177.2360  140.4290 C   0  0  0  0  0  3  0  0  0  0  0  0
  188.8650  177.5010  140.9160 C   0  0  0  0  0  0  0  0  0  0  0  0
  184.7500  179.1470  143.8830 C   0  0  2  0  0  3  0  0  0  0  0  0
  183.8310  177.6790  139.4070 C   0  0  0  0  0  2  0  0  0  0  0  0
  184.5990  176.9490  137.2900 F   0  0  0  0  0  0  0  0  0  0  0  0
  183.7430  177.8450  137.9020 C   0  0  0  0  0  2  0  0  0  0  0  0
  1  5  1  6  0  0  0
  1  4  1  0  0  0  0
  2 19  1  0  0  0  0
  3 10  1  0  0  0  0
  4 12  1  1  0  0  0
  4 20  1  0  0  0  0
  5 11  1  0  0  0  0
  7  9  1  0  0  0  0
  7 15  1  1  0  0  0
  8  6  2  0  0  0  0
  8 12  1  0  0  0  0
  9 14  1  1  0  0  0
 10 21  2  0  0  0  0
 11 28  1  1  0  0  0
 11  8  1  0  0  0  0
 12 27  1  0  0  0  0
 13  2  2  0  0  0  0
 13 18  1  0  0  0  0
 14 23  1  0  0  0  0
 15 23  1  0  0  0  0
 16  2  1  0  0  0  0
 17 20  1  0  0  0  0
 17  3  1  1  0  0  0
 18 25  2  0  0  0  0
 19  1  1  0  0  0  0
 19 26  2  0  0  0  0
 20 22  1  1  0  0  0
 22 10  1  0  0  0  0
 22  9  1  0  0  0  0
 25 26  1  0  0  0  0
 26 17  1  0  0  0  0
 27 24  1  1  0  0  0
 27  7  1  0  0  0  0
 29 30  1  0  0  0  0
 30 28  1  0  0  0  0
M  END
>  <MODEL>
9

>  <REMARK>
 VINA RESULT:      -7.0      3.339      7.248
  Name = 
  2 active torsions:
  status: ('A' for Active; 'I' for Inactive)
    1  A    between atoms: C_11  and  C_28
    2  A    between atoms: C_28  and  C_30
                            x       y       z     vdW  Elec       q    Type
                         _______ _______ _______ _____ _____    ______ ____

>  <TORSDO>
F 2

$$$$
