=
 OpenBabel11122411143D

 31 35  0  0  1  0  0  0  0  0999 V2000
  190.0740  175.9200  142.7790 C   0  0  0  0  0  0  0  0  0  0  0  0
  186.7490  177.1960  144.1180 C   0  0  2  0  0  3  0  0  0  0  0  0
  187.0710  178.1010  145.3350 C   0  0  2  0  0  3  0  0  0  0  0  0
  188.5230  178.3800  147.3590 C   0  0  2  0  0  3  0  0  0  0  0  0
  187.9430  177.0070  143.2090 C   0  0  0  0  0  0  0  0  0  0  0  0
  190.2320  176.6780  141.6170 C   0  0  0  0  0  3  0  0  0  0  0  0
  188.1930  177.4780  146.1780 C   0  0  0  0  0  2  0  0  0  0  0  0
  185.9510  179.0000  142.5440 C   0  0  2  0  0  3  0  0  0  0  0  0
  191.0270  175.0290  143.1420 F   0  0  0  0  0  0  0  0  0  0  0  0
  184.8210  178.9300  145.4030 C   0  0  0  0  0  2  0  0  0  0  0  0
  189.5610  177.7100  148.2330 C   0  0  0  0  0  1  0  0  0  0  0  0
  187.0110  178.6530  141.5000 C   0  0  0  0  0  2  0  0  0  0  0  0
  185.5450  177.7430  143.3280 C   0  0  2  0  0  3  0  0  0  0  0  0
  188.9340  176.0820  143.5690 C   0  0  0  0  0  3  0  0  0  0  0  0
  187.2660  178.6490  148.1710 C   0  0  0  0  0  2  0  0  0  0  0  0
  188.1030  177.7660  142.0280 C   0  0  0  0  0  0  0  0  0  0  0  0
  189.2440  177.5900  141.2390 C   0  0  0  0  0  3  0  0  0  0  0  0
  184.3740  178.0150  144.2720 C   0  0  0  0  0  2  0  0  0  0  0  0
  185.8750  178.2880  146.1820 N   0  0  2  0  0  0  0  0  0  0  0  0
  186.1950  179.2300  147.2550 C   0  0  0  0  0  2  0  0  0  0  0  0
  184.0790  177.5670  140.9390 O   0  0  0  0  0  0  0  0  0  0  0  0
  183.8880  178.8050  141.0930 C   0  0  0  0  0  0  0  0  0  0  0  0
  184.7940  179.5820  141.8760 N   0  0  0  0  0  2  0  0  0  0  0  0
  181.5340  177.8700  138.2760 C   0  0  1  0  0  3  0  0  0  0  0  0
  181.4150  178.7000  140.6430 C   0  0  0  0  0  2  0  0  0  0  0  0
  184.1600  180.4750  138.7760 O   0  0  0  0  0  1  0  0  0  0  0  0
  181.4870  176.7320  137.4730 O   0  0  0  0  0  1  0  0  0  0  0  0
  181.3580  177.4690  139.7370 C   0  0  0  0  0  2  0  0  0  0  0  0
  182.9410  179.8210  138.9610 C   0  0  2  0  0  3  0  0  0  0  0  0
  182.7170  179.4860  140.4450 C   0  0  2  0  0  3  0  0  0  0  0  0
  182.8730  178.5740  138.0810 C   0  0  0  0  0  2  0  0  0  0  0  0
  1  9  1  0  0  0  0
  1 14  1  0  0  0  0
  2  5  1  6  0  0  0
  2  3  1  0  0  0  0
  3  7  1  1  0  0  0
  3 19  1  0  0  0  0
  4 15  1  0  0  0  0
  4 11  1  1  0  0  0
  5 14  2  0  0  0  0
  6  1  2  0  0  0  0
  7  4  1  0  0  0  0
  8 23  1  6  0  0  0
  8 13  1  0  0  0  0
 12 16  1  0  0  0  0
 12  8  1  0  0  0  0
 13  2  1  0  0  0  0
 13 18  1  1  0  0  0
 16  5  1  0  0  0  0
 17  6  1  0  0  0  0
 17 16  2  0  0  0  0
 18 10  1  0  0  0  0
 19 10  1  6  0  0  0
 19 20  1  0  0  0  0
 20 15  1  0  0  0  0
 21 22  2  0  0  0  0
 22 23  1  0  0  0  0
 24 27  1  6  0  0  0
 24 28  1  0  0  0  0
 28 25  1  0  0  0  0
 29 26  1  1  0  0  0
 29 30  1  0  0  0  0
 30 25  1  0  0  0  0
 30 22  1  6  0  0  0
 31 24  1  0  0  0  0
 31 29  1  0  0  0  0
M  END
>  <MODEL>
1

>  <REMARK>
 VINA RESULT:      -9.6      0.000      0.000
  Name = 
  2 active torsions:
  status: ('A' for Active; 'I' for Inactive)
    1  A    between atoms: C_5  and  C_30
    2  A    between atoms: C_10  and  N_16
                            x       y       z     vdW  Elec       q    Type
                         _______ _______ _______ _____ _____    ______ ____

>  <TORSDO>
F 2

$$$$
=
 OpenBabel11122411143D

 31 35  0  0  1  0  0  0  0  0999 V2000
  190.1710  175.9680  142.7300 C   0  0  0  0  0  0  0  0  0  0  0  0
  186.6420  177.2280  143.3920 C   0  0  2  0  0  3  0  0  0  0  0  0
  186.7220  178.1590  144.6300 C   0  0  2  0  0  3  0  0  0  0  0  0
  187.7640  178.4930  146.8850 C   0  0  2  0  0  3  0  0  0  0  0  0
  187.9880  177.0360  142.7290 C   0  0  0  0  0  0  0  0  0  0  0  0
  190.5380  176.7060  141.6030 C   0  0  0  0  0  3  0  0  0  0  0  0
  187.6700  177.5660  145.6820 C   0  0  0  0  0  2  0  0  0  0  0  0
  186.1400  178.9920  141.6600 C   0  0  2  0  0  3  0  0  0  0  0  0
  191.0460  175.0960  143.2840 F   0  0  0  0  0  0  0  0  0  0  0  0
  184.4920  178.9620  144.2560 C   0  0  0  0  0  2  0  0  0  0  0  0
  188.6240  177.8520  147.9530 C   0  0  0  0  0  1  0  0  0  0  0  0
  187.3810  178.6390  140.8420 C   0  0  0  0  0  2  0  0  0  0  0  0
  185.6040  177.7460  142.3790 C   0  0  2  0  0  3  0  0  0  0  0  0
  188.9010  176.1310  143.2880 C   0  0  0  0  0  3  0  0  0  0  0  0
  186.3740  178.7620  147.4400 C   0  0  0  0  0  2  0  0  0  0  0  0
  188.3610  177.7760  141.5840 C   0  0  0  0  0  0  0  0  0  0  0  0
  189.6320  177.5980  141.0270 C   0  0  0  0  0  3  0  0  0  0  0  0
  184.2740  178.0200  143.0810 C   0  0  0  0  0  2  0  0  0  0  0  0
  185.3860  178.3470  145.2330 N   0  0  2  0  0  0  0  0  0  0  0  0
  185.4900  179.3130  146.3270 C   0  0  0  0  0  2  0  0  0  0  0  0
  185.1050  177.7140  139.3300 O   0  0  0  0  0  0  0  0  0  0  0  0
  184.6420  178.8500  139.6260 C   0  0  0  0  0  0  0  0  0  0  0  0
  185.1240  179.5480  140.7750 N   0  0  0  0  0  2  0  0  0  0  0  0
  180.9000  178.3850  139.2730 C   0  0  1  0  0  3  0  0  0  0  0  0
  182.5500  180.2460  139.6120 C   0  0  0  0  0  2  0  0  0  0  0  0
  183.8590  177.7910  137.0770 O   0  0  0  0  0  1  0  0  0  0  0  0
  180.0280  177.5140  139.9230 O   0  0  0  0  0  1  0  0  0  0  0  0
  181.5790  179.2850  140.3000 C   0  0  0  0  0  2  0  0  0  0  0  0
  182.9100  178.5240  137.7910 C   0  0  2  0  0  3  0  0  0  0  0  0
  183.5890  179.4950  138.7720 C   0  0  2  0  0  3  0  0  0  0  0  0
  181.9430  177.5800  138.5040 C   0  0  0  0  0  2  0  0  0  0  0  0
  1  9  1  0  0  0  0
  1 14  1  0  0  0  0
  2  5  1  6  0  0  0
  2  3  1  0  0  0  0
  3 19  1  0  0  0  0
  3  7  1  1  0  0  0
  4 15  1  0  0  0  0
  4 11  1  1  0  0  0
  5 14  2  0  0  0  0
  6  1  2  0  0  0  0
  7  4  1  0  0  0  0
  8 23  1  6  0  0  0
  8 13  1  0  0  0  0
 12 16  1  0  0  0  0
 12  8  1  0  0  0  0
 13 18  1  1  0  0  0
 13  2  1  0  0  0  0
 16  5  1  0  0  0  0
 17 16  2  0  0  0  0
 17  6  1  0  0  0  0
 18 10  1  0  0  0  0
 19 10  1  6  0  0  0
 19 20  1  0  0  0  0
 20 15  1  0  0  0  0
 21 22  2  0  0  0  0
 22 23  1  0  0  0  0
 24 27  1  1  0  0  0
 24 28  1  0  0  0  0
 25 28  1  0  0  0  0
 29 26  1  1  0  0  0
 29 31  1  0  0  0  0
 29 30  1  0  0  0  0
 30 25  1  0  0  0  0
 30 22  1  1  0  0  0
 31 24  1  0  0  0  0
M  END
>  <MODEL>
2

>  <REMARK>
 VINA RESULT:      -9.1      1.122      1.376
  Name = 
  2 active torsions:
  status: ('A' for Active; 'I' for Inactive)
    1  A    between atoms: C_5  and  C_30
    2  A    between atoms: C_10  and  N_16
                            x       y       z     vdW  Elec       q    Type
                         _______ _______ _______ _____ _____    ______ ____

>  <TORSDO>
F 2

$$$$
=
 OpenBabel11122411143D

 31 35  0  0  1  0  0  0  0  0999 V2000
  191.3680  176.3530  144.5250 C   0  0  0  0  0  0  0  0  0  0  0  0
  187.7130  177.0910  143.7660 C   0  0  2  0  0  3  0  0  0  0  0  0
  187.2340  178.1210  144.8220 C   0  0  2  0  0  3  0  0  0  0  0  0
  187.3520  178.7970  147.2330 C   0  0  2  0  0  3  0  0  0  0  0  0
  189.2200  177.0610  143.6360 C   0  0  0  0  0  0  0  0  0  0  0  0
  192.0240  177.0460  143.5060 C   0  0  0  0  0  3  0  0  0  0  0  0
  187.8050  177.7720  146.2030 C   0  0  0  0  0  2  0  0  0  0  0  0
  187.6590  178.6090  141.7510 C   0  0  2  0  0  3  0  0  0  0  0  0
  192.0840  175.6780  145.4550 F   0  0  0  0  0  0  0  0  0  0  0  0
  185.2070  178.5300  143.6050 C   0  0  0  0  0  2  0  0  0  0  0  0
  187.8420  178.3880  148.6050 C   0  0  0  0  0  1  0  0  0  0  0  0
  189.1430  178.3900  141.4610 C   0  0  0  0  0  2  0  0  0  0  0  0
  187.0530  177.3560  142.4000 C   0  0  2  0  0  3  0  0  0  0  0  0
  189.9730  176.3590  144.5880 C   0  0  0  0  0  3  0  0  0  0  0  0
  185.8330  178.8870  147.2380 C   0  0  0  0  0  2  0  0  0  0  0  0
  189.8880  177.7550  142.6010 C   0  0  0  0  0  0  0  0  0  0  0  0
  191.2850  177.7350  142.5420 C   0  0  0  0  0  3  0  0  0  0  0  0
  185.5380  177.4730  142.5600 C   0  0  0  0  0  2  0  0  0  0  0  0
  185.7580  178.1450  144.9000 N   0  0  2  0  0  0  0  0  0  0  0  0
  185.3480  179.2010  145.8270 C   0  0  0  0  0  2  0  0  0  0  0  0
  188.0420  177.2620  139.2660 O   0  0  0  0  0  0  0  0  0  0  0  0
  187.2010  178.2020  139.2960 C   0  0  0  0  0  0  0  0  0  0  0  0
  186.9690  178.9240  140.5060 N   0  0  0  0  0  2  0  0  0  0  0  0
  186.6500  176.5600  135.9280 C   0  0  1  0  0  3  0  0  0  0  0  0
  185.2970  177.6150  137.7610 C   0  0  0  0  0  2  0  0  0  0  0  0
  188.4140  179.6260  137.1200 O   0  0  0  0  0  1  0  0  0  0  0  0
  187.1190  175.3490  135.4210 O   0  0  0  0  0  1  0  0  0  0  0  0
  185.8160  176.2990  137.1780 C   0  0  0  0  0  2  0  0  0  0  0  0
  187.3340  178.7920  136.8240 C   0  0  2  0  0  3  0  0  0  0  0  0
  186.4410  178.5900  138.0600 C   0  0  2  0  0  3  0  0  0  0  0  0
  187.8340  177.4630  136.2610 C   0  0  0  0  0  2  0  0  0  0  0  0
  1 14  1  0  0  0  0
  1  9  1  0  0  0  0
  2  5  1  6  0  0  0
  2  3  1  0  0  0  0
  3 19  1  0  0  0  0
  3  7  1  1  0  0  0
  4 15  1  0  0  0  0
  4 11  1  1  0  0  0
  5 14  2  0  0  0  0
  6  1  2  0  0  0  0
  7  4  1  0  0  0  0
  8 23  1  6  0  0  0
  8 13  1  0  0  0  0
 12  8  1  0  0  0  0
 12 16  1  0  0  0  0
 13 18  1  1  0  0  0
 13  2  1  0  0  0  0
 16  5  1  0  0  0  0
 17 16  2  0  0  0  0
 17  6  1  0  0  0  0
 18 10  1  0  0  0  0
 19 10  1  6  0  0  0
 19 20  1  0  0  0  0
 20 15  1  0  0  0  0
 21 22  2  0  0  0  0
 22 23  1  0  0  0  0
 24 27  1  1  0  0  0
 24 31  1  0  0  0  0
 24 28  1  0  0  0  0
 25 30  1  0  0  0  0
 28 25  1  0  0  0  0
 29 26  1  1  0  0  0
 29 30  1  0  0  0  0
 30 22  1  1  0  0  0
 31 29  1  0  0  0  0
M  END
>  <MODEL>
3

>  <REMARK>
 VINA RESULT:      -8.6      2.724      3.242
  Name = 
  2 active torsions:
  status: ('A' for Active; 'I' for Inactive)
    1  A    between atoms: C_5  and  C_30
    2  A    between atoms: C_10  and  N_16
                            x       y       z     vdW  Elec       q    Type
                         _______ _______ _______ _____ _____    ______ ____

>  <TORSDO>
F 2

$$$$
=
 OpenBabel11122411143D

 31 35  0  0  1  0  0  0  0  0999 V2000
  185.1240  178.5790  139.0510 C   0  0  0  0  0  0  0  0  0  0  0  0
  188.8310  178.1310  139.7830 C   0  0  2  0  0  3  0  0  0  0  0  0
  188.9370  177.1720  140.9970 C   0  0  2  0  0  3  0  0  0  0  0  0
  187.9480  176.5500  143.2150 C   0  0  2  0  0  3  0  0  0  0  0  0
  187.4910  178.0320  139.0870 C   0  0  0  0  0  0  0  0  0  0  0  0
  184.9580  177.8090  137.8990 C   0  0  0  0  0  3  0  0  0  0  0  0
  187.8560  177.5070  142.0350 C   0  0  0  0  0  2  0  0  0  0  0  0
  189.7570  176.5740  138.0270 C   0  0  2  0  0  3  0  0  0  0  0  0
  184.0620  179.2160  139.6000 F   0  0  0  0  0  0  0  0  0  0  0  0
  191.2980  176.9040  140.6680 C   0  0  0  0  0  2  0  0  0  0  0  0
  186.9420  176.9500  144.2720 C   0  0  0  0  0  1  0  0  0  0  0  0
  188.4870  176.6600  137.1830 C   0  0  0  0  0  2  0  0  0  0  0  0
  189.9810  177.8890  138.7880 C   0  0  2  0  0  3  0  0  0  0  0  0
  186.3850  178.6920  139.6400 C   0  0  0  0  0  3  0  0  0  0  0  0
  189.3500  176.5860  143.8020 C   0  0  0  0  0  2  0  0  0  0  0  0
  187.3210  177.2590  137.9160 C   0  0  0  0  0  0  0  0  0  0  0  0
  186.0550  177.1600  137.3280 C   0  0  0  0  0  3  0  0  0  0  0  0
  191.3230  177.9020  139.5200 C   0  0  0  0  0  2  0  0  0  0  0  0
  190.2670  177.2740  141.6320 N   0  0  2  0  0  0  0  0  0  0  0  0
  190.3600  176.2800  142.7030 C   0  0  0  0  0  2  0  0  0  0  0  0
  191.2000  174.1140  137.9570 O   0  0  0  0  0  0  0  0  0  0  0  0
  191.5650  175.0270  137.1670 C   0  0  0  0  0  0  0  0  0  0  0  0
  190.8920  176.2860  137.1580 N   0  0  0  0  0  2  0  0  0  0  0  0
  194.8400  173.1410  137.4270 C   0  0  1  0  0  3  0  0  0  0  0  0
  192.8910  173.3370  135.8570 C   0  0  0  0  0  2  0  0  0  0  0  0
  193.8710  176.7350  137.1480 O   0  0  0  0  0  1  0  0  0  0  0  0
  195.3780  172.3970  138.4750 O   0  0  0  0  0  1  0  0  0  0  0  0
  193.5080  172.5320  137.0020 C   0  0  0  0  0  2  0  0  0  0  0  0
  194.0450  175.4110  136.7410 C   0  0  2  0  0  3  0  0  0  0  0  0
  192.7220  174.8140  136.2320 C   0  0  2  0  0  3  0  0  0  0  0  0
  194.6400  174.5840  137.8800 C   0  0  0  0  0  2  0  0  0  0  0  0
  1  9  1  0  0  0  0
  1 14  1  0  0  0  0
  2  5  1  6  0  0  0
  2  3  1  0  0  0  0
  3 19  1  0  0  0  0
  3  7  1  1  0  0  0
  4 15  1  0  0  0  0
  4 11  1  1  0  0  0
  5 14  2  0  0  0  0
  6  1  2  0  0  0  0
  7  4  1  0  0  0  0
  8 23  1  6  0  0  0
  8 13  1  0  0  0  0
 12 16  1  0  0  0  0
 12  8  1  0  0  0  0
 13 18  1  1  0  0  0
 13  2  1  0  0  0  0
 16  5  1  0  0  0  0
 17  6  1  0  0  0  0
 17 16  2  0  0  0  0
 18 10  1  0  0  0  0
 19 10  1  6  0  0  0
 19 20  1  0  0  0  0
 20 15  1  0  0  0  0
 22 21  2  0  0  0  0
 23 22  1  0  0  0  0
 24 31  1  0  0  0  0
 24 27  1  1  0  0  0
 25 30  1  0  0  0  0
 25 28  1  0  0  0  0
 28 24  1  0  0  0  0
 29 26  1  1  0  0  0
 29 31  1  0  0  0  0
 30 29  1  0  0  0  0
 30 22  1  1  0  0  0
M  END
>  <MODEL>
4

>  <REMARK>
 VINA RESULT:      -8.2      5.441      8.586
  Name = 
  2 active torsions:
  status: ('A' for Active; 'I' for Inactive)
    1  A    between atoms: C_5  and  C_30
    2  A    between atoms: C_10  and  N_16
                            x       y       z     vdW  Elec       q    Type
                         _______ _______ _______ _____ _____    ______ ____

>  <TORSDO>
F 2

$$$$
=
 OpenBabel11122411143D

 31 35  0  0  1  0  0  0  0  0999 V2000
  190.4830  176.7930  145.8200 C   0  0  0  0  0  0  0  0  0  0  0  0
  187.7150  177.2920  143.2570 C   0  0  2  0  0  3  0  0  0  0  0  0
  186.7350  178.3370  143.8520 C   0  0  2  0  0  3  0  0  0  0  0  0
  185.5830  179.1190  145.9360 C   0  0  2  0  0  3  0  0  0  0  0  0
  189.0760  177.3410  143.9160 C   0  0  0  0  0  0  0  0  0  0  0  0
  191.5500  177.4780  145.2350 C   0  0  0  0  0  3  0  0  0  0  0  0
  186.5270  178.0790  145.3510 C   0  0  0  0  0  2  0  0  0  0  0  0
  188.6600  178.7180  141.4020 C   0  0  2  0  0  3  0  0  0  0  0  0
  190.6380  176.1990  147.0260 F   0  0  0  0  0  0  0  0  0  0  0  0
  185.6080  178.5800  141.7470 C   0  0  0  0  0  2  0  0  0  0  0  0
  185.3110  178.7960  147.3890 C   0  0  0  0  0  1  0  0  0  0  0  0
  190.0880  178.5710  141.9250 C   0  0  0  0  0  2  0  0  0  0  0  0
  187.8410  177.4610  141.7310 C   0  0  2  0  0  3  0  0  0  0  0  0
  189.2530  176.7230  145.1620 C   0  0  0  0  0  3  0  0  0  0  0  0
  184.2750  179.1240  145.1600 C   0  0  0  0  0  2  0  0  0  0  0  0
  190.1610  178.0270  143.3230 C   0  0  0  0  0  0  0  0  0  0  0  0
  191.3910  178.0830  143.9870 C   0  0  0  0  0  3  0  0  0  0  0  0
  186.4550  177.5000  141.0890 C   0  0  0  0  0  2  0  0  0  0  0  0
  185.4270  178.2810  143.1640 N   0  0  2  0  0  0  0  0  0  0  0  0
  184.5720  179.3500  143.6820 C   0  0  0  0  0  2  0  0  0  0  0  0
  189.9110  177.0010  139.4990 O   0  0  0  0  0  0  0  0  0  0  0  0
  189.3350  178.0350  139.0620 C   0  0  0  0  0  0  0  0  0  0  0  0
  188.6980  178.9410  139.9620 N   0  0  0  0  0  2  0  0  0  0  0  0
  187.4940  176.5690  136.0930 C   0  0  1  0  0  3  0  0  0  0  0  0
  187.9420  178.8170  137.1180 C   0  0  0  0  0  2  0  0  0  0  0  0
  191.0590  176.7080  137.1910 O   0  0  0  0  0  1  0  0  0  0  0  0
  186.5780  175.5220  136.0200 O   0  0  0  0  0  1  0  0  0  0  0  0
  186.9500  177.6580  137.0130 C   0  0  0  0  0  2  0  0  0  0  0  0
  189.8360  177.1860  136.7160 C   0  0  2  0  0  3  0  0  0  0  0  0
  189.3200  178.3400  137.5910 C   0  0  2  0  0  3  0  0  0  0  0  0
  188.8240  176.0450  136.6250 C   0  0  0  0  0  2  0  0  0  0  0  0
  1  9  1  0  0  0  0
  2  3  1  0  0  0  0
  2  5  1  1  0  0  0
  3  7  1  1  0  0  0
  4 11  1  1  0  0  0
  5 14  1  0  0  0  0
  6  1  1  0  0  0  0
  7  4  1  0  0  0  0
  8 23  1  6  0  0  0
  8 13  1  0  0  0  0
  8 12  1  0  0  0  0
 12 16  1  0  0  0  0
 13 18  1  6  0  0  0
 13  2  1  0  0  0  0
 14  1  2  0  0  0  0
 15  4  1  0  0  0  0
 16  5  2  0  0  0  0
 16 17  1  0  0  0  0
 17  6  2  0  0  0  0
 18 10  1  0  0  0  0
 19 10  1  6  0  0  0
 19 20  1  0  0  0  0
 19  3  1  0  0  0  0
 20 15  1  0  0  0  0
 22 21  2  0  0  0  0
 22 23  1  0  0  0  0
 24 27  1  1  0  0  0
 24 31  1  0  0  0  0
 24 28  1  0  0  0  0
 25 30  1  0  0  0  0
 28 25  1  0  0  0  0
 29 26  1  1  0  0  0
 29 30  1  0  0  0  0
 30 22  1  1  0  0  0
 31 29  1  0  0  0  0
M  END
>  <MODEL>
5

>  <REMARK>
 VINA RESULT:      -7.9      3.347      4.680
  Name = 
  2 active torsions:
  status: ('A' for Active; 'I' for Inactive)
    1  A    between atoms: C_5  and  C_30
    2  A    between atoms: C_10  and  N_16
                            x       y       z     vdW  Elec       q    Type
                         _______ _______ _______ _____ _____    ______ ____

>  <TORSDO>
F 2

$$$$
=
 OpenBabel11122411143D

 31 35  0  0  1  0  0  0  0  0999 V2000
  188.3880  178.1800  143.7960 C   0  0  0  0  0  0  0  0  0  0  0  0
  186.4050  178.9280  140.6360 C   0  0  2  0  0  3  0  0  0  0  0  0
  186.8360  177.8810  139.5760 C   0  0  2  0  0  3  0  0  0  0  0  0
  188.7690  176.6040  138.6190 C   0  0  2  0  0  3  0  0  0  0  0  0
  186.7300  178.4860  142.0460 C   0  0  0  0  0  0  0  0  0  0  0  0
  187.4210  177.5970  144.6170 C   0  0  0  0  0  3  0  0  0  0  0  0
  188.3520  177.6480  139.6450 C   0  0  0  0  0  2  0  0  0  0  0  0
  184.0530  178.0930  141.0130 C   0  0  2  0  0  3  0  0  0  0  0  0
  189.6610  178.3120  144.2370 F   0  0  0  0  0  0  0  0  0  0  0  0
  185.0290  178.5030  138.1260 C   0  0  0  0  0  2  0  0  0  0  0  0
  190.2750  176.4550  138.6310 C   0  0  0  0  0  1  0  0  0  0  0  0
  184.2990  177.8710  142.5050 C   0  0  0  0  0  2  0  0  0  0  0  0
  184.9070  179.2630  140.5020 C   0  0  2  0  0  3  0  0  0  0  0  0
  188.0430  178.6240  142.5180 C   0  0  0  0  0  3  0  0  0  0  0  0
  188.3070  177.0270  137.2330 C   0  0  0  0  0  2  0  0  0  0  0  0
  185.7520  177.9030  142.8830 C   0  0  0  0  0  0  0  0  0  0  0  0
  186.1060  177.4690  144.1650 C   0  0  0  0  0  3  0  0  0  0  0  0
  184.5750  179.6200  139.0530 C   0  0  0  0  0  2  0  0  0  0  0  0
  186.4750  178.3320  138.2160 N   0  0  2  0  0  0  0  0  0  0  0  0
  186.8030  177.2710  137.2610 C   0  0  0  0  0  2  0  0  0  0  0  0
  182.2160  176.3190  139.7430 O   0  0  0  0  0  0  0  0  0  0  0  0
  181.7690  177.4230  140.1590 C   0  0  0  0  0  0  0  0  0  0  0  0
  182.6370  178.3610  140.7940 N   0  0  0  0  0  2  0  0  0  0  0  0
  179.4800  179.9930  141.7400 C   0  0  1  0  0  3  0  0  0  0  0  0
  180.1410  179.2050  139.4500 C   0  0  0  0  0  2  0  0  0  0  0  0
  179.6860  176.2660  141.7580 O   0  0  0  0  0  1  0  0  0  0  0  0
  179.7300  180.9480  142.7240 O   0  0  0  0  0  1  0  0  0  0  0  0
  180.3890  180.2470  140.5420 C   0  0  0  0  0  2  0  0  0  0  0  0
  179.4670  177.5430  141.2380 C   0  0  2  0  0  3  0  0  0  0  0  0
  180.3200  177.7780  139.9800 C   0  0  2  0  0  3  0  0  0  0  0  0
  179.7330  178.6000  142.3090 C   0  0  0  0  0  2  0  0  0  0  0  0
  1  9  1  0  0  0  0
  1  6  1  0  0  0  0
  2  5  1  1  0  0  0
  3  7  1  6  0  0  0
  3  2  1  0  0  0  0
  4 11  1  6  0  0  0
  4  7  1  0  0  0  0
  5 14  1  0  0  0  0
  5 16  2  0  0  0  0
  8 23  1  1  0  0  0
  8 12  1  0  0  0  0
 10 19  1  0  0  0  0
 10 18  1  0  0  0  0
 12 16  1  0  0  0  0
 13 18  1  6  0  0  0
 13  2  1  0  0  0  0
 13  8  1  0  0  0  0
 14  1  2  0  0  0  0
 15 20  1  0  0  0  0
 15  4  1  0  0  0  0
 16 17  1  0  0  0  0
 17  6  2  0  0  0  0
 19 20  1  6  0  0  0
 19  3  1  0  0  0  0
 21 22  2  0  0  0  0
 22 23  1  0  0  0  0
 24 31  1  0  0  0  0
 24 27  1  1  0  0  0
 25 30  1  0  0  0  0
 25 28  1  0  0  0  0
 28 24  1  0  0  0  0
 29 26  1  1  0  0  0
 29 31  1  0  0  0  0
 30 22  1  1  0  0  0
 30 29  1  0  0  0  0
M  END
>  <MODEL>
6

>  <REMARK>
 VINA RESULT:      -7.8      2.590      5.545
  Name = 
  2 active torsions:
  status: ('A' for Active; 'I' for Inactive)
    1  A    between atoms: C_5  and  C_30
    2  A    between atoms: C_10  and  N_16
                            x       y       z     vdW  Elec       q    Type
                         _______ _______ _______ _____ _____    ______ ____

>  <TORSDO>
F 2

$$$$
=
 OpenBabel11122411143D

 31 35  0  0  1  0  0  0  0  0999 V2000
  189.1820  178.0900  143.5350 C   0  0  0  0  0  0  0  0  0  0  0  0
  186.7130  178.9590  140.7740 C   0  0  2  0  0  3  0  0  0  0  0  0
  186.9410  177.9380  139.6290 C   0  0  2  0  0  3  0  0  0  0  0  0
  188.6620  176.6630  138.3270 C   0  0  2  0  0  3  0  0  0  0  0  0
  187.2610  178.4710  142.0960 C   0  0  0  0  0  0  0  0  0  0  0  0
  188.3560  177.4970  144.4910 C   0  0  0  0  0  3  0  0  0  0  0  0
  188.4430  177.6820  139.4360 C   0  0  0  0  0  2  0  0  0  0  0  0
  184.4430  178.1470  141.5170 C   0  0  2  0  0  3  0  0  0  0  0  0
  190.5140  178.1910  143.7600 F   0  0  0  0  0  0  0  0  0  0  0  0
  184.9290  178.6280  138.5190 C   0  0  0  0  0  2  0  0  0  0  0  0
  190.1460  176.4930  138.0820 C   0  0  0  0  0  1  0  0  0  0  0  0
  184.9300  177.8780  142.9400 C   0  0  0  0  0  2  0  0  0  0  0  0
  185.2210  179.3190  140.9010 C   0  0  2  0  0  3  0  0  0  0  0  0
  188.6370  178.5770  142.3450 C   0  0  0  0  0  3  0  0  0  0  0  0
  187.9830  177.1330  137.0500 C   0  0  0  0  0  2  0  0  0  0  0  0
  186.4260  177.8780  143.0700 C   0  0  0  0  0  0  0  0  0  0  0  0
  186.9810  177.4010  144.2630 C   0  0  0  0  0  3  0  0  0  0  0  0
  184.6580  179.7240  139.5390 C   0  0  0  0  0  2  0  0  0  0  0  0
  186.3670  178.4340  138.3610 N   0  0  2  0  0  0  0  0  0  0  0  0
  186.5100  177.3980  137.3370 C   0  0  0  0  0  2  0  0  0  0  0  0
  182.4490  176.8010  139.9840 O   0  0  0  0  0  0  0  0  0  0  0  0
  182.0670  177.7210  140.7580 C   0  0  0  0  0  0  0  0  0  0  0  0
  183.0150  178.4410  141.5470 N   0  0  0  0  0  2  0  0  0  0  0  0
  179.0480  177.0880  138.5610 C   0  0  1  0  0  3  0  0  0  0  0  0
  179.7180  176.8460  140.9690 C   0  0  0  0  0  2  0  0  0  0  0  0
  180.9910  180.1060  139.5830 O   0  0  0  0  0  1  0  0  0  0  0  0
  178.9340  176.4160  137.3460 O   0  0  0  0  0  1  0  0  0  0  0  0
  179.5750  176.1300  139.6250 C   0  0  0  0  0  2  0  0  0  0  0  0
  180.1330  179.0150  139.7280 C   0  0  2  0  0  3  0  0  0  0  0  0
  180.6130  178.0850  140.8560 C   0  0  2  0  0  3  0  0  0  0  0  0
  179.9960  178.2720  138.4000 C   0  0  0  0  0  2  0  0  0  0  0  0
  1  9  1  0  0  0  0
  1  6  1  0  0  0  0
  2 13  1  0  0  0  0
  2  5  1  1  0  0  0
  3  7  1  6  0  0  0
  3  2  1  0  0  0  0
  4 11  1  6  0  0  0
  4  7  1  0  0  0  0
  5 14  1  0  0  0  0
  5 16  2  0  0  0  0
  8 23  1  1  0  0  0
  8 12  1  0  0  0  0
 10 18  1  0  0  0  0
 12 16  1  0  0  0  0
 13 18  1  6  0  0  0
 13  8  1  0  0  0  0
 14  1  2  0  0  0  0
 15 20  1  0  0  0  0
 15  4  1  0  0  0  0
 16 17  1  0  0  0  0
 17  6  2  0  0  0  0
 19 20  1  6  0  0  0
 19 10  1  0  0  0  0
 19  3  1  0  0  0  0
 21 22  2  0  0  0  0
 22 23  1  0  0  0  0
 24 27  1  6  0  0  0
 24 28  1  0  0  0  0
 28 25  1  0  0  0  0
 29 26  1  6  0  0  0
 29 30  1  0  0  0  0
 30 22  1  6  0  0  0
 30 25  1  0  0  0  0
 31 24  1  0  0  0  0
 31 29  1  0  0  0  0
M  END
>  <MODEL>
7

>  <REMARK>
 VINA RESULT:      -7.7      2.381      5.068
  Name = 
  2 active torsions:
  status: ('A' for Active; 'I' for Inactive)
    1  A    between atoms: C_5  and  C_30
    2  A    between atoms: C_10  and  N_16
                            x       y       z     vdW  Elec       q    Type
                         _______ _______ _______ _____ _____    ______ ____

>  <TORSDO>
F 2

$$$$
=
 OpenBabel11122411143D

 31 35  0  0  1  0  0  0  0  0999 V2000
  183.5090  178.8740  143.9010 C   0  0  0  0  0  0  0  0  0  0  0  0
  182.6140  178.0910  140.2870 C   0  0  2  0  0  3  0  0  0  0  0  0
  181.7640  179.2790  139.7660 C   0  0  2  0  0  3  0  0  0  0  0  0
  179.9620  180.9230  140.3440 C   0  0  2  0  0  3  0  0  0  0  0  0
  183.4270  178.4580  141.5080 C   0  0  0  0  0  0  0  0  0  0  0  0
  184.8560  179.2240  143.8000 C   0  0  0  0  0  3  0  0  0  0  0  0
  180.7790  179.7430  140.8490 C   0  0  0  0  0  2  0  0  0  0  0  0
  184.6790  178.5060  138.8980 C   0  0  2  0  0  3  0  0  0  0  0  0
  182.8880  178.9090  145.1040 F   0  0  0  0  0  0  0  0  0  0  0  0
  181.9390  178.5030  137.5030 C   0  0  0  0  0  2  0  0  0  0  0  0
  178.9310  181.3070  141.3830 C   0  0  0  0  0  1  0  0  0  0  0  0
  185.5670  178.6380  140.1350 C   0  0  0  0  0  2  0  0  0  0  0  0
  183.5230  177.5350  139.1740 C   0  0  2  0  0  3  0  0  0  0  0  0
  182.7990  178.4910  142.7610 C   0  0  0  0  0  3  0  0  0  0  0  0
  179.2650  180.5500  139.0440 C   0  0  0  0  0  2  0  0  0  0  0  0
  184.7940  178.8050  141.4110 C   0  0  0  0  0  0  0  0  0  0  0  0
  185.4980  179.1800  142.5610 C   0  0  0  0  0  3  0  0  0  0  0  0
  182.7030  177.2530  137.9160 C   0  0  0  0  0  2  0  0  0  0  0  0
  181.0080  178.8930  138.5560 N   0  0  2  0  0  0  0  0  0  0  0  0
  180.3050  180.0690  138.0400 C   0  0  0  0  0  2  0  0  0  0  0  0
  187.5260  178.6200  138.7500 O   0  0  0  0  0  0  0  0  0  0  0  0
  186.9100  178.1150  137.7710 C   0  0  0  0  0  0  0  0  0  0  0  0
  185.4850  178.0370  137.7770 N   0  0  0  0  0  2  0  0  0  0  0  0
  189.7930  175.7000  137.3220 C   0  0  1  0  0  3  0  0  0  0  0  0
  187.4910  176.0880  136.3990 C   0  0  0  0  0  2  0  0  0  0  0  0
  189.3040  179.3630  136.7980 O   0  0  0  0  0  1  0  0  0  0  0  0
  190.5290  174.9800  138.2610 O   0  0  0  0  0  1  0  0  0  0  0  0
  188.3230  175.3040  137.4150 C   0  0  0  0  0  2  0  0  0  0  0  0
  189.1490  177.9950  136.5660 C   0  0  2  0  0  3  0  0  0  0  0  0
  187.6620  177.6010  136.5770 C   0  0  2  0  0  3  0  0  0  0  0  0
  189.9550  177.1940  137.5860 C   0  0  0  0  0  2  0  0  0  0  0  0
  1  9  1  0  0  0  0
  2  5  1  1  0  0  0
  3  2  1  0  0  0  0
  3  7  1  1  0  0  0
  4  7  1  0  0  0  0
  4 11  1  1  0  0  0
  5 14  1  0  0  0  0
  6  1  1  0  0  0  0
  8 23  1  6  0  0  0
  8 13  1  0  0  0  0
  8 12  1  0  0  0  0
 10 18  1  0  0  0  0
 12 16  1  0  0  0  0
 13 18  1  6  0  0  0
 13  2  1  0  0  0  0
 14  1  2  0  0  0  0
 15  4  1  0  0  0  0
 16  5  2  0  0  0  0
 16 17  1  0  0  0  0
 17  6  2  0  0  0  0
 19 10  1  6  0  0  0
 19  3  1  0  0  0  0
 20 19  1  0  0  0  0
 20 15  1  0  0  0  0
 22 23  1  0  0  0  0
 22 21  2  0  0  0  0
 24 28  1  0  0  0  0
 24 31  1  0  0  0  0
 24 27  1  1  0  0  0
 25 30  1  0  0  0  0
 25 28  1  0  0  0  0
 29 30  1  0  0  0  0
 29 26  1  1  0  0  0
 29 31  1  0  0  0  0
 30 22  1  1  0  0  0
M  END
>  <MODEL>
8

>  <REMARK>
 VINA RESULT:      -7.5      4.090      7.584
  Name = 
  2 active torsions:
  status: ('A' for Active; 'I' for Inactive)
    1  A    between atoms: C_5  and  C_30
    2  A    between atoms: C_10  and  N_16
                            x       y       z     vdW  Elec       q    Type
                         _______ _______ _______ _____ _____    ______ ____

>  <TORSDO>
F 2

$$$$
=
 OpenBabel11122411143D

 31 35  0  0  1  0  0  0  0  0999 V2000
  184.9660  179.5130  144.9220 C   0  0  0  0  0  0  0  0  0  0  0  0
  185.3800  179.3490  141.1430 C   0  0  2  0  0  3  0  0  0  0  0  0
  186.4790  178.2930  140.8570 C   0  0  2  0  0  3  0  0  0  0  0  0
  188.6870  177.3730  141.6050 C   0  0  2  0  0  3  0  0  0  0  0  0
  184.7760  179.1900  142.5210 C   0  0  0  0  0  0  0  0  0  0  0  0
  183.7560  178.8430  145.1130 C   0  0  0  0  0  3  0  0  0  0  0  0
  187.6210  178.4240  141.8750 C   0  0  0  0  0  2  0  0  0  0  0  0
  183.4120  178.0590  140.2300 C   0  0  2  0  0  3  0  0  0  0  0  0
  185.6510  179.9910  145.9870 F   0  0  0  0  0  0  0  0  0  0  0  0
  185.9550  178.2810  138.5160 C   0  0  0  0  0  2  0  0  0  0  0  0
  189.8490  177.5750  142.5530 C   0  0  0  0  0  1  0  0  0  0  0  0
  182.6750  178.1050  141.5680 C   0  0  0  0  0  2  0  0  0  0  0  0
  184.2850  179.3110  140.0610 C   0  0  2  0  0  3  0  0  0  0  0  0
  185.4710  179.6870  143.6320 C   0  0  0  0  0  3  0  0  0  0  0  0
  189.1730  177.4850  140.1680 C   0  0  0  0  0  2  0  0  0  0  0  0
  183.5470  178.5190  142.7180 C   0  0  0  0  0  0  0  0  0  0  0  0
  183.0450  178.3580  144.0140 C   0  0  0  0  0  3  0  0  0  0  0  0
  184.9160  179.3820  138.6700 C   0  0  0  0  0  2  0  0  0  0  0  0
  187.0240  178.4590  139.4930 N   0  0  2  0  0  0  0  0  0  0  0  0
  187.9780  177.3810  139.2280 C   0  0  0  0  0  2  0  0  0  0  0  0
  183.0510  175.7970  138.5310 O   0  0  0  0  0  0  0  0  0  0  0  0
  182.3040  176.7950  138.3400 C   0  0  0  0  0  0  0  0  0  0  0  0
  182.4390  177.9630  139.1490 N   0  0  0  0  0  2  0  0  0  0  0  0
  179.7080  179.2830  137.1490 C   0  0  1  0  0  3  0  0  0  0  0  0
  181.5370  177.8550  136.1910 C   0  0  0  0  0  2  0  0  0  0  0  0
  179.6040  175.9300  138.7850 O   0  0  0  0  0  1  0  0  0  0  0  0
  179.3940  180.5590  137.6110 O   0  0  0  0  0  1  0  0  0  0  0  0
  181.1640  179.2490  136.6960 C   0  0  0  0  0  2  0  0  0  0  0  0
  179.8240  176.8630  137.7710 C   0  0  2  0  0  3  0  0  0  0  0  0
  181.2690  176.7800  137.2510 C   0  0  2  0  0  3  0  0  0  0  0  0
  179.4780  178.2680  138.2640 C   0  0  0  0  0  2  0  0  0  0  0  0
  1  6  1  0  0  0  0
  1  9  1  0  0  0  0
  2  5  1  1  0  0  0
  3  2  1  0  0  0  0
  3  7  1  1  0  0  0
  4  7  1  0  0  0  0
  4 11  1  1  0  0  0
  5 16  2  0  0  0  0
  5 14  1  0  0  0  0
  8 23  1  6  0  0  0
  8 12  1  0  0  0  0
 10 18  1  0  0  0  0
 12 16  1  0  0  0  0
 13 18  1  6  0  0  0
 13  8  1  0  0  0  0
 13  2  1  0  0  0  0
 14  1  2  0  0  0  0
 15  4  1  0  0  0  0
 16 17  1  0  0  0  0
 17  6  2  0  0  0  0
 19 10  1  6  0  0  0
 19  3  1  0  0  0  0
 20 19  1  0  0  0  0
 20 15  1  0  0  0  0
 22 21  2  0  0  0  0
 22 23  1  0  0  0  0
 24 27  1  1  0  0  0
 24 31  1  0  0  0  0
 25 28  1  0  0  0  0
 25 30  1  0  0  0  0
 28 24  1  0  0  0  0
 29 31  1  0  0  0  0
 29 26  1  1  0  0  0
 30 29  1  0  0  0  0
 30 22  1  1  0  0  0
M  END
>  <MODEL>
9

>  <REMARK>
 VINA RESULT:      -7.5      3.124      5.392
  Name = 
  2 active torsions:
  status: ('A' for Active; 'I' for Inactive)
    1  A    between atoms: C_5  and  C_30
    2  A    between atoms: C_10  and  N_16
                            x       y       z     vdW  Elec       q    Type
                         _______ _______ _______ _____ _____    ______ ____

>  <TORSDO>
F 2

$$$$
