=
 OpenBabel11122411233D

 37 43  0  0  1  0  0  0  0  0999 V2000
  180.2670  179.6130  138.0710 C   0  0  0  0  0  2  0  0  0  0  0  0
  180.4640  178.8560  143.2240 C   0  0  0  0  0  0  0  0  0  0  0  0
  183.5200  178.6550  140.3710 C   0  0  0  0  0  0  0  0  0  0  0  0
  179.2720  179.7720  136.9200 C   0  0  2  0  0  3  0  0  0  0  0  0
  182.7820  176.2640  137.8840 O   0  0  0  0  0  0  0  0  0  0  0  0
  182.8870  178.9530  142.6820 C   0  0  0  0  0  0  0  0  0  0  0  0
  182.7970  178.3950  139.0790 C   0  0  1  0  0  3  0  0  0  0  0  0
  181.0360  178.3380  135.6060 C   0  0  2  0  0  3  0  0  0  0  0  0
  182.5750  178.7620  141.3520 C   0  0  0  0  0  0  0  0  0  0  0  0
  183.4520  177.4880  138.0190 C   0  0  1  0  0  3  0  0  0  0  0  0
  184.2340  179.1140  143.0350 C   0  0  0  0  0  3  0  0  0  0  0  0
  179.7530  179.1870  135.5770 C   0  0  0  0  0  2  0  0  0  0  0  0
  181.2710  178.4540  140.9240 N   0  0  0  0  0  0  0  0  0  0  0  0
  179.9330  180.2650  143.0310 C   0  0  0  0  0  1  0  0  0  0  0  0
  185.9930  178.5480  139.7040 C   0  0  0  0  0  2  0  0  0  0  0  0
  185.2280  179.0370  142.0370 C   0  0  0  0  0  3  0  0  0  0  0  0
  180.2730  178.0550  141.9130 C   0  0  0  0  0  2  0  0  0  0  0  0
  180.9370  177.0510  136.4470 C   0  0  1  0  0  3  0  0  0  0  0  0
  182.2520  176.2610  136.5820 C   0  0  0  0  0  2  0  0  0  0  0  0
  184.8860  178.8040  140.6880 C   0  0  0  0  0  0  0  0  0  0  0  0
  181.4160  177.8970  139.5840 C   0  0  1  0  0  3  0  0  0  0  0  0
  181.8490  178.9190  143.6210 O   0  0  0  0  0  0  0  0  0  0  0  0
  184.9680  177.3260  138.1480 C   0  0  2  0  0  3  0  0  0  0  0  0
  179.6670  178.1900  144.3250 C   0  0  0  0  0  1  0  0  0  0  0  0
  180.0060  177.0610  137.6710 C   0  0  0  0  0  2  0  0  0  0  0  0
  182.1400  179.1200  135.9550 O   0  0  0  0  0  1  0  0  0  0  0  0
  180.2310  178.2020  138.6730 C   0  0  2  0  0  3  0  0  0  0  0  0
  185.5490  178.5800  138.3770 O   0  0  0  0  0  0  0  0  0  0  0  0
  185.7100  177.4540  135.7380 C   0  0  0  0  0  3  0  0  0  0  0  0
  185.5510  176.7080  136.9160 C   0  0  0  0  0  0  0  0  0  0  0  0
  185.9170  175.3570  136.9350 C   0  0  0  0  0  3  0  0  0  0  0  0
  186.8010  173.4490  135.8120 F   0  0  0  0  0  0  0  0  0  0  0  0
  186.6060  175.5040  134.6180 C   0  0  0  0  0  3  0  0  0  0  0  0
  186.4460  174.7570  135.7890 C   0  0  0  0  0  0  0  0  0  0  0  0
  186.2380  176.8520  134.5940 C   0  0  0  0  0  3  0  0  0  0  0  0
  180.1630  181.9320  137.0080 C   0  0  0  0  0  1  0  0  0  0  0  0
  178.9510  181.1770  136.7410 N   0  0  0  0  0  2  0  0  0  0  0  0
  1 27  1  0  0  0  0
  2 22  1  0  0  0  0
  2 24  1  0  0  0  0
  3 20  2  0  0  0  0
  3  9  1  0  0  0  0
  4 37  1  6  0  0  0
  4  1  1  0  0  0  0
  6 11  1  0  0  0  0
  6 22  1  0  0  0  0
  7 21  1  0  0  0  0
  7  3  1  1  0  0  0
  8 26  1  1  0  0  0
  8 18  1  0  0  0  0
  9  6  2  0  0  0  0
 10  5  1  1  0  0  0
 10 23  1  0  0  0  0
 10  7  1  0  0  0  0
 12  8  1  0  0  0  0
 12  4  1  0  0  0  0
 13  9  1  0  0  0  0
 13 17  1  0  0  0  0
 14  2  1  0  0  0  0
 15 20  1  0  0  0  0
 16 11  2  0  0  0  0
 17  2  1  0  0  0  0
 18 19  1  1  0  0  0
 18 25  1  0  0  0  0
 19  5  1  0  0  0  0
 20 16  1  0  0  0  0
 21 13  1  1  0  0  0
 23 30  1  6  0  0  0
 23 28  1  0  0  0  0
 27 25  1  6  0  0  0
 27 21  1  0  0  0  0
 28 15  1  0  0  0  0
 29 30  1  0  0  0  0
 30 31  2  0  0  0  0
 33 34  2  0  0  0  0
 34 32  1  0  0  0  0
 34 31  1  0  0  0  0
 35 33  1  0  0  0  0
 35 29  2  0  0  0  0
 37 36  1  0  0  0  0
M  END
>  <MODEL>
1

>  <REMARK>
 VINA RESULT:      -6.1      0.000      0.000
  Name = 
  2 active torsions:
  status: ('A' for Active; 'I' for Inactive)
    1  A    between atoms: C_4  and  N_37
    2  A    between atoms: C_23  and  C_30
                            x       y       z     vdW  Elec       q    Type
                         _______ _______ _______ _____ _____    ______ ____

>  <TORSDO>
F 2

$$$$
=
 OpenBabel11122411233D

 37 43  0  0  1  0  0  0  0  0999 V2000
  187.1590  177.4900  139.1210 C   0  0  0  0  0  2  0  0  0  0  0  0
  182.7690  176.4680  136.5010 C   0  0  0  0  0  0  0  0  0  0  0  0
  186.2740  174.2040  136.8380 C   0  0  0  0  0  0  0  0  0  0  0  0
  187.8770  178.6190  139.8610 C   0  0  2  0  0  3  0  0  0  0  0  0
  189.0750  176.0190  135.6950 O   0  0  0  0  0  0  0  0  0  0  0  0
  183.9060  174.2610  136.3710 C   0  0  0  0  0  0  0  0  0  0  0  0
  187.3270  175.2130  137.2010 C   0  0  1  0  0  3  0  0  0  0  0  0
  190.0090  177.5880  138.7280 C   0  0  2  0  0  3  0  0  0  0  0  0
  185.0870  174.8720  136.7390 C   0  0  0  0  0  0  0  0  0  0  0  0
  188.7560  175.0420  136.6480 C   0  0  1  0  0  3  0  0  0  0  0  0
  183.9090  172.8770  136.1560 C   0  0  0  0  0  3  0  0  0  0  0  0
  189.4130  178.5860  139.7360 C   0  0  0  0  0  2  0  0  0  0  0  0
  185.2090  176.2700  136.8400 N   0  0  0  0  0  0  0  0  0  0  0  0
  182.3560  176.6430  137.9520 C   0  0  0  0  0  1  0  0  0  0  0  0
  187.6020  172.0290  136.5580 C   0  0  0  0  0  2  0  0  0  0  0  0
  185.1170  172.1570  136.2800 C   0  0  0  0  0  3  0  0  0  0  0  0
  184.1580  177.1190  136.2840 C   0  0  0  0  0  2  0  0  0  0  0  0
  189.6200  177.8460  137.2600 C   0  0  1  0  0  3  0  0  0  0  0  0
  190.1110  176.7810  136.2620 C   0  0  0  0  0  2  0  0  0  0  0  0
  186.3190  172.8110  136.6220 C   0  0  0  0  0  0  0  0  0  0  0  0
  186.6400  176.5460  136.7980 C   0  0  1  0  0  3  0  0  0  0  0  0
  182.7740  175.0630  136.1740 O   0  0  0  0  0  0  0  0  0  0  0  0
  189.1110  173.6250  136.1900 C   0  0  2  0  0  3  0  0  0  0  0  0
  181.7560  177.1730  135.6260 C   0  0  0  0  0  1  0  0  0  0  0  0
  188.2460  178.4780  136.9800 C   0  0  0  0  0  2  0  0  0  0  0  0
  189.7560  176.2720  139.1240 O   0  0  0  0  0  1  0  0  0  0  0  0
  187.0430  177.7690  137.6170 C   0  0  2  0  0  3  0  0  0  0  0  0
  188.6730  172.7050  137.1520 O   0  0  0  0  0  0  0  0  0  0  0  0
  191.0980  172.9970  134.7640 C   0  0  0  0  0  3  0  0  0  0  0  0
  190.5860  173.4810  135.9770 C   0  0  0  0  0  0  0  0  0  0  0  0
  191.4630  173.8110  137.0170 C   0  0  0  0  0  3  0  0  0  0  0  0
  193.6880  173.9880  137.8530 F   0  0  0  0  0  0  0  0  0  0  0  0
  193.3490  173.1860  135.6330 C   0  0  0  0  0  3  0  0  0  0  0  0
  192.8420  173.6660  136.8440 C   0  0  0  0  0  0  0  0  0  0  0  0
  192.4760  172.8510  134.5940 C   0  0  0  0  0  3  0  0  0  0  0  0
  186.1070  178.9580  141.3500 C   0  0  0  0  0  1  0  0  0  0  0  0
  187.5110  178.5950  141.2660 N   0  0  0  0  0  2  0  0  0  0  0  0
  1  4  1  0  0  0  0
  2 14  1  0  0  0  0
  4 37  1  1  0  0  0
  5 19  1  0  0  0  0
  6  9  2  0  0  0  0
  7  3  1  6  0  0  0
  8 26  1  1  0  0  0
  8 12  1  0  0  0  0
  9  3  1  0  0  0  0
  9 13  1  0  0  0  0
 10  5  1  6  0  0  0
 10  7  1  0  0  0  0
 11 16  2  0  0  0  0
 11  6  1  0  0  0  0
 12  4  1  0  0  0  0
 15 20  1  0  0  0  0
 15 28  1  0  0  0  0
 16 20  1  0  0  0  0
 17  2  1  0  0  0  0
 17 13  1  0  0  0  0
 18 19  1  6  0  0  0
 18  8  1  0  0  0  0
 20  3  2  0  0  0  0
 21 13  1  1  0  0  0
 21  7  1  0  0  0  0
 21 27  1  0  0  0  0
 22  6  1  0  0  0  0
 22  2  1  0  0  0  0
 23 30  1  1  0  0  0
 23 10  1  0  0  0  0
 23 28  1  0  0  0  0
 24  2  1  0  0  0  0
 25 18  1  0  0  0  0
 27 25  1  6  0  0  0
 27  1  1  0  0  0  0
 29 30  1  0  0  0  0
 30 31  2  0  0  0  0
 33 34  2  0  0  0  0
 34 31  1  0  0  0  0
 34 32  1  0  0  0  0
 35 29  2  0  0  0  0
 35 33  1  0  0  0  0
 37 36  1  0  0  0  0
M  END
>  <MODEL>
2

>  <REMARK>
 VINA RESULT:      -6.0      3.973      7.620
  Name = 
  2 active torsions:
  status: ('A' for Active; 'I' for Inactive)
    1  A    between atoms: C_4  and  N_37
    2  A    between atoms: C_23  and  C_30
                            x       y       z     vdW  Elec       q    Type
                         _______ _______ _______ _____ _____    ______ ____

>  <TORSDO>
F 2

$$$$
=
 OpenBabel11122411233D

 37 43  0  0  1  0  0  0  0  0999 V2000
  189.1090  173.7790  136.1790 C   0  0  0  0  0  2  0  0  0  0  0  0
  193.9290  175.7630  136.1000 C   0  0  0  0  0  0  0  0  0  0  0  0
  190.7430  176.5760  138.6900 C   0  0  0  0  0  0  0  0  0  0  0  0
  188.1480  172.9320  135.3440 C   0  0  2  0  0  3  0  0  0  0  0  0
  187.9230  177.7320  136.9120 O   0  0  0  0  0  0  0  0  0  0  0  0
  193.1250  176.5990  138.2980 C   0  0  0  0  0  0  0  0  0  0  0  0
  189.5240  176.1760  137.9050 C   0  0  1  0  0  3  0  0  0  0  0  0
  186.3590  174.6260  136.2500 C   0  0  2  0  0  3  0  0  0  0  0  0
  191.8330  176.3090  137.9110 C   0  0  0  0  0  0  0  0  0  0  0  0
  188.2260  176.9930  138.0640 C   0  0  1  0  0  3  0  0  0  0  0  0
  193.3360  177.1280  139.5780 C   0  0  0  0  0  3  0  0  0  0  0  0
  186.6640  173.3260  135.4860 C   0  0  0  0  0  2  0  0  0  0  0  0
  191.5140  175.9070  136.6010 N   0  0  0  0  0  0  0  0  0  0  0  0
  194.1000  174.2630  136.2580 C   0  0  0  0  0  1  0  0  0  0  0  0
  189.7690  177.5810  140.8380 C   0  0  0  0  0  2  0  0  0  0  0  0
  192.2280  177.3860  140.4140 C   0  0  0  0  0  3  0  0  0  0  0  0
  192.5140  176.0600  135.5460 C   0  0  0  0  0  2  0  0  0  0  0  0
  186.9200  175.9030  135.5960 C   0  0  1  0  0  3  0  0  0  0  0  0
  186.7240  177.1920  136.4160 C   0  0  0  0  0  2  0  0  0  0  0  0
  190.9140  177.1150  139.9810 C   0  0  0  0  0  0  0  0  0  0  0  0
  190.0800  176.1320  136.4570 C   0  0  1  0  0  3  0  0  0  0  0  0
  194.1570  176.4040  137.3720 O   0  0  0  0  0  0  0  0  0  0  0  0
  188.1310  177.8220  139.3460 C   0  0  2  0  0  3  0  0  0  0  0  0
  194.9570  176.2610  135.1070 C   0  0  0  0  0  1  0  0  0  0  0  0
  188.2240  175.7860  134.7900 C   0  0  0  0  0  2  0  0  0  0  0  0
  186.7230  174.5100  137.5940 O   0  0  0  0  0  1  0  0  0  0  0  0
  189.4050  175.1330  135.5220 C   0  0  2  0  0  3  0  0  0  0  0  0
  188.5430  177.0400  140.4340 O   0  0  0  0  0  0  0  0  0  0  0  0
  185.8570  178.5080  138.4910 C   0  0  0  0  0  3  0  0  0  0  0  0
  186.7360  178.3150  139.5680 C   0  0  0  0  0  0  0  0  0  0  0  0
  186.3130  178.6130  140.8690 C   0  0  0  0  0  3  0  0  0  0  0  0
  184.6140  179.3780  142.3550 F   0  0  0  0  0  0  0  0  0  0  0  0
  184.1460  179.2790  140.0190 C   0  0  0  0  0  3  0  0  0  0  0  0
  185.0200  179.0920  141.0940 C   0  0  0  0  0  0  0  0  0  0  0  0
  184.5650  178.9870  138.7180 C   0  0  0  0  0  3  0  0  0  0  0  0
  187.0620  170.8620  135.3420 C   0  0  0  0  0  1  0  0  0  0  0  0
  188.3050  171.5300  135.6870 N   0  0  0  0  0  2  0  0  0  0  0  0
  2 14  1  0  0  0  0
  2 22  1  0  0  0  0
  3 20  1  0  0  0  0
  4 12  1  0  0  0  0
  4 37  1  1  0  0  0
  4  1  1  0  0  0  0
  6 11  2  0  0  0  0
  7 10  1  0  0  0  0
  7  3  1  1  0  0  0
  8 26  1  1  0  0  0
  9  6  1  0  0  0  0
  9  3  2  0  0  0  0
 10  5  1  6  0  0  0
 10 23  1  0  0  0  0
 11 16  1  0  0  0  0
 12  8  1  0  0  0  0
 13  9  1  0  0  0  0
 17  2  1  0  0  0  0
 17 13  1  0  0  0  0
 18 25  1  1  0  0  0
 18  8  1  0  0  0  0
 18 19  1  0  0  0  0
 19  5  1  0  0  0  0
 20 16  2  0  0  0  0
 20 15  1  0  0  0  0
 21 13  1  1  0  0  0
 21  7  1  0  0  0  0
 22  6  1  0  0  0  0
 23 30  1  1  0  0  0
 23 28  1  0  0  0  0
 24  2  1  0  0  0  0
 27 25  1  1  0  0  0
 27  1  1  0  0  0  0
 27 21  1  0  0  0  0
 28 15  1  0  0  0  0
 29 35  2  0  0  0  0
 29 30  1  0  0  0  0
 30 31  2  0  0  0  0
 31 34  1  0  0  0  0
 33 34  2  0  0  0  0
 34 32  1  0  0  0  0
 35 33  1  0  0  0  0
 36 37  1  0  0  0  0
M  END
>  <MODEL>
3

>  <REMARK>
 VINA RESULT:      -5.7      5.296      9.513
  Name = 
  2 active torsions:
  status: ('A' for Active; 'I' for Inactive)
    1  A    between atoms: C_4  and  N_37
    2  A    between atoms: C_23  and  C_30
                            x       y       z     vdW  Elec       q    Type
                         _______ _______ _______ _____ _____    ______ ____

>  <TORSDO>
F 2

$$$$
=
 OpenBabel11122411233D

 37 43  0  0  1  0  0  0  0  0999 V2000
  185.0660  174.1730  136.7930 C   0  0  0  0  0  2  0  0  0  0  0  0
  189.8040  176.0970  135.7760 C   0  0  0  0  0  0  0  0  0  0  0  0
  186.8840  177.4500  138.4520 C   0  0  0  0  0  0  0  0  0  0  0  0
  184.0440  173.1650  136.2670 C   0  0  2  0  0  3  0  0  0  0  0  0
  183.8690  178.1910  136.7770 O   0  0  0  0  0  0  0  0  0  0  0  0
  189.2120  177.3890  137.8140 C   0  0  0  0  0  0  0  0  0  0  0  0
  185.6000  176.8890  137.9070 C   0  0  1  0  0  3  0  0  0  0  0  0
  182.3180  175.0140  136.9710 C   0  0  2  0  0  3  0  0  0  0  0  0
  187.8930  177.0220  137.6380 C   0  0  0  0  0  0  0  0  0  0  0  0
  184.3070  177.7190  138.0220 C   0  0  1  0  0  3  0  0  0  0  0  0
  189.5410  178.1840  138.9200 C   0  0  0  0  0  3  0  0  0  0  0  0
  182.5740  173.5790  136.4780 C   0  0  0  0  0  2  0  0  0  0  0  0
  187.4500  176.3450  136.4880 N   0  0  0  0  0  0  0  0  0  0  0  0
  190.0250  174.6670  136.2350 C   0  0  0  0  0  1  0  0  0  0  0  0
  186.1140  178.8970  140.4240 C   0  0  0  0  0  2  0  0  0  0  0  0
  188.5200  178.6170  139.7940 C   0  0  0  0  0  3  0  0  0  0  0  0
  188.3320  176.2650  135.3250 C   0  0  0  0  0  2  0  0  0  0  0  0
  182.7790  176.1190  136.0010 C   0  0  1  0  0  3  0  0  0  0  0  0
  182.6380  177.5550  136.5400 C   0  0  0  0  0  2  0  0  0  0  0  0
  187.1750  178.2570  139.5720 C   0  0  0  0  0  0  0  0  0  0  0  0
  186.0050  176.5320  136.4510 C   0  0  1  0  0  3  0  0  0  0  0  0
  190.1470  176.9990  136.8480 O   0  0  0  0  0  0  0  0  0  0  0  0
  184.3260  178.8080  139.0980 C   0  0  2  0  0  3  0  0  0  0  0  0
  190.7110  176.3670  134.5950 C   0  0  0  0  0  1  0  0  0  0  0  0
  183.9940  175.8300  135.1050 C   0  0  0  0  0  2  0  0  0  0  0  0
  182.8230  175.1920  138.2610 O   0  0  0  0  0  1  0  0  0  0  0  0
  185.2600  175.3530  135.8310 C   0  0  2  0  0  3  0  0  0  0  0  0
  184.8660  178.2810  140.2790 O   0  0  0  0  0  0  0  0  0  0  0  0
  182.4900  180.5000  138.7200 C   0  0  0  0  0  3  0  0  0  0  0  0
  182.9490  179.3360  139.3550 C   0  0  0  0  0  0  0  0  0  0  0  0
  182.1190  178.6700  140.2640 C   0  0  0  0  0  3  0  0  0  0  0  0
  180.0360  178.5100  141.4110 F   0  0  0  0  0  0  0  0  0  0  0  0
  180.3820  180.3160  139.8940 C   0  0  0  0  0  3  0  0  0  0  0  0
  180.8370  179.1580  140.5320 C   0  0  0  0  0  0  0  0  0  0  0  0
  181.2090  180.9870  138.9890 C   0  0  0  0  0  3  0  0  0  0  0  0
  183.0160  171.1400  136.8200 C   0  0  0  0  0  1  0  0  0  0  0  0
  184.2700  171.8710  136.8860 N   0  0  0  0  0  2  0  0  0  0  0  0
  2 14  1  0  0  0  0
  2 22  1  0  0  0  0
  3 20  1  0  0  0  0
  4 12  1  0  0  0  0
  4  1  1  0  0  0  0
  4 37  1  1  0  0  0
  6 11  2  0  0  0  0
  7 10  1  0  0  0  0
  7  3  1  6  0  0  0
  8 26  1  1  0  0  0
  9  6  1  0  0  0  0
  9  3  2  0  0  0  0
 10  5  1  6  0  0  0
 10 23  1  0  0  0  0
 11 16  1  0  0  0  0
 12  8  1  0  0  0  0
 13  9  1  0  0  0  0
 17  2  1  0  0  0  0
 17 13  1  0  0  0  0
 18 25  1  1  0  0  0
 18 19  1  0  0  0  0
 18  8  1  0  0  0  0
 19  5  1  0  0  0  0
 20 16  2  0  0  0  0
 20 15  1  0  0  0  0
 21 13  1  1  0  0  0
 21  7  1  0  0  0  0
 22  6  1  0  0  0  0
 23 30  1  1  0  0  0
 23 28  1  0  0  0  0
 24  2  1  0  0  0  0
 27 25  1  1  0  0  0
 27 21  1  0  0  0  0
 27  1  1  0  0  0  0
 28 15  1  0  0  0  0
 29 35  2  0  0  0  0
 29 30  1  0  0  0  0
 30 31  2  0  0  0  0
 31 34  1  0  0  0  0
 33 34  2  0  0  0  0
 34 32  1  0  0  0  0
 35 33  1  0  0  0  0
 36 37  1  0  0  0  0
M  END
>  <MODEL>
4

>  <REMARK>
 VINA RESULT:      -5.6      3.444      7.386
  Name = 
  2 active torsions:
  status: ('A' for Active; 'I' for Inactive)
    1  A    between atoms: C_4  and  N_37
    2  A    between atoms: C_23  and  C_30
                            x       y       z     vdW  Elec       q    Type
                         _______ _______ _______ _____ _____    ______ ____

>  <TORSDO>
F 2

$$$$
=
 OpenBabel11122411233D

 37 43  0  0  1  0  0  0  0  0999 V2000
  188.8820  176.1860  138.9040 C   0  0  0  0  0  2  0  0  0  0  0  0
  190.5660  178.1480  143.4300 C   0  0  0  0  0  0  0  0  0  0  0  0
  186.6670  177.8140  141.9440 C   0  0  0  0  0  0  0  0  0  0  0  0
  189.3870  175.7130  137.5410 C   0  0  2  0  0  3  0  0  0  0  0  0
  186.3290  179.5120  138.8700 O   0  0  0  0  0  0  0  0  0  0  0  0
  188.1200  178.0400  143.8590 C   0  0  0  0  0  0  0  0  0  0  0  0
  186.8510  177.7260  140.4540 C   0  0  1  0  0  3  0  0  0  0  0  0
  187.2020  176.8780  136.6700 C   0  0  2  0  0  3  0  0  0  0  0  0
  187.9100  177.8970  142.5020 C   0  0  0  0  0  0  0  0  0  0  0  0
  185.8110  178.3870  139.5280 C   0  0  1  0  0  3  0  0  0  0  0  0
  187.0080  178.0310  144.7110 C   0  0  0  0  0  3  0  0  0  0  0  0
  188.4200  175.9870  136.3720 C   0  0  0  0  0  2  0  0  0  0  0  0
  188.9500  178.0320  141.5640 N   0  0  0  0  0  0  0  0  0  0  0  0
  191.0500  176.7100  143.3950 C   0  0  0  0  0  1  0  0  0  0  0  0
  184.1200  177.8780  142.2300 C   0  0  0  0  0  2  0  0  0  0  0  0
  185.7120  177.9170  144.1610 C   0  0  0  0  0  3  0  0  0  0  0  0
  190.2240  178.6070  141.9910 C   0  0  0  0  0  2  0  0  0  0  0  0
  187.5470  178.3210  137.0850 C   0  0  1  0  0  3  0  0  0  0  0  0
  186.3400  179.1820  137.5030 C   0  0  0  0  0  2  0  0  0  0  0  0
  185.5220  177.8090  142.7670 C   0  0  0  0  0  0  0  0  0  0  0  0
  188.2970  178.2640  140.2810 C   0  0  1  0  0  3  0  0  0  0  0  0
  189.4290  178.2460  144.3130 O   0  0  0  0  0  0  0  0  0  0  0  0
  184.4440  178.6470  140.1640 C   0  0  2  0  0  3  0  0  0  0  0  0
  191.6820  179.0170  143.9680 C   0  0  0  0  0  1  0  0  0  0  0  0
  188.8630  178.5570  137.8440 C   0  0  0  0  0  2  0  0  0  0  0  0
  186.3400  176.2540  137.5750 O   0  0  0  0  0  1  0  0  0  0  0  0
  189.0740  177.6960  139.0980 C   0  0  2  0  0  3  0  0  0  0  0  0
  184.0440  177.5120  140.8810 O   0  0  0  0  0  0  0  0  0  0  0  0
  183.0220  178.0380  138.1690 C   0  0  0  0  0  3  0  0  0  0  0  0
  183.4200  178.9840  139.1250 C   0  0  0  0  0  0  0  0  0  0  0  0
  182.8750  180.2720  139.0930 C   0  0  0  0  0  3  0  0  0  0  0  0
  181.4040  181.8600  138.0940 F   0  0  0  0  0  0  0  0  0  0  0  0
  181.5350  179.6650  137.1700 C   0  0  0  0  0  3  0  0  0  0  0  0
  181.9320  180.6110  138.1190 C   0  0  0  0  0  0  0  0  0  0  0  0
  182.0800  178.3790  137.1950 C   0  0  0  0  0  3  0  0  0  0  0  0
  191.0740  174.1280  137.2120 C   0  0  0  0  0  1  0  0  0  0  0  0
  189.6820  174.2920  137.5940 N   0  0  0  0  0  2  0  0  0  0  0  0
  1 27  1  0  0  0  0
  2 24  1  0  0  0  0
  2 22  1  0  0  0  0
  3  9  2  0  0  0  0
  3 20  1  0  0  0  0
  4 37  1  1  0  0  0
  4  1  1  0  0  0  0
  6 22  1  0  0  0  0
  6 11  2  0  0  0  0
  7  3  1  1  0  0  0
  8 18  1  0  0  0  0
  8 26  1  1  0  0  0
  9  6  1  0  0  0  0
 10  5  1  1  0  0  0
 10 23  1  0  0  0  0
 10  7  1  0  0  0  0
 12  8  1  0  0  0  0
 12  4  1  0  0  0  0
 13 17  1  0  0  0  0
 13  9  1  0  0  0  0
 14  2  1  0  0  0  0
 15 20  1  0  0  0  0
 16 11  1  0  0  0  0
 17  2  1  0  0  0  0
 18 19  1  1  0  0  0
 18 25  1  0  0  0  0
 19  5  1  0  0  0  0
 20 16  2  0  0  0  0
 21  7  1  0  0  0  0
 21 13  1  1  0  0  0
 23 30  1  6  0  0  0
 23 28  1  0  0  0  0
 27 25  1  6  0  0  0
 27 21  1  0  0  0  0
 28 15  1  0  0  0  0
 29 30  1  0  0  0  0
 31 30  2  0  0  0  0
 32 34  1  0  0  0  0
 33 35  1  0  0  0  0
 33 34  2  0  0  0  0
 34 31  1  0  0  0  0
 35 29  2  0  0  0  0
 36 37  1  0  0  0  0
M  END
>  <MODEL>
5

>  <REMARK>
 VINA RESULT:      -5.1      4.137      7.474
  Name = 
  2 active torsions:
  status: ('A' for Active; 'I' for Inactive)
    1  A    between atoms: C_4  and  N_37
    2  A    between atoms: C_23  and  C_30
                            x       y       z     vdW  Elec       q    Type
                         _______ _______ _______ _____ _____    ______ ____

>  <TORSDO>
F 2

$$$$
=
 OpenBabel11122411233D

 37 43  0  0  1  0  0  0  0  0999 V2000
  183.8830  175.2630  137.0990 C   0  0  0  0  0  2  0  0  0  0  0  0
  188.5740  177.5140  136.7790 C   0  0  0  0  0  0  0  0  0  0  0  0
  185.5490  178.0270  139.6260 C   0  0  0  0  0  0  0  0  0  0  0  0
  182.9090  174.4040  136.2930 C   0  0  2  0  0  3  0  0  0  0  0  0
  182.5500  179.1060  138.1130 O   0  0  0  0  0  0  0  0  0  0  0  0
  187.8920  178.2000  139.0680 C   0  0  0  0  0  0  0  0  0  0  0  0
  184.2980  177.5970  138.9110 C   0  0  1  0  0  3  0  0  0  0  0  0
  181.1050  175.9520  137.4080 C   0  0  2  0  0  3  0  0  0  0  0  0
  186.5910  177.8580  138.7590 C   0  0  0  0  0  0  0  0  0  0  0  0
  182.9750  178.3320  139.2020 C   0  0  1  0  0  3  0  0  0  0  0  0
  188.1680  178.6800  140.3550 C   0  0  0  0  0  3  0  0  0  0  0  0
  181.4210  174.7080  136.5600 C   0  0  0  0  0  2  0  0  0  0  0  0
  186.1980  177.5000  137.4570 N   0  0  0  0  0  0  0  0  0  0  0  0
  188.8340  176.0190  136.8480 C   0  0  0  0  0  1  0  0  0  0  0  0
  184.6850  178.8750  141.8850 C   0  0  0  0  0  2  0  0  0  0  0  0
  187.1130  178.8370  141.2790 C   0  0  0  0  0  3  0  0  0  0  0  0
  187.1080  177.7570  136.3430 C   0  0  0  0  0  2  0  0  0  0  0  0
  181.5490  177.2870  136.7810 C   0  0  1  0  0  3  0  0  0  0  0  0
  181.3480  178.5240  137.6770 C   0  0  0  0  0  2  0  0  0  0  0  0
  185.7860  178.5140  140.9280 C   0  0  0  0  0  0  0  0  0  0  0  0
  184.7480  177.6510  137.4260 C   0  0  1  0  0  3  0  0  0  0  0  0
  188.8620  178.1070  138.0620 O   0  0  0  0  0  0  0  0  0  0  0  0
  182.9320  179.0940  140.5280 C   0  0  2  0  0  3  0  0  0  0  0  0
  189.4990  178.1130  135.7410 C   0  0  0  0  0  1  0  0  0  0  0  0
  182.7950  177.2800  135.8790 C   0  0  0  0  0  2  0  0  0  0  0  0
  181.5730  175.7940  138.7150 O   0  0  0  0  0  1  0  0  0  0  0  0
  184.0590  176.6610  136.4920 C   0  0  2  0  0  3  0  0  0  0  0  0
  183.4620  178.2870  141.5430 O   0  0  0  0  0  0  0  0  0  0  0  0
  180.8450  180.4510  140.1060 C   0  0  0  0  0  3  0  0  0  0  0  0
  181.5320  179.4980  140.8720 C   0  0  0  0  0  0  0  0  0  0  0  0
  180.9130  178.9330  141.9940 C   0  0  0  0  0  3  0  0  0  0  0  0
  179.0170  178.7610  143.4280 F   0  0  0  0  0  0  0  0  0  0  0  0
  178.9310  180.2580  141.5750 C   0  0  0  0  0  3  0  0  0  0  0  0
  179.6140  179.3110  142.3430 C   0  0  0  0  0  0  0  0  0  0  0  0
  179.5460  180.8280  140.4570 C   0  0  0  0  0  3  0  0  0  0  0  0
  184.2590  172.9300  137.5050 C   0  0  0  0  0  1  0  0  0  0  0  0
  183.1640  172.9980  136.5530 N   0  0  0  0  0  2  0  0  0  0  0  0
  2 14  1  0  0  0  0
  2 22  1  0  0  0  0
  3 20  1  0  0  0  0
  4 37  1  1  0  0  0
  4 12  1  0  0  0  0
  4  1  1  0  0  0  0
  6 11  2  0  0  0  0
  7 10  1  0  0  0  0
  7  3  1  1  0  0  0
  8 26  1  1  0  0  0
  9  6  1  0  0  0  0
  9  3  2  0  0  0  0
 10  5  1  6  0  0  0
 10 23  1  0  0  0  0
 11 16  1  0  0  0  0
 12  8  1  0  0  0  0
 13  9  1  0  0  0  0
 17  2  1  0  0  0  0
 17 13  1  0  0  0  0
 18 25  1  1  0  0  0
 18  8  1  0  0  0  0
 18 19  1  0  0  0  0
 19  5  1  0  0  0  0
 20 16  2  0  0  0  0
 20 15  1  0  0  0  0
 21 13  1  1  0  0  0
 21  7  1  0  0  0  0
 22  6  1  0  0  0  0
 23 30  1  1  0  0  0
 23 28  1  0  0  0  0
 24  2  1  0  0  0  0
 27 25  1  1  0  0  0
 27  1  1  0  0  0  0
 27 21  1  0  0  0  0
 28 15  1  0  0  0  0
 29 35  2  0  0  0  0
 29 30  1  0  0  0  0
 30 31  2  0  0  0  0
 31 34  1  0  0  0  0
 33 34  2  0  0  0  0
 34 32  1  0  0  0  0
 35 33  1  0  0  0  0
 37 36  1  0  0  0  0
M  END
>  <MODEL>
6

>  <REMARK>
 VINA RESULT:      -4.8      3.144      6.890
  Name = 
  2 active torsions:
  status: ('A' for Active; 'I' for Inactive)
    1  A    between atoms: C_4  and  N_37
    2  A    between atoms: C_23  and  C_30
                            x       y       z     vdW  Elec       q    Type
                         _______ _______ _______ _____ _____    ______ ____

>  <TORSDO>
F 2

$$$$
=
 OpenBabel11122411233D

 37 43  0  0  1  0  0  0  0  0999 V2000
  187.6660  177.1140  139.6290 C   0  0  0  0  0  2  0  0  0  0  0  0
  183.4060  176.5750  136.6740 C   0  0  0  0  0  0  0  0  0  0  0  0
  186.9790  174.3950  136.6410 C   0  0  0  0  0  0  0  0  0  0  0  0
  188.3180  178.0700  140.6290 C   0  0  2  0  0  3  0  0  0  0  0  0
  189.7470  176.4990  136.0420 O   0  0  0  0  0  0  0  0  0  0  0  0
  184.6270  174.4870  136.1040 C   0  0  0  0  0  0  0  0  0  0  0  0
  187.9820  175.3280  137.2610 C   0  0  1  0  0  3  0  0  0  0  0  0
  190.5230  177.3790  139.3830 C   0  0  2  0  0  3  0  0  0  0  0  0
  185.7720  175.0340  136.6450 C   0  0  0  0  0  0  0  0  0  0  0  0
  189.4330  175.3250  136.7410 C   0  0  1  0  0  3  0  0  0  0  0  0
  184.6880  173.1860  135.5880 C   0  0  0  0  0  3  0  0  0  0  0  0
  189.8580  178.1100  140.5610 C   0  0  0  0  0  2  0  0  0  0  0  0
  185.8390  176.3770  137.0580 N   0  0  0  0  0  0  0  0  0  0  0  0
  182.9400  176.4110  138.1090 C   0  0  0  0  0  1  0  0  0  0  0  0
  188.3940  172.3760  135.9400 C   0  0  0  0  0  2  0  0  0  0  0  0
  185.9170  172.4920  135.5980 C   0  0  0  0  0  3  0  0  0  0  0  0
  184.7760  177.2980  136.6620 C   0  0  0  0  0  2  0  0  0  0  0  0
  190.1720  177.9460  137.9940 C   0  0  1  0  0  3  0  0  0  0  0  0
  190.7350  177.1450  136.8050 C   0  0  0  0  0  2  0  0  0  0  0  0
  187.0830  173.0870  136.1240 C   0  0  0  0  0  0  0  0  0  0  0  0
  187.2600  176.6970  137.1360 C   0  0  1  0  0  3  0  0  0  0  0  0
  183.4730  175.2790  136.0440 O   0  0  0  0  0  0  0  0  0  0  0  0
  189.8550  174.0570  135.9960 C   0  0  2  0  0  3  0  0  0  0  0  0
  182.3970  177.4290  135.9370 C   0  0  0  0  0  1  0  0  0  0  0  0
  188.7870  178.5850  137.8060 C   0  0  0  0  0  2  0  0  0  0  0  0
  190.3050  176.0010  139.4670 O   0  0  0  0  0  1  0  0  0  0  0  0
  187.5890  177.7180  138.2200 C   0  0  2  0  0  3  0  0  0  0  0  0
  189.4200  172.9340  136.7120 O   0  0  0  0  0  0  0  0  0  0  0  0
  191.9680  174.7160  134.7810 C   0  0  0  0  0  3  0  0  0  0  0  0
  191.3400  174.0060  135.8160 C   0  0  0  0  0  0  0  0  0  0  0  0
  192.1080  173.2160  136.6790 C   0  0  0  0  0  3  0  0  0  0  0  0
  194.2340  172.3770  137.3550 F   0  0  0  0  0  0  0  0  0  0  0  0
  194.1170  173.8520  135.4860 C   0  0  0  0  0  3  0  0  0  0  0  0
  193.4940  173.1410  136.5160 C   0  0  0  0  0  0  0  0  0  0  0  0
  193.3530  174.6380  134.6190 C   0  0  0  0  0  3  0  0  0  0  0  0
  189.0170  177.0170  142.5950 C   0  0  0  0  0  1  0  0  0  0  0  0
  187.9080  177.7230  141.9780 N   0  0  0  0  0  2  0  0  0  0  0  0
  1  4  1  0  0  0  0
  2 14  1  0  0  0  0
  3  9  1  0  0  0  0
  4 37  1  1  0  0  0
  5 19  1  0  0  0  0
  6  9  2  0  0  0  0
  7  3  1  6  0  0  0
  8 26  1  6  0  0  0
  8 12  1  0  0  0  0
  9 13  1  0  0  0  0
 10  5  1  6  0  0  0
 10  7  1  0  0  0  0
 11 16  2  0  0  0  0
 11  6  1  0  0  0  0
 12  4  1  0  0  0  0
 15 20  1  0  0  0  0
 15 28  1  0  0  0  0
 16 20  1  0  0  0  0
 17  2  1  0  0  0  0
 17 13  1  0  0  0  0
 18 19  1  6  0  0  0
 18  8  1  0  0  0  0
 20  3  2  0  0  0  0
 21 13  1  1  0  0  0
 21  7  1  0  0  0  0
 21 27  1  0  0  0  0
 22  6  1  0  0  0  0
 22  2  1  0  0  0  0
 23 30  1  1  0  0  0
 23 28  1  0  0  0  0
 23 10  1  0  0  0  0
 24  2  1  0  0  0  0
 25 18  1  0  0  0  0
 27 25  1  6  0  0  0
 27  1  1  0  0  0  0
 29 30  1  0  0  0  0
 30 31  2  0  0  0  0
 33 34  2  0  0  0  0
 34 31  1  0  0  0  0
 34 32  1  0  0  0  0
 35 29  2  0  0  0  0
 35 33  1  0  0  0  0
 37 36  1  0  0  0  0
M  END
>  <MODEL>
7

>  <REMARK>
 VINA RESULT:      -4.6      4.345      8.137
  Name = 
  2 active torsions:
  status: ('A' for Active; 'I' for Inactive)
    1  A    between atoms: C_4  and  N_37
    2  A    between atoms: C_23  and  C_30
                            x       y       z     vdW  Elec       q    Type
                         _______ _______ _______ _____ _____    ______ ____

>  <TORSDO>
F 2

$$$$
=
 OpenBabel11122411233D

 37 43  0  0  1  0  0  0  0  0999 V2000
  184.5300  176.1050  137.4400 C   0  0  0  0  0  2  0  0  0  0  0  0
  189.2200  177.6070  135.7310 C   0  0  0  0  0  0  0  0  0  0  0  0
  187.6940  177.5180  139.6270 C   0  0  0  0  0  0  0  0  0  0  0  0
  183.1320  175.7400  136.9390 C   0  0  2  0  0  3  0  0  0  0  0  0
  184.7820  179.4920  139.8980 O   0  0  0  0  0  0  0  0  0  0  0  0
  189.6270  177.5320  138.1810 C   0  0  0  0  0  0  0  0  0  0  0  0
  186.2030  177.5580  139.4370 C   0  0  1  0  0  3  0  0  0  0  0  0
  182.3600  177.0400  139.0850 C   0  0  2  0  0  3  0  0  0  0  0  0
  188.2630  177.5160  138.3860 C   0  0  0  0  0  0  0  0  0  0  0  0
  185.3350  178.3290  140.4520 C   0  0  1  0  0  3  0  0  0  0  0  0
  190.4700  177.4790  139.2990 C   0  0  0  0  0  3  0  0  0  0  0  0
  181.9880  176.1440  137.8910 C   0  0  0  0  0  2  0  0  0  0  0  0
  187.3440  177.7040  137.3370 N   0  0  0  0  0  0  0  0  0  0  0  0
  189.0580  176.1640  135.2870 C   0  0  0  0  0  1  0  0  0  0  0  0
  187.9750  177.6300  142.1730 C   0  0  0  0  0  2  0  0  0  0  0  0
  189.9080  177.4520  140.5930 C   0  0  0  0  0  3  0  0  0  0  0  0
  187.8260  178.2010  136.0500 C   0  0  0  0  0  2  0  0  0  0  0  0
  182.9030  178.4300  138.7020 C   0  0  1  0  0  3  0  0  0  0  0  0
  183.3920  179.2850  139.8870 C   0  0  0  0  0  2  0  0  0  0  0  0
  188.5100  177.4730  140.7770 C   0  0  0  0  0  0  0  0  0  0  0  0
  186.0850  178.0680  137.9750 C   0  0  1  0  0  3  0  0  0  0  0  0
  190.1030  177.6580  136.8700 O   0  0  0  0  0  0  0  0  0  0  0  0
  185.9870  178.5700  141.8150 C   0  0  2  0  0  3  0  0  0  0  0  0
  189.8370  178.3920  134.5940 C   0  0  0  0  0  1  0  0  0  0  0  0
  183.6860  178.5590  137.3850 C   0  0  0  0  0  2  0  0  0  0  0  0
  183.2020  176.3630  139.9700 O   0  0  0  0  0  1  0  0  0  0  0  0
  184.8580  177.5850  137.2060 C   0  0  2  0  0  3  0  0  0  0  0  0
  186.5990  177.3870  142.2510 O   0  0  0  0  0  0  0  0  0  0  0  0
  185.2980  180.0060  143.7740 C   0  0  0  0  0  3  0  0  0  0  0  0
  184.9780  179.0270  142.8210 C   0  0  0  0  0  0  0  0  0  0  0  0
  183.7040  178.4460  142.8270 C   0  0  0  0  0  3  0  0  0  0  0  0
  181.5220  178.2820  143.7710 F   0  0  0  0  0  0  0  0  0  0  0  0
  183.0760  179.8240  144.7160 C   0  0  0  0  0  3  0  0  0  0  0  0
  182.7550  178.8460  143.7710 C   0  0  0  0  0  0  0  0  0  0  0  0
  184.3470  180.4040  144.7170 C   0  0  0  0  0  3  0  0  0  0  0  0
  184.1740  173.6950  137.3820 C   0  0  0  0  0  1  0  0  0  0  0  0
  183.0590  174.3120  136.6850 N   0  0  0  0  0  2  0  0  0  0  0  0
  2 17  1  0  0  0  0
  2 22  1  0  0  0  0
  3 20  1  0  0  0  0
  4 37  1  1  0  0  0
  4  1  1  0  0  0  0
  4 12  1  0  0  0  0
  6  9  1  0  0  0  0
  6 11  2  0  0  0  0
  7  3  1  1  0  0  0
  7 10  1  0  0  0  0
  8 26  1  6  0  0  0
  9  3  2  0  0  0  0
 10  5  1  6  0  0  0
 10 23  1  0  0  0  0
 11 16  1  0  0  0  0
 12  8  1  0  0  0  0
 13  9  1  0  0  0  0
 14  2  1  0  0  0  0
 15 28  1  0  0  0  0
 16 20  2  0  0  0  0
 17 13  1  0  0  0  0
 18 25  1  6  0  0  0
 18  8  1  0  0  0  0
 18 19  1  0  0  0  0
 19  5  1  0  0  0  0
 20 15  1  0  0  0  0
 21 13  1  6  0  0  0
 21  7  1  0  0  0  0
 22  6  1  0  0  0  0
 23 28  1  0  0  0  0
 23 30  1  1  0  0  0
 24  2  1  0  0  0  0
 27 25  1  1  0  0  0
 27  1  1  0  0  0  0
 27 21  1  0  0  0  0
 29 35  1  0  0  0  0
 30 31  1  0  0  0  0
 30 29  2  0  0  0  0
 31 34  2  0  0  0  0
 32 34  1  0  0  0  0
 33 35  2  0  0  0  0
 34 33  1  0  0  0  0
 37 36  1  0  0  0  0
M  END
>  <MODEL>
8

>  <REMARK>
 VINA RESULT:      -3.4      3.455      7.443
  Name = 
  2 active torsions:
  status: ('A' for Active; 'I' for Inactive)
    1  A    between atoms: C_4  and  N_37
    2  A    between atoms: C_23  and  C_30
                            x       y       z     vdW  Elec       q    Type
                         _______ _______ _______ _____ _____    ______ ____

>  <TORSDO>
F 2

$$$$
=
 OpenBabel11122411233D

 37 43  0  0  1  0  0  0  0  0999 V2000
  181.5920  179.8780  140.0760 C   0  0  0  0  0  2  0  0  0  0  0  0
  184.8970  179.2820  144.0630 C   0  0  0  0  0  0  0  0  0  0  0  0
  185.2310  177.9920  140.0950 C   0  0  0  0  0  0  0  0  0  0  0  0
  180.1600  180.3110  139.7610 C   0  0  2  0  0  3  0  0  0  0  0  0
  182.5410  175.8870  139.2120 O   0  0  0  0  0  0  0  0  0  0  0  0
  186.3320  178.5630  142.1660 C   0  0  0  0  0  0  0  0  0  0  0  0
  183.8090  177.9370  139.6080 C   0  0  1  0  0  3  0  0  0  0  0  0
  180.2680  178.3340  138.0380 C   0  0  2  0  0  3  0  0  0  0  0  0
  185.2010  178.4360  141.3860 C   0  0  0  0  0  0  0  0  0  0  0  0
  183.3940  176.8280  138.6210 C   0  0  1  0  0  3  0  0  0  0  0  0
  187.5780  178.2880  141.5860 C   0  0  0  0  0  3  0  0  0  0  0  0
  179.5080  179.5530  138.5880 C   0  0  0  0  0  2  0  0  0  0  0  0
  183.9050  178.5570  141.9190 N   0  0  0  0  0  0  0  0  0  0  0  0
  184.7060  180.7790  143.9020 C   0  0  0  0  0  1  0  0  0  0  0  0
  186.5750  177.0590  138.1220 C   0  0  0  0  0  2  0  0  0  0  0  0
  187.6380  177.8540  140.2440 C   0  0  0  0  0  3  0  0  0  0  0  0
  183.7270  178.5410  143.3690 C   0  0  0  0  0  2  0  0  0  0  0  0
  180.4480  177.1810  139.0430 C   0  0  1  0  0  3  0  0  0  0  0  0
  181.3130  176.0100  138.5400 C   0  0  0  0  0  2  0  0  0  0  0  0
  186.4640  177.6980  139.4780 C   0  0  0  0  0  0  0  0  0  0  0  0
  183.0170  177.9350  140.9440 C   0  0  1  0  0  3  0  0  0  0  0  0
  186.1770  178.9030  143.5160 O   0  0  0  0  0  0  0  0  0  0  0  0
  184.5450  176.1850  137.8440 C   0  0  2  0  0  3  0  0  0  0  0  0
  184.8770  178.9520  145.5400 C   0  0  0  0  0  1  0  0  0  0  0  0
  180.5640  177.5380  140.5350 C   0  0  0  0  0  2  0  0  0  0  0  0
  181.4750  178.7250  137.4520 O   0  0  0  0  0  1  0  0  0  0  0  0
  181.6350  178.5780  140.8910 C   0  0  2  0  0  3  0  0  0  0  0  0
  185.4010  177.1880  137.3710 O   0  0  0  0  0  0  0  0  0  0  0  0
  183.3160  175.9600  135.6500 C   0  0  0  0  0  3  0  0  0  0  0  0
  184.0320  175.3660  136.7000 C   0  0  0  0  0  0  0  0  0  0  0  0
  184.2490  173.9840  136.6960 C   0  0  0  0  0  3  0  0  0  0  0  0
  183.9760  171.8620  135.6450 F   0  0  0  0  0  0  0  0  0  0  0  0
  183.0520  173.7950  134.6000 C   0  0  0  0  0  3  0  0  0  0  0  0
  183.7620  173.2000  135.6470 C   0  0  0  0  0  0  0  0  0  0  0  0
  182.8290  175.1750  134.6030 C   0  0  0  0  0  3  0  0  0  0  0  0
  180.7950  181.9410  138.2100 C   0  0  0  0  0  1  0  0  0  0  0  0
  180.1290  181.7370  139.4850 N   0  0  0  0  0  2  0  0  0  0  0  0
  2 24  1  0  0  0  0
  3  9  1  0  0  0  0
  4 37  1  6  0  0  0
  4  1  1  0  0  0  0
  6 22  1  0  0  0  0
  7  3  1  1  0  0  0
  7 21  1  0  0  0  0
  8 26  1  1  0  0  0
  8 12  1  0  0  0  0
  8 18  1  0  0  0  0
  9 13  1  0  0  0  0
  9  6  2  0  0  0  0
 10  5  1  1  0  0  0
 10  7  1  0  0  0  0
 11  6  1  0  0  0  0
 12  4  1  0  0  0  0
 13 17  1  0  0  0  0
 14  2  1  0  0  0  0
 15 20  1  0  0  0  0
 16 11  2  0  0  0  0
 17  2  1  0  0  0  0
 18 19  1  6  0  0  0
 18 25  1  0  0  0  0
 19  5  1  0  0  0  0
 20  3  2  0  0  0  0
 20 16  1  0  0  0  0
 21 13  1  1  0  0  0
 22  2  1  0  0  0  0
 23 30  1  6  0  0  0
 23 10  1  0  0  0  0
 25 27  1  0  0  0  0
 27  1  1  6  0  0  0
 27 21  1  0  0  0  0
 28 23  1  0  0  0  0
 28 15  1  0  0  0  0
 29 30  1  0  0  0  0
 31 30  2  0  0  0  0
 32 34  1  0  0  0  0
 33 35  1  0  0  0  0
 33 34  2  0  0  0  0
 34 31  1  0  0  0  0
 35 29  2  0  0  0  0
 36 37  1  0  0  0  0
M  END
>  <MODEL>
9

>  <REMARK>
 VINA RESULT:      -3.4      2.140      2.961
  Name = 
  2 active torsions:
  status: ('A' for Active; 'I' for Inactive)
    1  A    between atoms: C_4  and  N_37
    2  A    between atoms: C_23  and  C_30
                            x       y       z     vdW  Elec       q    Type
                         _______ _______ _______ _____ _____    ______ ____

>  <TORSDO>
F 2

$$$$
