=
 OpenBabel11122411173D

 31 35  0  0  1  0  0  0  0  0999 V2000
  190.1410  175.8310  142.8550 C   0  0  0  0  0  0  0  0  0  0  0  0
  186.7150  177.1620  143.6720 C   0  0  2  0  0  3  0  0  0  0  0  0
  186.6740  177.8900  145.0030 C   0  0  0  0  0  0  0  0  0  0  0  0
  187.5930  178.2180  147.2330 C   0  0  0  0  0  0  0  0  0  0  0  0
  188.1060  177.0530  143.1150 C   0  0  0  0  0  0  0  0  0  0  0  0
  190.7150  176.8600  141.9850 C   0  0  0  0  0  3  0  0  0  0  0  0
  187.6530  177.6190  145.9730 C   0  0  0  0  0  3  0  0  0  0  0  0
  186.3300  178.9990  141.9190 C   0  0  2  0  0  3  0  0  0  0  0  0
  190.8060  174.8020  143.1410 O   0  0  0  0  0  0  0  0  0  0  0  0
  184.5160  179.0790  144.3530 C   0  0  0  0  0  2  0  0  0  0  0  0
  188.6460  177.9320  148.2410 C   0  0  0  0  0  1  0  0  0  0  0  0
  187.6920  178.6920  141.2970 C   0  0  0  0  0  2  0  0  0  0  0  0
  185.7550  177.7490  142.6150 C   0  0  2  0  0  3  0  0  0  0  0  0
  188.8100  175.9860  143.3530 N   0  0  0  0  0  0  0  0  0  0  0  0
  186.5420  179.0820  147.5460 C   0  0  0  0  0  3  0  0  0  0  0  0
  188.6780  178.2380  142.3630 C   0  0  2  0  0  3  0  0  0  0  0  0
  190.0220  177.9710  141.7380 C   0  0  0  0  0  3  0  0  0  0  0  0
  184.3930  178.0300  143.2510 C   0  0  0  0  0  2  0  0  0  0  0  0
  185.5910  178.7360  145.3400 C   0  0  0  0  0  0  0  0  0  0  0  0
  185.5450  179.3390  146.6020 C   0  0  0  0  0  3  0  0  0  0  0  0
  186.0140  177.8010  139.3520 O   0  0  0  0  0  0  0  0  0  0  0  0
  185.3030  178.8080  139.6160 C   0  0  0  0  0  0  0  0  0  0  0  0
  185.4160  179.4580  140.8820 N   0  0  0  0  0  2  0  0  0  0  0  0
  181.6910  178.5070  139.1940 C   0  0  1  0  0  3  0  0  0  0  0  0
  183.3790  180.2470  139.1630 O   0  0  0  0  0  0  0  0  0  0  0  0
  184.6230  177.4080  137.1900 C   0  0  0  0  0  1  0  0  0  0  0  0
  180.8590  177.7900  140.0510 O   0  0  0  0  0  1  0  0  0  0  0  0
  182.4760  179.5430  139.9900 C   0  0  0  0  0  2  0  0  0  0  0  0
  183.6470  178.3300  137.7570 N   0  0  0  0  0  0  0  0  0  0  0  0
  184.3140  179.3430  138.6030 C   0  0  2  0  0  3  0  0  0  0  0  0
  182.6880  177.5600  138.5430 C   0  0  0  0  0  2  0  0  0  0  0  0
  1  9  2  0  0  0  0
  1 14  1  0  0  0  0
  2  5  1  6  0  0  0
  2  3  1  0  0  0  0
  3 19  2  0  0  0  0
  3  7  1  0  0  0  0
  4 15  1  0  0  0  0
  4 11  1  0  0  0  0
  5 14  2  0  0  0  0
  6  1  1  0  0  0  0
  7  4  2  0  0  0  0
  8 23  1  6  0  0  0
  8 13  1  0  0  0  0
 10 19  1  0  0  0  0
 12  8  1  0  0  0  0
 13 18  1  1  0  0  0
 13  2  1  0  0  0  0
 16 12  1  6  0  0  0
 16  5  1  0  0  0  0
 17  6  2  0  0  0  0
 17 16  1  0  0  0  0
 18 10  1  0  0  0  0
 19 20  1  0  0  0  0
 20 15  2  0  0  0  0
 21 22  2  0  0  0  0
 22 23  1  0  0  0  0
 24 28  1  0  0  0  0
 24 27  1  1  0  0  0
 25 28  1  0  0  0  0
 26 29  1  0  0  0  0
 29 31  1  0  0  0  0
 29 30  1  0  0  0  0
 30 25  1  0  0  0  0
 30 22  1  1  0  0  0
 31 24  1  0  0  0  0
M  END
>  <MODEL>
1

>  <REMARK>
 VINA RESULT:      -9.9      0.000      0.000
  Name = 
  2 active torsions:
  status: ('A' for Active; 'I' for Inactive)
    1  A    between atoms: C_5  and  C_30
    2  A    between atoms: C_10  and  N_16
                            x       y       z     vdW  Elec       q    Type
                         _______ _______ _______ _____ _____    ______ ____

>  <TORSDO>
F 2

$$$$
=
 OpenBabel11122411173D

 31 35  0  0  1  0  0  0  0  0999 V2000
  191.3740  175.9990  143.8530 C   0  0  0  0  0  0  0  0  0  0  0  0
  187.7270  176.9260  143.7310 C   0  0  2  0  0  3  0  0  0  0  0  0
  187.2720  177.6690  144.9730 C   0  0  0  0  0  0  0  0  0  0  0  0
  187.5570  178.1460  147.3430 C   0  0  0  0  0  0  0  0  0  0  0  0
  189.2170  176.9740  143.5420 C   0  0  0  0  0  0  0  0  0  0  0  0
  192.0310  177.0720  143.1040 C   0  0  0  0  0  3  0  0  0  0  0  0
  187.9990  177.5350  146.1670 C   0  0  0  0  0  3  0  0  0  0  0  0
  187.5940  178.6710  141.8510 C   0  0  2  0  0  3  0  0  0  0  0  0
  192.0550  175.0620  144.3430 O   0  0  0  0  0  0  0  0  0  0  0  0
  185.2280  178.5790  143.7520 C   0  0  0  0  0  2  0  0  0  0  0  0
  188.3480  178.0070  148.5930 C   0  0  0  0  0  1  0  0  0  0  0  0
  189.0940  178.5170  141.6010 C   0  0  0  0  0  2  0  0  0  0  0  0
  187.0050  177.3750  142.4420 C   0  0  2  0  0  3  0  0  0  0  0  0
  189.9510  176.0030  143.9980 N   0  0  0  0  0  0  0  0  0  0  0  0
  186.3720  178.8840  147.3440 C   0  0  0  0  0  3  0  0  0  0  0  0
  189.8240  178.2040  142.8990 C   0  0  2  0  0  3  0  0  0  0  0  0
  191.3040  178.0880  142.6390 C   0  0  0  0  0  3  0  0  0  0  0  0
  185.5040  177.5030  142.7060 C   0  0  0  0  0  2  0  0  0  0  0  0
  186.0520  178.3850  144.9910 C   0  0  0  0  0  0  0  0  0  0  0  0
  185.6230  179.0030  146.1710 C   0  0  0  0  0  3  0  0  0  0  0  0
  187.9670  177.3050  139.3770 O   0  0  0  0  0  0  0  0  0  0  0  0
  187.1550  178.2690  139.3930 C   0  0  0  0  0  0  0  0  0  0  0  0
  186.9250  178.9980  140.5990 N   0  0  0  0  0  2  0  0  0  0  0  0
  184.3520  176.8300  137.5510 C   0  0  1  0  0  3  0  0  0  0  0  0
  185.0470  178.9960  138.3890 O   0  0  0  0  0  0  0  0  0  0  0  0
  187.9340  177.4190  136.7520 C   0  0  0  0  0  1  0  0  0  0  0  0
  183.6860  175.6630  137.9230 O   0  0  0  0  0  1  0  0  0  0  0  0
  184.3250  177.8240  138.7060 C   0  0  0  0  0  2  0  0  0  0  0  0
  186.5350  177.7480  136.9910 N   0  0  0  0  0  0  0  0  0  0  0  0
  186.4030  178.6670  138.1410 C   0  0  2  0  0  3  0  0  0  0  0  0
  185.8060  176.5080  137.2410 C   0  0  0  0  0  2  0  0  0  0  0  0
  1 14  1  0  0  0  0
  1  9  2  0  0  0  0
  2  5  1  6  0  0  0
  2  3  1  0  0  0  0
  3 19  2  0  0  0  0
  3  7  1  0  0  0  0
  4 15  1  0  0  0  0
  4 11  1  0  0  0  0
  5 14  2  0  0  0  0
  6  1  1  0  0  0  0
  7  4  2  0  0  0  0
  8 23  1  6  0  0  0
  8 13  1  0  0  0  0
 10 19  1  0  0  0  0
 12  8  1  0  0  0  0
 13 18  1  1  0  0  0
 13  2  1  0  0  0  0
 16 12  1  6  0  0  0
 16  5  1  0  0  0  0
 17 16  1  0  0  0  0
 17  6  2  0  0  0  0
 18 10  1  0  0  0  0
 19 20  1  0  0  0  0
 20 15  2  0  0  0  0
 21 22  2  0  0  0  0
 22 23  1  0  0  0  0
 24 27  1  1  0  0  0
 24 28  1  0  0  0  0
 25 28  1  0  0  0  0
 26 29  1  0  0  0  0
 29 31  1  0  0  0  0
 29 30  1  0  0  0  0
 30 25  1  0  0  0  0
 30 22  1  1  0  0  0
 31 24  1  0  0  0  0
M  END
>  <MODEL>
2

>  <REMARK>
 VINA RESULT:      -9.7      1.613      1.952
  Name = 
  2 active torsions:
  status: ('A' for Active; 'I' for Inactive)
    1  A    between atoms: C_5  and  C_30
    2  A    between atoms: C_10  and  N_16
                            x       y       z     vdW  Elec       q    Type
                         _______ _______ _______ _____ _____    ______ ____

>  <TORSDO>
F 2

$$$$
=
 OpenBabel11122411173D

 31 35  0  0  1  0  0  0  0  0999 V2000
  191.3610  176.6070  144.8350 C   0  0  0  0  0  0  0  0  0  0  0  0
  187.7600  177.1390  143.8750 C   0  0  2  0  0  3  0  0  0  0  0  0
  186.9690  177.8580  144.9520 C   0  0  0  0  0  0  0  0  0  0  0  0
  186.6710  178.4170  147.3020 C   0  0  0  0  0  0  0  0  0  0  0  0
  189.2420  177.3400  144.0150 C   0  0  0  0  0  0  0  0  0  0  0  0
  192.0600  177.7270  144.1990 C   0  0  0  0  0  3  0  0  0  0  0  0
  187.4220  177.8300  146.2810 C   0  0  0  0  0  3  0  0  0  0  0  0
  187.8780  178.8160  141.9330 C   0  0  2  0  0  3  0  0  0  0  0  0
  192.0050  175.7600  145.5060 O   0  0  0  0  0  0  0  0  0  0  0  0
  185.1690  178.5170  143.2720 C   0  0  0  0  0  2  0  0  0  0  0  0
  187.1740  178.3920  148.7000 C   0  0  0  0  0  1  0  0  0  0  0  0
  189.4030  178.8160  142.0250 C   0  0  0  0  0  2  0  0  0  0  0  0
  187.3020  177.4780  142.4390 C   0  0  2  0  0  3  0  0  0  0  0  0
  189.9490  176.4630  144.6650 N   0  0  0  0  0  0  0  0  0  0  0  0
  185.4490  179.0250  147.0090 C   0  0  0  0  0  3  0  0  0  0  0  0
  189.8540  178.6130  143.4640 C   0  0  2  0  0  3  0  0  0  0  0  0
  191.3580  178.6480  143.5410 C   0  0  0  0  0  3  0  0  0  0  0  0
  185.7750  177.4530  142.3630 C   0  0  0  0  0  2  0  0  0  0  0  0
  185.7110  178.4410  144.6690 C   0  0  0  0  0  0  0  0  0  0  0  0
  184.9720  179.0360  145.6970 C   0  0  0  0  0  3  0  0  0  0  0  0
  188.7320  177.2710  139.6950 O   0  0  0  0  0  0  0  0  0  0  0  0
  187.9380  178.2250  139.4740 C   0  0  0  0  0  0  0  0  0  0  0  0
  187.4750  179.0410  140.5520 N   0  0  0  0  0  2  0  0  0  0  0  0
  185.8880  176.4090  137.0630 C   0  0  1  0  0  3  0  0  0  0  0  0
  186.0470  178.6470  137.9840 O   0  0  0  0  0  0  0  0  0  0  0  0
  189.4350  177.5210  137.1140 C   0  0  0  0  0  1  0  0  0  0  0  0
  185.3280  175.1550  137.2980 O   0  0  0  0  0  1  0  0  0  0  0  0
  185.4460  177.3790  138.1530 C   0  0  0  0  0  2  0  0  0  0  0  0
  187.9870  177.6410  137.0090 N   0  0  0  0  0  0  0  0  0  0  0  0
  187.4550  178.5200  138.0710 C   0  0  2  0  0  3  0  0  0  0  0  0
  187.4050  176.3060  137.1120 C   0  0  0  0  0  2  0  0  0  0  0  0
  1  9  2  0  0  0  0
  2  5  1  6  0  0  0
  2  3  1  0  0  0  0
  3  7  1  0  0  0  0
  4 11  1  0  0  0  0
  5 14  2  0  0  0  0
  6  1  1  0  0  0  0
  7  4  2  0  0  0  0
  8 23  1  6  0  0  0
  8 12  1  0  0  0  0
  8 13  1  0  0  0  0
 10 19  1  0  0  0  0
 13 18  1  1  0  0  0
 13  2  1  0  0  0  0
 14  1  1  0  0  0  0
 15  4  1  0  0  0  0
 16 12  1  6  0  0  0
 16 17  1  0  0  0  0
 16  5  1  0  0  0  0
 17  6  2  0  0  0  0
 18 10  1  0  0  0  0
 19  3  2  0  0  0  0
 19 20  1  0  0  0  0
 20 15  2  0  0  0  0
 22 21  2  0  0  0  0
 22 23  1  0  0  0  0
 24 31  1  0  0  0  0
 24 27  1  1  0  0  0
 24 28  1  0  0  0  0
 25 30  1  0  0  0  0
 25 28  1  0  0  0  0
 29 31  1  0  0  0  0
 29 26  1  0  0  0  0
 29 30  1  0  0  0  0
 30 22  1  1  0  0  0
M  END
>  <MODEL>
3

>  <REMARK>
 VINA RESULT:      -8.8      2.260      2.811
  Name = 
  2 active torsions:
  status: ('A' for Active; 'I' for Inactive)
    1  A    between atoms: C_5  and  C_30
    2  A    between atoms: C_10  and  N_16
                            x       y       z     vdW  Elec       q    Type
                         _______ _______ _______ _____ _____    ______ ____

>  <TORSDO>
F 2

$$$$
=
 OpenBabel11122411173D

 31 35  0  0  1  0  0  0  0  0999 V2000
  184.9990  178.9320  138.7660 C   0  0  0  0  0  0  0  0  0  0  0  0
  188.6230  178.1680  139.4430 C   0  0  2  0  0  3  0  0  0  0  0  0
  188.8310  177.4480  140.7630 C   0  0  0  0  0  0  0  0  0  0  0  0
  188.0610  176.9630  143.0210 C   0  0  0  0  0  0  0  0  0  0  0  0
  187.2120  178.0540  138.9380 C   0  0  0  0  0  0  0  0  0  0  0  0
  184.5660  177.8290  137.9050 C   0  0  0  0  0  3  0  0  0  0  0  0
  187.8580  177.5520  141.7700 C   0  0  0  0  0  3  0  0  0  0  0  0
  189.2340  176.4270  137.6560 C   0  0  2  0  0  3  0  0  0  0  0  0
  184.1880  179.8380  139.0870 O   0  0  0  0  0  0  0  0  0  0  0  0
  191.1270  176.6280  140.0210 C   0  0  0  0  0  2  0  0  0  0  0  0
  187.0140  177.0700  144.0700 C   0  0  0  0  0  1  0  0  0  0  0  0
  187.8180  176.5140  137.0870 C   0  0  0  0  0  2  0  0  0  0  0  0
  189.6250  177.7500  138.3450 C   0  0  2  0  0  3  0  0  0  0  0  0
  186.3560  178.9920  139.2140 N   0  0  0  0  0  0  0  0  0  0  0  0
  189.2490  176.2790  143.2850 C   0  0  0  0  0  3  0  0  0  0  0  0
  186.8120  176.7960  138.1930 C   0  0  2  0  0  3  0  0  0  0  0  0
  185.4190  176.8460  137.6200 C   0  0  0  0  0  3  0  0  0  0  0  0
  191.0370  177.6890  138.9280 C   0  0  0  0  0  2  0  0  0  0  0  0
  190.0480  176.7870  141.0510 C   0  0  0  0  0  0  0  0  0  0  0  0
  190.2380  176.1920  142.3030 C   0  0  0  0  0  3  0  0  0  0  0  0
  190.9200  174.1320  137.5320 O   0  0  0  0  0  0  0  0  0  0  0  0
  190.9850  174.9550  136.5790 C   0  0  0  0  0  0  0  0  0  0  0  0
  190.1700  176.1280  136.5820 N   0  0  0  0  0  2  0  0  0  0  0  0
  193.3240  172.2920  135.7090 C   0  0  1  0  0  3  0  0  0  0  0  0
  191.5650  173.5760  134.6440 O   0  0  0  0  0  0  0  0  0  0  0  0
  193.7070  175.8990  136.5190 C   0  0  0  0  0  1  0  0  0  0  0  0
  193.5470  171.1590  136.4900 O   0  0  0  0  0  1  0  0  0  0  0  0
  191.8390  172.4030  135.3820 C   0  0  0  0  0  2  0  0  0  0  0  0
  193.3620  174.7250  135.7290 N   0  0  0  0  0  0  0  0  0  0  0  0
  191.9180  174.7130  135.4120 C   0  0  2  0  0  3  0  0  0  0  0  0
  193.7280  173.5340  136.4890 C   0  0  0  0  0  2  0  0  0  0  0  0
  1  9  2  0  0  0  0
  1 14  1  0  0  0  0
  2  5  1  6  0  0  0
  2  3  1  0  0  0  0
  3 19  2  0  0  0  0
  3  7  1  0  0  0  0
  4 15  1  0  0  0  0
  4 11  1  0  0  0  0
  5 14  2  0  0  0  0
  6  1  1  0  0  0  0
  7  4  2  0  0  0  0
  8 23  1  6  0  0  0
  8 13  1  0  0  0  0
 10 19  1  0  0  0  0
 12  8  1  0  0  0  0
 13 18  1  1  0  0  0
 13  2  1  0  0  0  0
 16 12  1  6  0  0  0
 16  5  1  0  0  0  0
 17  6  2  0  0  0  0
 17 16  1  0  0  0  0
 18 10  1  0  0  0  0
 19 20  1  0  0  0  0
 20 15  2  0  0  0  0
 22 23  1  0  0  0  0
 22 21  2  0  0  0  0
 24 31  1  0  0  0  0
 24 27  1  1  0  0  0
 25 28  1  0  0  0  0
 25 30  1  0  0  0  0
 28 24  1  0  0  0  0
 29 31  1  0  0  0  0
 29 26  1  0  0  0  0
 30 29  1  0  0  0  0
 30 22  1  1  0  0  0
M  END
>  <MODEL>
4

>  <REMARK>
 VINA RESULT:      -8.0      4.702      8.093
  Name = 
  2 active torsions:
  status: ('A' for Active; 'I' for Inactive)
    1  A    between atoms: C_5  and  C_30
    2  A    between atoms: C_10  and  N_16
                            x       y       z     vdW  Elec       q    Type
                         _______ _______ _______ _____ _____    ______ ____

>  <TORSDO>
F 2

$$$$
=
 OpenBabel11122411173D

 31 35  0  0  1  0  0  0  0  0999 V2000
  182.7730  179.9330  138.6320 C   0  0  0  0  0  0  0  0  0  0  0  0
  186.2610  179.0530  139.7440 C   0  0  2  0  0  3  0  0  0  0  0  0
  186.3040  178.5260  141.1670 C   0  0  0  0  0  0  0  0  0  0  0  0
  185.3170  178.4330  143.3900 C   0  0  0  0  0  0  0  0  0  0  0  0
  184.8920  178.9530  139.1330 C   0  0  0  0  0  0  0  0  0  0  0  0
  182.3310  178.7430  137.9010 C   0  0  0  0  0  3  0  0  0  0  0  0
  185.2620  178.8400  142.0550 C   0  0  0  0  0  3  0  0  0  0  0  0
  186.8840  177.0300  138.2890 C   0  0  2  0  0  3  0  0  0  0  0  0
  182.0090  180.9260  138.7440 O   0  0  0  0  0  0  0  0  0  0  0  0
  188.5850  177.4630  140.7670 C   0  0  0  0  0  2  0  0  0  0  0  0
  184.1980  178.7600  144.3120 C   0  0  0  0  0  1  0  0  0  0  0  0
  185.5300  177.1190  137.5850 C   0  0  0  0  0  2  0  0  0  0  0  0
  187.3150  178.4140  138.8150 C   0  0  2  0  0  3  0  0  0  0  0  0
  184.0890  179.9740  139.1910 N   0  0  0  0  0  0  0  0  0  0  0  0
  186.4230  177.7230  143.8590 C   0  0  0  0  0  3  0  0  0  0  0  0
  184.4600  177.6260  138.5420 C   0  0  2  0  0  3  0  0  0  0  0  0
  183.1280  177.6770  137.8400 C   0  0  0  0  0  3  0  0  0  0  0  0
  188.6660  178.3520  139.5290 C   0  0  0  0  0  2  0  0  0  0  0  0
  187.4400  177.8410  141.6590 C   0  0  0  0  0  0  0  0  0  0  0  0
  187.4800  177.4280  142.9950 C   0  0  0  0  0  3  0  0  0  0  0  0
  187.0220  174.3460  137.3420 O   0  0  0  0  0  0  0  0  0  0  0  0
  187.8910  175.1570  136.9210 C   0  0  0  0  0  0  0  0  0  0  0  0
  187.8800  176.5160  137.3600 N   0  0  0  0  0  2  0  0  0  0  0  0
  191.5010  175.6380  136.6980 C   0  0  1  0  0  3  0  0  0  0  0  0
  189.9000  173.8260  136.5100 O   0  0  0  0  0  0  0  0  0  0  0  0
  188.6240  176.6900  134.5930 C   0  0  0  0  0  1  0  0  0  0  0  0
  192.2550  176.3540  137.6260 O   0  0  0  0  0  1  0  0  0  0  0  0
  190.7270  174.5340  137.4110 C   0  0  0  0  0  2  0  0  0  0  0  0
  189.6120  175.7890  135.1710 N   0  0  0  0  0  0  0  0  0  0  0  0
  188.9530  174.7120  135.9400 C   0  0  2  0  0  3  0  0  0  0  0  0
  190.4950  176.5660  136.0370 C   0  0  0  0  0  2  0  0  0  0  0  0
  1  9  2  0  0  0  0
  1 14  1  0  0  0  0
  2  5  1  6  0  0  0
  2  3  1  0  0  0  0
  3 19  2  0  0  0  0
  3  7  1  0  0  0  0
  4 15  1  0  0  0  0
  4 11  1  0  0  0  0
  5 14  2  0  0  0  0
  6  1  1  0  0  0  0
  7  4  2  0  0  0  0
  8 23  1  6  0  0  0
  8 13  1  0  0  0  0
 10 19  1  0  0  0  0
 12  8  1  0  0  0  0
 13 18  1  1  0  0  0
 13  2  1  0  0  0  0
 16 12  1  6  0  0  0
 16  5  1  0  0  0  0
 17  6  2  0  0  0  0
 17 16  1  0  0  0  0
 18 10  1  0  0  0  0
 19 20  1  0  0  0  0
 20 15  2  0  0  0  0
 22 21  2  0  0  0  0
 22 23  1  0  0  0  0
 24 28  1  0  0  0  0
 24 27  1  1  0  0  0
 25 28  1  0  0  0  0
 26 29  1  0  0  0  0
 29 30  1  0  0  0  0
 29 31  1  0  0  0  0
 30 25  1  0  0  0  0
 30 22  1  1  0  0  0
 31 24  1  0  0  0  0
M  END
>  <MODEL>
5

>  <REMARK>
 VINA RESULT:      -7.4      3.400      6.914
  Name = 
  2 active torsions:
  status: ('A' for Active; 'I' for Inactive)
    1  A    between atoms: C_5  and  C_30
    2  A    between atoms: C_10  and  N_16
                            x       y       z     vdW  Elec       q    Type
                         _______ _______ _______ _____ _____    ______ ____

>  <TORSDO>
F 2

$$$$
=
 OpenBabel11122411173D

 31 35  0  0  1  0  0  0  0  0999 V2000
  179.7170  179.0650  141.6760 C   0  0  0  0  0  0  0  0  0  0  0  0
  183.3160  179.1440  140.5740 C   0  0  2  0  0  3  0  0  0  0  0  0
  184.2750  178.7670  141.6870 C   0  0  0  0  0  0  0  0  0  0  0  0
  184.7610  178.6290  144.0690 C   0  0  0  0  0  0  0  0  0  0  0  0
  181.9140  178.6680  140.8320 C   0  0  0  0  0  0  0  0  0  0  0  0
  179.2500  177.7460  141.2430 C   0  0  0  0  0  3  0  0  0  0  0  0
  183.8710  178.8960  143.0260 C   0  0  0  0  0  3  0  0  0  0  0  0
  183.4910  177.2140  138.8890 C   0  0  2  0  0  3  0  0  0  0  0  0
  178.9310  179.8520  142.2640 O   0  0  0  0  0  0  0  0  0  0  0  0
  186.1180  178.2500  140.0040 C   0  0  0  0  0  2  0  0  0  0  0  0
  184.3100  178.7550  145.4790 C   0  0  0  0  0  1  0  0  0  0  0  0
  182.0030  176.9150  139.0750 C   0  0  0  0  0  2  0  0  0  0  0  0
  183.7880  178.6990  139.1730 C   0  0  2  0  0  3  0  0  0  0  0  0
  181.0610  179.4670  141.4000 N   0  0  0  0  0  0  0  0  0  0  0  0
  186.0730  178.2470  143.7860 C   0  0  0  0  0  3  0  0  0  0  0  0
  181.5680  177.2300  140.4990 C   0  0  2  0  0  3  0  0  0  0  0  0
  180.1080  176.9010  140.6730 C   0  0  0  0  0  3  0  0  0  0  0  0
  185.2720  179.0250  138.9980 C   0  0  0  0  0  2  0  0  0  0  0  0
  185.6180  178.4180  141.4090 C   0  0  0  0  0  0  0  0  0  0  0  0
  186.4990  178.1420  142.4600 C   0  0  0  0  0  3  0  0  0  0  0  0
  184.1570  174.6000  137.9690 O   0  0  0  0  0  0  0  0  0  0  0  0
  184.2040  175.5410  137.1310 C   0  0  0  0  0  0  0  0  0  0  0  0
  183.8860  176.8760  137.5290 N   0  0  0  0  0  2  0  0  0  0  0  0
  184.8410  172.5190  135.1890 C   0  0  1  0  0  3  0  0  0  0  0  0
  183.5870  174.5820  134.9690 O   0  0  0  0  0  0  0  0  0  0  0  0
  186.9390  175.4040  136.2310 C   0  0  0  0  0  1  0  0  0  0  0  0
  184.7590  171.2250  135.7020 O   0  0  0  0  0  1  0  0  0  0  0  0
  183.5210  173.2450  135.4190 C   0  0  0  0  0  2  0  0  0  0  0  0
  185.9230  174.6790  135.4800 N   0  0  0  0  0  0  0  0  0  0  0  0
  184.5880  175.2770  135.6920 C   0  0  2  0  0  3  0  0  0  0  0  0
  185.9330  173.2860  135.9180 C   0  0  0  0  0  2  0  0  0  0  0  0
  1  9  2  0  0  0  0
  2  5  1  1  0  0  0
  2  3  1  0  0  0  0
  3  7  1  0  0  0  0
  4 11  1  0  0  0  0
  5 14  2  0  0  0  0
  6  1  1  0  0  0  0
  7  4  2  0  0  0  0
  8 23  1  6  0  0  0
  8 12  1  0  0  0  0
  8 13  1  0  0  0  0
 10 19  1  0  0  0  0
 13 18  1  1  0  0  0
 13  2  1  0  0  0  0
 14  1  1  0  0  0  0
 15  4  1  0  0  0  0
 16 12  1  6  0  0  0
 16 17  1  0  0  0  0
 16  5  1  0  0  0  0
 17  6  2  0  0  0  0
 18 10  1  0  0  0  0
 19  3  2  0  0  0  0
 19 20  1  0  0  0  0
 20 15  2  0  0  0  0
 22 23  1  0  0  0  0
 22 21  2  0  0  0  0
 24 28  1  0  0  0  0
 24 27  1  1  0  0  0
 24 31  1  0  0  0  0
 25 28  1  0  0  0  0
 25 30  1  0  0  0  0
 29 30  1  0  0  0  0
 29 31  1  0  0  0  0
 29 26  1  0  0  0  0
 30 22  1  1  0  0  0
M  END
>  <MODEL>
6

>  <REMARK>
 VINA RESULT:      -7.3      3.370      6.671
  Name = 
  2 active torsions:
  status: ('A' for Active; 'I' for Inactive)
    1  A    between atoms: C_5  and  C_30
    2  A    between atoms: C_10  and  N_16
                            x       y       z     vdW  Elec       q    Type
                         _______ _______ _______ _____ _____    ______ ____

>  <TORSDO>
F 2

$$$$
=
 OpenBabel11122411173D

 31 35  0  0  1  0  0  0  0  0999 V2000
  189.3480  176.6610  141.4350 C   0  0  0  0  0  0  0  0  0  0  0  0
  186.7560  177.1610  144.1200 C   0  0  2  0  0  3  0  0  0  0  0  0
  187.3580  177.6230  145.4340 C   0  0  0  0  0  0  0  0  0  0  0  0
  189.2740  177.7210  146.9330 C   0  0  0  0  0  0  0  0  0  0  0  0
  187.6610  177.4140  142.9480 C   0  0  0  0  0  0  0  0  0  0  0  0
  189.3130  177.9160  140.6800 C   0  0  0  0  0  3  0  0  0  0  0  0
  188.7150  177.3750  145.7010 C   0  0  0  0  0  3  0  0  0  0  0  0
  185.3880  179.1710  143.2940 C   0  0  2  0  0  3  0  0  0  0  0  0
  190.1370  175.7420  141.0950 O   0  0  0  0  0  0  0  0  0  0  0  0
  185.0970  178.4810  146.2370 C   0  0  0  0  0  2  0  0  0  0  0  0
  190.7140  177.4660  147.1920 C   0  0  0  0  0  1  0  0  0  0  0  0
  186.2480  179.2400  142.0320 C   0  0  0  0  0  2  0  0  0  0  0  0
  185.3480  177.7330  143.8480 C   0  0  2  0  0  3  0  0  0  0  0  0
  188.4600  176.4730  142.5400 N   0  0  0  0  0  0  0  0  0  0  0  0
  188.4780  178.3040  147.9210 C   0  0  0  0  0  3  0  0  0  0  0  0
  187.6740  178.7990  142.3320 C   0  0  2  0  0  3  0  0  0  0  0  0
  188.5150  178.9030  141.0860 C   0  0  0  0  0  3  0  0  0  0  0  0
  184.4970  177.6380  145.1150 C   0  0  0  0  0  2  0  0  0  0  0  0
  186.5500  178.1770  146.4540 C   0  0  0  0  0  0  0  0  0  0  0  0
  187.1210  178.5310  147.6810 C   0  0  0  0  0  3  0  0  0  0  0  0
  183.5820  177.8780  141.5080 O   0  0  0  0  0  0  0  0  0  0  0  0
  183.1820  178.9270  142.0820 C   0  0  0  0  0  0  0  0  0  0  0  0
  184.0390  179.6250  142.9860 N   0  0  0  0  0  2  0  0  0  0  0  0
  179.8790  178.1090  143.4020 C   0  0  1  0  0  3  0  0  0  0  0  0
  181.2200  180.0830  142.9720 O   0  0  0  0  0  0  0  0  0  0  0  0
  181.4400  177.8850  140.0360 C   0  0  0  0  0  1  0  0  0  0  0  0
  179.6390  177.1230  144.3570 O   0  0  0  0  0  1  0  0  0  0  0  0
  180.9030  179.1030  143.9390 C   0  0  0  0  0  2  0  0  0  0  0  0
  180.8400  178.5170  141.2030 N   0  0  0  0  0  0  0  0  0  0  0  0
  181.7880  179.4600  141.8330 C   0  0  2  0  0  3  0  0  0  0  0  0
  180.4570  177.4710  142.1480 C   0  0  0  0  0  2  0  0  0  0  0  0
  1 14  1  0  0  0  0
  2  5  1  6  0  0  0
  2  3  1  0  0  0  0
  3  7  2  0  0  0  0
  3 19  1  0  0  0  0
  4 11  1  0  0  0  0
  4 15  2  0  0  0  0
  6 17  2  0  0  0  0
  6  1  1  0  0  0  0
  7  4  1  0  0  0  0
  8 23  1  6  0  0  0
  8 13  1  0  0  0  0
  9  1  2  0  0  0  0
 10 19  1  0  0  0  0
 12 16  1  0  0  0  0
 12  8  1  0  0  0  0
 13  2  1  0  0  0  0
 13 18  1  1  0  0  0
 14  5  2  0  0  0  0
 16 17  1  6  0  0  0
 16  5  1  0  0  0  0
 18 10  1  0  0  0  0
 19 20  2  0  0  0  0
 20 15  1  0  0  0  0
 21 22  2  0  0  0  0
 22 23  1  0  0  0  0
 24 28  1  0  0  0  0
 24 27  1  1  0  0  0
 25 28  1  0  0  0  0
 26 29  1  0  0  0  0
 29 30  1  0  0  0  0
 29 31  1  0  0  0  0
 30 22  1  1  0  0  0
 30 25  1  0  0  0  0
 31 24  1  0  0  0  0
M  END
>  <MODEL>
7

>  <REMARK>
 VINA RESULT:      -7.3      2.238      2.765
  Name = 
  2 active torsions:
  status: ('A' for Active; 'I' for Inactive)
    1  A    between atoms: C_5  and  C_30
    2  A    between atoms: C_10  and  N_16
                            x       y       z     vdW  Elec       q    Type
                         _______ _______ _______ _____ _____    ______ ____

>  <TORSDO>
F 2

$$$$
=
 OpenBabel11122411173D

 31 35  0  0  1  0  0  0  0  0999 V2000
  183.7930  178.6280  143.1870 C   0  0  0  0  0  0  0  0  0  0  0  0
  182.8870  177.8770  139.6110 C   0  0  2  0  0  3  0  0  0  0  0  0
  181.9830  178.9330  139.0040 C   0  0  0  0  0  0  0  0  0  0  0  0
  180.3140  180.6790  139.3090 C   0  0  0  0  0  0  0  0  0  0  0  0
  183.6290  178.3750  140.8190 C   0  0  0  0  0  0  0  0  0  0  0  0
  185.1010  179.2790  143.0850 C   0  0  0  0  0  3  0  0  0  0  0  0
  181.2110  179.7530  139.8440 C   0  0  0  0  0  3  0  0  0  0  0  0
  185.1080  178.1230  138.3440 C   0  0  2  0  0  3  0  0  0  0  0  0
  183.2640  178.4470  144.3140 O   0  0  0  0  0  0  0  0  0  0  0  0
  182.5920  178.1840  136.6460 C   0  0  0  0  0  2  0  0  0  0  0  0
  179.5180  181.5490  140.2130 C   0  0  0  0  0  1  0  0  0  0  0  0
  185.8230  178.4410  139.6580 C   0  0  0  0  0  2  0  0  0  0  0  0
  183.8670  177.2440  138.5990 C   0  0  2  0  0  3  0  0  0  0  0  0
  183.1350  178.1700  142.0040 N   0  0  0  0  0  0  0  0  0  0  0  0
  180.1630  180.7850  137.9250 C   0  0  0  0  0  3  0  0  0  0  0  0
  184.8930  179.1830  140.6070 C   0  0  2  0  0  3  0  0  0  0  0  0
  185.6230  179.5170  141.8820 C   0  0  0  0  0  3  0  0  0  0  0  0
  183.1300  176.9150  137.3010 C   0  0  0  0  0  2  0  0  0  0  0  0
  181.7960  179.0190  137.6040 C   0  0  0  0  0  0  0  0  0  0  0  0
  180.9020  179.9580  137.0770 C   0  0  0  0  0  3  0  0  0  0  0  0
  187.1800  179.3780  136.8430 O   0  0  0  0  0  0  0  0  0  0  0  0
  187.0490  178.1290  136.7240 C   0  0  0  0  0  0  0  0  0  0  0  0
  186.0270  177.4400  137.4450 N   0  0  0  0  0  2  0  0  0  0  0  0
  187.6930  174.5690  136.2510 C   0  0  1  0  0  3  0  0  0  0  0  0
  187.2810  176.5310  134.8880 O   0  0  0  0  0  0  0  0  0  0  0  0
  189.7420  177.4210  137.4680 C   0  0  0  0  0  1  0  0  0  0  0  0
  187.0430  173.5550  136.9530 O   0  0  0  0  0  1  0  0  0  0  0  0
  186.6620  175.4520  135.5580 C   0  0  0  0  0  2  0  0  0  0  0  0
  189.0420  176.5770  136.5080 N   0  0  0  0  0  0  0  0  0  0  0  0
  187.9740  177.3370  135.8250 C   0  0  2  0  0  3  0  0  0  0  0  0
  188.4790  175.4350  137.2220 C   0  0  0  0  0  2  0  0  0  0  0  0
  1  9  2  0  0  0  0
  2  3  1  6  0  0  0
  2  5  1  0  0  0  0
  3  7  1  0  0  0  0
  4  7  2  0  0  0  0
  4 11  1  0  0  0  0
  5 14  2  0  0  0  0
  6  1  1  0  0  0  0
  8 23  1  6  0  0  0
  8 13  1  0  0  0  0
  8 12  1  0  0  0  0
 10 18  1  0  0  0  0
 10 19  1  0  0  0  0
 13 18  1  6  0  0  0
 13  2  1  0  0  0  0
 14  1  1  0  0  0  0
 15  4  1  0  0  0  0
 16 12  1  6  0  0  0
 16  5  1  0  0  0  0
 16 17  1  0  0  0  0
 17  6  2  0  0  0  0
 19  3  2  0  0  0  0
 20 19  1  0  0  0  0
 20 15  2  0  0  0  0
 22 21  2  0  0  0  0
 22 23  1  0  0  0  0
 24 27  1  1  0  0  0
 24 31  1  0  0  0  0
 25 28  1  0  0  0  0
 25 30  1  0  0  0  0
 28 24  1  0  0  0  0
 29 31  1  0  0  0  0
 29 26  1  0  0  0  0
 30 29  1  0  0  0  0
 30 22  1  1  0  0  0
M  END
>  <MODEL>
8

>  <REMARK>
 VINA RESULT:      -7.2      3.672      7.135
  Name = 
  2 active torsions:
  status: ('A' for Active; 'I' for Inactive)
    1  A    between atoms: C_5  and  C_30
    2  A    between atoms: C_10  and  N_16
                            x       y       z     vdW  Elec       q    Type
                         _______ _______ _______ _____ _____    ______ ____

>  <TORSDO>
F 2

$$$$
=
 OpenBabel11122411173D

 31 35  0  0  1  0  0  0  0  0999 V2000
  186.7800  178.5530  146.9530 C   0  0  0  0  0  0  0  0  0  0  0  0
  189.7760  178.2270  144.6960 C   0  0  2  0  0  3  0  0  0  0  0  0
  190.6240  177.0120  145.0230 C   0  0  0  0  0  0  0  0  0  0  0  0
  191.3780  175.3700  146.6540 C   0  0  0  0  0  0  0  0  0  0  0  0
  188.3770  178.1170  145.2320 C   0  0  0  0  0  0  0  0  0  0  0  0
  185.6950  177.9430  146.1810 C   0  0  0  0  0  3  0  0  0  0  0  0
  190.5510  176.4400  146.3040 C   0  0  0  0  0  3  0  0  0  0  0  0
  188.7640  177.7060  142.3940 C   0  0  2  0  0  3  0  0  0  0  0  0
  186.5530  179.0280  148.0950 O   0  0  0  0  0  0  0  0  0  0  0  0
  191.7170  177.0820  142.7220 C   0  0  0  0  0  2  0  0  0  0  0  0
  191.2760  174.7660  148.0080 C   0  0  0  0  0  1  0  0  0  0  0  0
  187.3590  177.7980  142.9900 C   0  0  0  0  0  2  0  0  0  0  0  0
  189.7520  178.5790  143.1920 C   0  0  2  0  0  3  0  0  0  0  0  0
  188.0920  178.6340  146.3910 N   0  0  0  0  0  0  0  0  0  0  0  0
  192.3010  174.8710  145.7340 C   0  0  0  0  0  3  0  0  0  0  0  0
  187.3590  177.3250  144.4360 C   0  0  2  0  0  3  0  0  0  0  0  0
  185.9620  177.3920  144.9970 C   0  0  0  0  0  3  0  0  0  0  0  0
  191.1670  178.5020  142.6190 C   0  0  0  0  0  2  0  0  0  0  0  0
  191.5890  176.5270  144.1100 C   0  0  0  0  0  0  0  0  0  0  0  0
  192.4060  175.4480  144.4670 C   0  0  0  0  0  3  0  0  0  0  0  0
  189.7730  176.2170  140.1830 O   0  0  0  0  0  0  0  0  0  0  0  0
  189.2490  177.3380  139.9390 C   0  0  0  0  0  0  0  0  0  0  0  0
  188.7290  178.1360  141.0030 N   0  0  0  0  0  2  0  0  0  0  0  0
  186.8960  176.8160  137.2000 C   0  0  1  0  0  3  0  0  0  0  0  0
  188.0140  178.6650  138.2990 O   0  0  0  0  0  0  0  0  0  0  0  0
  190.4920  176.0190  137.6980 C   0  0  0  0  0  1  0  0  0  0  0  0
  185.7670  176.0020  137.2810 O   0  0  0  0  0  1  0  0  0  0  0  0
  186.8530  177.8610  138.3090 C   0  0  0  0  0  2  0  0  0  0  0  0
  189.3160  176.8440  137.4540 N   0  0  0  0  0  0  0  0  0  0  0  0
  189.1550  177.8550  138.5200 C   0  0  2  0  0  3  0  0  0  0  0  0
  188.1450  175.9720  137.3970 C   0  0  0  0  0  2  0  0  0  0  0  0
  1  9  2  0  0  0  0
  2  3  1  6  0  0  0
  2  5  1  0  0  0  0
  3  7  1  0  0  0  0
  4 11  1  0  0  0  0
  5 14  2  0  0  0  0
  6  1  1  0  0  0  0
  7  4  2  0  0  0  0
  8 23  1  6  0  0  0
  8 12  1  0  0  0  0
  8 13  1  0  0  0  0
 10 19  1  0  0  0  0
 13 18  1  6  0  0  0
 13  2  1  0  0  0  0
 14  1  1  0  0  0  0
 15  4  1  0  0  0  0
 16 12  1  6  0  0  0
 16 17  1  0  0  0  0
 16  5  1  0  0  0  0
 17  6  2  0  0  0  0
 18 10  1  0  0  0  0
 19 20  1  0  0  0  0
 19  3  2  0  0  0  0
 20 15  2  0  0  0  0
 22 21  2  0  0  0  0
 22 23  1  0  0  0  0
 24 27  1  1  0  0  0
 24 31  1  0  0  0  0
 24 28  1  0  0  0  0
 25 28  1  0  0  0  0
 25 30  1  0  0  0  0
 29 26  1  0  0  0  0
 29 30  1  0  0  0  0
 30 22  1  1  0  0  0
 31 29  1  0  0  0  0
M  END
>  <MODEL>
9

>  <REMARK>
 VINA RESULT:      -7.2      3.108      5.291
  Name = 
  2 active torsions:
  status: ('A' for Active; 'I' for Inactive)
    1  A    between atoms: C_5  and  C_30
    2  A    between atoms: C_10  and  N_16
                            x       y       z     vdW  Elec       q    Type
                         _______ _______ _______ _____ _____    ______ ____

>  <TORSDO>
F 2

$$$$
