=
 OpenBabel11122412143D

 34 41  0  0  1  0  0  0  0  0999 V2000
  184.7670  178.7610  144.4340 C   0  0  0  0  0  0  0  0  0  0  0  0
  182.4290  178.8010  143.4510 C   0  0  0  0  0  2  0  0  0  0  0  0
  191.3150  177.2500  143.8830 C   0  0  1  0  0  3  0  0  0  0  0  0
  186.7960  177.4080  145.0280 C   0  0  2  0  0  3  0  0  0  0  0  0
  188.7840  177.6680  143.4750 C   0  0  1  0  0  3  0  0  0  0  0  0
  189.9640  175.4300  142.7100 C   0  0  0  0  0  1  0  0  0  0  0  0
  191.1440  177.6790  142.4280 C   0  0  0  0  0  2  0  0  0  0  0  0
  190.5650  177.8780  145.9020 C   0  0  0  0  0  2  0  0  0  0  0  0
  184.3200  179.1170  141.9700 C   0  0  1  0  0  3  0  0  0  0  0  0
  184.2650  179.5210  139.0030 C   0  0  0  0  0  2  0  0  0  0  0  0
  187.7220  177.4470  142.4940 N   0  0  0  0  0  2  0  0  0  0  0  0
  189.0640  178.1600  145.9220 C   0  0  0  0  0  2  0  0  0  0  0  0
  185.5240  178.2030  141.6830 C   0  0  2  0  0  3  0  0  0  0  0  0
  181.9000  178.8990  142.0350 C   0  0  0  0  0  2  0  0  0  0  0  0
  188.3240  177.2940  144.8980 C   0  0  1  0  0  3  0  0  0  0  0  0
  191.1250  178.3670  144.7140 O   0  0  0  0  0  0  0  0  0  0  0  0
  182.9720  179.4650  139.8230 C   0  0  2  0  0  3  0  0  0  0  0  0
  186.2370  178.5670  144.1820 C   0  0  1  0  0  3  0  0  0  0  0  0
  190.0490  176.8930  143.1050 C   0  0  2  0  0  0  0  0  0  0  0  0
  186.6620  178.4490  142.6900 C   0  0  1  0  0  3  0  0  0  0  0  0
  185.2840  178.4630  146.8190 C   0  0  0  0  0  2  0  0  0  0  0  0
  185.1160  178.2650  139.1430 C   0  0  0  0  0  2  0  0  0  0  0  0
  186.2680  177.3360  146.4770 C   0  0  0  0  0  2  0  0  0  0  0  0
  186.1060  178.4580  140.2840 C   0  0  0  0  0  2  0  0  0  0  0  0
  183.1130  178.6940  141.1400 C   0  0  1  0  0  3  0  0  0  0  0  0
  184.3190  178.6910  145.6920 C   0  0  0  0  0  3  0  0  0  0  0  0
  183.8680  178.9700  143.3420 N   0  0  0  0  0  0  0  0  0  0  0  0
  181.9610  178.8870  139.0510 O   0  0  0  0  0  0  0  0  0  0  0  0
  181.5700  179.8920  138.1570 C   0  0  0  0  0  2  0  0  0  0  0  0
  179.8730  182.7370  137.6850 O   0  0  0  0  0  0  0  0  0  0  0  0
  179.7430  181.0850  139.3670 C   0  0  0  0  0  2  0  0  0  0  0  0
  181.1660  181.1640  138.8990 C   0  0  2  0  0  3  0  0  0  0  0  0
  179.1150  182.3310  138.7920 C   0  0  0  0  0  2  0  0  0  0  0  0
  181.1940  182.3680  137.9820 C   0  0  0  0  0  2  0  0  0  0  0  0
  1 26  2  0  0  0  0
  3  7  1  6  0  0  0
  3 16  1  0  0  0  0
  4 23  1  1  0  0  0
  5 11  1  6  0  0  0
  5 15  1  0  0  0  0
  7 19  1  0  0  0  0
  8 12  1  0  0  0  0
  9 27  1  1  0  0  0
 10 22  1  0  0  0  0
 10 17  1  0  0  0  0
 13 24  1  6  0  0  0
 13  9  1  0  0  0  0
 13 20  1  0  0  0  0
 14  2  1  0  0  0  0
 15  4  1  0  0  0  0
 15 12  1  1  0  0  0
 16  8  1  0  0  0  0
 17 28  1  6  0  0  0
 17 25  1  0  0  0  0
 18  1  1  6  0  0  0
 18  4  1  0  0  0  0
 19  6  1  6  0  0  0
 19  5  1  0  0  0  0
 19  3  1  0  0  0  0
 20 11  1  1  0  0  0
 20 18  1  0  0  0  0
 22 24  1  0  0  0  0
 23 21  1  0  0  0  0
 25  9  1  0  0  0  0
 25 14  1  1  0  0  0
 26 21  1  0  0  0  0
 27  2  1  0  0  0  0
 27  1  1  0  0  0  0
 29 28  1  0  0  0  0
 30 34  1  0  0  0  0
 30 33  1  0  0  0  0
 32 29  1  6  0  0  0
 32 31  1  0  0  0  0
 33 31  1  0  0  0  0
 34 32  1  0  0  0  0
M  END
>  <MODEL>
1

>  <REMARK>
 VINA RESULT:      -9.3      0.000      0.000
  Name = 
  3 active torsions:
  status: ('A' for Active; 'I' for Inactive)
    1  A    between atoms: C_17  and  O_28
    2  A    between atoms: O_28  and  C_29
    3  A    between atoms: C_29  and  C_32
                            x       y       z     vdW  Elec       q    Type
                         _______ _______ _______ _____ _____    ______ ____

>  <TORSDO>
F 3

$$$$
=
 OpenBabel11122412143D

 34 41  0  0  1  0  0  0  0  0999 V2000
  185.6890  178.5830  140.8590 C   0  0  0  0  0  0  0  0  0  0  0  0
  187.6160  177.5310  142.1310 C   0  0  0  0  0  2  0  0  0  0  0  0
  179.1720  180.2630  140.4600 C   0  0  1  0  0  3  0  0  0  0  0  0
  183.3790  178.3240  139.9140 C   0  0  2  0  0  3  0  0  0  0  0  0
  181.5240  179.4620  141.2160 C   0  0  1  0  0  3  0  0  0  0  0  0
  179.3550  178.0170  141.6580 C   0  0  0  0  0  1  0  0  0  0  0  0
  179.3040  180.5550  141.9520 C   0  0  0  0  0  2  0  0  0  0  0  0
  180.4130  180.4870  138.6050 C   0  0  0  0  0  2  0  0  0  0  0  0
  185.8830  178.6750  143.3790 C   0  0  1  0  0  3  0  0  0  0  0  0
  185.6790  178.9880  146.3510 C   0  0  0  0  0  2  0  0  0  0  0  0
  182.2120  178.7690  142.3050 N   0  0  0  0  0  2  0  0  0  0  0  0
  181.8620  180.0450  138.7960 C   0  0  0  0  0  2  0  0  0  0  0  0
  184.3670  178.4190  143.4430 C   0  0  2  0  0  3  0  0  0  0  0  0
  187.9170  177.3640  143.6060 C   0  0  0  0  0  2  0  0  0  0  0  0
  181.9660  178.9270  139.8400 C   0  0  1  0  0  3  0  0  0  0  0  0
  179.9700  181.1710  139.7450 O   0  0  0  0  0  0  0  0  0  0  0  0
  186.9090  178.3460  145.7000 C   0  0  2  0  0  3  0  0  0  0  0  0
  184.2740  179.0880  140.9070 C   0  0  1  0  0  3  0  0  0  0  0  0
  180.0070  179.3560  141.3640 C   0  0  2  0  0  0  0  0  0  0  0  0
  183.6280  179.1690  142.3200 C   0  0  1  0  0  3  0  0  0  0  0  0
  185.4500  178.5730  138.4130 C   0  0  0  0  0  2  0  0  0  0  0  0
  184.3800  178.2680  146.0120 C   0  0  0  0  0  2  0  0  0  0  0  0
  184.0220  178.0270  138.5420 C   0  0  0  0  0  2  0  0  0  0  0  0
  183.7670  178.9040  144.7720 C   0  0  0  0  0  2  0  0  0  0  0  0
  186.6270  177.7370  144.3220 C   0  0  1  0  0  3  0  0  0  0  0  0
  186.2360  178.3220  139.6660 C   0  0  0  0  0  3  0  0  0  0  0  0
  186.4140  178.3460  142.0690 N   0  0  0  0  0  0  0  0  0  0  0  0
  187.4200  177.3620  146.5500 O   0  0  0  0  0  0  0  0  0  0  0  0
  188.7440  177.7470  146.7950 C   0  0  0  0  0  2  0  0  0  0  0  0
  191.9990  177.2620  146.1940 O   0  0  0  0  0  0  0  0  0  0  0  0
  190.4740  176.1460  147.6090 C   0  0  0  0  0  2  0  0  0  0  0  0
  189.7210  176.6400  146.4090 C   0  0  2  0  0  3  0  0  0  0  0  0
  191.9200  176.2890  147.2000 C   0  0  0  0  0  2  0  0  0  0  0  0
  190.7970  177.1550  145.4770 C   0  0  0  0  0  2  0  0  0  0  0  0
  1 27  1  0  0  0  0
  2 14  1  0  0  0  0
  3 19  1  0  0  0  0
  3  7  1  1  0  0  0
  4 23  1  6  0  0  0
  4 18  1  0  0  0  0
  5 19  1  0  0  0  0
  5 11  1  1  0  0  0
  8 12  1  0  0  0  0
  8 16  1  0  0  0  0
  9 27  1  6  0  0  0
  9 13  1  0  0  0  0
  9 25  1  0  0  0  0
 13 24  1  1  0  0  0
 15 12  1  6  0  0  0
 15  4  1  0  0  0  0
 15  5  1  0  0  0  0
 16  3  1  0  0  0  0
 17 10  1  0  0  0  0
 17 28  1  1  0  0  0
 18  1  1  1  0  0  0
 18 20  1  0  0  0  0
 19  6  1  1  0  0  0
 19  7  1  0  0  0  0
 20 11  1  6  0  0  0
 20 13  1  0  0  0  0
 21 23  1  0  0  0  0
 21 26  1  0  0  0  0
 22 10  1  0  0  0  0
 24 22  1  0  0  0  0
 25 14  1  6  0  0  0
 25 17  1  0  0  0  0
 26  1  2  0  0  0  0
 27  2  1  0  0  0  0
 28 29  1  0  0  0  0
 30 33  1  0  0  0  0
 32 29  1  1  0  0  0
 32 31  1  0  0  0  0
 33 31  1  0  0  0  0
 34 30  1  0  0  0  0
 34 32  1  0  0  0  0
M  END
>  <MODEL>
2

>  <REMARK>
 VINA RESULT:      -8.9      1.648      9.327
  Name = 
  3 active torsions:
  status: ('A' for Active; 'I' for Inactive)
    1  A    between atoms: C_17  and  O_28
    2  A    between atoms: O_28  and  C_29
    3  A    between atoms: C_29  and  C_32
                            x       y       z     vdW  Elec       q    Type
                         _______ _______ _______ _____ _____    ______ ____

>  <TORSDO>
F 3

$$$$
=
 OpenBabel11122412143D

 34 41  0  0  1  0  0  0  0  0999 V2000
  186.6750  178.3660  140.0620 C   0  0  0  0  0  0  0  0  0  0  0  0
  188.7310  177.3170  141.1160 C   0  0  0  0  0  2  0  0  0  0  0  0
  180.0840  179.7720  140.2440 C   0  0  1  0  0  3  0  0  0  0  0  0
  184.3140  178.0690  139.2650 C   0  0  2  0  0  3  0  0  0  0  0  0
  182.5150  179.0280  140.7740 C   0  0  1  0  0  3  0  0  0  0  0  0
  180.4450  177.4590  141.2590 C   0  0  0  0  0  1  0  0  0  0  0  0
  180.3130  179.9650  141.7410 C   0  0  0  0  0  2  0  0  0  0  0  0
  181.1760  180.1820  138.3280 C   0  0  0  0  0  2  0  0  0  0  0  0
  187.0480  178.2910  142.5630 C   0  0  1  0  0  3  0  0  0  0  0  0
  187.0500  178.3860  145.5560 C   0  0  0  0  0  2  0  0  0  0  0  0
  183.3080  178.2920  141.7580 N   0  0  0  0  0  2  0  0  0  0  0  0
  182.6520  179.7930  138.3850 C   0  0  0  0  0  2  0  0  0  0  0  0
  185.5530  177.9620  142.7130 C   0  0  2  0  0  3  0  0  0  0  0  0
  189.1450  177.0610  142.5510 C   0  0  0  0  0  2  0  0  0  0  0  0
  182.8760  178.6120  139.3340 C   0  0  1  0  0  3  0  0  0  0  0  0
  180.7900  180.7630  139.5430 O   0  0  0  0  0  0  0  0  0  0  0  0
  188.2540  177.8480  144.7760 C   0  0  2  0  0  3  0  0  0  0  0  0
  185.2480  178.8020  140.2460 C   0  0  1  0  0  3  0  0  0  0  0  0
  181.0180  178.8430  141.0190 C   0  0  2  0  0  0  0  0  0  0  0  0
  184.7040  178.7550  141.7030 C   0  0  1  0  0  3  0  0  0  0  0  0
  186.2580  178.5170  137.6440 C   0  0  0  0  0  2  0  0  0  0  0  0
  185.7600  177.6330  145.2570 C   0  0  0  0  0  2  0  0  0  0  0  0
  184.8670  177.8980  137.8330 C   0  0  0  0  0  2  0  0  0  0  0  0
  185.0320  178.3250  144.1130 C   0  0  0  0  0  2  0  0  0  0  0  0
  187.8970  177.3240  143.3810 C   0  0  1  0  0  3  0  0  0  0  0  0
  187.1430  178.2150  138.8180 C   0  0  0  0  0  3  0  0  0  0  0  0
  187.4960  178.0780  141.1980 N   0  0  0  0  0  0  0  0  0  0  0  0
  188.8650  176.8310  145.5130 O   0  0  0  0  0  0  0  0  0  0  0  0
  189.4830  177.4840  146.5870 C   0  0  0  0  0  2  0  0  0  0  0  0
  191.9280  175.4370  147.6000 O   0  0  0  0  0  0  0  0  0  0  0  0
  191.4000  176.3350  145.4810 C   0  0  0  0  0  2  0  0  0  0  0  0
  191.0000  177.3360  146.5240 C   0  0  2  0  0  3  0  0  0  0  0  0
  192.2670  175.3610  146.2410 C   0  0  0  0  0  2  0  0  0  0  0  0
  191.5530  176.7730  147.8160 C   0  0  0  0  0  2  0  0  0  0  0  0
  1 27  1  0  0  0  0
  2 27  1  0  0  0  0
  2 14  1  0  0  0  0
  3 19  1  0  0  0  0
  3  7  1  1  0  0  0
  4 23  1  6  0  0  0
  4 15  1  0  0  0  0
  4 18  1  0  0  0  0
  5 19  1  0  0  0  0
  5 11  1  1  0  0  0
  8 12  1  0  0  0  0
  8 16  1  0  0  0  0
  9 27  1  6  0  0  0
  9 13  1  0  0  0  0
  9 25  1  0  0  0  0
 13 24  1  1  0  0  0
 15 12  1  6  0  0  0
 15  5  1  0  0  0  0
 16  3  1  0  0  0  0
 17 28  1  1  0  0  0
 17 10  1  0  0  0  0
 18  1  1  1  0  0  0
 18 20  1  0  0  0  0
 19  6  1  1  0  0  0
 19  7  1  0  0  0  0
 20 11  1  6  0  0  0
 20 13  1  0  0  0  0
 21 23  1  0  0  0  0
 21 26  1  0  0  0  0
 22 10  1  0  0  0  0
 24 22  1  0  0  0  0
 25 14  1  6  0  0  0
 25 17  1  0  0  0  0
 26  1  2  0  0  0  0
 28 29  1  0  0  0  0
 30 34  1  0  0  0  0
 31 33  1  0  0  0  0
 31 32  1  0  0  0  0
 32 29  1  1  0  0  0
 32 34  1  0  0  0  0
 33 30  1  0  0  0  0
M  END
>  <MODEL>
3

>  <REMARK>
 VINA RESULT:      -8.9      1.680      9.408
  Name = 
  3 active torsions:
  status: ('A' for Active; 'I' for Inactive)
    1  A    between atoms: C_17  and  O_28
    2  A    between atoms: O_28  and  C_29
    3  A    between atoms: C_29  and  C_32
                            x       y       z     vdW  Elec       q    Type
                         _______ _______ _______ _____ _____    ______ ____

>  <TORSDO>
F 3

$$$$
=
 OpenBabel11122412143D

 34 41  0  0  1  0  0  0  0  0999 V2000
  184.8880  178.7210  144.5760 C   0  0  0  0  0  0  0  0  0  0  0  0
  182.5090  178.6910  143.6970 C   0  0  0  0  0  2  0  0  0  0  0  0
  191.4500  177.4270  143.7280 C   0  0  1  0  0  3  0  0  0  0  0  0
  186.9840  177.4310  145.0700 C   0  0  2  0  0  3  0  0  0  0  0  0
  188.8920  177.7650  143.4340 C   0  0  1  0  0  3  0  0  0  0  0  0
  190.1090  175.5710  142.6010 C   0  0  0  0  0  1  0  0  0  0  0  0
  191.2020  177.8580  142.2850 C   0  0  0  0  0  2  0  0  0  0  0  0
  190.7700  178.0180  145.7820 C   0  0  0  0  0  2  0  0  0  0  0  0
  184.3210  179.0760  142.1370 C   0  0  1  0  0  3  0  0  0  0  0  0
  184.1230  179.4960  139.1780 C   0  0  0  0  0  2  0  0  0  0  0  0
  187.7950  177.5150  142.4990 N   0  0  0  0  0  2  0  0  0  0  0  0
  189.2630  178.2510  145.8700 C   0  0  0  0  0  2  0  0  0  0  0  0
  185.5410  178.2040  141.7910 C   0  0  2  0  0  3  0  0  0  0  0  0
  181.9150  178.7790  142.3070 C   0  0  0  0  0  2  0  0  0  0  0  0
  188.5080  177.3670  144.8730 C   0  0  1  0  0  3  0  0  0  0  0  0
  191.2610  178.5320  144.5740 O   0  0  0  0  0  0  0  0  0  0  0  0
  182.8700  179.3930  140.0540 C   0  0  2  0  0  3  0  0  0  0  0  0
  186.3510  178.5770  144.2590 C   0  0  1  0  0  3  0  0  0  0  0  0
  190.1630  177.0330  143.0040 C   0  0  2  0  0  0  0  0  0  0  0  0
  186.7130  178.4810  142.7480 C   0  0  1  0  0  3  0  0  0  0  0  0
  185.5190  178.4260  146.9340 C   0  0  0  0  0  2  0  0  0  0  0  0
  185.0190  178.2670  139.2710 C   0  0  0  0  0  2  0  0  0  0  0  0
  186.5230  177.3340  146.5410 C   0  0  0  0  0  2  0  0  0  0  0  0
  186.0520  178.4860  140.3690 C   0  0  0  0  0  2  0  0  0  0  0  0
  183.0930  178.6200  141.3580 C   0  0  1  0  0  3  0  0  0  0  0  0
  184.4980  178.6290  145.8520 C   0  0  0  0  0  3  0  0  0  0  0  0
  183.9350  178.9070  143.5260 N   0  0  0  0  0  0  0  0  0  0  0  0
  181.8450  178.7870  139.3230 O   0  0  0  0  0  0  0  0  0  0  0  0
  181.7390  179.5470  138.1500 C   0  0  0  0  0  2  0  0  0  0  0  0
  182.1250  176.5380  136.7390 O   0  0  0  0  0  0  0  0  0  0  0  0
  180.2070  177.6960  137.4820 C   0  0  0  0  0  2  0  0  0  0  0  0
  181.2030  178.7060  136.9950 C   0  0  2  0  0  3  0  0  0  0  0  0
  180.7490  176.3880  136.9590 C   0  0  0  0  0  2  0  0  0  0  0  0
  182.2990  177.8780  136.3600 C   0  0  0  0  0  2  0  0  0  0  0  0
  1 26  2  0  0  0  0
  3  7  1  6  0  0  0
  3 16  1  0  0  0  0
  4 23  1  1  0  0  0
  5 11  1  6  0  0  0
  5 15  1  0  0  0  0
  7 19  1  0  0  0  0
  8 12  1  0  0  0  0
  9 27  1  1  0  0  0
 10 22  1  0  0  0  0
 10 17  1  0  0  0  0
 13 24  1  6  0  0  0
 13  9  1  0  0  0  0
 13 20  1  0  0  0  0
 14  2  1  0  0  0  0
 15  4  1  0  0  0  0
 15 12  1  1  0  0  0
 16  8  1  0  0  0  0
 17 28  1  6  0  0  0
 17 25  1  0  0  0  0
 18  1  1  6  0  0  0
 18  4  1  0  0  0  0
 19  6  1  6  0  0  0
 19  5  1  0  0  0  0
 19  3  1  0  0  0  0
 20 11  1  1  0  0  0
 20 18  1  0  0  0  0
 22 24  1  0  0  0  0
 23 21  1  0  0  0  0
 25  9  1  0  0  0  0
 25 14  1  1  0  0  0
 26 21  1  0  0  0  0
 27  2  1  0  0  0  0
 27  1  1  0  0  0  0
 29 28  1  0  0  0  0
 30 33  1  0  0  0  0
 32 31  1  0  0  0  0
 32 29  1  1  0  0  0
 33 31  1  0  0  0  0
 34 30  1  0  0  0  0
 34 32  1  0  0  0  0
M  END
>  <MODEL>
4

>  <REMARK>
 VINA RESULT:      -8.7      1.310      2.001
  Name = 
  3 active torsions:
  status: ('A' for Active; 'I' for Inactive)
    1  A    between atoms: C_17  and  O_28
    2  A    between atoms: O_28  and  C_29
    3  A    between atoms: C_29  and  C_32
                            x       y       z     vdW  Elec       q    Type
                         _______ _______ _______ _____ _____    ______ ____

>  <TORSDO>
F 3

$$$$
=
 OpenBabel11122412143D

 34 41  0  0  1  0  0  0  0  0999 V2000
  184.8940  178.7250  144.5680 C   0  0  0  0  0  0  0  0  0  0  0  0
  182.4970  178.6970  143.7370 C   0  0  0  0  0  2  0  0  0  0  0  0
  191.4380  177.4390  143.5820 C   0  0  1  0  0  3  0  0  0  0  0  0
  186.9990  177.4350  145.0140 C   0  0  2  0  0  3  0  0  0  0  0  0
  188.8740  177.7760  143.3410 C   0  0  1  0  0  3  0  0  0  0  0  0
  190.0750  175.5860  142.4750 C   0  0  0  0  0  1  0  0  0  0  0  0
  191.1600  177.8760  142.1460 C   0  0  0  0  0  2  0  0  0  0  0  0
  190.7990  178.0210  145.6520 C   0  0  0  0  0  2  0  0  0  0  0  0
  184.2770  179.0900  142.1420 C   0  0  1  0  0  3  0  0  0  0  0  0
  184.0190  179.5210  139.1890 C   0  0  0  0  0  2  0  0  0  0  0  0
  187.7580  177.5290  142.4280 N   0  0  0  0  0  2  0  0  0  0  0  0
  189.2940  178.2530  145.7710 C   0  0  0  0  0  2  0  0  0  0  0  0
  185.4900  178.2200  141.7680 C   0  0  2  0  0  3  0  0  0  0  0  0
  181.8750  178.7910  142.3590 C   0  0  0  0  0  2  0  0  0  0  0  0
  188.5190  177.3720  144.7860 C   0  0  1  0  0  3  0  0  0  0  0  0
  191.2650  178.5400  144.4360 O   0  0  0  0  0  0  0  0  0  0  0  0
  182.7840  179.4140  140.0900 C   0  0  2  0  0  3  0  0  0  0  0  0
  186.3500  178.5830  144.2200 C   0  0  1  0  0  3  0  0  0  0  0  0
  190.1370  177.0470  142.8820 C   0  0  2  0  0  0  0  0  0  0  0  0
  186.6810  178.4930  142.7030 C   0  0  1  0  0  3  0  0  0  0  0  0
  185.5720  178.4210  146.9110 C   0  0  0  0  0  2  0  0  0  0  0  0
  184.9180  178.2930  139.2600 C   0  0  0  0  0  2  0  0  0  0  0  0
  186.5690  177.3310  146.4940 C   0  0  0  0  0  2  0  0  0  0  0  0
  185.9720  178.5070  140.3370 C   0  0  0  0  0  2  0  0  0  0  0  0
  183.0340  178.6350  141.3860 C   0  0  1  0  0  3  0  0  0  0  0  0
  184.5300  178.6280  145.8510 C   0  0  0  0  0  3  0  0  0  0  0  0
  183.9190  178.9150  143.5380 N   0  0  0  0  0  0  0  0  0  0  0  0
  181.7450  178.8110  139.3770 O   0  0  0  0  0  0  0  0  0  0  0  0
  181.8680  177.4420  139.6460 C   0  0  0  0  0  2  0  0  0  0  0  0
  180.0560  174.7600  140.4920 O   0  0  0  0  0  0  0  0  0  0  0  0
  179.4560  177.0110  140.1110 C   0  0  0  0  0  2  0  0  0  0  0  0
  180.6160  176.6800  139.2200 C   0  0  2  0  0  3  0  0  0  0  0  0
  178.9870  175.6600  140.5930 C   0  0  0  0  0  2  0  0  0  0  0  0
  180.7990  175.1860  139.3800 C   0  0  0  0  0  2  0  0  0  0  0  0
  1 26  2  0  0  0  0
  3  7  1  6  0  0  0
  3 16  1  0  0  0  0
  4 23  1  1  0  0  0
  5 11  1  6  0  0  0
  5 15  1  0  0  0  0
  7 19  1  0  0  0  0
  8 12  1  0  0  0  0
  9 27  1  1  0  0  0
 10 22  1  0  0  0  0
 10 17  1  0  0  0  0
 13 24  1  6  0  0  0
 13  9  1  0  0  0  0
 13 20  1  0  0  0  0
 14  2  1  0  0  0  0
 15  4  1  0  0  0  0
 15 12  1  1  0  0  0
 16  8  1  0  0  0  0
 17 28  1  6  0  0  0
 17 25  1  0  0  0  0
 18  1  1  6  0  0  0
 18  4  1  0  0  0  0
 19  6  1  6  0  0  0
 19  5  1  0  0  0  0
 19  3  1  0  0  0  0
 20 11  1  1  0  0  0
 20 18  1  0  0  0  0
 22 24  1  0  0  0  0
 23 21  1  0  0  0  0
 25  9  1  0  0  0  0
 25 14  1  1  0  0  0
 26 21  1  0  0  0  0
 27  2  1  0  0  0  0
 27  1  1  0  0  0  0
 28 29  1  0  0  0  0
 30 33  1  0  0  0  0
 31 33  1  0  0  0  0
 32 34  1  0  0  0  0
 32 29  1  1  0  0  0
 32 31  1  0  0  0  0
 34 30  1  0  0  0  0
M  END
>  <MODEL>
5

>  <REMARK>
 VINA RESULT:      -8.4      1.694      2.550
  Name = 
  3 active torsions:
  status: ('A' for Active; 'I' for Inactive)
    1  A    between atoms: C_17  and  O_28
    2  A    between atoms: O_28  and  C_29
    3  A    between atoms: C_29  and  C_32
                            x       y       z     vdW  Elec       q    Type
                         _______ _______ _______ _____ _____    ______ ____

>  <TORSDO>
F 3

$$$$
=
 OpenBabel11122412143D

 34 41  0  0  1  0  0  0  0  0999 V2000
  188.1080  177.4530  139.0480 C   0  0  0  0  0  0  0  0  0  0  0  0
  187.2110  178.6890  141.0730 C   0  0  0  0  0  2  0  0  0  0  0  0
  193.2760  174.7500  135.6640 C   0  0  1  0  0  3  0  0  0  0  0  0
  189.7390  177.4090  137.1410 C   0  0  2  0  0  3  0  0  0  0  0  0
  191.7260  175.8600  137.4290 C   0  0  1  0  0  3  0  0  0  0  0  0
  194.0910  176.8740  136.8230 C   0  0  0  0  0  1  0  0  0  0  0  0
  193.7830  174.3470  137.0460 C   0  0  0  0  0  2  0  0  0  0  0  0
  191.3110  174.9110  134.5950 C   0  0  0  0  0  2  0  0  0  0  0  0
  189.0670  177.1600  141.3700 C   0  0  1  0  0  3  0  0  0  0  0  0
  190.5330  176.5410  143.9070 C   0  0  0  0  0  2  0  0  0  0  0  0
  191.7550  176.5540  138.7160 N   0  0  0  0  0  2  0  0  0  0  0  0
  190.2220  175.5710  135.4380 C   0  0  0  0  0  2  0  0  0  0  0  0
  190.4640  177.1520  140.7250 C   0  0  2  0  0  3  0  0  0  0  0  0
  187.6510  178.7650  142.5210 C   0  0  0  0  0  2  0  0  0  0  0  0
  190.8190  176.5870  136.4170 C   0  0  1  0  0  3  0  0  0  0  0  0
  192.0830  174.0600  135.3960 O   0  0  0  0  0  0  0  0  0  0  0  0
  189.2900  177.4380  143.9030 C   0  0  2  0  0  3  0  0  0  0  0  0
  189.2650  176.7150  138.4310 C   0  0  1  0  0  3  0  0  0  0  0  0
  193.1340  175.6960  136.8570 C   0  0  2  0  0  0  0  0  0  0  0  0
  190.4530  176.3960  139.3840 C   0  0  1  0  0  3  0  0  0  0  0  0
  187.2070  177.6510  136.7690 C   0  0  0  0  0  2  0  0  0  0  0  0
  191.6480  177.0620  143.0080 C   0  0  0  0  0  2  0  0  0  0  0  0
  188.6140  177.9360  136.2250 C   0  0  0  0  0  2  0  0  0  0  0  0
  191.4960  176.4510  141.6220 C   0  0  0  0  0  2  0  0  0  0  0  0
  189.0270  178.1170  142.5550 C   0  0  1  0  0  3  0  0  0  0  0  0
  187.1410  177.9120  138.2450 C   0  0  0  0  0  3  0  0  0  0  0  0
  188.0720  177.6940  140.4570 N   0  0  0  0  0  0  0  0  0  0  0  0
  189.4200  178.4100  144.8980 O   0  0  0  0  0  0  0  0  0  0  0  0
  189.6950  177.6940  146.0700 C   0  0  0  0  0  2  0  0  0  0  0  0
  187.4820  178.7220  148.3590 O   0  0  0  0  0  0  0  0  0  0  0  0
  187.2130  177.9190  146.1550 C   0  0  0  0  0  2  0  0  0  0  0  0
  188.4090  177.2420  146.7560 C   0  0  2  0  0  3  0  0  0  0  0  0
  186.5290  178.5460  147.3460 C   0  0  0  0  0  2  0  0  0  0  0  0
  188.3850  177.6570  148.2110 C   0  0  0  0  0  2  0  0  0  0  0  0
  1 27  1  0  0  0  0
  2 14  1  0  0  0  0
  3 19  1  0  0  0  0
  3  7  1  1  0  0  0
  4 23  1  6  0  0  0
  4 18  1  0  0  0  0
  5 11  1  1  0  0  0
  8 16  1  0  0  0  0
  8 12  1  0  0  0  0
  9 27  1  6  0  0  0
  9 25  1  0  0  0  0
 13  9  1  0  0  0  0
 13 24  1  1  0  0  0
 15 12  1  6  0  0  0
 15  4  1  0  0  0  0
 15  5  1  0  0  0  0
 16  3  1  0  0  0  0
 17 10  1  0  0  0  0
 17 28  1  1  0  0  0
 18  1  1  1  0  0  0
 18 20  1  0  0  0  0
 19  6  1  1  0  0  0
 19  7  1  0  0  0  0
 19  5  1  0  0  0  0
 20 11  1  6  0  0  0
 20 13  1  0  0  0  0
 21 26  1  0  0  0  0
 22 10  1  0  0  0  0
 23 21  1  0  0  0  0
 24 22  1  0  0  0  0
 25 14  1  1  0  0  0
 25 17  1  0  0  0  0
 26  1  2  0  0  0  0
 27  2  1  0  0  0  0
 28 29  1  0  0  0  0
 31 32  1  0  0  0  0
 31 33  1  0  0  0  0
 32 29  1  6  0  0  0
 32 34  1  0  0  0  0
 33 30  1  0  0  0  0
 34 30  1  0  0  0  0
M  END
>  <MODEL>
6

>  <REMARK>
 VINA RESULT:      -7.8      4.651      8.740
  Name = 
  3 active torsions:
  status: ('A' for Active; 'I' for Inactive)
    1  A    between atoms: C_17  and  O_28
    2  A    between atoms: O_28  and  C_29
    3  A    between atoms: C_29  and  C_32
                            x       y       z     vdW  Elec       q    Type
                         _______ _______ _______ _____ _____    ______ ____

>  <TORSDO>
F 3

$$$$
=
 OpenBabel11122412143D

 34 41  0  0  1  0  0  0  0  0999 V2000
  182.1240  178.6330  143.8660 C   0  0  0  0  0  0  0  0  0  0  0  0
  183.7950  178.8060  145.7670 C   0  0  0  0  0  2  0  0  0  0  0  0
  180.6300  179.2600  137.3210 C   0  0  1  0  0  3  0  0  0  0  0  0
  180.9710  179.7650  141.9450 C   0  0  2  0  0  3  0  0  0  0  0  0
  181.8030  179.1310  139.6350 C   0  0  1  0  0  3  0  0  0  0  0  0
  182.2410  181.1320  137.9650 C   0  0  0  0  0  1  0  0  0  0  0  0
  182.0470  178.7370  137.0950 C   0  0  0  0  0  2  0  0  0  0  0  0
  178.9310  178.9010  138.7400 C   0  0  0  0  0  2  0  0  0  0  0  0
  184.5870  178.1340  143.5780 C   0  0  1  0  0  3  0  0  0  0  0  0
  187.4000  177.4960  142.7730 C   0  0  0  0  0  2  0  0  0  0  0  0
  183.0780  179.4010  140.2990 N   0  0  0  0  0  2  0  0  0  0  0  0
  179.3760  178.8120  140.1980 C   0  0  0  0  0  2  0  0  0  0  0  0
  184.5130  178.8620  142.2250 C   0  0  2  0  0  3  0  0  0  0  0  0
  185.3000  178.6580  145.8420 C   0  0  0  0  0  2  0  0  0  0  0  0
  180.6150  179.6760  140.4510 C   0  0  1  0  0  3  0  0  0  0  0  0
  179.8600  178.2490  137.9180 O   0  0  0  0  0  0  0  0  0  0  0  0
  187.0350  177.7820  144.2340 C   0  0  2  0  0  3  0  0  0  0  0  0
  181.9050  178.6190  142.3780 C   0  0  1  0  0  3  0  0  0  0  0  0
  181.7830  179.7080  138.2200 C   0  0  2  0  0  0  0  0  0  0  0  0
  183.1890  178.5600  141.5010 C   0  0  1  0  0  3  0  0  0  0  0  0
  179.7120  179.0600  144.0720 C   0  0  0  0  0  2  0  0  0  0  0  0
  187.0470  178.6430  141.8340 C   0  0  0  0  0  2  0  0  0  0  0  0
  179.7680  180.0220  142.8780 C   0  0  0  0  0  2  0  0  0  0  0  0
  185.6450  178.4220  141.2830 C   0  0  0  0  0  2  0  0  0  0  0  0
  185.7720  178.6340  144.3950 C   0  0  1  0  0  3  0  0  0  0  0  0
  181.0760  178.8630  144.6650 C   0  0  0  0  0  3  0  0  0  0  0  0
  183.4360  178.4490  144.4050 N   0  0  0  0  0  0  0  0  0  0  0  0
  188.1090  178.4150  144.8620 O   0  0  0  0  0  0  0  0  0  0  0  0
  188.8330  177.3820  145.4710 C   0  0  0  0  0  2  0  0  0  0  0  0
  191.0550  176.8790  143.0200 O   0  0  0  0  0  0  0  0  0  0  0  0
  190.6170  178.7510  144.3910 C   0  0  0  0  0  2  0  0  0  0  0  0
  190.3270  177.5120  145.1860 C   0  0  2  0  0  3  0  0  0  0  0  0
  191.3790  178.2310  143.1970 C   0  0  0  0  0  2  0  0  0  0  0  0
  190.8220  176.3800  144.3110 C   0  0  0  0  0  2  0  0  0  0  0  0
  1 27  1  0  0  0  0
  1 26  2  0  0  0  0
  2 14  1  0  0  0  0
  3  7  1  6  0  0  0
  3 16  1  0  0  0  0
  3 19  1  0  0  0  0
  4 18  1  0  0  0  0
  4 23  1  1  0  0  0
  5 11  1  1  0  0  0
  5 15  1  0  0  0  0
  7 19  1  0  0  0  0
  8 12  1  0  0  0  0
  9 25  1  0  0  0  0
  9 27  1  1  0  0  0
 10 17  1  0  0  0  0
 13 24  1  6  0  0  0
 13  9  1  0  0  0  0
 15 12  1  1  0  0  0
 15  4  1  0  0  0  0
 16  8  1  0  0  0  0
 17 25  1  0  0  0  0
 17 28  1  6  0  0  0
 18  1  1  1  0  0  0
 19  6  1  6  0  0  0
 19  5  1  0  0  0  0
 20 11  1  6  0  0  0
 20 13  1  0  0  0  0
 20 18  1  0  0  0  0
 21 26  1  0  0  0  0
 22 10  1  0  0  0  0
 23 21  1  0  0  0  0
 24 22  1  0  0  0  0
 25 14  1  1  0  0  0
 27  2  1  0  0  0  0
 28 29  1  0  0  0  0
 30 33  1  0  0  0  0
 30 34  1  0  0  0  0
 31 32  1  0  0  0  0
 32 29  1  6  0  0  0
 33 31  1  0  0  0  0
 34 32  1  0  0  0  0
M  END
>  <MODEL>
7

>  <REMARK>
 VINA RESULT:      -7.7      1.818      8.596
  Name = 
  3 active torsions:
  status: ('A' for Active; 'I' for Inactive)
    1  A    between atoms: C_17  and  O_28
    2  A    between atoms: O_28  and  C_29
    3  A    between atoms: C_29  and  C_32
                            x       y       z     vdW  Elec       q    Type
                         _______ _______ _______ _____ _____    ______ ____

>  <TORSDO>
F 3

$$$$
=
 OpenBabel11122412143D

 34 41  0  0  1  0  0  0  0  0999 V2000
  185.6830  178.2530  143.0360 C   0  0  0  0  0  0  0  0  0  0  0  0
  188.1050  178.5560  142.3460 C   0  0  0  0  0  2  0  0  0  0  0  0
  179.1040  178.7150  141.6370 C   0  0  1  0  0  3  0  0  0  0  0  0
  183.4140  179.2860  143.3250 C   0  0  2  0  0  3  0  0  0  0  0  0
  181.7000  178.6870  141.5550 C   0  0  1  0  0  3  0  0  0  0  0  0
  180.2990  180.6980  140.5630 C   0  0  0  0  0  1  0  0  0  0  0  0
  179.5190  178.2880  140.2320 C   0  0  0  0  0  2  0  0  0  0  0  0
  179.6810  178.2550  143.7550 C   0  0  0  0  0  2  0  0  0  0  0  0
  186.4850  177.9190  140.6610 C   0  0  1  0  0  3  0  0  0  0  0  0
  186.9730  177.4650  137.7410 C   0  0  0  0  0  2  0  0  0  0  0  0
  182.8310  179.0500  140.7020 N   0  0  0  0  0  2  0  0  0  0  0  0
  181.1920  178.2100  143.9690 C   0  0  0  0  0  2  0  0  0  0  0  0
  185.2020  178.6280  140.1940 C   0  0  2  0  0  3  0  0  0  0  0  0
  188.8160  178.5120  141.0100 C   0  0  0  0  0  2  0  0  0  0  0  0
  181.9140  179.1590  143.0070 C   0  0  1  0  0  3  0  0  0  0  0  0
  179.3550  177.6600  142.5290 O   0  0  0  0  0  0  0  0  0  0  0  0
  188.1290  177.7390  138.7090 C   0  0  2  0  0  3  0  0  0  0  0  0
  184.2440  178.2100  142.6010 C   0  0  1  0  0  3  0  0  0  0  0  0
  180.3890  179.2480  141.0040 C   0  0  2  0  0  0  0  0  0  0  0  0
  183.9980  178.2290  141.0650 C   0  0  1  0  0  3  0  0  0  0  0  0
  184.8310  178.5180  145.3270 C   0  0  0  0  0  2  0  0  0  0  0  0
  185.9310  178.5760  137.7260 C   0  0  0  0  0  2  0  0  0  0  0  0
  183.7380  179.4700  144.8240 C   0  0  0  0  0  2  0  0  0  0  0  0
  184.8460  178.2560  138.7460 C   0  0  0  0  0  2  0  0  0  0  0  0
  187.7090  178.5060  139.9670 C   0  0  1  0  0  3  0  0  0  0  0  0
  185.9540  178.4180  144.3360 C   0  0  0  0  0  3  0  0  0  0  0  0
  186.7340  178.1630  142.0700 N   0  0  0  0  0  0  0  0  0  0  0  0
  189.1300  178.4500  138.0420 O   0  0  0  0  0  0  0  0  0  0  0  0
  189.8080  177.4910  137.2790 C   0  0  0  0  0  2  0  0  0  0  0  0
  191.7810  174.7970  137.0800 O   0  0  0  0  0  0  0  0  0  0  0  0
  191.9120  176.7530  138.3960 C   0  0  0  0  0  2  0  0  0  0  0  0
  190.4630  176.4390  138.1690 C   0  0  2  0  0  3  0  0  0  0  0  0
  192.6160  175.4880  137.9680 C   0  0  0  0  0  2  0  0  0  0  0  0
  190.4720  175.0800  137.5000 C   0  0  0  0  0  2  0  0  0  0  0  0
  1 26  2  0  0  0  0
  3  7  1  6  0  0  0
  3 16  1  0  0  0  0
  4 23  1  1  0  0  0
  5 11  1  6  0  0  0
  5 15  1  0  0  0  0
  7 19  1  0  0  0  0
  8 12  1  0  0  0  0
  9 27  1  1  0  0  0
 10 17  1  0  0  0  0
 13 24  1  6  0  0  0
 13  9  1  0  0  0  0
 13 20  1  0  0  0  0
 14  2  1  0  0  0  0
 15  4  1  0  0  0  0
 15 12  1  1  0  0  0
 16  8  1  0  0  0  0
 17 28  1  6  0  0  0
 17 25  1  0  0  0  0
 18  1  1  6  0  0  0
 18  4  1  0  0  0  0
 19  6  1  6  0  0  0
 19  5  1  0  0  0  0
 19  3  1  0  0  0  0
 20 11  1  1  0  0  0
 20 18  1  0  0  0  0
 22 10  1  0  0  0  0
 22 24  1  0  0  0  0
 23 21  1  0  0  0  0
 25  9  1  0  0  0  0
 25 14  1  1  0  0  0
 26 21  1  0  0  0  0
 27  2  1  0  0  0  0
 27  1  1  0  0  0  0
 29 28  1  0  0  0  0
 30 34  1  0  0  0  0
 30 33  1  0  0  0  0
 32 29  1  6  0  0  0
 32 31  1  0  0  0  0
 33 31  1  0  0  0  0
 34 32  1  0  0  0  0
M  END
>  <MODEL>
8

>  <REMARK>
 VINA RESULT:      -7.7      3.139      8.052
  Name = 
  3 active torsions:
  status: ('A' for Active; 'I' for Inactive)
    1  A    between atoms: C_17  and  O_28
    2  A    between atoms: O_28  and  C_29
    3  A    between atoms: C_29  and  C_32
                            x       y       z     vdW  Elec       q    Type
                         _______ _______ _______ _____ _____    ______ ____

>  <TORSDO>
F 3

$$$$
=
 OpenBabel11122412143D

 34 41  0  0  1  0  0  0  0  0999 V2000
  186.9180  178.5420  141.8110 C   0  0  0  0  0  0  0  0  0  0  0  0
  187.5500  177.8280  139.4600 C   0  0  0  0  0  2  0  0  0  0  0  0
  187.8930  178.2320  148.4750 C   0  0  1  0  0  3  0  0  0  0  0  0
  186.2450  177.8540  144.1280 C   0  0  2  0  0  3  0  0  0  0  0  0
  188.0590  178.0080  145.8920 C   0  0  1  0  0  3  0  0  0  0  0  0
  188.3130  175.9160  147.4880 C   0  0  0  0  0  1  0  0  0  0  0  0
  189.3730  178.1570  148.1100 C   0  0  0  0  0  2  0  0  0  0  0  0
  186.0510  179.2870  147.7470 C   0  0  0  0  0  2  0  0  0  0  0  0
  189.2990  178.0380  141.1220 C   0  0  1  0  0  3  0  0  0  0  0  0
  192.2250  177.5010  140.7700 C   0  0  0  0  0  2  0  0  0  0  0  0
  188.7860  177.2980  144.8400 N   0  0  0  0  0  2  0  0  0  0  0  0
  185.9110  179.2660  146.2260 C   0  0  0  0  0  2  0  0  0  0  0  0
  189.4760  177.3310  142.4780 C   0  0  2  0  0  3  0  0  0  0  0  0
  188.8520  177.3860  138.8240 C   0  0  0  0  0  2  0  0  0  0  0  0
  186.5400  178.0030  145.6300 C   0  0  1  0  0  3  0  0  0  0  0  0
  187.3930  179.4890  148.0980 O   0  0  0  0  0  0  0  0  0  0  0  0
  191.2570  177.4480  139.5830 C   0  0  2  0  0  3  0  0  0  0  0  0
  187.3000  178.5700  143.2650 C   0  0  1  0  0  3  0  0  0  0  0  0
  188.3610  177.4170  147.2700 C   0  0  2  0  0  0  0  0  0  0  0  0
  188.7410  178.0870  143.5990 C   0  0  1  0  0  3  0  0  0  0  0  0
  184.6380  179.0900  142.5470 C   0  0  0  0  0  2  0  0  0  0  0  0
  191.8520  176.5370  141.8890 C   0  0  0  0  0  2  0  0  0  0  0  0
  184.7770  178.1260  143.7330 C   0  0  0  0  0  2  0  0  0  0  0  0
  190.9550  177.2560  142.8880 C   0  0  0  0  0  2  0  0  0  0  0  0
  189.8070  177.1580  139.9860 C   0  0  1  0  0  3  0  0  0  0  0  0
  185.6430  178.7730  141.4790 C   0  0  0  0  0  3  0  0  0  0  0  0
  187.8950  178.2310  140.8120 N   0  0  0  0  0  0  0  0  0  0  0  0
  191.6920  176.4790  138.6760 O   0  0  0  0  0  0  0  0  0  0  0  0
  193.0510  176.7540  138.4780 C   0  0  0  0  0  2  0  0  0  0  0  0
  193.4660  173.6790  137.2250 O   0  0  0  0  0  0  0  0  0  0  0  0
  192.4560  175.6200  136.3370 C   0  0  0  0  0  2  0  0  0  0  0  0
  193.5810  176.0470  137.2340 C   0  0  2  0  0  3  0  0  0  0  0  0
  192.7010  174.1430  136.1460 C   0  0  0  0  0  2  0  0  0  0  0  0
  194.2870  174.7570  137.5910 C   0  0  0  0  0  2  0  0  0  0  0  0
  2 27  1  0  0  0  0
  3  7  1  1  0  0  0
  4 23  1  1  0  0  0
  4 15  1  0  0  0  0
  5 11  1  6  0  0  0
  5 19  1  0  0  0  0
  8 16  1  0  0  0  0
  9 27  1  6  0  0  0
  9 13  1  0  0  0  0
 10 22  1  0  0  0  0
 12  8  1  0  0  0  0
 13 24  1  1  0  0  0
 13 20  1  0  0  0  0
 14  2  1  0  0  0  0
 15  5  1  0  0  0  0
 15 12  1  6  0  0  0
 16  3  1  0  0  0  0
 17 28  1  6  0  0  0
 17 25  1  0  0  0  0
 17 10  1  0  0  0  0
 18  1  1  6  0  0  0
 18 20  1  0  0  0  0
 18  4  1  0  0  0  0
 19  6  1  1  0  0  0
 19  7  1  0  0  0  0
 19  3  1  0  0  0  0
 20 11  1  1  0  0  0
 21 23  1  0  0  0  0
 22 24  1  0  0  0  0
 25 14  1  6  0  0  0
 25  9  1  0  0  0  0
 26  1  2  0  0  0  0
 26 21  1  0  0  0  0
 27  1  1  0  0  0  0
 29 28  1  0  0  0  0
 30 34  1  0  0  0  0
 31 32  1  0  0  0  0
 32 34  1  0  0  0  0
 32 29  1  1  0  0  0
 33 31  1  0  0  0  0
 33 30  1  0  0  0  0
M  END
>  <MODEL>
9

>  <REMARK>
 VINA RESULT:      -7.6      4.181      7.854
  Name = 
  3 active torsions:
  status: ('A' for Active; 'I' for Inactive)
    1  A    between atoms: C_17  and  O_28
    2  A    between atoms: O_28  and  C_29
    3  A    between atoms: C_29  and  C_32
                            x       y       z     vdW  Elec       q    Type
                         _______ _______ _______ _____ _____    ______ ____

>  <TORSDO>
F 3

$$$$
