=
 OpenBabel11122411593D

 28 32  0  0  1  0  0  0  0  0999 V2000
  186.1270  176.3020  136.8270 C   0  0  2  0  0  3  0  0  0  0  0  0
  188.7090  176.3780  138.2370 O   0  0  0  0  0  0  0  0  0  0  0  0
  181.9110  178.7760  141.0450 O   0  0  0  0  0  0  0  0  0  0  0  0
  187.0560  178.2220  134.8000 C   0  0  0  0  0  2  0  0  0  0  0  0
  184.2420  178.9610  141.4030 N   0  0  0  0  0  0  0  0  0  0  0  0
  185.0240  175.4930  137.5190 C   0  0  0  0  0  2  0  0  0  0  0  0
  189.4780  178.7100  138.4600 O   0  0  0  0  0  0  0  0  0  0  0  0
  188.6690  177.6130  139.0910 S   0  0  0  0  0  0  0  0  0  0  0  0
  188.6270  177.9820  141.8260 C   0  0  0  0  0  0  0  0  0  0  0  0
  187.0510  178.1390  139.3460 N   0  0  0  0  0  0  0  0  0  0  0  0
  181.7050  177.1910  136.7810 N   0  0  0  0  0  1  0  0  0  0  0  0
  184.8950  178.6700  139.2050 C   0  0  0  0  0  0  0  0  0  0  0  0
  187.4200  178.4730  141.7490 N   0  0  0  0  0  0  0  0  0  0  0  0
  189.3100  177.2270  140.7070 C   0  0  0  0  0  2  0  0  0  0  0  0
  183.0490  177.0680  137.3170 C   0  0  1  0  0  3  0  0  0  0  0  0
  185.9850  177.8220  137.0380 C   0  0  2  0  0  3  0  0  0  0  0  0
  183.0820  178.7830  140.5790 C   0  0  0  0  0  0  0  0  0  0  0  0
  189.3230  178.0300  143.1380 C   0  0  0  0  0  1  0  0  0  0  0  0
  183.0100  177.1960  138.7660 N   0  0  0  0  0  2  0  0  0  0  0  0
  187.0560  178.6020  136.2740 C   0  0  0  0  0  2  0  0  0  0  0  0
  186.2020  175.9430  135.3410 C   0  0  0  0  0  2  0  0  0  0  0  0
  187.3110  176.7280  134.6510 C   0  0  0  0  0  2  0  0  0  0  0  0
  183.6270  175.7120  136.9320 C   0  0  0  0  0  2  0  0  0  0  0  0
  185.2990  178.8790  140.4730 C   0  0  0  0  0  0  0  0  0  0  0  0
  183.4020  178.5570  139.1150 C   0  0  2  0  0  3  0  0  0  0  0  0
  186.6160  178.5040  140.5660 C   0  0  0  0  0  0  0  0  0  0  0  0
  184.3270  178.6500  142.8190 C   0  0  0  0  0  1  0  0  0  0  0  0
  185.9930  178.2120  138.4900 C   0  0  0  0  0  0  0  0  0  0  0  0
  1 21  1  6  0  0  0
  1 16  1  0  0  0  0
  1  6  1  0  0  0  0
  2  8  2  0  0  0  0
  4 20  1  0  0  0  0
  5 27  1  0  0  0  0
  7  8  2  0  0  0  0
  8 10  1  0  0  0  0
  8 14  1  0  0  0  0
  9 18  1  0  0  0  0
 10 26  1  0  0  0  0
 12 24  1  0  0  0  0
 13  9  2  0  0  0  0
 14  9  1  0  0  0  0
 15 11  1  1  0  0  0
 15 19  1  0  0  0  0
 16 20  1  6  0  0  0
 16 28  1  0  0  0  0
 17  3  2  0  0  0  0
 17  5  1  0  0  0  0
 22  4  1  0  0  0  0
 22 21  1  0  0  0  0
 23 15  1  0  0  0  0
 23  6  1  0  0  0  0
 24 26  2  0  0  0  0
 24  5  1  0  0  0  0
 25 19  1  1  0  0  0
 25 12  1  0  0  0  0
 25 17  1  0  0  0  0
 26 13  1  0  0  0  0
 28 12  2  0  0  0  0
 28 10  1  0  0  0  0
M  END
>  <MODEL>
1

>  <REMARK>
 VINA RESULT:      -6.9      0.000      0.000
  Name = 
  0 active torsions:
  status: ('A' for Active; 'I' for Inactive)
                            x       y       z     vdW  Elec       q    Type
                         _______ _______ _______ _____ _____    ______ ____

>  <TORSDO>
F 0

$$$$
=
 OpenBabel11122411593D

 28 32  0  0  1  0  0  0  0  0999 V2000
  188.1180  175.5020  136.7710 C   0  0  2  0  0  3  0  0  0  0  0  0
  190.2470  175.5210  138.8040 O   0  0  0  0  0  0  0  0  0  0  0  0
  183.2770  178.8120  139.4690 O   0  0  0  0  0  0  0  0  0  0  0  0
  189.7470  177.0810  134.8970 C   0  0  0  0  0  2  0  0  0  0  0  0
  185.4440  178.8360  140.4160 N   0  0  0  0  0  0  0  0  0  0  0  0
  186.7900  174.8780  137.2160 C   0  0  0  0  0  2  0  0  0  0  0  0
  191.1940  177.7880  139.0090 O   0  0  0  0  0  0  0  0  0  0  0  0
  190.1310  176.8480  139.4990 S   0  0  0  0  0  0  0  0  0  0  0  0
  189.4330  177.5400  142.0790 C   0  0  0  0  0  0  0  0  0  0  0  0
  188.5720  177.5380  139.2660 N   0  0  0  0  0  0  0  0  0  0  0  0
  183.9870  176.7560  135.4680 N   0  0  0  0  0  1  0  0  0  0  0  0
  186.5990  178.2320  138.5070 C   0  0  0  0  0  0  0  0  0  0  0  0
  188.3500  178.1210  141.6390 N   0  0  0  0  0  0  0  0  0  0  0  0
  190.2890  176.6020  141.2570 C   0  0  0  0  0  2  0  0  0  0  0  0
  185.1260  176.5820  136.3510 C   0  0  1  0  0  3  0  0  0  0  0  0
  188.1020  177.0420  136.7960 C   0  0  2  0  0  3  0  0  0  0  0  0
  184.5200  178.6630  139.3330 C   0  0  0  0  0  0  0  0  0  0  0  0
  189.7720  177.6820  143.5190 C   0  0  0  0  0  1  0  0  0  0  0  0
  184.7330  176.8840  137.7200 N   0  0  0  0  0  2  0  0  0  0  0  0
  189.4140  177.6310  136.2770 C   0  0  0  0  0  2  0  0  0  0  0  0
  188.5290  174.9650  135.3980 C   0  0  0  0  0  2  0  0  0  0  0  0
  189.8600  175.5630  134.9590 C   0  0  0  0  0  2  0  0  0  0  0  0
  185.6240  175.1460  136.2600 C   0  0  0  0  0  2  0  0  0  0  0  0
  186.6870  178.5540  139.8120 C   0  0  0  0  0  0  0  0  0  0  0  0
  185.1760  178.2380  138.0340 C   0  0  2  0  0  3  0  0  0  0  0  0
  187.8850  178.0810  140.2870 C   0  0  0  0  0  0  0  0  0  0  0  0
  185.1280  178.6890  141.8260 C   0  0  0  0  0  1  0  0  0  0  0  0
  187.7830  177.6000  138.1560 C   0  0  0  0  0  0  0  0  0  0  0  0
  1 21  1  6  0  0  0
  1 16  1  0  0  0  0
  1  6  1  0  0  0  0
  2  8  2  0  0  0  0
  4 22  1  0  0  0  0
  4 20  1  0  0  0  0
  5 27  1  0  0  0  0
  7  8  2  0  0  0  0
  8 14  1  0  0  0  0
  9 18  1  0  0  0  0
 10  8  1  0  0  0  0
 10 26  1  0  0  0  0
 12 24  1  0  0  0  0
 13  9  2  0  0  0  0
 14  9  1  0  0  0  0
 15 11  1  6  0  0  0
 15 19  1  0  0  0  0
 16 20  1  1  0  0  0
 16 28  1  0  0  0  0
 17  3  2  0  0  0  0
 17  5  1  0  0  0  0
 22 21  1  0  0  0  0
 23 15  1  0  0  0  0
 23  6  1  0  0  0  0
 24 26  2  0  0  0  0
 24  5  1  0  0  0  0
 25 19  1  1  0  0  0
 25 12  1  0  0  0  0
 25 17  1  0  0  0  0
 26 13  1  0  0  0  0
 28 12  2  0  0  0  0
 28 10  1  0  0  0  0
M  END
>  <MODEL>
2

>  <REMARK>
 VINA RESULT:      -6.7      1.734      1.977
  Name = 
  0 active torsions:
  status: ('A' for Active; 'I' for Inactive)
                            x       y       z     vdW  Elec       q    Type
                         _______ _______ _______ _____ _____    ______ ____

>  <TORSDO>
F 0

$$$$
=
 OpenBabel11122411593D

 28 32  0  0  1  0  0  0  0  0999 V2000
  185.8540  177.6800  143.4870 C   0  0  2  0  0  3  0  0  0  0  0  0
  184.0010  177.6190  141.2010 O   0  0  0  0  0  0  0  0  0  0  0  0
  191.7260  177.4630  140.8150 O   0  0  0  0  0  0  0  0  0  0  0  0
  184.9880  180.3860  144.2530 C   0  0  0  0  0  2  0  0  0  0  0  0
  189.8060  177.8830  139.5000 N   0  0  0  0  0  0  0  0  0  0  0  0
  186.8050  176.4830  143.5940 C   0  0  0  0  0  2  0  0  0  0  0  0
  184.1110  179.7530  139.9710 O   0  0  0  0  0  0  0  0  0  0  0  0
  184.6910  178.3730  140.1000 S   0  0  0  0  0  0  0  0  0  0  0  0
  185.6990  177.5860  137.6540 C   0  0  0  0  0  0  0  0  0  0  0  0
  186.3870  178.4640  140.3760 N   0  0  0  0  0  0  0  0  0  0  0  0
  190.0830  177.7370  145.0530 N   0  0  0  0  0  1  0  0  0  0  0  0
  188.4420  178.6280  141.2120 C   0  0  0  0  0  0  0  0  0  0  0  0
  186.9110  177.8500  138.0590 N   0  0  0  0  0  0  0  0  0  0  0  0
  184.5010  177.4800  138.5700 C   0  0  0  0  0  2  0  0  0  0  0  0
  189.0060  177.6390  144.0830 C   0  0  1  0  0  3  0  0  0  0  0  0
  186.5220  178.9340  142.8920 C   0  0  2  0  0  3  0  0  0  0  0  0
  190.5330  177.8590  140.7350 C   0  0  0  0  0  0  0  0  0  0  0  0
  185.4990  177.2150  136.2290 C   0  0  0  0  0  1  0  0  0  0  0  0
  189.5340  177.1590  142.8150 N   0  0  0  0  0  2  0  0  0  0  0  0
  185.5670  180.1280  142.8680 C   0  0  0  0  0  2  0  0  0  0  0  0
  185.2100  177.9740  144.8440 C   0  0  0  0  0  2  0  0  0  0  0  0
  184.2450  179.1490  144.7410 C   0  0  0  0  0  2  0  0  0  0  0  0
  187.9440  176.6790  144.5990 C   0  0  0  0  0  2  0  0  0  0  0  0
  188.5410  178.3690  139.8930 C   0  0  0  0  0  0  0  0  0  0  0  0
  189.7180  178.3060  141.9320 C   0  0  2  0  0  3  0  0  0  0  0  0
  187.2720  178.2210  139.3930 C   0  0  0  0  0  0  0  0  0  0  0  0
  190.0750  177.0430  138.3460 C   0  0  0  0  0  1  0  0  0  0  0  0
  187.0910  178.6950  141.5200 C   0  0  0  0  0  0  0  0  0  0  0  0
  1  6  1  1  0  0  0
  1 21  1  0  0  0  0
  4 22  1  0  0  0  0
  5 24  1  0  0  0  0
  5 17  1  0  0  0  0
  6 23  1  0  0  0  0
  7  8  2  0  0  0  0
  8 10  1  0  0  0  0
  8  2  2  0  0  0  0
  9 13  2  0  0  0  0
  9 14  1  0  0  0  0
 10 28  1  0  0  0  0
 12 28  2  0  0  0  0
 12 25  1  0  0  0  0
 13 26  1  0  0  0  0
 14  8  1  0  0  0  0
 15 23  1  0  0  0  0
 15 11  1  1  0  0  0
 16 20  1  6  0  0  0
 16  1  1  0  0  0  0
 17  3  2  0  0  0  0
 18  9  1  0  0  0  0
 19 15  1  0  0  0  0
 20  4  1  0  0  0  0
 22 21  1  0  0  0  0
 24 12  1  0  0  0  0
 25 17  1  6  0  0  0
 25 19  1  0  0  0  0
 26 24  2  0  0  0  0
 26 10  1  0  0  0  0
 27  5  1  0  0  0  0
 28 16  1  0  0  0  0
M  END
>  <MODEL>
3

>  <REMARK>
 VINA RESULT:      -6.3      2.464      7.042
  Name = 
  0 active torsions:
  status: ('A' for Active; 'I' for Inactive)
                            x       y       z     vdW  Elec       q    Type
                         _______ _______ _______ _____ _____    ______ ____

>  <TORSDO>
F 0

$$$$
=
 OpenBabel11122411593D

 28 32  0  0  1  0  0  0  0  0999 V2000
  190.7140  177.3440  144.1430 C   0  0  2  0  0  3  0  0  0  0  0  0
  191.5750  177.5910  141.3390 O   0  0  0  0  0  0  0  0  0  0  0  0
  184.4080  178.7250  144.0230 O   0  0  0  0  0  0  0  0  0  0  0  0
  191.3060  174.4620  144.1820 C   0  0  0  0  0  2  0  0  0  0  0  0
  185.6040  178.3200  142.0230 N   0  0  0  0  0  0  0  0  0  0  0  0
  190.0960  178.6070  144.7540 C   0  0  0  0  0  2  0  0  0  0  0  0
  190.6440  175.7380  140.0060 O   0  0  0  0  0  0  0  0  0  0  0  0
  190.4070  177.1310  140.5140 S   0  0  0  0  0  0  0  0  0  0  0  0
  188.7270  178.4540  138.7690 C   0  0  0  0  0  0  0  0  0  0  0  0
  188.9440  177.1940  141.4180 N   0  0  0  0  0  0  0  0  0  0  0  0
  187.4180  177.5090  147.2170 N   0  0  0  0  0  1  0  0  0  0  0  0
  187.3460  177.1280  142.9640 C   0  0  0  0  0  0  0  0  0  0  0  0
  187.7220  178.2670  139.5800 N   0  0  0  0  0  0  0  0  0  0  0  0
  190.1770  178.2530  139.1500 C   0  0  0  0  0  2  0  0  0  0  0  0
  188.0610  177.6500  145.9230 C   0  0  1  0  0  3  0  0  0  0  0  0
  189.6620  176.3040  143.7120 C   0  0  2  0  0  3  0  0  0  0  0  0
  185.3980  178.2110  143.4370 C   0  0  0  0  0  0  0  0  0  0  0  0
  188.4520  179.0460  137.4340 C   0  0  0  0  0  1  0  0  0  0  0  0
  187.1980  178.4070  145.0290 N   0  0  0  0  0  2  0  0  0  0  0  0
  190.3140  175.0280  143.1750 C   0  0  0  0  0  2  0  0  0  0  0  0
  191.7480  176.7390  145.0950 C   0  0  0  0  0  2  0  0  0  0  0  0
  192.3830  175.4960  144.4840 C   0  0  0  0  0  2  0  0  0  0  0  0
  189.3910  178.3710  146.0940 C   0  0  0  0  0  2  0  0  0  0  0  0
  186.8160  177.6260  141.8300 C   0  0  0  0  0  0  0  0  0  0  0  0
  186.5030  177.4650  144.1590 C   0  0  2  0  0  3  0  0  0  0  0  0
  187.8180  177.7100  140.8950 C   0  0  0  0  0  0  0  0  0  0  0  0
  185.0820  179.3780  141.1740 C   0  0  0  0  0  1  0  0  0  0  0  0
  188.6810  176.8470  142.7100 C   0  0  0  0  0  0  0  0  0  0  0  0
  1  6  1  1  0  0  0
  1 21  1  0  0  0  0
  4 22  1  0  0  0  0
  5 17  1  0  0  0  0
  6 23  1  0  0  0  0
  7  8  2  0  0  0  0
  8  2  2  0  0  0  0
  8 10  1  0  0  0  0
  9 14  1  0  0  0  0
  9 13  2  0  0  0  0
 10 28  1  0  0  0  0
 13 26  1  0  0  0  0
 14  8  1  0  0  0  0
 15 23  1  0  0  0  0
 15 11  1  1  0  0  0
 16 20  1  6  0  0  0
 16  1  1  0  0  0  0
 17  3  2  0  0  0  0
 17 25  1  0  0  0  0
 18  9  1  0  0  0  0
 19 15  1  0  0  0  0
 20  4  1  0  0  0  0
 22 21  1  0  0  0  0
 24  5  1  0  0  0  0
 24 12  1  0  0  0  0
 25 12  1  6  0  0  0
 25 19  1  0  0  0  0
 26 10  1  0  0  0  0
 26 24  2  0  0  0  0
 27  5  1  0  0  0  0
 28 12  2  0  0  0  0
 28 16  1  0  0  0  0
M  END
>  <MODEL>
4

>  <REMARK>
 VINA RESULT:      -6.1      3.241      6.858
  Name = 
  0 active torsions:
  status: ('A' for Active; 'I' for Inactive)
                            x       y       z     vdW  Elec       q    Type
                         _______ _______ _______ _____ _____    ______ ____

>  <TORSDO>
F 0

$$$$
=
 OpenBabel11122411593D

 28 32  0  0  1  0  0  0  0  0999 V2000
  182.7760  175.5840  136.9360 C   0  0  2  0  0  3  0  0  0  0  0  0
  185.5150  175.6180  135.8600 O   0  0  0  0  0  0  0  0  0  0  0  0
  183.1450  179.0020  142.4000 O   0  0  0  0  0  0  0  0  0  0  0  0
  181.7410  177.1070  134.6410 C   0  0  0  0  0  2  0  0  0  0  0  0
  184.9150  179.0200  140.8320 N   0  0  0  0  0  0  0  0  0  0  0  0
  182.6290  174.9840  138.3400 C   0  0  0  0  0  2  0  0  0  0  0  0
  186.0700  177.8770  135.0430 O   0  0  0  0  0  0  0  0  0  0  0  0
  186.0800  176.9590  136.2320 S   0  0  0  0  0  0  0  0  0  0  0  0
  188.1180  177.7100  137.9360 C   0  0  0  0  0  0  0  0  0  0  0  0
  185.2040  177.6630  137.5350 N   0  0  0  0  0  0  0  0  0  0  0  0
  179.8400  176.8600  140.1130 N   0  0  0  0  0  1  0  0  0  0  0  0
  183.6770  178.3650  138.9930 C   0  0  0  0  0  0  0  0  0  0  0  0
  187.2560  178.2950  138.7220 N   0  0  0  0  0  0  0  0  0  0  0  0
  187.7440  176.7470  136.8320 C   0  0  0  0  0  2  0  0  0  0  0  0
  181.1230  176.6900  139.4540 C   0  0  1  0  0  3  0  0  0  0  0  0
  182.7720  177.1240  136.9330 C   0  0  2  0  0  3  0  0  0  0  0  0
  183.5460  178.8360  141.2180 C   0  0  0  0  0  0  0  0  0  0  0  0
  189.5650  177.8770  138.2310 C   0  0  0  0  0  1  0  0  0  0  0  0
  182.1950  177.0240  140.3800 N   0  0  0  0  0  2  0  0  0  0  0  0
  182.8460  177.6880  135.5130 C   0  0  0  0  0  2  0  0  0  0  0  0
  181.7100  175.0150  135.9970 C   0  0  0  0  0  2  0  0  0  0  0  0
  181.8640  175.5890  134.5940 C   0  0  0  0  0  2  0  0  0  0  0  0
  181.2680  175.2470  138.9910 C   0  0  0  0  0  2  0  0  0  0  0  0
  184.8940  178.7120  139.4550 C   0  0  0  0  0  0  0  0  0  0  0  0
  182.6490  178.3780  140.0850 C   0  0  2  0  0  3  0  0  0  0  0  0
  185.8340  178.2330  138.5770 C   0  0  0  0  0  0  0  0  0  0  0  0
  186.0630  178.9040  141.7140 C   0  0  0  0  0  1  0  0  0  0  0  0
  183.8640  177.7120  137.7830 C   0  0  0  0  0  0  0  0  0  0  0  0
  1 21  1  6  0  0  0
  1  6  1  0  0  0  0
  2  8  2  0  0  0  0
  4 20  1  0  0  0  0
  5 17  1  0  0  0  0
  5 27  1  0  0  0  0
  6 23  1  0  0  0  0
  7  8  2  0  0  0  0
  8 14  1  0  0  0  0
  8 10  1  0  0  0  0
  9 18  1  0  0  0  0
  9 13  2  0  0  0  0
 10 28  1  0  0  0  0
 10 26  1  0  0  0  0
 12 24  1  0  0  0  0
 14  9  1  0  0  0  0
 15 11  1  1  0  0  0
 15 19  1  0  0  0  0
 16 20  1  6  0  0  0
 16  1  1  0  0  0  0
 16 28  1  0  0  0  0
 17  3  2  0  0  0  0
 22  4  1  0  0  0  0
 22 21  1  0  0  0  0
 23 15  1  0  0  0  0
 24  5  1  0  0  0  0
 25 12  1  6  0  0  0
 25 19  1  0  0  0  0
 25 17  1  0  0  0  0
 26 13  1  0  0  0  0
 26 24  2  0  0  0  0
 28 12  2  0  0  0  0
M  END
>  <MODEL>
5

>  <REMARK>
 VINA RESULT:      -5.8      2.327      3.377
  Name = 
  0 active torsions:
  status: ('A' for Active; 'I' for Inactive)
                            x       y       z     vdW  Elec       q    Type
                         _______ _______ _______ _____ _____    ______ ____

>  <TORSDO>
F 0

$$$$
=
 OpenBabel11122411593D

 28 32  0  0  1  0  0  0  0  0999 V2000
  182.6030  176.3430  138.0180 C   0  0  2  0  0  3  0  0  0  0  0  0
  183.1180  173.5770  137.1550 O   0  0  0  0  0  0  0  0  0  0  0  0
  188.4650  179.0030  138.5040 O   0  0  0  0  0  0  0  0  0  0  0  0
  181.2060  176.9790  135.5070 C   0  0  0  0  0  2  0  0  0  0  0  0
  188.1600  176.9170  137.4310 N   0  0  0  0  0  0  0  0  0  0  0  0
  183.2570  176.7510  139.3430 C   0  0  0  0  0  2  0  0  0  0  0  0
  183.9120  173.5570  134.8210 O   0  0  0  0  0  0  0  0  0  0  0  0
  184.3240  173.6490  136.2620 S   0  0  0  0  0  0  0  0  0  0  0  0
  186.8950  172.6810  136.5290 C   0  0  0  0  0  0  0  0  0  0  0  0
  185.2150  175.0960  136.5360 N   0  0  0  0  0  0  0  0  0  0  0  0
  184.1810  180.4290  139.0940 N   0  0  0  0  0  1  0  0  0  0  0  0
  185.9130  177.1670  136.9500 C   0  0  0  0  0  0  0  0  0  0  0  0
  187.3570  173.9000  136.5900 N   0  0  0  0  0  0  0  0  0  0  0  0
  185.4340  172.3170  136.6710 C   0  0  0  0  0  2  0  0  0  0  0  0
  184.2160  179.0190  138.7460 C   0  0  1  0  0  3  0  0  0  0  0  0
  183.3680  176.8550  136.7820 C   0  0  2  0  0  3  0  0  0  0  0  0
  187.7090  178.1930  137.9060 C   0  0  0  0  0  0  0  0  0  0  0  0
  187.8710  171.5610  136.4690 C   0  0  0  0  0  1  0  0  0  0  0  0
  185.5600  178.5000  138.9540 N   0  0  0  0  0  2  0  0  0  0  0  0
  182.6490  176.4940  135.4810 C   0  0  0  0  0  2  0  0  0  0  0  0
  181.1350  176.7750  137.9900 C   0  0  0  0  0  2  0  0  0  0  0  0
  180.4710  176.3530  136.6850 C   0  0  0  0  0  2  0  0  0  0  0  0
  183.2260  178.2580  139.6160 C   0  0  0  0  0  2  0  0  0  0  0  0
  186.9930  176.3670  136.8610 C   0  0  0  0  0  0  0  0  0  0  0  0
  186.2340  178.4470  137.6620 C   0  0  2  0  0  3  0  0  0  0  0  0
  186.5540  175.0830  136.6540 C   0  0  0  0  0  0  0  0  0  0  0  0
  189.2830  176.1670  137.9670 C   0  0  0  0  0  1  0  0  0  0  0  0
  184.7930  176.3750  136.7390 C   0  0  0  0  0  0  0  0  0  0  0  0
  1 21  1  1  0  0  0
  1  6  1  0  0  0  0
  4 22  1  0  0  0  0
  5 17  1  0  0  0  0
  5 27  1  0  0  0  0
  6 23  1  0  0  0  0
  7  8  2  0  0  0  0
  8 10  1  0  0  0  0
  8 14  1  0  0  0  0
  8  2  2  0  0  0  0
  9 13  2  0  0  0  0
  9 14  1  0  0  0  0
 10 26  1  0  0  0  0
 10 28  1  0  0  0  0
 13 26  1  0  0  0  0
 15 19  1  0  0  0  0
 15 11  1  1  0  0  0
 15 23  1  0  0  0  0
 16 20  1  6  0  0  0
 16  1  1  0  0  0  0
 17  3  2  0  0  0  0
 18  9  1  0  0  0  0
 20  4  1  0  0  0  0
 22 21  1  0  0  0  0
 24 12  1  0  0  0  0
 24  5  1  0  0  0  0
 25 12  1  6  0  0  0
 25 17  1  0  0  0  0
 25 19  1  0  0  0  0
 26 24  2  0  0  0  0
 28 16  1  0  0  0  0
 28 12  2  0  0  0  0
M  END
>  <MODEL>
6

>  <REMARK>
 VINA RESULT:      -5.8      3.133      5.652
  Name = 
  0 active torsions:
  status: ('A' for Active; 'I' for Inactive)
                            x       y       z     vdW  Elec       q    Type
                         _______ _______ _______ _____ _____    ______ ____

>  <TORSDO>
F 0

$$$$
=
 OpenBabel11122411593D

 28 32  0  0  1  0  0  0  0  0999 V2000
  187.6050  176.4880  137.5940 C   0  0  2  0  0  3  0  0  0  0  0  0
  188.8050  176.7520  140.2680 O   0  0  0  0  0  0  0  0  0  0  0  0
  181.4800  178.3720  138.3790 O   0  0  0  0  0  0  0  0  0  0  0  0
  189.3630  178.5700  136.4820 C   0  0  0  0  0  2  0  0  0  0  0  0
  183.0990  178.7640  140.0580 N   0  0  0  0  0  0  0  0  0  0  0  0
  186.3960  175.5490  137.5060 C   0  0  0  0  0  2  0  0  0  0  0  0
  189.0470  179.1360  140.8510 O   0  0  0  0  0  0  0  0  0  0  0  0
  188.1370  177.9420  140.8970 S   0  0  0  0  0  0  0  0  0  0  0  0
  186.4280  178.1920  143.0500 C   0  0  0  0  0  0  0  0  0  0  0  0
  186.6450  178.3000  140.1180 N   0  0  0  0  0  0  0  0  0  0  0  0
  184.0300  176.9520  134.8830 N   0  0  0  0  0  1  0  0  0  0  0  0
  184.9630  178.6280  138.6990 C   0  0  0  0  0  0  0  0  0  0  0  0
  185.4650  178.5680  142.2530 N   0  0  0  0  0  0  0  0  0  0  0  0
  187.7170  177.5530  142.5840 C   0  0  0  0  0  2  0  0  0  0  0  0
  184.7890  176.9360  136.1210 C   0  0  1  0  0  3  0  0  0  0  0  0
  187.2120  177.9770  137.6400 C   0  0  2  0  0  3  0  0  0  0  0  0
  182.6880  178.5100  138.7080 C   0  0  0  0  0  0  0  0  0  0  0  0
  186.1910  178.2510  144.5160 C   0  0  0  0  0  1  0  0  0  0  0  0
  183.8770  177.0000  137.2540 N   0  0  0  0  0  2  0  0  0  0  0  0
  188.4420  178.8870  137.6530 C   0  0  0  0  0  2  0  0  0  0  0  0
  188.5900  176.2000  136.4590 C   0  0  0  0  0  2  0  0  0  0  0  0
  189.8060  177.1140  136.5530 C   0  0  0  0  0  2  0  0  0  0  0  0
  185.6150  175.6590  136.1930 C   0  0  0  0  0  2  0  0  0  0  0  0
  184.5040  178.8220  139.9500 C   0  0  0  0  0  0  0  0  0  0  0  0
  183.8420  178.3760  137.7350 C   0  0  2  0  0  3  0  0  0  0  0  0
  185.5330  178.5710  140.8240 C   0  0  0  0  0  0  0  0  0  0  0  0
  182.3490  178.4050  141.2500 C   0  0  0  0  0  1  0  0  0  0  0  0
  186.3100  178.3070  138.7970 C   0  0  0  0  0  0  0  0  0  0  0  0
  1 21  1  6  0  0  0
  1 16  1  0  0  0  0
  2  8  2  0  0  0  0
  3 17  2  0  0  0  0
  4 22  1  0  0  0  0
  4 20  1  0  0  0  0
  5 27  1  0  0  0  0
  6  1  1  0  0  0  0
  7  8  2  0  0  0  0
  8 14  1  0  0  0  0
  9 18  1  0  0  0  0
 10 26  1  0  0  0  0
 10  8  1  0  0  0  0
 12 28  2  0  0  0  0
 12 24  1  0  0  0  0
 13  9  2  0  0  0  0
 14  9  1  0  0  0  0
 15 11  1  6  0  0  0
 15 23  1  0  0  0  0
 15 19  1  0  0  0  0
 16 20  1  1  0  0  0
 16 28  1  0  0  0  0
 17  5  1  0  0  0  0
 21 22  1  0  0  0  0
 23  6  1  0  0  0  0
 24  5  1  0  0  0  0
 24 26  2  0  0  0  0
 25 19  1  1  0  0  0
 25 12  1  0  0  0  0
 25 17  1  0  0  0  0
 26 13  1  0  0  0  0
 28 10  1  0  0  0  0
M  END
>  <MODEL>
7

>  <REMARK>
 VINA RESULT:      -5.4      1.812      2.118
  Name = 
  0 active torsions:
  status: ('A' for Active; 'I' for Inactive)
                            x       y       z     vdW  Elec       q    Type
                         _______ _______ _______ _____ _____    ______ ____

>  <TORSDO>
F 0

$$$$
=
 OpenBabel11122411593D

 28 32  0  0  1  0  0  0  0  0999 V2000
  181.2920  176.8540  138.1690 C   0  0  2  0  0  3  0  0  0  0  0  0
  182.8790  175.6710  135.9900 O   0  0  0  0  0  0  0  0  0  0  0  0
  185.6810  179.3570  142.1880 O   0  0  0  0  0  0  0  0  0  0  0  0
  180.0720  178.8230  136.3550 C   0  0  0  0  0  2  0  0  0  0  0  0
  186.2870  178.6430  140.0160 N   0  0  0  0  0  0  0  0  0  0  0  0
  181.5900  176.3070  139.5700 C   0  0  0  0  0  2  0  0  0  0  0  0
  183.8990  177.4550  134.6280 O   0  0  0  0  0  0  0  0  0  0  0  0
  184.0730  176.5670  135.8260 S   0  0  0  0  0  0  0  0  0  0  0  0
  186.7690  176.1710  136.2710 C   0  0  0  0  0  0  0  0  0  0  0  0
  184.3370  177.5160  137.2370 N   0  0  0  0  0  0  0  0  0  0  0  0
  181.1340  179.1540  142.0450 N   0  0  0  0  0  1  0  0  0  0  0  0
  184.1780  178.7580  139.0760 C   0  0  0  0  0  0  0  0  0  0  0  0
  186.7440  177.0410  137.2440 N   0  0  0  0  0  0  0  0  0  0  0  0
  185.5340  175.5650  135.6420 C   0  0  0  0  0  2  0  0  0  0  0  0
  181.7220  178.4460  140.9220 C   0  0  1  0  0  3  0  0  0  0  0  0
  181.9610  178.2150  137.8960 C   0  0  2  0  0  3  0  0  0  0  0  0
  185.3490  179.0960  141.0010 C   0  0  0  0  0  0  0  0  0  0  0  0
  188.0840  175.6240  135.8500 C   0  0  0  0  0  1  0  0  0  0  0  0
  183.1270  178.1820  141.1930 N   0  0  0  0  0  2  0  0  0  0  0  0
  181.5840  178.7650  136.5200 C   0  0  0  0  0  2  0  0  0  0  0  0
  179.7820  176.9090  137.9250 C   0  0  0  0  0  2  0  0  0  0  0  0
  179.4790  177.4300  136.5250 C   0  0  0  0  0  2  0  0  0  0  0  0
  180.9800  177.1340  140.7050 C   0  0  0  0  0  2  0  0  0  0  0  0
  185.4780  178.4660  138.8740 C   0  0  0  0  0  0  0  0  0  0  0  0
  183.9240  179.1820  140.4920 C   0  0  2  0  0  3  0  0  0  0  0  0
  185.5640  177.6600  137.7660 C   0  0  0  0  0  0  0  0  0  0  0  0
  187.5330  177.9500  140.2930 C   0  0  0  0  0  1  0  0  0  0  0  0
  183.4570  178.1700  138.0470 C   0  0  0  0  0  0  0  0  0  0  0  0
  1 21  1  1  0  0  0
  1  6  1  0  0  0  0
  4 20  1  0  0  0  0
  4 22  1  0  0  0  0
  5 27  1  0  0  0  0
  5 17  1  0  0  0  0
  6 23  1  0  0  0  0
  7  8  2  0  0  0  0
  8  2  2  0  0  0  0
  8 10  1  0  0  0  0
  9 13  2  0  0  0  0
 10 26  1  0  0  0  0
 10 28  1  0  0  0  0
 13 26  1  0  0  0  0
 14  8  1  0  0  0  0
 14  9  1  0  0  0  0
 15 19  1  0  0  0  0
 15 11  1  1  0  0  0
 16 20  1  6  0  0  0
 16 28  1  0  0  0  0
 16  1  1  0  0  0  0
 17  3  2  0  0  0  0
 18  9  1  0  0  0  0
 22 21  1  0  0  0  0
 23 15  1  0  0  0  0
 24 12  1  0  0  0  0
 24  5  1  0  0  0  0
 25 12  1  6  0  0  0
 25 17  1  0  0  0  0
 25 19  1  0  0  0  0
 26 24  2  0  0  0  0
 28 12  2  0  0  0  0
M  END
>  <MODEL>
8

>  <REMARK>
 VINA RESULT:      -5.3      2.818      4.986
  Name = 
  0 active torsions:
  status: ('A' for Active; 'I' for Inactive)
                            x       y       z     vdW  Elec       q    Type
                         _______ _______ _______ _____ _____    ______ ____

>  <TORSDO>
F 0

$$$$
=
 OpenBabel11122411593D

 28 32  0  0  1  0  0  0  0  0999 V2000
  181.2130  176.9580  138.9540 C   0  0  2  0  0  3  0  0  0  0  0  0
  180.3910  174.2320  138.2110 O   0  0  0  0  0  0  0  0  0  0  0  0
  187.4790  177.2300  137.4250 O   0  0  0  0  0  0  0  0  0  0  0  0
  179.4370  178.1580  136.9370 C   0  0  0  0  0  2  0  0  0  0  0  0
  186.1190  175.4480  136.6730 N   0  0  0  0  0  0  0  0  0  0  0  0
  182.3480  177.0460  139.9810 C   0  0  0  0  0  2  0  0  0  0  0  0
  180.3560  174.0030  135.7570 O   0  0  0  0  0  0  0  0  0  0  0  0
  181.1990  173.8820  136.9940 S   0  0  0  0  0  0  0  0  0  0  0  0
  183.1870  172.0190  136.5530 C   0  0  0  0  0  0  0  0  0  0  0  0
  182.5920  174.8840  136.8640 N   0  0  0  0  0  0  0  0  0  0  0  0
  184.4190  180.1240  139.1570 N   0  0  0  0  0  1  0  0  0  0  0  0
  184.0870  176.5310  136.8720 C   0  0  0  0  0  0  0  0  0  0  0  0
  184.0550  172.9770  136.3690 N   0  0  0  0  0  0  0  0  0  0  0  0
  181.8160  172.2200  137.1590 C   0  0  0  0  0  2  0  0  0  0  0  0
  183.8300  178.8150  138.9350 C   0  0  1  0  0  3  0  0  0  0  0  0
  181.6870  177.1930  137.5070 C   0  0  2  0  0  3  0  0  0  0  0  0
  186.3340  176.7810  137.1520 C   0  0  0  0  0  0  0  0  0  0  0  0
  183.6180  170.6210  136.2940 C   0  0  0  0  0  1  0  0  0  0  0  0
  184.8850  177.8270  138.7700 N   0  0  0  0  0  2  0  0  0  0  0  0
  180.5200  177.1720  136.5190 C   0  0  0  0  0  2  0  0  0  0  0  0
  180.0730  177.9050  139.3350 C   0  0  0  0  0  2  0  0  0  0  0  0
  178.9310  177.8070  138.3310 C   0  0  0  0  0  2  0  0  0  0  0  0
  182.9540  178.4450  140.1240 C   0  0  0  0  0  2  0  0  0  0  0  0
  184.7170  175.3910  136.5290 C   0  0  0  0  0  0  0  0  0  0  0  0
  185.0560  177.5740  137.3440 C   0  0  2  0  0  3  0  0  0  0  0  0
  183.8000  174.3700  136.5730 C   0  0  0  0  0  0  0  0  0  0  0  0
  186.9990  174.3150  136.9050 C   0  0  0  0  0  1  0  0  0  0  0  0
  182.7500  176.2210  137.0770 C   0  0  0  0  0  0  0  0  0  0  0  0
  1 21  1  1  0  0  0
  1  6  1  0  0  0  0
  4 22  1  0  0  0  0
  5 27  1  0  0  0  0
  5 17  1  0  0  0  0
  6 23  1  0  0  0  0
  7  8  2  0  0  0  0
  8 14  1  0  0  0  0
  8  2  2  0  0  0  0
  9 14  1  0  0  0  0
 10  8  1  0  0  0  0
 10 28  1  0  0  0  0
 12 28  2  0  0  0  0
 13  9  2  0  0  0  0
 13 26  1  0  0  0  0
 15 11  1  1  0  0  0
 15 23  1  0  0  0  0
 16 20  1  6  0  0  0
 16  1  1  0  0  0  0
 17 25  1  0  0  0  0
 17  3  2  0  0  0  0
 18  9  1  0  0  0  0
 19 15  1  0  0  0  0
 20  4  1  0  0  0  0
 22 21  1  0  0  0  0
 24 26  2  0  0  0  0
 24  5  1  0  0  0  0
 24 12  1  0  0  0  0
 25 12  1  1  0  0  0
 25 19  1  0  0  0  0
 26 10  1  0  0  0  0
 28 16  1  0  0  0  0
M  END
>  <MODEL>
9

>  <REMARK>
 VINA RESULT:      -5.2      3.520      6.885
  Name = 
  0 active torsions:
  status: ('A' for Active; 'I' for Inactive)
                            x       y       z     vdW  Elec       q    Type
                         _______ _______ _______ _____ _____    ______ ____

>  <TORSDO>
F 0

$$$$
