=
 OpenBabel11122410443D

 32 37  0  0  1  0  0  0  0  0999 V2000
  181.9090  179.6820  140.2890 C   0  0  0  0  0  2  0  0  0  0  0  0
  186.3790  178.2020  143.0200 C   0  0  0  0  0  0  0  0  0  0  0  0
  190.3740  176.6710  140.8290 C   0  0  0  0  0  2  0  0  0  0  0  0
  191.2010  177.7470  141.5320 C   0  0  0  0  0  2  0  0  0  0  0  0
  186.4940  177.8460  145.6110 C   0  0  0  0  0  0  0  0  0  0  0  0
  187.2520  177.1900  146.7310 C   0  0  2  0  0  3  0  0  0  0  0  0
  184.1350  178.1750  141.8060 C   0  0  2  0  0  3  0  0  0  0  0  0
  186.2520  178.5370  140.5410 C   0  0  0  0  0  2  0  0  0  0  0  0
  189.2090  177.6710  147.9110 N   0  0  0  0  0  0  0  0  0  0  0  0
  184.1240  178.8070  139.3600 C   0  0  0  0  0  2  0  0  0  0  0  0
  188.8730  177.0050  140.7930 C   0  0  0  0  0  2  0  0  0  0  0  0
  187.0080  178.3380  141.8320 C   0  0  0  0  0  0  0  0  0  0  0  0
  188.4990  178.1840  141.7010 C   0  0  1  0  0  3  0  0  0  0  0  0
  188.5150  177.9390  144.2310 C   0  0  0  0  0  0  0  0  0  0  0  0
  188.0560  177.6700  148.7950 C   0  0  0  0  0  2  0  0  0  0  0  0
  181.9060  178.4240  140.9030 O   0  0  0  0  0  0  0  0  0  0  0  0
  184.8120  179.0070  140.7070 C   0  0  1  0  0  3  0  0  0  0  0  0
  186.8700  177.6620  148.0060 O   0  0  0  0  0  0  0  0  0  0  0  0
  182.6870  178.5990  142.0500 C   0  0  0  0  0  2  0  0  0  0  0  0
  182.9260  179.7400  139.1480 C   0  0  1  0  0  3  0  0  0  0  0  0
  190.6770  177.9540  142.9540 C   0  0  0  0  0  2  0  0  0  0  0  0
  189.2130  178.0820  142.9810 N   0  0  0  0  0  0  0  0  0  0  0  0
  189.2940  177.8250  145.4910 C   0  0  0  0  0  3  0  0  0  0  0  0
  184.8840  178.3910  143.1130 C   0  0  0  0  0  2  0  0  0  0  0  0
  185.3010  178.2060  145.8010 O   0  0  0  0  0  0  0  0  0  0  0  0
  190.3990  178.4580  148.1940 C   0  0  0  0  0  1  0  0  0  0  0  0
  187.1610  177.9920  144.2770 C   0  0  0  0  0  0  0  0  0  0  0  0
  188.6840  177.4840  146.6270 C   0  0  0  0  0  0  0  0  0  0  0  0
  182.2620  179.4100  137.8960 N   0  0  0  0  0  2  0  0  0  0  0  0
  181.3810  180.3160  137.2280 C   0  0  0  0  0  0  0  0  0  0  0  0
  181.1250  181.4470  137.7220 O   0  0  0  0  0  0  0  0  0  0  0  0
  180.7590  179.9180  135.9380 C   0  0  0  0  0  1  0  0  0  0  0  0
  1 16  1  0  0  0  0
  2 24  1  0  0  0  0
  2 27  1  0  0  0  0
  3  4  1  0  0  0  0
  4 21  1  0  0  0  0
  5 25  2  0  0  0  0
  6  5  1  6  0  0  0
  6 18  1  0  0  0  0
  7 19  1  1  0  0  0
  7 24  1  0  0  0  0
  8 17  1  0  0  0  0
  8 12  1  0  0  0  0
  9 26  1  0  0  0  0
  9 15  1  0  0  0  0
 11  3  1  0  0  0  0
 12  2  2  0  0  0  0
 13 11  1  6  0  0  0
 13 12  1  0  0  0  0
 13 22  1  0  0  0  0
 14 27  2  0  0  0  0
 14 23  1  0  0  0  0
 16 19  1  0  0  0  0
 17 10  1  6  0  0  0
 17  7  1  0  0  0  0
 18 15  1  0  0  0  0
 20 29  1  6  0  0  0
 20 10  1  0  0  0  0
 20  1  1  0  0  0  0
 21 22  1  0  0  0  0
 22 14  1  0  0  0  0
 23 28  2  0  0  0  0
 27  5  1  0  0  0  0
 28  6  1  0  0  0  0
 28  9  1  0  0  0  0
 30 31  2  0  0  0  0
 30 29  1  0  0  0  0
 32 30  1  0  0  0  0
M  END
>  <MODEL>
1

>  <REMARK>
 VINA RESULT:      -8.8      0.000      0.000
  Name = 
  1 active torsions:
  status: ('A' for Active; 'I' for Inactive)
    1  A    between atoms: C_20  and  N_29
                            x       y       z     vdW  Elec       q    Type
                         _______ _______ _______ _____ _____    ______ ____

>  <TORSDO>
F 1

$$$$
=
 OpenBabel11122410443D

 32 37  0  0  1  0  0  0  0  0999 V2000
  190.0870  177.1850  136.8260 C   0  0  0  0  0  2  0  0  0  0  0  0
  188.9650  177.1700  142.1520 C   0  0  0  0  0  0  0  0  0  0  0  0
  191.8910  175.2010  145.4180 C   0  0  0  0  0  2  0  0  0  0  0  0
  191.9550  176.5180  146.1910 C   0  0  0  0  0  2  0  0  0  0  0  0
  186.6570  177.8360  143.1920 C   0  0  0  0  0  0  0  0  0  0  0  0
  185.7670  177.7090  144.3970 C   0  0  2  0  0  3  0  0  0  0  0  0
  189.1410  176.5270  139.6890 C   0  0  2  0  0  3  0  0  0  0  0  0
  191.1650  176.5260  141.1440 C   0  0  0  0  0  2  0  0  0  0  0  0
  185.6590  178.7380  146.4910 N   0  0  0  0  0  0  0  0  0  0  0  0
  191.4550  176.1790  138.7370 C   0  0  0  0  0  2  0  0  0  0  0  0
  191.4540  175.3910  143.9550 C   0  0  0  0  0  2  0  0  0  0  0  0
  190.2770  176.8870  142.3090 C   0  0  0  0  0  0  0  0  0  0  0  0
  190.9130  176.7980  143.6700 C   0  0  1  0  0  3  0  0  0  0  0  0
  188.6560  177.5360  144.5750 C   0  0  0  0  0  0  0  0  0  0  0  0
  184.4520  178.9930  145.7230 C   0  0  0  0  0  2  0  0  0  0  0  0
  189.1450  176.2590  137.2860 O   0  0  0  0  0  0  0  0  0  0  0  0
  190.6230  176.9230  139.7760 C   0  0  1  0  0  3  0  0  0  0  0  0
  184.6750  178.6040  144.3710 O   0  0  0  0  0  0  0  0  0  0  0  0
  188.5130  176.9110  138.3500 C   0  0  0  0  0  2  0  0  0  0  0  0
  191.4820  176.8750  137.3710 C   0  0  1  0  0  3  0  0  0  0  0  0
  190.5950  177.2140  146.1380 C   0  0  0  0  0  2  0  0  0  0  0  0
  190.0500  177.2410  144.7730 N   0  0  0  0  0  0  0  0  0  0  0  0
  187.8310  177.9640  145.7340 C   0  0  0  0  0  3  0  0  0  0  0  0
  188.3720  177.2770  140.7690 C   0  0  0  0  0  2  0  0  0  0  0  0
  186.1520  178.1570  142.0830 O   0  0  0  0  0  0  0  0  0  0  0  0
  186.1300  179.6540  147.5180 C   0  0  0  0  0  1  0  0  0  0  0  0
  188.1130  177.5090  143.3330 C   0  0  0  0  0  0  0  0  0  0  0  0
  186.5040  178.0410  145.6200 C   0  0  0  0  0  0  0  0  0  0  0  0
  192.2000  176.0480  136.4130 N   0  0  0  0  0  2  0  0  0  0  0  0
  193.6130  176.1420  136.2200 C   0  0  0  0  0  0  0  0  0  0  0  0
  194.2980  176.9750  136.8700 O   0  0  0  0  0  0  0  0  0  0  0  0
  194.2800  175.2450  135.2390 C   0  0  0  0  0  1  0  0  0  0  0  0
  1 16  1  0  0  0  0
  1 20  1  0  0  0  0
  2 12  2  0  0  0  0
  2 27  1  0  0  0  0
  3  4  1  0  0  0  0
  5 27  1  0  0  0  0
  6  5  1  6  0  0  0
  6 28  1  0  0  0  0
  7 19  1  6  0  0  0
  7 17  1  0  0  0  0
  7 24  1  0  0  0  0
  8 12  1  0  0  0  0
  9 26  1  0  0  0  0
 11  3  1  0  0  0  0
 12 13  1  0  0  0  0
 13 11  1  1  0  0  0
 13 22  1  0  0  0  0
 14 22  1  0  0  0  0
 14 23  1  0  0  0  0
 15  9  1  0  0  0  0
 16 19  1  0  0  0  0
 17 10  1  6  0  0  0
 17  8  1  0  0  0  0
 18  6  1  0  0  0  0
 18 15  1  0  0  0  0
 20 29  1  6  0  0  0
 20 10  1  0  0  0  0
 21  4  1  0  0  0  0
 22 21  1  0  0  0  0
 24  2  1  0  0  0  0
 25  5  2  0  0  0  0
 27 14  2  0  0  0  0
 28 23  2  0  0  0  0
 28  9  1  0  0  0  0
 30 29  1  0  0  0  0
 30 31  2  0  0  0  0
 32 30  1  0  0  0  0
M  END
>  <MODEL>
2

>  <REMARK>
 VINA RESULT:      -8.7      3.987      6.578
  Name = 
  1 active torsions:
  status: ('A' for Active; 'I' for Inactive)
    1  A    between atoms: C_20  and  N_29
                            x       y       z     vdW  Elec       q    Type
                         _______ _______ _______ _____ _____    ______ ____

>  <TORSDO>
F 1

$$$$
=
 OpenBabel11122410443D

 32 37  0  0  1  0  0  0  0  0999 V2000
  180.7730  180.1640  140.1060 C   0  0  0  0  0  2  0  0  0  0  0  0
  185.8160  178.3400  141.0390 C   0  0  0  0  0  0  0  0  0  0  0  0
  188.6870  176.7340  137.5340 C   0  0  0  0  0  2  0  0  0  0  0  0
  189.7730  177.7320  137.9320 C   0  0  0  0  0  2  0  0  0  0  0  0
  186.8100  177.8490  143.4100 C   0  0  0  0  0  0  0  0  0  0  0  0
  187.8700  177.1030  144.1700 C   0  0  2  0  0  3  0  0  0  0  0  0
  183.2920  178.4800  140.6940 C   0  0  2  0  0  3  0  0  0  0  0  0
  184.8500  178.8040  138.7750 C   0  0  0  0  0  2  0  0  0  0  0  0
  190.1430  177.4320  144.5990 N   0  0  0  0  0  0  0  0  0  0  0  0
  182.4630  179.2340  138.4290 C   0  0  0  0  0  2  0  0  0  0  0  0
  187.2920  177.1390  138.0400 C   0  0  0  0  0  2  0  0  0  0  0  0
  185.9960  178.5060  139.7100 C   0  0  0  0  0  0  0  0  0  0  0  0
  187.3340  178.2880  139.0570 C   0  0  1  0  0  3  0  0  0  0  0  0
  188.2200  177.9160  141.4090 C   0  0  0  0  0  0  0  0  0  0  0  0
  189.3740  177.4410  145.8310 C   0  0  0  0  0  2  0  0  0  0  0  0
  180.9080  178.8790  140.6430 O   0  0  0  0  0  0  0  0  0  0  0  0
  183.5910  179.3330  139.4520 C   0  0  1  0  0  3  0  0  0  0  0  0
  187.9890  177.5290  145.5110 O   0  0  0  0  0  0  0  0  0  0  0  0
  182.0500  178.9590  141.4460 C   0  0  0  0  0  2  0  0  0  0  0  0
  181.3270  180.2310  138.6820 C   0  0  1  0  0  3  0  0  0  0  0  0
  189.7940  177.8930  139.4530 C   0  0  0  0  0  2  0  0  0  0  0  0
  188.4440  178.0890  139.9990 N   0  0  0  0  0  0  0  0  0  0  0  0
  189.3830  177.7020  142.3100 C   0  0  0  0  0  3  0  0  0  0  0  0
  184.4640  178.5950  141.6590 C   0  0  0  0  0  2  0  0  0  0  0  0
  185.7840  178.2560  144.0190 O   0  0  0  0  0  0  0  0  0  0  0  0
  191.4030  178.1460  144.4670 C   0  0  0  0  0  1  0  0  0  0  0  0
  186.9740  178.0310  141.9320 C   0  0  0  0  0  0  0  0  0  0  0  0
  189.1900  177.3340  143.5770 C   0  0  0  0  0  0  0  0  0  0  0  0
  180.2470  179.9960  137.7350 N   0  0  0  0  0  2  0  0  0  0  0  0
  180.0400  180.8170  136.5830 C   0  0  0  0  0  0  0  0  0  0  0  0
  180.7870  181.8060  136.3540 O   0  0  0  0  0  0  0  0  0  0  0  0
  178.9310  180.4990  135.6460 C   0  0  0  0  0  1  0  0  0  0  0  0
  1 16  1  0  0  0  0
  2 24  1  0  0  0  0
  2 27  1  0  0  0  0
  3  4  1  0  0  0  0
  3 11  1  0  0  0  0
  4 21  1  0  0  0  0
  5 25  2  0  0  0  0
  6  5  1  6  0  0  0
  6 18  1  0  0  0  0
  7 19  1  1  0  0  0
  7 24  1  0  0  0  0
  8 17  1  0  0  0  0
  8 12  1  0  0  0  0
  9 15  1  0  0  0  0
 10 20  1  0  0  0  0
 12  2  2  0  0  0  0
 13 11  1  6  0  0  0
 13 12  1  0  0  0  0
 13 22  1  0  0  0  0
 14 27  2  0  0  0  0
 14 23  1  0  0  0  0
 16 19  1  0  0  0  0
 17 10  1  6  0  0  0
 17  7  1  0  0  0  0
 18 15  1  0  0  0  0
 20 29  1  6  0  0  0
 20  1  1  0  0  0  0
 21 22  1  0  0  0  0
 22 14  1  0  0  0  0
 23 28  2  0  0  0  0
 26  9  1  0  0  0  0
 27  5  1  0  0  0  0
 28  6  1  0  0  0  0
 28  9  1  0  0  0  0
 30 29  1  0  0  0  0
 31 30  2  0  0  0  0
 32 30  1  0  0  0  0
M  END
>  <MODEL>
3

>  <REMARK>
 VINA RESULT:      -8.7      1.698      2.556
  Name = 
  1 active torsions:
  status: ('A' for Active; 'I' for Inactive)
    1  A    between atoms: C_20  and  N_29
                            x       y       z     vdW  Elec       q    Type
                         _______ _______ _______ _____ _____    ______ ____

>  <TORSDO>
F 1

$$$$
=
 OpenBabel11122410443D

 32 37  0  0  1  0  0  0  0  0999 V2000
  189.2870  177.0310  147.4340 C   0  0  0  0  0  2  0  0  0  0  0  0
  189.1880  177.4710  142.0090 C   0  0  0  0  0  0  0  0  0  0  0  0
  193.1800  177.5030  139.3330 C   0  0  0  0  0  2  0  0  0  0  0  0
  192.6640  176.3270  138.5040 C   0  0  0  0  0  2  0  0  0  0  0  0
  187.0700  178.0890  140.6010 C   0  0  0  0  0  0  0  0  0  0  0  0
  186.5790  178.6280  139.2870 C   0  0  2  0  0  3  0  0  0  0  0  0
  189.2880  178.0000  144.5030 C   0  0  2  0  0  3  0  0  0  0  0  0
  191.2100  176.8900  143.3690 C   0  0  0  0  0  2  0  0  0  0  0  0
  186.2760  177.7470  137.1440 N   0  0  0  0  0  0  0  0  0  0  0  0
  191.2580  177.1070  145.8080 C   0  0  0  0  0  2  0  0  0  0  0  0
  192.4860  177.6160  140.7000 C   0  0  0  0  0  2  0  0  0  0  0  0
  190.4590  177.0160  142.0660 C   0  0  0  0  0  0  0  0  0  0  0  0
  191.2510  176.7150  140.8220 C   0  0  1  0  0  3  0  0  0  0  0  0
  189.1160  177.2480  139.5510 C   0  0  0  0  0  0  0  0  0  0  0  0
  185.0130  178.1890  137.7090 C   0  0  0  0  0  2  0  0  0  0  0  0
  189.0560  178.3000  146.8910 O   0  0  0  0  0  0  0  0  0  0  0  0
  190.3330  176.8810  144.6160 C   0  0  1  0  0  3  0  0  0  0  0  0
  185.1920  178.4440  139.0980 O   0  0  0  0  0  0  0  0  0  0  0  0
  188.3510  178.0460  145.7100 C   0  0  0  0  0  2  0  0  0  0  0  0
  190.7020  176.5440  147.1200 C   0  0  1  0  0  3  0  0  0  0  0  0
  191.1520  176.4540  138.3140 C   0  0  0  0  0  2  0  0  0  0  0  0
  190.4680  176.7590  139.5790 N   0  0  0  0  0  0  0  0  0  0  0  0
  188.3820  177.2840  138.2590 C   0  0  0  0  0  3  0  0  0  0  0  0
  188.4190  177.7360  143.2810 C   0  0  0  0  0  2  0  0  0  0  0  0
  186.3050  178.1160  141.6030 O   0  0  0  0  0  0  0  0  0  0  0  0
  186.3510  176.6890  136.1490 C   0  0  0  0  0  1  0  0  0  0  0  0
  188.4820  177.5960  140.6980 C   0  0  0  0  0  0  0  0  0  0  0  0
  187.2130  177.9210  138.1700 C   0  0  0  0  0  0  0  0  0  0  0  0
  191.5870  176.8980  148.2210 N   0  0  0  0  0  2  0  0  0  0  0  0
  192.8190  176.2170  148.4690 C   0  0  0  0  0  0  0  0  0  0  0  0
  193.1800  175.2530  147.7420 O   0  0  0  0  0  0  0  0  0  0  0  0
  193.6830  176.6520  149.5970 C   0  0  0  0  0  1  0  0  0  0  0  0
  2 12  2  0  0  0  0
  2 24  1  0  0  0  0
  3 11  1  0  0  0  0
  4  3  1  0  0  0  0
  5 27  1  0  0  0  0
  5 25  2  0  0  0  0
  6 28  1  6  0  0  0
  6  5  1  0  0  0  0
  7 24  1  6  0  0  0
  7 17  1  0  0  0  0
  7 19  1  0  0  0  0
  9 15  1  0  0  0  0
  9 28  1  0  0  0  0
 10 20  1  0  0  0  0
 12  8  1  0  0  0  0
 13 11  1  6  0  0  0
 13 12  1  0  0  0  0
 14 22  1  0  0  0  0
 14 27  2  0  0  0  0
 15 18  1  0  0  0  0
 16  1  1  0  0  0  0
 17  8  1  6  0  0  0
 17 10  1  0  0  0  0
 18  6  1  0  0  0  0
 19 16  1  0  0  0  0
 20  1  1  0  0  0  0
 20 29  1  1  0  0  0
 21  4  1  0  0  0  0
 21 22  1  0  0  0  0
 22 13  1  0  0  0  0
 23 14  1  0  0  0  0
 26  9  1  0  0  0  0
 27  2  1  0  0  0  0
 28 23  2  0  0  0  0
 29 30  1  0  0  0  0
 30 32  1  0  0  0  0
 31 30  2  0  0  0  0
M  END
>  <MODEL>
4

>  <REMARK>
 VINA RESULT:      -8.6      2.836      9.033
  Name = 
  1 active torsions:
  status: ('A' for Active; 'I' for Inactive)
    1  A    between atoms: C_20  and  N_29
                            x       y       z     vdW  Elec       q    Type
                         _______ _______ _______ _____ _____    ______ ____

>  <TORSDO>
F 1

$$$$
=
 OpenBabel11122410443D

 32 37  0  0  1  0  0  0  0  0999 V2000
  182.1980  178.4630  138.6600 C   0  0  0  0  0  2  0  0  0  0  0  0
  186.2490  178.1820  142.2860 C   0  0  0  0  0  0  0  0  0  0  0  0
  185.6830  179.3640  146.9100 C   0  0  0  0  0  2  0  0  0  0  0  0
  186.1880  177.9900  147.3490 C   0  0  0  0  0  2  0  0  0  0  0  0
  188.7670  177.7990  141.6820 C   0  0  0  0  0  0  0  0  0  0  0  0
  190.1840  177.9570  142.1570 C   0  0  2  0  0  3  0  0  0  0  0  0
  184.6020  179.0050  140.5200 C   0  0  2  0  0  3  0  0  0  0  0  0
  183.8370  178.5560  142.8490 C   0  0  0  0  0  2  0  0  0  0  0  0
  191.5880  176.7760  143.6030 N   0  0  0  0  0  0  0  0  0  0  0  0
  182.1550  179.0670  141.1450 C   0  0  0  0  0  2  0  0  0  0  0  0
  185.1830  179.3760  145.4560 C   0  0  0  0  0  2  0  0  0  0  0  0
  185.2670  178.2390  143.2130 C   0  0  0  0  0  0  0  0  0  0  0  0
  185.5550  178.1040  144.6840 C   0  0  1  0  0  3  0  0  0  0  0  0
  187.9580  177.6550  143.9890 C   0  0  0  0  0  0  0  0  0  0  0  0
  192.1210  176.7840  142.2520 C   0  0  0  0  0  2  0  0  0  0  0  0
  183.1570  179.4820  138.6410 O   0  0  0  0  0  0  0  0  0  0  0  0
  183.4940  178.3740  141.3760 C   0  0  1  0  0  3  0  0  0  0  0  0
  191.1140  177.2520  141.3610 O   0  0  0  0  0  0  0  0  0  0  0  0
  184.3430  178.8460  139.0220 C   0  0  0  0  0  2  0  0  0  0  0  0
  181.3780  178.5000  139.9510 C   0  0  1  0  0  3  0  0  0  0  0  0
  187.3020  177.5260  146.4100 C   0  0  0  0  0  2  0  0  0  0  0  0
  186.9340  177.7070  144.9980 N   0  0  0  0  0  0  0  0  0  0  0  0
  189.3380  177.2610  144.3730 C   0  0  0  0  0  3  0  0  0  0  0  0
  185.9150  178.2940  140.8190 C   0  0  0  0  0  2  0  0  0  0  0  0
  188.5400  177.6620  140.4500 O   0  0  0  0  0  0  0  0  0  0  0  0
  191.8870  175.7100  144.5460 C   0  0  0  0  0  1  0  0  0  0  0  0
  187.6570  177.8780  142.6860 C   0  0  0  0  0  0  0  0  0  0  0  0
  190.3420  177.4060  143.5060 C   0  0  0  0  0  0  0  0  0  0  0  0
  180.1720  179.2850  139.7320 N   0  0  0  0  0  2  0  0  0  0  0  0
  180.2030  180.6920  139.4860 C   0  0  0  0  0  0  0  0  0  0  0  0
  181.2950  181.3200  139.4710 O   0  0  0  0  0  0  0  0  0  0  0  0
  178.9310  181.4230  139.2460 C   0  0  0  0  0  1  0  0  0  0  0  0
  1 20  1  0  0  0  0
  2 27  1  0  0  0  0
  2 12  2  0  0  0  0
  3  4  1  0  0  0  0
  5  6  1  0  0  0  0
  5 27  1  0  0  0  0
  6 18  1  6  0  0  0
  6 28  1  0  0  0  0
  7 19  1  6  0  0  0
  7 24  1  0  0  0  0
  7 17  1  0  0  0  0
  8 12  1  0  0  0  0
  9 26  1  0  0  0  0
 11  3  1  0  0  0  0
 12 13  1  0  0  0  0
 13 22  1  0  0  0  0
 13 11  1  1  0  0  0
 14 23  1  0  0  0  0
 14 22  1  0  0  0  0
 15  9  1  0  0  0  0
 16  1  1  0  0  0  0
 16 19  1  0  0  0  0
 17 10  1  1  0  0  0
 17  8  1  0  0  0  0
 18 15  1  0  0  0  0
 20 29  1  6  0  0  0
 20 10  1  0  0  0  0
 21  4  1  0  0  0  0
 22 21  1  0  0  0  0
 24  2  1  0  0  0  0
 25  5  2  0  0  0  0
 27 14  2  0  0  0  0
 28  9  1  0  0  0  0
 28 23  2  0  0  0  0
 30 29  1  0  0  0  0
 31 30  2  0  0  0  0
 32 30  1  0  0  0  0
M  END
>  <MODEL>
5

>  <REMARK>
 VINA RESULT:      -8.5      2.485      4.303
  Name = 
  1 active torsions:
  status: ('A' for Active; 'I' for Inactive)
    1  A    between atoms: C_20  and  N_29
                            x       y       z     vdW  Elec       q    Type
                         _______ _______ _______ _____ _____    ______ ____

>  <TORSDO>
F 1

$$$$
=
 OpenBabel11122410443D

 32 37  0  0  1  0  0  0  0  0999 V2000
  188.4100  176.8510  147.8240 C   0  0  0  0  0  2  0  0  0  0  0  0
  186.3200  178.1030  142.9570 C   0  0  0  0  0  0  0  0  0  0  0  0
  189.0560  179.0030  139.1090 C   0  0  0  0  0  2  0  0  0  0  0  0
  188.3350  177.9160  138.3110 C   0  0  0  0  0  2  0  0  0  0  0  0
  183.8050  178.6820  142.5180 C   0  0  0  0  0  0  0  0  0  0  0  0
  182.8420  179.3560  141.5810 C   0  0  2  0  0  3  0  0  0  0  0  0
  187.2930  178.2510  145.3110 C   0  0  2  0  0  3  0  0  0  0  0  0
  188.7250  177.5570  143.3920 C   0  0  0  0  0  2  0  0  0  0  0  0
  181.8260  178.7850  139.5570 N   0  0  0  0  0  0  0  0  0  0  0  0
  189.6470  177.4010  145.6560 C   0  0  0  0  0  2  0  0  0  0  0  0
  188.9020  178.8250  140.6280 C   0  0  0  0  0  2  0  0  0  0  0  0
  187.5460  177.7940  142.4810 C   0  0  0  0  0  0  0  0  0  0  0  0
  187.8450  177.7800  141.0060 C   0  0  1  0  0  3  0  0  0  0  0  0
  185.3690  178.2530  140.6830 C   0  0  0  0  0  0  0  0  0  0  0  0
  180.8340  178.9870  140.5980 C   0  0  0  0  0  2  0  0  0  0  0  0
  187.9320  178.1530  147.6410 O   0  0  0  0  0  0  0  0  0  0  0  0
  188.3650  177.2560  144.8420 C   0  0  1  0  0  3  0  0  0  0  0  0
  181.4930  179.0450  141.8590 O   0  0  0  0  0  0  0  0  0  0  0  0
  186.8590  178.0040  146.7550 C   0  0  0  0  0  2  0  0  0  0  0  0
  189.6370  176.5830  146.9520 C   0  0  1  0  0  3  0  0  0  0  0  0
  186.8530  177.8960  138.6890 C   0  0  0  0  0  2  0  0  0  0  0  0
  186.6620  177.9240  140.1460 N   0  0  0  0  0  0  0  0  0  0  0  0
  184.2140  178.4010  139.7590 C   0  0  0  0  0  3  0  0  0  0  0  0
  186.0540  178.0800  144.4420 C   0  0  0  0  0  2  0  0  0  0  0  0
  183.4580  178.4670  143.7100 O   0  0  0  0  0  0  0  0  0  0  0  0
  181.5880  177.9080  138.4210 C   0  0  0  0  0  1  0  0  0  0  0  0
  185.1790  178.3450  142.0220 C   0  0  0  0  0  0  0  0  0  0  0  0
  183.0620  178.9070  140.2030 C   0  0  0  0  0  0  0  0  0  0  0  0
  190.8420  176.8640  147.7190 N   0  0  0  0  0  2  0  0  0  0  0  0
  191.9760  175.9930  147.7180 C   0  0  0  0  0  0  0  0  0  0  0  0
  191.9650  174.9200  147.0580 O   0  0  0  0  0  0  0  0  0  0  0  0
  193.1820  176.3590  148.5070 C   0  0  0  0  0  1  0  0  0  0  0  0
  2 24  1  0  0  0  0
  3 11  1  0  0  0  0
  4 21  1  0  0  0  0
  4  3  1  0  0  0  0
  5 25  2  0  0  0  0
  6 28  1  6  0  0  0
  6 18  1  0  0  0  0
  6  5  1  0  0  0  0
  7 24  1  6  0  0  0
  7 19  1  0  0  0  0
  9 28  1  0  0  0  0
  9 15  1  0  0  0  0
 10 20  1  0  0  0  0
 12  2  2  0  0  0  0
 12  8  1  0  0  0  0
 13 11  1  1  0  0  0
 13 12  1  0  0  0  0
 14 27  2  0  0  0  0
 15 18  1  0  0  0  0
 16  1  1  0  0  0  0
 17  8  1  6  0  0  0
 17  7  1  0  0  0  0
 17 10  1  0  0  0  0
 19 16  1  0  0  0  0
 20 29  1  1  0  0  0
 20  1  1  0  0  0  0
 21 22  1  0  0  0  0
 22 14  1  0  0  0  0
 22 13  1  0  0  0  0
 23 28  2  0  0  0  0
 23 14  1  0  0  0  0
 26  9  1  0  0  0  0
 27  5  1  0  0  0  0
 27  2  1  0  0  0  0
 30 29  1  0  0  0  0
 30 32  1  0  0  0  0
 31 30  2  0  0  0  0
M  END
>  <MODEL>
6

>  <REMARK>
 VINA RESULT:      -8.3      2.028      8.463
  Name = 
  1 active torsions:
  status: ('A' for Active; 'I' for Inactive)
    1  A    between atoms: C_20  and  N_29
                            x       y       z     vdW  Elec       q    Type
                         _______ _______ _______ _____ _____    ______ ____

>  <TORSDO>
F 1

$$$$
=
 OpenBabel11122410443D

 32 37  0  0  1  0  0  0  0  0999 V2000
  181.8740  178.7390  140.9510 C   0  0  0  0  0  2  0  0  0  0  0  0
  187.2460  177.9290  140.6180 C   0  0  0  0  0  0  0  0  0  0  0  0
  190.1830  178.3980  144.3940 C   0  0  0  0  0  2  0  0  0  0  0  0
  190.7060  176.9750  144.1950 C   0  0  0  0  0  2  0  0  0  0  0  0
  188.5770  177.6510  138.3810 C   0  0  0  0  0  0  0  0  0  0  0  0
  189.9310  177.7400  137.7340 C   0  0  2  0  0  3  0  0  0  0  0  0
  184.9320  179.0030  140.6260 C   0  0  2  0  0  3  0  0  0  0  0  0
  185.9630  178.2050  142.7500 C   0  0  0  0  0  2  0  0  0  0  0  0
  191.8120  176.3600  137.6330 N   0  0  0  0  0  0  0  0  0  0  0  0
  183.6340  178.9610  142.7930 C   0  0  0  0  0  2  0  0  0  0  0  0
  188.8180  178.6280  143.7250 C   0  0  0  0  0  2  0  0  0  0  0  0
  187.1980  177.8420  141.9660 C   0  0  0  0  0  0  0  0  0  0  0  0
  188.4130  177.4880  142.7810 C   0  0  1  0  0  3  0  0  0  0  0  0
  189.5910  177.1570  140.5540 C   0  0  0  0  0  0  0  0  0  0  0  0
  191.2520  176.5740  136.3100 C   0  0  0  0  0  2  0  0  0  0  0  0
  182.6470  179.7530  140.3740 O   0  0  0  0  0  0  0  0  0  0  0  0
  184.6750  178.2460  141.9370 C   0  0  1  0  0  3  0  0  0  0  0  0
  189.9650  177.1670  136.4440 O   0  0  0  0  0  0  0  0  0  0  0  0
  183.6900  179.0710  139.7380 C   0  0  0  0  0  2  0  0  0  0  0  0
  182.1920  178.5780  142.4380 C   0  0  1  0  0  3  0  0  0  0  0  0
  190.7960  176.6620  142.7010 C   0  0  0  0  0  2  0  0  0  0  0  0
  189.5710  177.0520  141.9890 N   0  0  0  0  0  0  0  0  0  0  0  0
  190.7990  176.7150  139.8090 C   0  0  0  0  0  3  0  0  0  0  0  0
  185.9990  178.2600  139.8340 C   0  0  0  0  0  2  0  0  0  0  0  0
  187.5440  177.7000  137.6600 O   0  0  0  0  0  0  0  0  0  0  0  0
  192.5700  175.1640  137.9690 C   0  0  0  0  0  1  0  0  0  0  0  0
  188.4940  177.5730  139.8750 C   0  0  0  0  0  0  0  0  0  0  0  0
  190.9240  176.9920  138.5110 C   0  0  0  0  0  0  0  0  0  0  0  0
  181.2640  179.3820  143.2190 N   0  0  0  0  0  2  0  0  0  0  0  0
  180.0280  178.8670  143.7180 C   0  0  0  0  0  0  0  0  0  0  0  0
  179.6800  177.6800  143.4760 O   0  0  0  0  0  0  0  0  0  0  0  0
  179.1420  179.7420  144.5290 C   0  0  0  0  0  1  0  0  0  0  0  0
  1 20  1  0  0  0  0
  2 12  2  0  0  0  0
  4  3  1  0  0  0  0
  5 27  1  0  0  0  0
  6 18  1  6  0  0  0
  6  5  1  0  0  0  0
  6 28  1  0  0  0  0
  7 19  1  6  0  0  0
  7 17  1  0  0  0  0
  9 26  1  0  0  0  0
  9 28  1  0  0  0  0
 11  3  1  0  0  0  0
 12  8  1  0  0  0  0
 12 13  1  0  0  0  0
 13 11  1  6  0  0  0
 14 22  1  0  0  0  0
 15 18  1  0  0  0  0
 15  9  1  0  0  0  0
 16  1  1  0  0  0  0
 17  8  1  1  0  0  0
 17 10  1  0  0  0  0
 19 16  1  0  0  0  0
 20 10  1  0  0  0  0
 20 29  1  1  0  0  0
 21  4  1  0  0  0  0
 22 21  1  0  0  0  0
 22 13  1  0  0  0  0
 23 14  1  0  0  0  0
 24  2  1  0  0  0  0
 24  7  1  0  0  0  0
 25  5  2  0  0  0  0
 27 14  2  0  0  0  0
 27  2  1  0  0  0  0
 28 23  2  0  0  0  0
 29 30  1  0  0  0  0
 30 32  1  0  0  0  0
 31 30  2  0  0  0  0
M  END
>  <MODEL>
7

>  <REMARK>
 VINA RESULT:      -8.0      3.172      6.152
  Name = 
  1 active torsions:
  status: ('A' for Active; 'I' for Inactive)
    1  A    between atoms: C_20  and  N_29
                            x       y       z     vdW  Elec       q    Type
                         _______ _______ _______ _____ _____    ______ ____

>  <TORSDO>
F 1

$$$$
=
 OpenBabel11122410443D

 32 37  0  0  1  0  0  0  0  0999 V2000
  188.2880  178.0550  144.1450 C   0  0  0  0  0  2  0  0  0  0  0  0
  183.4000  178.6330  141.8190 C   0  0  0  0  0  0  0  0  0  0  0  0
  179.3110  178.6810  144.3430 C   0  0  0  0  0  2  0  0  0  0  0  0
  178.9310  180.0360  143.7480 C   0  0  0  0  0  2  0  0  0  0  0  0
  182.9500  178.5070  139.2430 C   0  0  0  0  0  0  0  0  0  0  0  0
  181.9090  178.2720  138.1850 C   0  0  2  0  0  3  0  0  0  0  0  0
  185.5340  177.6470  142.8120 C   0  0  2  0  0  3  0  0  0  0  0  0
  183.8430  178.7410  144.2810 C   0  0  0  0  0  2  0  0  0  0  0  0
  180.2220  179.5590  137.2080 N   0  0  0  0  0  0  0  0  0  0  0  0
  185.9870  178.0760  145.2610 C   0  0  0  0  0  2  0  0  0  0  0  0
  180.8180  178.3900  144.2440 C   0  0  0  0  0  2  0  0  0  0  0  0
  182.9730  178.9360  143.0640 C   0  0  0  0  0  0  0  0  0  0  0  0
  181.5590  179.3770  143.3330 C   0  0  1  0  0  3  0  0  0  0  0  0
  181.2500  179.3100  140.8110 C   0  0  0  0  0  0  0  0  0  0  0  0
  181.2060  179.1540  136.2190 C   0  0  0  0  0  2  0  0  0  0  0  0
  187.7390  176.9390  143.5040 O   0  0  0  0  0  0  0  0  0  0  0  0
  185.3340  178.6120  143.9900 C   0  0  1  0  0  3  0  0  0  0  0  0
  182.3470  178.6310  136.8910 O   0  0  0  0  0  0  0  0  0  0  0  0
  187.0070  177.4760  142.4410 C   0  0  0  0  0  2  0  0  0  0  0  0
  187.4710  178.4430  145.3780 C   0  0  1  0  0  3  0  0  0  0  0  0
  179.3810  180.1040  142.2880 C   0  0  0  0  0  2  0  0  0  0  0  0
  180.7670  179.6430  142.1250 N   0  0  0  0  0  0  0  0  0  0  0  0
  180.3940  179.5890  139.6290 C   0  0  0  0  0  3  0  0  0  0  0  0
  184.8340  178.2200  141.5880 C   0  0  0  0  0  2  0  0  0  0  0  0
  184.1690  178.3760  138.9490 O   0  0  0  0  0  0  0  0  0  0  0  0
  179.4270  180.7680  137.0590 C   0  0  0  0  0  1  0  0  0  0  0  0
  182.5040  178.8250  140.6380 C   0  0  0  0  0  0  0  0  0  0  0  0
  180.7270  179.1030  138.4310 C   0  0  0  0  0  0  0  0  0  0  0  0
  188.0430  177.8030  146.5540 N   0  0  0  0  0  2  0  0  0  0  0  0
  187.7360  178.2220  147.8860 C   0  0  0  0  0  0  0  0  0  0  0  0
  186.9610  179.1940  148.0930 O   0  0  0  0  0  0  0  0  0  0  0  0
  188.3400  177.5030  149.0380 C   0  0  0  0  0  1  0  0  0  0  0  0
  1 20  1  0  0  0  0
  2 12  2  0  0  0  0
  4  3  1  0  0  0  0
  5 27  1  0  0  0  0
  6 18  1  6  0  0  0
  6 28  1  0  0  0  0
  6  5  1  0  0  0  0
  7 24  1  6  0  0  0
  7 17  1  0  0  0  0
  9 28  1  0  0  0  0
 10 20  1  0  0  0  0
 11  3  1  0  0  0  0
 12 13  1  0  0  0  0
 12  8  1  0  0  0  0
 13 11  1  6  0  0  0
 14 22  1  0  0  0  0
 15 18  1  0  0  0  0
 15  9  1  0  0  0  0
 16  1  1  0  0  0  0
 17  8  1  1  0  0  0
 17 10  1  0  0  0  0
 19  7  1  0  0  0  0
 19 16  1  0  0  0  0
 20 29  1  1  0  0  0
 21  4  1  0  0  0  0
 22 21  1  0  0  0  0
 22 13  1  0  0  0  0
 23 14  1  0  0  0  0
 24  2  1  0  0  0  0
 25  5  2  0  0  0  0
 26  9  1  0  0  0  0
 27 14  2  0  0  0  0
 27  2  1  0  0  0  0
 28 23  2  0  0  0  0
 29 30  1  0  0  0  0
 30 31  2  0  0  0  0
 30 32  1  0  0  0  0
M  END
>  <MODEL>
8

>  <REMARK>
 VINA RESULT:      -7.9      2.166      9.573
  Name = 
  1 active torsions:
  status: ('A' for Active; 'I' for Inactive)
    1  A    between atoms: C_20  and  N_29
                            x       y       z     vdW  Elec       q    Type
                         _______ _______ _______ _____ _____    ______ ____

>  <TORSDO>
F 1

$$$$
=
 OpenBabel11122410443D

 32 37  0  0  1  0  0  0  0  0999 V2000
  185.3580  178.0440  146.9680 C   0  0  0  0  0  2  0  0  0  0  0  0
  185.0320  178.4960  141.5530 C   0  0  0  0  0  0  0  0  0  0  0  0
  188.9120  178.7940  138.7330 C   0  0  0  0  0  2  0  0  0  0  0  0
  188.4420  177.5900  137.9170 C   0  0  0  0  0  2  0  0  0  0  0  0
  182.8270  178.9800  140.2270 C   0  0  0  0  0  0  0  0  0  0  0  0
  182.2550  179.4910  138.9350 C   0  0  2  0  0  3  0  0  0  0  0  0
  185.1890  179.0210  144.0450 C   0  0  2  0  0  3  0  0  0  0  0  0
  187.1350  178.0420  142.8350 C   0  0  0  0  0  2  0  0  0  0  0  0
  181.9300  178.5990  136.8000 N   0  0  0  0  0  0  0  0  0  0  0  0
  187.2600  178.2530  145.2720 C   0  0  0  0  0  2  0  0  0  0  0  0
  188.2630  178.8580  140.1260 C   0  0  0  0  0  2  0  0  0  0  0  0
  186.3300  178.1230  141.5610 C   0  0  0  0  0  0  0  0  0  0  0  0
  187.0930  177.8780  140.2870 C   0  0  1  0  0  3  0  0  0  0  0  0
  184.8830  178.2770  139.0980 C   0  0  0  0  0  0  0  0  0  0  0  0
  180.6630  178.9570  137.4130 C   0  0  0  0  0  2  0  0  0  0  0  0
  185.0260  179.2970  146.4420 O   0  0  0  0  0  0  0  0  0  0  0  0
  186.3080  177.9720  144.1130 C   0  0  1  0  0  3  0  0  0  0  0  0
  180.8760  179.2180  138.7970 O   0  0  0  0  0  0  0  0  0  0  0  0
  184.2960  179.0030  145.2860 C   0  0  0  0  0  2  0  0  0  0  0  0
  186.7900  177.6500  146.6000 C   0  0  1  0  0  3  0  0  0  0  0  0
  186.9190  177.6190  137.7840 C   0  0  0  0  0  2  0  0  0  0  0  0
  186.2640  177.8760  139.0740 N   0  0  0  0  0  0  0  0  0  0  0  0
  184.1010  178.2690  137.8350 C   0  0  0  0  0  3  0  0  0  0  0  0
  184.2950  178.7060  142.8540 C   0  0  0  0  0  2  0  0  0  0  0  0
  182.1000  178.9540  141.2570 O   0  0  0  0  0  0  0  0  0  0  0  0
  182.0360  177.5520  135.7970 C   0  0  0  0  0  1  0  0  0  0  0  0
  184.2700  178.5790  140.2690 C   0  0  0  0  0  0  0  0  0  0  0  0
  182.8910  178.8300  137.7920 C   0  0  0  0  0  0  0  0  0  0  0  0
  187.6900  178.0570  147.6690 N   0  0  0  0  0  2  0  0  0  0  0  0
  189.0520  177.6300  147.7340 C   0  0  0  0  0  0  0  0  0  0  0  0
  189.5270  176.8540  146.8620 O   0  0  0  0  0  0  0  0  0  0  0  0
  189.9190  178.1080  148.8440 C   0  0  0  0  0  1  0  0  0  0  0  0
  2 12  2  0  0  0  0
  2 24  1  0  0  0  0
  3 11  1  0  0  0  0
  4  3  1  0  0  0  0
  5 27  1  0  0  0  0
  5 25  2  0  0  0  0
  6 28  1  6  0  0  0
  6  5  1  0  0  0  0
  7 24  1  6  0  0  0
  7 17  1  0  0  0  0
  7 19  1  0  0  0  0
  9 15  1  0  0  0  0
  9 28  1  0  0  0  0
 10 20  1  0  0  0  0
 12  8  1  0  0  0  0
 13 11  1  6  0  0  0
 13 12  1  0  0  0  0
 14 27  2  0  0  0  0
 15 18  1  0  0  0  0
 16  1  1  0  0  0  0
 17  8  1  6  0  0  0
 17 10  1  0  0  0  0
 18  6  1  0  0  0  0
 19 16  1  0  0  0  0
 20  1  1  0  0  0  0
 20 29  1  1  0  0  0
 21  4  1  0  0  0  0
 21 22  1  0  0  0  0
 22 14  1  0  0  0  0
 22 13  1  0  0  0  0
 23 14  1  0  0  0  0
 26  9  1  0  0  0  0
 27  2  1  0  0  0  0
 28 23  2  0  0  0  0
 29 30  1  0  0  0  0
 30 32  1  0  0  0  0
 31 30  2  0  0  0  0
M  END
>  <MODEL>
9

>  <REMARK>
 VINA RESULT:      -7.8      1.906      8.375
  Name = 
  1 active torsions:
  status: ('A' for Active; 'I' for Inactive)
    1  A    between atoms: C_20  and  N_29
                            x       y       z     vdW  Elec       q    Type
                         _______ _______ _______ _____ _____    ______ ____

>  <TORSDO>
F 1

$$$$
