=
 OpenBabel11122412223D

 34 40  0  0  1  0  0  0  0  0999 V2000
  182.1560  179.1330  143.1150 C   0  0  1  0  0  3  0  0  0  0  0  0
  183.3160  179.0520  145.3770 C   0  0  0  0  0  2  0  0  0  0  0  0
  182.1500  176.8350  136.9050 C   0  0  0  0  0  0  0  0  0  0  0  0
  181.2600  178.7550  140.8020 C   0  0  0  0  0  0  0  0  0  0  0  0
  182.7340  178.1240  138.9710 C   0  0  0  0  0  0  0  0  0  0  0  0
  184.5240  177.5730  137.2380 C   0  0  0  0  0  1  0  0  0  0  0  0
  182.5500  175.6630  136.6760 O   0  0  0  0  0  0  0  0  0  0  0  0
  180.2960  178.4730  137.0810 C   0  0  0  0  0  2  0  0  0  0  0  0
  184.5630  179.0060  143.3650 N   0  0  2  0  0  0  0  0  0  0  0  0
  187.6210  177.9980  143.3510 C   0  0  0  0  0  2  0  0  0  0  0  0
  183.7670  178.0870  139.8620 N   0  0  0  0  0  0  0  0  0  0  0  0
  180.1560  178.4450  138.5970 C   0  0  0  0  0  2  0  0  0  0  0  0
  184.7960  178.2330  142.1310 C   0  0  1  0  0  3  0  0  0  0  0  0
  184.7680  178.9000  145.7680 C   0  0  0  0  0  2  0  0  0  0  0  0
  181.4270  178.4750  139.4310 C   0  0  0  0  0  0  0  0  0  0  0  0
  180.8030  177.1930  136.6190 N   0  0  0  0  0  2  0  0  0  0  0  0
  186.4980  177.6460  144.3200 C   0  0  2  0  0  3  0  0  0  0  0  0
  182.3590  178.7340  141.6700 C   0  0  0  0  0  0  0  0  0  0  0  0
  183.0510  177.8640  137.5130 C   0  0  1  0  0  3  0  0  0  0  0  0
  183.6270  178.3930  141.1770 C   0  0  0  0  0  0  0  0  0  0  0  0
  179.7210  179.0230  142.6260 C   0  0  0  0  0  3  0  0  0  0  0  0
  187.2210  177.7480  141.9040 C   0  0  0  0  0  2  0  0  0  0  0  0
  179.9550  179.0340  141.3450 N   0  0  0  0  0  0  0  0  0  0  0  0
  186.0950  178.6690  141.4650 C   0  0  0  0  0  2  0  0  0  0  0  0
  185.5530  178.8660  144.4530 C   0  0  1  0  0  3  0  0  0  0  0  0
  180.7960  178.6350  143.6060 C   0  0  0  0  0  2  0  0  0  0  0  0
  183.3020  178.5730  143.9500 C   0  0  2  0  0  3  0  0  0  0  0  0
  187.1490  177.2580  145.6410 C   0  0  0  0  0  2  0  0  0  0  0  0
  188.5220  177.8990  145.7520 C   0  0  0  0  0  2  0  0  0  0  0  0
  191.9620  176.7980  146.1880 N   0  0  0  0  0  2  0  0  0  0  0  0
  190.0170  177.0950  147.5690 C   0  0  0  0  0  2  0  0  0  0  0  0
  189.5560  176.8650  146.1580 C   0  0  2  0  0  3  0  0  0  0  0  0
  191.4640  176.6660  147.5530 C   0  0  0  0  0  2  0  0  0  0  0  0
  190.8060  177.0310  145.3280 C   0  0  0  0  0  2  0  0  0  0  0  0
  1 26  1  1  0  0  0
  1 27  1  0  0  0  0
  2 14  1  0  0  0  0
  3 19  1  0  0  0  0
  4 23  1  0  0  0  0
  4 18  1  0  0  0  0
  5 15  1  0  0  0  0
  5 11  2  0  0  0  0
  6 19  1  0  0  0  0
  7  3  2  0  0  0  0
  8 12  1  0  0  0  0
  9 27  1  0  0  0  0
  9 25  1  0  0  0  0
 10 17  1  0  0  0  0
 11 20  1  0  0  0  0
 12 15  1  0  0  0  0
 13  9  1  0  0  0  0
 15  4  2  0  0  0  0
 16  3  1  0  0  0  0
 16  8  1  0  0  0  0
 17 25  1  0  0  0  0
 17 28  1  0  0  0  0
 18  1  1  0  0  0  0
 19  5  1  0  0  0  0
 20 18  2  0  0  0  0
 20 13  1  0  0  0  0
 21 26  1  0  0  0  0
 22 10  1  0  0  0  0
 23 21  2  0  0  0  0
 24 22  1  0  0  0  0
 24 13  1  0  0  0  0
 25 14  1  0  0  0  0
 27  2  1  0  0  0  0
 28 29  1  0  0  0  0
 29 32  1  0  0  0  0
 30 33  1  0  0  0  0
 32 31  1  0  0  0  0
 33 31  1  0  0  0  0
 34 32  1  0  0  0  0
 34 30  1  0  0  0  0
M  END
>  <MODEL>
1

>  <REMARK>
 VINA RESULT:      -9.6      0.000      0.000
  Name = 
  3 active torsions:
  status: ('A' for Active; 'I' for Inactive)
    1  A    between atoms: C_17  and  C_28
    2  A    between atoms: C_28  and  C_29
    3  A    between atoms: C_29  and  C_32
                            x       y       z     vdW  Elec       q    Type
                         _______ _______ _______ _____ _____    ______ ____

>  <TORSDO>
F 3

$$$$
=
 OpenBabel11122412223D

 34 40  0  0  1  0  0  0  0  0999 V2000
  188.3070  178.1830  141.0550 C   0  0  1  0  0  3  0  0  0  0  0  0
  186.5990  178.3120  139.1750 C   0  0  0  0  0  2  0  0  0  0  0  0
  189.3230  176.5780  147.3980 C   0  0  0  0  0  0  0  0  0  0  0  0
  189.6470  177.7210  143.1260 C   0  0  0  0  0  0  0  0  0  0  0  0
  188.6190  177.8030  145.3310 C   0  0  0  0  0  0  0  0  0  0  0  0
  187.3030  178.0610  147.5010 C   0  0  0  0  0  1  0  0  0  0  0  0
  188.6580  175.6420  147.9160 O   0  0  0  0  0  0  0  0  0  0  0  0
  191.4690  177.4500  146.5110 C   0  0  0  0  0  2  0  0  0  0  0  0
  186.0100  178.8770  141.3970 N   0  0  2  0  0  0  0  0  0  0  0  0
  182.9220  178.9970  142.2980 C   0  0  0  0  0  2  0  0  0  0  0  0
  187.4220  178.0490  144.7250 N   0  0  0  0  0  0  0  0  0  0  0  0
  191.1660  177.2430  145.0340 C   0  0  0  0  0  2  0  0  0  0  0  0
  185.9010  178.3430  142.7680 C   0  0  1  0  0  3  0  0  0  0  0  0
  185.1230  178.6380  139.1650 C   0  0  0  0  0  2  0  0  0  0  0  0
  189.7890  177.6380  144.5250 C   0  0  0  0  0  0  0  0  0  0  0  0
  190.7380  176.4700  147.2960 N   0  0  0  0  0  2  0  0  0  0  0  0
  183.5630  178.1950  141.1730 C   0  0  2  0  0  3  0  0  0  0  0  0
  188.3990  178.0070  142.5550 C   0  0  0  0  0  0  0  0  0  0  0  0
  188.6550  177.7980  146.8450 C   0  0  1  0  0  3  0  0  0  0  0  0
  187.2790  178.1710  143.3810 C   0  0  0  0  0  0  0  0  0  0  0  0
  190.6210  177.2780  140.9760 C   0  0  0  0  0  3  0  0  0  0  0  0
  183.6090  178.7520  143.6330 C   0  0  0  0  0  2  0  0  0  0  0  0
  190.7680  177.4820  142.2540 N   0  0  0  0  0  0  0  0  0  0  0  0
  185.0410  179.2590  143.6300 C   0  0  0  0  0  2  0  0  0  0  0  0
  184.7650  178.9940  140.6110 C   0  0  1  0  0  3  0  0  0  0  0  0
  189.2520  177.2030  140.3560 C   0  0  0  0  0  2  0  0  0  0  0  0
  186.8590  177.9840  140.6210 C   0  0  2  0  0  3  0  0  0  0  0  0
  182.4830  177.9410  140.1280 C   0  0  0  0  0  2  0  0  0  0  0  0
  181.2180  178.6970  140.4970 C   0  0  0  0  0  2  0  0  0  0  0  0
  180.1310  181.8440  139.0300 N   0  0  0  0  0  2  0  0  0  0  0  0
  181.8940  180.2490  138.6750 C   0  0  0  0  0  2  0  0  0  0  0  0
  180.7430  179.5340  139.3240 C   0  0  2  0  0  3  0  0  0  0  0  0
  181.2920  181.5480  138.1990 C   0  0  0  0  0  2  0  0  0  0  0  0
  179.8450  180.6450  139.8130 C   0  0  0  0  0  2  0  0  0  0  0  0
  1 26  1  6  0  0  0
  1 18  1  0  0  0  0
  2 27  1  0  0  0  0
  3  7  2  0  0  0  0
  4 15  1  0  0  0  0
  5 19  1  0  0  0  0
  8 16  1  0  0  0  0
  9 13  1  0  0  0  0
 10 22  1  0  0  0  0
 11  5  1  0  0  0  0
 12  8  1  0  0  0  0
 13 20  1  0  0  0  0
 13 24  1  0  0  0  0
 14  2  1  0  0  0  0
 14 25  1  0  0  0  0
 15 12  1  0  0  0  0
 15  5  2  0  0  0  0
 16  3  1  0  0  0  0
 17 10  1  0  0  0  0
 18  4  2  0  0  0  0
 18 20  1  0  0  0  0
 19  3  1  0  0  0  0
 19  6  1  0  0  0  0
 20 11  2  0  0  0  0
 21 23  2  0  0  0  0
 23  4  1  0  0  0  0
 24 22  1  0  0  0  0
 25 17  1  0  0  0  0
 25  9  1  0  0  0  0
 26 21  1  0  0  0  0
 27  1  1  0  0  0  0
 27  9  1  0  0  0  0
 28 29  1  0  0  0  0
 28 17  1  0  0  0  0
 30 34  1  0  0  0  0
 31 32  1  0  0  0  0
 32 34  1  0  0  0  0
 32 29  1  0  0  0  0
 33 31  1  0  0  0  0
 33 30  1  0  0  0  0
M  END
>  <MODEL>
2

>  <REMARK>
 VINA RESULT:      -9.1      2.950      9.526
  Name = 
  3 active torsions:
  status: ('A' for Active; 'I' for Inactive)
    1  A    between atoms: C_17  and  C_28
    2  A    between atoms: C_28  and  C_29
    3  A    between atoms: C_29  and  C_32
                            x       y       z     vdW  Elec       q    Type
                         _______ _______ _______ _____ _____    ______ ____

>  <TORSDO>
F 3

$$$$
=
 OpenBabel11122412223D

 34 40  0  0  1  0  0  0  0  0999 V2000
  185.8030  178.7770  143.5470 C   0  0  1  0  0  3  0  0  0  0  0  0
  188.2290  178.2850  142.9660 C   0  0  0  0  0  2  0  0  0  0  0  0
  179.4880  177.9760  141.7250 C   0  0  0  0  0  0  0  0  0  0  0  0
  183.3070  178.8600  143.7970 C   0  0  0  0  0  0  0  0  0  0  0  0
  181.8470  178.8030  141.8490 C   0  0  0  0  0  0  0  0  0  0  0  0
  180.5810  178.8310  139.6350 C   0  0  0  0  0  1  0  0  0  0  0  0
  179.1460  176.9300  141.1140 O   0  0  0  0  0  0  0  0  0  0  0  0
  179.4850  179.3540  143.7870 C   0  0  0  0  0  2  0  0  0  0  0  0
  186.6550  178.8160  141.2790 N   0  0  2  0  0  0  0  0  0  0  0  0
  187.2560  178.1200  138.1940 C   0  0  0  0  0  2  0  0  0  0  0  0
  182.9560  178.6570  141.0670 N   0  0  0  0  0  0  0  0  0  0  0  0
  180.8720  178.9670  144.2800 C   0  0  0  0  0  2  0  0  0  0  0  0
  185.3990  178.3710  140.6460 C   0  0  1  0  0  3  0  0  0  0  0  0
  188.9550  178.1790  141.6440 C   0  0  0  0  0  2  0  0  0  0  0  0
  182.0040  178.9190  143.2660 C   0  0  0  0  0  0  0  0  0  0  0  0
  178.9310  178.2660  143.0010 N   0  0  0  0  0  2  0  0  0  0  0  0
  187.8010  177.4550  139.4520 C   0  0  2  0  0  3  0  0  0  0  0  0
  184.4150  178.7400  142.9470 C   0  0  0  0  0  0  0  0  0  0  0  0
  180.5060  178.9150  141.1570 C   0  0  1  0  0  3  0  0  0  0  0  0
  184.2200  178.6390  141.5620 C   0  0  0  0  0  0  0  0  0  0  0  0
  184.6710  178.5610  145.7510 C   0  0  0  0  0  3  0  0  0  0  0  0
  185.7360  178.1740  138.1930 C   0  0  0  0  0  2  0  0  0  0  0  0
  183.5280  178.8870  145.2200 N   0  0  0  0  0  0  0  0  0  0  0  0
  185.2040  179.0640  139.3030 C   0  0  0  0  0  2  0  0  0  0  0  0
  187.9170  178.5200  140.5700 C   0  0  1  0  0  3  0  0  0  0  0  0
  185.8050  178.0570  144.8980 C   0  0  0  0  0  2  0  0  0  0  0  0
  186.7850  178.1470  142.5660 C   0  0  2  0  0  3  0  0  0  0  0  0
  189.1440  176.8340  139.0870 C   0  0  0  0  0  2  0  0  0  0  0  0
  189.5440  177.2520  137.6830 C   0  0  0  0  0  2  0  0  0  0  0  0
  191.3130  174.0730  137.6300 N   0  0  0  0  0  2  0  0  0  0  0  0
  189.2270  174.9440  136.8130 C   0  0  0  0  0  2  0  0  0  0  0  0
  190.1890  176.0900  136.9500 C   0  0  2  0  0  3  0  0  0  0  0  0
  190.1060  173.7200  136.8900 C   0  0  0  0  0  2  0  0  0  0  0  0
  191.3230  175.5260  137.7720 C   0  0  0  0  0  2  0  0  0  0  0  0
  1 26  1  1  0  0  0
  3 16  1  0  0  0  0
  4 23  1  0  0  0  0
  5 15  2  0  0  0  0
  6 19  1  0  0  0  0
  7  3  2  0  0  0  0
  8 12  1  0  0  0  0
  9 27  1  0  0  0  0
 10 17  1  0  0  0  0
 11 20  2  0  0  0  0
 11  5  1  0  0  0  0
 13  9  1  0  0  0  0
 13 20  1  0  0  0  0
 14  2  1  0  0  0  0
 15  4  1  0  0  0  0
 15 12  1  0  0  0  0
 16  8  1  0  0  0  0
 17 25  1  0  0  0  0
 18  1  1  0  0  0  0
 18  4  2  0  0  0  0
 19  3  1  0  0  0  0
 19  5  1  0  0  0  0
 20 18  1  0  0  0  0
 22 10  1  0  0  0  0
 22 24  1  0  0  0  0
 23 21  2  0  0  0  0
 24 13  1  0  0  0  0
 25  9  1  0  0  0  0
 25 14  1  0  0  0  0
 26 21  1  0  0  0  0
 27  2  1  0  0  0  0
 27  1  1  0  0  0  0
 28 17  1  0  0  0  0
 29 28  1  0  0  0  0
 30 34  1  0  0  0  0
 31 33  1  0  0  0  0
 31 32  1  0  0  0  0
 32 29  1  0  0  0  0
 32 34  1  0  0  0  0
 33 30  1  0  0  0  0
M  END
>  <MODEL>
3

>  <REMARK>
 VINA RESULT:      -9.0      3.242      5.826
  Name = 
  3 active torsions:
  status: ('A' for Active; 'I' for Inactive)
    1  A    between atoms: C_17  and  C_28
    2  A    between atoms: C_28  and  C_29
    3  A    between atoms: C_29  and  C_32
                            x       y       z     vdW  Elec       q    Type
                         _______ _______ _______ _____ _____    ______ ____

>  <TORSDO>
F 3

$$$$
=
 OpenBabel11122412223D

 34 40  0  0  1  0  0  0  0  0999 V2000
  184.0510  178.2630  144.1430 C   0  0  1  0  0  3  0  0  0  0  0  0
  181.8860  179.0380  143.0570 C   0  0  0  0  0  2  0  0  0  0  0  0
  190.6600  178.2580  143.7330 C   0  0  0  0  0  0  0  0  0  0  0  0
  186.4050  177.8800  144.9240 C   0  0  0  0  0  0  0  0  0  0  0  0
  188.2460  177.7270  143.3370 C   0  0  0  0  0  0  0  0  0  0  0  0
  189.9460  177.5090  141.4480 C   0  0  0  0  0  1  0  0  0  0  0  0
  191.2510  179.2450  143.2220 O   0  0  0  0  0  0  0  0  0  0  0  0
  190.0500  176.9230  145.7320 C   0  0  0  0  0  2  0  0  0  0  0  0
  183.7090  178.2920  141.7440 N   0  0  2  0  0  0  0  0  0  0  0  0
  183.8770  179.0060  138.6090 C   0  0  0  0  0  2  0  0  0  0  0  0
  187.3580  177.9950  142.3360 N   0  0  0  0  0  0  0  0  0  0  0  0
  188.6470  177.4850  145.9200 C   0  0  0  0  0  2  0  0  0  0  0  0
  185.1170  178.5700  141.4010 C   0  0  1  0  0  3  0  0  0  0  0  0
  181.4800  179.2100  141.6110 C   0  0  0  0  0  2  0  0  0  0  0  0
  187.7750  177.6540  144.6860 C   0  0  0  0  0  0  0  0  0  0  0  0
  190.8890  177.9230  145.0970 N   0  0  0  0  0  2  0  0  0  0  0  0
  183.1590  179.7530  139.7270 C   0  0  2  0  0  3  0  0  0  0  0  0
  185.5300  178.1200  143.8560 C   0  0  0  0  0  0  0  0  0  0  0  0
  189.6810  177.4410  142.9500 C   0  0  1  0  0  3  0  0  0  0  0  0
  186.0290  178.1750  142.5470 C   0  0  0  0  0  0  0  0  0  0  0  0
  184.7000  178.3750  146.5400 C   0  0  0  0  0  3  0  0  0  0  0  0
  185.3430  178.7670  138.9350 C   0  0  0  0  0  2  0  0  0  0  0  0
  185.8820  177.9030  146.2650 N   0  0  0  0  0  0  0  0  0  0  0  0
  185.5090  177.8360  140.1250 C   0  0  0  0  0  2  0  0  0  0  0  0
  182.6750  178.7280  140.7830 C   0  0  1  0  0  3  0  0  0  0  0  0
  183.8470  178.9990  145.4680 C   0  0  0  0  0  2  0  0  0  0  0  0
  183.3880  178.9930  142.9790 C   0  0  2  0  0  3  0  0  0  0  0  0
  182.0130  180.5270  139.0880 C   0  0  0  0  0  2  0  0  0  0  0  0
  181.4950  179.7770  137.8730 C   0  0  0  0  0  2  0  0  0  0  0  0
  180.6510  182.8700  136.1520 N   0  0  0  0  0  2  0  0  0  0  0  0
  180.8040  180.5350  135.6060 C   0  0  0  0  0  2  0  0  0  0  0  0
  180.5400  180.6520  137.0810 C   0  0  2  0  0  3  0  0  0  0  0  0
  180.4830  181.9080  135.0690 C   0  0  0  0  0  2  0  0  0  0  0  0
  180.7980  182.1080  137.3880 C   0  0  0  0  0  2  0  0  0  0  0  0
  1 26  1  1  0  0  0
  3 16  1  0  0  0  0
  4 23  1  0  0  0  0
  5 15  2  0  0  0  0
  6 19  1  0  0  0  0
  7  3  2  0  0  0  0
  8 12  1  0  0  0  0
  9 27  1  0  0  0  0
 10 22  1  0  0  0  0
 10 17  1  0  0  0  0
 11 20  2  0  0  0  0
 11  5  1  0  0  0  0
 13  9  1  0  0  0  0
 13 20  1  0  0  0  0
 14  2  1  0  0  0  0
 15  4  1  0  0  0  0
 15 12  1  0  0  0  0
 16  8  1  0  0  0  0
 17 25  1  0  0  0  0
 18  1  1  0  0  0  0
 18  4  2  0  0  0  0
 19  5  1  0  0  0  0
 19  3  1  0  0  0  0
 20 18  1  0  0  0  0
 22 24  1  0  0  0  0
 23 21  2  0  0  0  0
 24 13  1  0  0  0  0
 25 14  1  0  0  0  0
 25  9  1  0  0  0  0
 26 21  1  0  0  0  0
 27  2  1  0  0  0  0
 27  1  1  0  0  0  0
 28 17  1  0  0  0  0
 29 28  1  0  0  0  0
 30 34  1  0  0  0  0
 31 32  1  0  0  0  0
 32 34  1  0  0  0  0
 32 29  1  0  0  0  0
 33 31  1  0  0  0  0
 33 30  1  0  0  0  0
M  END
>  <MODEL>
4

>  <REMARK>
 VINA RESULT:      -8.9      2.883      8.903
  Name = 
  3 active torsions:
  status: ('A' for Active; 'I' for Inactive)
    1  A    between atoms: C_17  and  C_28
    2  A    between atoms: C_28  and  C_29
    3  A    between atoms: C_29  and  C_32
                            x       y       z     vdW  Elec       q    Type
                         _______ _______ _______ _____ _____    ______ ____

>  <TORSDO>
F 3

$$$$
=
 OpenBabel11122412223D

 34 40  0  0  1  0  0  0  0  0999 V2000
  188.3320  178.1540  140.9510 C   0  0  1  0  0  3  0  0  0  0  0  0
  186.6690  178.2530  139.0310 C   0  0  0  0  0  2  0  0  0  0  0  0
  189.2010  176.6650  147.3450 C   0  0  0  0  0  0  0  0  0  0  0  0
  189.6240  177.7280  143.0610 C   0  0  0  0  0  0  0  0  0  0  0  0
  188.5470  177.8530  145.2400 C   0  0  0  0  0  0  0  0  0  0  0  0
  187.1830  178.1540  147.3750 C   0  0  0  0  0  1  0  0  0  0  0  0
  188.5220  175.7400  147.8640 O   0  0  0  0  0  0  0  0  0  0  0  0
  191.3680  177.5150  146.4900 C   0  0  0  0  0  2  0  0  0  0  0  0
  186.0310  178.8600  141.2280 N   0  0  2  0  0  0  0  0  0  0  0  0
  182.9230  179.0030  142.0570 C   0  0  0  0  0  2  0  0  0  0  0  0
  187.3640  178.0900  144.6030 N   0  0  0  0  0  0  0  0  0  0  0  0
  191.0990  177.2820  145.0110 C   0  0  0  0  0  2  0  0  0  0  0  0
  185.8890  178.3520  142.6060 C   0  0  1  0  0  3  0  0  0  0  0  0
  185.1940  178.5820  138.9810 C   0  0  0  0  0  2  0  0  0  0  0  0
  189.7340  177.6700  144.4640 C   0  0  0  0  0  0  0  0  0  0  0  0
  190.6170  176.5520  147.2760 N   0  0  0  0  0  2  0  0  0  0  0  0
  183.5880  178.1790  140.9610 C   0  0  2  0  0  3  0  0  0  0  0  0
  188.3910  178.0060  142.4560 C   0  0  0  0  0  0  0  0  0  0  0  0
  188.5490  177.8760  146.7540 C   0  0  1  0  0  3  0  0  0  0  0  0
  187.2520  178.1880  143.2530 C   0  0  0  0  0  0  0  0  0  0  0  0
  190.6460  177.2440  140.9420 C   0  0  0  0  0  3  0  0  0  0  0  0
  183.5790  178.7810  143.4120 C   0  0  0  0  0  2  0  0  0  0  0  0
  190.7640  177.4710  142.2190 N   0  0  0  0  0  0  0  0  0  0  0  0
  185.0120  179.2860  143.4310 C   0  0  0  0  0  2  0  0  0  0  0  0
  184.8040  178.9650  140.4120 C   0  0  1  0  0  3  0  0  0  0  0  0
  189.2900  177.1600  140.2930 C   0  0  0  0  0  2  0  0  0  0  0  0
  186.8940  177.9510  140.4880 C   0  0  2  0  0  3  0  0  0  0  0  0
  182.5310  177.9090  139.8970 C   0  0  0  0  0  2  0  0  0  0  0  0
  182.2600  176.4170  139.8030 C   0  0  0  0  0  2  0  0  0  0  0  0
  182.9740  176.9540  136.2750 N   0  0  0  0  0  2  0  0  0  0  0  0
  183.5620  175.3530  137.9690 C   0  0  0  0  0  2  0  0  0  0  0  0
  182.2480  175.9750  138.3510 C   0  0  2  0  0  3  0  0  0  0  0  0
  183.7370  175.7350  136.5200 C   0  0  0  0  0  2  0  0  0  0  0  0
  182.1300  177.1770  137.4450 C   0  0  0  0  0  2  0  0  0  0  0  0
  1 26  1  6  0  0  0
  1 18  1  0  0  0  0
  2 27  1  0  0  0  0
  3  7  2  0  0  0  0
  4 15  1  0  0  0  0
  5 19  1  0  0  0  0
  8 16  1  0  0  0  0
  9 13  1  0  0  0  0
 10 22  1  0  0  0  0
 11  5  1  0  0  0  0
 12  8  1  0  0  0  0
 13 20  1  0  0  0  0
 13 24  1  0  0  0  0
 14  2  1  0  0  0  0
 14 25  1  0  0  0  0
 15 12  1  0  0  0  0
 15  5  2  0  0  0  0
 16  3  1  0  0  0  0
 17 10  1  0  0  0  0
 18  4  2  0  0  0  0
 18 20  1  0  0  0  0
 19  3  1  0  0  0  0
 19  6  1  0  0  0  0
 20 11  2  0  0  0  0
 21 23  2  0  0  0  0
 22 24  1  0  0  0  0
 23  4  1  0  0  0  0
 25 17  1  0  0  0  0
 25  9  1  0  0  0  0
 26 21  1  0  0  0  0
 27  1  1  0  0  0  0
 27  9  1  0  0  0  0
 28 17  1  0  0  0  0
 29 28  1  0  0  0  0
 30 33  1  0  0  0  0
 30 34  1  0  0  0  0
 31 32  1  0  0  0  0
 32 29  1  0  0  0  0
 33 31  1  0  0  0  0
 34 32  1  0  0  0  0
M  END
>  <MODEL>
5

>  <REMARK>
 VINA RESULT:      -8.8      2.920      9.295
  Name = 
  3 active torsions:
  status: ('A' for Active; 'I' for Inactive)
    1  A    between atoms: C_17  and  C_28
    2  A    between atoms: C_28  and  C_29
    3  A    between atoms: C_29  and  C_32
                            x       y       z     vdW  Elec       q    Type
                         _______ _______ _______ _____ _____    ______ ____

>  <TORSDO>
F 3

$$$$
=
 OpenBabel11122412223D

 34 40  0  0  1  0  0  0  0  0999 V2000
  188.4630  178.1310  140.9600 C   0  0  1  0  0  3  0  0  0  0  0  0
  186.8030  178.2520  139.0380 C   0  0  0  0  0  2  0  0  0  0  0  0
  189.3130  176.5910  147.3440 C   0  0  0  0  0  0  0  0  0  0  0  0
  189.7490  177.6830  143.0680 C   0  0  0  0  0  0  0  0  0  0  0  0
  188.6690  177.7980  145.2470 C   0  0  0  0  0  0  0  0  0  0  0  0
  187.3030  178.0920  147.3810 C   0  0  0  0  0  1  0  0  0  0  0  0
  188.6280  175.6670  147.8560 O   0  0  0  0  0  0  0  0  0  0  0  0
  191.4870  177.4360  146.4990 C   0  0  0  0  0  2  0  0  0  0  0  0
  186.1650  178.8480  141.2380 N   0  0  2  0  0  0  0  0  0  0  0  0
  183.0570  179.0020  142.0630 C   0  0  0  0  0  2  0  0  0  0  0  0
  187.4890  178.0460  144.6090 N   0  0  0  0  0  0  0  0  0  0  0  0
  191.2180  177.2140  145.0170 C   0  0  0  0  0  2  0  0  0  0  0  0
  186.0190  178.3300  142.6120 C   0  0  1  0  0  3  0  0  0  0  0  0
  185.3300  178.5900  138.9880 C   0  0  0  0  0  2  0  0  0  0  0  0
  189.8560  177.6140  144.4710 C   0  0  0  0  0  0  0  0  0  0  0  0
  190.7290  176.4710  147.2770 N   0  0  0  0  0  2  0  0  0  0  0  0
  183.7190  178.1820  140.9620 C   0  0  2  0  0  3  0  0  0  0  0  0
  188.5180  177.9720  142.4630 C   0  0  0  0  0  0  0  0  0  0  0  0
  188.6690  177.8100  146.7600 C   0  0  1  0  0  3  0  0  0  0  0  0
  187.3790  178.1550  143.2600 C   0  0  0  0  0  0  0  0  0  0  0  0
  190.7720  177.2070  140.9470 C   0  0  0  0  0  3  0  0  0  0  0  0
  183.7100  178.7670  143.4170 C   0  0  0  0  0  2  0  0  0  0  0  0
  190.8890  177.4250  142.2260 N   0  0  0  0  0  0  0  0  0  0  0  0
  185.1450  179.2630  143.4420 C   0  0  0  0  0  2  0  0  0  0  0  0
  184.9400  178.9650  140.4210 C   0  0  1  0  0  3  0  0  0  0  0  0
  189.4170  177.1360  140.2950 C   0  0  0  0  0  2  0  0  0  0  0  0
  187.0250  177.9390  140.4930 C   0  0  2  0  0  3  0  0  0  0  0  0
  182.6620  177.9250  139.8950 C   0  0  0  0  0  2  0  0  0  0  0  0
  181.3290  178.5050  140.3350 C   0  0  0  0  0  2  0  0  0  0  0  0
  180.0820  175.1270  139.8130 N   0  0  0  0  0  2  0  0  0  0  0  0
  179.6820  176.9370  141.3430 C   0  0  0  0  0  2  0  0  0  0  0  0
  180.2090  177.5180  140.0620 C   0  0  2  0  0  3  0  0  0  0  0  0
  179.2880  175.5290  140.9690 C   0  0  0  0  0  2  0  0  0  0  0  0
  180.7440  176.3250  139.3060 C   0  0  0  0  0  2  0  0  0  0  0  0
  1 26  1  6  0  0  0
  1 18  1  0  0  0  0
  2 27  1  0  0  0  0
  3  7  2  0  0  0  0
  4 15  1  0  0  0  0
  5 19  1  0  0  0  0
  8 16  1  0  0  0  0
  9 13  1  0  0  0  0
 10 22  1  0  0  0  0
 11  5  1  0  0  0  0
 12  8  1  0  0  0  0
 13 20  1  0  0  0  0
 13 24  1  0  0  0  0
 14  2  1  0  0  0  0
 14 25  1  0  0  0  0
 15 12  1  0  0  0  0
 15  5  2  0  0  0  0
 16  3  1  0  0  0  0
 17 10  1  0  0  0  0
 18  4  2  0  0  0  0
 18 20  1  0  0  0  0
 19  3  1  0  0  0  0
 19  6  1  0  0  0  0
 20 11  2  0  0  0  0
 21 23  2  0  0  0  0
 22 24  1  0  0  0  0
 23  4  1  0  0  0  0
 25 17  1  0  0  0  0
 25  9  1  0  0  0  0
 26 21  1  0  0  0  0
 27  1  1  0  0  0  0
 27  9  1  0  0  0  0
 28 29  1  0  0  0  0
 28 17  1  0  0  0  0
 30 33  1  0  0  0  0
 32 29  1  0  0  0  0
 32 31  1  0  0  0  0
 33 31  1  0  0  0  0
 34 30  1  0  0  0  0
 34 32  1  0  0  0  0
M  END
>  <MODEL>
6

>  <REMARK>
 VINA RESULT:      -8.8      2.995      9.405
  Name = 
  3 active torsions:
  status: ('A' for Active; 'I' for Inactive)
    1  A    between atoms: C_17  and  C_28
    2  A    between atoms: C_28  and  C_29
    3  A    between atoms: C_29  and  C_32
                            x       y       z     vdW  Elec       q    Type
                         _______ _______ _______ _____ _____    ______ ____

>  <TORSDO>
F 3

$$$$
=
 OpenBabel11122412223D

 34 40  0  0  1  0  0  0  0  0999 V2000
  185.6950  178.3370  142.8060 C   0  0  1  0  0  3  0  0  0  0  0  0
  185.5500  178.8010  140.3100 C   0  0  0  0  0  2  0  0  0  0  0  0
  189.7180  177.9110  148.0490 C   0  0  0  0  0  0  0  0  0  0  0  0
  186.2990  178.1330  145.2330 C   0  0  0  0  0  0  0  0  0  0  0  0
  188.5110  177.3840  145.9190 C   0  0  0  0  0  0  0  0  0  0  0  0
  190.8600  176.4790  146.3350 C   0  0  0  0  0  1  0  0  0  0  0  0
  190.7380  178.6470  148.1090 O   0  0  0  0  0  0  0  0  0  0  0  0
  187.4340  177.3420  148.8300 C   0  0  0  0  0  2  0  0  0  0  0  0
  187.3660  177.5840  141.2190 N   0  0  2  0  0  0  0  0  0  0  0  0
  190.0940  177.2110  139.5510 C   0  0  0  0  0  2  0  0  0  0  0  0
  188.8670  177.3430  144.6030 N   0  0  0  0  0  0  0  0  0  0  0  0
  186.6700  177.9940  147.6870 C   0  0  0  0  0  2  0  0  0  0  0  0
  188.5020  177.6720  142.1550 C   0  0  1  0  0  3  0  0  0  0  0  0
  186.4910  178.5020  139.1650 C   0  0  0  0  0  2  0  0  0  0  0  0
  187.1840  177.7820  146.2710 C   0  0  0  0  0  0  0  0  0  0  0  0
  188.6930  178.0370  149.0280 N   0  0  0  0  0  2  0  0  0  0  0  0
  189.0500  178.3160  139.4500 C   0  0  2  0  0  3  0  0  0  0  0  0
  186.7040  178.0440  143.8950 C   0  0  0  0  0  0  0  0  0  0  0  0
  189.5310  176.9240  146.9390 C   0  0  1  0  0  3  0  0  0  0  0  0
  188.0120  177.6400  143.5910 C   0  0  0  0  0  0  0  0  0  0  0  0
  184.2400  179.2090  144.6230 C   0  0  0  0  0  3  0  0  0  0  0  0
  190.5930  177.0300  140.9770 C   0  0  0  0  0  2  0  0  0  0  0  0
  184.9750  178.6220  145.5240 N   0  0  0  0  0  0  0  0  0  0  0  0
  189.4910  176.5400  141.9010 C   0  0  0  0  0  2  0  0  0  0  0  0
  187.6580  177.7210  139.7780 C   0  0  1  0  0  3  0  0  0  0  0  0
  184.7750  179.4790  143.2420 C   0  0  0  0  0  2  0  0  0  0  0  0
  186.4390  178.6670  141.5160 C   0  0  2  0  0  3  0  0  0  0  0  0
  189.1300  178.8840  138.0380 C   0  0  0  0  0  2  0  0  0  0  0  0
  189.7560  177.8620  137.1040 C   0  0  0  0  0  2  0  0  0  0  0  0
  186.6680  176.2390  136.0670 N   0  0  0  0  0  2  0  0  0  0  0  0
  187.6390  178.4340  135.9300 C   0  0  0  0  0  2  0  0  0  0  0  0
  188.7570  177.4370  136.0430 C   0  0  2  0  0  3  0  0  0  0  0  0
  186.4360  177.5930  135.5770 C   0  0  0  0  0  2  0  0  0  0  0  0
  188.0710  176.1580  136.4620 C   0  0  0  0  0  2  0  0  0  0  0  0
  1 26  1  1  0  0  0
  1 18  1  0  0  0  0
  2 27  1  0  0  0  0
  3  7  2  0  0  0  0
  3 16  1  0  0  0  0
  4 23  1  0  0  0  0
  4 15  1  0  0  0  0
  5 15  2  0  0  0  0
  5 19  1  0  0  0  0
  6 19  1  0  0  0  0
  8 16  1  0  0  0  0
  9 27  1  0  0  0  0
  9 13  1  0  0  0  0
 10 22  1  0  0  0  0
 11  5  1  0  0  0  0
 12  8  1  0  0  0  0
 13 20  1  0  0  0  0
 14 25  1  0  0  0  0
 14  2  1  0  0  0  0
 15 12  1  0  0  0  0
 17 10  1  0  0  0  0
 17 25  1  0  0  0  0
 18  4  2  0  0  0  0
 19  3  1  0  0  0  0
 20 18  1  0  0  0  0
 20 11  2  0  0  0  0
 21 23  2  0  0  0  0
 22 24  1  0  0  0  0
 24 13  1  0  0  0  0
 25  9  1  0  0  0  0
 26 21  1  0  0  0  0
 27  1  1  0  0  0  0
 28 17  1  0  0  0  0
 29 28  1  0  0  0  0
 30 34  1  0  0  0  0
 31 32  1  0  0  0  0
 32 34  1  0  0  0  0
 32 29  1  0  0  0  0
 33 31  1  0  0  0  0
 33 30  1  0  0  0  0
M  END
>  <MODEL>
7

>  <REMARK>
 VINA RESULT:      -8.6      4.022      8.721
  Name = 
  3 active torsions:
  status: ('A' for Active; 'I' for Inactive)
    1  A    between atoms: C_17  and  C_28
    2  A    between atoms: C_28  and  C_29
    3  A    between atoms: C_29  and  C_32
                            x       y       z     vdW  Elec       q    Type
                         _______ _______ _______ _____ _____    ______ ____

>  <TORSDO>
F 3

$$$$
=
 OpenBabel11122412223D

 34 40  0  0  1  0  0  0  0  0999 V2000
  188.5960  177.7760  143.1150 C   0  0  1  0  0  3  0  0  0  0  0  0
  190.9390  176.9530  142.5690 C   0  0  0  0  0  2  0  0  0  0  0  0
  182.3490  178.2640  140.9740 C   0  0  0  0  0  0  0  0  0  0  0  0
  186.1360  178.2500  143.2790 C   0  0  0  0  0  0  0  0  0  0  0  0
  184.8010  178.6620  141.2860 C   0  0  0  0  0  0  0  0  0  0  0  0
  183.6840  179.1560  139.0470 C   0  0  0  0  0  1  0  0  0  0  0  0
  181.8770  177.3670  140.2270 O   0  0  0  0  0  0  0  0  0  0  0  0
  182.4530  179.3780  143.1870 C   0  0  0  0  0  2  0  0  0  0  0  0
  189.5710  177.9300  140.9020 N   0  0  2  0  0  0  0  0  0  0  0  0
  190.2260  177.5000  137.7790 C   0  0  0  0  0  2  0  0  0  0  0  0
  185.9130  178.4220  140.5340 N   0  0  0  0  0  0  0  0  0  0  0  0
  183.7270  178.7080  143.6810 C   0  0  0  0  0  2  0  0  0  0  0  0
  188.2980  177.7780  140.1730 C   0  0  1  0  0  3  0  0  0  0  0  0
  191.7120  176.8780  141.2720 C   0  0  0  0  0  2  0  0  0  0  0  0
  184.8920  178.5870  142.7120 C   0  0  0  0  0  0  0  0  0  0  0  0
  181.7740  178.4960  142.2540 N   0  0  0  0  0  2  0  0  0  0  0  0
  190.5830  176.6140  138.9660 C   0  0  2  0  0  3  0  0  0  0  0  0
  187.2570  178.0430  142.4630 C   0  0  0  0  0  0  0  0  0  0  0  0
  183.5370  179.0770  140.5640 C   0  0  1  0  0  3  0  0  0  0  0  0
  187.1270  178.1350  141.0700 C   0  0  0  0  0  0  0  0  0  0  0  0
  187.3200  177.5030  145.2320 C   0  0  0  0  0  3  0  0  0  0  0  0
  188.7370  177.8100  137.7280 C   0  0  0  0  0  2  0  0  0  0  0  0
  186.2770  178.0760  144.7030 N   0  0  0  0  0  0  0  0  0  0  0  0
  188.2950  178.6440  138.9190 C   0  0  0  0  0  2  0  0  0  0  0  0
  190.8060  177.5090  140.2100 C   0  0  1  0  0  3  0  0  0  0  0  0
  188.4030  176.9170  144.3670 C   0  0  0  0  0  2  0  0  0  0  0  0
  189.5160  177.1060  142.1010 C   0  0  2  0  0  3  0  0  0  0  0  0
  191.8250  175.8210  138.5790 C   0  0  0  0  0  2  0  0  0  0  0  0
  191.5880  175.0950  137.2660 C   0  0  0  0  0  2  0  0  0  0  0  0
  195.0660  175.8090  136.4680 N   0  0  0  0  0  2  0  0  0  0  0  0
  193.8350  174.0780  137.5940 C   0  0  0  0  0  2  0  0  0  0  0  0
  192.9120  174.7430  136.6120 C   0  0  2  0  0  3  0  0  0  0  0  0
  195.2080  174.5380  137.1710 C   0  0  0  0  0  2  0  0  0  0  0  0
  193.6420  176.0040  136.2130 C   0  0  0  0  0  2  0  0  0  0  0  0
  1 26  1  1  0  0  0
  3 16  1  0  0  0  0
  4 23  1  0  0  0  0
  5 15  2  0  0  0  0
  6 19  1  0  0  0  0
  7  3  2  0  0  0  0
  8 12  1  0  0  0  0
  9 27  1  0  0  0  0
 10 17  1  0  0  0  0
 11 20  2  0  0  0  0
 11  5  1  0  0  0  0
 13  9  1  0  0  0  0
 13 20  1  0  0  0  0
 14  2  1  0  0  0  0
 15  4  1  0  0  0  0
 15 12  1  0  0  0  0
 16  8  1  0  0  0  0
 17 25  1  0  0  0  0
 18  1  1  0  0  0  0
 18  4  2  0  0  0  0
 19  3  1  0  0  0  0
 19  5  1  0  0  0  0
 20 18  1  0  0  0  0
 22 10  1  0  0  0  0
 22 24  1  0  0  0  0
 23 21  2  0  0  0  0
 24 13  1  0  0  0  0
 25  9  1  0  0  0  0
 25 14  1  0  0  0  0
 26 21  1  0  0  0  0
 27  2  1  0  0  0  0
 27  1  1  0  0  0  0
 28 17  1  0  0  0  0
 29 28  1  0  0  0  0
 30 33  1  0  0  0  0
 32 29  1  0  0  0  0
 32 31  1  0  0  0  0
 33 31  1  0  0  0  0
 34 30  1  0  0  0  0
 34 32  1  0  0  0  0
M  END
>  <MODEL>
8

>  <REMARK>
 VINA RESULT:      -8.5      4.554      6.887
  Name = 
  3 active torsions:
  status: ('A' for Active; 'I' for Inactive)
    1  A    between atoms: C_17  and  C_28
    2  A    between atoms: C_28  and  C_29
    3  A    between atoms: C_29  and  C_32
                            x       y       z     vdW  Elec       q    Type
                         _______ _______ _______ _____ _____    ______ ____

>  <TORSDO>
F 3

$$$$
=
 OpenBabel11122412223D

 34 40  0  0  1  0  0  0  0  0999 V2000
  181.8020  178.9280  142.0550 C   0  0  1  0  0  3  0  0  0  0  0  0
  182.5720  179.0120  144.4770 C   0  0  0  0  0  2  0  0  0  0  0  0
  183.0220  176.4780  136.0260 C   0  0  0  0  0  0  0  0  0  0  0  0
  181.3370  178.4100  139.6430 C   0  0  0  0  0  0  0  0  0  0  0  0
  183.1440  177.8680  138.1050 C   0  0  0  0  0  0  0  0  0  0  0  0
  185.2370  177.4360  136.7110 C   0  0  0  0  0  1  0  0  0  0  0  0
  183.5530  175.3410  135.9130 O   0  0  0  0  0  0  0  0  0  0  0  0
  181.0330  177.9450  135.8300 C   0  0  0  0  0  2  0  0  0  0  0  0
  184.1360  179.0270  142.7000 N   0  0  2  0  0  0  0  0  0  0  0  0
  187.2280  178.2990  143.2250 C   0  0  0  0  0  2  0  0  0  0  0  0
  184.0130  177.9470  139.1530 N   0  0  0  0  0  0  0  0  0  0  0  0
  180.6460  177.9440  137.3020 C   0  0  0  0  0  2  0  0  0  0  0  0
  184.6350  178.2450  141.5520 C   0  0  1  0  0  3  0  0  0  0  0  0
  183.9470  179.0020  145.1060 C   0  0  0  0  0  2  0  0  0  0  0  0
  181.7530  178.1110  138.3320 C   0  0  0  0  0  0  0  0  0  0  0  0
  181.7160  176.7050  135.5100 N   0  0  0  0  0  2  0  0  0  0  0  0
  185.9940  177.8730  144.0110 C   0  0  2  0  0  3  0  0  0  0  0  0
  182.2760  178.5110  140.6800 C   0  0  0  0  0  0  0  0  0  0  0  0
  183.7190  177.6000  136.7310 C   0  0  1  0  0  3  0  0  0  0  0  0
  183.6320  178.2740  140.4140 C   0  0  0  0  0  0  0  0  0  0  0  0
  179.5000  178.5850  141.1800 C   0  0  0  0  0  3  0  0  0  0  0  0
  187.0970  177.9770  141.7440 C   0  0  0  0  0  2  0  0  0  0  0  0
  179.9420  178.5840  139.9550 N   0  0  0  0  0  0  0  0  0  0  0  0
  185.9850  178.7800  141.0900 C   0  0  0  0  0  2  0  0  0  0  0  0
  184.9390  179.0050  143.9390 C   0  0  1  0  0  3  0  0  0  0  0  0
  180.4260  178.3220  142.3380 C   0  0  0  0  0  2  0  0  0  0  0  0
  182.8370  178.4960  143.0880 C   0  0  2  0  0  3  0  0  0  0  0  0
  186.4470  177.5790  145.4360 C   0  0  0  0  0  2  0  0  0  0  0  0
  187.9600  177.4530  145.4830 C   0  0  0  0  0  2  0  0  0  0  0  0
  190.3590  177.6870  148.2090 N   0  0  0  0  0  2  0  0  0  0  0  0
  188.0500  178.2430  147.8400 C   0  0  0  0  0  2  0  0  0  0  0  0
  188.4190  177.1350  146.8940 C   0  0  2  0  0  3  0  0  0  0  0  0
  189.1750  178.2520  148.8460 C   0  0  0  0  0  2  0  0  0  0  0  0
  189.9280  177.0890  146.9490 C   0  0  0  0  0  2  0  0  0  0  0  0
  1 26  1  1  0  0  0
  1 27  1  0  0  0  0
  2 14  1  0  0  0  0
  3 19  1  0  0  0  0
  4 23  1  0  0  0  0
  4 18  1  0  0  0  0
  5 15  1  0  0  0  0
  5 11  2  0  0  0  0
  6 19  1  0  0  0  0
  7  3  2  0  0  0  0
  8 12  1  0  0  0  0
  9 27  1  0  0  0  0
  9 25  1  0  0  0  0
 10 17  1  0  0  0  0
 11 20  1  0  0  0  0
 12 15  1  0  0  0  0
 13  9  1  0  0  0  0
 15  4  2  0  0  0  0
 16  8  1  0  0  0  0
 16  3  1  0  0  0  0
 17 28  1  0  0  0  0
 18  1  1  0  0  0  0
 19  5  1  0  0  0  0
 20 18  2  0  0  0  0
 20 13  1  0  0  0  0
 21 26  1  0  0  0  0
 22 10  1  0  0  0  0
 23 21  2  0  0  0  0
 24 13  1  0  0  0  0
 24 22  1  0  0  0  0
 25 17  1  0  0  0  0
 25 14  1  0  0  0  0
 27  2  1  0  0  0  0
 28 29  1  0  0  0  0
 29 32  1  0  0  0  0
 30 33  1  0  0  0  0
 31 33  1  0  0  0  0
 32 34  1  0  0  0  0
 32 31  1  0  0  0  0
 34 30  1  0  0  0  0
M  END
>  <MODEL>
9

>  <REMARK>
 VINA RESULT:      -8.5      1.144      1.334
  Name = 
  3 active torsions:
  status: ('A' for Active; 'I' for Inactive)
    1  A    between atoms: C_17  and  C_28
    2  A    between atoms: C_28  and  C_29
    3  A    between atoms: C_29  and  C_32
                            x       y       z     vdW  Elec       q    Type
                         _______ _______ _______ _____ _____    ______ ____

>  <TORSDO>
F 3

$$$$
