=
 OpenBabel11122412253D

 34 40  0  0  1  0  0  0  0  0999 V2000
  182.1600  179.0130  143.4230 C   0  0  1  0  0  3  0  0  0  0  0  0
  183.7020  179.3700  145.2960 O   0  0  0  0  0  0  0  0  0  0  0  0
  180.5900  175.5460  137.8710 C   0  0  0  0  0  0  0  0  0  0  0  0
  180.7720  178.5130  141.3980 C   0  0  2  0  0  3  0  0  0  0  0  0
  181.7930  176.8700  139.6650 C   0  0  1  0  0  3  0  0  0  0  0  0
  183.0780  175.6070  137.8260 C   0  0  0  0  0  1  0  0  0  0  0  0
  180.6600  174.2890  137.8120 O   0  0  0  0  0  0  0  0  0  0  0  0
  179.1530  177.5260  137.9920 C   0  0  0  0  0  2  0  0  0  0  0  0
  184.5800  179.2150  143.1540 C   0  0  2  0  0  3  0  0  0  0  0  0
  187.3290  177.8240  142.8110 C   0  0  0  0  0  3  0  0  0  0  0  0
  183.2120  177.3640  140.0490 C   0  0  0  0  0  2  0  0  0  0  0  0
  179.2910  177.6930  139.4930 C   0  0  0  0  0  2  0  0  0  0  0  0
  184.6290  178.3090  141.9140 C   0  0  1  0  0  3  0  0  0  0  0  0
  185.1050  179.3680  145.4580 C   0  0  0  0  0  2  0  0  0  0  0  0
  180.7330  177.9830  139.9360 C   0  0  1  0  0  3  0  0  0  0  0  0
  179.3610  176.1640  137.6600 O   0  0  0  0  0  0  0  0  0  0  0  0
  186.6760  178.0480  143.9610 C   0  0  0  0  0  0  0  0  0  0  0  0
  182.0830  178.2030  142.1180 C   0  0  1  0  0  3  0  0  0  0  0  0
  181.8060  176.3710  138.1990 C   0  0  1  0  0  3  0  0  0  0  0  0
  183.2780  178.4030  141.1740 C   0  0  2  0  0  3  0  0  0  0  0  0
  179.6660  178.7920  143.6340 C   0  0  0  0  0  2  0  0  0  0  0  0
  187.1780  178.7350  141.6260 C   0  0  0  0  0  2  0  0  0  0  0  0
  179.6190  178.0460  142.2980 C   0  0  0  0  0  2  0  0  0  0  0  0
  185.7900  178.6630  140.9690 C   0  0  0  0  0  2  0  0  0  0  0  0
  185.7700  179.2560  144.0840 C   0  0  1  0  0  3  0  0  0  0  0  0
  181.0110  178.5770  144.3340 C   0  0  0  0  0  2  0  0  0  0  0  0
  183.5040  178.7260  144.0710 C   0  0  2  0  0  3  0  0  0  0  0  0
  186.8270  177.1470  145.0650 N   0  0  0  0  0  2  0  0  0  0  0  0
  187.6950  177.4110  146.2040 C   0  0  0  0  0  2  0  0  0  0  0  0
  191.1430  177.4310  145.5850 C   0  0  0  0  0  2  0  0  0  0  0  0
  189.7000  176.5750  147.1890 O   0  0  0  0  0  0  0  0  0  0  0  0
  189.0630  176.8020  145.9610 C   0  0  0  0  0  3  0  0  0  0  0  0
  191.0540  176.7210  146.9040 C   0  0  0  0  0  2  0  0  0  0  0  0
  189.8350  177.6610  145.1660 O   0  0  0  0  0  0  0  0  0  0  0  0
  1 27  1  0  0  0  0
  1 26  1  1  0  0  0
  2 14  1  0  0  0  0
  3 19  1  0  0  0  0
  4 18  1  0  0  0  0
  4 23  1  1  0  0  0
  5 15  1  0  0  0  0
  5 11  1  6  0  0  0
  6 19  1  0  0  0  0
  7  3  2  0  0  0  0
  8 12  1  0  0  0  0
  9 27  1  0  0  0  0
  9 25  1  0  0  0  0
 10 17  2  0  0  0  0
 11 20  1  0  0  0  0
 12 15  1  0  0  0  0
 13  9  1  0  0  0  0
 15  4  1  0  0  0  0
 16  3  1  0  0  0  0
 16  8  1  0  0  0  0
 17 25  1  0  0  0  0
 17 28  1  0  0  0  0
 18  1  1  0  0  0  0
 19  5  1  0  0  0  0
 20 13  1  0  0  0  0
 20 18  1  0  0  0  0
 21 26  1  0  0  0  0
 22 10  1  0  0  0  0
 23 21  1  0  0  0  0
 24 22  1  0  0  0  0
 24 13  1  0  0  0  0
 25 14  1  0  0  0  0
 27  2  1  0  0  0  0
 28 29  1  0  0  0  0
 30 33  1  0  0  0  0
 32 29  1  0  0  0  0
 32 31  1  0  0  0  0
 33 31  1  0  0  0  0
 34 30  1  0  0  0  0
 34 32  1  0  0  0  0
M  END
>  <MODEL>
1

>  <REMARK>
 VINA RESULT:      -8.8      0.000      0.000
  Name = 
  3 active torsions:
  status: ('A' for Active; 'I' for Inactive)
    1  A    between atoms: C_17  and  N_28
    2  A    between atoms: N_28  and  C_29
    3  A    between atoms: C_29  and  C_32
                            x       y       z     vdW  Elec       q    Type
                         _______ _______ _______ _____ _____    ______ ____

>  <TORSDO>
F 3

$$$$
=
 OpenBabel11122412253D

 34 40  0  0  1  0  0  0  0  0999 V2000
  188.3420  177.7380  142.7310 C   0  0  1  0  0  3  0  0  0  0  0  0
  190.5930  176.9740  142.1280 O   0  0  0  0  0  0  0  0  0  0  0  0
  181.8040  178.1080  141.1700 C   0  0  0  0  0  0  0  0  0  0  0  0
  185.9760  178.4780  143.1010 C   0  0  2  0  0  3  0  0  0  0  0  0
  184.3360  178.1680  141.1120 C   0  0  1  0  0  3  0  0  0  0  0  0
  182.9320  178.2370  138.9550 C   0  0  0  0  0  1  0  0  0  0  0  0
  181.1520  177.1210  140.7350 O   0  0  0  0  0  0  0  0  0  0  0  0
  182.2490  179.6190  143.0470 C   0  0  0  0  0  2  0  0  0  0  0  0
  189.3460  178.1100  140.5350 C   0  0  2  0  0  3  0  0  0  0  0  0
  189.6350  177.2360  137.5750 C   0  0  0  0  0  3  0  0  0  0  0  0
  185.5120  178.3780  140.1230 C   0  0  0  0  0  2  0  0  0  0  0  0
  183.4940  178.8850  143.5080 C   0  0  0  0  0  2  0  0  0  0  0  0
  188.0010  178.0940  139.7930 C   0  0  1  0  0  3  0  0  0  0  0  0
  191.3470  176.9080  140.9360 C   0  0  0  0  0  2  0  0  0  0  0  0
  184.6210  178.8940  142.4640 C   0  0  1  0  0  3  0  0  0  0  0  0
  181.4070  178.7070  142.3620 O   0  0  0  0  0  0  0  0  0  0  0  0
  190.2930  176.7370  138.6310 C   0  0  0  0  0  0  0  0  0  0  0  0
  186.9400  177.8350  142.1050 C   0  0  1  0  0  3  0  0  0  0  0  0
  183.0160  178.6140  140.4350 C   0  0  1  0  0  3  0  0  0  0  0  0
  186.8950  178.5720  140.7580 C   0  0  2  0  0  3  0  0  0  0  0  0
  187.2510  177.3820  144.9660 C   0  0  0  0  0  2  0  0  0  0  0  0
  189.1650  178.6630  137.5390 C   0  0  0  0  0  2  0  0  0  0  0  0
  185.8730  177.5510  144.3200 C   0  0  0  0  0  2  0  0  0  0  0  0
  188.0180  178.9570  138.5190 C   0  0  0  0  0  2  0  0  0  0  0  0
  190.5880  177.6290  139.8200 C   0  0  1  0  0  3  0  0  0  0  0  0
  188.2630  176.8300  143.9590 C   0  0  0  0  0  2  0  0  0  0  0  0
  189.2790  177.1570  141.6850 C   0  0  2  0  0  3  0  0  0  0  0  0
  190.7090  175.3660  138.6410 N   0  0  0  0  0  2  0  0  0  0  0  0
  191.6450  174.8030  137.6770 C   0  0  0  0  0  2  0  0  0  0  0  0
  188.8740  173.1580  136.3060 C   0  0  0  0  0  2  0  0  0  0  0  0
  190.6430  174.4520  135.5420 O   0  0  0  0  0  0  0  0  0  0  0  0
  190.9230  173.8290  136.7660 C   0  0  0  0  0  3  0  0  0  0  0  0
  189.4670  173.8460  135.1120 C   0  0  0  0  0  2  0  0  0  0  0  0
  189.7360  173.3960  137.3730 O   0  0  0  0  0  0  0  0  0  0  0  0
  1 26  1  1  0  0  0
  3 16  1  0  0  0  0
  4 23  1  1  0  0  0
  5 11  1  6  0  0  0
  5 15  1  0  0  0  0
  6 19  1  0  0  0  0
  7  3  2  0  0  0  0
  8 12  1  0  0  0  0
  9 27  1  0  0  0  0
 10 17  2  0  0  0  0
 11 20  1  0  0  0  0
 13  9  1  0  0  0  0
 13 20  1  0  0  0  0
 14  2  1  0  0  0  0
 15  4  1  0  0  0  0
 15 12  1  0  0  0  0
 16  8  1  0  0  0  0
 17 28  1  0  0  0  0
 17 25  1  0  0  0  0
 18  1  1  0  0  0  0
 18  4  1  0  0  0  0
 19  5  1  0  0  0  0
 19  3  1  0  0  0  0
 20 18  1  0  0  0  0
 22 10  1  0  0  0  0
 22 24  1  0  0  0  0
 23 21  1  0  0  0  0
 24 13  1  0  0  0  0
 25  9  1  0  0  0  0
 25 14  1  0  0  0  0
 26 21  1  0  0  0  0
 27  2  1  0  0  0  0
 27  1  1  0  0  0  0
 29 28  1  0  0  0  0
 30 34  1  0  0  0  0
 31 32  1  0  0  0  0
 32 34  1  0  0  0  0
 32 29  1  0  0  0  0
 33 31  1  0  0  0  0
 33 30  1  0  0  0  0
M  END
>  <MODEL>
2

>  <REMARK>
 VINA RESULT:      -8.5      4.318      6.794
  Name = 
  3 active torsions:
  status: ('A' for Active; 'I' for Inactive)
    1  A    between atoms: C_17  and  N_28
    2  A    between atoms: N_28  and  C_29
    3  A    between atoms: C_29  and  C_32
                            x       y       z     vdW  Elec       q    Type
                         _______ _______ _______ _____ _____    ______ ____

>  <TORSDO>
F 3

$$$$
=
 OpenBabel11122412253D

 34 40  0  0  1  0  0  0  0  0999 V2000
  188.4210  177.6650  142.5900 C   0  0  1  0  0  3  0  0  0  0  0  0
  190.6320  176.8530  141.9040 O   0  0  0  0  0  0  0  0  0  0  0  0
  181.8480  178.2140  141.2490 C   0  0  0  0  0  0  0  0  0  0  0  0
  186.0880  178.4570  143.0470 C   0  0  2  0  0  3  0  0  0  0  0  0
  184.3770  178.2140  141.1090 C   0  0  1  0  0  3  0  0  0  0  0  0
  182.9060  178.3440  139.0000 C   0  0  0  0  0  1  0  0  0  0  0  0
  181.1570  177.2490  140.8250 O   0  0  0  0  0  0  0  0  0  0  0  0
  182.3910  179.6900  143.1280 C   0  0  0  0  0  2  0  0  0  0  0  0
  189.3630  178.0400  140.3660 C   0  0  2  0  0  3  0  0  0  0  0  0
  189.5330  177.1970  137.3880 C   0  0  0  0  0  3  0  0  0  0  0  0
  185.5260  178.4070  140.0850 C   0  0  0  0  0  2  0  0  0  0  0  0
  183.6320  178.9200  143.5400 C   0  0  0  0  0  2  0  0  0  0  0  0
  187.9940  178.0660  139.6690 C   0  0  1  0  0  3  0  0  0  0  0  0
  191.3450  176.7840  140.6870 C   0  0  0  0  0  2  0  0  0  0  0  0
  184.7240  178.9150  142.4590 C   0  0  1  0  0  3  0  0  0  0  0  0
  181.5050  178.8070  142.4610 O   0  0  0  0  0  0  0  0  0  0  0  0
  190.2130  176.6680  138.4160 C   0  0  0  0  0  0  0  0  0  0  0  0
  187.0030  177.8030  142.0120 C   0  0  1  0  0  3  0  0  0  0  0  0
  183.0480  178.7000  140.4810 C   0  0  1  0  0  3  0  0  0  0  0  0
  186.9320  178.5580  140.6750 C   0  0  2  0  0  3  0  0  0  0  0  0
  187.3950  177.3070  144.8550 C   0  0  0  0  0  2  0  0  0  0  0  0
  189.0980  178.6350  137.3850 C   0  0  0  0  0  2  0  0  0  0  0  0
  186.0020  177.5170  144.2570 C   0  0  0  0  0  2  0  0  0  0  0  0
  187.9910  178.9440  138.4050 C   0  0  0  0  0  2  0  0  0  0  0  0
  190.5680  177.5380  139.6050 C   0  0  1  0  0  3  0  0  0  0  0  0
  188.3610  176.7430  143.8090 C   0  0  0  0  0  2  0  0  0  0  0  0
  189.3090  177.0740  141.5070 C   0  0  2  0  0  3  0  0  0  0  0  0
  190.5940  175.2870  138.3960 N   0  0  0  0  0  2  0  0  0  0  0  0
  190.7420  174.5120  137.1720 C   0  0  0  0  0  2  0  0  0  0  0  0
  193.7900  175.9620  136.2330 C   0  0  0  0  0  2  0  0  0  0  0  0
  193.0280  174.4820  137.8510 O   0  0  0  0  0  0  0  0  0  0  0  0
  192.1930  174.5240  136.7260 C   0  0  0  0  0  3  0  0  0  0  0  0
  194.1650  175.1810  137.4570 C   0  0  0  0  0  2  0  0  0  0  0  0
  192.4530  175.6770  135.9710 O   0  0  0  0  0  0  0  0  0  0  0  0
  1 26  1  1  0  0  0
  3 16  1  0  0  0  0
  4 23  1  1  0  0  0
  5 11  1  6  0  0  0
  5 15  1  0  0  0  0
  6 19  1  0  0  0  0
  7  3  2  0  0  0  0
  8 12  1  0  0  0  0
  9 27  1  0  0  0  0
 10 17  2  0  0  0  0
 11 20  1  0  0  0  0
 13  9  1  0  0  0  0
 13 20  1  0  0  0  0
 14  2  1  0  0  0  0
 15  4  1  0  0  0  0
 15 12  1  0  0  0  0
 16  8  1  0  0  0  0
 17 25  1  0  0  0  0
 18  1  1  0  0  0  0
 18  4  1  0  0  0  0
 19  5  1  0  0  0  0
 19  3  1  0  0  0  0
 20 18  1  0  0  0  0
 22 10  1  0  0  0  0
 22 24  1  0  0  0  0
 23 21  1  0  0  0  0
 24 13  1  0  0  0  0
 25  9  1  0  0  0  0
 25 14  1  0  0  0  0
 26 21  1  0  0  0  0
 27  2  1  0  0  0  0
 27  1  1  0  0  0  0
 28 17  1  0  0  0  0
 29 28  1  0  0  0  0
 30 33  1  0  0  0  0
 32 29  1  0  0  0  0
 32 31  1  0  0  0  0
 33 31  1  0  0  0  0
 34 30  1  0  0  0  0
 34 32  1  0  0  0  0
M  END
>  <MODEL>
3

>  <REMARK>
 VINA RESULT:      -8.4      4.549      6.711
  Name = 
  3 active torsions:
  status: ('A' for Active; 'I' for Inactive)
    1  A    between atoms: C_17  and  N_28
    2  A    between atoms: N_28  and  C_29
    3  A    between atoms: C_29  and  C_32
                            x       y       z     vdW  Elec       q    Type
                         _______ _______ _______ _____ _____    ______ ____

>  <TORSDO>
F 3

$$$$
=
 OpenBabel11122412253D

 34 40  0  0  1  0  0  0  0  0999 V2000
  183.0850  178.6320  143.4430 C   0  0  1  0  0  3  0  0  0  0  0  0
  180.9570  179.4270  142.5190 O   0  0  0  0  0  0  0  0  0  0  0  0
  189.7890  178.3020  142.9350 C   0  0  0  0  0  0  0  0  0  0  0  0
  185.3630  177.8710  144.1580 C   0  0  2  0  0  3  0  0  0  0  0  0
  187.2990  178.2520  142.4700 C   0  0  1  0  0  3  0  0  0  0  0  0
  189.0310  178.2640  140.5650 C   0  0  0  0  0  1  0  0  0  0  0  0
  190.4990  179.3030  142.6500 O   0  0  0  0  0  0  0  0  0  0  0  0
  189.0540  176.7200  144.6550 C   0  0  0  0  0  2  0  0  0  0  0  0
  182.4460  178.3510  141.1020 C   0  0  2  0  0  3  0  0  0  0  0  0
  182.6320  179.3420  138.1700 C   0  0  0  0  0  3  0  0  0  0  0  0
  186.2970  178.0860  141.2990 C   0  0  0  0  0  2  0  0  0  0  0  0
  187.7490  177.4390  144.9400 C   0  0  0  0  0  2  0  0  0  0  0  0
  183.8930  178.3910  140.5860 C   0  0  1  0  0  3  0  0  0  0  0  0
  180.4030  179.5430  141.2250 C   0  0  0  0  0  2  0  0  0  0  0  0
  186.8040  177.4750  143.7300 C   0  0  1  0  0  3  0  0  0  0  0  0
  189.9920  177.6550  144.1510 O   0  0  0  0  0  0  0  0  0  0  0  0
  181.8120  179.8020  139.1260 C   0  0  0  0  0  0  0  0  0  0  0  0
  184.5690  178.5560  143.0470 C   0  0  1  0  0  3  0  0  0  0  0  0
  188.7110  177.8290  141.9970 C   0  0  1  0  0  3  0  0  0  0  0  0
  184.8310  177.8720  141.6960 C   0  0  2  0  0  3  0  0  0  0  0  0
  183.8030  178.8960  145.8360 C   0  0  0  0  0  2  0  0  0  0  0  0
  183.1060  177.9160  138.1540 C   0  0  0  0  0  2  0  0  0  0  0  0
  185.2670  178.7480  145.4130 C   0  0  0  0  0  2  0  0  0  0  0  0
  184.0820  177.5800  139.2930 C   0  0  0  0  0  2  0  0  0  0  0  0
  181.3330  178.8640  140.2170 C   0  0  1  0  0  3  0  0  0  0  0  0
  182.9630  179.4910  144.7030 C   0  0  0  0  0  2  0  0  0  0  0  0
  182.3260  179.2580  142.2850 C   0  0  2  0  0  3  0  0  0  0  0  0
  181.3960  181.1720  139.1240 N   0  0  0  0  0  2  0  0  0  0  0  0
  182.0970  182.2240  138.4000 C   0  0  0  0  0  2  0  0  0  0  0  0
  181.0730  184.6520  136.0930 C   0  0  0  0  0  2  0  0  0  0  0  0
  180.7050  182.3920  136.4710 O   0  0  0  0  0  0  0  0  0  0  0  0
  181.1020  183.0720  137.6300 C   0  0  0  0  0  3  0  0  0  0  0  0
  180.4340  183.4050  135.5570 C   0  0  0  0  0  2  0  0  0  0  0  0
  181.6820  184.3040  137.2950 O   0  0  0  0  0  0  0  0  0  0  0  0
  1 26  1  1  0  0  0
  3 16  1  0  0  0  0
  4 23  1  1  0  0  0
  5 11  1  6  0  0  0
  5 15  1  0  0  0  0
  6 19  1  0  0  0  0
  7  3  2  0  0  0  0
  8 12  1  0  0  0  0
  9 27  1  0  0  0  0
 10 17  2  0  0  0  0
 11 20  1  0  0  0  0
 13  9  1  0  0  0  0
 13 20  1  0  0  0  0
 14  2  1  0  0  0  0
 15  4  1  0  0  0  0
 15 12  1  0  0  0  0
 16  8  1  0  0  0  0
 17 25  1  0  0  0  0
 18  1  1  0  0  0  0
 18  4  1  0  0  0  0
 19  5  1  0  0  0  0
 19  3  1  0  0  0  0
 20 18  1  0  0  0  0
 22 10  1  0  0  0  0
 22 24  1  0  0  0  0
 23 21  1  0  0  0  0
 24 13  1  0  0  0  0
 25  9  1  0  0  0  0
 25 14  1  0  0  0  0
 26 21  1  0  0  0  0
 27  2  1  0  0  0  0
 27  1  1  0  0  0  0
 28 17  1  0  0  0  0
 29 28  1  0  0  0  0
 30 34  1  0  0  0  0
 31 32  1  0  0  0  0
 32 29  1  0  0  0  0
 33 30  1  0  0  0  0
 33 31  1  0  0  0  0
 34 32  1  0  0  0  0
M  END
>  <MODEL>
4

>  <REMARK>
 VINA RESULT:      -8.3      3.526      8.628
  Name = 
  3 active torsions:
  status: ('A' for Active; 'I' for Inactive)
    1  A    between atoms: C_17  and  N_28
    2  A    between atoms: N_28  and  C_29
    3  A    between atoms: C_29  and  C_32
                            x       y       z     vdW  Elec       q    Type
                         _______ _______ _______ _____ _____    ______ ____

>  <TORSDO>
F 3

$$$$
=
 OpenBabel11122412253D

 34 40  0  0  1  0  0  0  0  0999 V2000
  186.4670  178.5020  142.3860 C   0  0  1  0  0  3  0  0  0  0  0  0
  188.7510  178.0190  141.6370 O   0  0  0  0  0  0  0  0  0  0  0  0
  179.8550  177.4700  141.6520 C   0  0  0  0  0  0  0  0  0  0  0  0
  184.0520  178.8970  142.9270 C   0  0  2  0  0  3  0  0  0  0  0  0
  182.3130  177.9370  141.2540 C   0  0  1  0  0  3  0  0  0  0  0  0
  180.7180  177.3490  139.3200 C   0  0  0  0  0  1  0  0  0  0  0  0
  179.3600  176.3230  141.4850 O   0  0  0  0  0  0  0  0  0  0  0  0
  180.1900  179.3710  143.1610 C   0  0  0  0  0  2  0  0  0  0  0  0
  187.1650  178.5990  140.0460 C   0  0  2  0  0  3  0  0  0  0  0  0
  187.3230  177.2240  137.2730 C   0  0  0  0  0  3  0  0  0  0  0  0
  183.3280  178.1420  140.0990 C   0  0  0  0  0  2  0  0  0  0  0  0
  181.5890  178.9590  143.5770 C   0  0  0  0  0  2  0  0  0  0  0  0
  185.7810  178.2150  139.5010 C   0  0  1  0  0  3  0  0  0  0  0  0
  189.3850  177.8470  140.3870 C   0  0  0  0  0  2  0  0  0  0  0  0
  182.5870  178.9500  142.4090 C   0  0  1  0  0  3  0  0  0  0  0  0
  179.4710  178.2160  142.7620 O   0  0  0  0  0  0  0  0  0  0  0  0
  188.1630  177.0560  138.3050 C   0  0  0  0  0  0  0  0  0  0  0  0
  185.0180  178.2400  141.9410 C   0  0  1  0  0  3  0  0  0  0  0  0
  180.8740  178.0170  140.6880 C   0  0  1  0  0  3  0  0  0  0  0  0
  184.7040  178.6820  140.5030 C   0  0  2  0  0  3  0  0  0  0  0  0
  185.6840  178.4140  144.7720 C   0  0  0  0  0  2  0  0  0  0  0  0
  186.5930  178.5180  137.0500 C   0  0  0  0  0  2  0  0  0  0  0  0
  184.2440  178.2220  144.2920 C   0  0  0  0  0  2  0  0  0  0  0  0
  185.5120  178.8030  138.1050 C   0  0  0  0  0  2  0  0  0  0  0  0
  188.3990  178.2000  139.2700 C   0  0  1  0  0  3  0  0  0  0  0  0
  186.6800  177.8510  143.7530 C   0  0  0  0  0  2  0  0  0  0  0  0
  187.3900  177.8910  141.3450 C   0  0  2  0  0  3  0  0  0  0  0  0
  188.8270  175.8020  138.5000 N   0  0  0  0  0  2  0  0  0  0  0  0
  189.8200  175.2670  137.5780 C   0  0  0  0  0  2  0  0  0  0  0  0
  193.3060  174.9490  137.6980 C   0  0  0  0  0  2  0  0  0  0  0  0
  191.7490  176.6680  137.6050 O   0  0  0  0  0  0  0  0  0  0  0  0
  191.2130  175.4870  138.1360 C   0  0  0  0  0  3  0  0  0  0  0  0
  193.1190  176.4320  137.5610 C   0  0  0  0  0  2  0  0  0  0  0  0
  192.0350  174.3960  137.8180 O   0  0  0  0  0  0  0  0  0  0  0  0
  1 26  1  1  0  0  0
  3 16  1  0  0  0  0
  4 23  1  1  0  0  0
  5 11  1  6  0  0  0
  5 15  1  0  0  0  0
  6 19  1  0  0  0  0
  7  3  2  0  0  0  0
  8 12  1  0  0  0  0
  9 27  1  0  0  0  0
 10 17  2  0  0  0  0
 11 20  1  0  0  0  0
 13  9  1  0  0  0  0
 13 20  1  0  0  0  0
 14  2  1  0  0  0  0
 15  4  1  0  0  0  0
 15 12  1  0  0  0  0
 16  8  1  0  0  0  0
 17 28  1  0  0  0  0
 17 25  1  0  0  0  0
 18  1  1  0  0  0  0
 18  4  1  0  0  0  0
 19  5  1  0  0  0  0
 19  3  1  0  0  0  0
 20 18  1  0  0  0  0
 22 10  1  0  0  0  0
 22 24  1  0  0  0  0
 23 21  1  0  0  0  0
 24 13  1  0  0  0  0
 25  9  1  0  0  0  0
 25 14  1  0  0  0  0
 26 21  1  0  0  0  0
 27  2  1  0  0  0  0
 27  1  1  0  0  0  0
 29 32  1  0  0  0  0
 29 28  1  0  0  0  0
 30 34  1  0  0  0  0
 31 32  1  0  0  0  0
 33 31  1  0  0  0  0
 33 30  1  0  0  0  0
 34 32  1  0  0  0  0
M  END
>  <MODEL>
5

>  <REMARK>
 VINA RESULT:      -8.2      3.917      5.663
  Name = 
  3 active torsions:
  status: ('A' for Active; 'I' for Inactive)
    1  A    between atoms: C_17  and  N_28
    2  A    between atoms: N_28  and  C_29
    3  A    between atoms: C_29  and  C_32
                            x       y       z     vdW  Elec       q    Type
                         _______ _______ _______ _____ _____    ______ ____

>  <TORSDO>
F 3

$$$$
=
 OpenBabel11122412253D

 34 40  0  0  1  0  0  0  0  0999 V2000
  188.6490  177.3900  138.5210 C   0  0  1  0  0  3  0  0  0  0  0  0
  187.4810  176.8630  136.4300 O   0  0  0  0  0  0  0  0  0  0  0  0
  188.5630  177.5650  145.2490 C   0  0  0  0  0  0  0  0  0  0  0  0
  189.6140  177.9180  140.7720 C   0  0  2  0  0  3  0  0  0  0  0  0
  187.9870  177.7930  142.7930 C   0  0  1  0  0  3  0  0  0  0  0  0
  186.2070  178.0780  144.6310 C   0  0  0  0  0  1  0  0  0  0  0  0
  188.1290  176.6100  145.9490 O   0  0  0  0  0  0  0  0  0  0  0  0
  190.5130  178.8180  144.4570 C   0  0  0  0  0  2  0  0  0  0  0  0
  186.3750  178.1330  138.0260 C   0  0  2  0  0  3  0  0  0  0  0  0
  183.3220  177.7090  138.3560 C   0  0  0  0  0  3  0  0  0  0  0  0
  186.8190  178.2150  141.8640 C   0  0  0  0  0  2  0  0  0  0  0  0
  190.5870  178.1070  143.1190 C   0  0  0  0  0  2  0  0  0  0  0  0
  185.9370  178.1380  139.4990 C   0  0  1  0  0  3  0  0  0  0  0  0
  186.1610  177.0150  135.9490 C   0  0  0  0  0  2  0  0  0  0  0  0
  189.3450  178.3350  142.2460 C   0  0  1  0  0  3  0  0  0  0  0  0
  189.8890  177.9620  145.3980 O   0  0  0  0  0  0  0  0  0  0  0  0
  184.1280  177.1070  137.4700 C   0  0  0  0  0  0  0  0  0  0  0  0
  188.3520  177.4860  140.0270 C   0  0  1  0  0  3  0  0  0  0  0  0
  187.6770  178.2460  144.2400 C   0  0  1  0  0  3  0  0  0  0  0  0
  187.1720  178.4020  140.3850 C   0  0  2  0  0  3  0  0  0  0  0  0
  190.9820  176.6510  139.0920 C   0  0  0  0  0  2  0  0  0  0  0  0
  183.6030  179.0930  138.8670 C   0  0  0  0  0  2  0  0  0  0  0  0
  190.6710  176.8230  140.5800 C   0  0  0  0  0  2  0  0  0  0  0  0
  184.8340  179.1720  139.7840 C   0  0  0  0  0  2  0  0  0  0  0  0
  185.3510  177.8380  136.9540 C   0  0  1  0  0  3  0  0  0  0  0  0
  189.7130  176.3130  138.3030 C   0  0  0  0  0  2  0  0  0  0  0  0
  187.3550  177.0230  137.8140 C   0  0  2  0  0  3  0  0  0  0  0  0
  183.8420  175.7780  137.0190 N   0  0  0  0  0  2  0  0  0  0  0  0
  183.9930  174.5950  137.8560 C   0  0  0  0  0  2  0  0  0  0  0  0
  185.9830  173.3290  135.2670 C   0  0  0  0  0  2  0  0  0  0  0  0
  186.1910  173.7240  137.5450 O   0  0  0  0  0  0  0  0  0  0  0  0
  184.8560  173.5690  137.1470 C   0  0  0  0  0  3  0  0  0  0  0  0
  186.9270  173.3260  136.4330 C   0  0  0  0  0  2  0  0  0  0  0  0
  184.7430  173.7250  135.7580 O   0  0  0  0  0  0  0  0  0  0  0  0
  1 26  1  1  0  0  0
  1 18  1  0  0  0  0
  2 27  1  0  0  0  0
  3 16  1  0  0  0  0
  3  7  2  0  0  0  0
  4 23  1  1  0  0  0
  4 15  1  0  0  0  0
  5 11  1  6  0  0  0
  5 19  1  0  0  0  0
  8 16  1  0  0  0  0
  9 13  1  0  0  0  0
 10 22  1  0  0  0  0
 12  8  1  0  0  0  0
 13 24  1  0  0  0  0
 13 20  1  0  0  0  0
 14  2  1  0  0  0  0
 14 25  1  0  0  0  0
 15  5  1  0  0  0  0
 15 12  1  0  0  0  0
 17 10  2  0  0  0  0
 18 20  1  0  0  0  0
 18  4  1  0  0  0  0
 19  6  1  0  0  0  0
 19  3  1  0  0  0  0
 20 11  1  0  0  0  0
 21 23  1  0  0  0  0
 22 24  1  0  0  0  0
 25 17  1  0  0  0  0
 25  9  1  0  0  0  0
 26 21  1  0  0  0  0
 27  9  1  0  0  0  0
 27  1  1  0  0  0  0
 28 17  1  0  0  0  0
 28 29  1  0  0  0  0
 30 34  1  0  0  0  0
 30 33  1  0  0  0  0
 32 31  1  0  0  0  0
 32 29  1  0  0  0  0
 33 31  1  0  0  0  0
 34 32  1  0  0  0  0
M  END
>  <MODEL>
6

>  <REMARK>
 VINA RESULT:      -8.1      3.549      9.205
  Name = 
  3 active torsions:
  status: ('A' for Active; 'I' for Inactive)
    1  A    between atoms: C_17  and  N_28
    2  A    between atoms: N_28  and  C_29
    3  A    between atoms: C_29  and  C_32
                            x       y       z     vdW  Elec       q    Type
                         _______ _______ _______ _____ _____    ______ ____

>  <TORSDO>
F 3

$$$$
=
 OpenBabel11122412253D

 34 40  0  0  1  0  0  0  0  0999 V2000
  187.4580  178.2840  141.5710 C   0  0  1  0  0  3  0  0  0  0  0  0
  189.8320  177.6790  141.4490 O   0  0  0  0  0  0  0  0  0  0  0  0
  181.2310  177.5880  139.1120 C   0  0  0  0  0  0  0  0  0  0  0  0
  185.0100  178.8070  141.4590 C   0  0  2  0  0  3  0  0  0  0  0  0
  183.7270  177.9260  139.3800 C   0  0  1  0  0  3  0  0  0  0  0  0
  182.6710  177.4070  137.0900 C   0  0  0  0  0  1  0  0  0  0  0  0
  180.7390  176.4670  138.8130 O   0  0  0  0  0  0  0  0  0  0  0  0
  181.2530  179.4800  140.6690 C   0  0  0  0  0  2  0  0  0  0  0  0
  188.7540  178.3290  139.5000 C   0  0  2  0  0  3  0  0  0  0  0  0
  189.5670  176.9280  136.8570 C   0  0  0  0  0  3  0  0  0  0  0  0
  185.0200  178.0700  138.5350 C   0  0  0  0  0  2  0  0  0  0  0  0
  182.4700  178.9990  141.4370 C   0  0  0  0  0  2  0  0  0  0  0  0
  187.5440  178.0130  138.6060 C   0  0  1  0  0  3  0  0  0  0  0  0
  190.7630  177.4670  140.4090 C   0  0  0  0  0  2  0  0  0  0  0  0
  183.7380  178.9320  140.5730 C   0  0  1  0  0  3  0  0  0  0  0  0
  180.6060  178.3610  140.0870 O   0  0  0  0  0  0  0  0  0  0  0  0
  190.0950  176.7250  138.0730 C   0  0  0  0  0  0  0  0  0  0  0  0
  186.1670  178.0950  140.7590 C   0  0  1  0  0  3  0  0  0  0  0  0
  182.4950  178.0760  138.4550 C   0  0  1  0  0  3  0  0  0  0  0  0
  186.2670  178.5420  139.2920 C   0  0  2  0  0  3  0  0  0  0  0  0
  186.0710  178.2530  143.6660 C   0  0  0  0  0  2  0  0  0  0  0  0
  188.9890  178.2560  136.4580 C   0  0  0  0  0  2  0  0  0  0  0  0
  184.8000  178.1320  142.8210 C   0  0  0  0  0  2  0  0  0  0  0  0
  187.6840  178.6040  137.1920 C   0  0  0  0  0  2  0  0  0  0  0  0
  190.1260  177.8620  139.0740 C   0  0  1  0  0  3  0  0  0  0  0  0
  187.2700  177.6330  142.9420 C   0  0  0  0  0  2  0  0  0  0  0  0
  188.5910  177.6190  140.8070 C   0  0  2  0  0  3  0  0  0  0  0  0
  190.6190  175.4400  138.4270 N   0  0  0  0  0  2  0  0  0  0  0  0
  191.5400  174.6880  137.5870 C   0  0  0  0  0  2  0  0  0  0  0  0
  194.9930  174.9460  137.0570 C   0  0  0  0  0  2  0  0  0  0  0  0
  193.0650  175.9990  136.3050 O   0  0  0  0  0  0  0  0  0  0  0  0
  192.8890  175.3820  137.5510 C   0  0  0  0  0  3  0  0  0  0  0  0
  194.4400  175.9570  136.0960 C   0  0  0  0  0  2  0  0  0  0  0  0
  193.9120  174.4510  137.7810 O   0  0  0  0  0  0  0  0  0  0  0  0
  1 26  1  1  0  0  0
  3 16  1  0  0  0  0
  4 23  1  1  0  0  0
  5 11  1  6  0  0  0
  5 15  1  0  0  0  0
  6 19  1  0  0  0  0
  7  3  2  0  0  0  0
  8 12  1  0  0  0  0
  9 27  1  0  0  0  0
 10 17  2  0  0  0  0
 11 20  1  0  0  0  0
 13 20  1  0  0  0  0
 13  9  1  0  0  0  0
 14  2  1  0  0  0  0
 15 12  1  0  0  0  0
 15  4  1  0  0  0  0
 16  8  1  0  0  0  0
 17 28  1  0  0  0  0
 17 25  1  0  0  0  0
 18  4  1  0  0  0  0
 18  1  1  0  0  0  0
 19  3  1  0  0  0  0
 19  5  1  0  0  0  0
 20 18  1  0  0  0  0
 22 10  1  0  0  0  0
 22 24  1  0  0  0  0
 23 21  1  0  0  0  0
 24 13  1  0  0  0  0
 25  9  1  0  0  0  0
 25 14  1  0  0  0  0
 26 21  1  0  0  0  0
 27  2  1  0  0  0  0
 27  1  1  0  0  0  0
 29 28  1  0  0  0  0
 30 34  1  0  0  0  0
 31 32  1  0  0  0  0
 32 29  1  0  0  0  0
 32 34  1  0  0  0  0
 33 31  1  0  0  0  0
 33 30  1  0  0  0  0
M  END
>  <MODEL>
7

>  <REMARK>
 VINA RESULT:      -8.0      4.672      6.286
  Name = 
  3 active torsions:
  status: ('A' for Active; 'I' for Inactive)
    1  A    between atoms: C_17  and  N_28
    2  A    between atoms: N_28  and  C_29
    3  A    between atoms: C_29  and  C_32
                            x       y       z     vdW  Elec       q    Type
                         _______ _______ _______ _____ _____    ______ ____

>  <TORSDO>
F 3

$$$$
=
 OpenBabel11122412253D

 34 40  0  0  1  0  0  0  0  0999 V2000
  188.7920  177.4700  138.6990 C   0  0  1  0  0  3  0  0  0  0  0  0
  187.3190  177.0380  136.7870 O   0  0  0  0  0  0  0  0  0  0  0  0
  189.7140  177.3580  145.3660 C   0  0  0  0  0  0  0  0  0  0  0  0
  190.0880  177.8980  140.8010 C   0  0  2  0  0  3  0  0  0  0  0  0
  188.7800  177.6930  143.0350 C   0  0  1  0  0  3  0  0  0  0  0  0
  187.2980  177.9080  145.1290 C   0  0  0  0  0  1  0  0  0  0  0  0
  189.3790  176.3770  146.0830 O   0  0  0  0  0  0  0  0  0  0  0  0
  191.5370  178.6360  144.3430 C   0  0  0  0  0  2  0  0  0  0  0  0
  186.4770  178.2440  138.5820 C   0  0  2  0  0  3  0  0  0  0  0  0
  183.5040  177.8200  139.3480 C   0  0  0  0  0  3  0  0  0  0  0  0
  187.4910  178.1600  142.3110 C   0  0  0  0  0  2  0  0  0  0  0  0
  191.4030  177.9810  142.9810 C   0  0  0  0  0  2  0  0  0  0  0  0
  186.2650  178.1880  140.1030 C   0  0  1  0  0  3  0  0  0  0  0  0
  185.9440  177.2160  136.5160 C   0  0  0  0  0  2  0  0  0  0  0  0
  190.0470  178.2530  142.3140 C   0  0  1  0  0  3  0  0  0  0  0  0
  191.0510  177.7430  145.3310 O   0  0  0  0  0  0  0  0  0  0  0  0
  184.1620  177.2520  138.3270 C   0  0  0  0  0  0  0  0  0  0  0  0
  188.7250  177.5030  140.2350 C   0  0  1  0  0  3  0  0  0  0  0  0
  188.6950  178.0860  144.5310 C   0  0  1  0  0  3  0  0  0  0  0  0
  187.6210  178.4090  140.8040 C   0  0  2  0  0  3  0  0  0  0  0  0
  191.1760  176.6980  138.8840 C   0  0  0  0  0  2  0  0  0  0  0  0
  183.8730  179.1800  139.8680 C   0  0  0  0  0  2  0  0  0  0  0  0
  191.0930  176.8070  140.4080 C   0  0  0  0  0  2  0  0  0  0  0  0
  185.2280  179.2140  140.5930 C   0  0  0  0  0  2  0  0  0  0  0  0
  185.3020  177.9990  137.6640 C   0  0  1  0  0  3  0  0  0  0  0  0
  189.8000  176.3990  138.2810 C   0  0  0  0  0  2  0  0  0  0  0  0
  187.4030  177.1390  138.1800 C   0  0  2  0  0  3  0  0  0  0  0  0
  183.7980  175.9450  137.8690 N   0  0  0  0  0  2  0  0  0  0  0  0
  182.5320  175.3020  138.1970 C   0  0  0  0  0  2  0  0  0  0  0  0
  182.7650  172.0800  136.8440 C   0  0  0  0  0  2  0  0  0  0  0  0
  181.0900  173.5020  137.5930 O   0  0  0  0  0  0  0  0  0  0  0  0
  182.2450  174.1920  137.2030 C   0  0  0  0  0  3  0  0  0  0  0  0
  181.2990  172.2030  137.1390 C   0  0  0  0  0  2  0  0  0  0  0  0
  183.3370  173.3140  137.1370 O   0  0  0  0  0  0  0  0  0  0  0  0
  1 26  1  1  0  0  0
  1 18  1  0  0  0  0
  2 27  1  0  0  0  0
  3  7  2  0  0  0  0
  4 23  1  1  0  0  0
  4 15  1  0  0  0  0
  5 11  1  6  0  0  0
  5 19  1  0  0  0  0
  8 16  1  0  0  0  0
  9 13  1  0  0  0  0
 10 22  1  0  0  0  0
 12  8  1  0  0  0  0
 13 24  1  0  0  0  0
 13 20  1  0  0  0  0
 14  2  1  0  0  0  0
 14 25  1  0  0  0  0
 15 12  1  0  0  0  0
 15  5  1  0  0  0  0
 16  3  1  0  0  0  0
 17 10  2  0  0  0  0
 18  4  1  0  0  0  0
 18 20  1  0  0  0  0
 19  6  1  0  0  0  0
 19  3  1  0  0  0  0
 20 11  1  0  0  0  0
 21 23  1  0  0  0  0
 22 24  1  0  0  0  0
 25 17  1  0  0  0  0
 25  9  1  0  0  0  0
 26 21  1  0  0  0  0
 27  9  1  0  0  0  0
 27  1  1  0  0  0  0
 28 29  1  0  0  0  0
 28 17  1  0  0  0  0
 30 34  1  0  0  0  0
 30 33  1  0  0  0  0
 32 31  1  0  0  0  0
 32 29  1  0  0  0  0
 33 31  1  0  0  0  0
 34 32  1  0  0  0  0
M  END
>  <MODEL>
8

>  <REMARK>
 VINA RESULT:      -7.9      3.189      9.678
  Name = 
  3 active torsions:
  status: ('A' for Active; 'I' for Inactive)
    1  A    between atoms: C_17  and  N_28
    2  A    between atoms: N_28  and  C_29
    3  A    between atoms: C_29  and  C_32
                            x       y       z     vdW  Elec       q    Type
                         _______ _______ _______ _____ _____    ______ ____

>  <TORSDO>
F 3

$$$$
=
 OpenBabel11122412253D

 34 40  0  0  1  0  0  0  0  0999 V2000
  189.0060  177.3030  141.9760 C   0  0  1  0  0  3  0  0  0  0  0  0
  190.9300  176.3850  140.7640 O   0  0  0  0  0  0  0  0  0  0  0  0
  182.4070  178.6280  142.0960 C   0  0  0  0  0  0  0  0  0  0  0  0
  186.9160  178.2430  142.9900 C   0  0  2  0  0  3  0  0  0  0  0  0
  184.8430  178.4110  141.4340 C   0  0  1  0  0  3  0  0  0  0  0  0
  183.0140  178.9470  139.7030 C   0  0  0  0  0  1  0  0  0  0  0  0
  181.5390  177.7940  141.7230 O   0  0  0  0  0  0  0  0  0  0  0  0
  183.4760  179.7920  143.9680 C   0  0  0  0  0  2  0  0  0  0  0  0
  189.5330  177.8720  139.6590 C   0  0  2  0  0  3  0  0  0  0  0  0
  189.0200  177.4080  136.6380 C   0  0  0  0  0  3  0  0  0  0  0  0
  185.7840  178.6270  140.2210 C   0  0  0  0  0  2  0  0  0  0  0  0
  184.6740  178.8640  144.0290 C   0  0  0  0  0  2  0  0  0  0  0  0
  188.0670  178.1150  139.2680 C   0  0  1  0  0  3  0  0  0  0  0  0
  191.3790  176.4070  139.4250 C   0  0  0  0  0  2  0  0  0  0  0  0
  185.5260  178.8970  142.7510 C   0  0  1  0  0  3  0  0  0  0  0  0
  182.3790  179.0900  143.4090 O   0  0  0  0  0  0  0  0  0  0  0  0
  189.8200  176.6900  137.4390 C   0  0  0  0  0  0  0  0  0  0  0  0
  187.5280  177.6460  141.7230 C   0  0  1  0  0  3  0  0  0  0  0  0
  183.4830  179.0950  141.1520 C   0  0  1  0  0  3  0  0  0  0  0  0
  187.2870  178.5700  140.5200 C   0  0  2  0  0  3  0  0  0  0  0  0
  188.4060  176.7530  144.3530 C   0  0  0  0  0  2  0  0  0  0  0  0
  188.7630  178.8680  136.8790 C   0  0  0  0  0  2  0  0  0  0  0  0
  186.9580  177.1670  144.0830 C   0  0  0  0  0  2  0  0  0  0  0  0
  187.9200  179.1450  138.1340 C   0  0  0  0  0  2  0  0  0  0  0  0
  190.5000  177.3630  138.6150 C   0  0  1  0  0  3  0  0  0  0  0  0
  189.0770  176.2410  143.0750 C   0  0  0  0  0  2  0  0  0  0  0  0
  189.5900  176.7760  140.6760 C   0  0  2  0  0  3  0  0  0  0  0  0
  190.0260  175.2940  137.1920 N   0  0  0  0  0  2  0  0  0  0  0  0
  189.9450  174.6910  135.8690 C   0  0  0  0  0  2  0  0  0  0  0  0
  187.4430  172.6270  137.1920 C   0  0  0  0  0  2  0  0  0  0  0  0
  187.5830  174.4050  135.7050 O   0  0  0  0  0  0  0  0  0  0  0  0
  188.7920  173.7060  135.8210 C   0  0  0  0  0  3  0  0  0  0  0  0
  186.6580  173.5960  136.3580 C   0  0  0  0  0  2  0  0  0  0  0  0
  188.7880  172.9180  136.9810 O   0  0  0  0  0  0  0  0  0  0  0  0
  1 26  1  1  0  0  0
  3 16  1  0  0  0  0
  4 23  1  1  0  0  0
  5 11  1  6  0  0  0
  5 15  1  0  0  0  0
  6 19  1  0  0  0  0
  7  3  2  0  0  0  0
  8 12  1  0  0  0  0
  9 27  1  0  0  0  0
 10 22  1  0  0  0  0
 10 17  2  0  0  0  0
 11 20  1  0  0  0  0
 13  9  1  0  0  0  0
 13 20  1  0  0  0  0
 14  2  1  0  0  0  0
 15  4  1  0  0  0  0
 15 12  1  0  0  0  0
 16  8  1  0  0  0  0
 17 25  1  0  0  0  0
 18  1  1  0  0  0  0
 18  4  1  0  0  0  0
 19  5  1  0  0  0  0
 19  3  1  0  0  0  0
 20 18  1  0  0  0  0
 22 24  1  0  0  0  0
 23 21  1  0  0  0  0
 24 13  1  0  0  0  0
 25 14  1  0  0  0  0
 25  9  1  0  0  0  0
 26 21  1  0  0  0  0
 27  2  1  0  0  0  0
 27  1  1  0  0  0  0
 28 17  1  0  0  0  0
 29 28  1  0  0  0  0
 31 32  1  0  0  0  0
 31 33  1  0  0  0  0
 32 29  1  0  0  0  0
 32 34  1  0  0  0  0
 33 30  1  0  0  0  0
 34 30  1  0  0  0  0
M  END
>  <MODEL>
9

>  <REMARK>
 VINA RESULT:      -7.6      4.135      7.496
  Name = 
  3 active torsions:
  status: ('A' for Active; 'I' for Inactive)
    1  A    between atoms: C_17  and  N_28
    2  A    between atoms: N_28  and  C_29
    3  A    between atoms: C_29  and  C_32
                            x       y       z     vdW  Elec       q    Type
                         _______ _______ _______ _____ _____    ______ ____

>  <TORSDO>
F 3

$$$$
