=
 OpenBabel11122410233D

 30 35  0  0  1  0  0  0  0  0999 V2000
  189.5420  177.1270  143.5980 C   0  0  1  0  0  3  0  0  0  0  0  0
  191.3880  176.1110  145.0560 C   0  0  0  0  0  0  0  0  0  0  0  0
  187.3310  178.1830  147.1910 C   0  0  0  0  0  2  0  0  0  0  0  0
  188.3120  178.0680  143.6360 C   0  0  1  0  0  3  0  0  0  0  0  0
  190.4930  177.6580  142.5390 C   0  0  0  0  0  2  0  0  0  0  0  0
  187.8580  177.8740  140.0040 O   0  0  0  0  0  0  0  0  0  0  0  0
  185.2070  177.7770  142.7690 C   0  0  1  0  0  3  0  0  0  0  0  0
  188.4140  177.8610  141.1380 C   0  0  0  0  0  0  0  0  0  0  0  0
  184.9810  177.9430  144.2690 C   0  0  2  0  0  3  0  0  0  0  0  0
  186.0980  178.5370  146.4460 C   0  0  0  0  0  0  0  0  0  0  0  0
  189.8310  177.6140  141.2400 N   0  0  0  0  0  0  0  0  0  0  0  0
  187.6280  178.0660  142.3310 N   0  0  0  0  0  0  0  0  0  0  0  0
  191.9320  175.8190  146.3100 C   0  0  0  0  0  3  0  0  0  0  0  0
  183.8760  178.9720  144.3890 C   0  0  0  0  0  2  0  0  0  0  0  0
  183.8740  178.1080  142.1170 C   0  0  0  0  0  2  0  0  0  0  0  0
  192.0280  175.6310  143.9200 O   0  0  0  0  0  1  0  0  0  0  0  0
  188.2930  178.0740  146.0310 C   0  0  2  0  0  3  0  0  0  0  0  0
  191.2980  176.2520  147.4760 C   0  0  0  0  0  3  0  0  0  0  0  0
  190.2020  176.8700  144.9560 C   0  0  0  0  0  0  0  0  0  0  0  0
  187.4630  177.6470  144.8360 C   0  0  1  0  0  3  0  0  0  0  0  0
  185.0540  178.9460  147.0200 O   0  0  0  0  0  0  0  0  0  0  0  0
  186.1790  178.3130  145.0330 N   0  0  0  0  0  0  0  0  0  0  0  0
  182.9930  178.7400  143.1830 C   0  0  0  0  0  2  0  0  0  0  0  0
  186.2730  180.1270  142.5640 C   0  0  0  0  0  1  0  0  0  0  0  0
  190.1030  176.9670  147.3970 C   0  0  0  0  0  3  0  0  0  0  0  0
  189.5350  177.2480  146.1490 C   0  0  0  0  0  0  0  0  0  0  0  0
  186.3030  178.6560  142.1610 C   0  0  2  0  0  3  0  0  0  0  0  0
  190.6080  177.1840  140.0870 C   0  0  0  0  0  2  0  0  0  0  0  0
  192.8230  176.9410  139.2560 O   0  0  0  0  0  1  0  0  0  0  0  0
  192.0820  177.4630  140.3150 C   0  0  0  0  0  2  0  0  0  0  0  0
  1  5  1  6  0  0  0
  1  4  1  0  0  0  0
  1 19  1  0  0  0  0
  2 13  1  0  0  0  0
  4 12  1  6  0  0  0
  4 20  1  0  0  0  0
  6  8  2  0  0  0  0
  7 15  1  6  0  0  0
  7  9  1  0  0  0  0
  8 11  1  0  0  0  0
  8 12  1  0  0  0  0
  9 14  1  6  0  0  0
  9 22  1  0  0  0  0
 10 21  2  0  0  0  0
 10  3  1  0  0  0  0
 11  5  1  0  0  0  0
 13 18  2  0  0  0  0
 15 23  1  0  0  0  0
 16  2  1  0  0  0  0
 17 26  1  0  0  0  0
 17  3  1  1  0  0  0
 19  2  2  0  0  0  0
 19 26  1  0  0  0  0
 20 22  1  6  0  0  0
 20 17  1  0  0  0  0
 22 10  1  0  0  0  0
 23 14  1  0  0  0  0
 25 18  1  0  0  0  0
 26 25  2  0  0  0  0
 27 12  1  0  0  0  0
 27 24  1  1  0  0  0
 27  7  1  0  0  0  0
 28 30  1  0  0  0  0
 28 11  1  0  0  0  0
 29 30  1  0  0  0  0
M  END
>  <MODEL>
1

>  <REMARK>
 VINA RESULT:     -10.0      0.000      0.000
  Name = 
  2 active torsions:
  status: ('A' for Active; 'I' for Inactive)
    1  A    between atoms: N_11  and  C_28
    2  A    between atoms: C_28  and  C_30
                            x       y       z     vdW  Elec       q    Type
                         _______ _______ _______ _____ _____    ______ ____

>  <TORSDO>
F 2

$$$$
=
 OpenBabel11122410233D

 30 35  0  0  1  0  0  0  0  0999 V2000
  186.6410  178.0640  142.0180 C   0  0  1  0  0  3  0  0  0  0  0  0
  187.7030  177.6440  144.3120 C   0  0  0  0  0  0  0  0  0  0  0  0
  182.8560  178.9450  143.9680 C   0  0  0  0  0  2  0  0  0  0  0  0
  185.4130  178.7000  141.3200 C   0  0  1  0  0  3  0  0  0  0  0  0
  187.8870  178.6870  141.4120 C   0  0  0  0  0  2  0  0  0  0  0  0
  186.7770  178.0450  137.9820 O   0  0  0  0  0  0  0  0  0  0  0  0
  183.1800  177.6270  139.2360 C   0  0  1  0  0  3  0  0  0  0  0  0
  186.7210  178.2730  139.2230 C   0  0  0  0  0  0  0  0  0  0  0  0
  182.2460  177.8870  140.4150 C   0  0  2  0  0  3  0  0  0  0  0  0
  182.0870  178.9330  142.6990 C   0  0  0  0  0  0  0  0  0  0  0  0
  187.9380  178.3650  139.9910 N   0  0  0  0  0  0  0  0  0  0  0  0
  185.4410  178.4120  139.8760 N   0  0  0  0  0  0  0  0  0  0  0  0
  187.6230  177.6100  145.7070 C   0  0  0  0  0  3  0  0  0  0  0  0
  181.0740  178.6460  139.8280 C   0  0  0  0  0  2  0  0  0  0  0  0
  182.2850  177.5800  138.0090 C   0  0  0  0  0  2  0  0  0  0  0  0
  188.8720  177.2100  143.6970 O   0  0  0  0  0  1  0  0  0  0  0  0
  184.2570  178.9420  143.4040 C   0  0  2  0  0  3  0  0  0  0  0  0
  186.4520  178.0020  146.3590 C   0  0  0  0  0  3  0  0  0  0  0  0
  186.6070  178.1010  143.5490 C   0  0  0  0  0  0  0  0  0  0  0  0
  184.1710  178.2190  142.0730 C   0  0  1  0  0  3  0  0  0  0  0  0
  180.8470  179.1510  142.6570 O   0  0  0  0  0  0  0  0  0  0  0  0
  182.8630  178.5930  141.5440 N   0  0  0  0  0  0  0  0  0  0  0  0
  180.9180  178.0990  138.4250 C   0  0  0  0  0  2  0  0  0  0  0  0
  183.8400  180.1250  139.0750 C   0  0  0  0  0  1  0  0  0  0  0  0
  185.3450  178.4160  145.6190 C   0  0  0  0  0  3  0  0  0  0  0  0
  185.4030  178.4350  144.2210 C   0  0  0  0  0  0  0  0  0  0  0  0
  184.2840  178.6660  139.0220 C   0  0  2  0  0  3  0  0  0  0  0  0
  189.2250  178.0090  139.4130 C   0  0  0  0  0  2  0  0  0  0  0  0
  190.6190  176.0890  139.5750 O   0  0  0  0  0  1  0  0  0  0  0  0
  189.9690  177.0610  140.3340 C   0  0  0  0  0  2  0  0  0  0  0  0
  1  5  1  6  0  0  0
  1 19  1  0  0  0  0
  2 13  1  0  0  0  0
  4 12  1  6  0  0  0
  4  1  1  0  0  0  0
  4 20  1  0  0  0  0
  6  8  2  0  0  0  0
  7 15  1  6  0  0  0
  7  9  1  0  0  0  0
  8 12  1  0  0  0  0
  8 11  1  0  0  0  0
  9 14  1  6  0  0  0
  9 22  1  0  0  0  0
 10  3  1  0  0  0  0
 11  5  1  0  0  0  0
 13 18  2  0  0  0  0
 15 23  1  0  0  0  0
 16  2  1  0  0  0  0
 17  3  1  1  0  0  0
 17 26  1  0  0  0  0
 19 26  1  0  0  0  0
 19  2  2  0  0  0  0
 20 22  1  6  0  0  0
 20 17  1  0  0  0  0
 21 10  2  0  0  0  0
 22 10  1  0  0  0  0
 23 14  1  0  0  0  0
 25 18  1  0  0  0  0
 26 25  2  0  0  0  0
 27 24  1  1  0  0  0
 27  7  1  0  0  0  0
 27 12  1  0  0  0  0
 28 11  1  0  0  0  0
 28 30  1  0  0  0  0
 29 30  1  0  0  0  0
M  END
>  <MODEL>
2

>  <REMARK>
 VINA RESULT:      -9.7      2.679      4.216
  Name = 
  2 active torsions:
  status: ('A' for Active; 'I' for Inactive)
    1  A    between atoms: N_11  and  C_28
    2  A    between atoms: C_28  and  C_30
                            x       y       z     vdW  Elec       q    Type
                         _______ _______ _______ _____ _____    ______ ____

>  <TORSDO>
F 2

$$$$
=
 OpenBabel11122410233D

 30 35  0  0  1  0  0  0  0  0999 V2000
  187.2690  178.1820  140.4670 C   0  0  1  0  0  3  0  0  0  0  0  0
  184.9770  178.9960  139.6600 C   0  0  0  0  0  0  0  0  0  0  0  0
  185.6860  177.8290  144.5020 C   0  0  0  0  0  2  0  0  0  0  0  0
  187.9860  177.4680  141.6400 C   0  0  1  0  0  3  0  0  0  0  0  0
  187.5840  177.4090  139.1980 C   0  0  0  0  0  2  0  0  0  0  0  0
  191.1870  177.4190  139.8550 O   0  0  0  0  0  0  0  0  0  0  0  0
  190.5010  178.2010  143.5430 C   0  0  1  0  0  3  0  0  0  0  0  0
  189.9420  177.4370  140.0700 C   0  0  0  0  0  0  0  0  0  0  0  0
  189.4220  178.2050  144.6240 C   0  0  2  0  0  3  0  0  0  0  0  0
  187.0220  177.6250  145.1130 C   0  0  0  0  0  0  0  0  0  0  0  0
  189.0220  177.4500  138.9610 N   0  0  0  0  0  0  0  0  0  0  0  0
  189.4430  177.4720  141.4240 N   0  0  0  0  0  0  0  0  0  0  0  0
  183.6340  179.3010  139.9030 C   0  0  0  0  0  3  0  0  0  0  0  0
  190.0030  177.3910  145.7620 C   0  0  0  0  0  2  0  0  0  0  0  0
  191.8190  178.0430  144.2830 C   0  0  0  0  0  2  0  0  0  0  0  0
  185.5080  179.2610  138.4040 O   0  0  0  0  0  1  0  0  0  0  0  0
  186.0580  177.6740  143.0460 C   0  0  2  0  0  3  0  0  0  0  0  0
  183.0750  179.0840  141.1630 C   0  0  0  0  0  3  0  0  0  0  0  0
  185.7750  178.4410  140.6840 C   0  0  0  0  0  0  0  0  0  0  0  0
  187.5000  178.1290  142.9310 C   0  0  1  0  0  3  0  0  0  0  0  0
  187.1810  177.4480  146.3500 O   0  0  0  0  0  0  0  0  0  0  0  0
  188.1130  177.7080  144.1880 N   0  0  0  0  0  0  0  0  0  0  0  0
  191.4900  177.6630  145.7180 C   0  0  0  0  0  2  0  0  0  0  0  0
  190.1080  175.6950  143.0190 C   0  0  0  0  0  1  0  0  0  0  0  0
  183.8600  178.5750  142.1980 C   0  0  0  0  0  3  0  0  0  0  0  0
  185.2110  178.2860  141.9760 C   0  0  0  0  0  0  0  0  0  0  0  0
  190.3750  177.1010  142.4860 C   0  0  2  0  0  3  0  0  0  0  0  0
  189.4880  177.6420  137.5950 C   0  0  0  0  0  2  0  0  0  0  0  0
  188.9510  179.9560  137.4820 O   0  0  0  0  0  1  0  0  0  0  0  0
  188.6680  178.7170  136.9080 C   0  0  0  0  0  2  0  0  0  0  0  0
  1  5  1  6  0  0  0
  1 19  1  0  0  0  0
  1  4  1  0  0  0  0
  2 13  2  0  0  0  0
  2 19  1  0  0  0  0
  3 10  1  0  0  0  0
  4 12  1  6  0  0  0
  4 20  1  0  0  0  0
  6  8  2  0  0  0  0
  7 15  1  1  0  0  0
  7  9  1  0  0  0  0
  8 12  1  0  0  0  0
  9 14  1  1  0  0  0
 10 21  2  0  0  0  0
 11  5  1  0  0  0  0
 11  8  1  0  0  0  0
 12 27  1  0  0  0  0
 13 18  1  0  0  0  0
 15 23  1  0  0  0  0
 16  2  1  0  0  0  0
 17  3  1  1  0  0  0
 18 25  2  0  0  0  0
 19 26  2  0  0  0  0
 20 17  1  0  0  0  0
 20 22  1  1  0  0  0
 22  9  1  0  0  0  0
 22 10  1  0  0  0  0
 23 14  1  0  0  0  0
 26 25  1  0  0  0  0
 26 17  1  0  0  0  0
 27 24  1  1  0  0  0
 27  7  1  0  0  0  0
 28 11  1  0  0  0  0
 30 29  1  0  0  0  0
 30 28  1  0  0  0  0
M  END
>  <MODEL>
3

>  <REMARK>
 VINA RESULT:      -9.3      1.927      5.799
  Name = 
  2 active torsions:
  status: ('A' for Active; 'I' for Inactive)
    1  A    between atoms: N_11  and  C_28
    2  A    between atoms: C_28  and  C_30
                            x       y       z     vdW  Elec       q    Type
                         _______ _______ _______ _____ _____    ______ ____

>  <TORSDO>
F 2

$$$$
=
 OpenBabel11122410233D

 30 35  0  0  1  0  0  0  0  0999 V2000
  188.1330  177.7750  142.3130 C   0  0  1  0  0  3  0  0  0  0  0  0
  186.9390  177.8620  144.5790 C   0  0  0  0  0  0  0  0  0  0  0  0
  184.4700  179.0860  140.3700 C   0  0  0  0  0  2  0  0  0  0  0  0
  188.0320  178.2510  140.8420 C   0  0  1  0  0  3  0  0  0  0  0  0
  189.4720  178.2430  142.8560 C   0  0  0  0  0  2  0  0  0  0  0  0
  191.3250  176.8720  140.0110 O   0  0  0  0  0  0  0  0  0  0  0  0
  188.0850  176.7610  137.9690 C   0  0  1  0  0  3  0  0  0  0  0  0
  190.3740  177.3660  140.6790 C   0  0  0  0  0  0  0  0  0  0  0  0
  186.6510  177.2790  137.9000 C   0  0  2  0  0  3  0  0  0  0  0  0
  184.9770  178.8010  139.0050 C   0  0  0  0  0  0  0  0  0  0  0  0
  190.5420  177.6170  142.0890 N   0  0  0  0  0  0  0  0  0  0  0  0
  189.1130  177.6530  140.0380 N   0  0  0  0  0  0  0  0  0  0  0  0
  185.8070  178.1340  145.3530 C   0  0  0  0  0  3  0  0  0  0  0  0
  186.5210  177.8980  136.5240 C   0  0  0  0  0  2  0  0  0  0  0  0
  188.4760  176.4520  136.5330 C   0  0  0  0  0  2  0  0  0  0  0  0
  188.0510  177.2970  145.1920 O   0  0  0  0  0  1  0  0  0  0  0  0
  185.7610  178.9500  141.1420 C   0  0  2  0  0  3  0  0  0  0  0  0
  184.6580  178.6670  144.7660 C   0  0  0  0  0  3  0  0  0  0  0  0
  186.9380  178.1470  143.1960 C   0  0  0  0  0  0  0  0  0  0  0  0
  186.6080  177.9540  140.3720 C   0  0  1  0  0  3  0  0  0  0  0  0
  184.2900  179.0120  137.9700 O   0  0  0  0  0  0  0  0  0  0  0  0
  186.2820  178.2110  138.9720 N   0  0  0  0  0  0  0  0  0  0  0  0
  187.4110  177.0580  135.6330 C   0  0  0  0  0  2  0  0  0  0  0  0
  189.0550  179.1590  138.0720 C   0  0  0  0  0  1  0  0  0  0  0  0
  184.6260  178.9160  143.3940 C   0  0  0  0  0  3  0  0  0  0  0  0
  185.7430  178.6270  142.6020 C   0  0  0  0  0  0  0  0  0  0  0  0
  189.1090  177.7210  138.5800 C   0  0  2  0  0  3  0  0  0  0  0  0
  191.7130  177.1350  142.8080 C   0  0  0  0  0  2  0  0  0  0  0  0
  191.6810  176.5030  145.1000 O   0  0  0  0  0  1  0  0  0  0  0  0
  191.3060  176.0840  143.8240 C   0  0  0  0  0  2  0  0  0  0  0  0
  1  5  1  1  0  0  0
  1 19  1  0  0  0  0
  2 16  1  0  0  0  0
  2 13  1  0  0  0  0
  4 12  1  6  0  0  0
  4  1  1  0  0  0  0
  6  8  2  0  0  0  0
  7 15  1  6  0  0  0
  7 27  1  0  0  0  0
  8 11  1  0  0  0  0
  9 14  1  6  0  0  0
  9  7  1  0  0  0  0
  9 22  1  0  0  0  0
 10  3  1  0  0  0  0
 11 28  1  0  0  0  0
 11  5  1  0  0  0  0
 12  8  1  0  0  0  0
 17  3  1  6  0  0  0
 17 26  1  0  0  0  0
 18 13  2  0  0  0  0
 19  2  2  0  0  0  0
 20 22  1  6  0  0  0
 20  4  1  0  0  0  0
 20 17  1  0  0  0  0
 21 10  2  0  0  0  0
 22 10  1  0  0  0  0
 23 14  1  0  0  0  0
 23 15  1  0  0  0  0
 25 18  1  0  0  0  0
 26 19  1  0  0  0  0
 26 25  2  0  0  0  0
 27 24  1  1  0  0  0
 27 12  1  0  0  0  0
 28 30  1  0  0  0  0
 30 29  1  0  0  0  0
M  END
>  <MODEL>
4

>  <REMARK>
 VINA RESULT:      -8.8      2.595      5.632
  Name = 
  2 active torsions:
  status: ('A' for Active; 'I' for Inactive)
    1  A    between atoms: N_11  and  C_28
    2  A    between atoms: C_28  and  C_30
                            x       y       z     vdW  Elec       q    Type
                         _______ _______ _______ _____ _____    ______ ____

>  <TORSDO>
F 2

$$$$
=
 OpenBabel11122410233D

 30 35  0  0  1  0  0  0  0  0999 V2000
  187.7140  177.6580  141.3830 C   0  0  1  0  0  3  0  0  0  0  0  0
  189.3020  176.9900  143.2800 C   0  0  0  0  0  0  0  0  0  0  0  0
  184.6220  178.5180  144.3180 C   0  0  0  0  0  2  0  0  0  0  0  0
  186.3900  178.4050  141.0820 C   0  0  1  0  0  3  0  0  0  0  0  0
  188.7980  178.2810  140.5210 C   0  0  0  0  0  2  0  0  0  0  0  0
  186.8040  177.9970  137.4630 O   0  0  0  0  0  0  0  0  0  0  0  0
  183.6330  177.6180  139.5800 C   0  0  1  0  0  3  0  0  0  0  0  0
  187.0840  178.1140  138.6880 C   0  0  0  0  0  0  0  0  0  0  0  0
  183.0520  177.8100  140.9790 C   0  0  2  0  0  3  0  0  0  0  0  0
  183.5540  178.6530  143.2970 C   0  0  0  0  0  0  0  0  0  0  0  0
  188.4610  178.0860  139.1160 N   0  0  0  0  0  0  0  0  0  0  0  0
  186.0270  178.2470  139.6620 N   0  0  0  0  0  0  0  0  0  0  0  0
  189.5810  176.8350  144.6400 C   0  0  0  0  0  3  0  0  0  0  0  0
  181.8190  178.6660  140.7780 C   0  0  0  0  0  2  0  0  0  0  0  0
  182.4500  177.7180  138.6300 C   0  0  0  0  0  2  0  0  0  0  0  0
  190.2420  176.5650  142.3490 O   0  0  0  0  0  1  0  0  0  0  0  0
  185.8280  178.5070  143.4070 C   0  0  2  0  0  3  0  0  0  0  0  0
  188.6460  177.2150  145.6040 C   0  0  0  0  0  3  0  0  0  0  0  0
  188.0770  177.5590  142.8670 C   0  0  0  0  0  0  0  0  0  0  0  0
  185.3560  177.9110  142.0950 C   0  0  1  0  0  3  0  0  0  0  0  0
  182.3610  178.9250  143.5970 O   0  0  0  0  0  0  0  0  0  0  0  0
  183.9830  178.3850  141.9560 N   0  0  0  0  0  0  0  0  0  0  0  0
  181.2730  178.2550  139.4280 C   0  0  0  0  0  2  0  0  0  0  0  0
  184.3870  180.0910  139.4410 C   0  0  0  0  0  1  0  0  0  0  0  0
  187.4140  177.7400  145.2130 C   0  0  0  0  0  3  0  0  0  0  0  0
  187.1110  177.8810  143.8550 C   0  0  0  0  0  0  0  0  0  0  0  0
  184.7080  178.6250  139.1640 C   0  0  2  0  0  3  0  0  0  0  0  0
  189.5310  177.7290  138.1950 C   0  0  0  0  0  2  0  0  0  0  0  0
  190.9470  175.9510  137.4980 O   0  0  0  0  0  1  0  0  0  0  0  0
  189.8960  176.2660  138.3570 C   0  0  0  0  0  2  0  0  0  0  0  0
  1  5  1  6  0  0  0
  1 19  1  0  0  0  0
  2 13  1  0  0  0  0
  4 12  1  6  0  0  0
  4  1  1  0  0  0  0
  4 20  1  0  0  0  0
  6  8  2  0  0  0  0
  7 15  1  6  0  0  0
  7  9  1  0  0  0  0
  8 11  1  0  0  0  0
  8 12  1  0  0  0  0
  9 14  1  6  0  0  0
  9 22  1  0  0  0  0
 10 21  2  0  0  0  0
 10  3  1  0  0  0  0
 11  5  1  0  0  0  0
 13 18  2  0  0  0  0
 15 23  1  0  0  0  0
 16  2  1  0  0  0  0
 17 26  1  0  0  0  0
 17  3  1  1  0  0  0
 19  2  2  0  0  0  0
 19 26  1  0  0  0  0
 20 22  1  6  0  0  0
 20 17  1  0  0  0  0
 22 10  1  0  0  0  0
 23 14  1  0  0  0  0
 25 18  1  0  0  0  0
 26 25  2  0  0  0  0
 27 24  1  1  0  0  0
 27  7  1  0  0  0  0
 27 12  1  0  0  0  0
 28 30  1  0  0  0  0
 28 11  1  0  0  0  0
 29 30  1  0  0  0  0
M  END
>  <MODEL>
5

>  <REMARK>
 VINA RESULT:      -7.8      2.319      3.373
  Name = 
  2 active torsions:
  status: ('A' for Active; 'I' for Inactive)
    1  A    between atoms: N_11  and  C_28
    2  A    between atoms: C_28  and  C_30
                            x       y       z     vdW  Elec       q    Type
                         _______ _______ _______ _____ _____    ______ ____

>  <TORSDO>
F 2

$$$$
=
 OpenBabel11122410233D

 30 35  0  0  1  0  0  0  0  0999 V2000
  188.0860  177.6740  144.0590 C   0  0  1  0  0  3  0  0  0  0  0  0
  189.1870  177.1260  146.3080 C   0  0  0  0  0  0  0  0  0  0  0  0
  184.4630  178.8480  146.1570 C   0  0  0  0  0  2  0  0  0  0  0  0
  186.8950  178.4250  143.4150 C   0  0  1  0  0  3  0  0  0  0  0  0
  189.3600  178.1970  143.4170 C   0  0  0  0  0  2  0  0  0  0  0  0
  188.0790  177.7100  140.0210 O   0  0  0  0  0  0  0  0  0  0  0  0
  184.5060  177.5840  141.3990 C   0  0  1  0  0  3  0  0  0  0  0  0
  188.0870  177.9210  141.2670 C   0  0  0  0  0  0  0  0  0  0  0  0
  183.6400  177.9050  142.6140 C   0  0  2  0  0  3  0  0  0  0  0  0
  183.6520  178.9240  144.9170 C   0  0  0  0  0  0  0  0  0  0  0  0
  189.3330  177.8940  141.9910 N   0  0  0  0  0  0  0  0  0  0  0  0
  186.8480  178.1600  141.9670 N   0  0  0  0  0  0  0  0  0  0  0  0
  189.1530  177.0760  147.7040 C   0  0  0  0  0  3  0  0  0  0  0  0
  182.5180  178.7720  142.0800 C   0  0  0  0  0  2  0  0  0  0  0  0
  183.5680  177.6350  140.2040 C   0  0  0  0  0  2  0  0  0  0  0  0
  190.2910  176.6030  145.6450 O   0  0  0  0  0  1  0  0  0  0  0  0
  185.8380  178.7320  145.5430 C   0  0  2  0  0  3  0  0  0  0  0  0
  188.0450  177.5580  148.4040 C   0  0  0  0  0  3  0  0  0  0  0  0
  188.1090  177.6890  145.5910 C   0  0  0  0  0  0  0  0  0  0  0  0
  185.6430  178.0420  144.2060 C   0  0  1  0  0  3  0  0  0  0  0  0
  182.4350  179.2490  144.9210 O   0  0  0  0  0  0  0  0  0  0  0  0
  184.3550  178.5360  143.7290 N   0  0  0  0  0  0  0  0  0  0  0  0
  182.2670  178.2640  140.6770 C   0  0  0  0  0  2  0  0  0  0  0  0
  185.3750  180.0180  141.2470 C   0  0  0  0  0  1  0  0  0  0  0  0
  186.9530  178.0790  147.7090 C   0  0  0  0  0  3  0  0  0  0  0  0
  186.9630  178.1150  146.3110 C   0  0  0  0  0  0  0  0  0  0  0  0
  185.6880  178.5270  141.1590 C   0  0  2  0  0  3  0  0  0  0  0  0
  190.5640  177.4370  141.3620 C   0  0  0  0  0  2  0  0  0  0  0  0
  190.5440  175.4000  142.5880 O   0  0  0  0  0  1  0  0  0  0  0  0
  191.3230  176.5200  142.3020 C   0  0  0  0  0  2  0  0  0  0  0  0
  1  5  1  6  0  0  0
  1 19  1  0  0  0  0
  2 13  1  0  0  0  0
  4 12  1  6  0  0  0
  4  1  1  0  0  0  0
  4 20  1  0  0  0  0
  6  8  2  0  0  0  0
  7 15  1  6  0  0  0
  7  9  1  0  0  0  0
  8 12  1  0  0  0  0
  8 11  1  0  0  0  0
  9 14  1  6  0  0  0
  9 22  1  0  0  0  0
 10 21  2  0  0  0  0
 10  3  1  0  0  0  0
 11  5  1  0  0  0  0
 13 18  2  0  0  0  0
 15 23  1  0  0  0  0
 16  2  1  0  0  0  0
 17  3  1  1  0  0  0
 17 26  1  0  0  0  0
 19  2  2  0  0  0  0
 19 26  1  0  0  0  0
 20 22  1  6  0  0  0
 20 17  1  0  0  0  0
 22 10  1  0  0  0  0
 23 14  1  0  0  0  0
 25 18  1  0  0  0  0
 26 25  2  0  0  0  0
 27 24  1  1  0  0  0
 27  7  1  0  0  0  0
 27 12  1  0  0  0  0
 28 11  1  0  0  0  0
 28 30  1  0  0  0  0
 30 29  1  0  0  0  0
M  END
>  <MODEL>
6

>  <REMARK>
 VINA RESULT:      -7.5      1.701      2.394
  Name = 
  2 active torsions:
  status: ('A' for Active; 'I' for Inactive)
    1  A    between atoms: N_11  and  C_28
    2  A    between atoms: C_28  and  C_30
                            x       y       z     vdW  Elec       q    Type
                         _______ _______ _______ _____ _____    ______ ____

>  <TORSDO>
F 2

$$$$
=
 OpenBabel11122410233D

 30 35  0  0  1  0  0  0  0  0999 V2000
  185.1600  178.6700  141.9850 C   0  0  1  0  0  3  0  0  0  0  0  0
  184.9310  178.9500  144.5220 C   0  0  0  0  0  0  0  0  0  0  0  0
  189.1620  177.0670  142.5570 C   0  0  0  0  0  2  0  0  0  0  0  0
  185.9960  177.9650  140.8880 C   0  0  1  0  0  3  0  0  0  0  0  0
  183.7050  178.2950  141.7660 C   0  0  0  0  0  2  0  0  0  0  0  0
  183.8070  179.1890  138.2160 O   0  0  0  0  0  0  0  0  0  0  0  0
  187.6320  178.9730  138.2830 C   0  0  1  0  0  3  0  0  0  0  0  0
  184.2000  178.8090  139.3550 C   0  0  0  0  0  0  0  0  0  0  0  0
  188.8250  178.4520  139.0800 C   0  0  2  0  0  3  0  0  0  0  0  0
  189.4990  177.1290  141.1130 C   0  0  0  0  0  0  0  0  0  0  0  0
  183.2770  178.7890  140.4620 N   0  0  0  0  0  0  0  0  0  0  0  0
  185.5770  178.4240  139.5530 N   0  0  0  0  0  0  0  0  0  0  0  0
  185.4370  178.8060  145.8170 C   0  0  0  0  0  3  0  0  0  0  0  0
  189.6220  177.6200  138.0970 C   0  0  0  0  0  2  0  0  0  0  0  0
  188.1060  179.0470  136.8410 C   0  0  0  0  0  2  0  0  0  0  0  0
  183.7180  179.6050  144.3450 O   0  0  0  0  0  1  0  0  0  0  0  0
  187.6760  177.3240  142.4710 C   0  0  2  0  0  3  0  0  0  0  0  0
  186.6700  178.1870  146.0320 C   0  0  0  0  0  3  0  0  0  0  0  0
  185.6530  178.4470  143.4180 C   0  0  0  0  0  0  0  0  0  0  0  0
  187.4690  178.1830  141.2380 C   0  0  1  0  0  3  0  0  0  0  0  0
  190.6130  176.7550  140.6610 O   0  0  0  0  0  0  0  0  0  0  0  0
  188.4740  177.7040  140.2930 N   0  0  0  0  0  0  0  0  0  0  0  0
  189.4300  178.3050  136.7610 C   0  0  0  0  0  2  0  0  0  0  0  0
  186.5550  176.6220  138.1620 C   0  0  0  0  0  1  0  0  0  0  0  0
  187.4150  177.7210  144.9490 C   0  0  0  0  0  3  0  0  0  0  0  0
  186.9320  177.8780  143.6450 C   0  0  0  0  0  0  0  0  0  0  0  0
  186.3610  178.1230  138.3590 C   0  0  2  0  0  3  0  0  0  0  0  0
  181.9510  179.3790  140.3520 C   0  0  0  0  0  2  0  0  0  0  0  0
  180.4580  180.1280  142.0450 O   0  0  0  0  0  1  0  0  0  0  0  0
  181.1060  178.9960  141.5520 C   0  0  0  0  0  2  0  0  0  0  0  0
  1  5  1  1  0  0  0
  1 19  1  0  0  0  0
  2 13  1  0  0  0  0
  4 12  1  6  0  0  0
  4 20  1  0  0  0  0
  4  1  1  0  0  0  0
  6  8  2  0  0  0  0
  7 15  1  6  0  0  0
  7 27  1  0  0  0  0
  7  9  1  0  0  0  0
  8 12  1  0  0  0  0
  8 11  1  0  0  0  0
  9 14  1  6  0  0  0
  9 22  1  0  0  0  0
 10  3  1  0  0  0  0
 11  5  1  0  0  0  0
 13 18  2  0  0  0  0
 16  2  1  0  0  0  0
 17  3  1  1  0  0  0
 17 26  1  0  0  0  0
 19 26  1  0  0  0  0
 19  2  2  0  0  0  0
 20 22  1  6  0  0  0
 20 17  1  0  0  0  0
 21 10  2  0  0  0  0
 22 10  1  0  0  0  0
 23 15  1  0  0  0  0
 23 14  1  0  0  0  0
 25 18  1  0  0  0  0
 26 25  2  0  0  0  0
 27 24  1  1  0  0  0
 27 12  1  0  0  0  0
 28 11  1  0  0  0  0
 28 30  1  0  0  0  0
 30 29  1  0  0  0  0
M  END
>  <MODEL>
7

>  <REMARK>
 VINA RESULT:      -7.4      2.831      6.695
  Name = 
  2 active torsions:
  status: ('A' for Active; 'I' for Inactive)
    1  A    between atoms: N_11  and  C_28
    2  A    between atoms: C_28  and  C_30
                            x       y       z     vdW  Elec       q    Type
                         _______ _______ _______ _____ _____    ______ ____

>  <TORSDO>
F 2

$$$$
=
 OpenBabel11122410233D

 30 35  0  0  1  0  0  0  0  0999 V2000
  186.0480  178.2250  141.7880 C   0  0  1  0  0  3  0  0  0  0  0  0
  184.5130  178.3640  139.7400 C   0  0  0  0  0  0  0  0  0  0  0  0
  189.4770  177.7950  139.1480 C   0  0  0  0  0  2  0  0  0  0  0  0
  187.5270  178.3280  142.2340 C   0  0  1  0  0  3  0  0  0  0  0  0
  185.2490  179.2180  142.6140 C   0  0  0  0  0  2  0  0  0  0  0  0
  186.6410  178.0040  145.7760 O   0  0  0  0  0  0  0  0  0  0  0  0
  189.5440  176.3900  143.8660 C   0  0  1  0  0  3  0  0  0  0  0  0
  186.5520  178.2730  144.5450 C   0  0  0  0  0  0  0  0  0  0  0  0
  190.2810  176.3680  142.5290 C   0  0  2  0  0  3  0  0  0  0  0  0
  190.4010  177.4260  140.2480 C   0  0  0  0  0  0  0  0  0  0  0  0
  185.3390  178.8480  144.0210 N   0  0  0  0  0  0  0  0  0  0  0  0
  187.6550  177.9800  143.6600 N   0  0  0  0  0  0  0  0  0  0  0  0
  184.3240  178.3900  138.3550 C   0  0  0  0  0  3  0  0  0  0  0  0
  191.7350  176.6110  142.8770 C   0  0  0  0  0  2  0  0  0  0  0  0
  190.5630  175.9450  144.9010 C   0  0  0  0  0  2  0  0  0  0  0  0
  183.3980  178.3450  140.5690 O   0  0  0  0  0  1  0  0  0  0  0  0
  188.2980  178.2640  139.9670 C   0  0  2  0  0  3  0  0  0  0  0  0
  185.4200  178.3720  137.4900 C   0  0  0  0  0  3  0  0  0  0  0  0
  185.8190  178.3430  140.2780 C   0  0  0  0  0  0  0  0  0  0  0  0
  188.3490  177.4780  141.2630 C   0  0  1  0  0  3  0  0  0  0  0  0
  191.6200  177.1760  140.0530 O   0  0  0  0  0  0  0  0  0  0  0  0
  189.7750  177.3190  141.5320 N   0  0  0  0  0  0  0  0  0  0  0  0
  191.9270  175.9590  144.2290 C   0  0  0  0  0  2  0  0  0  0  0  0
  189.8890  178.9430  144.1300 C   0  0  0  0  0  1  0  0  0  0  0  0
  186.7150  178.3090  138.0040 C   0  0  0  0  0  3  0  0  0  0  0  0
  186.9190  178.2600  139.3870 C   0  0  0  0  0  0  0  0  0  0  0  0
  188.9570  177.7430  144.2770 C   0  0  2  0  0  3  0  0  0  0  0  0
  184.1360  178.9470  144.8360 C   0  0  0  0  0  2  0  0  0  0  0  0
  181.8430  178.5730  144.3300 O   0  0  0  0  0  1  0  0  0  0  0  0
  182.9510  179.3410  143.9750 C   0  0  0  0  0  2  0  0  0  0  0  0
  1  4  1  0  0  0  0
  1  5  1  1  0  0  0
  2 19  1  0  0  0  0
  2 16  1  0  0  0  0
  3 10  1  0  0  0  0
  4 12  1  1  0  0  0
  5 11  1  0  0  0  0
  7 27  1  0  0  0  0
  7 15  1  1  0  0  0
  8  6  2  0  0  0  0
  9 14  1  1  0  0  0
  9  7  1  0  0  0  0
 10 22  1  0  0  0  0
 11  8  1  0  0  0  0
 11 28  1  0  0  0  0
 12 27  1  0  0  0  0
 12  8  1  0  0  0  0
 13  2  2  0  0  0  0
 14 23  1  0  0  0  0
 17  3  1  6  0  0  0
 17 20  1  0  0  0  0
 18 25  2  0  0  0  0
 18 13  1  0  0  0  0
 19  1  1  0  0  0  0
 20 22  1  1  0  0  0
 20  4  1  0  0  0  0
 21 10  2  0  0  0  0
 22  9  1  0  0  0  0
 23 15  1  0  0  0  0
 25 26  1  0  0  0  0
 26 17  1  0  0  0  0
 26 19  2  0  0  0  0
 27 24  1  6  0  0  0
 30 29  1  0  0  0  0
 30 28  1  0  0  0  0
M  END
>  <MODEL>
8

>  <REMARK>
 VINA RESULT:      -7.3      2.132      7.495
  Name = 
  2 active torsions:
  status: ('A' for Active; 'I' for Inactive)
    1  A    between atoms: N_11  and  C_28
    2  A    between atoms: C_28  and  C_30
                            x       y       z     vdW  Elec       q    Type
                         _______ _______ _______ _____ _____    ______ ____

>  <TORSDO>
F 2

$$$$
=
 OpenBabel11122410233D

 30 35  0  0  1  0  0  0  0  0999 V2000
  190.5460  176.9830  140.8430 C   0  0  1  0  0  3  0  0  0  0  0  0
  190.8730  176.6860  143.3670 C   0  0  0  0  0  0  0  0  0  0  0  0
  186.6220  178.7040  141.5870 C   0  0  0  0  0  2  0  0  0  0  0  0
  189.6870  177.7190  139.7850 C   0  0  1  0  0  3  0  0  0  0  0  0
  192.0020  177.3160  140.5630 C   0  0  0  0  0  2  0  0  0  0  0  0
  191.7240  176.4410  137.0180 O   0  0  0  0  0  0  0  0  0  0  0  0
  187.9130  176.7710  137.2470 C   0  0  1  0  0  3  0  0  0  0  0  0
  191.3910  176.8270  138.1740 C   0  0  0  0  0  0  0  0  0  0  0  0
  186.7710  177.3250  138.0960 C   0  0  2  0  0  3  0  0  0  0  0  0
  186.2240  178.6590  140.1590 C   0  0  0  0  0  0  0  0  0  0  0  0
  192.3590  176.8150  139.2410 N   0  0  0  0  0  0  0  0  0  0  0  0
  190.0360  177.2530  138.4310 N   0  0  0  0  0  0  0  0  0  0  0  0
  190.4260  176.8400  144.6830 C   0  0  0  0  0  3  0  0  0  0  0  0
  185.9590  178.1840  137.1490 C   0  0  0  0  0  2  0  0  0  0  0  0
  187.3770  176.7170  135.8260 C   0  0  0  0  0  2  0  0  0  0  0  0
  192.0570  175.9950  143.1370 O   0  0  0  0  0  1  0  0  0  0  0  0
  188.0950  178.4030  141.4380 C   0  0  2  0  0  3  0  0  0  0  0  0
  189.2230  177.4950  144.9510 C   0  0  0  0  0  3  0  0  0  0  0  0
  190.1210  177.2160  142.2960 C   0  0  0  0  0  0  0  0  0  0  0  0
  188.2240  177.5440  140.1950 C   0  0  1  0  0  3  0  0  0  0  0  0
  185.1030  179.0680  139.7560 O   0  0  0  0  0  0  0  0  0  0  0  0
  187.1950  178.0560  139.2950 N   0  0  0  0  0  0  0  0  0  0  0  0
  186.0730  177.5000  135.8040 C   0  0  0  0  0  2  0  0  0  0  0  0
  189.0550  179.0900  137.0880 C   0  0  0  0  0  1  0  0  0  0  0  0
  188.4480  177.9880  143.9020 C   0  0  0  0  0  3  0  0  0  0  0  0
  188.8710  177.8220  142.5790 C   0  0  0  0  0  0  0  0  0  0  0  0
  189.2110  177.5820  137.2720 C   0  0  2  0  0  3  0  0  0  0  0  0
  193.6610  176.1850  139.0740 C   0  0  0  0  0  2  0  0  0  0  0  0
  195.6700  175.6280  140.2180 O   0  0  0  0  0  1  0  0  0  0  0  0
  194.5040  176.3860  140.3190 C   0  0  0  0  0  2  0  0  0  0  0  0
  1  5  1  1  0  0  0
  1 19  1  0  0  0  0
  2 13  1  0  0  0  0
  4 12  1  6  0  0  0
  4 20  1  0  0  0  0
  4  1  1  0  0  0  0
  6  8  2  0  0  0  0
  7 15  1  6  0  0  0
  7 27  1  0  0  0  0
  7  9  1  0  0  0  0
  8 12  1  0  0  0  0
  8 11  1  0  0  0  0
  9 14  1  6  0  0  0
  9 22  1  0  0  0  0
 10  3  1  0  0  0  0
 11  5  1  0  0  0  0
 13 18  2  0  0  0  0
 16  2  1  0  0  0  0
 17  3  1  1  0  0  0
 17 26  1  0  0  0  0
 19 26  1  0  0  0  0
 19  2  2  0  0  0  0
 20 22  1  6  0  0  0
 20 17  1  0  0  0  0
 21 10  2  0  0  0  0
 22 10  1  0  0  0  0
 23 15  1  0  0  0  0
 23 14  1  0  0  0  0
 25 18  1  0  0  0  0
 26 25  2  0  0  0  0
 27 24  1  1  0  0  0
 27 12  1  0  0  0  0
 28 11  1  0  0  0  0
 28 30  1  0  0  0  0
 29 30  1  0  0  0  0
M  END
>  <MODEL>
9

>  <REMARK>
 VINA RESULT:      -7.2      2.785      4.928
  Name = 
  2 active torsions:
  status: ('A' for Active; 'I' for Inactive)
    1  A    between atoms: N_11  and  C_28
    2  A    between atoms: C_28  and  C_30
                            x       y       z     vdW  Elec       q    Type
                         _______ _______ _______ _____ _____    ______ ____

>  <TORSDO>
F 2

$$$$
