=
 OpenBabel11122410313D

 30 35  0  0  1  0  0  0  0  0999 V2000
  187.4600  177.8320  142.4660 C   0  0  0  0  0  0  0  0  0  0  0  0
  188.6700  177.2890  144.5970 C   0  0  0  0  0  0  0  0  0  0  0  0
  183.9230  178.6860  144.5560 N   0  0  0  0  0  0  0  0  0  0  0  0
  186.2600  178.2360  141.8250 C   0  0  0  0  0  0  0  0  0  0  0  0
  188.6270  177.4660  141.5900 C   0  0  0  0  0  2  0  0  0  0  0  0
  187.4340  178.6700  138.4070 O   0  0  0  0  0  0  0  0  0  0  0  0
  183.8670  177.5390  140.1580 C   0  0  1  0  0  3  0  0  0  0  0  0
  187.4490  178.4700  139.6540 C   0  0  0  0  0  0  0  0  0  0  0  0
  183.1060  177.9710  141.3530 N   0  0  2  0  0  0  0  0  0  0  0  0
  183.1400  179.0210  143.5800 C   0  0  0  0  0  0  0  0  0  0  0  0
  188.7570  178.4070  140.3950 C   0  0  2  0  0  3  0  0  0  0  0  0
  186.2140  178.3870  140.3870 N   0  0  0  0  0  0  0  0  0  0  0  0
  188.6420  177.1670  145.9890 C   0  0  0  0  0  3  0  0  0  0  0  0
  181.8860  178.5660  140.8230 C   0  0  0  0  0  2  0  0  0  0  0  0
  182.8660  177.2870  139.0470 C   0  0  0  0  0  2  0  0  0  0  0  0
  189.8680  177.0150  143.9470 O   0  0  0  0  0  1  0  0  0  0  0  0
  185.1690  178.3500  143.9750 C   0  0  0  0  0  0  0  0  0  0  0  0
  187.4790  177.4350  146.7070 C   0  0  0  0  0  3  0  0  0  0  0  0
  187.5040  177.6860  143.8900 C   0  0  0  0  0  0  0  0  0  0  0  0
  185.1390  178.4850  142.6170 C   0  0  0  0  0  0  0  0  0  0  0  0
  181.7490  179.4920  143.8260 C   0  0  0  0  0  1  0  0  0  0  0  0
  183.7840  178.9590  142.2090 C   0  0  1  0  0  3  0  0  0  0  0  0
  181.5480  177.8250  139.5510 C   0  0  0  0  0  2  0  0  0  0  0  0
  184.5190  179.8410  139.6190 O   0  0  0  0  0  1  0  0  0  0  0  0
  186.3240  177.8290  146.0380 C   0  0  0  0  0  3  0  0  0  0  0  0
  186.3250  177.9570  144.6470 C   0  0  0  0  0  0  0  0  0  0  0  0
  184.9520  178.5120  139.6500 C   0  0  2  0  0  3  0  0  0  0  0  0
  189.8930  177.9330  139.4920 C   0  0  0  0  0  2  0  0  0  0  0  0
  190.6840  175.7180  139.0720 O   0  0  0  0  0  1  0  0  0  0  0  0
  190.5650  176.6930  140.0620 C   0  0  0  0  0  2  0  0  0  0  0  0
  1 19  1  0  0  0  0
  2 13  1  0  0  0  0
  4  1  2  0  0  0  0
  4 20  1  0  0  0  0
  5  1  1  0  0  0  0
  6  8  2  0  0  0  0
  7 15  1  6  0  0  0
  7  9  1  0  0  0  0
  8 12  1  0  0  0  0
  8 11  1  0  0  0  0
  9 14  1  6  0  0  0
  9 22  1  0  0  0  0
 10 21  1  0  0  0  0
 10  3  2  0  0  0  0
 11 28  1  6  0  0  0
 11  5  1  0  0  0  0
 12  4  1  0  0  0  0
 13 18  2  0  0  0  0
 15 23  1  0  0  0  0
 16  2  1  0  0  0  0
 17  3  1  0  0  0  0
 17 26  1  0  0  0  0
 19  2  2  0  0  0  0
 19 26  1  0  0  0  0
 20 17  2  0  0  0  0
 22 20  1  1  0  0  0
 22 10  1  0  0  0  0
 23 14  1  0  0  0  0
 25 18  1  0  0  0  0
 26 25  2  0  0  0  0
 27 24  1  1  0  0  0
 27  7  1  0  0  0  0
 27 12  1  0  0  0  0
 28 30  1  0  0  0  0
 29 30  1  0  0  0  0
M  END
>  <MODEL>
1

>  <REMARK>
 VINA RESULT:     -10.1      0.000      0.000
  Name = 
  2 active torsions:
  status: ('A' for Active; 'I' for Inactive)
    1  A    between atoms: C_11  and  C_28
    2  A    between atoms: C_28  and  C_30
                            x       y       z     vdW  Elec       q    Type
                         _______ _______ _______ _____ _____    ______ ____

>  <TORSDO>
F 2

$$$$
=
 OpenBabel11122410313D

 30 35  0  0  1  0  0  0  0  0999 V2000
  187.9990  177.7440  141.7150 C   0  0  0  0  0  0  0  0  0  0  0  0
  189.5990  177.0960  143.5380 C   0  0  0  0  0  0  0  0  0  0  0  0
  184.9570  178.5160  144.5000 N   0  0  0  0  0  0  0  0  0  0  0  0
  186.7020  178.1820  141.3430 C   0  0  0  0  0  0  0  0  0  0  0  0
  188.9650  177.4140  140.6110 C   0  0  0  0  0  2  0  0  0  0  0  0
  187.1840  178.7700  137.7840 O   0  0  0  0  0  0  0  0  0  0  0  0
  184.0170  177.5740  140.1530 C   0  0  1  0  0  3  0  0  0  0  0  0
  187.4420  178.5120  138.9930 C   0  0  0  0  0  0  0  0  0  0  0  0
  183.5140  177.9540  141.4930 N   0  0  2  0  0  0  0  0  0  0  0  0
  184.0000  178.9000  143.7140 C   0  0  0  0  0  0  0  0  0  0  0  0
  188.8700  178.4080  139.4570 C   0  0  2  0  0  3  0  0  0  0  0  0
  186.3750  178.4000  139.9510 N   0  0  0  0  0  0  0  0  0  0  0  0
  189.8440  176.9100  144.9010 C   0  0  0  0  0  3  0  0  0  0  0  0
  182.2210  178.5780  141.2420 C   0  0  0  0  0  2  0  0  0  0  0  0
  182.8140  177.3790  139.2520 C   0  0  0  0  0  2  0  0  0  0  0  0
  190.6410  176.8470  142.6530 O   0  0  0  0  0  1  0  0  0  0  0  0
  186.0580  178.2010  143.6690 C   0  0  0  0  0  0  0  0  0  0  0  0
  188.8490  177.1500  145.8460 C   0  0  0  0  0  3  0  0  0  0  0  0
  188.3220  177.5320  143.0950 C   0  0  0  0  0  0  0  0  0  0  0  0
  185.7630  178.3990  142.3520 C   0  0  0  0  0  0  0  0  0  0  0  0
  182.6920  179.3650  144.2500 C   0  0  0  0  0  1  0  0  0  0  0  0
  184.3600  178.8980  142.2410 C   0  0  1  0  0  3  0  0  0  0  0  0
  181.6290  177.9000  140.0300 C   0  0  0  0  0  2  0  0  0  0  0  0
  184.5820  179.8960  139.5990 O   0  0  0  0  0  1  0  0  0  0  0  0
  187.5900  177.5800  145.4380 C   0  0  0  0  0  3  0  0  0  0  0  0
  187.3190  177.7720  144.0810 C   0  0  0  0  0  0  0  0  0  0  0  0
  184.9940  178.5650  139.4840 C   0  0  2  0  0  3  0  0  0  0  0  0
  189.7980  177.9710  138.3260 C   0  0  0  0  0  2  0  0  0  0  0  0
  191.5660  176.4290  137.8750 O   0  0  0  0  0  1  0  0  0  0  0  0
  190.3870  176.5970  138.6020 C   0  0  0  0  0  2  0  0  0  0  0  0
  1 19  1  0  0  0  0
  2 13  1  0  0  0  0
  4  1  2  0  0  0  0
  4 20  1  0  0  0  0
  5  1  1  0  0  0  0
  6  8  2  0  0  0  0
  7 15  1  6  0  0  0
  7  9  1  0  0  0  0
  8 11  1  0  0  0  0
  8 12  1  0  0  0  0
  9 14  1  6  0  0  0
  9 22  1  0  0  0  0
 10 21  1  0  0  0  0
 10  3  2  0  0  0  0
 11 28  1  6  0  0  0
 11  5  1  0  0  0  0
 12  4  1  0  0  0  0
 13 18  2  0  0  0  0
 15 23  1  0  0  0  0
 16  2  1  0  0  0  0
 17 26  1  0  0  0  0
 17  3  1  0  0  0  0
 19  2  2  0  0  0  0
 19 26  1  0  0  0  0
 20 17  2  0  0  0  0
 22 20  1  1  0  0  0
 22 10  1  0  0  0  0
 23 14  1  0  0  0  0
 25 18  1  0  0  0  0
 26 25  2  0  0  0  0
 27 24  1  1  0  0  0
 27 12  1  0  0  0  0
 27  7  1  0  0  0  0
 28 30  1  0  0  0  0
 29 30  1  0  0  0  0
M  END
>  <MODEL>
2

>  <REMARK>
 VINA RESULT:      -9.5      0.901      1.009
  Name = 
  2 active torsions:
  status: ('A' for Active; 'I' for Inactive)
    1  A    between atoms: C_11  and  C_28
    2  A    between atoms: C_28  and  C_30
                            x       y       z     vdW  Elec       q    Type
                         _______ _______ _______ _____ _____    ______ ____

>  <TORSDO>
F 2

$$$$
=
 OpenBabel11122410313D

 30 35  0  0  1  0  0  0  0  0999 V2000
  187.9080  177.8180  143.2330 C   0  0  0  0  0  0  0  0  0  0  0  0
  186.7620  177.8030  145.4660 C   0  0  0  0  0  0  0  0  0  0  0  0
  184.4120  179.1240  141.3160 N   0  0  0  0  0  0  0  0  0  0  0  0
  187.8330  178.0510  141.8350 C   0  0  0  0  0  0  0  0  0  0  0  0
  189.1960  177.2610  143.7760 C   0  0  0  0  0  2  0  0  0  0  0  0
  191.3280  177.6680  140.8970 O   0  0  0  0  0  0  0  0  0  0  0  0
  187.7030  176.9640  139.0430 C   0  0  1  0  0  3  0  0  0  0  0  0
  190.2930  177.7700  141.6120 C   0  0  0  0  0  0  0  0  0  0  0  0
  186.3980  177.6630  139.0010 N   0  0  2  0  0  0  0  0  0  0  0  0
  184.8260  179.2130  140.0910 C   0  0  0  0  0  0  0  0  0  0  0  0
  190.4150  177.8910  143.1070 C   0  0  2  0  0  3  0  0  0  0  0  0
  188.9950  177.8560  140.9980 N   0  0  0  0  0  0  0  0  0  0  0  0
  185.6010  178.0160  146.2140 C   0  0  0  0  0  3  0  0  0  0  0  0
  186.2590  178.1080  137.6200 C   0  0  0  0  0  2  0  0  0  0  0  0
  187.9900  176.4500  137.6460 C   0  0  0  0  0  2  0  0  0  0  0  0
  187.9030  177.3900  146.1450 O   0  0  0  0  0  1  0  0  0  0  0  0
  185.5120  178.6660  142.0800 C   0  0  0  0  0  0  0  0  0  0  0  0
  184.4240  178.4400  145.6020 C   0  0  0  0  0  3  0  0  0  0  0  0
  186.7570  178.0150  144.0620 C   0  0  0  0  0  0  0  0  0  0  0  0
  186.6150  178.4740  141.3010 C   0  0  0  0  0  0  0  0  0  0  0  0
  183.9420  179.7210  139.0070 C   0  0  0  0  0  1  0  0  0  0  0  0
  186.2790  178.8310  139.8910 C   0  0  1  0  0  3  0  0  0  0  0  0
  186.9520  177.0850  136.7530 C   0  0  0  0  0  2  0  0  0  0  0  0
  188.9490  179.0760  138.9750 O   0  0  0  0  0  1  0  0  0  0  0  0
  184.3930  178.6580  144.2280 C   0  0  0  0  0  3  0  0  0  0  0  0
  185.5400  178.4510  143.4570 C   0  0  0  0  0  0  0  0  0  0  0  0
  188.9080  177.7950  139.5340 C   0  0  2  0  0  3  0  0  0  0  0  0
  191.6860  177.2230  143.6240 C   0  0  0  0  0  2  0  0  0  0  0  0
  191.8900  177.0980  146.0010 O   0  0  0  0  0  1  0  0  0  0  0  0
  191.4070  176.4170  144.8830 C   0  0  0  0  0  2  0  0  0  0  0  0
  1  5  1  0  0  0  0
  1 19  1  0  0  0  0
  2 16  1  0  0  0  0
  2 13  1  0  0  0  0
  3 17  1  0  0  0  0
  4  1  2  0  0  0  0
  6  8  2  0  0  0  0
  7 15  1  6  0  0  0
  7 27  1  0  0  0  0
  8 11  1  0  0  0  0
  9 14  1  6  0  0  0
  9  7  1  0  0  0  0
  9 22  1  0  0  0  0
 10  3  2  0  0  0  0
 11 28  1  1  0  0  0
 11  5  1  0  0  0  0
 12  8  1  0  0  0  0
 12  4  1  0  0  0  0
 17 26  1  0  0  0  0
 18 13  2  0  0  0  0
 19  2  2  0  0  0  0
 20  4  1  0  0  0  0
 20 17  2  0  0  0  0
 21 10  1  0  0  0  0
 22 10  1  1  0  0  0
 22 20  1  0  0  0  0
 23 14  1  0  0  0  0
 23 15  1  0  0  0  0
 25 18  1  0  0  0  0
 26 19  1  0  0  0  0
 26 25  2  0  0  0  0
 27 24  1  6  0  0  0
 27 12  1  0  0  0  0
 28 30  1  0  0  0  0
 30 29  1  0  0  0  0
M  END
>  <MODEL>
3

>  <REMARK>
 VINA RESULT:      -9.4      1.984      3.843
  Name = 
  2 active torsions:
  status: ('A' for Active; 'I' for Inactive)
    1  A    between atoms: C_11  and  C_28
    2  A    between atoms: C_28  and  C_30
                            x       y       z     vdW  Elec       q    Type
                         _______ _______ _______ _____ _____    ______ ____

>  <TORSDO>
F 2

$$$$
=
 OpenBabel11122410313D

 30 35  0  0  1  0  0  0  0  0999 V2000
  186.0740  178.3550  141.8680 C   0  0  0  0  0  0  0  0  0  0  0  0
  183.6560  178.9670  142.1460 C   0  0  0  0  0  0  0  0  0  0  0  0
  186.4780  177.6080  145.9770 N   0  0  0  0  0  0  0  0  0  0  0  0
  187.2930  177.9380  142.4620 C   0  0  0  0  0  0  0  0  0  0  0  0
  186.0920  178.6780  140.3990 C   0  0  0  0  0  2  0  0  0  0  0  0
  189.3290  177.3670  139.5000 O   0  0  0  0  0  0  0  0  0  0  0  0
  190.0730  178.5920  143.3750 C   0  0  1  0  0  3  0  0  0  0  0  0
  188.3230  177.6130  140.2230 C   0  0  0  0  0  0  0  0  0  0  0  0
  189.5550  178.2110  144.7090 N   0  0  2  0  0  0  0  0  0  0  0  0
  187.7200  177.2440  146.0360 C   0  0  0  0  0  0  0  0  0  0  0  0
  186.9510  177.6930  139.6100 C   0  0  2  0  0  3  0  0  0  0  0  0
  188.4710  177.7340  141.6490 N   0  0  0  0  0  0  0  0  0  0  0  0
  182.5570  179.1400  142.9920 C   0  0  0  0  0  3  0  0  0  0  0  0
  190.6920  177.6070  145.3920 C   0  0  0  0  0  2  0  0  0  0  0  0
  191.5670  178.8110  143.5120 C   0  0  0  0  0  2  0  0  0  0  0  0
  183.4720  179.2070  140.7890 O   0  0  0  0  0  1  0  0  0  0  0  0
  186.2120  177.9130  144.6200 C   0  0  0  0  0  0  0  0  0  0  0  0
  182.6660  178.9090  144.3610 C   0  0  0  0  0  3  0  0  0  0  0  0
  184.9070  178.5530  142.6740 C   0  0  0  0  0  0  0  0  0  0  0  0
  187.3170  177.7280  143.8410 C   0  0  0  0  0  0  0  0  0  0  0  0
  188.3380  176.7940  147.3130 C   0  0  0  0  0  1  0  0  0  0  0  0
  188.4400  177.2500  144.7010 C   0  0  1  0  0  3  0  0  0  0  0  0
  191.9330  178.3020  144.8860 C   0  0  0  0  0  2  0  0  0  0  0  0
  190.0610  176.2660  142.5970 O   0  0  0  0  0  1  0  0  0  0  0  0
  183.8800  178.5000  144.9040 C   0  0  0  0  0  3  0  0  0  0  0  0
  184.9940  178.3210  144.0790 C   0  0  0  0  0  0  0  0  0  0  0  0
  189.8110  177.5920  142.2290 C   0  0  2  0  0  3  0  0  0  0  0  0
  187.0130  178.1240  138.1480 C   0  0  0  0  0  2  0  0  0  0  0  0
  187.2150  175.9140  137.2640 O   0  0  0  0  0  1  0  0  0  0  0  0
  186.4200  177.0600  137.2380 C   0  0  0  0  0  2  0  0  0  0  0  0
  1  4  2  0  0  0  0
  1 19  1  0  0  0  0
  2 19  2  0  0  0  0
  2 13  1  0  0  0  0
  3 10  2  0  0  0  0
  4 20  1  0  0  0  0
  5  1  1  0  0  0  0
  6  8  2  0  0  0  0
  7 15  1  1  0  0  0
  7  9  1  0  0  0  0
  8 12  1  0  0  0  0
  9 14  1  1  0  0  0
 10 21  1  0  0  0  0
 11 28  1  6  0  0  0
 11  8  1  0  0  0  0
 11  5  1  0  0  0  0
 12 27  1  0  0  0  0
 12  4  1  0  0  0  0
 13 18  2  0  0  0  0
 15 23  1  0  0  0  0
 16  2  1  0  0  0  0
 17  3  1  0  0  0  0
 18 25  1  0  0  0  0
 19 26  1  0  0  0  0
 20 17  2  0  0  0  0
 22 20  1  6  0  0  0
 22  9  1  0  0  0  0
 22 10  1  0  0  0  0
 23 14  1  0  0  0  0
 26 17  1  0  0  0  0
 26 25  2  0  0  0  0
 27 24  1  1  0  0  0
 27  7  1  0  0  0  0
 30 29  1  0  0  0  0
 30 28  1  0  0  0  0
M  END
>  <MODEL>
4

>  <REMARK>
 VINA RESULT:      -9.1      2.021      5.584
  Name = 
  2 active torsions:
  status: ('A' for Active; 'I' for Inactive)
    1  A    between atoms: C_11  and  C_28
    2  A    between atoms: C_28  and  C_30
                            x       y       z     vdW  Elec       q    Type
                         _______ _______ _______ _____ _____    ______ ____

>  <TORSDO>
F 2

$$$$
=
 OpenBabel11122410313D

 30 35  0  0  1  0  0  0  0  0999 V2000
  187.4230  178.1350  140.2320 C   0  0  0  0  0  0  0  0  0  0  0  0
  185.2240  178.9710  139.3580 C   0  0  0  0  0  0  0  0  0  0  0  0
  185.9170  177.9130  144.1420 N   0  0  0  0  0  0  0  0  0  0  0  0
  188.2020  177.7040  141.3380 C   0  0  0  0  0  0  0  0  0  0  0  0
  188.1150  178.2580  138.9020 C   0  0  0  0  0  2  0  0  0  0  0  0
  191.2210  176.5830  139.6440 O   0  0  0  0  0  0  0  0  0  0  0  0
  190.3770  178.2500  143.3290 C   0  0  1  0  0  3  0  0  0  0  0  0
  190.0430  177.0030  139.8240 C   0  0  0  0  0  0  0  0  0  0  0  0
  189.2890  178.0920  144.3220 N   0  0  2  0  0  0  0  0  0  0  0  0
  186.9530  177.4610  144.7760 C   0  0  0  0  0  0  0  0  0  0  0  0
  189.0930  177.1110  138.6620 C   0  0  2  0  0  3  0  0  0  0  0  0
  189.5770  177.3000  141.1510 N   0  0  0  0  0  0  0  0  0  0  0  0
  183.9010  179.3440  139.6120 C   0  0  0  0  0  3  0  0  0  0  0  0
  189.9320  177.4950  145.4870 C   0  0  0  0  0  2  0  0  0  0  0  0
  191.6800  178.3630  144.0950 C   0  0  0  0  0  2  0  0  0  0  0  0
  185.6760  179.0420  138.0450 O   0  0  0  0  0  1  0  0  0  0  0  0
  186.3040  178.0540  142.7880 C   0  0  0  0  0  0  0  0  0  0  0  0
  183.3790  179.2890  140.9020 C   0  0  0  0  0  3  0  0  0  0  0  0
  186.0600  178.5320  140.4190 C   0  0  0  0  0  0  0  0  0  0  0  0
  187.6020  177.6790  142.5980 C   0  0  0  0  0  0  0  0  0  0  0  0
  186.8960  177.1370  146.2270 C   0  0  0  0  0  1  0  0  0  0  0  0
  188.1710  177.2310  143.9030 C   0  0  1  0  0  3  0  0  0  0  0  0
  191.3490  178.0150  145.5260 C   0  0  0  0  0  2  0  0  0  0  0  0
  190.3970  175.8490  142.8250 O   0  0  0  0  0  1  0  0  0  0  0  0
  184.1760  178.8590  141.9590 C   0  0  0  0  0  3  0  0  0  0  0  0
  185.5020  178.4830  141.7310 C   0  0  0  0  0  0  0  0  0  0  0  0
  190.5060  177.1300  142.2750 C   0  0  2  0  0  3  0  0  0  0  0  0
  189.8340  177.3360  137.3470 C   0  0  0  0  0  2  0  0  0  0  0  0
  189.0170  177.7150  135.1350 O   0  0  0  0  0  1  0  0  0  0  0  0
  189.0450  178.2500  136.4230 C   0  0  0  0  0  2  0  0  0  0  0  0
  1 19  2  0  0  0  0
  1  4  1  0  0  0  0
  2 13  2  0  0  0  0
  2 19  1  0  0  0  0
  3 10  2  0  0  0  0
  4 20  2  0  0  0  0
  5  1  1  0  0  0  0
  6  8  2  0  0  0  0
  7 15  1  1  0  0  0
  7  9  1  0  0  0  0
  8 12  1  0  0  0  0
  9 14  1  1  0  0  0
 10 21  1  0  0  0  0
 11 28  1  6  0  0  0
 11  5  1  0  0  0  0
 11  8  1  0  0  0  0
 12  4  1  0  0  0  0
 12 27  1  0  0  0  0
 13 18  1  0  0  0  0
 14 23  1  0  0  0  0
 15 23  1  0  0  0  0
 16  2  1  0  0  0  0
 17  3  1  0  0  0  0
 18 25  2  0  0  0  0
 19 26  1  0  0  0  0
 20 17  1  0  0  0  0
 22 20  1  6  0  0  0
 22  9  1  0  0  0  0
 22 10  1  0  0  0  0
 26 25  1  0  0  0  0
 26 17  2  0  0  0  0
 27 24  1  1  0  0  0
 27  7  1  0  0  0  0
 29 30  1  0  0  0  0
 30 28  1  0  0  0  0
M  END
>  <MODEL>
5

>  <REMARK>
 VINA RESULT:      -8.8      2.034      5.764
  Name = 
  2 active torsions:
  status: ('A' for Active; 'I' for Inactive)
    1  A    between atoms: C_11  and  C_28
    2  A    between atoms: C_28  and  C_30
                            x       y       z     vdW  Elec       q    Type
                         _______ _______ _______ _____ _____    ______ ____

>  <TORSDO>
F 2

$$$$
=
 OpenBabel11122410313D

 30 35  0  0  1  0  0  0  0  0999 V2000
  189.4170  177.2650  143.0700 C   0  0  0  0  0  0  0  0  0  0  0  0
  191.2840  176.2470  144.4040 C   0  0  0  0  0  0  0  0  0  0  0  0
  187.2430  178.1290  146.5530 N   0  0  0  0  0  0  0  0  0  0  0  0
  188.1460  177.8950  143.0520 C   0  0  0  0  0  0  0  0  0  0  0  0
  190.0440  176.9280  141.7450 C   0  0  0  0  0  2  0  0  0  0  0  0
  187.8730  178.7670  139.5300 O   0  0  0  0  0  0  0  0  0  0  0  0
  185.2010  177.7450  142.5100 C   0  0  1  0  0  3  0  0  0  0  0  0
  188.3630  178.3610  140.6200 C   0  0  0  0  0  0  0  0  0  0  0  0
  185.0800  178.0500  143.9540 N   0  0  2  0  0  0  0  0  0  0  0  0
  186.1970  178.7040  146.0490 C   0  0  0  0  0  0  0  0  0  0  0  0
  189.8300  178.0360  140.7170 C   0  0  2  0  0  3  0  0  0  0  0  0
  187.5420  178.2880  141.7990 N   0  0  0  0  0  0  0  0  0  0  0  0
  191.8080  175.8980  145.6520 C   0  0  0  0  0  3  0  0  0  0  0  0
  183.8680  178.8520  144.0660 C   0  0  0  0  0  2  0  0  0  0  0  0
  183.8060  177.7910  141.9160 C   0  0  0  0  0  2  0  0  0  0  0  0
  192.0470  175.9590  143.2780 O   0  0  0  0  0  1  0  0  0  0  0  0
  188.0660  177.7630  145.4610 C   0  0  0  0  0  0  0  0  0  0  0  0
  191.1030  176.1640  146.8230 C   0  0  0  0  0  3  0  0  0  0  0  0
  190.0150  176.8790  144.3130 C   0  0  0  0  0  0  0  0  0  0  0  0
  187.5060  178.1260  144.2710 C   0  0  0  0  0  0  0  0  0  0  0  0
  185.1290  179.2720  146.9160 C   0  0  0  0  0  1  0  0  0  0  0  0
  186.2030  178.8040  144.5360 C   0  0  1  0  0  3  0  0  0  0  0  0
  182.9200  178.3740  142.9910 C   0  0  0  0  0  2  0  0  0  0  0  0
  185.9500  180.0230  141.9910 O   0  0  0  0  0  1  0  0  0  0  0  0
  189.8590  176.7850  146.7620 C   0  0  0  0  0  3  0  0  0  0  0  0
  189.3120  177.1430  145.5260 C   0  0  0  0  0  0  0  0  0  0  0  0
  186.1290  178.6680  141.6920 C   0  0  2  0  0  3  0  0  0  0  0  0
  190.3990  177.6010  139.3690 C   0  0  0  0  0  2  0  0  0  0  0  0
  191.0140  175.4270  138.5930 O   0  0  0  0  0  1  0  0  0  0  0  0
  189.9290  176.2020  139.0020 C   0  0  0  0  0  2  0  0  0  0  0  0
  1 19  1  0  0  0  0
  2 13  1  0  0  0  0
  4  1  2  0  0  0  0
  4 20  1  0  0  0  0
  5  1  1  0  0  0  0
  6  8  2  0  0  0  0
  7 15  1  6  0  0  0
  7  9  1  0  0  0  0
  8 11  1  0  0  0  0
  8 12  1  0  0  0  0
  9 14  1  6  0  0  0
  9 22  1  0  0  0  0
 10  3  2  0  0  0  0
 10 21  1  0  0  0  0
 11 28  1  6  0  0  0
 11  5  1  0  0  0  0
 12  4  1  0  0  0  0
 13 18  2  0  0  0  0
 15 23  1  0  0  0  0
 16  2  1  0  0  0  0
 17 26  1  0  0  0  0
 17  3  1  0  0  0  0
 19  2  2  0  0  0  0
 19 26  1  0  0  0  0
 20 17  2  0  0  0  0
 22 20  1  6  0  0  0
 22 10  1  0  0  0  0
 23 14  1  0  0  0  0
 25 18  1  0  0  0  0
 26 25  2  0  0  0  0
 27 12  1  0  0  0  0
 27 24  1  1  0  0  0
 27  7  1  0  0  0  0
 29 30  1  0  0  0  0
 30 28  1  0  0  0  0
M  END
>  <MODEL>
6

>  <REMARK>
 VINA RESULT:      -8.8      1.734      2.870
  Name = 
  2 active torsions:
  status: ('A' for Active; 'I' for Inactive)
    1  A    between atoms: C_11  and  C_28
    2  A    between atoms: C_28  and  C_30
                            x       y       z     vdW  Elec       q    Type
                         _______ _______ _______ _____ _____    ______ ____

>  <TORSDO>
F 2

$$$$
=
 OpenBabel11122410313D

 30 35  0  0  1  0  0  0  0  0999 V2000
  188.1380  177.6650  142.4970 C   0  0  0  0  0  0  0  0  0  0  0  0
  185.9770  178.1180  143.6890 C   0  0  0  0  0  0  0  0  0  0  0  0
  186.4480  178.6940  138.7970 N   0  0  0  0  0  0  0  0  0  0  0  0
  188.8630  177.6270  141.2780 C   0  0  0  0  0  0  0  0  0  0  0  0
  188.8380  177.1810  143.7370 C   0  0  0  0  0  2  0  0  0  0  0  0
  192.2210  176.9550  142.5090 O   0  0  0  0  0  0  0  0  0  0  0  0
  190.1200  176.0290  139.0740 C   0  0  1  0  0  3  0  0  0  0  0  0
  190.9880  177.2270  142.5040 C   0  0  0  0  0  0  0  0  0  0  0  0
  189.1540  176.7500  138.2140 N   0  0  2  0  0  0  0  0  0  0  0  0
  187.4660  178.5320  138.0120 C   0  0  0  0  0  0  0  0  0  0  0  0
  190.2970  177.6300  143.7790 C   0  0  2  0  0  3  0  0  0  0  0  0
  190.2550  177.2360  141.2660 N   0  0  0  0  0  0  0  0  0  0  0  0
  184.6360  178.5090  143.6250 C   0  0  0  0  0  3  0  0  0  0  0  0
  189.8450  176.9250  136.9430 C   0  0  0  0  0  2  0  0  0  0  0  0
  191.0460  175.2460  138.1630 C   0  0  0  0  0  2  0  0  0  0  0  0
  186.5010  177.8050  144.9380 O   0  0  0  0  0  1  0  0  0  0  0  0
  186.8870  178.3550  140.1000 C   0  0  0  0  0  0  0  0  0  0  0  0
  184.0470  178.8460  142.4090 C   0  0  0  0  0  3  0  0  0  0  0  0
  186.7600  178.0560  142.5070 C   0  0  0  0  0  0  0  0  0  0  0  0
  188.1990  177.9800  140.1030 C   0  0  0  0  0  0  0  0  0  0  0  0
  187.3870  178.8500  136.5600 C   0  0  0  0  0  1  0  0  0  0  0  0
  188.7300  178.0700  138.7110 C   0  0  1  0  0  3  0  0  0  0  0  0
  190.7520  175.7320  136.7640 C   0  0  0  0  0  2  0  0  0  0  0  0
  191.4750  178.0450  139.4120 O   0  0  0  0  0  1  0  0  0  0  0  0
  184.7940  178.7970  141.2360 C   0  0  0  0  0  3  0  0  0  0  0  0
  186.1360  178.4070  141.2730 C   0  0  0  0  0  0  0  0  0  0  0  0
  190.9660  176.8980  140.0290 C   0  0  2  0  0  3  0  0  0  0  0  0
  190.9820  177.0310  145.0040 C   0  0  0  0  0  2  0  0  0  0  0  0
  190.8910  176.9130  147.3880 O   0  0  0  0  0  1  0  0  0  0  0  0
  190.1430  177.2360  146.2550 C   0  0  0  0  0  2  0  0  0  0  0  0
  1 19  1  0  0  0  0
  1  5  1  0  0  0  0
  2 16  1  0  0  0  0
  3 17  1  0  0  0  0
  4  1  2  0  0  0  0
  5 11  1  0  0  0  0
  7 15  1  6  0  0  0
  7 27  1  0  0  0  0
  8  6  2  0  0  0  0
  8 11  1  0  0  0  0
  9 14  1  6  0  0  0
  9 22  1  0  0  0  0
  9  7  1  0  0  0  0
 10  3  2  0  0  0  0
 11 28  1  1  0  0  0
 12  4  1  0  0  0  0
 12  8  1  0  0  0  0
 13  2  1  0  0  0  0
 17 20  2  0  0  0  0
 17 26  1  0  0  0  0
 18 13  2  0  0  0  0
 19  2  2  0  0  0  0
 20  4  1  0  0  0  0
 21 10  1  0  0  0  0
 22 10  1  6  0  0  0
 22 20  1  0  0  0  0
 23 14  1  0  0  0  0
 23 15  1  0  0  0  0
 25 26  2  0  0  0  0
 25 18  1  0  0  0  0
 26 19  1  0  0  0  0
 27 24  1  6  0  0  0
 27 12  1  0  0  0  0
 28 30  1  0  0  0  0
 30 29  1  0  0  0  0
M  END
>  <MODEL>
7

>  <REMARK>
 VINA RESULT:      -8.6      2.597      5.908
  Name = 
  2 active torsions:
  status: ('A' for Active; 'I' for Inactive)
    1  A    between atoms: C_11  and  C_28
    2  A    between atoms: C_28  and  C_30
                            x       y       z     vdW  Elec       q    Type
                         _______ _______ _______ _____ _____    ______ ____

>  <TORSDO>
F 2

$$$$
=
 OpenBabel11122410313D

 30 35  0  0  1  0  0  0  0  0999 V2000
  187.3350  177.9100  142.5160 C   0  0  0  0  0  0  0  0  0  0  0  0
  186.3650  177.9880  144.8300 C   0  0  0  0  0  0  0  0  0  0  0  0
  183.7390  179.2730  140.8380 N   0  0  0  0  0  0  0  0  0  0  0  0
  187.1580  178.1090  141.1220 C   0  0  0  0  0  0  0  0  0  0  0  0
  188.6440  177.3280  142.9740 C   0  0  0  0  0  2  0  0  0  0  0  0
  190.5570  177.5940  139.9290 O   0  0  0  0  0  0  0  0  0  0  0  0
  186.7800  176.9550  138.3800 C   0  0  1  0  0  3  0  0  0  0  0  0
  189.5830  177.7460  140.7190 C   0  0  0  0  0  0  0  0  0  0  0  0
  185.4970  177.6930  138.4190 N   0  0  2  0  0  0  0  0  0  0  0  0
  184.0590  179.3180  139.5830 C   0  0  0  0  0  0  0  0  0  0  0  0
  189.8250  177.9030  142.1960 C   0  0  2  0  0  3  0  0  0  0  0  0
  188.2450  177.8560  140.2030 N   0  0  0  0  0  0  0  0  0  0  0  0
  185.2720  178.2550  145.6590 C   0  0  0  0  0  3  0  0  0  0  0  0
  185.2630  178.1060  137.0410 C   0  0  0  0  0  2  0  0  0  0  0  0
  186.9430  176.3960  136.9800 C   0  0  0  0  0  2  0  0  0  0  0  0
  187.5430  177.5570  145.4300 O   0  0  0  0  0  1  0  0  0  0  0  0
  184.8810  178.8010  141.5270 C   0  0  0  0  0  0  0  0  0  0  0  0
  184.0640  178.7000  145.1270 C   0  0  0  0  0  3  0  0  0  0  0  0
  186.2570  178.1630  143.4250 C   0  0  0  0  0  0  0  0  0  0  0  0
  185.9150  178.5560  140.6710 C   0  0  0  0  0  0  0  0  0  0  0  0
  183.1080  179.8240  138.5560 C   0  0  0  0  0  1  0  0  0  0  0  0
  185.4810  178.8860  139.2820 C   0  0  1  0  0  3  0  0  0  0  0  0
  185.8570  177.0400  136.1520 C   0  0  0  0  0  2  0  0  0  0  0  0
  188.0770  179.0250  138.1570 O   0  0  0  0  0  1  0  0  0  0  0  0
  183.9330  178.8830  143.7540 C   0  0  0  0  0  3  0  0  0  0  0  0
  185.0100  178.6210  142.9030 C   0  0  0  0  0  0  0  0  0  0  0  0
  188.0430  177.7610  138.7530 C   0  0  2  0  0  3  0  0  0  0  0  0
  191.1120  177.2080  142.6320 C   0  0  0  0  0  2  0  0  0  0  0  0
  191.7980  175.3500  143.9680 O   0  0  0  0  0  1  0  0  0  0  0  0
  190.9000  176.4170  143.9130 C   0  0  0  0  0  2  0  0  0  0  0  0
  1  5  1  0  0  0  0
  1 19  1  0  0  0  0
  2 16  1  0  0  0  0
  2 13  1  0  0  0  0
  3 17  1  0  0  0  0
  4  1  2  0  0  0  0
  6  8  2  0  0  0  0
  7 15  1  6  0  0  0
  7  9  1  0  0  0  0
  7 27  1  0  0  0  0
  8 11  1  0  0  0  0
  9 14  1  6  0  0  0
  9 22  1  0  0  0  0
 10  3  2  0  0  0  0
 11 28  1  1  0  0  0
 11  5  1  0  0  0  0
 12  8  1  0  0  0  0
 12  4  1  0  0  0  0
 17 26  1  0  0  0  0
 18 13  2  0  0  0  0
 19  2  2  0  0  0  0
 20  4  1  0  0  0  0
 20 17  2  0  0  0  0
 21 10  1  0  0  0  0
 22 10  1  1  0  0  0
 22 20  1  0  0  0  0
 23 15  1  0  0  0  0
 23 14  1  0  0  0  0
 25 18  1  0  0  0  0
 26 19  1  0  0  0  0
 26 25  2  0  0  0  0
 27 24  1  1  0  0  0
 27 12  1  0  0  0  0
 28 30  1  0  0  0  0
 30 29  1  0  0  0  0
M  END
>  <MODEL>
8

>  <REMARK>
 VINA RESULT:      -8.4      1.909      3.462
  Name = 
  2 active torsions:
  status: ('A' for Active; 'I' for Inactive)
    1  A    between atoms: C_11  and  C_28
    2  A    between atoms: C_28  and  C_30
                            x       y       z     vdW  Elec       q    Type
                         _______ _______ _______ _____ _____    ______ ____

>  <TORSDO>
F 2

$$$$
=
 OpenBabel11122410313D

 30 35  0  0  1  0  0  0  0  0999 V2000
  186.1170  178.2770  141.9720 C   0  0  0  0  0  0  0  0  0  0  0  0
  185.1090  178.4620  144.2630 C   0  0  0  0  0  0  0  0  0  0  0  0
  182.4310  179.1240  140.1540 N   0  0  0  0  0  0  0  0  0  0  0  0
  185.9430  178.3330  140.5640 C   0  0  0  0  0  0  0  0  0  0  0  0
  187.4690  177.8690  142.4890 C   0  0  0  0  0  2  0  0  0  0  0  0
  189.3940  178.0530  139.4450 O   0  0  0  0  0  0  0  0  0  0  0  0
  185.7230  176.9100  137.9340 C   0  0  1  0  0  3  0  0  0  0  0  0
  188.3980  178.1780  140.2120 C   0  0  0  0  0  0  0  0  0  0  0  0
  184.3730  177.5180  137.8980 N   0  0  2  0  0  0  0  0  0  0  0  0
  182.7650  179.0890  138.9020 C   0  0  0  0  0  0  0  0  0  0  0  0
  188.6000  178.4870  141.6710 C   0  0  2  0  0  3  0  0  0  0  0  0
  187.0640  178.1090  139.6790 N   0  0  0  0  0  0  0  0  0  0  0  0
  183.9820  178.6920  145.0570 C   0  0  0  0  0  3  0  0  0  0  0  0
  184.1210  177.7820  136.4870 C   0  0  0  0  0  2  0  0  0  0  0  0
  185.9610  176.2490  136.5910 C   0  0  0  0  0  2  0  0  0  0  0  0
  186.3130  178.2050  144.9070 O   0  0  0  0  0  1  0  0  0  0  0  0
  183.6040  178.8300  140.8910 C   0  0  0  0  0  0  0  0  0  0  0  0
  182.7440  178.9660  144.4790 C   0  0  0  0  0  3  0  0  0  0  0  0
  185.0050  178.5020  142.8470 C   0  0  0  0  0  0  0  0  0  0  0  0
  184.6700  178.6130  140.0670 C   0  0  0  0  0  0  0  0  0  0  0  0
  181.7850  179.4060  137.8270 C   0  0  0  0  0  1  0  0  0  0  0  0
  184.2270  178.7750  138.6500 C   0  0  1  0  0  3  0  0  0  0  0  0
  184.8310  176.7060  135.7010 C   0  0  0  0  0  2  0  0  0  0  0  0
  186.8140  179.0700  137.5360 O   0  0  0  0  0  1  0  0  0  0  0  0
  182.6170  179.0130  143.0940 C   0  0  0  0  0  3  0  0  0  0  0  0
  183.7280  178.7850  142.2780 C   0  0  0  0  0  0  0  0  0  0  0  0
  186.8950  177.8660  138.2420 C   0  0  2  0  0  3  0  0  0  0  0  0
  189.9420  177.9650  142.1760 C   0  0  0  0  0  2  0  0  0  0  0  0
  190.2600  175.6140  142.4580 O   0  0  0  0  0  1  0  0  0  0  0  0
  189.7550  176.7560  143.0790 C   0  0  0  0  0  2  0  0  0  0  0  0
  1  5  1  0  0  0  0
  1 19  1  0  0  0  0
  2 16  1  0  0  0  0
  2 13  1  0  0  0  0
  3 17  1  0  0  0  0
  4  1  2  0  0  0  0
  6  8  2  0  0  0  0
  7 15  1  6  0  0  0
  7 27  1  0  0  0  0
  8 11  1  0  0  0  0
  9 14  1  6  0  0  0
  9  7  1  0  0  0  0
  9 22  1  0  0  0  0
 10  3  2  0  0  0  0
 11 28  1  1  0  0  0
 11  5  1  0  0  0  0
 12  8  1  0  0  0  0
 12  4  1  0  0  0  0
 17 26  1  0  0  0  0
 18 13  2  0  0  0  0
 19  2  2  0  0  0  0
 20  4  1  0  0  0  0
 20 17  2  0  0  0  0
 21 10  1  0  0  0  0
 22 10  1  1  0  0  0
 22 20  1  0  0  0  0
 23 14  1  0  0  0  0
 23 15  1  0  0  0  0
 25 18  1  0  0  0  0
 26 19  1  0  0  0  0
 26 25  2  0  0  0  0
 27 24  1  6  0  0  0
 27 12  1  0  0  0  0
 28 30  1  0  0  0  0
 29 30  1  0  0  0  0
M  END
>  <MODEL>
9

>  <REMARK>
 VINA RESULT:      -8.2      1.956      3.613
  Name = 
  2 active torsions:
  status: ('A' for Active; 'I' for Inactive)
    1  A    between atoms: C_11  and  C_28
    2  A    between atoms: C_28  and  C_30
                            x       y       z     vdW  Elec       q    Type
                         _______ _______ _______ _____ _____    ______ ____

>  <TORSDO>
F 2

$$$$
