=
 OpenBabel11122410483D

 32 37  0  0  1  0  0  0  0  0999 V2000
  188.4050  176.9450  148.0930 C   0  0  0  0  0  2  0  0  0  0  0  0
  187.4090  178.1700  142.8310 C   0  0  0  0  0  0  0  0  0  0  0  0
  191.2670  177.1640  139.7890 C   0  0  0  0  0  2  0  0  0  0  0  0
  190.2520  176.8080  138.8850 O   0  0  0  0  0  0  0  0  0  0  0  0
  185.2030  178.7350  141.8220 C   0  0  0  0  0  0  0  0  0  0  0  0
  184.5310  178.7500  140.6720 C   0  0  0  0  0  0  0  0  0  0  0  0
  187.5490  177.7070  145.2550 C   0  0  1  0  0  3  0  0  0  0  0  0
  189.5970  177.4820  143.8600 C   0  0  0  0  0  2  0  0  0  0  0  0
  184.1360  178.3260  138.3570 C   0  0  2  0  0  3  0  0  0  0  0  0
  189.8940  177.6030  146.3150 C   0  0  0  0  0  2  0  0  0  0  0  0
  190.7450  177.0270  141.2210 C   0  0  0  0  0  2  0  0  0  0  0  0
  188.8100  177.8550  142.6810 N   0  0  0  0  0  0  0  0  0  0  0  0
  189.3810  177.6640  141.3690 C   0  0  0  0  0  0  0  0  0  0  0  0
  187.3520  178.6930  140.4020 C   0  0  1  0  0  3  0  0  0  0  0  0
  182.8100  178.6080  139.1070 C   0  0  0  0  0  3  0  0  0  0  0  0
  187.6620  178.2570  147.7900 C   0  0  0  0  0  2  0  0  0  0  0  0
  189.0390  178.0950  145.1390 C   0  0  2  0  0  3  0  0  0  0  0  0
  183.1290  178.8100  140.5230 N   0  0  0  0  0  0  0  0  0  0  0  0
  186.8240  178.2180  146.5080 C   0  0  0  0  0  2  0  0  0  0  0  0
  189.2560  176.4740  146.9920 N   0  0  0  0  0  0  0  0  0  0  0  0
  189.3150  177.8580  138.9130 C   0  0  0  0  0  2  0  0  0  0  0  0
  188.6640  177.9690  140.2700 C   0  0  0  0  0  0  0  0  0  0  0  0
  186.4510  178.4050  139.2730 N   0  0  0  0  0  0  0  0  0  0  0  0
  186.8270  178.1300  144.1020 O   0  0  0  0  0  0  0  0  0  0  0  0
  184.5300  178.8970  143.0280 O   0  0  0  0  0  1  0  0  0  0  0  0
  184.1400  176.8910  137.8670 C   0  0  0  0  0  1  0  0  0  0  0  0
  186.6730  178.5020  141.7560 C   0  0  0  0  0  0  0  0  0  0  0  0
  185.1630  178.5050  139.4120 C   0  0  0  0  0  0  0  0  0  0  0  0
  190.3200  175.6810  147.5860 C   0  0  0  0  0  2  0  0  0  0  0  0
  191.6680  176.1240  147.0450 C   0  0  0  0  0  3  0  0  0  0  0  0
  192.0410  175.2590  145.8600 C   0  0  0  0  0  1  0  0  0  0  0  0
  192.7330  175.9850  148.1170 C   0  0  0  0  0  1  0  0  0  0  0  0
  2 24  1  0  0  0  0
  3 11  1  0  0  0  0
  4 21  1  0  0  0  0
  4  3  1  0  0  0  0
  5 25  1  0  0  0  0
  6  5  2  0  0  0  0
  7 19  1  1  0  0  0
  9 26  1  1  0  0  0
  9 15  1  0  0  0  0
  9 28  1  0  0  0  0
 10 20  1  0  0  0  0
 11 13  1  0  0  0  0
 12  2  1  0  0  0  0
 12  8  1  0  0  0  0
 13 12  1  0  0  0  0
 14 23  1  6  0  0  0
 14 27  1  0  0  0  0
 15 18  2  0  0  0  0
 16  1  1  0  0  0  0
 17  8  1  6  0  0  0
 17  7  1  0  0  0  0
 17 10  1  0  0  0  0
 18  6  1  0  0  0  0
 19 16  1  0  0  0  0
 20 29  1  0  0  0  0
 20  1  1  0  0  0  0
 21 22  1  0  0  0  0
 22 14  1  0  0  0  0
 22 13  2  0  0  0  0
 23 28  2  0  0  0  0
 24  7  1  0  0  0  0
 27  5  1  0  0  0  0
 27  2  2  0  0  0  0
 28  6  1  0  0  0  0
 30 29  1  0  0  0  0
 30 32  1  0  0  0  0
 31 30  1  0  0  0  0
M  END
>  <MODEL>
1

>  <REMARK>
 VINA RESULT:      -9.5      0.000      0.000
  Name = 
  2 active torsions:
  status: ('A' for Active; 'I' for Inactive)
    1  A    between atoms: N_20  and  C_29
    2  A    between atoms: C_29  and  C_30
                            x       y       z     vdW  Elec       q    Type
                         _______ _______ _______ _____ _____    ______ ____

>  <TORSDO>
F 2

$$$$
=
 OpenBabel11122410483D

 32 37  0  0  1  0  0  0  0  0999 V2000
  179.9510  179.8780  142.7340 C   0  0  0  0  0  2  0  0  0  0  0  0
  185.1890  178.2460  142.4360 C   0  0  0  0  0  0  0  0  0  0  0  0
  187.0740  178.4430  137.7930 C   0  0  0  0  0  2  0  0  0  0  0  0
  188.2490  178.8270  138.4600 O   0  0  0  0  0  0  0  0  0  0  0  0
  186.7410  177.8570  144.3440 C   0  0  0  0  0  0  0  0  0  0  0  0
  188.0310  177.8060  144.6730 C   0  0  0  0  0  0  0  0  0  0  0  0
  182.8600  178.9380  142.8910 C   0  0  1  0  0  3  0  0  0  0  0  0
  183.6300  178.7600  140.5320 C   0  0  0  0  0  2  0  0  0  0  0  0
  190.3850  178.0330  144.3590 C   0  0  2  0  0  3  0  0  0  0  0  0
  181.1890  178.8600  140.9320 C   0  0  0  0  0  2  0  0  0  0  0  0
  185.8600  178.7930  138.6570 C   0  0  0  0  0  2  0  0  0  0  0  0
  184.9570  178.3680  141.0160 N   0  0  0  0  0  0  0  0  0  0  0  0
  186.0630  178.3480  140.0890 C   0  0  0  0  0  0  0  0  0  0  0  0
  187.4940  177.4840  141.9090 C   0  0  1  0  0  3  0  0  0  0  0  0
  190.0250  177.9970  145.8650 C   0  0  0  0  0  3  0  0  0  0  0  0
  180.3660  178.6440  143.5520 C   0  0  0  0  0  2  0  0  0  0  0  0
  182.5240  178.3570  141.5000 C   0  0  2  0  0  3  0  0  0  0  0  0
  188.5660  177.9050  145.9760 N   0  0  0  0  0  0  0  0  0  0  0  0
  181.8320  178.6540  143.9960 C   0  0  0  0  0  2  0  0  0  0  0  0
  180.7950  180.1230  141.5550 N   0  0  0  0  0  0  0  0  0  0  0  0
  188.4190  177.9100  139.5150 C   0  0  0  0  0  2  0  0  0  0  0  0
  187.2980  178.0220  140.5180 C   0  0  0  0  0  0  0  0  0  0  0  0
  188.8490  177.7630  142.4180 N   0  0  0  0  0  0  0  0  0  0  0  0
  184.1390  178.4900  143.3270 O   0  0  0  0  0  0  0  0  0  0  0  0
  185.7670  177.9070  145.3350 O   0  0  0  0  0  1  0  0  0  0  0  0
  190.9470  179.3980  144.0100 C   0  0  0  0  0  1  0  0  0  0  0  0
  186.4040  177.8980  142.8930 C   0  0  0  0  0  0  0  0  0  0  0  0
  189.0740  177.8380  143.6950 C   0  0  0  0  0  0  0  0  0  0  0  0
  179.9770  180.8350  140.5870 C   0  0  0  0  0  2  0  0  0  0  0  0
  180.4160  180.4890  139.1750 C   0  0  0  0  0  3  0  0  0  0  0  0
  181.3550  181.5610  138.6650 C   0  0  0  0  0  1  0  0  0  0  0  0
  179.2100  180.4070  138.2580 C   0  0  0  0  0  1  0  0  0  0  0  0
  1 16  1  0  0  0  0
  2 27  2  0  0  0  0
  2 24  1  0  0  0  0
  3  4  1  0  0  0  0
  3 11  1  0  0  0  0
  4 21  1  0  0  0  0
  5  6  2  0  0  0  0
  5 25  1  0  0  0  0
  6 18  1  0  0  0  0
  7 24  1  0  0  0  0
  7 19  1  1  0  0  0
  8 12  1  0  0  0  0
  9 26  1  6  0  0  0
  9 15  1  0  0  0  0
 10 17  1  0  0  0  0
 10 20  1  0  0  0  0
 11 13  1  0  0  0  0
 12  2  1  0  0  0  0
 13 22  2  0  0  0  0
 13 12  1  0  0  0  0
 14 22  1  6  0  0  0
 14 23  1  0  0  0  0
 14 27  1  0  0  0  0
 15 18  2  0  0  0  0
 16 19  1  0  0  0  0
 17  8  1  6  0  0  0
 17  7  1  0  0  0  0
 20  1  1  0  0  0  0
 21 22  1  0  0  0  0
 23 28  2  0  0  0  0
 27  5  1  0  0  0  0
 28  9  1  0  0  0  0
 28  6  1  0  0  0  0
 29 20  1  0  0  0  0
 30 29  1  0  0  0  0
 31 30  1  0  0  0  0
 32 30  1  0  0  0  0
M  END
>  <MODEL>
2

>  <REMARK>
 VINA RESULT:      -8.6      2.404      7.904
  Name = 
  2 active torsions:
  status: ('A' for Active; 'I' for Inactive)
    1  A    between atoms: N_20  and  C_29
    2  A    between atoms: C_29  and  C_30
                            x       y       z     vdW  Elec       q    Type
                         _______ _______ _______ _____ _____    ______ ____

>  <TORSDO>
F 2

$$$$
=
 OpenBabel11122410483D

 32 37  0  0  1  0  0  0  0  0999 V2000
  190.2810  175.8870  136.8970 C   0  0  0  0  0  2  0  0  0  0  0  0
  189.2080  177.5470  142.0230 C   0  0  0  0  0  0  0  0  0  0  0  0
  184.4000  178.7700  142.7540 C   0  0  0  0  0  2  0  0  0  0  0  0
  184.6180  178.2060  144.0220 O   0  0  0  0  0  0  0  0  0  0  0  0
  190.7080  177.3450  144.0010 C   0  0  0  0  0  0  0  0  0  0  0  0
  190.7120  177.2980  145.3320 C   0  0  0  0  0  0  0  0  0  0  0  0
  189.9940  176.7440  139.8210 C   0  0  1  0  0  3  0  0  0  0  0  0
  187.6770  177.6290  140.0300 C   0  0  0  0  0  2  0  0  0  0  0  0
  189.7810  177.1840  147.5260 C   0  0  2  0  0  3  0  0  0  0  0  0
  188.6140  177.4060  137.7490 C   0  0  0  0  0  2  0  0  0  0  0  0
  185.3920  178.1720  141.7530 C   0  0  0  0  0  2  0  0  0  0  0  0
  187.9170  177.8610  141.4570 N   0  0  0  0  0  0  0  0  0  0  0  0
  186.7970  178.1630  142.3160 C   0  0  0  0  0  0  0  0  0  0  0  0
  188.3840  178.4400  144.1900 C   0  0  1  0  0  3  0  0  0  0  0  0
  191.2720  176.7600  147.5300 C   0  0  0  0  0  3  0  0  0  0  0  0
  191.2990  176.8170  137.5780 C   0  0  0  0  0  2  0  0  0  0  0  0
  188.9610  177.7170  139.2120 C   0  0  2  0  0  3  0  0  0  0  0  0
  191.7560  176.8110  146.1480 N   0  0  0  0  0  0  0  0  0  0  0  0
  191.3490  176.6770  139.1020 C   0  0  0  0  0  2  0  0  0  0  0  0
  188.9140  176.0130  137.4230 N   0  0  0  0  0  0  0  0  0  0  0  0
  185.8200  178.7610  144.4980 C   0  0  0  0  0  2  0  0  0  0  0  0
  186.9880  178.3470  143.6370 C   0  0  0  0  0  0  0  0  0  0  0  0
  188.4410  178.0240  145.6030 N   0  0  0  0  0  0  0  0  0  0  0  0
  190.2160  177.0420  141.1950 O   0  0  0  0  0  0  0  0  0  0  0  0
  191.8470  176.9950  143.2830 O   0  0  0  0  0  1  0  0  0  0  0  0
  188.9200  175.9900  147.8920 C   0  0  0  0  0  1  0  0  0  0  0  0
  189.4370  177.7440  143.3330 C   0  0  0  0  0  0  0  0  0  0  0  0
  189.5450  177.5660  146.1130 C   0  0  0  0  0  0  0  0  0  0  0  0
  188.0090  175.6250  136.3530 C   0  0  0  0  0  2  0  0  0  0  0  0
  186.5880  175.5250  136.8790 C   0  0  0  0  0  3  0  0  0  0  0  0
  186.2880  174.0870  137.2430 C   0  0  0  0  0  1  0  0  0  0  0  0
  185.6050  175.9860  135.8190 C   0  0  0  0  0  1  0  0  0  0  0  0
  1 20  1  0  0  0  0
  1 16  1  0  0  0  0
  2 27  2  0  0  0  0
  3  4  1  0  0  0  0
  4 21  1  0  0  0  0
  5  6  2  0  0  0  0
  6 28  1  0  0  0  0
  6 18  1  0  0  0  0
  7 19  1  6  0  0  0
  7 24  1  0  0  0  0
  8 12  1  0  0  0  0
  9 15  1  0  0  0  0
  9 26  1  6  0  0  0
 11 13  1  0  0  0  0
 11  3  1  0  0  0  0
 12  2  1  0  0  0  0
 12 13  1  0  0  0  0
 13 22  2  0  0  0  0
 14 27  1  6  0  0  0
 14 23  1  0  0  0  0
 16 19  1  0  0  0  0
 17 10  1  6  0  0  0
 17  7  1  0  0  0  0
 17  8  1  0  0  0  0
 18 15  2  0  0  0  0
 20 10  1  0  0  0  0
 22 14  1  0  0  0  0
 22 21  1  0  0  0  0
 23 28  2  0  0  0  0
 24  2  1  0  0  0  0
 25  5  1  0  0  0  0
 27  5  1  0  0  0  0
 28  9  1  0  0  0  0
 29 30  1  0  0  0  0
 29 20  1  0  0  0  0
 30 31  1  0  0  0  0
 32 30  1  0  0  0  0
M  END
>  <MODEL>
3

>  <REMARK>
 VINA RESULT:      -8.1      2.071      8.269
  Name = 
  2 active torsions:
  status: ('A' for Active; 'I' for Inactive)
    1  A    between atoms: N_20  and  C_29
    2  A    between atoms: C_29  and  C_30
                            x       y       z     vdW  Elec       q    Type
                         _______ _______ _______ _____ _____    ______ ____

>  <TORSDO>
F 2

$$$$
=
 OpenBabel11122410483D

 32 37  0  0  1  0  0  0  0  0999 V2000
  182.9010  178.6540  140.3780 C   0  0  0  0  0  2  0  0  0  0  0  0
  188.3050  177.8920  139.7450 C   0  0  0  0  0  0  0  0  0  0  0  0
  190.7410  177.2260  144.0780 C   0  0  0  0  0  2  0  0  0  0  0  0
  191.5120  176.3290  143.3200 O   0  0  0  0  0  0  0  0  0  0  0  0
  189.5090  177.4430  137.6120 C   0  0  0  0  0  0  0  0  0  0  0  0
  190.6220  176.9120  137.1100 C   0  0  0  0  0  0  0  0  0  0  0  0
  185.8580  178.2400  139.7050 C   0  0  1  0  0  3  0  0  0  0  0  0
  187.0430  178.2320  141.8930 C   0  0  0  0  0  2  0  0  0  0  0  0
  192.6870  175.7170  137.1360 C   0  0  2  0  0  3  0  0  0  0  0  0
  184.7500  179.1640  141.8390 C   0  0  0  0  0  2  0  0  0  0  0  0
  189.3580  177.3730  143.4400 C   0  0  0  0  0  2  0  0  0  0  0  0
  188.3020  177.9810  141.1870 N   0  0  0  0  0  0  0  0  0  0  0  0
  189.4650  177.5870  141.9460 C   0  0  0  0  0  0  0  0  0  0  0  0
  190.7730  177.6230  139.8490 C   0  0  1  0  0  3  0  0  0  0  0  0
  192.1100  175.8000  135.7010 C   0  0  0  0  0  3  0  0  0  0  0  0
  183.6340  179.5300  139.3470 C   0  0  0  0  0  2  0  0  0  0  0  0
  186.0470  179.0030  141.0340 C   0  0  2  0  0  3  0  0  0  0  0  0
  190.8250  176.5020  135.7750 N   0  0  0  0  0  0  0  0  0  0  0  0
  184.8590  178.8610  138.7180 C   0  0  0  0  0  2  0  0  0  0  0  0
  183.7650  178.1530  141.4560 N   0  0  0  0  0  0  0  0  0  0  0  0
  191.8530  177.0080  142.1350 C   0  0  0  0  0  2  0  0  0  0  0  0
  190.6250  177.3200  141.3150 C   0  0  0  0  0  0  0  0  0  0  0  0
  191.7760  176.7550  139.2080 N   0  0  0  0  0  0  0  0  0  0  0  0
  187.1070  178.0620  139.0440 O   0  0  0  0  0  0  0  0  0  0  0  0
  188.4400  177.7490  136.7760 O   0  0  0  0  0  1  0  0  0  0  0  0
  192.6890  174.2710  137.5930 C   0  0  0  0  0  1  0  0  0  0  0  0
  189.4510  177.6510  139.0860 C   0  0  0  0  0  0  0  0  0  0  0  0
  191.7160  176.5020  137.9350 C   0  0  0  0  0  0  0  0  0  0  0  0
  182.9150  177.9300  142.6140 C   0  0  0  0  0  2  0  0  0  0  0  0
  182.7860  179.2090  143.4230 C   0  0  0  0  0  3  0  0  0  0  0  0
  183.4090  179.0030  144.7870 C   0  0  0  0  0  1  0  0  0  0  0  0
  181.3240  179.5740  143.5930 C   0  0  0  0  0  1  0  0  0  0  0  0
  1 20  1  0  0  0  0
  2 12  1  0  0  0  0
  4  3  1  0  0  0  0
  5 27  1  0  0  0  0
  6  5  2  0  0  0  0
  6 28  1  0  0  0  0
  7 19  1  6  0  0  0
  7 17  1  0  0  0  0
  9 26  1  1  0  0  0
  9 28  1  0  0  0  0
 11  3  1  0  0  0  0
 12  8  1  0  0  0  0
 12 13  1  0  0  0  0
 13 11  1  0  0  0  0
 14 27  1  6  0  0  0
 14 22  1  0  0  0  0
 15 18  2  0  0  0  0
 15  9  1  0  0  0  0
 16  1  1  0  0  0  0
 17 10  1  1  0  0  0
 17  8  1  0  0  0  0
 18  6  1  0  0  0  0
 19 16  1  0  0  0  0
 20 10  1  0  0  0  0
 20 29  1  0  0  0  0
 21  4  1  0  0  0  0
 22 13  2  0  0  0  0
 22 21  1  0  0  0  0
 23 14  1  0  0  0  0
 24  7  1  0  0  0  0
 24  2  1  0  0  0  0
 25  5  1  0  0  0  0
 27  2  2  0  0  0  0
 28 23  2  0  0  0  0
 29 30  1  0  0  0  0
 30 32  1  0  0  0  0
 30 31  1  0  0  0  0
M  END
>  <MODEL>
4

>  <REMARK>
 VINA RESULT:      -7.9      2.811      7.048
  Name = 
  2 active torsions:
  status: ('A' for Active; 'I' for Inactive)
    1  A    between atoms: N_20  and  C_29
    2  A    between atoms: C_29  and  C_30
                            x       y       z     vdW  Elec       q    Type
                         _______ _______ _______ _____ _____    ______ ____

>  <TORSDO>
F 2

$$$$
=
 OpenBabel11122410483D

 32 37  0  0  1  0  0  0  0  0999 V2000
  191.7270  175.0430  135.8860 C   0  0  0  0  0  2  0  0  0  0  0  0
  189.1810  177.4580  140.1130 C   0  0  0  0  0  0  0  0  0  0  0  0
  184.5470  179.0280  139.0120 C   0  0  0  0  0  2  0  0  0  0  0  0
  184.2750  178.6350  140.3330 O   0  0  0  0  0  0  0  0  0  0  0  0
  189.9100  177.4540  142.4940 C   0  0  0  0  0  0  0  0  0  0  0  0
  189.4680  177.5920  143.7430 C   0  0  0  0  0  0  0  0  0  0  0  0
  190.5700  176.3140  138.4190 C   0  0  1  0  0  3  0  0  0  0  0  0
  188.4150  177.3430  137.7210 C   0  0  0  0  0  2  0  0  0  0  0  0
  187.8540  177.8360  145.4840 C   0  0  2  0  0  3  0  0  0  0  0  0
  190.0290  176.7540  135.9390 C   0  0  0  0  0  2  0  0  0  0  0  0
  185.7510  178.2430  138.4860 C   0  0  0  0  0  2  0  0  0  0  0  0
  188.1880  177.7580  139.1090 N   0  0  0  0  0  0  0  0  0  0  0  0
  186.8810  178.2370  139.4920 C   0  0  0  0  0  0  0  0  0  0  0  0
  187.7740  178.6870  141.7520 C   0  0  1  0  0  3  0  0  0  0  0  0
  189.2100  177.3380  146.0460 C   0  0  0  0  0  3  0  0  0  0  0  0
  192.5470  176.0020  136.7650 C   0  0  0  0  0  2  0  0  0  0  0  0
  189.8990  177.2470  137.3870 C   0  0  2  0  0  3  0  0  0  0  0  0
  190.1290  177.1690  144.9160 N   0  0  0  0  0  0  0  0  0  0  0  0
  192.0740  176.0750  138.2190 C   0  0  0  0  0  2  0  0  0  0  0  0
  190.2820  175.3140  135.8950 N   0  0  0  0  0  0  0  0  0  0  0  0
  185.2990  179.1860  141.1260 C   0  0  0  0  0  2  0  0  0  0  0  0
  186.6400  178.5930  140.7690 C   0  0  0  0  0  0  0  0  0  0  0  0
  187.3190  178.4700  143.1360 N   0  0  0  0  0  0  0  0  0  0  0  0
  190.3520  176.7890  139.7430 O   0  0  0  0  0  0  0  0  0  0  0  0
  191.1830  176.9460  142.2540 O   0  0  0  0  0  1  0  0  0  0  0  0
  186.8080  176.7530  145.6660 C   0  0  0  0  0  1  0  0  0  0  0  0
  188.9790  177.8230  141.3910 C   0  0  0  0  0  0  0  0  0  0  0  0
  188.1400  178.0290  144.0420 C   0  0  0  0  0  0  0  0  0  0  0  0
  189.7510  174.8300  134.6320 C   0  0  0  0  0  2  0  0  0  0  0  0
  188.5240  173.9680  134.8750 C   0  0  0  0  0  3  0  0  0  0  0  0
  187.2780  174.7810  134.5940 C   0  0  0  0  0  1  0  0  0  0  0  0
  188.4950  173.4940  136.3150 C   0  0  0  0  0  1  0  0  0  0  0  0
  1 20  1  0  0  0  0
  1 16  1  0  0  0  0
  2 27  2  0  0  0  0
  3  4  1  0  0  0  0
  4 21  1  0  0  0  0
  5  6  2  0  0  0  0
  6 28  1  0  0  0  0
  6 18  1  0  0  0  0
  7 19  1  6  0  0  0
  7 24  1  0  0  0  0
  8 12  1  0  0  0  0
  9 26  1  6  0  0  0
  9 15  1  0  0  0  0
 11  3  1  0  0  0  0
 11 13  1  0  0  0  0
 12 13  1  0  0  0  0
 12  2  1  0  0  0  0
 13 22  2  0  0  0  0
 14 22  1  6  0  0  0
 14 23  1  0  0  0  0
 16 19  1  0  0  0  0
 17 10  1  6  0  0  0
 17  8  1  0  0  0  0
 17  7  1  0  0  0  0
 18 15  2  0  0  0  0
 20 10  1  0  0  0  0
 22 21  1  0  0  0  0
 23 28  2  0  0  0  0
 24  2  1  0  0  0  0
 25  5  1  0  0  0  0
 27 14  1  0  0  0  0
 27  5  1  0  0  0  0
 28  9  1  0  0  0  0
 29 30  1  0  0  0  0
 29 20  1  0  0  0  0
 30 32  1  0  0  0  0
 31 30  1  0  0  0  0
M  END
>  <MODEL>
5

>  <REMARK>
 VINA RESULT:      -7.9      2.780      8.155
  Name = 
  2 active torsions:
  status: ('A' for Active; 'I' for Inactive)
    1  A    between atoms: N_20  and  C_29
    2  A    between atoms: C_29  and  C_30
                            x       y       z     vdW  Elec       q    Type
                         _______ _______ _______ _____ _____    ______ ____

>  <TORSDO>
F 2

$$$$
=
 OpenBabel11122410483D

 32 37  0  0  1  0  0  0  0  0999 V2000
  183.8130  178.6250  145.1260 C   0  0  0  0  0  2  0  0  0  0  0  0
  184.9010  178.2170  139.7560 C   0  0  0  0  0  0  0  0  0  0  0  0
  189.8050  178.2500  138.7110 C   0  0  0  0  0  2  0  0  0  0  0  0
  189.4340  177.3340  137.7130 O   0  0  0  0  0  0  0  0  0  0  0  0
  183.2940  177.6180  137.9500 C   0  0  0  0  0  0  0  0  0  0  0  0
  183.2170  177.1200  136.7170 C   0  0  0  0  0  0  0  0  0  0  0  0
  184.0990  178.3660  142.0900 C   0  0  1  0  0  3  0  0  0  0  0  0
  186.5180  178.7050  141.6180 C   0  0  0  0  0  2  0  0  0  0  0  0
  184.0070  176.1020  134.7100 C   0  0  2  0  0  3  0  0  0  0  0  0
  185.6700  179.4430  143.8230 C   0  0  0  0  0  2  0  0  0  0  0  0
  188.7760  178.2140  139.8430 C   0  0  0  0  0  2  0  0  0  0  0  0
  186.2530  178.4720  140.1960 N   0  0  0  0  0  0  0  0  0  0  0  0
  187.3650  178.2610  139.3000 C   0  0  0  0  0  0  0  0  0  0  0  0
  185.7580  178.1550  137.4250 C   0  0  1  0  0  3  0  0  0  0  0  0
  182.4680  175.9710  134.8320 C   0  0  0  0  0  3  0  0  0  0  0  0
  182.9350  179.4290  144.1530 C   0  0  0  0  0  2  0  0  0  0  0  0
  185.3100  179.2910  142.3390 C   0  0  2  0  0  3  0  0  0  0  0  0
  182.0670  176.5760  136.1060 N   0  0  0  0  0  0  0  0  0  0  0  0
  182.7890  178.7880  142.7700 C   0  0  0  0  0  2  0  0  0  0  0  0
  185.1540  178.3200  144.6070 N   0  0  0  0  0  0  0  0  0  0  0  0
  188.3210  177.8960  137.0580 C   0  0  0  0  0  2  0  0  0  0  0  0
  187.1430  178.0130  137.9950 C   0  0  0  0  0  0  0  0  0  0  0  0
  185.5620  177.2990  136.2420 N   0  0  0  0  0  0  0  0  0  0  0  0
  183.8630  178.2110  140.6940 O   0  0  0  0  0  0  0  0  0  0  0  0
  182.1490  177.7410  138.7290 O   0  0  0  0  0  1  0  0  0  0  0  0
  184.6340  174.7230  134.7890 C   0  0  0  0  0  1  0  0  0  0  0  0
  184.6450  177.9910  138.4560 C   0  0  0  0  0  0  0  0  0  0  0  0
  184.3730  176.8960  135.9070 C   0  0  0  0  0  0  0  0  0  0  0  0
  186.0310  178.1690  145.7560 C   0  0  0  0  0  2  0  0  0  0  0  0
  187.4500  177.8780  145.2990 C   0  0  0  0  0  3  0  0  0  0  0  0
  187.4370  176.7060  144.3420 C   0  0  0  0  0  1  0  0  0  0  0  0
  188.3240  177.5380  146.4910 C   0  0  0  0  0  1  0  0  0  0  0  0
  2 12  1  0  0  0  0
  2 24  1  0  0  0  0
  3 11  1  0  0  0  0
  4  3  1  0  0  0  0
  5 27  1  0  0  0  0
  5 25  1  0  0  0  0
  6  5  2  0  0  0  0
  7 17  1  0  0  0  0
  7 19  1  1  0  0  0
  9 26  1  1  0  0  0
  9 15  1  0  0  0  0
  9 28  1  0  0  0  0
 10 20  1  0  0  0  0
 12  8  1  0  0  0  0
 13 11  1  0  0  0  0
 13 12  1  0  0  0  0
 14 23  1  6  0  0  0
 14 22  1  0  0  0  0
 14 27  1  0  0  0  0
 15 18  2  0  0  0  0
 16  1  1  0  0  0  0
 17  8  1  6  0  0  0
 17 10  1  0  0  0  0
 18  6  1  0  0  0  0
 19 16  1  0  0  0  0
 20  1  1  0  0  0  0
 20 29  1  0  0  0  0
 21  4  1  0  0  0  0
 21 22  1  0  0  0  0
 22 13  2  0  0  0  0
 24  7  1  0  0  0  0
 27  2  2  0  0  0  0
 28 23  2  0  0  0  0
 28  6  1  0  0  0  0
 30 29  1  0  0  0  0
 30 32  1  0  0  0  0
 31 30  1  0  0  0  0
M  END
>  <MODEL>
6

>  <REMARK>
 VINA RESULT:      -7.8      2.448      4.343
  Name = 
  2 active torsions:
  status: ('A' for Active; 'I' for Inactive)
    1  A    between atoms: N_20  and  C_29
    2  A    between atoms: C_29  and  C_30
                            x       y       z     vdW  Elec       q    Type
                         _______ _______ _______ _____ _____    ______ ____

>  <TORSDO>
F 2

$$$$
=
 OpenBabel11122410483D

 32 37  0  0  1  0  0  0  0  0999 V2000
  189.2960  177.1560  147.1390 C   0  0  0  0  0  2  0  0  0  0  0  0
  186.0450  178.4170  142.8920 C   0  0  0  0  0  0  0  0  0  0  0  0
  188.3960  178.2440  138.4660 C   0  0  0  0  0  2  0  0  0  0  0  0
  187.1610  177.7550  138.0120 O   0  0  0  0  0  0  0  0  0  0  0  0
  183.5640  178.6280  142.9240 C   0  0  0  0  0  0  0  0  0  0  0  0
  182.4810  178.5740  142.1490 C   0  0  0  0  0  0  0  0  0  0  0  0
  187.2410  177.8790  144.9880 C   0  0  1  0  0  3  0  0  0  0  0  0
  188.5370  178.0820  142.8730 C   0  0  0  0  0  2  0  0  0  0  0  0
  181.2280  178.1900  140.1560 C   0  0  2  0  0  3  0  0  0  0  0  0
  189.8040  178.1440  144.9990 C   0  0  0  0  0  2  0  0  0  0  0  0
  188.5400  177.9530  139.9620 C   0  0  0  0  0  2  0  0  0  0  0  0
  187.2880  178.3610  142.1590 N   0  0  0  0  0  0  0  0  0  0  0  0
  187.2840  178.3330  140.7160 C   0  0  0  0  0  0  0  0  0  0  0  0
  184.9140  179.0290  140.7670 C   0  0  1  0  0  3  0  0  0  0  0  0
  180.3060  178.2000  141.4010 C   0  0  0  0  0  3  0  0  0  0  0  0
  188.3140  178.3280  147.3090 C   0  0  0  0  0  2  0  0  0  0  0  0
  188.4770  178.5300  144.3290 C   0  0  2  0  0  3  0  0  0  0  0  0
  181.1510  178.3930  142.5830 N   0  0  0  0  0  0  0  0  0  0  0  0
  187.0360  178.1980  146.4750 C   0  0  0  0  0  2  0  0  0  0  0  0
  189.6720  176.8920  145.7430 N   0  0  0  0  0  0  0  0  0  0  0  0
  186.1800  178.6200  138.5310 C   0  0  0  0  0  2  0  0  0  0  0  0
  186.1410  178.5540  140.0380 C   0  0  0  0  0  0  0  0  0  0  0  0
  183.6760  178.6360  140.0690 N   0  0  0  0  0  0  0  0  0  0  0  0
  186.0550  178.2180  144.2770 O   0  0  0  0  0  0  0  0  0  0  0  0
  183.4360  178.6140  144.3090 O   0  0  0  0  0  1  0  0  0  0  0  0
  181.2330  176.8010  139.5470 C   0  0  0  0  0  1  0  0  0  0  0  0
  184.8910  178.6610  142.2480 C   0  0  0  0  0  0  0  0  0  0  0  0
  182.5620  178.5010  140.7240 C   0  0  0  0  0  0  0  0  0  0  0  0
  190.9880  176.2740  145.7660 C   0  0  0  0  0  2  0  0  0  0  0  0
  191.2290  175.5040  144.4800 C   0  0  0  0  0  3  0  0  0  0  0  0
  192.2980  174.4590  144.7150 C   0  0  0  0  0  1  0  0  0  0  0  0
  191.6880  176.4480  143.3840 C   0  0  0  0  0  1  0  0  0  0  0  0
  1 16  1  0  0  0  0
  2 24  1  0  0  0  0
  3 11  1  0  0  0  0
  4  3  1  0  0  0  0
  4 21  1  0  0  0  0
  5 25  1  0  0  0  0
  6 18  1  0  0  0  0
  6  5  2  0  0  0  0
  7 19  1  1  0  0  0
  9 26  1  1  0  0  0
  9 28  1  0  0  0  0
  9 15  1  0  0  0  0
 10 20  1  0  0  0  0
 11 13  1  0  0  0  0
 12  8  1  0  0  0  0
 12  2  1  0  0  0  0
 13 12  1  0  0  0  0
 14 22  1  6  0  0  0
 14 27  1  0  0  0  0
 15 18  2  0  0  0  0
 17  8  1  6  0  0  0
 17  7  1  0  0  0  0
 17 10  1  0  0  0  0
 19 16  1  0  0  0  0
 20 29  1  0  0  0  0
 20  1  1  0  0  0  0
 21 22  1  0  0  0  0
 22 13  2  0  0  0  0
 23 28  2  0  0  0  0
 23 14  1  0  0  0  0
 24  7  1  0  0  0  0
 27  2  2  0  0  0  0
 27  5  1  0  0  0  0
 28  6  1  0  0  0  0
 30 31  1  0  0  0  0
 30 29  1  0  0  0  0
 32 30  1  0  0  0  0
M  END
>  <MODEL>
7

>  <REMARK>
 VINA RESULT:      -7.5      1.662      2.422
  Name = 
  2 active torsions:
  status: ('A' for Active; 'I' for Inactive)
    1  A    between atoms: N_20  and  C_29
    2  A    between atoms: C_29  and  C_30
                            x       y       z     vdW  Elec       q    Type
                         _______ _______ _______ _____ _____    ______ ____

>  <TORSDO>
F 2

$$$$
=
 OpenBabel11122410483D

 32 37  0  0  1  0  0  0  0  0999 V2000
  180.6200  177.5590  136.8310 C   0  0  0  0  0  2  0  0  0  0  0  0
  184.8280  178.4850  140.2390 C   0  0  0  0  0  0  0  0  0  0  0  0
  183.4340  179.0030  145.0280 C   0  0  0  0  0  2  0  0  0  0  0  0
  184.6410  178.3320  145.2840 O   0  0  0  0  0  0  0  0  0  0  0  0
  187.2520  178.2530  139.7150 C   0  0  0  0  0  0  0  0  0  0  0  0
  188.4470  178.0570  140.2710 C   0  0  0  0  0  0  0  0  0  0  0  0
  183.1590  178.0390  138.4720 C   0  0  1  0  0  3  0  0  0  0  0  0
  182.3720  178.5970  140.7660 C   0  0  0  0  0  2  0  0  0  0  0  0
  190.0020  177.5810  142.0150 C   0  0  2  0  0  3  0  0  0  0  0  0
  180.7250  178.7510  138.9240 C   0  0  0  0  0  2  0  0  0  0  0  0
  182.9430  178.6500  143.6220 C   0  0  0  0  0  2  0  0  0  0  0  0
  183.7690  178.6950  141.1980 N   0  0  0  0  0  0  0  0  0  0  0  0
  184.0630  178.7550  142.6100 C   0  0  0  0  0  0  0  0  0  0  0  0
  186.4530  179.0170  142.0420 C   0  0  1  0  0  3  0  0  0  0  0  0
  190.6400  177.3510  140.6220 C   0  0  0  0  0  3  0  0  0  0  0  0
  181.7210  178.5270  136.3660 C   0  0  0  0  0  2  0  0  0  0  0  0
  182.2040  178.9370  139.2890 C   0  0  2  0  0  3  0  0  0  0  0  0
  189.6140  177.6170  139.6100 N   0  0  0  0  0  0  0  0  0  0  0  0
  183.1040  178.2250  136.9490 C   0  0  0  0  0  2  0  0  0  0  0  0
  180.4990  177.4510  138.2920 N   0  0  0  0  0  0  0  0  0  0  0  0
  185.6210  178.9770  144.5070 C   0  0  0  0  0  2  0  0  0  0  0  0
  185.3410  178.8120  143.0330 C   0  0  0  0  0  0  0  0  0  0  0  0
  187.7270  178.4560  142.5250 N   0  0  0  0  0  0  0  0  0  0  0  0
  184.5040  178.2070  138.9070 O   0  0  0  0  0  0  0  0  0  0  0  0
  187.0910  178.1320  138.3390 O   0  0  0  0  0  1  0  0  0  0  0  0
  189.8990  176.2550  142.7440 C   0  0  0  0  0  1  0  0  0  0  0  0
  186.1130  178.5610  140.6260 C   0  0  0  0  0  0  0  0  0  0  0  0
  188.6480  178.0870  141.6860 C   0  0  0  0  0  0  0  0  0  0  0  0
  179.1240  177.0750  138.5780 C   0  0  0  0  0  2  0  0  0  0  0  0
  179.0910  175.9180  139.5620 C   0  0  0  0  0  3  0  0  0  0  0  0
  179.2130  176.4560  140.9710 C   0  0  0  0  0  1  0  0  0  0  0  0
  180.2420  174.9680  139.2900 C   0  0  0  0  0  1  0  0  0  0  0  0
  1 20  1  0  0  0  0
  2 27  2  0  0  0  0
  2 12  1  0  0  0  0
  3  4  1  0  0  0  0
  5  6  2  0  0  0  0
  5 27  1  0  0  0  0
  6 28  1  0  0  0  0
  7 19  1  6  0  0  0
  7 24  1  0  0  0  0
  7 17  1  0  0  0  0
  8 12  1  0  0  0  0
  9 26  1  6  0  0  0
 11  3  1  0  0  0  0
 12 13  1  0  0  0  0
 13 22  2  0  0  0  0
 13 11  1  0  0  0  0
 14 27  1  6  0  0  0
 14 23  1  0  0  0  0
 14 22  1  0  0  0  0
 15  9  1  0  0  0  0
 16  1  1  0  0  0  0
 16 19  1  0  0  0  0
 17 10  1  6  0  0  0
 17  8  1  0  0  0  0
 18  6  1  0  0  0  0
 18 15  2  0  0  0  0
 20 29  1  0  0  0  0
 20 10  1  0  0  0  0
 21  4  1  0  0  0  0
 22 21  1  0  0  0  0
 24  2  1  0  0  0  0
 25  5  1  0  0  0  0
 28  9  1  0  0  0  0
 28 23  2  0  0  0  0
 29 30  1  0  0  0  0
 30 31  1  0  0  0  0
 32 30  1  0  0  0  0
M  END
>  <MODEL>
8

>  <REMARK>
 VINA RESULT:      -7.4      2.826      8.876
  Name = 
  2 active torsions:
  status: ('A' for Active; 'I' for Inactive)
    1  A    between atoms: N_20  and  C_29
    2  A    between atoms: C_29  and  C_30
                            x       y       z     vdW  Elec       q    Type
                         _______ _______ _______ _____ _____    ______ ____

>  <TORSDO>
F 2

$$$$
=
 OpenBabel11122410483D

 32 37  0  0  1  0  0  0  0  0999 V2000
  186.0270  177.7700  146.6020 C   0  0  0  0  0  2  0  0  0  0  0  0
  184.6600  178.5630  141.3400 C   0  0  0  0  0  0  0  0  0  0  0  0
  188.4940  177.9300  138.1710 C   0  0  0  0  0  2  0  0  0  0  0  0
  187.5020  177.3910  137.3340 O   0  0  0  0  0  0  0  0  0  0  0  0
  182.3580  178.7690  140.4120 C   0  0  0  0  0  0  0  0  0  0  0  0
  181.6450  178.6300  139.2950 C   0  0  0  0  0  0  0  0  0  0  0  0
  184.9600  178.2550  143.7740 C   0  0  1  0  0  3  0  0  0  0  0  0
  186.9620  178.2360  142.2970 C   0  0  0  0  0  2  0  0  0  0  0  0
  181.2190  178.0330  137.0250 C   0  0  2  0  0  3  0  0  0  0  0  0
  187.3380  178.5270  144.7260 C   0  0  0  0  0  2  0  0  0  0  0  0
  188.0540  177.8000  139.6310 C   0  0  0  0  0  2  0  0  0  0  0  0
  186.0840  178.4340  141.1400 N   0  0  0  0  0  0  0  0  0  0  0  0
  186.6220  178.2530  139.8130 C   0  0  0  0  0  0  0  0  0  0  0  0
  184.4330  178.9430  138.8960 C   0  0  1  0  0  3  0  0  0  0  0  0
  179.8980  178.1710  137.8220 C   0  0  0  0  0  3  0  0  0  0  0  0
  185.0980  178.9510  146.2720 C   0  0  0  0  0  2  0  0  0  0  0  0
  186.3760  178.8360  143.5700 C   0  0  2  0  0  3  0  0  0  0  0  0
  180.2430  178.4910  139.2110 N   0  0  0  0  0  0  0  0  0  0  0  0
  184.2230  178.7290  145.0350 C   0  0  0  0  0  2  0  0  0  0  0  0
  186.8910  177.3610  145.4850 N   0  0  0  0  0  0  0  0  0  0  0  0
  186.4310  178.3030  137.3560 C   0  0  0  0  0  2  0  0  0  0  0  0
  185.8260  178.3980  138.7350 C   0  0  0  0  0  0  0  0  0  0  0  0
  183.5350  178.4750  137.8250 N   0  0  0  0  0  0  0  0  0  0  0  0
  184.1420  178.5130  142.6390 O   0  0  0  0  0  0  0  0  0  0  0  0
  181.7190  178.9020  141.6400 O   0  0  0  0  0  1  0  0  0  0  0  0
  181.4010  176.5870  136.6040 C   0  0  0  0  0  1  0  0  0  0  0  0
  183.8430  178.7340  140.2870 C   0  0  0  0  0  0  0  0  0  0  0  0
  182.2520  178.4060  138.0210 C   0  0  0  0  0  0  0  0  0  0  0  0
  188.0770  176.7530  146.0650 C   0  0  0  0  0  2  0  0  0  0  0  0
  189.0790  177.8260  146.4540 C   0  0  0  0  0  3  0  0  0  0  0  0
  190.4230  177.5030  145.8360 C   0  0  0  0  0  1  0  0  0  0  0  0
  189.2260  177.8830  147.9630 C   0  0  0  0  0  1  0  0  0  0  0  0
  2 24  1  0  0  0  0
  3 11  1  0  0  0  0
  4 21  1  0  0  0  0
  4  3  1  0  0  0  0
  5 25  1  0  0  0  0
  6  5  2  0  0  0  0
  7 19  1  1  0  0  0
  9 26  1  1  0  0  0
  9 15  1  0  0  0  0
  9 28  1  0  0  0  0
 10 20  1  0  0  0  0
 11 13  1  0  0  0  0
 12  2  1  0  0  0  0
 12  8  1  0  0  0  0
 13 12  1  0  0  0  0
 14 23  1  6  0  0  0
 14 27  1  0  0  0  0
 15 18  2  0  0  0  0
 16  1  1  0  0  0  0
 17  8  1  6  0  0  0
 17  7  1  0  0  0  0
 17 10  1  0  0  0  0
 18  6  1  0  0  0  0
 19 16  1  0  0  0  0
 20 29  1  0  0  0  0
 20  1  1  0  0  0  0
 21 22  1  0  0  0  0
 22 14  1  0  0  0  0
 22 13  2  0  0  0  0
 23 28  2  0  0  0  0
 24  7  1  0  0  0  0
 27  5  1  0  0  0  0
 27  2  2  0  0  0  0
 28  6  1  0  0  0  0
 29 30  1  0  0  0  0
 30 32  1  0  0  0  0
 31 30  1  0  0  0  0
M  END
>  <MODEL>
9

>  <REMARK>
 VINA RESULT:      -7.3      2.048      3.173
  Name = 
  2 active torsions:
  status: ('A' for Active; 'I' for Inactive)
    1  A    between atoms: N_20  and  C_29
    2  A    between atoms: C_29  and  C_30
                            x       y       z     vdW  Elec       q    Type
                         _______ _______ _______ _____ _____    ______ ____

>  <TORSDO>
F 2

$$$$
