=
 OpenBabel11122410423D

 32 38  0  0  1  0  0  0  0  0999 V2000
  189.4480  177.9490  147.9470 C   0  0  1  0  0  3  0  0  0  0  0  0
  186.0620  178.3020  144.0580 C   0  0  0  0  0  0  0  0  0  0  0  0
  188.7690  178.2440  140.0120 C   0  0  0  0  0  3  0  0  0  0  0  0
  187.6340  178.4290  139.2930 N   0  0  0  0  0  0  0  0  0  0  0  0
  183.5850  178.6130  143.8320 C   0  0  0  0  0  0  0  0  0  0  0  0
  182.5100  178.8000  142.9680 C   0  0  0  0  0  0  0  0  0  0  0  0
  187.1410  178.0360  146.2300 C   0  0  0  0  0  0  0  0  0  0  0  0
  188.4830  177.9930  144.2320 C   0  0  0  0  0  3  0  0  0  0  0  0
  181.4660  179.0520  141.0540 N   0  0  0  0  0  0  0  0  0  0  0  0
  189.6320  177.6990  146.4400 C   0  0  2  0  0  3  0  0  0  0  0  0
  188.6940  178.1600  141.3990 C   0  0  0  0  0  3  0  0  0  0  0  0
  187.3370  178.1890  143.4380 C   0  0  0  0  0  0  0  0  0  0  0  0
  187.4520  178.2680  142.0380 C   0  0  0  0  0  0  0  0  0  0  0  0
  185.0390  178.5720  141.8370 C   0  0  0  0  0  0  0  0  0  0  0  0
  180.5450  179.0990  142.0090 N   0  0  0  0  0  0  0  0  0  0  0  0
  188.1840  178.5270  148.3010 O   0  0  0  0  0  0  0  0  0  0  0  0
  188.3880  177.9130  145.6200 C   0  0  0  0  0  0  0  0  0  0  0  0
  181.1550  178.9450  143.2130 C   0  0  0  0  0  3  0  0  0  0  0  0
  187.0670  177.8980  147.7090 C   0  0  0  0  0  2  0  0  0  0  0  0
  189.4350  176.5250  147.3940 C   0  0  1  0  0  3  0  0  0  0  0  0
  186.4450  178.5330  139.8880 N   0  0  0  0  0  0  0  0  0  0  0  0
  186.3060  178.4600  141.2430 C   0  0  0  0  0  0  0  0  0  0  0  0
  183.9070  178.7620  141.0140 C   0  0  0  0  0  3  0  0  0  0  0  0
  185.9940  178.2150  145.4610 C   0  0  0  0  0  3  0  0  0  0  0  0
  183.3450  178.5500  145.2010 O   0  0  0  0  0  1  0  0  0  0  0  0
  181.1790  179.1810  139.6370 C   0  0  0  0  0  1  0  0  0  0  0  0
  184.8960  178.4940  143.2670 C   0  0  0  0  0  0  0  0  0  0  0  0
  182.6660  178.8710  141.6210 C   0  0  0  0  0  0  0  0  0  0  0  0
  190.7180  175.8960  147.6550 N   0  0  0  0  0  2  0  0  0  0  0  0
  191.7390  175.8420  146.6600 C   0  0  0  0  0  0  0  0  0  0  0  0
  191.5300  176.4000  145.4040 O   0  0  0  0  0  0  0  0  0  0  0  0
  192.8360  175.2870  146.9210 O   0  0  0  0  0  1  0  0  0  0  0  0
  1 16  1  6  0  0  0
  2 24  1  0  0  0  0
  3 11  1  0  0  0  0
  4 21  1  0  0  0  0
  4  3  2  0  0  0  0
  5 25  1  0  0  0  0
  6 18  1  0  0  0  0
  6  5  2  0  0  0  0
  7 19  1  0  0  0  0
  8 17  2  0  0  0  0
  9 28  1  0  0  0  0
  9 15  1  0  0  0  0
 10 17  1  6  0  0  0
 10 20  1  0  0  0  0
 10  1  1  0  0  0  0
 11 13  2  0  0  0  0
 12  2  2  0  0  0  0
 12  8  1  0  0  0  0
 13 12  1  0  0  0  0
 14 27  2  0  0  0  0
 15 18  2  0  0  0  0
 17  7  1  0  0  0  0
 19 16  1  0  0  0  0
 20 29  1  1  0  0  0
 20  1  1  0  0  0  0
 21 22  2  0  0  0  0
 22 14  1  0  0  0  0
 22 13  1  0  0  0  0
 23 28  2  0  0  0  0
 23 14  1  0  0  0  0
 24  7  2  0  0  0  0
 26  9  1  0  0  0  0
 27  5  1  0  0  0  0
 27  2  1  0  0  0  0
 28  6  1  0  0  0  0
 30 32  1  0  0  0  0
 30 29  1  0  0  0  0
 31 30  2  0  0  0  0
M  END
>  <MODEL>
1

>  <REMARK>
 VINA RESULT:     -12.0      0.000      0.000
  Name = 
  1 active torsions:
  status: ('A' for Active; 'I' for Inactive)
    1  A    between atoms: C_20  and  N_29
                            x       y       z     vdW  Elec       q    Type
                         _______ _______ _______ _____ _____    ______ ____

>  <TORSDO>
F 1

$$$$
=
 OpenBabel11122410423D

 32 38  0  0  1  0  0  0  0  0999 V2000
  188.1710  178.4710  137.0770 C   0  0  1  0  0  3  0  0  0  0  0  0
  187.7130  177.9710  142.2000 C   0  0  0  0  0  0  0  0  0  0  0  0
  183.0380  178.9400  143.1560 C   0  0  0  0  0  3  0  0  0  0  0  0
  183.3180  178.8060  144.4760 N   0  0  0  0  0  0  0  0  0  0  0  0
  189.2550  177.5240  144.1250 C   0  0  0  0  0  0  0  0  0  0  0  0
  189.3920  177.4170  145.5060 C   0  0  0  0  0  0  0  0  0  0  0  0
  188.4850  177.9370  139.8870 C   0  0  0  0  0  0  0  0  0  0  0  0
  186.1700  178.4040  140.3520 C   0  0  0  0  0  3  0  0  0  0  0  0
  188.7780  177.4340  147.6120 N   0  0  0  0  0  0  0  0  0  0  0  0
  186.9150  178.3650  137.9590 C   0  0  2  0  0  3  0  0  0  0  0  0
  184.0540  178.7690  142.2210 C   0  0  0  0  0  3  0  0  0  0  0  0
  186.4050  178.2810  141.7340 C   0  0  0  0  0  0  0  0  0  0  0  0
  185.3520  178.4610  142.6500 C   0  0  0  0  0  0  0  0  0  0  0  0
  186.8700  178.0270  144.5120 C   0  0  0  0  0  0  0  0  0  0  0  0
  190.0750  177.1510  147.5870 N   0  0  0  0  0  0  0  0  0  0  0  0
  189.3960  178.6200  137.8070 O   0  0  0  0  0  0  0  0  0  0  0  0
  187.2010  178.2310  139.4310 C   0  0  0  0  0  0  0  0  0  0  0  0
  190.4930  177.1310  146.2950 C   0  0  0  0  0  3  0  0  0  0  0  0
  189.5530  177.7100  138.8770 C   0  0  0  0  0  2  0  0  0  0  0  0
  187.4330  177.1400  137.2110 C   0  0  1  0  0  3  0  0  0  0  0  0
  184.5480  178.5140  144.8990 N   0  0  0  0  0  0  0  0  0  0  0  0
  185.5860  178.3340  144.0330 C   0  0  0  0  0  0  0  0  0  0  0  0
  187.0740  177.9040  145.9030 C   0  0  0  0  0  3  0  0  0  0  0  0
  188.7350  177.7970  141.2490 C   0  0  0  0  0  3  0  0  0  0  0  0
  190.3730  177.3230  143.3200 O   0  0  0  0  0  1  0  0  0  0  0  0
  187.9890  177.5400  148.8270 C   0  0  0  0  0  1  0  0  0  0  0  0
  187.9630  177.8370  143.5940 C   0  0  0  0  0  0  0  0  0  0  0  0
  188.3490  177.5990  146.3540 C   0  0  0  0  0  0  0  0  0  0  0  0
  186.6210  176.9190  136.0270 N   0  0  0  0  0  2  0  0  0  0  0  0
  185.5000  176.0360  136.0450 C   0  0  0  0  0  0  0  0  0  0  0  0
  185.1530  175.3610  137.2110 O   0  0  0  0  0  1  0  0  0  0  0  0
  184.8210  175.8680  135.0010 O   0  0  0  0  0  0  0  0  0  0  0  0
  1 20  1  0  0  0  0
  1 16  1  1  0  0  0
  1 10  1  0  0  0  0
  2 27  1  0  0  0  0
  3  4  1  0  0  0  0
  4 21  2  0  0  0  0
  5  6  1  0  0  0  0
  6 18  1  0  0  0  0
  6 28  2  0  0  0  0
  7 24  1  0  0  0  0
  8 12  2  0  0  0  0
  9 26  1  0  0  0  0
 10 17  1  1  0  0  0
 11 13  1  0  0  0  0
 11  3  2  0  0  0  0
 12  2  1  0  0  0  0
 12 13  1  0  0  0  0
 13 22  2  0  0  0  0
 14 23  2  0  0  0  0
 15  9  1  0  0  0  0
 16 19  1  0  0  0  0
 17  7  2  0  0  0  0
 17  8  1  0  0  0  0
 18 15  2  0  0  0  0
 19  7  1  0  0  0  0
 20 29  1  6  0  0  0
 20 10  1  0  0  0  0
 22 14  1  0  0  0  0
 22 21  1  0  0  0  0
 23 28  1  0  0  0  0
 24  2  2  0  0  0  0
 25  5  1  0  0  0  0
 27  5  2  0  0  0  0
 27 14  1  0  0  0  0
 28  9  1  0  0  0  0
 29 30  1  0  0  0  0
 30 31  1  0  0  0  0
 32 30  2  0  0  0  0
M  END
>  <MODEL>
2

>  <REMARK>
 VINA RESULT:     -11.7      3.536      8.156
  Name = 
  1 active torsions:
  status: ('A' for Active; 'I' for Inactive)
    1  A    between atoms: C_20  and  N_29
                            x       y       z     vdW  Elec       q    Type
                         _______ _______ _______ _____ _____    ______ ____

>  <TORSDO>
F 1

$$$$
=
 OpenBabel11122410423D

 32 38  0  0  1  0  0  0  0  0999 V2000
  182.0490  178.7540  139.8520 C   0  0  1  0  0  3  0  0  0  0  0  0
  186.3050  178.1120  142.7130 C   0  0  0  0  0  0  0  0  0  0  0  0
  189.9470  177.7510  139.5040 C   0  0  0  0  0  3  0  0  0  0  0  0
  190.7910  177.5230  140.5410 N   0  0  0  0  0  0  0  0  0  0  0  0
  186.8290  177.8290  145.1480 C   0  0  0  0  0  0  0  0  0  0  0  0
  187.8070  177.5850  146.1070 C   0  0  0  0  0  0  0  0  0  0  0  0
  184.0420  178.5550  141.9190 C   0  0  0  0  0  0  0  0  0  0  0  0
  185.8410  178.3900  140.3280 C   0  0  0  0  0  3  0  0  0  0  0  0
  189.8120  177.1790  146.9020 N   0  0  0  0  0  0  0  0  0  0  0  0
  183.5340  178.8610  139.4660 C   0  0  2  0  0  3  0  0  0  0  0  0
  188.5960  177.9620  139.7550 C   0  0  0  0  0  3  0  0  0  0  0  0
  186.7590  178.1450  141.3660 C   0  0  0  0  0  0  0  0  0  0  0  0
  188.1190  177.9360  141.0730 C   0  0  0  0  0  0  0  0  0  0  0  0
  188.6100  177.6600  143.4480 C   0  0  0  0  0  0  0  0  0  0  0  0
  188.9870  177.2370  147.9390 N   0  0  0  0  0  0  0  0  0  0  0  0
  181.8160  178.2340  141.1690 O   0  0  0  0  0  0  0  0  0  0  0  0
  184.4900  178.5980  140.5990 C   0  0  0  0  0  0  0  0  0  0  0  0
  187.7320  177.4880  147.4860 C   0  0  0  0  0  3  0  0  0  0  0  0
  182.6030  178.8280  142.1800 C   0  0  0  0  0  2  0  0  0  0  0  0
  182.7210  180.1210  139.7500 C   0  0  1  0  0  3  0  0  0  0  0  0
  190.3520  177.4960  141.8000 N   0  0  0  0  0  0  0  0  0  0  0  0
  189.0390  177.6950  142.1120 C   0  0  0  0  0  0  0  0  0  0  0  0
  189.5550  177.4180  144.4680 C   0  0  0  0  0  3  0  0  0  0  0  0
  184.9370  178.3280  142.9610 C   0  0  0  0  0  3  0  0  0  0  0  0
  185.5140  178.0200  145.5630 O   0  0  0  0  0  1  0  0  0  0  0  0
  191.2380  176.9270  147.0060 C   0  0  0  0  0  1  0  0  0  0  0  0
  187.2240  177.8720  143.7730 C   0  0  0  0  0  0  0  0  0  0  0  0
  189.1100  177.3890  145.7810 C   0  0  0  0  0  0  0  0  0  0  0  0
  182.3500  180.7470  138.4930 N   0  0  0  0  0  2  0  0  0  0  0  0
  181.1480  181.5050  138.3630 C   0  0  0  0  0  0  0  0  0  0  0  0
  180.2950  181.6680  139.4490 O   0  0  0  0  0  1  0  0  0  0  0  0
  180.8570  182.0300  137.2580 O   0  0  0  0  0  0  0  0  0  0  0  0
  1 16  1  1  0  0  0
  2 24  1  0  0  0  0
  2 27  1  0  0  0  0
  3 11  2  0  0  0  0
  3  4  1  0  0  0  0
  4 21  2  0  0  0  0
  5 25  1  0  0  0  0
  5  6  1  0  0  0  0
  6 18  1  0  0  0  0
  7 19  1  0  0  0  0
  7 24  2  0  0  0  0
  8 17  2  0  0  0  0
  8 12  1  0  0  0  0
  9 26  1  0  0  0  0
  9 15  1  0  0  0  0
 10 20  1  0  0  0  0
 10  1  1  0  0  0  0
 10 17  1  1  0  0  0
 11 13  1  0  0  0  0
 12  2  2  0  0  0  0
 13 12  1  0  0  0  0
 13 22  2  0  0  0  0
 14 27  1  0  0  0  0
 14 23  2  0  0  0  0
 16 19  1  0  0  0  0
 17  7  1  0  0  0  0
 18 15  2  0  0  0  0
 20 29  1  6  0  0  0
 20  1  1  0  0  0  0
 21 22  1  0  0  0  0
 22 14  1  0  0  0  0
 23 28  1  0  0  0  0
 27  5  2  0  0  0  0
 28  6  2  0  0  0  0
 28  9  1  0  0  0  0
 30 29  1  0  0  0  0
 30 31  1  0  0  0  0
 32 30  2  0  0  0  0
M  END
>  <MODEL>
3

>  <REMARK>
 VINA RESULT:     -11.2      2.690      8.121
  Name = 
  1 active torsions:
  status: ('A' for Active; 'I' for Inactive)
    1  A    between atoms: C_20  and  N_29
                            x       y       z     vdW  Elec       q    Type
                         _______ _______ _______ _____ _____    ______ ____

>  <TORSDO>
F 1

$$$$
=
 OpenBabel11122410423D

 32 38  0  0  1  0  0  0  0  0999 V2000
  179.2290  178.8700  141.9990 C   0  0  1  0  0  3  0  0  0  0  0  0
  184.1790  178.5000  143.4400 C   0  0  0  0  0  0  0  0  0  0  0  0
  186.7010  178.3240  139.2800 C   0  0  0  0  0  3  0  0  0  0  0  0
  187.8300  178.1540  140.0130 N   0  0  0  0  0  0  0  0  0  0  0  0
  185.4270  178.2670  145.6020 C   0  0  0  0  0  0  0  0  0  0  0  0
  186.6610  178.0880  146.2200 C   0  0  0  0  0  0  0  0  0  0  0  0
  181.7600  178.8040  143.3680 C   0  0  0  0  0  0  0  0  0  0  0  0
  183.0030  178.7310  141.3080 C   0  0  0  0  0  3  0  0  0  0  0  0
  188.8320  177.8060  146.3700 N   0  0  0  0  0  0  0  0  0  0  0  0
  180.5210  179.0610  141.1850 C   0  0  2  0  0  3  0  0  0  0  0  0
  185.4780  178.4580  139.9290 C   0  0  0  0  0  3  0  0  0  0  0  0
  184.2040  178.5480  142.0190 C   0  0  0  0  0  0  0  0  0  0  0  0
  185.4220  178.4160  141.3280 C   0  0  0  0  0  0  0  0  0  0  0  0
  186.6200  178.1880  143.4430 C   0  0  0  0  0  0  0  0  0  0  0  0
  188.3550  177.8240  147.6080 N   0  0  0  0  0  0  0  0  0  0  0  0
  179.4340  178.3480  143.3200 O   0  0  0  0  0  0  0  0  0  0  0  0
  181.7870  178.8620  141.9750 C   0  0  0  0  0  0  0  0  0  0  0  0
  187.0090  177.9980  147.5570 C   0  0  0  0  0  3  0  0  0  0  0  0
  180.4530  178.9950  144.0520 C   0  0  0  0  0  2  0  0  0  0  0  0
  179.7600  180.2740  141.7120 C   0  0  1  0  0  3  0  0  0  0  0  0
  187.7920  178.1120  141.3460 N   0  0  0  0  0  0  0  0  0  0  0  0
  186.6240  178.2370  142.0400 C   0  0  0  0  0  0  0  0  0  0  0  0
  187.8410  178.0090  144.1290 C   0  0  0  0  0  3  0  0  0  0  0  0
  182.9390  178.6380  144.0900 C   0  0  0  0  0  3  0  0  0  0  0  0
  184.2890  178.3850  146.3950 O   0  0  0  0  0  1  0  0  0  0  0  0
  190.2350  177.6380  146.0380 C   0  0  0  0  0  1  0  0  0  0  0  0
  185.3860  178.3210  144.1720 C   0  0  0  0  0  0  0  0  0  0  0  0
  187.8140  177.9650  145.5140 C   0  0  0  0  0  0  0  0  0  0  0  0
  178.9920  180.8670  140.6310 N   0  0  0  0  0  2  0  0  0  0  0  0
  179.6280  181.4570  139.4990 C   0  0  0  0  0  0  0  0  0  0  0  0
  181.0150  181.4740  139.3990 O   0  0  0  0  0  1  0  0  0  0  0  0
  178.9310  181.9630  138.5840 O   0  0  0  0  0  0  0  0  0  0  0  0
  1 16  1  1  0  0  0
  2 24  1  0  0  0  0
  2 27  1  0  0  0  0
  3 11  2  0  0  0  0
  3  4  1  0  0  0  0
  4 21  2  0  0  0  0
  5  6  1  0  0  0  0
  5 25  1  0  0  0  0
  6 18  1  0  0  0  0
  7 19  1  0  0  0  0
  7 24  2  0  0  0  0
  8 17  2  0  0  0  0
  8 12  1  0  0  0  0
  9 15  1  0  0  0  0
 10 20  1  0  0  0  0
 10 17  1  1  0  0  0
 10  1  1  0  0  0  0
 11 13  1  0  0  0  0
 12  2  2  0  0  0  0
 13 12  1  0  0  0  0
 13 22  2  0  0  0  0
 14 23  2  0  0  0  0
 14 27  1  0  0  0  0
 16 19  1  0  0  0  0
 17  7  1  0  0  0  0
 18 15  2  0  0  0  0
 20 29  1  6  0  0  0
 20  1  1  0  0  0  0
 21 22  1  0  0  0  0
 22 14  1  0  0  0  0
 23 28  1  0  0  0  0
 26  9  1  0  0  0  0
 27  5  2  0  0  0  0
 28  6  2  0  0  0  0
 28  9  1  0  0  0  0
 30 29  1  0  0  0  0
 31 30  1  0  0  0  0
 32 30  2  0  0  0  0
M  END
>  <MODEL>
4

>  <REMARK>
 VINA RESULT:     -11.2      2.649      8.163
  Name = 
  1 active torsions:
  status: ('A' for Active; 'I' for Inactive)
    1  A    between atoms: C_20  and  N_29
                            x       y       z     vdW  Elec       q    Type
                         _______ _______ _______ _____ _____    ______ ____

>  <TORSDO>
F 1

$$$$
=
 OpenBabel11122410423D

 32 38  0  0  1  0  0  0  0  0999 V2000
  183.2220  179.6300  138.7470 C   0  0  1  0  0  3  0  0  0  0  0  0
  186.5970  178.1790  142.3830 C   0  0  0  0  0  0  0  0  0  0  0  0
  184.1950  178.6280  146.5940 C   0  0  0  0  0  3  0  0  0  0  0  0
  185.3350  178.2770  147.2400 N   0  0  0  0  0  0  0  0  0  0  0  0
  189.0090  177.5010  142.4520 C   0  0  0  0  0  0  0  0  0  0  0  0
  190.0980  177.1570  143.2470 C   0  0  0  0  0  0  0  0  0  0  0  0
  185.4360  178.6200  140.2840 C   0  0  0  0  0  0  0  0  0  0  0  0
  184.2390  178.8300  142.3610 C   0  0  0  0  0  3  0  0  0  0  0  0
  191.2160  176.7490  145.0910 N   0  0  0  0  0  0  0  0  0  0  0  0
  183.0000  179.2780  140.2290 C   0  0  2  0  0  3  0  0  0  0  0  0
  184.1910  178.7010  145.2040 C   0  0  0  0  0  3  0  0  0  0  0  0
  185.3950  178.4760  143.0830 C   0  0  0  0  0  0  0  0  0  0  0  0
  185.3600  178.4130  144.4880 C   0  0  0  0  0  0  0  0  0  0  0  0
  187.7110  177.7570  144.5360 C   0  0  0  0  0  0  0  0  0  0  0  0
  192.0550  176.5680  144.0790 N   0  0  0  0  0  0  0  0  0  0  0  0
  184.6000  179.7300  138.3620 O   0  0  0  0  0  0  0  0  0  0  0  0
  184.2550  178.9000  140.9700 C   0  0  0  0  0  0  0  0  0  0  0  0
  191.3980  176.8110  142.9160 C   0  0  0  0  0  3  0  0  0  0  0  0
  185.4070  178.6560  138.7970 C   0  0  0  0  0  2  0  0  0  0  0  0
  182.7040  178.2480  139.1420 C   0  0  1  0  0  3  0  0  0  0  0  0
  186.4550  178.0000  146.5710 N   0  0  0  0  0  0  0  0  0  0  0  0
  186.5150  178.0550  145.2090 C   0  0  0  0  0  0  0  0  0  0  0  0
  188.8520  177.3990  145.2860 C   0  0  0  0  0  3  0  0  0  0  0  0
  186.5860  178.2530  140.9780 C   0  0  0  0  0  3  0  0  0  0  0  0
  189.1670  177.5290  141.0700 O   0  0  0  0  0  1  0  0  0  0  0  0
  191.5720  176.5780  146.4880 C   0  0  0  0  0  1  0  0  0  0  0  0
  187.7700  177.8140  143.0990 C   0  0  0  0  0  0  0  0  0  0  0  0
  190.0220  177.1080  144.6010 C   0  0  0  0  0  0  0  0  0  0  0  0
  181.2710  178.1880  138.9130 N   0  0  0  0  0  2  0  0  0  0  0  0
  180.5070  177.0360  139.2640 C   0  0  0  0  0  0  0  0  0  0  0  0
  181.1220  175.9310  139.8430 O   0  0  0  0  0  1  0  0  0  0  0  0
  179.2680  177.0190  139.0500 O   0  0  0  0  0  0  0  0  0  0  0  0
  1 16  1  1  0  0  0
  1 20  1  0  0  0  0
  1 10  1  0  0  0  0
  2 12  1  0  0  0  0
  2 27  1  0  0  0  0
  3  4  1  0  0  0  0
  5 27  2  0  0  0  0
  5  6  1  0  0  0  0
  6 28  2  0  0  0  0
  7 17  2  0  0  0  0
  7 24  1  0  0  0  0
  8 12  2  0  0  0  0
  9 26  1  0  0  0  0
 10 17  1  1  0  0  0
 11  3  2  0  0  0  0
 12 13  1  0  0  0  0
 13 11  1  0  0  0  0
 13 22  2  0  0  0  0
 14 22  1  0  0  0  0
 14 23  2  0  0  0  0
 15  9  1  0  0  0  0
 16 19  1  0  0  0  0
 17  8  1  0  0  0  0
 18  6  1  0  0  0  0
 18 15  2  0  0  0  0
 19  7  1  0  0  0  0
 20 29  1  6  0  0  0
 20 10  1  0  0  0  0
 21  4  2  0  0  0  0
 22 21  1  0  0  0  0
 24  2  2  0  0  0  0
 25  5  1  0  0  0  0
 27 14  1  0  0  0  0
 28  9  1  0  0  0  0
 28 23  1  0  0  0  0
 29 30  1  0  0  0  0
 30 31  1  0  0  0  0
 32 30  2  0  0  0  0
M  END
>  <MODEL>
5

>  <REMARK>
 VINA RESULT:     -10.8      3.179      8.737
  Name = 
  1 active torsions:
  status: ('A' for Active; 'I' for Inactive)
    1  A    between atoms: C_20  and  N_29
                            x       y       z     vdW  Elec       q    Type
                         _______ _______ _______ _____ _____    ______ ____

>  <TORSDO>
F 1

$$$$
=
 OpenBabel11122410423D

 32 38  0  0  1  0  0  0  0  0999 V2000
  191.8150  175.6290  147.1100 C   0  0  1  0  0  3  0  0  0  0  0  0
  188.2930  177.5100  143.8280 C   0  0  0  0  0  0  0  0  0  0  0  0
  184.4480  178.6280  146.5980 C   0  0  0  0  0  3  0  0  0  0  0  0
  183.7790  178.9680  145.4690 N   0  0  0  0  0  0  0  0  0  0  0  0
  188.1010  177.8070  141.3460 C   0  0  0  0  0  0  0  0  0  0  0  0
  187.2940  178.1910  140.2800 C   0  0  0  0  0  0  0  0  0  0  0  0
  190.3310  176.6810  144.8800 C   0  0  0  0  0  0  0  0  0  0  0  0
  188.4390  177.2440  146.2550 C   0  0  0  0  0  3  0  0  0  0  0  0
  185.4960  178.9240  139.2570 N   0  0  0  0  0  0  0  0  0  0  0  0
  190.5170  176.4110  147.3810 C   0  0  2  0  0  3  0  0  0  0  0  0
  185.7590  178.1710  146.5050 C   0  0  0  0  0  3  0  0  0  0  0  0
  187.6960  177.6070  145.1160 C   0  0  0  0  0  0  0  0  0  0  0  0
  186.3730  178.0660  145.2500 C   0  0  0  0  0  0  0  0  0  0  0  0
  186.2030  178.3450  142.8310 C   0  0  0  0  0  0  0  0  0  0  0  0
  186.4060  178.6860  138.3210 N   0  0  0  0  0  0  0  0  0  0  0  0
  191.9830  175.2180  145.7460 O   0  0  0  0  0  0  0  0  0  0  0  0
  189.7500  176.7870  146.1420 C   0  0  0  0  0  0  0  0  0  0  0  0
  187.5380  178.2290  138.9170 C   0  0  0  0  0  3  0  0  0  0  0  0
  191.7480  176.2350  144.7960 C   0  0  0  0  0  2  0  0  0  0  0  0
  191.8650  177.1280  147.4000 C   0  0  1  0  0  3  0  0  0  0  0  0
  184.3500  178.8740  144.2680 N   0  0  0  0  0  0  0  0  0  0  0  0
  185.6310  178.4320  144.1100 C   0  0  0  0  0  0  0  0  0  0  0  0
  185.4360  178.7210  141.7070 C   0  0  0  0  0  3  0  0  0  0  0  0
  189.6190  177.0490  143.7410 C   0  0  0  0  0  3  0  0  0  0  0  0
  189.3960  177.3690  141.0870 O   0  0  0  0  0  1  0  0  0  0  0  0
  184.1600  179.4240  138.9880 C   0  0  0  0  0  1  0  0  0  0  0  0
  187.5560  177.8790  142.6690 C   0  0  0  0  0  0  0  0  0  0  0  0
  186.0210  178.6280  140.4530 C   0  0  0  0  0  0  0  0  0  0  0  0
  192.2790  177.3380  148.7760 N   0  0  0  0  0  2  0  0  0  0  0  0
  193.4860  176.7730  149.2870 C   0  0  0  0  0  0  0  0  0  0  0  0
  194.3050  176.0030  148.4700 O   0  0  0  0  0  0  0  0  0  0  0  0
  193.8110  176.9750  150.4850 O   0  0  0  0  0  1  0  0  0  0  0  0
  1 16  1  6  0  0  0
  1 10  1  0  0  0  0
  1 20  1  0  0  0  0
  2 12  1  0  0  0  0
  4  3  2  0  0  0  0
  5 27  1  0  0  0  0
  6 28  1  0  0  0  0
  6  5  2  0  0  0  0
  7 17  2  0  0  0  0
  9 28  1  0  0  0  0
 10 17  1  6  0  0  0
 10 20  1  0  0  0  0
 11  3  1  0  0  0  0
 12 13  1  0  0  0  0
 12  8  2  0  0  0  0
 13 11  2  0  0  0  0
 14 22  1  0  0  0  0
 15 18  2  0  0  0  0
 15  9  1  0  0  0  0
 17  8  1  0  0  0  0
 18  6  1  0  0  0  0
 19  7  1  0  0  0  0
 19 16  1  0  0  0  0
 20 29  1  1  0  0  0
 21  4  1  0  0  0  0
 22 21  2  0  0  0  0
 22 13  1  0  0  0  0
 23 14  1  0  0  0  0
 24  2  2  0  0  0  0
 24  7  1  0  0  0  0
 25  5  1  0  0  0  0
 26  9  1  0  0  0  0
 27 14  2  0  0  0  0
 27  2  1  0  0  0  0
 28 23  2  0  0  0  0
 29 30  1  0  0  0  0
 30 32  1  0  0  0  0
 31 30  2  0  0  0  0
M  END
>  <MODEL>
6

>  <REMARK>
 VINA RESULT:     -10.6      2.578      4.521
  Name = 
  1 active torsions:
  status: ('A' for Active; 'I' for Inactive)
    1  A    between atoms: C_20  and  N_29
                            x       y       z     vdW  Elec       q    Type
                         _______ _______ _______ _____ _____    ______ ____

>  <TORSDO>
F 1

$$$$
=
 OpenBabel11122410423D

 32 38  0  0  1  0  0  0  0  0999 V2000
  190.1100  177.7770  146.2120 C   0  0  1  0  0  3  0  0  0  0  0  0
  185.9120  178.3120  143.2450 C   0  0  0  0  0  0  0  0  0  0  0  0
  187.5930  178.4070  138.6770 C   0  0  0  0  0  3  0  0  0  0  0  0
  186.3240  178.6280  138.2520 N   0  0  0  0  0  0  0  0  0  0  0  0
  183.4560  178.6460  143.6190 C   0  0  0  0  0  0  0  0  0  0  0  0
  182.2120  178.8750  143.0390 C   0  0  0  0  0  0  0  0  0  0  0  0
  187.4660  177.9490  145.0900 C   0  0  0  0  0  0  0  0  0  0  0  0
  188.3010  177.9820  142.8330 C   0  0  0  0  0  3  0  0  0  0  0  0
  180.7520  179.2120  141.4360 N   0  0  0  0  0  0  0  0  0  0  0  0
  189.9320  177.5900  144.6950 C   0  0  2  0  0  3  0  0  0  0  0  0
  187.8450  178.2660  140.0370 C   0  0  0  0  0  3  0  0  0  0  0  0
  187.0040  178.2170  142.3380 C   0  0  0  0  0  0  0  0  0  0  0  0
  186.7890  178.3540  140.9540 C   0  0  0  0  0  0  0  0  0  0  0  0
  184.4010  178.6800  141.3380 C   0  0  0  0  0  0  0  0  0  0  0  0
  180.0820  179.2250  142.5820 N   0  0  0  0  0  0  0  0  0  0  0  0
  188.9730  178.3480  146.8760 O   0  0  0  0  0  0  0  0  0  0  0  0
  188.5330  177.8450  144.1990 C   0  0  0  0  0  0  0  0  0  0  0  0
  180.9550  179.0180  143.6010 C   0  0  0  0  0  3  0  0  0  0  0  0
  187.7390  177.7500  146.5380 C   0  0  0  0  0  2  0  0  0  0  0  0
  189.9460  176.3780  145.6230 C   0  0  1  0  0  3  0  0  0  0  0  0
  185.3090  178.7140  139.1130 N   0  0  0  0  0  0  0  0  0  0  0  0
  185.4910  178.5850  140.4590 C   0  0  0  0  0  0  0  0  0  0  0  0
  183.1110  178.9110  140.8120 C   0  0  0  0  0  3  0  0  0  0  0  0
  186.1730  178.1670  144.6190 C   0  0  0  0  0  3  0  0  0  0  0  0
  183.5430  178.5280  145.0030 O   0  0  0  0  0  1  0  0  0  0  0  0
  180.1420  179.4020  140.1320 C   0  0  0  0  0  1  0  0  0  0  0  0
  184.5960  178.5430  142.7570 C   0  0  0  0  0  0  0  0  0  0  0  0
  182.0480  179.0010  141.6980 C   0  0  0  0  0  0  0  0  0  0  0  0
  191.2440  175.7310  145.5500 N   0  0  0  0  0  2  0  0  0  0  0  0
  191.6750  175.0530  144.3710 C   0  0  0  0  0  0  0  0  0  0  0  0
  190.8560  174.9990  143.2480 O   0  0  0  0  0  0  0  0  0  0  0  0
  192.8050  174.5030  144.3450 O   0  0  0  0  0  1  0  0  0  0  0  0
  1 16  1  1  0  0  0
  2 24  1  0  0  0  0
  3 11  1  0  0  0  0
  4  3  2  0  0  0  0
  4 21  1  0  0  0  0
  5 25  1  0  0  0  0
  6 18  1  0  0  0  0
  6  5  1  0  0  0  0
  7 19  1  0  0  0  0
  8 17  2  0  0  0  0
  9 28  1  0  0  0  0
  9 15  1  0  0  0  0
 10 17  1  1  0  0  0
 10 20  1  0  0  0  0
 10  1  1  0  0  0  0
 11 13  2  0  0  0  0
 12  8  1  0  0  0  0
 12  2  2  0  0  0  0
 13 12  1  0  0  0  0
 14 27  1  0  0  0  0
 15 18  2  0  0  0  0
 17  7  1  0  0  0  0
 19 16  1  0  0  0  0
 20 29  1  6  0  0  0
 20  1  1  0  0  0  0
 21 22  2  0  0  0  0
 22 13  1  0  0  0  0
 22 14  1  0  0  0  0
 23 14  2  0  0  0  0
 23 28  1  0  0  0  0
 24  7  2  0  0  0  0
 26  9  1  0  0  0  0
 27  2  1  0  0  0  0
 27  5  2  0  0  0  0
 28  6  2  0  0  0  0
 30 29  1  0  0  0  0
 31 30  2  0  0  0  0
 32 30  1  0  0  0  0
M  END
>  <MODEL>
7

>  <REMARK>
 VINA RESULT:      -9.7      1.273      1.439
  Name = 
  1 active torsions:
  status: ('A' for Active; 'I' for Inactive)
    1  A    between atoms: C_20  and  N_29
                            x       y       z     vdW  Elec       q    Type
                         _______ _______ _______ _____ _____    ______ ____

>  <TORSDO>
F 1

$$$$
=
 OpenBabel11122410423D

 32 38  0  0  1  0  0  0  0  0999 V2000
  180.7140  179.0660  139.9430 C   0  0  1  0  0  3  0  0  0  0  0  0
  185.6470  178.3530  141.3100 C   0  0  0  0  0  0  0  0  0  0  0  0
  188.1350  178.3530  137.1250 C   0  0  0  0  0  3  0  0  0  0  0  0
  189.2580  178.0760  137.8340 N   0  0  0  0  0  0  0  0  0  0  0  0
  186.8940  177.9060  143.4380 C   0  0  0  0  0  0  0  0  0  0  0  0
  188.1210  177.6230  144.0300 C   0  0  0  0  0  0  0  0  0  0  0  0
  183.2460  178.7790  141.2810 C   0  0  0  0  0  0  0  0  0  0  0  0
  184.4720  178.7930  139.2100 C   0  0  0  0  0  3  0  0  0  0  0  0
  190.2760  177.2250  144.1410 N   0  0  0  0  0  0  0  0  0  0  0  0
  182.0090  179.2520  139.1330 C   0  0  2  0  0  3  0  0  0  0  0  0
  186.9230  178.5000  137.7930 C   0  0  0  0  0  3  0  0  0  0  0  0
  185.6660  178.5010  139.8950 C   0  0  0  0  0  0  0  0  0  0  0  0
  186.8730  178.3600  139.1860 C   0  0  0  0  0  0  0  0  0  0  0  0
  188.0700  177.9240  141.2680 C   0  0  0  0  0  0  0  0  0  0  0  0
  189.8080  177.1780  145.3820 N   0  0  0  0  0  0  0  0  0  0  0  0
  180.9000  178.4420  141.2210 O   0  0  0  0  0  0  0  0  0  0  0  0
  183.2680  178.9350  139.8960 C   0  0  0  0  0  0  0  0  0  0  0  0
  188.4720  177.4200  145.3540 C   0  0  0  0  0  3  0  0  0  0  0  0
  181.9540  178.9840  141.9890 C   0  0  0  0  0  2  0  0  0  0  0  0
  181.3110  180.4590  139.7520 C   0  0  1  0  0  3  0  0  0  0  0  0
  189.2250  177.9400  139.1600 N   0  0  0  0  0  0  0  0  0  0  0  0
  188.0690  178.0720  139.8720 C   0  0  0  0  0  0  0  0  0  0  0  0
  189.2840  177.6370  141.9290 C   0  0  0  0  0  3  0  0  0  0  0  0
  184.4190  178.5040  141.9790 C   0  0  0  0  0  3  0  0  0  0  0  0
  185.7670  178.0220  144.2480 O   0  0  0  0  0  1  0  0  0  0  0  0
  191.6680  177.0130  143.7850 C   0  0  0  0  0  1  0  0  0  0  0  0
  186.8480  178.0640  142.0160 C   0  0  0  0  0  0  0  0  0  0  0  0
  189.2620  177.4950  143.3080 C   0  0  0  0  0  0  0  0  0  0  0  0
  180.5670  181.1650  138.7230 N   0  0  0  0  0  2  0  0  0  0  0  0
  181.0850  182.3390  138.1000 C   0  0  0  0  0  0  0  0  0  0  0  0
  182.3310  182.8400  138.4640 O   0  0  0  0  0  1  0  0  0  0  0  0
  180.4120  182.9250  137.2150 O   0  0  0  0  0  0  0  0  0  0  0  0
  1 16  1  1  0  0  0
  2 24  1  0  0  0  0
  2 27  1  0  0  0  0
  3 11  2  0  0  0  0
  3  4  1  0  0  0  0
  4 21  2  0  0  0  0
  5  6  1  0  0  0  0
  5 25  1  0  0  0  0
  6 18  1  0  0  0  0
  7 24  2  0  0  0  0
  7 19  1  0  0  0  0
  8 12  1  0  0  0  0
  8 17  2  0  0  0  0
  9 15  1  0  0  0  0
 10 20  1  0  0  0  0
 10 17  1  1  0  0  0
 10  1  1  0  0  0  0
 11 13  1  0  0  0  0
 12  2  2  0  0  0  0
 13 22  2  0  0  0  0
 13 12  1  0  0  0  0
 14 23  2  0  0  0  0
 14 27  1  0  0  0  0
 16 19  1  0  0  0  0
 17  7  1  0  0  0  0
 18 15  2  0  0  0  0
 20 29  1  6  0  0  0
 20  1  1  0  0  0  0
 21 22  1  0  0  0  0
 22 14  1  0  0  0  0
 23 28  1  0  0  0  0
 26  9  1  0  0  0  0
 27  5  2  0  0  0  0
 28  6  2  0  0  0  0
 28  9  1  0  0  0  0
 30 31  1  0  0  0  0
 30 29  1  0  0  0  0
 32 30  2  0  0  0  0
M  END
>  <MODEL>
8

>  <REMARK>
 VINA RESULT:      -9.4      2.991      8.372
  Name = 
  1 active torsions:
  status: ('A' for Active; 'I' for Inactive)
    1  A    between atoms: C_20  and  N_29
                            x       y       z     vdW  Elec       q    Type
                         _______ _______ _______ _____ _____    ______ ____

>  <TORSDO>
F 1

$$$$
=
 OpenBabel11122410423D

 32 38  0  0  1  0  0  0  0  0999 V2000
  193.0400  177.1240  138.4810 C   0  0  1  0  0  3  0  0  0  0  0  0
  189.2300  177.6010  141.9400 C   0  0  0  0  0  0  0  0  0  0  0  0
  185.2580  178.6280  139.3190 C   0  0  0  0  0  3  0  0  0  0  0  0
  184.5680  178.7560  140.4800 N   0  0  0  0  0  0  0  0  0  0  0  0
  189.0330  177.5650  144.4390 C   0  0  0  0  0  0  0  0  0  0  0  0
  188.2010  177.7270  145.5430 C   0  0  0  0  0  0  0  0  0  0  0  0
  191.3370  177.1440  140.8010 C   0  0  0  0  0  0  0  0  0  0  0  0
  189.3740  177.6380  139.4990 C   0  0  0  0  0  3  0  0  0  0  0  0
  186.3460  178.1330  146.6430 N   0  0  0  0  0  0  0  0  0  0  0  0
  191.5140  177.1600  138.2840 C   0  0  2  0  0  3  0  0  0  0  0  0
  186.6100  178.3050  139.3590 C   0  0  0  0  0  3  0  0  0  0  0  0
  188.6120  177.7870  140.6730 C   0  0  0  0  0  0  0  0  0  0  0  0
  187.2460  178.1150  140.5930 C   0  0  0  0  0  0  0  0  0  0  0  0
  187.0740  178.0780  143.0270 C   0  0  0  0  0  0  0  0  0  0  0  0
  187.2860  177.8800  147.5450 N   0  0  0  0  0  0  0  0  0  0  0  0
  193.4720  177.4370  139.8120 O   0  0  0  0  0  0  0  0  0  0  0  0
  190.7280  177.3160  139.5590 C   0  0  0  0  0  0  0  0  0  0  0  0
  188.4530  177.6230  146.9010 C   0  0  0  0  0  3  0  0  0  0  0  0
  192.7720  176.7530  140.8300 C   0  0  0  0  0  2  0  0  0  0  0  0
  192.2570  175.8270  138.2860 C   0  0  1  0  0  3  0  0  0  0  0  0
  185.1600  178.5770  141.6620 N   0  0  0  0  0  0  0  0  0  0  0  0
  186.4820  178.2590  141.7670 C   0  0  0  0  0  0  0  0  0  0  0  0
  186.2830  178.2280  144.1870 C   0  0  0  0  0  3  0  0  0  0  0  0
  190.5970  177.2720  141.9730 C   0  0  0  0  0  3  0  0  0  0  0  0
  190.3700  177.2400  144.6460 O   0  0  0  0  0  1  0  0  0  0  0  0
  184.9670  178.4500  146.9690 C   0  0  0  0  0  1  0  0  0  0  0  0
  188.4690  177.7420  143.1350 C   0  0  0  0  0  0  0  0  0  0  0  0
  186.8870  178.0440  145.4210 C   0  0  0  0  0  0  0  0  0  0  0  0
  192.4220  175.3660  136.9190 N   0  0  0  0  0  2  0  0  0  0  0  0
  193.3400  174.3250  136.5880 C   0  0  0  0  0  0  0  0  0  0  0  0
  194.1040  173.7170  137.5790 O   0  0  0  0  0  1  0  0  0  0  0  0
  193.4580  173.9530  135.3930 O   0  0  0  0  0  0  0  0  0  0  0  0
  1 16  1  1  0  0  0
  2 24  1  0  0  0  0
  2 27  1  0  0  0  0
  3 11  2  0  0  0  0
  3  4  1  0  0  0  0
  4 21  2  0  0  0  0
  5 25  1  0  0  0  0
  5  6  1  0  0  0  0
  6 18  1  0  0  0  0
  7 19  1  0  0  0  0
  7 24  2  0  0  0  0
  8 17  2  0  0  0  0
  8 12  1  0  0  0  0
  9 26  1  0  0  0  0
  9 15  1  0  0  0  0
 10 20  1  0  0  0  0
 10  1  1  0  0  0  0
 10 17  1  1  0  0  0
 11 13  1  0  0  0  0
 12  2  2  0  0  0  0
 13 12  1  0  0  0  0
 13 22  2  0  0  0  0
 14 27  1  0  0  0  0
 14 23  2  0  0  0  0
 16 19  1  0  0  0  0
 17  7  1  0  0  0  0
 18 15  2  0  0  0  0
 20 29  1  6  0  0  0
 20  1  1  0  0  0  0
 21 22  1  0  0  0  0
 22 14  1  0  0  0  0
 23 28  1  0  0  0  0
 27  5  2  0  0  0  0
 28  6  2  0  0  0  0
 28  9  1  0  0  0  0
 30 29  1  0  0  0  0
 30 31  1  0  0  0  0
 32 30  2  0  0  0  0
M  END
>  <MODEL>
9

>  <REMARK>
 VINA RESULT:      -9.4      3.838      6.973
  Name = 
  1 active torsions:
  status: ('A' for Active; 'I' for Inactive)
    1  A    between atoms: C_20  and  N_29
                            x       y       z     vdW  Elec       q    Type
                         _______ _______ _______ _____ _____    ______ ____

>  <TORSDO>
F 1

$$$$
