=
 OpenBabel11122411563D

 28 32  0  0  1  0  0  0  0  0999 V2000
  189.3860  178.1330  138.0480 C   0  0  0  0  0  0  0  0  0  0  0  0
  192.3220  175.8890  134.5940 F   0  0  0  0  0  0  0  0  0  0  0  0
  186.6490  174.5160  137.2590 O   0  0  0  0  0  0  0  0  0  0  0  0
  189.9530  176.8700  140.4810 C   0  0  0  0  0  3  0  0  0  0  0  0
  188.8030  173.6750  136.8480 N   0  0  0  0  0  0  0  0  0  0  0  0
  189.0660  178.7210  136.8240 O   0  0  0  0  0  0  0  0  0  0  0  0
  193.9080  176.6940  136.1410 C   0  0  0  0  0  1  0  0  0  0  0  0
  192.9290  175.5870  135.8040 C   0  0  1  0  0  0  0  0  0  0  0  0
  192.7070  173.1430  135.5280 C   0  0  1  0  0  3  0  0  0  0  0  0
  191.8910  175.4660  136.9440 C   0  0  2  0  0  3  0  0  0  0  0  0
  186.3840  177.4650  137.6110 O   0  0  0  0  0  1  0  0  0  0  0  0
  189.6840  175.6760  135.9030 C   0  0  1  0  0  3  0  0  0  0  0  0
  192.0280  172.9780  136.7490 O   0  0  0  0  0  0  0  0  0  0  0  0
  193.7020  174.2880  135.6420 C   0  0  0  0  0  2  0  0  0  0  0  0
  186.8100  177.9140  136.3600 C   0  0  2  0  0  3  0  0  0  0  0  0
  190.2130  176.9990  138.0640 C   0  0  0  0  0  0  0  0  0  0  0  0
  187.8310  174.6960  136.8650 C   0  0  0  0  0  0  0  0  0  0  0  0
  193.4470  171.8680  135.1880 C   0  0  0  0  0  1  0  0  0  0  0  0
  187.4100  176.7750  135.5260 C   0  0  0  0  0  2  0  0  0  0  0  0
  190.4800  176.3640  139.2900 C   0  0  0  0  0  3  0  0  0  0  0  0
  188.8560  178.6350  139.2460 C   0  0  0  0  0  3  0  0  0  0  0  0
  189.1440  178.0070  140.4600 C   0  0  0  0  0  3  0  0  0  0  0  0
  187.7410  179.1220  136.4980 C   0  0  0  0  0  2  0  0  0  0  0  0
  189.9580  174.1690  136.1180 C   0  0  1  0  0  3  0  0  0  0  0  0
  188.2950  175.9130  136.3090 N   0  0  0  0  0  0  0  0  0  0  0  0
  191.1980  174.0980  136.9940 C   0  0  2  0  0  3  0  0  0  0  0  0
  188.4990  172.3600  136.9490 O   0  0  0  0  0  1  0  0  0  0  0  0
  190.7310  176.4440  136.7490 C   0  0  1  0  0  3  0  0  0  0  0  0
  1 16  2  0  0  0  0
  1 21  1  0  0  0  0
  2  8  1  0  0  0  0
  5 17  1  0  0  0  0
  5 27  1  0  0  0  0
  6  1  1  0  0  0  0
  8  7  1  1  0  0  0
  8 10  1  0  0  0  0
  9 18  1  1  0  0  0
  9 14  1  0  0  0  0
  9 13  1  0  0  0  0
 10 26  1  0  0  0  0
 12 24  1  0  0  0  0
 12 25  1  0  0  0  0
 12 28  1  0  0  0  0
 13 26  1  0  0  0  0
 14  8  1  0  0  0  0
 15 23  1  0  0  0  0
 15 11  1  0  0  0  0
 16 20  1  0  0  0  0
 17  3  2  0  0  0  0
 19 25  1  0  0  0  0
 19 15  1  0  0  0  0
 20  4  2  0  0  0  0
 21 22  2  0  0  0  0
 22  4  1  0  0  0  0
 23  6  1  0  0  0  0
 24  5  1  0  0  0  0
 24 26  1  0  0  0  0
 25 17  1  0  0  0  0
 28 10  1  0  0  0  0
 28 16  1  0  0  0  0
M  END
>  <MODEL>
1

>  <REMARK>
 VINA RESULT:      -6.0      0.000      0.000
  Name = 
  0 active torsions:
  status: ('A' for Active; 'I' for Inactive)
                            x       y       z     vdW  Elec       q    Type
                         _______ _______ _______ _____ _____    ______ ____

>  <TORSDO>
F 0

$$$$
=
 OpenBabel11122411563D

 28 32  0  0  1  0  0  0  0  0999 V2000
  181.0980  179.0880  137.6620 C   0  0  0  0  0  0  0  0  0  0  0  0
  185.5340  176.8060  138.4990 F   0  0  0  0  0  0  0  0  0  0  0  0
  180.5670  178.4900  142.1960 O   0  0  0  0  0  0  0  0  0  0  0  0
  181.4840  181.7850  138.3040 C   0  0  0  0  0  3  0  0  0  0  0  0
  182.8930  178.6960  141.9370 N   0  0  0  0  0  0  0  0  0  0  0  0
  180.8950  177.7330  137.3970 O   0  0  0  0  0  0  0  0  0  0  0  0
  186.1170  178.4520  136.9160 C   0  0  0  0  0  1  0  0  0  0  0  0
  185.8600  178.1490  138.3780 C   0  0  1  0  0  0  0  0  0  0  0  0
  186.8240  178.3190  140.6450 C   0  0  1  0  0  3  0  0  0  0  0  0
  184.7170  179.0570  138.8890 C   0  0  2  0  0  3  0  0  0  0  0  0
  178.9430  178.1940  139.7130 O   0  0  0  0  0  1  0  0  0  0  0  0
  183.0180  177.5730  139.8400 C   0  0  1  0  0  3  0  0  0  0  0  0
  185.9870  179.3870  141.0170 O   0  0  0  0  0  0  0  0  0  0  0  0
  187.1390  178.4050  139.1600 C   0  0  0  0  0  2  0  0  0  0  0  0
  179.4470  176.9920  139.2160 C   0  0  2  0  0  3  0  0  0  0  0  0
  182.3020  179.4930  138.2590 C   0  0  0  0  0  0  0  0  0  0  0  0
  181.6060  178.3150  141.5050 C   0  0  0  0  0  0  0  0  0  0  0  0
  188.1120  178.3930  141.4360 C   0  0  0  0  0  1  0  0  0  0  0  0
  180.6890  176.5370  139.9930 C   0  0  0  0  0  2  0  0  0  0  0  0
  182.4790  180.8480  138.5900 C   0  0  0  0  0  3  0  0  0  0  0  0
  180.0990  180.0310  137.3800 C   0  0  0  0  0  3  0  0  0  0  0  0
  180.2950  181.3780  137.6970 C   0  0  0  0  0  3  0  0  0  0  0  0
  179.6720  177.0740  137.7040 C   0  0  0  0  0  2  0  0  0  0  0  0
  183.8600  178.1310  141.0120 C   0  0  1  0  0  3  0  0  0  0  0  0
  181.6150  177.6360  140.2640 N   0  0  0  0  0  0  0  0  0  0  0  0
  184.7160  179.2350  140.4130 C   0  0  2  0  0  3  0  0  0  0  0  0
  183.1870  178.9890  143.2250 O   0  0  0  0  0  1  0  0  0  0  0  0
  183.3460  178.4450  138.6020 C   0  0  1  0  0  3  0  0  0  0  0  0
  1 16  1  0  0  0  0
  4 20  1  0  0  0  0
  5 27  1  0  0  0  0
  6  1  1  0  0  0  0
  6 23  1  0  0  0  0
  8  7  1  6  0  0  0
  8  2  1  0  0  0  0
  8 10  1  0  0  0  0
  8 14  1  0  0  0  0
  9 13  1  0  0  0  0
  9 18  1  1  0  0  0
 10 26  1  0  0  0  0
 12 25  1  0  0  0  0
 12 24  1  0  0  0  0
 14  9  1  0  0  0  0
 15 11  1  0  0  0  0
 15 19  1  0  0  0  0
 16 20  2  0  0  0  0
 16 28  1  0  0  0  0
 17  5  1  0  0  0  0
 17  3  2  0  0  0  0
 19 25  1  0  0  0  0
 21  1  2  0  0  0  0
 21 22  1  0  0  0  0
 22  4  2  0  0  0  0
 23 15  1  0  0  0  0
 24  5  1  0  0  0  0
 25 17  1  0  0  0  0
 26 24  1  0  0  0  0
 26 13  1  0  0  0  0
 28 10  1  0  0  0  0
 28 12  1  0  0  0  0
M  END
>  <MODEL>
2

>  <REMARK>
 VINA RESULT:      -5.8      6.075      8.759
  Name = 
  0 active torsions:
  status: ('A' for Active; 'I' for Inactive)
                            x       y       z     vdW  Elec       q    Type
                         _______ _______ _______ _____ _____    ______ ____

>  <TORSDO>
F 0

$$$$
=
 OpenBabel11122411563D

 28 32  0  0  1  0  0  0  0  0999 V2000
  179.9490  179.2590  137.0650 C   0  0  0  0  0  0  0  0  0  0  0  0
  181.4020  174.7010  138.7070 F   0  0  0  0  0  0  0  0  0  0  0  0
  183.9030  180.6040  139.0010 O   0  0  0  0  0  0  0  0  0  0  0  0
  181.2770  179.6650  134.6350 C   0  0  0  0  0  3  0  0  0  0  0  0
  184.3380  178.3920  138.3410 N   0  0  0  0  0  0  0  0  0  0  0  0
  179.3320  179.0780  138.3030 O   0  0  0  0  0  0  0  0  0  0  0  0
  180.4620  174.1920  136.6070 C   0  0  0  0  0  1  0  0  0  0  0  0
  181.6880  174.6810  137.3510 C   0  0  1  0  0  0  0  0  0  0  0  0
  184.1070  174.2980  137.6670 C   0  0  1  0  0  3  0  0  0  0  0  0
  182.0670  176.0870  136.8300 C   0  0  2  0  0  3  0  0  0  0  0  0
  181.0750  181.5370  138.8520 O   0  0  0  0  0  1  0  0  0  0  0  0
  182.1530  177.5560  138.7870 C   0  0  1  0  0  3  0  0  0  0  0  0
  184.4750  175.4220  136.9060 O   0  0  0  0  0  0  0  0  0  0  0  0
  182.8240  173.6980  137.1140 C   0  0  0  0  0  2  0  0  0  0  0  0
  180.4690  180.6690  139.7620 C   0  0  2  0  0  3  0  0  0  0  0  0
  180.9260  178.3420  136.6480 C   0  0  0  0  0  0  0  0  0  0  0  0
  183.4980  179.4290  138.7950 C   0  0  0  0  0  0  0  0  0  0  0  0
  185.2120  173.2650  137.6040 C   0  0  0  0  0  1  0  0  0  0  0  0
  181.4250  179.5540  140.2020 C   0  0  0  0  0  2  0  0  0  0  0  0
  181.5970  178.5630  135.4320 C   0  0  0  0  0  3  0  0  0  0  0  0
  179.6330  180.3670  136.2630 C   0  0  0  0  0  3  0  0  0  0  0  0
  180.2940  180.5650  135.0480 C   0  0  0  0  0  3  0  0  0  0  0  0
  179.1360  180.1480  139.2190 C   0  0  0  0  0  2  0  0  0  0  0  0
  183.6050  177.1420  138.4500 C   0  0  1  0  0  3  0  0  0  0  0  0
  182.1830  178.9920  139.0840 N   0  0  0  0  0  0  0  0  0  0  0  0
  183.5320  176.4600  137.0930 C   0  0  2  0  0  3  0  0  0  0  0  0
  185.6890  178.4600  138.3780 O   0  0  0  0  0  1  0  0  0  0  0  0
  181.2860  177.1820  137.5590 C   0  0  1  0  0  3  0  0  0  0  0  0
  1  6  1  0  0  0  0
  4 22  2  0  0  0  0
  4 20  1  0  0  0  0
  5 27  1  0  0  0  0
  5 24  1  0  0  0  0
  5 17  1  0  0  0  0
  6 23  1  0  0  0  0
  8  7  1  6  0  0  0
  8  2  1  0  0  0  0
  9 18  1  6  0  0  0
 10 26  1  0  0  0  0
 10  8  1  0  0  0  0
 10 28  1  0  0  0  0
 11 15  1  0  0  0  0
 12 25  1  0  0  0  0
 13 26  1  0  0  0  0
 13  9  1  0  0  0  0
 14  8  1  0  0  0  0
 14  9  1  0  0  0  0
 15 19  1  0  0  0  0
 16  1  1  0  0  0  0
 16 28  1  0  0  0  0
 17  3  2  0  0  0  0
 17 25  1  0  0  0  0
 20 16  2  0  0  0  0
 21  1  2  0  0  0  0
 22 21  1  0  0  0  0
 23 15  1  0  0  0  0
 24 12  1  0  0  0  0
 25 19  1  0  0  0  0
 26 24  1  0  0  0  0
 28 12  1  0  0  0  0
M  END
>  <MODEL>
3

>  <REMARK>
 VINA RESULT:      -5.4      6.430      9.193
  Name = 
  0 active torsions:
  status: ('A' for Active; 'I' for Inactive)
                            x       y       z     vdW  Elec       q    Type
                         _______ _______ _______ _____ _____    ______ ____

>  <TORSDO>
F 0

$$$$
=
 OpenBabel11122411563D

 28 32  0  0  1  0  0  0  0  0999 V2000
  180.7580  177.6830  137.9460 C   0  0  0  0  0  0  0  0  0  0  0  0
  183.9360  173.8130  137.2360 F   0  0  0  0  0  0  0  0  0  0  0  0
  184.5560  179.7990  139.4620 O   0  0  0  0  0  0  0  0  0  0  0  0
  181.0280  179.3270  135.6970 C   0  0  0  0  0  3  0  0  0  0  0  0
  185.3730  178.2730  137.8740 N   0  0  0  0  0  0  0  0  0  0  0  0
  180.6680  176.8910  139.0910 O   0  0  0  0  0  0  0  0  0  0  0  0
  182.5450  173.6640  135.3380 C   0  0  0  0  0  1  0  0  0  0  0  0
  183.7500  174.3370  135.9650 C   0  0  1  0  0  0  0  0  0  0  0  0
  186.1370  174.8660  135.6210 C   0  0  1  0  0  3  0  0  0  0  0  0
  183.5070  175.8640  136.0130 C   0  0  2  0  0  3  0  0  0  0  0  0
  181.6960  179.5280  140.2630 O   0  0  0  0  0  1  0  0  0  0  0  0
  183.8030  176.5460  138.3460 C   0  0  1  0  0  3  0  0  0  0  0  0
  185.8870  176.2220  135.3390 O   0  0  0  0  0  0  0  0  0  0  0  0
  184.9770  174.0150  135.1280 C   0  0  0  0  0  2  0  0  0  0  0  0
  181.7070  178.2530  140.8290 C   0  0  2  0  0  3  0  0  0  0  0  0
  181.7650  177.4120  137.0070 C   0  0  0  0  0  0  0  0  0  0  0  0
  184.4670  178.6910  138.8700 C   0  0  0  0  0  0  0  0  0  0  0  0
  187.4080  174.4340  134.9230 C   0  0  0  0  0  1  0  0  0  0  0  0
  183.0350  177.5320  140.5730 C   0  0  0  0  0  2  0  0  0  0  0  0
  181.9000  178.2530  135.8880 C   0  0  0  0  0  3  0  0  0  0  0  0
  179.8870  178.7660  137.7530 C   0  0  0  0  0  3  0  0  0  0  0  0
  180.0200  179.5820  136.6280 C   0  0  0  0  0  3  0  0  0  0  0  0
  180.4820  177.4470  140.3870 C   0  0  0  0  0  2  0  0  0  0  0  0
  185.1150  176.8710  137.5930 C   0  0  1  0  0  3  0  0  0  0  0  0
  183.5100  177.7010  139.1990 N   0  0  0  0  0  0  0  0  0  0  0  0
  184.8000  176.6830  136.1190 C   0  0  2  0  0  3  0  0  0  0  0  0
  186.5780  178.8570  137.6740 O   0  0  0  0  0  1  0  0  0  0  0  0
  182.7280  176.2670  137.2650 C   0  0  1  0  0  3  0  0  0  0  0  0
  1  6  1  0  0  0  0
  4 20  2  0  0  0  0
  4 22  1  0  0  0  0
  5 17  1  0  0  0  0
  6 23  1  0  0  0  0
  8  7  1  6  0  0  0
  8 10  1  0  0  0  0
  8  2  1  0  0  0  0
  9 18  1  6  0  0  0
 10 26  1  0  0  0  0
 10 28  1  0  0  0  0
 11 15  1  0  0  0  0
 12 25  1  0  0  0  0
 13  9  1  0  0  0  0
 13 26  1  0  0  0  0
 14  9  1  0  0  0  0
 14  8  1  0  0  0  0
 16 28  1  0  0  0  0
 16  1  2  0  0  0  0
 17 25  1  0  0  0  0
 17  3  2  0  0  0  0
 19 15  1  0  0  0  0
 20 16  1  0  0  0  0
 21  1  1  0  0  0  0
 22 21  2  0  0  0  0
 23 15  1  0  0  0  0
 24  5  1  0  0  0  0
 24 12  1  0  0  0  0
 25 19  1  0  0  0  0
 26 24  1  0  0  0  0
 27  5  1  0  0  0  0
 28 12  1  0  0  0  0
M  END
>  <MODEL>
4

>  <REMARK>
 VINA RESULT:      -5.1      5.089      7.941
  Name = 
  0 active torsions:
  status: ('A' for Active; 'I' for Inactive)
                            x       y       z     vdW  Elec       q    Type
                         _______ _______ _______ _____ _____    ______ ____

>  <TORSDO>
F 0

$$$$
=
 OpenBabel11122411563D

 28 32  0  0  1  0  0  0  0  0999 V2000
  182.9510  177.4250  137.8910 C   0  0  0  0  0  0  0  0  0  0  0  0
  185.8990  173.3160  137.9640 F   0  0  0  0  0  0  0  0  0  0  0  0
  186.9060  179.5640  136.9000 O   0  0  0  0  0  0  0  0  0  0  0  0
  182.3130  177.8710  135.2030 C   0  0  0  0  0  3  0  0  0  0  0  0
  187.2000  177.4150  135.9970 N   0  0  0  0  0  0  0  0  0  0  0  0
  183.3170  177.2330  139.2240 O   0  0  0  0  0  0  0  0  0  0  0  0
  183.9410  172.5000  136.9370 C   0  0  0  0  0  1  0  0  0  0  0  0
  185.2460  173.2450  136.7430 C   0  0  1  0  0  0  0  0  0  0  0  0
  187.3240  173.3040  135.4090 C   0  0  1  0  0  3  0  0  0  0  0  0
  184.9450  174.6520  136.1780 C   0  0  2  0  0  3  0  0  0  0  0  0
  184.5330  179.9870  138.6560 O   0  0  0  0  0  1  0  0  0  0  0  0
  186.0030  176.2550  137.6980 C   0  0  1  0  0  3  0  0  0  0  0  0
  186.9100  174.4150  134.6510 O   0  0  0  0  0  0  0  0  0  0  0  0
  186.1170  172.4550  135.7780 C   0  0  0  0  0  2  0  0  0  0  0  0
  184.8180  179.0980  139.6940 C   0  0  2  0  0  3  0  0  0  0  0  0
  183.5760  176.6600  136.8950 C   0  0  0  0  0  0  0  0  0  0  0  0
  186.6800  178.3250  136.9400 C   0  0  0  0  0  0  0  0  0  0  0  0
  188.2910  172.4720  134.5940 C   0  0  0  0  0  1  0  0  0  0  0  0
  186.0120  178.1980  139.3550 C   0  0  0  0  0  2  0  0  0  0  0  0
  183.2580  176.9020  135.5470 C   0  0  0  0  0  3  0  0  0  0  0  0
  182.0050  178.4000  137.5420 C   0  0  0  0  0  3  0  0  0  0  0  0
  181.6840  178.6180  136.2000 C   0  0  0  0  0  3  0  0  0  0  0  0
  183.5670  178.3190  140.1080 C   0  0  0  0  0  2  0  0  0  0  0  0
  186.9440  176.0700  136.4840 C   0  0  1  0  0  3  0  0  0  0  0  0
  185.9610  177.6930  137.9830 N   0  0  0  0  0  0  0  0  0  0  0  0
  186.1410  175.2880  135.4580 C   0  0  2  0  0  3  0  0  0  0  0  0
  188.2210  177.7160  135.1600 O   0  0  0  0  0  1  0  0  0  0  0  0
  184.6350  175.6480  137.2960 C   0  0  1  0  0  3  0  0  0  0  0  0
  1  6  1  0  0  0  0
  3 17  2  0  0  0  0
  4 20  2  0  0  0  0
  4 22  1  0  0  0  0
  5 24  1  0  0  0  0
  5 17  1  0  0  0  0
  6 23  1  0  0  0  0
  8  7  1  1  0  0  0
  8  2  1  0  0  0  0
  9 18  1  6  0  0  0
  9 14  1  0  0  0  0
 10  8  1  0  0  0  0
 10 28  1  0  0  0  0
 11 15  1  0  0  0  0
 12 25  1  0  0  0  0
 13  9  1  0  0  0  0
 13 26  1  0  0  0  0
 14  8  1  0  0  0  0
 15 23  1  0  0  0  0
 16 28  1  0  0  0  0
 16  1  2  0  0  0  0
 17 25  1  0  0  0  0
 19 15  1  0  0  0  0
 20 16  1  0  0  0  0
 21  1  1  0  0  0  0
 22 21  2  0  0  0  0
 24 12  1  0  0  0  0
 25 19  1  0  0  0  0
 26 10  1  0  0  0  0
 26 24  1  0  0  0  0
 27  5  1  0  0  0  0
 28 12  1  0  0  0  0
M  END
>  <MODEL>
5

>  <REMARK>
 VINA RESULT:      -4.9      4.076      6.333
  Name = 
  0 active torsions:
  status: ('A' for Active; 'I' for Inactive)
                            x       y       z     vdW  Elec       q    Type
                         _______ _______ _______ _____ _____    ______ ____

>  <TORSDO>
F 0

$$$$
=
 OpenBabel11122411563D

 28 32  0  0  1  0  0  0  0  0999 V2000
  180.6560  176.4450  136.5330 C   0  0  0  0  0  0  0  0  0  0  0  0
  185.1690  174.5060  137.7450 F   0  0  0  0  0  0  0  0  0  0  0  0
  181.8320  179.6610  139.6110 O   0  0  0  0  0  0  0  0  0  0  0  0
  181.1560  178.4300  134.6240 C   0  0  0  0  0  3  0  0  0  0  0  0
  183.8950  178.9510  138.7410 N   0  0  0  0  0  0  0  0  0  0  0  0
  180.4170  175.4940  137.5250 O   0  0  0  0  0  0  0  0  0  0  0  0
  185.0790  174.1300  135.4200 C   0  0  0  0  0  1  0  0  0  0  0  0
  185.3810  175.1250  136.5220 C   0  0  1  0  0  0  0  0  0  0  0  0
  187.0980  176.6760  137.3860 C   0  0  1  0  0  3  0  0  0  0  0  0
  184.4730  176.3640  136.3480 C   0  0  2  0  0  3  0  0  0  0  0  0
  179.4270  178.0520  138.8900 O   0  0  0  0  0  1  0  0  0  0  0  0
  183.2880  176.6640  138.4700 C   0  0  1  0  0  3  0  0  0  0  0  0
  186.4170  177.8220  136.9350 O   0  0  0  0  0  0  0  0  0  0  0  0
  186.8470  175.5190  136.4320 C   0  0  0  0  0  2  0  0  0  0  0  0
  179.7570  176.8230  139.4630 C   0  0  2  0  0  3  0  0  0  0  0  0
  181.9800  176.8080  136.2410 C   0  0  0  0  0  0  0  0  0  0  0  0
  182.5530  178.7510  139.1230 C   0  0  0  0  0  0  0  0  0  0  0  0
  188.5820  176.9660  137.4450 C   0  0  0  0  0  1  0  0  0  0  0  0
  181.2110  176.7990  139.9500 C   0  0  0  0  0  2  0  0  0  0  0  0
  182.2190  177.8160  135.2900 C   0  0  0  0  0  3  0  0  0  0  0  0
  179.5910  177.0670  135.8640 C   0  0  0  0  0  3  0  0  0  0  0  0
  179.8420  178.0540  134.9080 C   0  0  0  0  0  3  0  0  0  0  0  0
  179.4140  175.6680  138.5180 C   0  0  0  0  0  2  0  0  0  0  0  0
  184.4790  177.6510  138.4560 C   0  0  1  0  0  3  0  0  0  0  0  0
  182.1340  177.4050  138.9900 N   0  0  0  0  0  0  0  0  0  0  0  0
  185.0190  177.6220  137.0360 C   0  0  2  0  0  3  0  0  0  0  0  0
  184.6280  180.0190  139.1360 O   0  0  0  0  0  1  0  0  0  0  0  0
  183.1130  176.1570  137.0160 C   0  0  1  0  0  3  0  0  0  0  0  0
  1  6  1  0  0  0  0
  4 22  2  0  0  0  0
  4 20  1  0  0  0  0
  5 17  1  0  0  0  0
  5 27  1  0  0  0  0
  6 23  1  0  0  0  0
  8  7  1  6  0  0  0
  8  2  1  0  0  0  0
  9 18  1  6  0  0  0
 10  8  1  0  0  0  0
 10 28  1  0  0  0  0
 10 26  1  0  0  0  0
 11 15  1  0  0  0  0
 12 25  1  0  0  0  0
 13 26  1  0  0  0  0
 13  9  1  0  0  0  0
 14  8  1  0  0  0  0
 14  9  1  0  0  0  0
 15 19  1  0  0  0  0
 16  1  1  0  0  0  0
 16 28  1  0  0  0  0
 17  3  2  0  0  0  0
 20 16  2  0  0  0  0
 21  1  2  0  0  0  0
 22 21  1  0  0  0  0
 23 15  1  0  0  0  0
 24 12  1  0  0  0  0
 24  5  1  0  0  0  0
 25 17  1  0  0  0  0
 25 19  1  0  0  0  0
 26 24  1  0  0  0  0
 28 12  1  0  0  0  0
M  END
>  <MODEL>
6

>  <REMARK>
 VINA RESULT:      -4.8      5.278      8.170
  Name = 
  0 active torsions:
  status: ('A' for Active; 'I' for Inactive)
                            x       y       z     vdW  Elec       q    Type
                         _______ _______ _______ _____ _____    ______ ____

>  <TORSDO>
F 0

$$$$
=
 OpenBabel11122411563D

 28 32  0  0  1  0  0  0  0  0999 V2000
  182.5550  177.6890  136.7650 C   0  0  0  0  0  0  0  0  0  0  0  0
  184.7080  177.2980  141.3260 F   0  0  0  0  0  0  0  0  0  0  0  0
  178.9480  175.8080  138.9220 O   0  0  0  0  0  0  0  0  0  0  0  0
  181.0530  180.0490  136.8200 C   0  0  0  0  0  3  0  0  0  0  0  0
  180.0410  177.0070  140.6210 N   0  0  0  0  0  0  0  0  0  0  0  0
  183.2590  176.4840  136.7610 O   0  0  0  0  0  0  0  0  0  0  0  0
  185.5220  179.3780  140.5720 C   0  0  0  0  0  1  0  0  0  0  0  0
  184.3700  178.6390  141.2230 C   0  0  1  0  0  0  0  0  0  0  0  0
  182.8810  178.6150  143.1930 C   0  0  1  0  0  3  0  0  0  0  0  0
  183.0960  178.8380  140.3700 C   0  0  2  0  0  3  0  0  0  0  0  0
  180.3880  175.5060  136.3280 O   0  0  0  0  0  1  0  0  0  0  0  0
  182.2540  176.6010  139.8400 C   0  0  1  0  0  3  0  0  0  0  0  0
  181.7780  179.1140  142.4760 O   0  0  0  0  0  0  0  0  0  0  0  0
  184.1680  179.1920  142.6250 C   0  0  0  0  0  2  0  0  0  0  0  0
  181.5100  174.7830  136.7380 C   0  0  2  0  0  3  0  0  0  0  0  0
  182.4070  178.3870  137.9730 C   0  0  0  0  0  0  0  0  0  0  0  0
  180.0110  176.2540  139.4290 C   0  0  0  0  0  0  0  0  0  0  0  0
  182.7530  179.0100  144.6480 C   0  0  0  0  0  1  0  0  0  0  0  0
  181.5990  174.6980  138.2670 C   0  0  0  0  0  2  0  0  0  0  0  0
  181.6380  179.5650  137.9920 C   0  0  0  0  0  3  0  0  0  0  0  0
  181.9620  178.1760  135.5910 C   0  0  0  0  0  3  0  0  0  0  0  0
  181.2170  179.3570  135.6190 C   0  0  0  0  0  3  0  0  0  0  0  0
  182.7820  175.3280  136.0840 C   0  0  0  0  0  2  0  0  0  0  0  0
  181.4280  177.1410  141.0310 C   0  0  1  0  0  3  0  0  0  0  0  0
  181.3010  175.9740  138.9180 N   0  0  0  0  0  0  0  0  0  0  0  0
  181.7960  178.6110  141.1530 C   0  0  2  0  0  3  0  0  0  0  0  0
  179.0040  177.0610  141.4900 O   0  0  0  0  0  1  0  0  0  0  0  0
  183.0140  177.8110  139.2400 C   0  0  1  0  0  3  0  0  0  0  0  0
  1 16  1  0  0  0  0
  3 17  2  0  0  0  0
  4 20  1  0  0  0  0
  5 24  1  0  0  0  0
  5 27  1  0  0  0  0
  6  1  1  0  0  0  0
  8  7  1  6  0  0  0
  8  2  1  0  0  0  0
  8 14  1  0  0  0  0
  9 18  1  1  0  0  0
 10 26  1  0  0  0  0
 10  8  1  0  0  0  0
 11 15  1  0  0  0  0
 12 24  1  0  0  0  0
 13  9  1  0  0  0  0
 14  9  1  0  0  0  0
 15 19  1  0  0  0  0
 16 20  2  0  0  0  0
 16 28  1  0  0  0  0
 17  5  1  0  0  0  0
 19 25  1  0  0  0  0
 21 22  1  0  0  0  0
 21  1  2  0  0  0  0
 22  4  2  0  0  0  0
 23 15  1  0  0  0  0
 23  6  1  0  0  0  0
 24 26  1  0  0  0  0
 25 17  1  0  0  0  0
 25 12  1  0  0  0  0
 26 13  1  0  0  0  0
 28 12  1  0  0  0  0
 28 10  1  0  0  0  0
M  END
>  <MODEL>
7

>  <REMARK>
 VINA RESULT:      -4.7      7.301      9.721
  Name = 
  0 active torsions:
  status: ('A' for Active; 'I' for Inactive)
                            x       y       z     vdW  Elec       q    Type
                         _______ _______ _______ _____ _____    ______ ____

>  <TORSDO>
F 0

$$$$
=
 OpenBabel11122411563D

 28 32  0  0  1  0  0  0  0  0999 V2000
  180.7900  178.5870  137.8200 C   0  0  0  0  0  0  0  0  0  0  0  0
  180.6580  173.6120  138.7250 F   0  0  0  0  0  0  0  0  0  0  0  0
  185.3410  177.9580  138.1190 O   0  0  0  0  0  0  0  0  0  0  0  0
  181.2490  178.8600  135.0730 C   0  0  0  0  0  3  0  0  0  0  0  0
  184.5520  175.8960  137.3150 N   0  0  0  0  0  0  0  0  0  0  0  0
  180.6170  178.4470  139.1970 O   0  0  0  0  0  0  0  0  0  0  0  0
  178.9370  173.8700  137.1360 C   0  0  0  0  0  1  0  0  0  0  0  0
  180.4280  173.7160  137.3620 C   0  0  1  0  0  0  0  0  0  0  0  0
  182.4090  172.3850  136.7280 C   0  0  1  0  0  3  0  0  0  0  0  0
  181.1590  174.9350  136.7540 C   0  0  2  0  0  3  0  0  0  0  0  0
  183.3030  179.9150  139.0720 O   0  0  0  0  0  1  0  0  0  0  0  0
  182.5160  175.9010  138.5500 C   0  0  1  0  0  3  0  0  0  0  0  0
  182.9310  173.3940  135.8980 O   0  0  0  0  0  0  0  0  0  0  0  0
  180.8890  172.4280  136.6970 C   0  0  0  0  0  2  0  0  0  0  0  0
  182.7390  179.2050  140.1330 C   0  0  2  0  0  3  0  0  0  0  0  0
  181.0840  177.4510  137.0500 C   0  0  0  0  0  0  0  0  0  0  0  0
  184.4370  177.0820  138.0680 C   0  0  0  0  0  0  0  0  0  0  0  0
  182.8820  171.0350  136.2340 C   0  0  0  0  0  1  0  0  0  0  0  0
  183.2250  177.7510  140.1610 C   0  0  0  0  0  2  0  0  0  0  0  0
  181.3270  177.6010  135.6740 C   0  0  0  0  0  3  0  0  0  0  0  0
  180.7160  179.8490  137.2130 C   0  0  0  0  0  3  0  0  0  0  0  0
  180.9410  179.9830  135.8410 C   0  0  0  0  0  3  0  0  0  0  0  0
  181.2140  179.3370  140.1320 C   0  0  0  0  0  2  0  0  0  0  0  0
  183.4470  175.0250  137.6790 C   0  0  1  0  0  3  0  0  0  0  0  0
  183.2460  177.1410  138.8310 N   0  0  0  0  0  0  0  0  0  0  0  0
  182.6370  174.6660  136.4440 C   0  0  2  0  0  3  0  0  0  0  0  0
  185.7300  175.4330  136.8350 O   0  0  0  0  0  1  0  0  0  0  0  0
  181.2100  176.1030  137.7400 C   0  0  1  0  0  3  0  0  0  0  0  0
  1  6  1  0  0  0  0
  4 20  2  0  0  0  0
  4 22  1  0  0  0  0
  5 24  1  0  0  0  0
  5 17  1  0  0  0  0
  6 23  1  0  0  0  0
  8  7  1  6  0  0  0
  8  2  1  0  0  0  0
  9 18  1  6  0  0  0
 10  8  1  0  0  0  0
 10 28  1  0  0  0  0
 11 15  1  0  0  0  0
 12 25  1  0  0  0  0
 13 26  1  0  0  0  0
 13  9  1  0  0  0  0
 14  9  1  0  0  0  0
 14  8  1  0  0  0  0
 15 19  1  0  0  0  0
 16 28  1  0  0  0  0
 16  1  2  0  0  0  0
 17  3  2  0  0  0  0
 17 25  1  0  0  0  0
 20 16  1  0  0  0  0
 21  1  1  0  0  0  0
 22 21  2  0  0  0  0
 23 15  1  0  0  0  0
 24 12  1  0  0  0  0
 25 19  1  0  0  0  0
 26 10  1  0  0  0  0
 26 24  1  0  0  0  0
 27  5  1  0  0  0  0
 28 12  1  0  0  0  0
M  END
>  <MODEL>
8

>  <REMARK>
 VINA RESULT:      -4.6      6.644      9.010
  Name = 
  0 active torsions:
  status: ('A' for Active; 'I' for Inactive)
                            x       y       z     vdW  Elec       q    Type
                         _______ _______ _______ _____ _____    ______ ____

>  <TORSDO>
F 0

$$$$
=
 OpenBabel11122411563D

 28 32  0  0  1  0  0  0  0  0999 V2000
  186.6470  174.5010  135.7780 C   0  0  0  0  0  0  0  0  0  0  0  0
  183.2530  178.1220  134.8010 F   0  0  0  0  0  0  0  0  0  0  0  0
  188.1310  177.5140  138.9270 O   0  0  0  0  0  0  0  0  0  0  0  0
  185.6450  173.0720  137.9650 C   0  0  0  0  0  3  0  0  0  0  0  0
  185.8330  177.9760  138.7620 N   0  0  0  0  0  0  0  0  0  0  0  0
  187.1710  175.2510  134.7230 O   0  0  0  0  0  0  0  0  0  0  0  0
  181.9580  176.1630  134.5950 C   0  0  0  0  0  1  0  0  0  0  0  0
  182.5490  177.1870  135.5440 C   0  0  1  0  0  0  0  0  0  0  0  0
  181.9990  178.7600  137.3660 C   0  0  1  0  0  3  0  0  0  0  0  0
  183.4640  176.4640  136.5600 C   0  0  2  0  0  3  0  0  0  0  0  0
  189.2990  175.6820  136.8850 O   0  0  0  0  0  1  0  0  0  0  0  0
  185.6530  177.5530  136.4260 C   0  0  1  0  0  3  0  0  0  0  0  0
  182.5570  177.9390  138.3630 O   0  0  0  0  0  0  0  0  0  0  0  0
  181.4110  177.8990  136.2590 C   0  0  0  0  0  2  0  0  0  0  0  0
  189.0700  176.4150  135.7190 C   0  0  2  0  0  3  0  0  0  0  0  0
  185.5060  174.9690  136.4460 C   0  0  0  0  0  0  0  0  0  0  0  0
  187.0760  177.5640  138.2400 C   0  0  0  0  0  0  0  0  0  0  0  0
  180.9050  179.6130  137.9720 C   0  0  0  0  0  1  0  0  0  0  0  0
  188.1670  177.6250  135.9820 C   0  0  0  0  0  2  0  0  0  0  0  0
  185.0190  174.2510  137.5530 C   0  0  0  0  0  3  0  0  0  0  0  0
  187.2750  173.3190  136.1970 C   0  0  0  0  0  3  0  0  0  0  0  0
  186.7710  172.6040  137.2860 C   0  0  0  0  0  3  0  0  0  0  0  0
  188.5630  175.5100  134.5940 C   0  0  0  0  0  2  0  0  0  0  0  0
  184.9130  178.1410  137.6500 C   0  0  1  0  0  3  0  0  0  0  0  0
  187.0340  177.3020  136.8490 N   0  0  0  0  0  0  0  0  0  0  0  0
  183.6890  177.2620  137.8510 C   0  0  2  0  0  3  0  0  0  0  0  0
  185.7050  178.6450  139.9320 O   0  0  0  0  0  1  0  0  0  0  0  0
  184.8770  176.2790  136.0060 C   0  0  1  0  0  3  0  0  0  0  0  0
  1 21  2  0  0  0  0
  1 16  1  0  0  0  0
  2  8  1  0  0  0  0
  5 27  1  0  0  0  0
  6  1  1  0  0  0  0
  8  7  1  6  0  0  0
  8 14  1  0  0  0  0
  8 10  1  0  0  0  0
  9 18  1  1  0  0  0
  9 13  1  0  0  0  0
 10 26  1  0  0  0  0
 12 25  1  0  0  0  0
 12 24  1  0  0  0  0
 14  9  1  0  0  0  0
 15 19  1  0  0  0  0
 15 11  1  0  0  0  0
 16 20  2  0  0  0  0
 17  5  1  0  0  0  0
 17  3  2  0  0  0  0
 19 25  1  0  0  0  0
 20  4  1  0  0  0  0
 21 22  1  0  0  0  0
 22  4  2  0  0  0  0
 23  6  1  0  0  0  0
 23 15  1  0  0  0  0
 24 26  1  0  0  0  0
 24  5  1  0  0  0  0
 25 17  1  0  0  0  0
 26 13  1  0  0  0  0
 28 12  1  0  0  0  0
 28 16  1  0  0  0  0
 28 10  1  0  0  0  0
M  END
>  <MODEL>
9

>  <REMARK>
 VINA RESULT:      -4.6      3.666      7.625
  Name = 
  0 active torsions:
  status: ('A' for Active; 'I' for Inactive)
                            x       y       z     vdW  Elec       q    Type
                         _______ _______ _______ _____ _____    ______ ____

>  <TORSDO>
F 0

$$$$
