=
 OpenBabel11122411533D

 28 31  0  0  1  0  0  0  0  0999 V2000
  182.7640  176.7430  136.9100 C   0  0  0  0  0  0  0  0  0  0  0  0
  185.6210  178.9520  138.4030 O   0  0  0  0  0  0  0  0  0  0  0  0
  181.7310  178.5250  135.0070 C   0  0  0  0  0  3  0  0  0  0  0  0
  183.3420  175.7700  137.8900 C   0  0  0  0  0  2  0  0  0  0  0  0
  184.0240  180.7390  138.9600 O   0  0  0  0  0  0  0  0  0  0  0  0
  184.6050  179.4250  139.4040 S   0  0  0  0  0  0  0  0  0  0  0  0
  185.2930  178.3150  141.6610 C   0  0  1  0  0  3  0  0  0  0  0  0
  183.3330  178.2060  139.6060 C   0  0  1  0  0  3  0  0  0  0  0  0
  180.3890  174.5930  137.1050 C   0  0  0  0  0  1  0  0  0  0  0  0
  180.9370  177.8380  139.6130 C   0  0  2  0  0  3  0  0  0  0  0  0
  183.8550  177.8900  142.0400 C   0  0  0  0  0  2  0  0  0  0  0  0
  185.3460  179.6090  140.9690 N   0  0  0  0  0  2  0  0  0  0  0  0
  181.2540  174.3800  138.2630 N   0  0  0  0  0  0  0  0  0  0  0  0
  182.1900  177.9680  137.3280 C   0  0  0  0  0  0  0  0  0  0  0  0
  186.1530  178.3650  142.9050 C   0  0  0  0  0  1  0  0  0  0  0  0
  180.9850  175.2730  139.4070 C   0  0  0  0  0  2  0  0  0  0  0  0
  181.6700  178.8410  136.3660 C   0  0  0  0  0  3  0  0  0  0  0  0
  182.8350  176.4440  135.5430 C   0  0  0  0  0  3  0  0  0  0  0  0
  182.3170  177.3280  134.5960 C   0  0  0  0  0  3  0  0  0  0  0  0
  182.6610  174.3940  137.8430 C   0  0  0  0  0  2  0  0  0  0  0  0
  181.4890  177.6500  141.0350 C   0  0  1  0  0  3  0  0  0  0  0  0
  180.2550  176.5790  139.0510 C   0  0  1  0  0  3  0  0  0  0  0  0
  182.8260  178.3590  141.0100 C   0  0  2  0  0  3  0  0  0  0  0  0
  182.0910  178.4090  138.7700 C   0  0  2  0  0  3  0  0  0  0  0  0
  178.9310  175.4800  140.4460 C   0  0  0  0  0  1  0  0  0  0  0  0
  178.9360  176.5130  139.5050 O   0  0  0  0  0  0  0  0  0  0  0  0
  180.6100  178.2890  142.0000 N   0  0  0  0  0  2  0  0  0  0  0  0
  180.5800  179.7040  141.6750 C   0  0  0  0  0  1  0  0  0  0  0  0
  1 14  1  0  0  0  0
  1  4  1  0  0  0  0
  2  6  2  0  0  0  0
  3 17  1  0  0  0  0
  5  6  2  0  0  0  0
  6 12  1  0  0  0  0
  7 11  1  0  0  0  0
  7 15  1  1  0  0  0
  8  6  1  6  0  0  0
  8 23  1  0  0  0  0
  9 13  1  0  0  0  0
 10 21  1  0  0  0  0
 12  7  1  0  0  0  0
 13 16  1  0  0  0  0
 14 24  1  0  0  0  0
 17 14  2  0  0  0  0
 18  1  2  0  0  0  0
 19  3  2  0  0  0  0
 19 18  1  0  0  0  0
 20  4  1  0  0  0  0
 20 13  1  0  0  0  0
 21 27  1  0  0  0  0
 22 16  1  0  0  0  0
 22 26  1  0  0  0  0
 22 10  1  0  0  0  0
 23 21  1  0  0  0  0
 23 11  1  0  0  0  0
 24  8  1  0  0  0  0
 24 10  1  0  0  0  0
 26 25  1  0  0  0  0
 28 27  1  0  0  0  0
M  END
>  <MODEL>
1

>  <REMARK>
 VINA RESULT:      -5.4      0.000      0.000
  Name = 
  2 active torsions:
  status: ('A' for Active; 'I' for Inactive)
    1  A    between atoms: N_5  and  C_24
    2  A    between atoms: O_17  and  C_25
                            x       y       z     vdW  Elec       q    Type
                         _______ _______ _______ _____ _____    ______ ____

>  <TORSDO>
F 2

$$$$
=
 OpenBabel11122411533D

 28 31  0  0  1  0  0  0  0  0999 V2000
  180.9570  178.7680  138.3420 C   0  0  0  0  0  0  0  0  0  0  0  0
  184.4960  180.1750  139.2200 O   0  0  0  0  0  0  0  0  0  0  0  0
  179.8390  178.6590  140.9120 C   0  0  0  0  0  3  0  0  0  0  0  0
  181.5310  178.8700  136.9640 C   0  0  0  0  0  2  0  0  0  0  0  0
  184.9040  178.3240  140.7880 O   0  0  0  0  0  0  0  0  0  0  0  0
  184.9320  178.7430  139.3450 S   0  0  0  0  0  0  0  0  0  0  0  0
  186.4400  178.2980  137.2640 C   0  0  1  0  0  3  0  0  0  0  0  0
  183.8880  177.6990  138.3620 C   0  0  1  0  0  3  0  0  0  0  0  0
  178.9310  176.8990  136.7000 C   0  0  0  0  0  1  0  0  0  0  0  0
  182.5160  175.7000  138.3830 C   0  0  2  0  0  3  0  0  0  0  0  0
  185.8000  176.9310  136.9300 C   0  0  0  0  0  2  0  0  0  0  0  0
  186.5410  178.5480  138.7080 N   0  0  0  0  0  2  0  0  0  0  0  0
  180.1240  177.0640  135.8740 N   0  0  0  0  0  0  0  0  0  0  0  0
  181.5270  177.9240  139.3260 C   0  0  0  0  0  0  0  0  0  0  0  0
  187.8120  178.3860  136.6330 C   0  0  0  0  0  1  0  0  0  0  0  0
  181.2320  176.1450  136.1970 C   0  0  0  0  0  2  0  0  0  0  0  0
  180.9500  177.8730  140.6000 C   0  0  0  0  0  3  0  0  0  0  0  0
  179.8520  179.5640  138.6720 C   0  0  0  0  0  3  0  0  0  0  0  0
  179.2930  179.5080  139.9490 C   0  0  0  0  0  3  0  0  0  0  0  0
  180.5330  178.4750  135.8670 C   0  0  0  0  0  2  0  0  0  0  0  0
  183.7560  175.4620  137.5080 C   0  0  1  0  0  3  0  0  0  0  0  0
  181.1900  175.5550  137.6180 C   0  0  1  0  0  3  0  0  0  0  0  0
  184.7340  176.5290  137.9500 C   0  0  2  0  0  3  0  0  0  0  0  0
  182.7370  177.0480  139.0930 C   0  0  2  0  0  3  0  0  0  0  0  0
  180.0580  173.9830  138.6930 C   0  0  0  0  0  1  0  0  0  0  0  0
  180.8280  174.2080  137.5500 O   0  0  0  0  0  0  0  0  0  0  0  0
  184.3100  174.1450  137.7750 N   0  0  0  0  0  2  0  0  0  0  0  0
  184.1350  173.3570  136.5680 C   0  0  0  0  0  1  0  0  0  0  0  0
  1 18  2  0  0  0  0
  1 14  1  0  0  0  0
  2  6  2  0  0  0  0
  4  1  1  0  0  0  0
  6  5  2  0  0  0  0
  7 15  1  1  0  0  0
  7 12  1  0  0  0  0
  8 24  1  0  0  0  0
  8  6  1  1  0  0  0
 10 24  1  0  0  0  0
 11  7  1  0  0  0  0
 11 23  1  0  0  0  0
 12  6  1  0  0  0  0
 13 16  1  0  0  0  0
 13  9  1  0  0  0  0
 14 17  2  0  0  0  0
 16 22  1  0  0  0  0
 17  3  1  0  0  0  0
 18 19  1  0  0  0  0
 19  3  2  0  0  0  0
 20 13  1  0  0  0  0
 20  4  1  0  0  0  0
 21 27  1  0  0  0  0
 21 23  1  0  0  0  0
 21 10  1  0  0  0  0
 22 10  1  0  0  0  0
 23  8  1  0  0  0  0
 24 14  1  0  0  0  0
 26 22  1  0  0  0  0
 26 25  1  0  0  0  0
 28 27  1  0  0  0  0
M  END
>  <MODEL>
2

>  <REMARK>
 VINA RESULT:      -5.3      2.437      4.360
  Name = 
  2 active torsions:
  status: ('A' for Active; 'I' for Inactive)
    1  A    between atoms: N_5  and  C_24
    2  A    between atoms: O_17  and  C_25
                            x       y       z     vdW  Elec       q    Type
                         _______ _______ _______ _____ _____    ______ ____

>  <TORSDO>
F 2

$$$$
=
 OpenBabel11122411533D

 28 31  0  0  1  0  0  0  0  0999 V2000
  183.4290  175.7940  137.9570 C   0  0  0  0  0  0  0  0  0  0  0  0
  184.2400  177.5290  141.3630 O   0  0  0  0  0  0  0  0  0  0  0  0
  185.7650  176.4180  136.5380 C   0  0  0  0  0  3  0  0  0  0  0  0
  182.2010  175.4160  138.7260 C   0  0  0  0  0  2  0  0  0  0  0  0
  184.5970  179.6890  140.2420 O   0  0  0  0  0  0  0  0  0  0  0  0
  183.5660  178.7470  140.7980 S   0  0  0  0  0  0  0  0  0  0  0  0
  181.3060  178.9430  142.0830 C   0  0  1  0  0  3  0  0  0  0  0  0
  182.4010  178.2740  139.5470 C   0  0  1  0  0  3  0  0  0  0  0  0
  181.4700  174.9070  135.5760 C   0  0  0  0  0  1  0  0  0  0  0  0
  181.6810  178.6770  137.2670 C   0  0  2  0  0  3  0  0  0  0  0  0
  180.4640  179.2350  140.8190 C   0  0  0  0  0  2  0  0  0  0  0  0
  182.6420  179.5510  142.0350 N   0  0  0  0  0  2  0  0  0  0  0  0
  180.6340  175.1390  136.7510 N   0  0  0  0  0  0  0  0  0  0  0  0
  183.7520  177.1460  137.6880 C   0  0  0  0  0  0  0  0  0  0  0  0
  180.5670  179.4290  143.3100 C   0  0  0  0  0  1  0  0  0  0  0  0
  180.2630  176.5490  136.9760 C   0  0  0  0  0  2  0  0  0  0  0  0
  184.9160  177.4390  136.9690 C   0  0  0  0  0  3  0  0  0  0  0  0
  184.2960  174.7780  137.5340 C   0  0  0  0  0  3  0  0  0  0  0  0
  185.4570  175.0880  136.8240 C   0  0  0  0  0  3  0  0  0  0  0  0
  181.2480  174.5130  137.9300 C   0  0  0  0  0  2  0  0  0  0  0  0
  180.5980  179.1650  138.2420 C   0  0  1  0  0  3  0  0  0  0  0  0
  181.1920  177.5780  136.3090 C   0  0  1  0  0  3  0  0  0  0  0  0
  181.3260  179.3210  139.5590 C   0  0  2  0  0  3  0  0  0  0  0  0
  182.9090  178.3210  138.1250 C   0  0  2  0  0  3  0  0  0  0  0  0
  181.5060  178.9450  134.5940 C   0  0  0  0  0  1  0  0  0  0  0  0
  180.5380  178.1570  135.2200 O   0  0  0  0  0  0  0  0  0  0  0  0
  180.0810  180.4530  137.8090 N   0  0  0  0  0  2  0  0  0  0  0  0
  181.2030  181.3740  137.7830 C   0  0  0  0  0  1  0  0  0  0  0  0
  1  4  1  0  0  0  0
  3 19  2  0  0  0  0
  3 17  1  0  0  0  0
  5  6  2  0  0  0  0
  6  2  2  0  0  0  0
  6 12  1  0  0  0  0
  7 15  1  1  0  0  0
  8 23  1  0  0  0  0
  8  6  1  1  0  0  0
  9 13  1  0  0  0  0
 10 24  1  0  0  0  0
 10 21  1  0  0  0  0
 11  7  1  0  0  0  0
 12  7  1  0  0  0  0
 13 16  1  0  0  0  0
 13 20  1  0  0  0  0
 14  1  1  0  0  0  0
 14 24  1  0  0  0  0
 17 14  2  0  0  0  0
 18  1  2  0  0  0  0
 19 18  1  0  0  0  0
 20  4  1  0  0  0  0
 21 23  1  0  0  0  0
 22 16  1  0  0  0  0
 22 10  1  0  0  0  0
 23 11  1  0  0  0  0
 24  8  1  0  0  0  0
 25 26  1  0  0  0  0
 26 22  1  0  0  0  0
 27 21  1  0  0  0  0
 28 27  1  0  0  0  0
M  END
>  <MODEL>
3

>  <REMARK>
 VINA RESULT:      -4.5      2.245      3.446
  Name = 
  2 active torsions:
  status: ('A' for Active; 'I' for Inactive)
    1  A    between atoms: N_5  and  C_24
    2  A    between atoms: O_17  and  C_25
                            x       y       z     vdW  Elec       q    Type
                         _______ _______ _______ _____ _____    ______ ____

>  <TORSDO>
F 2

$$$$
=
 OpenBabel11122411533D

 28 31  0  0  1  0  0  0  0  0999 V2000
  182.7410  176.1590  138.6220 C   0  0  0  0  0  0  0  0  0  0  0  0
  185.3480  177.4840  141.2140 O   0  0  0  0  0  0  0  0  0  0  0  0
  183.9540  177.0210  136.2450 C   0  0  0  0  0  3  0  0  0  0  0  0
  182.1140  175.6530  139.8840 C   0  0  0  0  0  2  0  0  0  0  0  0
  185.1300  179.7760  140.3460 O   0  0  0  0  0  0  0  0  0  0  0  0
  184.5280  178.7420  141.2560 S   0  0  0  0  0  0  0  0  0  0  0  0
  183.3420  178.7120  143.5780 C   0  0  1  0  0  3  0  0  0  0  0  0
  182.8510  178.3930  140.7970 C   0  0  1  0  0  3  0  0  0  0  0  0
  179.7660  175.5150  137.6070 C   0  0  0  0  0  1  0  0  0  0  0  0
  181.0250  179.0530  139.3450 C   0  0  2  0  0  3  0  0  0  0  0  0
  181.9610  179.1330  143.0230 C   0  0  0  0  0  2  0  0  0  0  0  0
  184.4610  179.3600  142.8830 N   0  0  0  0  0  2  0  0  0  0  0  0
  179.7150  175.5770  139.0660 N   0  0  0  0  0  0  0  0  0  0  0  0
  182.9240  177.5420  138.3840 C   0  0  0  0  0  0  0  0  0  0  0  0
  183.4110  179.0210  145.0570 C   0  0  0  0  0  1  0  0  0  0  0  0
  179.5860  176.9360  139.6230 C   0  0  0  0  0  2  0  0  0  0  0  0
  183.5210  177.9560  137.1870 C   0  0  0  0  0  3  0  0  0  0  0  0
  183.1940  175.2290  137.6770 C   0  0  0  0  0  3  0  0  0  0  0  0
  183.7940  175.6570  136.4920 C   0  0  0  0  0  3  0  0  0  0  0  0
  180.8440  174.8280  139.6350 C   0  0  0  0  0  2  0  0  0  0  0  0
  180.6680  179.3850  140.8030 C   0  0  1  0  0  3  0  0  0  0  0  0
  180.0470  178.0660  138.6850 C   0  0  1  0  0  3  0  0  0  0  0  0
  182.0020  179.3980  141.5180 C   0  0  2  0  0  3  0  0  0  0  0  0
  182.5050  178.6300  139.3460 C   0  0  2  0  0  3  0  0  0  0  0  0
  179.4350  179.6420  137.2530 C   0  0  0  0  0  1  0  0  0  0  0  0
  178.9310  178.7560  138.2070 O   0  0  0  0  0  0  0  0  0  0  0  0
  180.0550  180.7010  140.8780 N   0  0  0  0  0  2  0  0  0  0  0  0
  178.9300  180.5940  141.7900 C   0  0  0  0  0  1  0  0  0  0  0  0
  1  4  1  0  0  0  0
  2  6  2  0  0  0  0
  3 19  2  0  0  0  0
  3 17  1  0  0  0  0
  5  6  2  0  0  0  0
  6 12  1  0  0  0  0
  7 15  1  1  0  0  0
  8  6  1  6  0  0  0
  8 23  1  0  0  0  0
  9 13  1  0  0  0  0
 10 24  1  0  0  0  0
 10 21  1  0  0  0  0
 11  7  1  0  0  0  0
 12  7  1  0  0  0  0
 13 16  1  0  0  0  0
 13 20  1  0  0  0  0
 14  1  1  0  0  0  0
 14 24  1  0  0  0  0
 17 14  2  0  0  0  0
 18  1  2  0  0  0  0
 19 18  1  0  0  0  0
 20  4  1  0  0  0  0
 21 27  1  0  0  0  0
 21 23  1  0  0  0  0
 22 10  1  0  0  0  0
 22 16  1  0  0  0  0
 23 11  1  0  0  0  0
 24  8  1  0  0  0  0
 25 26  1  0  0  0  0
 26 22  1  0  0  0  0
 27 28  1  0  0  0  0
M  END
>  <MODEL>
4

>  <REMARK>
 VINA RESULT:      -4.4      1.811      2.410
  Name = 
  2 active torsions:
  status: ('A' for Active; 'I' for Inactive)
    1  A    between atoms: N_5  and  C_24
    2  A    between atoms: O_17  and  C_25
                            x       y       z     vdW  Elec       q    Type
                         _______ _______ _______ _____ _____    ______ ____

>  <TORSDO>
F 2

$$$$
=
 OpenBabel11122411533D

 28 31  0  0  1  0  0  0  0  0999 V2000
  183.9050  175.8790  136.0450 C   0  0  0  0  0  0  0  0  0  0  0  0
  180.3930  177.1780  137.1610 O   0  0  0  0  0  0  0  0  0  0  0  0
  183.8300  173.3010  137.1470 C   0  0  0  0  0  3  0  0  0  0  0  0
  183.9320  177.2350  135.4120 C   0  0  0  0  0  2  0  0  0  0  0  0
  180.9070  176.7090  139.5200 O   0  0  0  0  0  0  0  0  0  0  0  0
  181.0780  177.6910  138.3960 S   0  0  0  0  0  0  0  0  0  0  0  0
  181.1310  180.2840  138.1270 C   0  0  1  0  0  3  0  0  0  0  0  0
  182.7960  177.9820  138.0640 C   0  0  1  0  0  3  0  0  0  0  0  0
  187.0410  176.2130  135.4520 C   0  0  0  0  0  1  0  0  0  0  0  0
  185.0540  177.5430  138.8290 C   0  0  2  0  0  3  0  0  0  0  0  0
  182.6040  180.4300  138.5760 C   0  0  0  0  0  2  0  0  0  0  0  0
  180.4110  179.2320  138.8560 N   0  0  0  0  0  2  0  0  0  0  0  0
  186.4480  177.5450  135.3750 N   0  0  0  0  0  0  0  0  0  0  0  0
  183.8080  175.7130  137.4480 C   0  0  0  0  0  0  0  0  0  0  0  0
  180.4140  181.6060  138.2960 C   0  0  0  0  0  1  0  0  0  0  0  0
  186.2830  178.2250  136.6730 C   0  0  0  0  0  2  0  0  0  0  0  0
  183.7820  174.4200  137.9820 C   0  0  0  0  0  3  0  0  0  0  0  0
  183.9360  174.7490  135.2160 C   0  0  0  0  0  3  0  0  0  0  0  0
  183.9020  173.4660  135.7640 C   0  0  0  0  0  3  0  0  0  0  0  0
  185.2050  177.4920  134.5940 C   0  0  0  0  0  2  0  0  0  0  0  0
  184.7300  179.0330  139.0170 C   0  0  1  0  0  3  0  0  0  0  0  0
  186.2490  177.2890  137.8940 C   0  0  1  0  0  3  0  0  0  0  0  0
  183.2180  179.0910  138.9840 C   0  0  2  0  0  3  0  0  0  0  0  0
  183.7350  176.8570  138.4320 C   0  0  2  0  0  3  0  0  0  0  0  0
  188.1020  178.4960  138.0230 C   0  0  0  0  0  1  0  0  0  0  0  0
  187.4420  177.4130  138.6080 O   0  0  0  0  0  0  0  0  0  0  0  0
  185.2120  179.4900  140.3090 N   0  0  0  0  0  2  0  0  0  0  0  0
  184.4750  178.7560  141.3220 C   0  0  0  0  0  1  0  0  0  0  0  0
  1 14  1  0  0  0  0
  2  6  2  0  0  0  0
  3 17  1  0  0  0  0
  4  1  1  0  0  0  0
  6 12  1  0  0  0  0
  6  5  2  0  0  0  0
  7 15  1  1  0  0  0
  7 11  1  0  0  0  0
  7 12  1  0  0  0  0
  8  6  1  1  0  0  0
  8 24  1  0  0  0  0
  8 23  1  0  0  0  0
 10 21  1  0  0  0  0
 11 23  1  0  0  0  0
 13  9  1  0  0  0  0
 13 16  1  0  0  0  0
 14 17  2  0  0  0  0
 14 24  1  0  0  0  0
 16 22  1  0  0  0  0
 18 19  1  0  0  0  0
 18  1  2  0  0  0  0
 19  3  2  0  0  0  0
 20 13  1  0  0  0  0
 20  4  1  0  0  0  0
 21 27  1  0  0  0  0
 22 26  1  0  0  0  0
 22 10  1  0  0  0  0
 23 21  1  0  0  0  0
 24 10  1  0  0  0  0
 25 26  1  0  0  0  0
 27 28  1  0  0  0  0
M  END
>  <MODEL>
5

>  <REMARK>
 VINA RESULT:      -4.3      2.722      5.320
  Name = 
  2 active torsions:
  status: ('A' for Active; 'I' for Inactive)
    1  A    between atoms: N_5  and  C_24
    2  A    between atoms: O_17  and  C_25
                            x       y       z     vdW  Elec       q    Type
                         _______ _______ _______ _____ _____    ______ ____

>  <TORSDO>
F 2

$$$$
=
 OpenBabel11122411533D

 28 31  0  0  1  0  0  0  0  0999 V2000
  185.8490  175.8260  135.7240 C   0  0  0  0  0  0  0  0  0  0  0  0
  181.9470  175.6890  135.8950 O   0  0  0  0  0  0  0  0  0  0  0  0
  186.4620  173.3310  136.8490 C   0  0  0  0  0  3  0  0  0  0  0  0
  185.5270  177.1370  135.0780 C   0  0  0  0  0  2  0  0  0  0  0  0
  182.0120  175.2860  138.3210 O   0  0  0  0  0  0  0  0  0  0  0  0
  182.0760  176.3340  137.2460 S   0  0  0  0  0  0  0  0  0  0  0  0
  181.2370  178.7810  136.9220 C   0  0  1  0  0  3  0  0  0  0  0  0
  183.5930  177.2480  137.3420 C   0  0  1  0  0  3  0  0  0  0  0  0
  188.6860  177.3120  135.9180 C   0  0  0  0  0  1  0  0  0  0  0  0
  185.5980  177.6100  138.6560 C   0  0  2  0  0  3  0  0  0  0  0  0
  182.3980  179.4220  137.7180 C   0  0  0  0  0  2  0  0  0  0  0  0
  180.8000  177.4950  137.4800 N   0  0  0  0  0  2  0  0  0  0  0  0
  187.6830  178.3410  135.6560 N   0  0  0  0  0  0  0  0  0  0  0  0
  185.4840  175.5460  137.0630 C   0  0  0  0  0  0  0  0  0  0  0  0
  180.0670  179.7390  136.8690 C   0  0  0  0  0  1  0  0  0  0  0  0
  186.9720  178.8290  136.8530 C   0  0  0  0  0  2  0  0  0  0  0  0
  185.8070  174.3000  137.6120 C   0  0  0  0  0  3  0  0  0  0  0  0
  186.4910  174.8410  134.9620 C   0  0  0  0  0  3  0  0  0  0  0  0
  186.7990  173.6000  135.5230 C   0  0  0  0  0  3  0  0  0  0  0  0
  186.7740  177.8900  134.5940 C   0  0  0  0  0  2  0  0  0  0  0  0
  184.7140  178.8660  138.7130 C   0  0  1  0  0  3  0  0  0  0  0  0
  186.9900  177.8680  138.0540 C   0  0  1  0  0  3  0  0  0  0  0  0
  183.3430  178.3730  138.3040 C   0  0  2  0  0  3  0  0  0  0  0  0
  184.7600  176.5190  137.9650 C   0  0  2  0  0  3  0  0  0  0  0  0
  188.5750  177.2650  139.4800 C   0  0  0  0  0  1  0  0  0  0  0  0
  187.8440  178.3700  139.0380 O   0  0  0  0  0  0  0  0  0  0  0  0
  184.6680  179.3820  140.0700 N   0  0  0  0  0  2  0  0  0  0  0  0
  183.9780  178.3930  140.8790 C   0  0  0  0  0  1  0  0  0  0  0  0
  1 14  1  0  0  0  0
  2  6  2  0  0  0  0
  3 17  1  0  0  0  0
  4  1  1  0  0  0  0
  6 12  1  0  0  0  0
  6  5  2  0  0  0  0
  7 15  1  1  0  0  0
  7 12  1  0  0  0  0
  7 11  1  0  0  0  0
  8  6  1  1  0  0  0
  8 24  1  0  0  0  0
  8 23  1  0  0  0  0
 10 21  1  0  0  0  0
 11 23  1  0  0  0  0
 13  9  1  0  0  0  0
 13 16  1  0  0  0  0
 14 17  2  0  0  0  0
 14 24  1  0  0  0  0
 16 22  1  0  0  0  0
 18 19  1  0  0  0  0
 18  1  2  0  0  0  0
 19  3  2  0  0  0  0
 20  4  1  0  0  0  0
 20 13  1  0  0  0  0
 21 27  1  0  0  0  0
 22 10  1  0  0  0  0
 22 26  1  0  0  0  0
 23 21  1  0  0  0  0
 24 10  1  0  0  0  0
 26 25  1  0  0  0  0
 27 28  1  0  0  0  0
M  END
>  <MODEL>
6

>  <REMARK>
 VINA RESULT:      -4.2      3.404      6.009
  Name = 
  2 active torsions:
  status: ('A' for Active; 'I' for Inactive)
    1  A    between atoms: N_5  and  C_24
    2  A    between atoms: O_17  and  C_25
                            x       y       z     vdW  Elec       q    Type
                         _______ _______ _______ _____ _____    ______ ____

>  <TORSDO>
F 2

$$$$
=
 OpenBabel11122411533D

 28 31  0  0  1  0  0  0  0  0999 V2000
  180.3390  178.5360  138.7090 C   0  0  0  0  0  0  0  0  0  0  0  0
  180.1430  175.8030  135.9230 O   0  0  0  0  0  0  0  0  0  0  0  0
  179.8210  180.8220  137.1700 C   0  0  0  0  0  3  0  0  0  0  0  0
  180.5680  177.3150  139.5440 C   0  0  0  0  0  2  0  0  0  0  0  0
  181.8680  176.9520  134.5960 O   0  0  0  0  0  0  0  0  0  0  0  0
  181.6200  176.0120  135.7430 S   0  0  0  0  0  0  0  0  0  0  0  0
  182.7420  173.8740  136.7260 C   0  0  1  0  0  3  0  0  0  0  0  0
  182.3340  176.6390  137.2410 C   0  0  1  0  0  3  0  0  0  0  0  0
  181.5540  179.8420  141.3770 C   0  0  0  0  0  1  0  0  0  0  0  0
  183.7370  178.3790  138.1800 C   0  0  2  0  0  3  0  0  0  0  0  0
  183.8360  174.6460  137.5000 C   0  0  0  0  0  2  0  0  0  0  0  0
  182.4080  174.4900  135.4360 N   0  0  0  0  0  2  0  0  0  0  0  0
  181.8820  178.4190  141.4110 N   0  0  0  0  0  0  0  0  0  0  0  0
  181.2310  178.9080  137.6740 C   0  0  0  0  0  0  0  0  0  0  0  0
  183.1860  172.4430  136.5100 C   0  0  0  0  0  1  0  0  0  0  0  0
  183.0880  178.0440  140.6490 C   0  0  0  0  0  2  0  0  0  0  0  0
  180.9630  180.0580  136.9230 C   0  0  0  0  0  3  0  0  0  0  0  0
  179.1880  179.3010  138.9370 C   0  0  0  0  0  3  0  0  0  0  0  0
  178.9320  180.4410  138.1740 C   0  0  0  0  0  3  0  0  0  0  0  0
  180.7010  177.6270  141.0410 C   0  0  0  0  0  2  0  0  0  0  0  0
  184.4630  177.0280  138.2750 C   0  0  1  0  0  3  0  0  0  0  0  0
  183.4930  179.0400  139.5470 C   0  0  1  0  0  3  0  0  0  0  0  0
  183.7540  176.1540  137.2620 C   0  0  2  0  0  3  0  0  0  0  0  0
  182.4840  178.1400  137.3190 C   0  0  2  0  0  3  0  0  0  0  0  0
  185.1390  179.0080  141.0300 C   0  0  0  0  0  1  0  0  0  0  0  0
  184.6370  179.7330  139.9470 O   0  0  0  0  0  0  0  0  0  0  0  0
  185.8580  177.1840  137.9000 N   0  0  0  0  0  2  0  0  0  0  0  0
  185.8860  177.4920  136.4820 C   0  0  0  0  0  1  0  0  0  0  0  0
  1 18  1  0  0  0  0
  1  4  1  0  0  0  0
  3 19  1  0  0  0  0
  4 20  1  0  0  0  0
  5  6  2  0  0  0  0
  6  2  2  0  0  0  0
  7 15  1  6  0  0  0
  7 11  1  0  0  0  0
  8  6  1  6  0  0  0
  8 23  1  0  0  0  0
  8 24  1  0  0  0  0
  9 13  1  0  0  0  0
 10 21  1  0  0  0  0
 10 22  1  0  0  0  0
 12  6  1  0  0  0  0
 12  7  1  0  0  0  0
 14  1  2  0  0  0  0
 16 13  1  0  0  0  0
 17  3  2  0  0  0  0
 17 14  1  0  0  0  0
 19 18  2  0  0  0  0
 20 13  1  0  0  0  0
 22 26  1  0  0  0  0
 22 16  1  0  0  0  0
 23 11  1  0  0  0  0
 23 21  1  0  0  0  0
 24 14  1  0  0  0  0
 24 10  1  0  0  0  0
 26 25  1  0  0  0  0
 27 21  1  0  0  0  0
 28 27  1  0  0  0  0
M  END
>  <MODEL>
7

>  <REMARK>
 VINA RESULT:      -4.0      2.484      5.499
  Name = 
  2 active torsions:
  status: ('A' for Active; 'I' for Inactive)
    1  A    between atoms: N_5  and  C_24
    2  A    between atoms: O_17  and  C_25
                            x       y       z     vdW  Elec       q    Type
                         _______ _______ _______ _____ _____    ______ ____

>  <TORSDO>
F 2

$$$$
=
 OpenBabel11122411533D

 28 31  0  0  1  0  0  0  0  0999 V2000
  179.7050  179.7520  138.9640 C   0  0  0  0  0  0  0  0  0  0  0  0
  178.9310  178.4240  135.3720 O   0  0  0  0  0  0  0  0  0  0  0  0
  180.7170  182.2880  138.3260 C   0  0  0  0  0  3  0  0  0  0  0  0
  179.1200  178.4190  139.3150 C   0  0  0  0  0  2  0  0  0  0  0  0
  181.2570  178.8070  134.6690 O   0  0  0  0  0  0  0  0  0  0  0  0
  180.3250  177.8650  135.3780 S   0  0  0  0  0  0  0  0  0  0  0  0
  180.0300  175.2830  135.5930 C   0  0  1  0  0  3  0  0  0  0  0  0
  180.8600  177.5810  137.0450 C   0  0  1  0  0  3  0  0  0  0  0  0
  180.6990  179.4290  141.9990 C   0  0  0  0  0  1  0  0  0  0  0  0
  182.6400  177.9840  138.6420 C   0  0  2  0  0  3  0  0  0  0  0  0
  181.1320  175.1160  136.6650 C   0  0  0  0  0  2  0  0  0  0  0  0
  180.3510  176.3100  134.5940 N   0  0  0  0  0  2  0  0  0  0  0  0
  180.2980  178.1020  141.5370 N   0  0  0  0  0  0  0  0  0  0  0  0
  180.8880  179.8670  138.1960 C   0  0  0  0  0  0  0  0  0  0  0  0
  179.7850  173.9590  134.9040 C   0  0  0  0  0  1  0  0  0  0  0  0
  181.3300  177.3760  140.7730 C   0  0  0  0  0  2  0  0  0  0  0  0
  181.3860  181.1400  137.8960 C   0  0  0  0  0  3  0  0  0  0  0  0
  179.0330  180.9100  139.3770 C   0  0  0  0  0  3  0  0  0  0  0  0
  179.5380  182.1730  139.0630 C   0  0  0  0  0  3  0  0  0  0  0  0
  179.0150  178.1880  140.8280 C   0  0  0  0  0  2  0  0  0  0  0  0
  182.5960  176.4890  138.2890 C   0  0  1  0  0  3  0  0  0  0  0  0
  182.4110  178.2670  140.1360 C   0  0  1  0  0  3  0  0  0  0  0  0
  181.8310  176.4380  136.9840 C   0  0  2  0  0  3  0  0  0  0  0  0
  181.6750  178.6880  137.6710 C   0  0  2  0  0  3  0  0  0  0  0  0
  184.4880  179.0300  140.2510 C   0  0  0  0  0  1  0  0  0  0  0  0
  183.6100  178.1130  140.8350 O   0  0  0  0  0  0  0  0  0  0  0  0
  183.9440  175.9840  138.0900 N   0  0  0  0  0  2  0  0  0  0  0  0
  184.6180  176.9110  137.1980 C   0  0  0  0  0  1  0  0  0  0  0  0
  1  4  1  0  0  0  0
  1 18  1  0  0  0  0
  2  6  2  0  0  0  0
  3 19  1  0  0  0  0
  4 20  1  0  0  0  0
  5  6  2  0  0  0  0
  7 15  1  6  0  0  0
  7 11  1  0  0  0  0
  8  6  1  6  0  0  0
  8 24  1  0  0  0  0
 10 22  1  0  0  0  0
 11 23  1  0  0  0  0
 12  6  1  0  0  0  0
 12  7  1  0  0  0  0
 13  9  1  0  0  0  0
 14  1  2  0  0  0  0
 16 13  1  0  0  0  0
 17 14  1  0  0  0  0
 17  3  2  0  0  0  0
 19 18  2  0  0  0  0
 20 13  1  0  0  0  0
 21 10  1  0  0  0  0
 22 16  1  0  0  0  0
 22 26  1  0  0  0  0
 23  8  1  0  0  0  0
 23 21  1  0  0  0  0
 24 14  1  0  0  0  0
 24 10  1  0  0  0  0
 25 26  1  0  0  0  0
 27 21  1  0  0  0  0
 28 27  1  0  0  0  0
M  END
>  <MODEL>
8

>  <REMARK>
 VINA RESULT:      -4.0      2.768      5.820
  Name = 
  2 active torsions:
  status: ('A' for Active; 'I' for Inactive)
    1  A    between atoms: N_5  and  C_24
    2  A    between atoms: O_17  and  C_25
                            x       y       z     vdW  Elec       q    Type
                         _______ _______ _______ _____ _____    ______ ____

>  <TORSDO>
F 2

$$$$
=
 OpenBabel11122411533D

 28 31  0  0  1  0  0  0  0  0999 V2000
  182.1270  175.7400  136.3990 C   0  0  0  0  0  0  0  0  0  0  0  0
  185.5970  175.6650  134.6050 O   0  0  0  0  0  0  0  0  0  0  0  0
  180.6930  177.3360  134.5940 C   0  0  0  0  0  3  0  0  0  0  0  0
  182.8730  174.8470  137.3420 C   0  0  0  0  0  2  0  0  0  0  0  0
  185.7100  178.1220  134.5980 O   0  0  0  0  0  0  0  0  0  0  0  0
  185.9390  176.8820  135.4160 S   0  0  0  0  0  0  0  0  0  0  0  0
  187.6690  176.0660  137.1880 C   0  0  1  0  0  3  0  0  0  0  0  0
  184.9720  176.9160  136.9020 C   0  0  1  0  0  3  0  0  0  0  0  0
  180.2260  175.8570  138.9820 C   0  0  0  0  0  1  0  0  0  0  0  0
  183.5060  178.2770  138.2710 C   0  0  2  0  0  3  0  0  0  0  0  0
  187.0050  176.8100  138.3690 C   0  0  0  0  0  2  0  0  0  0  0  0
  187.6020  176.8150  135.9270 N   0  0  0  0  0  2  0  0  0  0  0  0
  181.5200  175.3450  139.4270 N   0  0  0  0  0  0  0  0  0  0  0  0
  182.5250  177.0790  136.1700 C   0  0  0  0  0  0  0  0  0  0  0  0
  189.1120  175.7600  137.5250 C   0  0  0  0  0  1  0  0  0  0  0  0
  182.5290  176.3830  139.7130 C   0  0  0  0  0  2  0  0  0  0  0  0
  181.7920  177.8650  135.2740 C   0  0  0  0  0  3  0  0  0  0  0  0
  181.0330  175.2140  135.6990 C   0  0  0  0  0  3  0  0  0  0  0  0
  180.3170  176.0090  134.8030 C   0  0  0  0  0  3  0  0  0  0  0  0
  182.0000  174.3220  138.4900 C   0  0  0  0  0  2  0  0  0  0  0  0
  184.8320  178.0460  139.0130 C   0  0  1  0  0  3  0  0  0  0  0  0
  182.2800  177.7360  139.0250 C   0  0  1  0  0  3  0  0  0  0  0  0
  185.8000  177.6400  137.9230 C   0  0  2  0  0  3  0  0  0  0  0  0
  183.7070  177.7380  136.8430 C   0  0  2  0  0  3  0  0  0  0  0  0
  181.1660  179.6390  139.2460 C   0  0  0  0  0  1  0  0  0  0  0  0
  181.8590  178.6690  139.9750 O   0  0  0  0  0  0  0  0  0  0  0  0
  185.2780  179.2820  139.6340 N   0  0  0  0  0  2  0  0  0  0  0  0
  185.2180  179.0810  141.0710 C   0  0  0  0  0  1  0  0  0  0  0  0
  1  4  1  0  0  0  0
  2  6  2  0  0  0  0
  3 19  2  0  0  0  0
  3 17  1  0  0  0  0
  4 20  1  0  0  0  0
  5  6  2  0  0  0  0
  6 12  1  0  0  0  0
  7 15  1  1  0  0  0
  7 11  1  0  0  0  0
  8  6  1  6  0  0  0
  8 23  1  0  0  0  0
  9 13  1  0  0  0  0
 10 21  1  0  0  0  0
 10 22  1  0  0  0  0
 12  7  1  0  0  0  0
 13 16  1  0  0  0  0
 14  1  1  0  0  0  0
 14 24  1  0  0  0  0
 17 14  2  0  0  0  0
 18  1  2  0  0  0  0
 19 18  1  0  0  0  0
 20 13  1  0  0  0  0
 21 27  1  0  0  0  0
 22 16  1  0  0  0  0
 22 26  1  0  0  0  0
 23 11  1  0  0  0  0
 23 21  1  0  0  0  0
 24  8  1  0  0  0  0
 24 10  1  0  0  0  0
 25 26  1  0  0  0  0
 27 28  1  0  0  0  0
M  END
>  <MODEL>
9

>  <REMARK>
 VINA RESULT:      -3.6      2.859      3.796
  Name = 
  2 active torsions:
  status: ('A' for Active; 'I' for Inactive)
    1  A    between atoms: N_5  and  C_24
    2  A    between atoms: O_17  and  C_25
                            x       y       z     vdW  Elec       q    Type
                         _______ _______ _______ _____ _____    ______ ____

>  <TORSDO>
F 2

$$$$
