=
 OpenBabel11122412293D

 34 40  0  0  1  0  0  0  0  0999 V2000
  189.7550  177.5300  139.9470 N   0  0  1  0  0  0  0  0  0  0  0  0
  191.4460  176.5870  138.3430 C   0  0  0  0  0  2  0  0  0  0  0  0
  183.5230  178.4410  141.2600 C   0  0  1  0  0  3  0  0  0  0  0  0
  187.9640  178.2240  141.4780 C   0  0  2  0  0  3  0  0  0  0  0  0
  185.8920  178.9850  140.3300 C   0  0  2  0  0  3  0  0  0  0  0  0
  183.7820  179.6480  139.0700 C   0  0  0  0  0  1  0  0  0  0  0  0
  183.7450  177.1100  140.9490 F   0  0  0  0  0  0  0  0  0  0  0  0
  185.0390  178.2740  143.3070 C   0  0  0  0  0  2  0  0  0  0  0  0
  189.4330  177.5260  137.5520 C   0  0  2  0  0  3  0  0  0  0  0  0
  187.9220  176.3310  134.9870 C   0  0  0  0  0  2  0  0  0  0  0  0
  186.1510  178.1570  139.2160 O   0  0  0  0  0  0  0  0  0  0  0  0
  186.0710  179.0360  142.7430 O   0  0  0  0  0  0  0  0  0  0  0  0
  187.9050  177.5610  137.6520 C   0  0  1  0  0  3  0  0  0  0  0  0
  191.3980  176.3090  136.8420 C   0  0  0  0  0  2  0  0  0  0  0  0
  186.4470  178.3210  141.6040 C   0  0  2  0  0  3  0  0  0  0  0  0
  183.6760  178.7050  142.7610 C   0  0  0  0  0  2  0  0  0  0  0  0
  189.2020  175.7940  135.6590 C   0  0  1  0  0  3  0  0  0  0  0  0
  188.2950  177.5380  140.1480 C   0  0  1  0  0  3  0  0  0  0  0  0
  184.4030  179.3800  140.4300 C   0  0  1  0  0  3  0  0  0  0  0  0
  187.5400  178.2310  138.9850 C   0  0  2  0  0  3  0  0  0  0  0  0
  189.9090  177.5020  142.3960 C   0  0  0  0  0  2  0  0  0  0  0  0
  187.7320  177.8470  135.0950 C   0  0  0  0  0  2  0  0  0  0  0  0
  188.5050  177.4640  142.5330 O   0  0  0  0  0  0  0  0  0  0  0  0
  187.2510  178.3000  136.4790 C   0  0  0  0  0  2  0  0  0  0  0  0
  190.0740  176.8800  136.3290 C   0  0  1  0  0  3  0  0  0  0  0  0
  190.3400  176.8180  141.0880 C   0  0  0  0  0  2  0  0  0  0  0  0
  189.9910  176.7620  138.7240 C   0  0  2  0  0  3  0  0  0  0  0  0
  188.8660  174.7830  136.5660 O   0  0  0  0  0  0  0  0  0  0  0  0
  187.6530  174.2660  136.1060 C   0  0  0  0  0  2  0  0  0  0  0  0
  184.4530  173.9760  137.6260 C   0  0  0  0  0  2  0  0  0  0  0  0
  186.2710  172.5820  137.2820 C   0  0  0  0  0  2  0  0  0  0  0  0
  186.7220  174.0200  137.2790 C   0  0  2  0  0  3  0  0  0  0  0  0
  184.8260  172.5840  137.4210 N   0  0  0  0  0  2  0  0  0  0  0  0
  185.5270  174.8300  137.1470 N   0  0  0  0  0  2  0  0  0  0  0  0
  1 18  1  0  0  0  0
  1 26  1  1  0  0  0
  2 27  1  0  0  0  0
  3  7  1  1  0  0  0
  3 16  1  0  0  0  0
  4 15  1  0  0  0  0
  4 23  1  1  0  0  0
  5 11  1  6  0  0  0
  5 19  1  0  0  0  0
  5 15  1  0  0  0  0
  6 19  1  0  0  0  0
  9 13  1  0  0  0  0
  9 27  1  0  0  0  0
 10 22  1  0  0  0  0
 10 17  1  0  0  0  0
 12  8  1  0  0  0  0
 13 20  1  0  0  0  0
 14  2  1  0  0  0  0
 15 12  1  0  0  0  0
 16  8  1  0  0  0  0
 17 25  1  0  0  0  0
 17 28  1  0  0  0  0
 18  4  1  0  0  0  0
 19  3  1  0  0  0  0
 20 11  1  0  0  0  0
 20 18  1  0  0  0  0
 21 23  1  0  0  0  0
 22 24  1  0  0  0  0
 24 13  1  0  0  0  0
 25 14  1  0  0  0  0
 25  9  1  0  0  0  0
 26 21  1  0  0  0  0
 27  1  1  0  0  0  0
 29 28  1  0  0  0  0
 29 32  1  0  0  0  0
 31 33  1  0  0  0  0
 32 31  1  0  0  0  0
 33 30  1  0  0  0  0
 34 32  1  0  0  0  0
 34 30  1  0  0  0  0
M  END
>  <MODEL>
1

>  <REMARK>
 VINA RESULT:      -7.6      0.000      0.000
  Name = 
  3 active torsions:
  status: ('A' for Active; 'I' for Inactive)
    1  A    between atoms: C_17  and  O_28
    2  A    between atoms: O_28  and  C_29
    3  A    between atoms: C_29  and  C_32
                            x       y       z     vdW  Elec       q    Type
                         _______ _______ _______ _____ _____    ______ ____

>  <TORSDO>
F 3

$$$$
=
 OpenBabel11122412293D

 34 40  0  0  1  0  0  0  0  0999 V2000
  189.8970  177.9060  139.8140 N   0  0  1  0  0  0  0  0  0  0  0  0
  189.8720  177.5840  137.3220 C   0  0  0  0  0  2  0  0  0  0  0  0
  186.6500  177.3240  145.3390 C   0  0  1  0  0  3  0  0  0  0  0  0
  189.8060  177.9780  142.2690 C   0  0  2  0  0  3  0  0  0  0  0  0
  187.5460  178.4730  143.1820 C   0  0  2  0  0  3  0  0  0  0  0  0
  185.1790  178.8820  144.0250 C   0  0  0  0  0  1  0  0  0  0  0  0
  186.6000  176.1290  144.6390 F   0  0  0  0  0  0  0  0  0  0  0  0
  189.1870  177.1510  145.5600 C   0  0  0  0  0  2  0  0  0  0  0  0
  187.9110  178.2080  138.4730 C   0  0  2  0  0  3  0  0  0  0  0  0
  185.0250  177.1440  137.5620 C   0  0  0  0  0  2  0  0  0  0  0  0
  186.9160  177.8970  142.0580 O   0  0  0  0  0  0  0  0  0  0  0  0
  189.4480  178.1850  144.6500 O   0  0  0  0  0  0  0  0  0  0  0  0
  186.9550  177.9180  139.6330 C   0  0  1  0  0  3  0  0  0  0  0  0
  188.7370  177.5380  136.3000 C   0  0  0  0  0  2  0  0  0  0  0  0
  188.8750  177.7460  143.4550 C   0  0  2  0  0  3  0  0  0  0  0  0
  187.8560  177.3770  146.2810 C   0  0  0  0  0  2  0  0  0  0  0  0
  186.3950  176.7800  136.9560 C   0  0  1  0  0  3  0  0  0  0  0  0
  189.0630  177.5870  140.9870 C   0  0  1  0  0  3  0  0  0  0  0  0
  186.6090  178.5380  144.4070 C   0  0  1  0  0  3  0  0  0  0  0  0
  187.6790  178.2850  140.9370 C   0  0  2  0  0  3  0  0  0  0  0  0
  191.8120  177.5310  141.3040 C   0  0  0  0  0  2  0  0  0  0  0  0
  184.9430  178.5550  138.1520 C   0  0  0  0  0  2  0  0  0  0  0  0
  190.9670  177.1890  142.3830 O   0  0  0  0  0  0  0  0  0  0  0  0
  185.6310  178.6810  139.5170 C   0  0  0  0  0  2  0  0  0  0  0  0
  187.4540  177.9020  137.0510 C   0  0  1  0  0  3  0  0  0  0  0  0
  191.1510  177.1600  139.9660 C   0  0  0  0  0  2  0  0  0  0  0  0
  189.1700  177.4000  138.6500 C   0  0  2  0  0  3  0  0  0  0  0  0
  186.8630  175.5940  137.5330 O   0  0  0  0  0  0  0  0  0  0  0  0
  186.7100  174.6200  136.5430 C   0  0  0  0  0  2  0  0  0  0  0  0
  184.1500  172.2770  137.3140 C   0  0  0  0  0  2  0  0  0  0  0  0
  186.1360  172.2490  136.1200 C   0  0  0  0  0  2  0  0  0  0  0  0
  186.1790  173.3390  137.1600 C   0  0  2  0  0  3  0  0  0  0  0  0
  184.8160  171.6480  136.1820 N   0  0  0  0  0  2  0  0  0  0  0  0
  184.8180  173.5310  137.6190 N   0  0  0  0  0  2  0  0  0  0  0  0
  1 26  1  1  0  0  0
  1 18  1  0  0  0  0
  2 27  1  0  0  0  0
  3  7  1  6  0  0  0
  3 16  1  0  0  0  0
  4 23  1  1  0  0  0
  4 15  1  0  0  0  0
  5 11  1  6  0  0  0
  5 15  1  0  0  0  0
  5 19  1  0  0  0  0
  6 19  1  0  0  0  0
  8 16  1  0  0  0  0
  9 27  1  0  0  0  0
  9 13  1  0  0  0  0
 10 22  1  0  0  0  0
 12  8  1  0  0  0  0
 13 20  1  0  0  0  0
 14 25  1  0  0  0  0
 14  2  1  0  0  0  0
 15 12  1  0  0  0  0
 17 25  1  0  0  0  0
 17 28  1  0  0  0  0
 17 10  1  0  0  0  0
 18  4  1  0  0  0  0
 19  3  1  0  0  0  0
 20 18  1  0  0  0  0
 20 11  1  0  0  0  0
 21 23  1  0  0  0  0
 22 24  1  0  0  0  0
 24 13  1  0  0  0  0
 25  9  1  0  0  0  0
 26 21  1  0  0  0  0
 27  1  1  0  0  0  0
 29 32  1  0  0  0  0
 29 28  1  0  0  0  0
 30 34  1  0  0  0  0
 31 33  1  0  0  0  0
 31 32  1  0  0  0  0
 32 34  1  0  0  0  0
 33 30  1  0  0  0  0
M  END
>  <MODEL>
2

>  <REMARK>
 VINA RESULT:      -7.5      1.919      3.097
  Name = 
  3 active torsions:
  status: ('A' for Active; 'I' for Inactive)
    1  A    between atoms: C_17  and  O_28
    2  A    between atoms: O_28  and  C_29
    3  A    between atoms: C_29  and  C_32
                            x       y       z     vdW  Elec       q    Type
                         _______ _______ _______ _____ _____    ______ ____

>  <TORSDO>
F 3

$$$$
=
 OpenBabel11122412293D

 34 40  0  0  1  0  0  0  0  0999 V2000
  185.6810  178.8840  138.9480 N   0  0  1  0  0  0  0  0  0  0  0  0
  183.3880  179.2070  137.9680 C   0  0  0  0  0  2  0  0  0  0  0  0
  189.1700  176.3780  143.7370 C   0  0  1  0  0  3  0  0  0  0  0  0
  187.8490  178.3120  139.9520 C   0  0  2  0  0  3  0  0  0  0  0  0
  187.8050  178.1710  142.4360 C   0  0  2  0  0  3  0  0  0  0  0  0
  187.6410  177.9500  144.9660 C   0  0  0  0  0  1  0  0  0  0  0  0
  188.3270  175.4100  143.2190 F   0  0  0  0  0  0  0  0  0  0  0  0
  190.3970  176.5830  141.5080 C   0  0  0  0  0  2  0  0  0  0  0  0
  183.7040  179.1790  140.3050 C   0  0  2  0  0  3  0  0  0  0  0  0
  181.5110  177.9120  142.2750 C   0  0  0  0  0  2  0  0  0  0  0  0
  186.4430  177.8030  142.4370 O   0  0  0  0  0  0  0  0  0  0  0  0
  189.8630  177.8430  141.2040 O   0  0  0  0  0  0  0  0  0  0  0  0
  184.2950  178.4460  141.5130 C   0  0  1  0  0  3  0  0  0  0  0  0
  181.9950  179.2330  138.5940 C   0  0  0  0  0  2  0  0  0  0  0  0
  188.4830  177.6330  141.1620 C   0  0  2  0  0  3  0  0  0  0  0  0
  190.5240  176.3920  143.0210 C   0  0  0  0  0  2  0  0  0  0  0  0
  181.4800  177.9510  140.7340 C   0  0  1  0  0  3  0  0  0  0  0  0
  186.3280  178.1410  140.0440 C   0  0  1  0  0  3  0  0  0  0  0  0
  188.5210  177.7650  143.7410 C   0  0  1  0  0  3  0  0  0  0  0  0
  185.8230  178.5860  141.4400 C   0  0  2  0  0  3  0  0  0  0  0  0
  187.7480  178.4690  137.6900 C   0  0  0  0  0  2  0  0  0  0  0  0
  182.2390  179.0920  142.9280 C   0  0  0  0  0  2  0  0  0  0  0  0
  188.3040  177.7270  138.7550 O   0  0  0  0  0  0  0  0  0  0  0  0
  183.7660  178.9810  142.8480 C   0  0  0  0  0  2  0  0  0  0  0  0
  182.1920  179.1730  140.1110 C   0  0  1  0  0  3  0  0  0  0  0  0
  186.2150  178.3450  137.6920 C   0  0  0  0  0  2  0  0  0  0  0  0
  184.2530  178.5760  139.0380 C   0  0  2  0  0  3  0  0  0  0  0  0
  181.9950  176.7520  140.2250 O   0  0  0  0  0  0  0  0  0  0  0  0
  180.8900  176.0660  139.7170 C   0  0  0  0  0  2  0  0  0  0  0  0
  181.8810  175.8960  136.3080 C   0  0  0  0  0  2  0  0  0  0  0  0
  182.7830  175.2540  138.3440 C   0  0  0  0  0  2  0  0  0  0  0  0
  181.2810  175.3290  138.4500 C   0  0  2  0  0  3  0  0  0  0  0  0
  183.1420  175.6950  137.0080 N   0  0  0  0  0  2  0  0  0  0  0  0
  180.8170  176.0550  137.2850 N   0  0  0  0  0  2  0  0  0  0  0  0
  1 26  1  6  0  0  0
  1 27  1  0  0  0  0
  1 18  1  0  0  0  0
  2 14  1  0  0  0  0
  2 27  1  0  0  0  0
  3  7  1  6  0  0  0
  3 19  1  0  0  0  0
  4 23  1  6  0  0  0
  4 18  1  0  0  0  0
  4 15  1  0  0  0  0
  5 11  1  1  0  0  0
  5 19  1  0  0  0  0
  8 16  1  0  0  0  0
  9 13  1  0  0  0  0
 10 22  1  0  0  0  0
 12  8  1  0  0  0  0
 13 24  1  0  0  0  0
 14 25  1  0  0  0  0
 15 12  1  0  0  0  0
 15  5  1  0  0  0  0
 16  3  1  0  0  0  0
 17 10  1  0  0  0  0
 18 20  1  0  0  0  0
 19  6  1  0  0  0  0
 20 13  1  0  0  0  0
 20 11  1  0  0  0  0
 21 26  1  0  0  0  0
 21 23  1  0  0  0  0
 24 22  1  0  0  0  0
 25  9  1  0  0  0  0
 25 17  1  0  0  0  0
 27  9  1  0  0  0  0
 28 17  1  0  0  0  0
 29 28  1  0  0  0  0
 30 33  1  0  0  0  0
 30 34  1  0  0  0  0
 31 32  1  0  0  0  0
 32 29  1  0  0  0  0
 33 31  1  0  0  0  0
 34 32  1  0  0  0  0
M  END
>  <MODEL>
3

>  <REMARK>
 VINA RESULT:      -7.3      2.729      6.219
  Name = 
  3 active torsions:
  status: ('A' for Active; 'I' for Inactive)
    1  A    between atoms: C_17  and  O_28
    2  A    between atoms: O_28  and  C_29
    3  A    between atoms: C_29  and  C_32
                            x       y       z     vdW  Elec       q    Type
                         _______ _______ _______ _____ _____    ______ ____

>  <TORSDO>
F 3

$$$$
=
 OpenBabel11122412293D

 34 40  0  0  1  0  0  0  0  0999 V2000
  190.8260  177.3190  138.4140 N   0  0  1  0  0  0  0  0  0  0  0  0
  190.8530  176.7290  135.9700 C   0  0  0  0  0  2  0  0  0  0  0  0
  187.5150  177.2070  143.9300 C   0  0  1  0  0  3  0  0  0  0  0  0
  190.6930  177.6510  140.8440 C   0  0  2  0  0  3  0  0  0  0  0  0
  188.4010  178.1520  141.6720 C   0  0  2  0  0  3  0  0  0  0  0  0
  186.0070  178.5560  142.4370 C   0  0  0  0  0  1  0  0  0  0  0  0
  187.5210  175.9430  143.3630 F   0  0  0  0  0  0  0  0  0  0  0  0
  190.0530  177.1600  144.1990 C   0  0  0  0  0  2  0  0  0  0  0  0
  188.8510  177.3960  137.0240 C   0  0  2  0  0  3  0  0  0  0  0  0
  186.0230  176.1260  136.1990 C   0  0  0  0  0  2  0  0  0  0  0  0
  187.8120  177.4340  140.6090 O   0  0  0  0  0  0  0  0  0  0  0  0
  190.2890  178.0990  143.1850 O   0  0  0  0  0  0  0  0  0  0  0  0
  187.8880  177.1940  138.1970 C   0  0  1  0  0  3  0  0  0  0  0  0
  189.7370  176.5290  134.9470 C   0  0  0  0  0  2  0  0  0  0  0  0
  189.7530  177.5120  142.0370 C   0  0  2  0  0  3  0  0  0  0  0  0
  188.7030  177.4100  144.8740 C   0  0  0  0  0  2  0  0  0  0  0  0
  187.4160  175.7540  135.6520 C   0  0  1  0  0  3  0  0  0  0  0  0
  189.9860  177.0950  139.6040 C   0  0  1  0  0  3  0  0  0  0  0  0
  187.4430  178.3120  142.8710 C   0  0  1  0  0  3  0  0  0  0  0  0
  188.5780  177.7280  139.4620 C   0  0  2  0  0  3  0  0  0  0  0  0
  192.7290  177.1820  139.9580 C   0  0  0  0  0  2  0  0  0  0  0  0
  185.8780  177.5880  136.6320 C   0  0  0  0  0  2  0  0  0  0  0  0
  191.8810  176.9250  141.0570 O   0  0  0  0  0  0  0  0  0  0  0  0
  186.5390  177.8880  137.9830 C   0  0  0  0  0  2  0  0  0  0  0  0
  188.4290  176.9210  135.6380 C   0  0  1  0  0  3  0  0  0  0  0  0
  192.1040  176.6430  138.6600 C   0  0  0  0  0  2  0  0  0  0  0  0
  190.1380  176.6620  137.3020 C   0  0  2  0  0  3  0  0  0  0  0  0
  187.9180  174.6560  136.3600 O   0  0  0  0  0  0  0  0  0  0  0  0
  187.7110  173.5560  135.5250 C   0  0  0  0  0  2  0  0  0  0  0  0
  185.0350  172.7240  137.7120 C   0  0  0  0  0  2  0  0  0  0  0  0
  185.4270  172.6040  135.4310 C   0  0  0  0  0  2  0  0  0  0  0  0
  186.7370  172.5920  136.1780 C   0  0  2  0  0  3  0  0  0  0  0  0
  184.3730  172.7700  136.4160 N   0  0  0  0  0  2  0  0  0  0  0  0
  186.4480  173.0140  137.5330 N   0  0  0  0  0  2  0  0  0  0  0  0
  1 26  1  1  0  0  0
  1 18  1  0  0  0  0
  2 27  1  0  0  0  0
  3  7  1  6  0  0  0
  3 16  1  0  0  0  0
  4 23  1  1  0  0  0
  4 15  1  0  0  0  0
  5 11  1  6  0  0  0
  5 15  1  0  0  0  0
  5 19  1  0  0  0  0
  6 19  1  0  0  0  0
  8 16  1  0  0  0  0
  9 27  1  0  0  0  0
  9 13  1  0  0  0  0
 10 22  1  0  0  0  0
 12  8  1  0  0  0  0
 13 20  1  0  0  0  0
 14 25  1  0  0  0  0
 14  2  1  0  0  0  0
 15 12  1  0  0  0  0
 17 10  1  0  0  0  0
 17 28  1  0  0  0  0
 18  4  1  0  0  0  0
 19  3  1  0  0  0  0
 20 18  1  0  0  0  0
 20 11  1  0  0  0  0
 21 23  1  0  0  0  0
 22 24  1  0  0  0  0
 24 13  1  0  0  0  0
 25 17  1  0  0  0  0
 25  9  1  0  0  0  0
 26 21  1  0  0  0  0
 27  1  1  0  0  0  0
 29 32  1  0  0  0  0
 29 28  1  0  0  0  0
 31 32  1  0  0  0  0
 31 33  1  0  0  0  0
 32 34  1  0  0  0  0
 33 30  1  0  0  0  0
 34 30  1  0  0  0  0
M  END
>  <MODEL>
4

>  <REMARK>
 VINA RESULT:      -7.1      1.817      2.916
  Name = 
  3 active torsions:
  status: ('A' for Active; 'I' for Inactive)
    1  A    between atoms: C_17  and  O_28
    2  A    between atoms: O_28  and  C_29
    3  A    between atoms: C_29  and  C_32
                            x       y       z     vdW  Elec       q    Type
                         _______ _______ _______ _____ _____    ______ ____

>  <TORSDO>
F 3

$$$$
=
 OpenBabel11122412293D

 34 40  0  0  1  0  0  0  0  0999 V2000
  189.8710  177.8590  139.6290 N   0  0  1  0  0  0  0  0  0  0  0  0
  189.7990  177.5030  137.1420 C   0  0  0  0  0  2  0  0  0  0  0  0
  186.7280  177.3560  145.2210 C   0  0  1  0  0  3  0  0  0  0  0  0
  189.8270  177.9650  142.0830 C   0  0  2  0  0  3  0  0  0  0  0  0
  187.5840  178.4740  143.0320 C   0  0  2  0  0  3  0  0  0  0  0  0
  185.2340  178.8970  143.9130 C   0  0  0  0  0  1  0  0  0  0  0  0
  186.6650  176.1520  144.5390 F   0  0  0  0  0  0  0  0  0  0  0  0
  189.2690  177.1850  145.3970 C   0  0  0  0  0  2  0  0  0  0  0  0
  187.8600  178.1440  138.3210 C   0  0  2  0  0  3  0  0  0  0  0  0
  184.9570  177.0680  137.4790 C   0  0  0  0  0  2  0  0  0  0  0  0
  186.9330  177.8830  141.9280 O   0  0  0  0  0  0  0  0  0  0  0  0
  189.5140  178.2050  144.4680 O   0  0  0  0  0  0  0  0  0  0  0  0
  186.9260  177.8700  139.5030 C   0  0  1  0  0  3  0  0  0  0  0  0
  188.6450  177.4430  136.1430 C   0  0  0  0  0  2  0  0  0  0  0  0
  188.9180  177.7500  143.2900 C   0  0  2  0  0  3  0  0  0  0  0  0
  187.9520  177.4220  146.1390 C   0  0  0  0  0  2  0  0  0  0  0  0
  186.3160  176.6960  136.8520 C   0  0  1  0  0  3  0  0  0  0  0  0
  189.0590  177.5570  140.8210 C   0  0  1  0  0  3  0  0  0  0  0  0
  186.6700  178.5570  144.2730 C   0  0  1  0  0  3  0  0  0  0  0  0
  187.6750  178.2550  140.7870 C   0  0  2  0  0  3  0  0  0  0  0  0
  191.8140  177.5040  141.0880 C   0  0  0  0  0  2  0  0  0  0  0  0
  184.8870  178.4880  138.0510 C   0  0  0  0  0  2  0  0  0  0  0  0
  190.9900  177.1770  142.1870 O   0  0  0  0  0  0  0  0  0  0  0  0
  185.6010  178.6330  139.4010 C   0  0  0  0  0  2  0  0  0  0  0  0
  187.3760  177.8180  136.9120 C   0  0  1  0  0  3  0  0  0  0  0  0
  191.1270  177.1140  139.7680 C   0  0  0  0  0  2  0  0  0  0  0  0
  189.1230  177.3380  138.4860 C   0  0  2  0  0  3  0  0  0  0  0  0
  186.7940  175.5170  137.4380 O   0  0  0  0  0  0  0  0  0  0  0  0
  185.9800  174.5010  136.9310 C   0  0  0  0  0  2  0  0  0  0  0  0
  188.4310  173.4170  134.5960 C   0  0  0  0  0  2  0  0  0  0  0  0
  188.1930  173.3890  136.9000 C   0  0  0  0  0  2  0  0  0  0  0  0
  186.8360  173.4510  136.2460 C   0  0  2  0  0  3  0  0  0  0  0  0
  189.1840  173.4520  135.8410 N   0  0  0  0  0  2  0  0  0  0  0  0
  187.0580  173.8130  134.8600 N   0  0  0  0  0  2  0  0  0  0  0  0
  1 26  1  1  0  0  0
  1 18  1  0  0  0  0
  2 27  1  0  0  0  0
  3  7  1  6  0  0  0
  3 16  1  0  0  0  0
  4 23  1  1  0  0  0
  4 15  1  0  0  0  0
  5 11  1  6  0  0  0
  5 15  1  0  0  0  0
  5 19  1  0  0  0  0
  6 19  1  0  0  0  0
  8 16  1  0  0  0  0
  9 27  1  0  0  0  0
  9 13  1  0  0  0  0
 10 22  1  0  0  0  0
 12  8  1  0  0  0  0
 13 20  1  0  0  0  0
 14 25  1  0  0  0  0
 14  2  1  0  0  0  0
 15 12  1  0  0  0  0
 17 25  1  0  0  0  0
 17 28  1  0  0  0  0
 17 10  1  0  0  0  0
 18  4  1  0  0  0  0
 19  3  1  0  0  0  0
 20 18  1  0  0  0  0
 20 11  1  0  0  0  0
 21 23  1  0  0  0  0
 22 24  1  0  0  0  0
 24 13  1  0  0  0  0
 25  9  1  0  0  0  0
 26 21  1  0  0  0  0
 27  1  1  0  0  0  0
 29 28  1  0  0  0  0
 30 34  1  0  0  0  0
 30 33  1  0  0  0  0
 32 31  1  0  0  0  0
 32 29  1  0  0  0  0
 33 31  1  0  0  0  0
 34 32  1  0  0  0  0
M  END
>  <MODEL>
5

>  <REMARK>
 VINA RESULT:      -7.1      2.079      3.320
  Name = 
  3 active torsions:
  status: ('A' for Active; 'I' for Inactive)
    1  A    between atoms: C_17  and  O_28
    2  A    between atoms: O_28  and  C_29
    3  A    between atoms: C_29  and  C_32
                            x       y       z     vdW  Elec       q    Type
                         _______ _______ _______ _____ _____    ______ ____

>  <TORSDO>
F 3

$$$$
=
 OpenBabel11122412293D

 34 40  0  0  1  0  0  0  0  0999 V2000
  189.7790  177.5780  140.7200 N   0  0  1  0  0  0  0  0  0  0  0  0
  191.6670  176.6520  139.3430 C   0  0  0  0  0  2  0  0  0  0  0  0
  183.4220  178.4300  141.2340 C   0  0  1  0  0  3  0  0  0  0  0  0
  187.8020  178.2550  142.0120 C   0  0  2  0  0  3  0  0  0  0  0  0
  185.8850  178.9970  140.6100 C   0  0  2  0  0  3  0  0  0  0  0  0
  183.9450  179.6410  139.0940 C   0  0  0  0  0  1  0  0  0  0  0  0
  183.6940  177.1020  140.9550 F   0  0  0  0  0  0  0  0  0  0  0  0
  184.6690  178.2760  143.4560 C   0  0  0  0  0  2  0  0  0  0  0  0
  189.7620  177.5720  138.3040 C   0  0  2  0  0  3  0  0  0  0  0  0
  188.5980  176.3640  135.5690 C   0  0  0  0  0  2  0  0  0  0  0  0
  186.2900  178.1720  139.5390 O   0  0  0  0  0  0  0  0  0  0  0  0
  185.7570  179.0490  143.0270 O   0  0  0  0  0  0  0  0  0  0  0  0
  188.2330  177.5930  138.2090 C   0  0  1  0  0  3  0  0  0  0  0  0
  191.8130  176.3740  137.8480 C   0  0  0  0  0  2  0  0  0  0  0  0
  186.2800  178.3380  141.9440 C   0  0  2  0  0  3  0  0  0  0  0  0
  183.3820  178.6950  142.7420 C   0  0  0  0  0  2  0  0  0  0  0  0
  189.7880  175.8390  136.3970 C   0  0  1  0  0  3  0  0  0  0  0  0
  188.3050  177.5720  140.7350 C   0  0  1  0  0  3  0  0  0  0  0  0
  184.3920  179.3780  140.5220 C   0  0  1  0  0  3  0  0  0  0  0  0
  187.6970  178.2590  139.4850 C   0  0  2  0  0  3  0  0  0  0  0  0
  189.6230  177.5510  143.1690 C   0  0  0  0  0  2  0  0  0  0  0  0
  188.3820  177.8780  135.6510 C   0  0  0  0  0  2  0  0  0  0  0  0
  188.2120  177.5000  143.1270 O   0  0  0  0  0  0  0  0  0  0  0  0
  187.7260  178.3260  136.9630 C   0  0  0  0  0  2  0  0  0  0  0  0
  190.5580  176.9330  137.1720 C   0  0  1  0  0  3  0  0  0  0  0  0
  190.2220  176.8720  141.9260 C   0  0  0  0  0  2  0  0  0  0  0  0
  190.1750  176.8130  139.5370 C   0  0  2  0  0  3  0  0  0  0  0  0
  189.3500  174.8250  137.2560 O   0  0  0  0  0  0  0  0  0  0  0  0
  189.9410  173.6550  136.7720 C   0  0  0  0  0  2  0  0  0  0  0  0
  188.8750  170.9890  134.6760 C   0  0  0  0  0  2  0  0  0  0  0  0
  187.9410  172.2480  136.3820 C   0  0  0  0  0  2  0  0  0  0  0  0
  189.0470  173.0270  135.7180 C   0  0  2  0  0  3  0  0  0  0  0  0
  187.9060  170.9360  135.7610 N   0  0  0  0  0  2  0  0  0  0  0  0
  189.8020  172.0810  134.9210 N   0  0  0  0  0  2  0  0  0  0  0  0
  1 18  1  0  0  0  0
  1 26  1  1  0  0  0
  2 27  1  0  0  0  0
  3  7  1  1  0  0  0
  3 16  1  0  0  0  0
  4 23  1  1  0  0  0
  5 11  1  6  0  0  0
  5 15  1  0  0  0  0
  6 19  1  0  0  0  0
  9 27  1  0  0  0  0
 10 22  1  0  0  0  0
 10 17  1  0  0  0  0
 12  8  1  0  0  0  0
 13  9  1  0  0  0  0
 13 20  1  0  0  0  0
 14  2  1  0  0  0  0
 15  4  1  0  0  0  0
 15 12  1  0  0  0  0
 16  8  1  0  0  0  0
 17 25  1  0  0  0  0
 17 28  1  0  0  0  0
 18  4  1  0  0  0  0
 19  5  1  0  0  0  0
 19  3  1  0  0  0  0
 20 11  1  0  0  0  0
 20 18  1  0  0  0  0
 22 24  1  0  0  0  0
 23 21  1  0  0  0  0
 24 13  1  0  0  0  0
 25 14  1  0  0  0  0
 25  9  1  0  0  0  0
 26 21  1  0  0  0  0
 27  1  1  0  0  0  0
 29 28  1  0  0  0  0
 30 34  1  0  0  0  0
 30 33  1  0  0  0  0
 32 31  1  0  0  0  0
 32 29  1  0  0  0  0
 33 31  1  0  0  0  0
 34 32  1  0  0  0  0
M  END
>  <MODEL>
6

>  <REMARK>
 VINA RESULT:      -7.1      1.584      1.833
  Name = 
  3 active torsions:
  status: ('A' for Active; 'I' for Inactive)
    1  A    between atoms: C_17  and  O_28
    2  A    between atoms: O_28  and  C_29
    3  A    between atoms: C_29  and  C_32
                            x       y       z     vdW  Elec       q    Type
                         _______ _______ _______ _____ _____    ______ ____

>  <TORSDO>
F 3

$$$$
=
 OpenBabel11122412293D

 34 40  0  0  1  0  0  0  0  0999 V2000
  184.3350  178.8400  139.3520 N   0  0  1  0  0  0  0  0  0  0  0  0
  182.2380  178.7350  137.9700 C   0  0  0  0  0  2  0  0  0  0  0  0
  187.1840  177.3130  144.9160 C   0  0  1  0  0  3  0  0  0  0  0  0
  186.3390  178.6850  140.7660 C   0  0  2  0  0  3  0  0  0  0  0  0
  185.8610  178.7630  143.2060 C   0  0  2  0  0  3  0  0  0  0  0  0
  185.2670  178.7490  145.6810 C   0  0  0  0  0  1  0  0  0  0  0  0
  186.5800  176.1890  144.3760 F   0  0  0  0  0  0  0  0  0  0  0  0
  188.7600  177.4940  142.9160 C   0  0  0  0  0  2  0  0  0  0  0  0
  182.1230  178.9640  140.3140 C   0  0  2  0  0  3  0  0  0  0  0  0
  179.7880  177.5730  142.0190 C   0  0  0  0  0  2  0  0  0  0  0  0
  184.5800  178.2010  143.0200 O   0  0  0  0  0  0  0  0  0  0  0  0
  188.1340  178.6300  142.3840 O   0  0  0  0  0  0  0  0  0  0  0  0
  182.5720  178.4370  141.6800 C   0  0  1  0  0  3  0  0  0  0  0  0
  180.7630  178.6130  138.3450 C   0  0  0  0  0  2  0  0  0  0  0  0
  186.8230  178.2170  142.1350 C   0  0  2  0  0  3  0  0  0  0  0  0
  188.6320  177.4600  144.4400 C   0  0  0  0  0  2  0  0  0  0  0  0
  180.0340  177.4670  140.5000 C   0  0  1  0  0  3  0  0  0  0  0  0
  184.8620  178.3020  140.6190 C   0  0  1  0  0  3  0  0  0  0  0  0
  186.3720  178.5850  144.6520 C   0  0  1  0  0  3  0  0  0  0  0  0
  184.0570  178.7920  141.8500 C   0  0  2  0  0  3  0  0  0  0  0  0
  186.6330  178.6210  138.5160 C   0  0  0  0  0  2  0  0  0  0  0  0
  180.2270  178.9000  142.6450 C   0  0  0  0  0  2  0  0  0  0  0  0
  187.0760  178.0670  139.7370 O   0  0  0  0  0  0  0  0  0  0  0  0
  181.7450  179.0070  142.8370 C   0  0  0  0  0  2  0  0  0  0  0  0
  180.6850  178.7190  139.8700 C   0  0  1  0  0  3  0  0  0  0  0  0
  185.1540  178.2740  138.2750 C   0  0  0  0  0  2  0  0  0  0  0  0
  182.9670  178.3360  139.2350 C   0  0  2  0  0  3  0  0  0  0  0  0
  180.7820  176.3160  140.2260 O   0  0  0  0  0  0  0  0  0  0  0  0
  179.8380  175.3180  139.9750 C   0  0  0  0  0  2  0  0  0  0  0  0
  181.5100  173.9100  137.1710 C   0  0  0  0  0  2  0  0  0  0  0  0
  179.6200  173.4080  138.4140 C   0  0  0  0  0  2  0  0  0  0  0  0
  179.9300  174.8790  138.5240 C   0  0  2  0  0  3  0  0  0  0  0  0
  180.6770  172.8040  137.6230 N   0  0  0  0  0  2  0  0  0  0  0  0
  181.2810  175.0580  138.0320 N   0  0  0  0  0  2  0  0  0  0  0  0
  1 26  1  6  0  0  0
  1 18  1  0  0  0  0
  2 14  1  0  0  0  0
  2 27  1  0  0  0  0
  3  7  1  6  0  0  0
  4 23  1  6  0  0  0
  4 15  1  0  0  0  0
  5 11  1  1  0  0  0
  5 19  1  0  0  0  0
  8 16  1  0  0  0  0
  9 13  1  0  0  0  0
 10 22  1  0  0  0  0
 12  8  1  0  0  0  0
 13 20  1  0  0  0  0
 13 24  1  0  0  0  0
 14 25  1  0  0  0  0
 15 12  1  0  0  0  0
 15  5  1  0  0  0  0
 16  3  1  0  0  0  0
 17 10  1  0  0  0  0
 18  4  1  0  0  0  0
 18 20  1  0  0  0  0
 19  3  1  0  0  0  0
 19  6  1  0  0  0  0
 20 11  1  0  0  0  0
 21 23  1  0  0  0  0
 22 24  1  0  0  0  0
 25  9  1  0  0  0  0
 25 17  1  0  0  0  0
 26 21  1  0  0  0  0
 27  1  1  0  0  0  0
 27  9  1  0  0  0  0
 28 17  1  0  0  0  0
 29 28  1  0  0  0  0
 30 33  1  0  0  0  0
 30 34  1  0  0  0  0
 31 32  1  0  0  0  0
 32 29  1  0  0  0  0
 33 31  1  0  0  0  0
 34 32  1  0  0  0  0
M  END
>  <MODEL>
7

>  <REMARK>
 VINA RESULT:      -7.0      3.381      6.686
  Name = 
  3 active torsions:
  status: ('A' for Active; 'I' for Inactive)
    1  A    between atoms: C_17  and  O_28
    2  A    between atoms: O_28  and  C_29
    3  A    between atoms: C_29  and  C_32
                            x       y       z     vdW  Elec       q    Type
                         _______ _______ _______ _____ _____    ______ ____

>  <TORSDO>
F 3

$$$$
=
 OpenBabel11122412293D

 34 40  0  0  1  0  0  0  0  0999 V2000
  186.0960  178.4750  138.9860 N   0  0  1  0  0  0  0  0  0  0  0  0
  184.5650  178.1730  137.0160 C   0  0  0  0  0  2  0  0  0  0  0  0
  187.0670  177.3850  145.2520 C   0  0  1  0  0  3  0  0  0  0  0  0
  187.5420  178.5130  140.9720 C   0  0  2  0  0  3  0  0  0  0  0  0
  186.2990  178.6680  143.1220 C   0  0  2  0  0  3  0  0  0  0  0  0
  184.9400  178.7250  145.2740 C   0  0  0  0  0  1  0  0  0  0  0  0
  186.7230  176.2010  144.6200 F   0  0  0  0  0  0  0  0  0  0  0  0
  189.1930  177.5790  143.8540 C   0  0  0  0  0  2  0  0  0  0  0  0
  183.6880  178.4970  139.1810 C   0  0  2  0  0  3  0  0  0  0  0  0
  180.9970  177.0340  140.1350 C   0  0  0  0  0  2  0  0  0  0  0  0
  185.1750  178.0170  142.5720 O   0  0  0  0  0  0  0  0  0  0  0  0
  188.7190  178.6470  143.0790 O   0  0  0  0  0  0  0  0  0  0  0  0
  183.6980  178.0620  140.6490 C   0  0  1  0  0  3  0  0  0  0  0  0
  183.0540  177.9710  136.9070 C   0  0  0  0  0  2  0  0  0  0  0  0
  187.5800  178.1390  142.4510 C   0  0  2  0  0  3  0  0  0  0  0  0
  188.5820  177.6040  145.2560 C   0  0  0  0  0  2  0  0  0  0  0  0
  181.7240  176.8770  138.7840 C   0  0  1  0  0  3  0  0  0  0  0  0
  186.2110  178.0290  140.3860 C   0  0  1  0  0  3  0  0  0  0  0  0
  186.3250  178.5880  144.6630 C   0  0  1  0  0  3  0  0  0  0  0  0
  185.0300  178.5200  141.2620 C   0  0  2  0  0  3  0  0  0  0  0  0
  188.5490  178.3680  138.9440 C   0  0  0  0  0  2  0  0  0  0  0  0
  181.1470  178.4140  140.7830 C   0  0  0  0  0  2  0  0  0  0  0  0
  188.6000  177.8990  140.2740 O   0  0  0  0  0  0  0  0  0  0  0  0
  182.5150  178.6280  141.4430 C   0  0  0  0  0  2  0  0  0  0  0  0
  182.4840  178.1400  138.3180 C   0  0  1  0  0  3  0  0  0  0  0  0
  187.2450  177.9160  138.2640 C   0  0  0  0  0  2  0  0  0  0  0  0
  184.8640  177.8780  138.4700 C   0  0  2  0  0  3  0  0  0  0  0  0
  182.5750  175.7670  138.8360 O   0  0  0  0  0  0  0  0  0  0  0  0
  182.0260  174.8440  137.9430 C   0  0  0  0  0  2  0  0  0  0  0  0
  185.0120  172.9550  137.5510 C   0  0  0  0  0  2  0  0  0  0  0  0
  182.8050  172.7510  136.8740 C   0  0  0  0  0  2  0  0  0  0  0  0
  183.1310  174.2010  137.1260 C   0  0  2  0  0  3  0  0  0  0  0  0
  183.9820  171.9780  137.2280 N   0  0  0  0  0  2  0  0  0  0  0  0
  184.3780  174.2250  137.8630 N   0  0  0  0  0  2  0  0  0  0  0  0
  1 26  1  6  0  0  0
  1 18  1  0  0  0  0
  2 27  1  0  0  0  0
  3  7  1  6  0  0  0
  3 16  1  0  0  0  0
  4 23  1  6  0  0  0
  4 15  1  0  0  0  0
  5 11  1  6  0  0  0
  5 19  1  0  0  0  0
  8 16  1  0  0  0  0
  9 13  1  0  0  0  0
 10 22  1  0  0  0  0
 12  8  1  0  0  0  0
 13 20  1  0  0  0  0
 13 24  1  0  0  0  0
 14  2  1  0  0  0  0
 14 25  1  0  0  0  0
 15 12  1  0  0  0  0
 15  5  1  0  0  0  0
 17 28  1  0  0  0  0
 17 10  1  0  0  0  0
 18  4  1  0  0  0  0
 18 20  1  0  0  0  0
 19  3  1  0  0  0  0
 19  6  1  0  0  0  0
 20 11  1  0  0  0  0
 21 23  1  0  0  0  0
 22 24  1  0  0  0  0
 25 17  1  0  0  0  0
 25  9  1  0  0  0  0
 26 21  1  0  0  0  0
 27  1  1  0  0  0  0
 27  9  1  0  0  0  0
 29 28  1  0  0  0  0
 30 34  1  0  0  0  0
 31 32  1  0  0  0  0
 31 33  1  0  0  0  0
 32 34  1  0  0  0  0
 32 29  1  0  0  0  0
 33 30  1  0  0  0  0
M  END
>  <MODEL>
8

>  <REMARK>
 VINA RESULT:      -6.9      2.500      5.201
  Name = 
  3 active torsions:
  status: ('A' for Active; 'I' for Inactive)
    1  A    between atoms: C_17  and  O_28
    2  A    between atoms: O_28  and  C_29
    3  A    between atoms: C_29  and  C_32
                            x       y       z     vdW  Elec       q    Type
                         _______ _______ _______ _____ _____    ______ ____

>  <TORSDO>
F 3

$$$$
=
 OpenBabel11122412293D

 34 40  0  0  1  0  0  0  0  0999 V2000
  179.8330  178.6810  137.9010 N   0  0  1  0  0  0  0  0  0  0  0  0
  179.9510  176.7230  139.4730 C   0  0  0  0  0  2  0  0  0  0  0  0
  180.7830  184.9950  137.1060 C   0  0  1  0  0  3  0  0  0  0  0  0
  179.9580  180.6680  136.4610 C   0  0  2  0  0  3  0  0  0  0  0  0
  179.4840  182.8050  137.6450 C   0  0  2  0  0  3  0  0  0  0  0  0
  179.0870  184.9470  138.9610 C   0  0  0  0  0  1  0  0  0  0  0  0
  181.9150  184.4190  137.6570 F   0  0  0  0  0  0  0  0  0  0  0  0
  181.0340  183.5950  134.9860 C   0  0  0  0  0  2  0  0  0  0  0  0
  179.3750  178.8680  140.2660 C   0  0  2  0  0  3  0  0  0  0  0  0
  180.2910  179.8810  143.1690 C   0  0  0  0  0  2  0  0  0  0  0  0
  179.9520  182.2820  138.8700 O   0  0  0  0  0  0  0  0  0  0  0  0
  179.9370  182.7700  135.2670 O   0  0  0  0  0  0  0  0  0  0  0  0
  179.7350  180.3550  140.3260 C   0  0  1  0  0  3  0  0  0  0  0  0
  179.8860  176.6190  140.9950 C   0  0  0  0  0  2  0  0  0  0  0  0
  180.2630  182.1630  136.4820 C   0  0  2  0  0  3  0  0  0  0  0  0
  180.8350  184.9930  135.5750 C   0  0  0  0  0  2  0  0  0  0  0  0
  180.6380  178.5420  142.4880 C   0  0  1  0  0  3  0  0  0  0  0  0
  180.2260  180.1010  137.8600 C   0  0  1  0  0  3  0  0  0  0  0  0
  179.4960  184.3480  137.6260 C   0  0  1  0  0  3  0  0  0  0  0  0
  179.4930  180.9500  138.9310 C   0  0  2  0  0  3  0  0  0  0  0  0
  180.3740  178.6520  135.5070 C   0  0  0  0  0  2  0  0  0  0  0  0
  178.9310  180.4640  142.7730 C   0  0  0  0  0  2  0  0  0  0  0  0
  180.7820  180.0030  135.5330 O   0  0  0  0  0  0  0  0  0  0  0  0
  178.9330  181.1170  141.3850 C   0  0  0  0  0  2  0  0  0  0  0  0
  179.5530  178.0180  141.5190 C   0  0  1  0  0  3  0  0  0  0  0  0
  180.6200  177.9900  136.8740 C   0  0  0  0  0  2  0  0  0  0  0  0
  180.2250  178.1910  139.2220 C   0  0  2  0  0  3  0  0  0  0  0  0
  181.8780  178.6490  141.8480 O   0  0  0  0  0  0  0  0  0  0  0  0
  182.8240  178.6150  142.8750 C   0  0  0  0  0  2  0  0  0  0  0  0
  185.4210  178.8150  140.4560 C   0  0  0  0  0  2  0  0  0  0  0  0
  185.1990  179.2970  142.7110 C   0  0  0  0  0  2  0  0  0  0  0  0
  184.1850  178.2570  142.3080 C   0  0  2  0  0  3  0  0  0  0  0  0
  185.9100  179.6930  141.5090 N   0  0  0  0  0  2  0  0  0  0  0  0
  184.1400  178.2580  140.8600 N   0  0  0  0  0  2  0  0  0  0  0  0
  1 26  1  6  0  0  0
  1 27  1  0  0  0  0
  2 14  1  0  0  0  0
  3 19  1  0  0  0  0
  3  7  1  1  0  0  0
  4 23  1  6  0  0  0
  4 15  1  0  0  0  0
  4 18  1  0  0  0  0
  5 11  1  1  0  0  0
  8 12  1  0  0  0  0
  8 16  1  0  0  0  0
  9 13  1  0  0  0  0
  9 25  1  0  0  0  0
 11 20  1  0  0  0  0
 12 15  1  0  0  0  0
 13 24  1  0  0  0  0
 14 25  1  0  0  0  0
 15  5  1  0  0  0  0
 16  3  1  0  0  0  0
 17 10  1  0  0  0  0
 18  1  1  0  0  0  0
 18 20  1  0  0  0  0
 19  5  1  0  0  0  0
 19  6  1  0  0  0  0
 20 13  1  0  0  0  0
 21 23  1  0  0  0  0
 21 26  1  0  0  0  0
 22 10  1  0  0  0  0
 24 22  1  0  0  0  0
 25 17  1  0  0  0  0
 27  2  1  0  0  0  0
 27  9  1  0  0  0  0
 28 17  1  0  0  0  0
 28 29  1  0  0  0  0
 30 34  1  0  0  0  0
 30 33  1  0  0  0  0
 32 31  1  0  0  0  0
 32 29  1  0  0  0  0
 33 31  1  0  0  0  0
 34 32  1  0  0  0  0
M  END
>  <MODEL>
9

>  <REMARK>
 VINA RESULT:      -6.6      5.290      9.597
  Name = 
  3 active torsions:
  status: ('A' for Active; 'I' for Inactive)
    1  A    between atoms: C_17  and  O_28
    2  A    between atoms: O_28  and  C_29
    3  A    between atoms: C_29  and  C_32
                            x       y       z     vdW  Elec       q    Type
                         _______ _______ _______ _____ _____    ______ ____

>  <TORSDO>
F 3

$$$$
