=
 OpenBabel11122410463D

 32 37  0  0  1  0  0  0  0  0999 V2000
  181.8930  177.1560  139.0630 C   0  0  0  0  0  2  0  0  0  0  0  0
  186.0330  178.4570  142.1040 C   0  0  0  0  0  0  0  0  0  0  0  0
  189.4400  176.8970  139.5590 C   0  0  0  0  0  2  0  0  0  0  0  0
  190.5070  176.8480  140.6270 C   0  0  0  0  0  2  0  0  0  0  0  0
  186.1320  178.6350  144.6980 C   0  0  0  0  0  0  0  0  0  0  0  0
  186.8680  178.2770  145.9070 C   0  0  0  0  0  0  0  0  0  0  0  0
  183.8260  178.7570  140.8910 C   0  0  1  0  0  3  0  0  0  0  0  0
  185.9560  178.6410  139.6020 C   0  0  0  0  0  2  0  0  0  0  0  0
  188.7300  177.6500  147.1400 C   0  0  1  0  0  3  0  0  0  0  0  0
  183.8170  178.4210  138.3230 C   0  0  0  0  0  2  0  0  0  0  0  0
  188.8540  178.2920  139.5770 C   0  0  0  0  0  2  0  0  0  0  0  0
  186.6910  178.4850  140.9160 C   0  0  0  0  0  0  0  0  0  0  0  0
  188.1940  178.6250  140.9220 C   0  0  1  0  0  3  0  0  0  0  0  0
  188.1330  178.1140  143.3550 C   0  0  0  0  0  0  0  0  0  0  0  0
  187.5520  177.9700  148.0710 C   0  0  0  0  0  2  0  0  0  0  0  0
  182.1090  177.2260  140.5820 C   0  0  0  0  0  2  0  0  0  0  0  0
  184.5220  178.1440  139.6600 C   0  0  2  0  0  3  0  0  0  0  0  0
  186.4530  178.4010  147.1510 C   0  0  0  0  0  3  0  0  0  0  0  0
  182.4250  178.5400  140.9830 O   0  0  0  0  0  0  0  0  0  0  0  0
  182.3530  178.3830  138.4060 N   0  0  0  0  0  0  0  0  0  0  0  0
  189.8660  176.9400  142.0040 C   0  0  0  0  0  2  0  0  0  0  0  0
  188.7740  177.9230  142.0840 N   0  0  0  0  0  0  0  0  0  0  0  0
  188.9850  178.0530  144.6130 C   0  0  0  0  0  2  0  0  0  0  0  0
  184.5300  178.2820  142.1560 C   0  0  0  0  0  2  0  0  0  0  0  0
  184.9760  179.1310  144.7780 O   0  0  0  0  0  0  0  0  0  0  0  0
  189.1790  176.2180  147.3610 C   0  0  0  0  0  1  0  0  0  0  0  0
  186.8050  178.4140  143.3890 C   0  0  0  0  0  0  0  0  0  0  0  0
  188.1850  177.7960  145.8050 N   0  0  0  0  0  0  0  0  0  0  0  0
  181.8590  178.3480  137.0380 C   0  0  0  0  0  2  0  0  0  0  0  0
  180.7890  179.4080  136.8350 C   0  0  0  0  0  3  0  0  0  0  0  0
  181.0780  180.6150  137.7060 C   0  0  0  0  0  1  0  0  0  0  0  0
  180.7760  179.8340  135.3830 C   0  0  0  0  0  1  0  0  0  0  0  0
  1 16  1  0  0  0  0
  2 24  1  0  0  0  0
  2 27  1  0  0  0  0
  3 11  1  0  0  0  0
  3  4  1  0  0  0  0
  4 21  1  0  0  0  0
  5 25  2  0  0  0  0
  5  6  1  0  0  0  0
  6 18  2  0  0  0  0
  7 19  1  0  0  0  0
  7 24  1  1  0  0  0
  8 17  1  0  0  0  0
  8 12  1  0  0  0  0
  9 26  1  1  0  0  0
  9 15  1  0  0  0  0
 10 20  1  0  0  0  0
 12 13  1  0  0  0  0
 12  2  2  0  0  0  0
 13 11  1  6  0  0  0
 13 22  1  0  0  0  0
 14 27  2  0  0  0  0
 14 23  1  0  0  0  0
 16 19  1  0  0  0  0
 17 10  1  6  0  0  0
 17  7  1  0  0  0  0
 18 15  1  0  0  0  0
 20  1  1  0  0  0  0
 21 22  1  0  0  0  0
 22 14  1  0  0  0  0
 23 28  1  0  0  0  0
 27  5  1  0  0  0  0
 28  6  1  0  0  0  0
 28  9  1  0  0  0  0
 29 20  1  0  0  0  0
 30 29  1  0  0  0  0
 30 31  1  0  0  0  0
 32 30  1  0  0  0  0
M  END
>  <MODEL>
1

>  <REMARK>
 VINA RESULT:      -8.3      0.000      0.000
  Name = 
  2 active torsions:
  status: ('A' for Active; 'I' for Inactive)
    1  A    between atoms: N_20  and  C_29
    2  A    between atoms: C_29  and  C_30
                            x       y       z     vdW  Elec       q    Type
                         _______ _______ _______ _____ _____    ______ ____

>  <TORSDO>
F 2

$$$$
=
 OpenBabel11122410463D

 32 37  0  0  1  0  0  0  0  0999 V2000
  187.8740  176.4670  143.7350 C   0  0  0  0  0  2  0  0  0  0  0  0
  190.2450  177.0850  139.0370 C   0  0  0  0  0  0  0  0  0  0  0  0
  186.6410  177.0900  136.2940 C   0  0  0  0  0  2  0  0  0  0  0  0
  187.3520  176.7900  134.9960 C   0  0  0  0  0  2  0  0  0  0  0  0
  192.6120  176.2820  138.3100 C   0  0  0  0  0  0  0  0  0  0  0  0
  193.3940  175.6000  137.2840 C   0  0  0  0  0  0  0  0  0  0  0  0
  189.7430  177.5110  141.4860 C   0  0  1  0  0  3  0  0  0  0  0  0
  188.1010  178.1870  139.7350 C   0  0  0  0  0  2  0  0  0  0  0  0
  193.8570  174.8190  135.1490 C   0  0  1  0  0  3  0  0  0  0  0  0
  187.3180  178.1720  142.1120 C   0  0  0  0  0  2  0  0  0  0  0  0
  187.3360  178.2790  136.9200 C   0  0  0  0  0  2  0  0  0  0  0  0
  189.0590  177.6500  138.6930 C   0  0  0  0  0  0  0  0  0  0  0  0
  188.8070  177.9840  137.2430 C   0  0  1  0  0  3  0  0  0  0  0  0
  190.7870  176.5900  136.6800 C   0  0  0  0  0  0  0  0  0  0  0  0
  195.0610  174.5970  136.0750 C   0  0  0  0  0  2  0  0  0  0  0  0
  189.2130  175.9880  143.1550 C   0  0  0  0  0  2  0  0  0  0  0  0
  188.2540  177.5110  141.0870 C   0  0  2  0  0  3  0  0  0  0  0  0
  194.6410  175.1870  137.3850 C   0  0  0  0  0  3  0  0  0  0  0  0
  190.0300  177.0830  142.8090 O   0  0  0  0  0  0  0  0  0  0  0  0
  187.6820  177.9020  143.5070 N   0  0  0  0  0  0  0  0  0  0  0  0
  188.7520  176.2660  135.2810 C   0  0  0  0  0  2  0  0  0  0  0  0
  189.4440  176.9840  136.3640 N   0  0  0  0  0  0  0  0  0  0  0  0
  191.7080  176.1780  135.5420 C   0  0  0  0  0  2  0  0  0  0  0  0
  190.5350  176.6970  140.4710 C   0  0  0  0  0  2  0  0  0  0  0  0
  193.1220  176.5460  139.4320 O   0  0  0  0  0  0  0  0  0  0  0  0
  193.3880  173.4870  134.5950 C   0  0  0  0  0  1  0  0  0  0  0  0
  191.2140  176.6670  137.9710 C   0  0  0  0  0  0  0  0  0  0  0  0
  192.8370  175.3810  136.0120 N   0  0  0  0  0  0  0  0  0  0  0  0
  186.5500  178.3180  144.3210 C   0  0  0  0  0  2  0  0  0  0  0  0
  186.6400  177.7020  145.7070 C   0  0  0  0  0  3  0  0  0  0  0  0
  187.9960  177.9940  146.3210 C   0  0  0  0  0  1  0  0  0  0  0  0
  185.5580  178.2900  146.5870 C   0  0  0  0  0  1  0  0  0  0  0  0
  2 24  1  0  0  0  0
  3 11  1  0  0  0  0
  4 21  1  0  0  0  0
  4  3  1  0  0  0  0
  5 25  2  0  0  0  0
  6 18  2  0  0  0  0
  6  5  1  0  0  0  0
  7 24  1  6  0  0  0
  7 19  1  0  0  0  0
  9 26  1  1  0  0  0
  9 28  1  0  0  0  0
  9 15  1  0  0  0  0
 10 20  1  0  0  0  0
 12  2  2  0  0  0  0
 12  8  1  0  0  0  0
 13 11  1  1  0  0  0
 13 12  1  0  0  0  0
 14 27  2  0  0  0  0
 15 18  1  0  0  0  0
 16  1  1  0  0  0  0
 17  8  1  6  0  0  0
 17  7  1  0  0  0  0
 17 10  1  0  0  0  0
 19 16  1  0  0  0  0
 20  1  1  0  0  0  0
 20 29  1  0  0  0  0
 21 22  1  0  0  0  0
 22 14  1  0  0  0  0
 22 13  1  0  0  0  0
 23 28  1  0  0  0  0
 23 14  1  0  0  0  0
 27  5  1  0  0  0  0
 27  2  1  0  0  0  0
 28  6  1  0  0  0  0
 29 30  1  0  0  0  0
 30 31  1  0  0  0  0
 30 32  1  0  0  0  0
M  END
>  <MODEL>
2

>  <REMARK>
 VINA RESULT:      -8.0      4.189      8.703
  Name = 
  2 active torsions:
  status: ('A' for Active; 'I' for Inactive)
    1  A    between atoms: N_20  and  C_29
    2  A    between atoms: C_29  and  C_30
                            x       y       z     vdW  Elec       q    Type
                         _______ _______ _______ _____ _____    ______ ____

>  <TORSDO>
F 2

$$$$
=
 OpenBabel11122410463D

 32 37  0  0  1  0  0  0  0  0999 V2000
  191.1100  176.1230  143.9830 C   0  0  0  0  0  2  0  0  0  0  0  0
  187.6690  178.1680  140.5110 C   0  0  0  0  0  0  0  0  0  0  0  0
  183.9160  178.2780  143.0450 C   0  0  0  0  0  2  0  0  0  0  0  0
  182.9030  178.3990  141.9320 C   0  0  0  0  0  2  0  0  0  0  0  0
  187.6550  177.9180  137.9210 C   0  0  0  0  0  0  0  0  0  0  0  0
  186.8510  177.6190  136.7400 C   0  0  0  0  0  0  0  0  0  0  0  0
  189.8390  177.9300  141.8010 C   0  0  1  0  0  3  0  0  0  0  0  0
  187.7830  178.7450  142.9510 C   0  0  0  0  0  2  0  0  0  0  0  0
  184.8960  177.4360  135.5040 C   0  0  1  0  0  3  0  0  0  0  0  0
  189.7150  178.0580  144.3850 C   0  0  0  0  0  2  0  0  0  0  0  0
  184.9350  179.3780  142.8430 C   0  0  0  0  0  2  0  0  0  0  0  0
  187.0480  178.6150  141.6340 C   0  0  0  0  0  0  0  0  0  0  0  0
  185.6790  179.2370  141.5080 C   0  0  1  0  0  3  0  0  0  0  0  0
  185.5850  178.3230  139.1970 C   0  0  0  0  0  0  0  0  0  0  0  0
  186.1200  177.1860  134.6130 C   0  0  0  0  0  2  0  0  0  0  0  0
  190.9420  175.9980  142.4620 C   0  0  0  0  0  2  0  0  0  0  0  0
  188.9680  177.8020  143.0660 C   0  0  2  0  0  3  0  0  0  0  0  0
  187.2930  177.3840  135.5220 C   0  0  0  0  0  3  0  0  0  0  0  0
  191.0870  177.2530  141.8360 O   0  0  0  0  0  0  0  0  0  0  0  0
  191.0830  177.5270  144.4040 N   0  0  0  0  0  0  0  0  0  0  0  0
  183.5480  178.0360  140.6030 C   0  0  0  0  0  2  0  0  0  0  0  0
  184.9070  178.5760  140.4370 N   0  0  0  0  0  0  0  0  0  0  0  0
  184.7710  178.3300  137.9130 C   0  0  0  0  0  2  0  0  0  0  0  0
  189.0260  177.5030  140.5850 C   0  0  0  0  0  2  0  0  0  0  0  0
  188.9110  177.9850  137.8380 O   0  0  0  0  0  0  0  0  0  0  0  0
  183.9950  176.2160  135.4860 C   0  0  0  0  0  1  0  0  0  0  0  0
  186.9370  178.1600  139.2020 C   0  0  0  0  0  0  0  0  0  0  0  0
  185.4480  177.6220  136.8320 N   0  0  0  0  0  0  0  0  0  0  0  0
  191.5260  177.5690  145.7890 C   0  0  0  0  0  2  0  0  0  0  0  0
  190.9750  176.3780  146.5560 C   0  0  0  0  0  3  0  0  0  0  0  0
  192.0560  175.7800  147.4380 C   0  0  0  0  0  1  0  0  0  0  0  0
  189.8200  176.8310  147.4220 C   0  0  0  0  0  1  0  0  0  0  0  0
  1 20  1  0  0  0  0
  2 24  1  0  0  0  0
  2 12  2  0  0  0  0
  4  3  1  0  0  0  0
  5 27  1  0  0  0  0
  6 28  1  0  0  0  0
  6  5  1  0  0  0  0
  7 24  1  6  0  0  0
  7 19  1  0  0  0  0
  7 17  1  0  0  0  0
  9 26  1  1  0  0  0
  9 28  1  0  0  0  0
 10 20  1  0  0  0  0
 11  3  1  0  0  0  0
 12  8  1  0  0  0  0
 13 12  1  0  0  0  0
 13 11  1  1  0  0  0
 14 27  2  0  0  0  0
 14 22  1  0  0  0  0
 15  9  1  0  0  0  0
 15 18  1  0  0  0  0
 16  1  1  0  0  0  0
 17  8  1  6  0  0  0
 17 10  1  0  0  0  0
 18  6  2  0  0  0  0
 19 16  1  0  0  0  0
 20 29  1  0  0  0  0
 21  4  1  0  0  0  0
 22 21  1  0  0  0  0
 22 13  1  0  0  0  0
 23 14  1  0  0  0  0
 25  5  2  0  0  0  0
 27  2  1  0  0  0  0
 28 23  1  0  0  0  0
 29 30  1  0  0  0  0
 30 32  1  0  0  0  0
 30 31  1  0  0  0  0
M  END
>  <MODEL>
3

>  <REMARK>
 VINA RESULT:      -7.9      2.887      9.103
  Name = 
  2 active torsions:
  status: ('A' for Active; 'I' for Inactive)
    1  A    between atoms: N_20  and  C_29
    2  A    between atoms: C_29  and  C_30
                            x       y       z     vdW  Elec       q    Type
                         _______ _______ _______ _____ _____    ______ ____

>  <TORSDO>
F 2

$$$$
=
 OpenBabel11122410463D

 32 37  0  0  1  0  0  0  0  0999 V2000
  191.8470  174.6410  137.0620 C   0  0  0  0  0  2  0  0  0  0  0  0
  188.4450  177.7880  139.6310 C   0  0  0  0  0  0  0  0  0  0  0  0
  189.4650  176.7660  143.9240 C   0  0  0  0  0  2  0  0  0  0  0  0
  188.2080  177.2880  144.5790 C   0  0  0  0  0  2  0  0  0  0  0  0
  186.0920  178.5860  138.8560 C   0  0  0  0  0  0  0  0  0  0  0  0
  184.6900  178.7560  139.2280 C   0  0  0  0  0  0  0  0  0  0  0  0
  190.1910  177.1250  137.9160 C   0  0  1  0  0  3  0  0  0  0  0  0
  190.8190  177.3520  140.3180 C   0  0  0  0  0  2  0  0  0  0  0  0
  182.9080  179.0180  140.6890 C   0  0  1  0  0  3  0  0  0  0  0  0
  192.4490  176.2130  138.7990 C   0  0  0  0  0  2  0  0  0  0  0  0
  190.0250  177.8870  143.0760 C   0  0  0  0  0  2  0  0  0  0  0  0
  189.3830  177.7330  140.6110 C   0  0  0  0  0  0  0  0  0  0  0  0
  189.0540  178.3110  141.9650 C   0  0  1  0  0  3  0  0  0  0  0  0
  186.6750  178.3870  141.2440 C   0  0  0  0  0  0  0  0  0  0  0  0
  182.4400  179.1800  139.2360 C   0  0  0  0  0  2  0  0  0  0  0  0
  190.4210  175.1240  136.7620 C   0  0  0  0  0  2  0  0  0  0  0  0
  190.9620  176.4780  139.0840 C   0  0  2  0  0  3  0  0  0  0  0  0
  183.6880  179.0380  138.4220 C   0  0  0  0  0  3  0  0  0  0  0  0
  190.3820  176.5280  136.6410 O   0  0  0  0  0  0  0  0  0  0  0  0
  192.7190  175.7600  137.4300 N   0  0  0  0  0  0  0  0  0  0  0  0
  187.1280  177.5030  143.5290 C   0  0  0  0  0  2  0  0  0  0  0  0
  187.6270  178.1060  142.2820 N   0  0  0  0  0  0  0  0  0  0  0  0
  185.2920  178.8780  141.6430 C   0  0  0  0  0  2  0  0  0  0  0  0
  188.7100  177.1900  138.2660 C   0  0  0  0  0  2  0  0  0  0  0  0
  186.4550  178.7200  137.6570 O   0  0  0  0  0  0  0  0  0  0  0  0
  182.1510  177.8780  141.3430 C   0  0  0  0  0  1  0  0  0  0  0  0
  187.0620  178.2770  139.9430 C   0  0  0  0  0  0  0  0  0  0  0  0
  184.3130  178.6790  140.5800 N   0  0  0  0  0  0  0  0  0  0  0  0
  194.0850  175.2620  137.4180 C   0  0  0  0  0  2  0  0  0  0  0  0
  194.6570  175.3200  136.0110 C   0  0  0  0  0  3  0  0  0  0  0  0
  194.6780  176.7530  135.5140 C   0  0  0  0  0  1  0  0  0  0  0  0
  196.0690  174.7770  136.0220 C   0  0  0  0  0  1  0  0  0  0  0  0
  1 20  1  0  0  0  0
  2 27  1  0  0  0  0
  2 12  2  0  0  0  0
  3  4  1  0  0  0  0
  5  6  1  0  0  0  0
  5 27  1  0  0  0  0
  6 28  1  0  0  0  0
  7 24  1  1  0  0  0
  7 17  1  0  0  0  0
  8 12  1  0  0  0  0
  9 26  1  6  0  0  0
 11  3  1  0  0  0  0
 12 13  1  0  0  0  0
 13 22  1  0  0  0  0
 13 11  1  1  0  0  0
 14 23  1  0  0  0  0
 14 22  1  0  0  0  0
 15  9  1  0  0  0  0
 16  1  1  0  0  0  0
 17 10  1  6  0  0  0
 17  8  1  0  0  0  0
 18  6  2  0  0  0  0
 18 15  1  0  0  0  0
 19 16  1  0  0  0  0
 19  7  1  0  0  0  0
 20 10  1  0  0  0  0
 21  4  1  0  0  0  0
 22 21  1  0  0  0  0
 24  2  1  0  0  0  0
 25  5  2  0  0  0  0
 27 14  2  0  0  0  0
 28  9  1  0  0  0  0
 28 23  1  0  0  0  0
 29 20  1  0  0  0  0
 30 32  1  0  0  0  0
 30 29  1  0  0  0  0
 31 30  1  0  0  0  0
M  END
>  <MODEL>
4

>  <REMARK>
 VINA RESULT:      -7.9      3.522      8.165
  Name = 
  2 active torsions:
  status: ('A' for Active; 'I' for Inactive)
    1  A    between atoms: N_20  and  C_29
    2  A    between atoms: C_29  and  C_30
                            x       y       z     vdW  Elec       q    Type
                         _______ _______ _______ _____ _____    ______ ____

>  <TORSDO>
F 2

$$$$
=
 OpenBabel11122410463D

 32 37  0  0  1  0  0  0  0  0999 V2000
  190.0680  176.6890  144.7210 C   0  0  0  0  0  2  0  0  0  0  0  0
  190.9690  177.0220  139.5100 C   0  0  0  0  0  0  0  0  0  0  0  0
  186.7400  176.6890  137.9240 C   0  0  0  0  0  2  0  0  0  0  0  0
  187.0680  176.3150  136.4990 C   0  0  0  0  0  2  0  0  0  0  0  0
  193.0730  176.2480  138.1880 C   0  0  0  0  0  0  0  0  0  0  0  0
  193.5680  175.5160  137.0250 C   0  0  0  0  0  0  0  0  0  0  0  0
  191.1600  177.6200  141.9670 C   0  0  1  0  0  3  0  0  0  0  0  0
  189.0540  178.1000  140.7230 C   0  0  0  0  0  2  0  0  0  0  0  0
  193.4480  174.5880  134.9030 C   0  0  1  0  0  3  0  0  0  0  0  0
  188.9810  178.2420  143.2200 C   0  0  0  0  0  2  0  0  0  0  0  0
  187.5170  177.9470  138.2460 C   0  0  0  0  0  2  0  0  0  0  0  0
  189.7050  177.5170  139.4860 C   0  0  0  0  0  0  0  0  0  0  0  0
  189.0330  177.7290  138.1510 C   0  0  1  0  0  3  0  0  0  0  0  0
  190.8460  176.3650  137.1340 C   0  0  0  0  0  0  0  0  0  0  0  0
  194.8750  174.4810  135.4560 C   0  0  0  0  0  2  0  0  0  0  0  0
  191.2120  176.2130  143.8130 C   0  0  0  0  0  2  0  0  0  0  0  0
  189.6220  177.5370  142.0140 C   0  0  2  0  0  3  0  0  0  0  0  0
  194.8130  175.1560  136.7910 C   0  0  0  0  0  3  0  0  0  0  0  0
  191.8350  177.3060  143.1770 O   0  0  0  0  0  0  0  0  0  0  0  0
  189.7400  178.0950  144.4660 N   0  0  0  0  0  0  0  0  0  0  0  0
  188.5180  175.8620  136.4030 C   0  0  0  0  0  2  0  0  0  0  0  0
  189.4480  176.6860  137.1920 N   0  0  0  0  0  0  0  0  0  0  0  0
  191.4270  175.8980  135.8090 C   0  0  0  0  0  2  0  0  0  0  0  0
  191.6760  176.7570  140.8220 C   0  0  0  0  0  2  0  0  0  0  0  0
  193.8650  176.6150  139.0960 O   0  0  0  0  0  0  0  0  0  0  0  0
  192.9150  173.2010  134.5940 C   0  0  0  0  0  1  0  0  0  0  0  0
  191.6170  176.5570  138.2400 C   0  0  0  0  0  0  0  0  0  0  0  0
  192.6850  175.1790  135.9850 N   0  0  0  0  0  0  0  0  0  0  0  0
  188.8640  178.5330  145.5420 C   0  0  0  0  0  2  0  0  0  0  0  0
  188.1020  177.3510  146.1180 C   0  0  0  0  0  3  0  0  0  0  0  0
  188.2940  177.2890  147.6210 C   0  0  0  0  0  1  0  0  0  0  0  0
  186.6290  177.5080  145.8100 C   0  0  0  0  0  1  0  0  0  0  0  0
  2 24  1  0  0  0  0
  3 11  1  0  0  0  0
  4  3  1  0  0  0  0
  5 27  1  0  0  0  0
  5 25  2  0  0  0  0
  6  5  1  0  0  0  0
  7 24  1  6  0  0  0
  7 17  1  0  0  0  0
  7 19  1  0  0  0  0
  9 26  1  1  0  0  0
  9 15  1  0  0  0  0
  9 28  1  0  0  0  0
 10 20  1  0  0  0  0
 12  2  2  0  0  0  0
 12  8  1  0  0  0  0
 13 11  1  1  0  0  0
 13 12  1  0  0  0  0
 14 22  1  0  0  0  0
 14 27  2  0  0  0  0
 15 18  1  0  0  0  0
 16  1  1  0  0  0  0
 17  8  1  6  0  0  0
 17 10  1  0  0  0  0
 18  6  2  0  0  0  0
 19 16  1  0  0  0  0
 20  1  1  0  0  0  0
 20 29  1  0  0  0  0
 21  4  1  0  0  0  0
 21 22  1  0  0  0  0
 22 13  1  0  0  0  0
 23 28  1  0  0  0  0
 23 14  1  0  0  0  0
 27  2  1  0  0  0  0
 28  6  1  0  0  0  0
 29 30  1  0  0  0  0
 30 31  1  0  0  0  0
 32 30  1  0  0  0  0
M  END
>  <MODEL>
5

>  <REMARK>
 VINA RESULT:      -7.9      4.233      9.282
  Name = 
  2 active torsions:
  status: ('A' for Active; 'I' for Inactive)
    1  A    between atoms: N_20  and  C_29
    2  A    between atoms: C_29  and  C_30
                            x       y       z     vdW  Elec       q    Type
                         _______ _______ _______ _____ _____    ______ ____

>  <TORSDO>
F 2

$$$$
=
 OpenBabel11122410463D

 32 37  0  0  1  0  0  0  0  0999 V2000
  190.5780  175.9720  144.9540 C   0  0  0  0  0  2  0  0  0  0  0  0
  188.1820  178.1060  140.7370 C   0  0  0  0  0  0  0  0  0  0  0  0
  183.8540  177.8790  142.0520 C   0  0  0  0  0  2  0  0  0  0  0  0
  183.2040  178.0340  140.6970 C   0  0  0  0  0  2  0  0  0  0  0  0
  188.9410  178.0380  138.2480 C   0  0  0  0  0  0  0  0  0  0  0  0
  188.5360  177.7880  136.8680 C   0  0  0  0  0  0  0  0  0  0  0  0
  189.8920  177.8720  142.5950 C   0  0  1  0  0  3  0  0  0  0  0  0
  187.5430  178.5150  143.1290 C   0  0  0  0  0  2  0  0  0  0  0  0
  187.0430  177.6090  135.1020 C   0  0  1  0  0  3  0  0  0  0  0  0
  189.0110  177.8130  145.0300 C   0  0  0  0  0  2  0  0  0  0  0  0
  184.8180  179.0330  142.2200 C   0  0  0  0  0  2  0  0  0  0  0  0
  187.2350  178.4470  141.6480 C   0  0  0  0  0  0  0  0  0  0  0  0
  185.9270  179.0180  141.1580 C   0  0  1  0  0  3  0  0  0  0  0  0
  186.5670  178.2640  138.8770 C   0  0  0  0  0  0  0  0  0  0  0  0
  188.4870  177.4740  134.6000 C   0  0  0  0  0  2  0  0  0  0  0  0
  190.8700  175.9460  143.4460 C   0  0  0  0  0  2  0  0  0  0  0  0
  188.6990  177.6180  143.5380 C   0  0  2  0  0  3  0  0  0  0  0  0
  189.3290  177.6580  135.8240 C   0  0  0  0  0  3  0  0  0  0  0  0
  191.1140  177.2470  142.9600 O   0  0  0  0  0  0  0  0  0  0  0  0
  190.3430  177.3410  145.4230 N   0  0  0  0  0  0  0  0  0  0  0  0
  184.2300  177.7930  139.6000 C   0  0  0  0  0  2  0  0  0  0  0  0
  185.5430  178.4010  139.8730 N   0  0  0  0  0  0  0  0  0  0  0  0
  186.1650  178.3260  137.4110 C   0  0  0  0  0  2  0  0  0  0  0  0
  189.4970  177.4960  141.1720 C   0  0  0  0  0  2  0  0  0  0  0  0
  190.1600  178.1640  138.5430 O   0  0  0  0  0  0  0  0  0  0  0  0
  186.2620  176.3560  134.7530 C   0  0  0  0  0  1  0  0  0  0  0  0
  187.8660  178.1580  139.2710 C   0  0  0  0  0  0  0  0  0  0  0  0
  187.1710  177.7260  136.5410 N   0  0  0  0  0  0  0  0  0  0  0  0
  190.3590  177.3040  146.8780 C   0  0  0  0  0  2  0  0  0  0  0  0
  188.9820  177.6340  147.4300 C   0  0  0  0  0  3  0  0  0  0  0  0
  188.3060  176.3740  147.9360 C   0  0  0  0  0  1  0  0  0  0  0  0
  189.1240  178.6160  148.5730 C   0  0  0  0  0  1  0  0  0  0  0  0
  1 20  1  0  0  0  0
  2 24  1  0  0  0  0
  2 12  2  0  0  0  0
  3 11  1  0  0  0  0
  4  3  1  0  0  0  0
  5 25  2  0  0  0  0
  5 27  1  0  0  0  0
  6  5  1  0  0  0  0
  7 24  1  6  0  0  0
  7 19  1  0  0  0  0
  7 17  1  0  0  0  0
  9 26  1  1  0  0  0
  9 28  1  0  0  0  0
 10 20  1  0  0  0  0
 12  8  1  0  0  0  0
 13 12  1  0  0  0  0
 13 11  1  1  0  0  0
 14 27  2  0  0  0  0
 14 22  1  0  0  0  0
 15  9  1  0  0  0  0
 15 18  1  0  0  0  0
 16  1  1  0  0  0  0
 17  8  1  6  0  0  0
 17 10  1  0  0  0  0
 18  6  2  0  0  0  0
 19 16  1  0  0  0  0
 20 29  1  0  0  0  0
 21 22  1  0  0  0  0
 21  4  1  0  0  0  0
 22 13  1  0  0  0  0
 23 14  1  0  0  0  0
 27  2  1  0  0  0  0
 28  6  1  0  0  0  0
 28 23  1  0  0  0  0
 29 30  1  0  0  0  0
 30 31  1  0  0  0  0
 30 32  1  0  0  0  0
M  END
>  <MODEL>
6

>  <REMARK>
 VINA RESULT:      -7.7      2.972      8.945
  Name = 
  2 active torsions:
  status: ('A' for Active; 'I' for Inactive)
    1  A    between atoms: N_20  and  C_29
    2  A    between atoms: C_29  and  C_30
                            x       y       z     vdW  Elec       q    Type
                         _______ _______ _______ _____ _____    ______ ____

>  <TORSDO>
F 2

$$$$
=
 OpenBabel11122410463D

 32 37  0  0  1  0  0  0  0  0999 V2000
  182.4070  178.0540  140.4320 C   0  0  0  0  0  2  0  0  0  0  0  0
  187.5600  178.2650  141.6460 C   0  0  0  0  0  0  0  0  0  0  0  0
  189.3830  176.9460  137.7150 C   0  0  0  0  0  2  0  0  0  0  0  0
  190.7530  176.5670  138.2240 C   0  0  0  0  0  2  0  0  0  0  0  0
  188.6860  177.8810  143.9610 C   0  0  0  0  0  0  0  0  0  0  0  0
  189.7570  177.2040  144.6860 C   0  0  0  0  0  0  0  0  0  0  0  0
  185.1470  179.0330  141.5170 C   0  0  1  0  0  3  0  0  0  0  0  0
  186.5550  178.9790  139.4600 C   0  0  0  0  0  2  0  0  0  0  0  0
  191.8080  176.1480  144.9280 C   0  0  1  0  0  3  0  0  0  0  0  0
  184.0850  179.2490  139.1650 C   0  0  0  0  0  2  0  0  0  0  0  0
  189.1060  178.3570  138.1850 C   0  0  0  0  0  2  0  0  0  0  0  0
  187.7010  178.4770  140.3120 C   0  0  0  0  0  0  0  0  0  0  0  0
  189.0880  178.4620  139.7170 C   0  0  1  0  0  3  0  0  0  0  0  0
  189.8840  177.4580  141.8480 C   0  0  0  0  0  0  0  0  0  0  0  0
  191.1590  176.3810  146.2990 C   0  0  0  0  0  2  0  0  0  0  0  0
  183.2030  177.7810  141.7170 C   0  0  0  0  0  2  0  0  0  0  0  0
  185.1910  178.6270  140.0300 C   0  0  2  0  0  3  0  0  0  0  0  0
  189.8850  177.1040  145.9940 C   0  0  0  0  0  3  0  0  0  0  0  0
  183.8760  178.9420  142.1460 O   0  0  0  0  0  0  0  0  0  0  0  0
  182.7850  179.3400  139.8390 N   0  0  0  0  0  0  0  0  0  0  0  0
  190.7230  176.4290  139.7390 C   0  0  0  0  0  2  0  0  0  0  0  0
  189.9390  177.4770  140.4130 N   0  0  0  0  0  0  0  0  0  0  0  0
  191.1320  177.0480  142.6140 C   0  0  0  0  0  2  0  0  0  0  0  0
  186.1900  178.2340  142.2880 C   0  0  0  0  0  2  0  0  0  0  0  0
  187.7580  178.4610  144.5870 O   0  0  0  0  0  0  0  0  0  0  0  0
  192.0470  174.6640  144.7220 C   0  0  0  0  0  1  0  0  0  0  0  0
  188.7490  177.8750  142.4730 C   0  0  0  0  0  0  0  0  0  0  0  0
  190.8240  176.6260  143.9770 N   0  0  0  0  0  0  0  0  0  0  0  0
  181.8030  179.6440  138.8100 C   0  0  0  0  0  2  0  0  0  0  0  0
  181.2720  181.0570  138.9870 C   0  0  0  0  0  3  0  0  0  0  0  0
  181.0440  181.7020  137.6330 C   0  0  0  0  0  1  0  0  0  0  0  0
  179.9610  181.0090  139.7420 C   0  0  0  0  0  1  0  0  0  0  0  0
  1 16  1  0  0  0  0
  2 24  1  0  0  0  0
  2 27  1  0  0  0  0
  3 11  1  0  0  0  0
  3  4  1  0  0  0  0
  4 21  1  0  0  0  0
  5 25  2  0  0  0  0
  5  6  1  0  0  0  0
  6 18  2  0  0  0  0
  7 19  1  0  0  0  0
  7 24  1  1  0  0  0
  8 17  1  0  0  0  0
  8 12  1  0  0  0  0
  9 26  1  6  0  0  0
  9 15  1  0  0  0  0
 10 20  1  0  0  0  0
 12  2  2  0  0  0  0
 13 11  1  6  0  0  0
 13 12  1  0  0  0  0
 13 22  1  0  0  0  0
 14 27  2  0  0  0  0
 14 23  1  0  0  0  0
 16 19  1  0  0  0  0
 17 10  1  6  0  0  0
 17  7  1  0  0  0  0
 18 15  1  0  0  0  0
 20  1  1  0  0  0  0
 21 22  1  0  0  0  0
 22 14  1  0  0  0  0
 23 28  1  0  0  0  0
 27  5  1  0  0  0  0
 28  6  1  0  0  0  0
 28  9  1  0  0  0  0
 29 30  1  0  0  0  0
 29 20  1  0  0  0  0
 30 32  1  0  0  0  0
 31 30  1  0  0  0  0
M  END
>  <MODEL>
7

>  <REMARK>
 VINA RESULT:      -7.7      1.882      2.558
  Name = 
  2 active torsions:
  status: ('A' for Active; 'I' for Inactive)
    1  A    between atoms: N_20  and  C_29
    2  A    between atoms: C_29  and  C_30
                            x       y       z     vdW  Elec       q    Type
                         _______ _______ _______ _____ _____    ______ ____

>  <TORSDO>
F 2

$$$$
=
 OpenBabel11122410463D

 32 37  0  0  1  0  0  0  0  0999 V2000
  188.6800  179.3780  137.5240 C   0  0  0  0  0  2  0  0  0  0  0  0
  187.9830  177.4820  142.4230 C   0  0  0  0  0  0  0  0  0  0  0  0
  184.1670  179.6240  143.5940 C   0  0  0  0  0  2  0  0  0  0  0  0
  184.2650  179.4460  145.0900 C   0  0  0  0  0  2  0  0  0  0  0  0
  189.7960  176.7250  144.1290 C   0  0  0  0  0  0  0  0  0  0  0  0
  190.2690  176.8110  145.5070 C   0  0  0  0  0  0  0  0  0  0  0  0
  188.4770  177.4320  139.9360 C   0  0  1  0  0  3  0  0  0  0  0  0
  186.1580  177.8670  140.7430 C   0  0  0  0  0  2  0  0  0  0  0  0
  190.0750  177.1700  147.7910 C   0  0  1  0  0  3  0  0  0  0  0  0
  186.6530  178.3390  138.3360 C   0  0  0  0  0  2  0  0  0  0  0  0
  184.3110  178.2530  142.9700 C   0  0  0  0  0  2  0  0  0  0  0  0
  186.6740  177.7320  142.1590 C   0  0  0  0  0  0  0  0  0  0  0  0
  185.6730  177.6160  143.2830 C   0  0  1  0  0  3  0  0  0  0  0  0
  187.5950  177.5640  144.8590 C   0  0  0  0  0  0  0  0  0  0  0  0
  191.4710  176.6310  147.4490 C   0  0  0  0  0  2  0  0  0  0  0  0
  189.6450  178.9690  138.6470 C   0  0  0  0  0  2  0  0  0  0  0  0
  187.2260  178.3180  139.7610 C   0  0  2  0  0  3  0  0  0  0  0  0
  191.4330  176.4030  145.9700 C   0  0  0  0  0  3  0  0  0  0  0  0
  189.4970  177.6030  138.9630 O   0  0  0  0  0  0  0  0  0  0  0  0
  187.6760  178.3370  137.2850 N   0  0  0  0  0  0  0  0  0  0  0  0
  185.6800  179.0360  145.4710 C   0  0  0  0  0  2  0  0  0  0  0  0
  186.2760  178.0450  144.5600 N   0  0  0  0  0  0  0  0  0  0  0  0
  187.9750  177.3510  146.3160 C   0  0  0  0  0  2  0  0  0  0  0  0
  189.0330  177.6190  141.3420 C   0  0  0  0  0  2  0  0  0  0  0  0
  190.5200  176.2070  143.2360 O   0  0  0  0  0  0  0  0  0  0  0  0
  190.2020  178.5210  148.4680 C   0  0  0  0  0  1  0  0  0  0  0  0
  188.4320  177.2450  143.8330 C   0  0  0  0  0  0  0  0  0  0  0  0
  189.4210  177.3210  146.5050 N   0  0  0  0  0  0  0  0  0  0  0  0
  186.9980  178.6730  136.0420 C   0  0  0  0  0  2  0  0  0  0  0  0
  187.0040  177.4830  135.0980 C   0  0  0  0  0  3  0  0  0  0  0  0
  188.0130  176.4510  135.5650 C   0  0  0  0  0  1  0  0  0  0  0  0
  185.6270  176.8570  135.0720 C   0  0  0  0  0  1  0  0  0  0  0  0
  1 16  1  0  0  0  0
  2 27  1  0  0  0  0
  3  4  1  0  0  0  0
  4 21  1  0  0  0  0
  5  6  1  0  0  0  0
  6 18  2  0  0  0  0
  6 28  1  0  0  0  0
  7 24  1  1  0  0  0
  8 12  1  0  0  0  0
  9 26  1  6  0  0  0
 11  3  1  0  0  0  0
 12  2  2  0  0  0  0
 12 13  1  0  0  0  0
 13 11  1  6  0  0  0
 13 22  1  0  0  0  0
 14 23  1  0  0  0  0
 15  9  1  0  0  0  0
 16 19  1  0  0  0  0
 17 10  1  6  0  0  0
 17  7  1  0  0  0  0
 17  8  1  0  0  0  0
 18 15  1  0  0  0  0
 19  7  1  0  0  0  0
 20  1  1  0  0  0  0
 20 10  1  0  0  0  0
 22 14  1  0  0  0  0
 22 21  1  0  0  0  0
 23 28  1  0  0  0  0
 24  2  1  0  0  0  0
 25  5  2  0  0  0  0
 27  5  1  0  0  0  0
 27 14  2  0  0  0  0
 28  9  1  0  0  0  0
 29 20  1  0  0  0  0
 30 31  1  0  0  0  0
 30 29  1  0  0  0  0
 32 30  1  0  0  0  0
M  END
>  <MODEL>
8

>  <REMARK>
 VINA RESULT:      -7.3      3.283      5.000
  Name = 
  2 active torsions:
  status: ('A' for Active; 'I' for Inactive)
    1  A    between atoms: N_20  and  C_29
    2  A    between atoms: C_29  and  C_30
                            x       y       z     vdW  Elec       q    Type
                         _______ _______ _______ _____ _____    ______ ____

>  <TORSDO>
F 2

$$$$
=
 OpenBabel11122410463D

 32 37  0  0  1  0  0  0  0  0999 V2000
  187.0650  176.8680  145.3290 C   0  0  0  0  0  2  0  0  0  0  0  0
  183.9140  178.4290  141.3650 C   0  0  0  0  0  0  0  0  0  0  0  0
  179.8660  178.1500  143.3780 C   0  0  0  0  0  2  0  0  0  0  0  0
  179.0050  178.1300  142.1380 C   0  0  0  0  0  2  0  0  0  0  0  0
  184.2780  178.1290  138.8050 C   0  0  0  0  0  0  0  0  0  0  0  0
  183.6790  177.7160  137.5400 C   0  0  0  0  0  0  0  0  0  0  0  0
  185.9040  178.4710  142.9360 C   0  0  1  0  0  3  0  0  0  0  0  0
  183.6320  179.0620  143.7770 C   0  0  0  0  0  2  0  0  0  0  0  0
  181.9420  177.2820  136.0650 C   0  0  1  0  0  3  0  0  0  0  0  0
  185.4190  178.6340  145.4760 C   0  0  0  0  0  2  0  0  0  0  0  0
  180.7720  179.3570  143.2740 C   0  0  0  0  0  2  0  0  0  0  0  0
  183.1020  178.8220  142.3800 C   0  0  0  0  0  0  0  0  0  0  0  0
  181.7010  179.2780  142.0530 C   0  0  1  0  0  3  0  0  0  0  0  0
  182.0220  178.3150  139.7840 C   0  0  0  0  0  0  0  0  0  0  0  0
  183.2950  177.1590  135.3520 C   0  0  0  0  0  2  0  0  0  0  0  0
  187.1190  176.6940  143.8040 C   0  0  0  0  0  2  0  0  0  0  0  0
  184.8900  178.2670  144.0800 C   0  0  2  0  0  3  0  0  0  0  0  0
  184.3050  177.5100  136.4000 C   0  0  0  0  0  3  0  0  0  0  0  0
  187.2040  177.9450  143.1590 O   0  0  0  0  0  0  0  0  0  0  0  0
  186.8230  178.2670  145.6930 N   0  0  0  0  0  0  0  0  0  0  0  0
  179.8600  177.8200  140.9180 C   0  0  0  0  0  2  0  0  0  0  0  0
  181.1590  178.5110  140.9140 N   0  0  0  0  0  0  0  0  0  0  0  0
  181.3930  178.2020  138.4040 C   0  0  0  0  0  2  0  0  0  0  0  0
  185.3150  177.9290  141.6400 C   0  0  0  0  0  2  0  0  0  0  0  0
  185.5180  178.3410  138.8860 O   0  0  0  0  0  0  0  0  0  0  0  0
  181.1950  175.9650  135.9710 C   0  0  0  0  0  1  0  0  0  0  0  0
  183.3710  178.3100  139.9720 C   0  0  0  0  0  0  0  0  0  0  0  0
  182.2860  177.5570  137.4460 N   0  0  0  0  0  0  0  0  0  0  0  0
  187.0670  178.3860  147.1220 C   0  0  0  0  0  2  0  0  0  0  0  0
  188.3800  177.7150  147.4920 C   0  0  0  0  0  3  0  0  0  0  0  0
  189.4360  178.0240  146.4490 C   0  0  0  0  0  1  0  0  0  0  0  0
  188.8430  178.2290  148.8380 C   0  0  0  0  0  1  0  0  0  0  0  0
  1 20  1  0  0  0  0
  2 24  1  0  0  0  0
  2 12  2  0  0  0  0
  4  3  1  0  0  0  0
  5 25  2  0  0  0  0
  5 27  1  0  0  0  0
  6  5  1  0  0  0  0
  7 24  1  6  0  0  0
  7 19  1  0  0  0  0
  7 17  1  0  0  0  0
  9 26  1  1  0  0  0
  9 28  1  0  0  0  0
 10 20  1  0  0  0  0
 11  3  1  0  0  0  0
 12  8  1  0  0  0  0
 13 12  1  0  0  0  0
 13 11  1  1  0  0  0
 14 27  2  0  0  0  0
 14 22  1  0  0  0  0
 15  9  1  0  0  0  0
 15 18  1  0  0  0  0
 16  1  1  0  0  0  0
 17  8  1  6  0  0  0
 17 10  1  0  0  0  0
 18  6  2  0  0  0  0
 19 16  1  0  0  0  0
 20 29  1  0  0  0  0
 21  4  1  0  0  0  0
 22 21  1  0  0  0  0
 22 13  1  0  0  0  0
 23 14  1  0  0  0  0
 27  2  1  0  0  0  0
 28  6  1  0  0  0  0
 28 23  1  0  0  0  0
 29 30  1  0  0  0  0
 30 32  1  0  0  0  0
 31 30  1  0  0  0  0
M  END
>  <MODEL>
9

>  <REMARK>
 VINA RESULT:      -7.3      2.334      9.111
  Name = 
  2 active torsions:
  status: ('A' for Active; 'I' for Inactive)
    1  A    between atoms: N_20  and  C_29
    2  A    between atoms: C_29  and  C_30
                            x       y       z     vdW  Elec       q    Type
                         _______ _______ _______ _____ _____    ______ ____

>  <TORSDO>
F 2

$$$$
