=
 OpenBabel11122410263D

 30 35  0  0  1  0  0  0  0  0999 V2000
  185.9790  178.2920  141.8910 C   0  0  0  0  0  0  0  0  0  0  0  0
  183.5570  178.9200  142.1660 C   0  0  0  0  0  0  0  0  0  0  0  0
  186.3590  177.7360  146.0470 N   0  0  0  0  0  2  0  0  0  0  0  0
  187.2190  177.9080  142.4900 C   0  0  0  0  0  0  0  0  0  0  0  0
  185.9260  178.4330  140.4980 C   0  0  0  0  0  3  0  0  0  0  0  0
  189.3820  177.6860  139.4690 O   0  0  0  0  0  1  0  0  0  0  0  0
  190.2060  178.3840  143.3000 C   0  0  1  0  0  3  0  0  0  0  0  0
  188.2640  177.8740  140.2780 C   0  0  0  0  0  0  0  0  0  0  0  0
  189.5730  178.2440  144.6900 C   0  0  2  0  0  3  0  0  0  0  0  0
  187.7170  177.3180  146.0980 C   0  0  0  0  0  0  0  0  0  0  0  0
  187.0410  178.2210  139.6960 C   0  0  0  0  0  0  0  0  0  0  0  0
  188.3700  177.7220  141.6710 C   0  0  0  0  0  0  0  0  0  0  0  0
  182.4680  179.1310  143.0150 C   0  0  0  0  0  3  0  0  0  0  0  0
  190.6250  177.8250  145.6080 N   0  0  0  0  0  2  0  0  0  0  0  0
  191.6950  178.2670  143.5180 C   0  0  0  0  0  2  0  0  0  0  0  0
  183.3550  179.1110  140.8040 O   0  0  0  0  0  1  0  0  0  0  0  0
  186.1340  177.9730  144.6650 C   0  0  0  0  0  0  0  0  0  0  0  0
  182.5900  178.9620  144.3900 C   0  0  0  0  0  3  0  0  0  0  0  0
  184.8180  178.5260  142.6980 C   0  0  0  0  0  0  0  0  0  0  0  0
  187.2530  177.7470  143.8900 C   0  0  0  0  0  0  0  0  0  0  0  0
  188.2740  176.9740  147.1730 O   0  0  0  0  0  0  0  0  0  0  0  0
  188.3840  177.2800  144.7560 C   0  0  1  0  0  3  0  0  0  0  0  0
  191.8680  178.2950  145.0180 C   0  0  0  0  0  2  0  0  0  0  0  0
  189.8970  175.9200  142.5680 C   0  0  0  0  0  1  0  0  0  0  0  0
  183.8120  178.5790  144.9350 C   0  0  0  0  0  3  0  0  0  0  0  0
  184.9190  178.3620  144.1090 C   0  0  0  0  0  0  0  0  0  0  0  0
  189.7340  177.3960  142.2210 C   0  0  2  0  0  3  0  0  0  0  0  0
  186.9160  178.4030  138.2160 C   0  0  0  0  0  2  0  0  0  0  0  0
  185.8040  176.5930  136.9000 C   0  0  0  0  0  1  0  0  0  0  0  0
  185.5890  177.8600  137.7060 C   0  0  0  0  0  2  0  0  0  0  0  0
  1  4  1  0  0  0  0
  1 19  1  0  0  0  0
  2 19  2  0  0  0  0
  2 13  1  0  0  0  0
  3 10  1  0  0  0  0
  4 20  1  0  0  0  0
  5  1  2  0  0  0  0
  6  8  1  0  0  0  0
  7 15  1  1  0  0  0
  7  9  1  0  0  0  0
  8 12  1  0  0  0  0
  9 22  1  0  0  0  0
  9 14  1  1  0  0  0
 10 21  2  0  0  0  0
 11  8  2  0  0  0  0
 11  5  1  0  0  0  0
 12 27  1  0  0  0  0
 12  4  2  0  0  0  0
 13 18  2  0  0  0  0
 15 23  1  0  0  0  0
 16  2  1  0  0  0  0
 17  3  1  0  0  0  0
 18 25  1  0  0  0  0
 19 26  1  0  0  0  0
 20 17  2  0  0  0  0
 22 20  1  6  0  0  0
 22 10  1  0  0  0  0
 23 14  1  0  0  0  0
 26 17  1  0  0  0  0
 26 25  2  0  0  0  0
 27 24  1  1  0  0  0
 27  7  1  0  0  0  0
 28 11  1  0  0  0  0
 29 30  1  0  0  0  0
 30 28  1  0  0  0  0
M  END
>  <MODEL>
1

>  <REMARK>
 VINA RESULT:      -9.8      0.000      0.000
  Name = 
  2 active torsions:
  status: ('A' for Active; 'I' for Inactive)
    1  A    between atoms: C_11  and  C_28
    2  A    between atoms: C_28  and  C_30
                            x       y       z     vdW  Elec       q    Type
                         _______ _______ _______ _____ _____    ______ ____

>  <TORSDO>
F 2

$$$$
=
 OpenBabel11122410263D

 30 35  0  0  1  0  0  0  0  0999 V2000
  186.2060  178.3560  142.6270 C   0  0  0  0  0  0  0  0  0  0  0  0
  187.0080  178.1590  145.0040 C   0  0  0  0  0  0  0  0  0  0  0  0
  182.2410  178.8560  143.9510 N   0  0  0  0  0  2  0  0  0  0  0  0
  185.1200  178.5210  141.7110 C   0  0  0  0  0  0  0  0  0  0  0  0
  187.5010  178.2200  142.1080 C   0  0  0  0  0  3  0  0  0  0  0  0
  186.9440  178.3510  138.4710 O   0  0  0  0  0  1  0  0  0  0  0  0
  183.1750  177.5370  139.4630 C   0  0  1  0  0  3  0  0  0  0  0  0
  186.6880  178.3630  139.8400 C   0  0  0  0  0  0  0  0  0  0  0  0
  182.1690  177.7910  140.5920 C   0  0  2  0  0  3  0  0  0  0  0  0
  181.6010  179.0320  142.6950 C   0  0  0  0  0  0  0  0  0  0  0  0
  187.7490  178.2310  140.7410 C   0  0  0  0  0  0  0  0  0  0  0  0
  185.3710  178.5010  140.3090 C   0  0  0  0  0  0  0  0  0  0  0  0
  186.7060  178.1440  146.3680 C   0  0  0  0  0  3  0  0  0  0  0  0
  180.8700  178.0250  139.9740 N   0  0  0  0  0  2  0  0  0  0  0  0
  182.3500  177.3950  138.2070 C   0  0  0  0  0  2  0  0  0  0  0  0
  188.3400  178.0000  144.6400 O   0  0  0  0  0  1  0  0  0  0  0  0
  183.6040  178.6560  143.6070 C   0  0  0  0  0  0  0  0  0  0  0  0
  185.3960  178.2960  146.8120 C   0  0  0  0  0  3  0  0  0  0  0  0
  185.9730  178.3310  144.0400 C   0  0  0  0  0  0  0  0  0  0  0  0
  183.8260  178.6800  142.2460 C   0  0  0  0  0  0  0  0  0  0  0  0
  180.3710  179.2790  142.5960 O   0  0  0  0  0  0  0  0  0  0  0  0
  182.5370  178.9480  141.5270 C   0  0  1  0  0  3  0  0  0  0  0  0
  180.9200  177.3440  138.6900 C   0  0  0  0  0  2  0  0  0  0  0  0
  183.7980  180.0140  139.0370 C   0  0  0  0  0  1  0  0  0  0  0  0
  184.3670  178.4640  145.8900 C   0  0  0  0  0  3  0  0  0  0  0  0
  184.6410  178.4810  144.5190 C   0  0  0  0  0  0  0  0  0  0  0  0
  184.2820  178.5870  139.2710 C   0  0  2  0  0  3  0  0  0  0  0  0
  189.1560  178.0670  140.2580 C   0  0  0  0  0  2  0  0  0  0  0  0
  191.1620  177.3850  141.5830 C   0  0  0  0  0  1  0  0  0  0  0  0
  189.8530  176.9190  140.9740 C   0  0  0  0  0  2  0  0  0  0  0  0
  1 19  1  0  0  0  0
  2 13  1  0  0  0  0
  4 20  1  0  0  0  0
  4  1  2  0  0  0  0
  5  1  1  0  0  0  0
  6  8  1  0  0  0  0
  7 15  1  6  0  0  0
  7  9  1  0  0  0  0
  8 12  2  0  0  0  0
  8 11  1  0  0  0  0
  9 14  1  6  0  0  0
  9 22  1  0  0  0  0
 10  3  1  0  0  0  0
 11  5  2  0  0  0  0
 12  4  1  0  0  0  0
 13 18  2  0  0  0  0
 15 23  1  0  0  0  0
 16  2  1  0  0  0  0
 17  3  1  0  0  0  0
 17 26  1  0  0  0  0
 19 26  1  0  0  0  0
 19  2  2  0  0  0  0
 20 17  2  0  0  0  0
 21 10  2  0  0  0  0
 22 20  1  1  0  0  0
 22 10  1  0  0  0  0
 23 14  1  0  0  0  0
 25 18  1  0  0  0  0
 26 25  2  0  0  0  0
 27 24  1  1  0  0  0
 27  7  1  0  0  0  0
 27 12  1  0  0  0  0
 28 11  1  0  0  0  0
 28 30  1  0  0  0  0
 30 29  1  0  0  0  0
M  END
>  <MODEL>
2

>  <REMARK>
 VINA RESULT:      -9.6      2.578      6.099
  Name = 
  2 active torsions:
  status: ('A' for Active; 'I' for Inactive)
    1  A    between atoms: C_11  and  C_28
    2  A    between atoms: C_28  and  C_30
                            x       y       z     vdW  Elec       q    Type
                         _______ _______ _______ _____ _____    ______ ____

>  <TORSDO>
F 2

$$$$
=
 OpenBabel11122410263D

 30 35  0  0  1  0  0  0  0  0999 V2000
  189.1520  177.3670  143.5360 C   0  0  0  0  0  0  0  0  0  0  0  0
  191.1490  176.3290  144.6630 C   0  0  0  0  0  0  0  0  0  0  0  0
  187.3720  178.1230  147.2760 N   0  0  0  0  0  2  0  0  0  0  0  0
  187.8670  177.9850  143.6490 C   0  0  0  0  0  0  0  0  0  0  0  0
  189.6890  177.1720  142.2570 C   0  0  0  0  0  3  0  0  0  0  0  0
  187.0480  178.4850  140.0530 O   0  0  0  0  0  1  0  0  0  0  0  0
  184.7590  178.0750  143.2840 C   0  0  1  0  0  3  0  0  0  0  0  0
  187.7350  178.1290  141.2100 C   0  0  0  0  0  0  0  0  0  0  0  0
  184.8490  178.1470  144.8140 C   0  0  2  0  0  3  0  0  0  0  0  0
  186.1890  178.7770  146.8370 C   0  0  0  0  0  0  0  0  0  0  0  0
  189.0040  177.5510  141.1080 C   0  0  0  0  0  0  0  0  0  0  0  0
  187.1530  178.3450  142.4700 C   0  0  0  0  0  0  0  0  0  0  0  0
  191.7930  175.9570  145.8450 C   0  0  0  0  0  3  0  0  0  0  0  0
  183.6260  178.7780  145.2930 N   0  0  0  0  0  2  0  0  0  0  0  0
  183.3400  178.4620  142.9420 C   0  0  0  0  0  2  0  0  0  0  0  0
  191.8010  176.0590  143.4650 O   0  0  0  0  0  1  0  0  0  0  0  0
  188.0440  177.8030  146.0670 C   0  0  0  0  0  0  0  0  0  0  0  0
  191.2040  176.1920  147.0840 C   0  0  0  0  0  3  0  0  0  0  0  0
  189.8720  176.9580  144.7060 C   0  0  0  0  0  0  0  0  0  0  0  0
  187.3500  178.1970  144.9420 C   0  0  0  0  0  0  0  0  0  0  0  0
  185.3450  179.2510  147.6420 O   0  0  0  0  0  0  0  0  0  0  0  0
  186.0810  178.8870  145.3460 C   0  0  1  0  0  3  0  0  0  0  0  0
  182.6250  178.5160  144.2710 C   0  0  0  0  0  2  0  0  0  0  0  0
  185.7490  180.4190  142.8020 C   0  0  0  0  0  1  0  0  0  0  0  0
  189.9560  176.8040  147.1530 C   0  0  0  0  0  3  0  0  0  0  0  0
  189.2890  177.1850  145.9850 C   0  0  0  0  0  0  0  0  0  0  0  0
  185.7630  178.9260  142.4900 C   0  0  2  0  0  3  0  0  0  0  0  0
  189.6320  177.2990  139.7730 C   0  0  0  0  0  2  0  0  0  0  0  0
  191.6810  176.5260  138.5690 C   0  0  0  0  0  1  0  0  0  0  0  0
  191.0850  176.8700  139.9210 C   0  0  0  0  0  2  0  0  0  0  0  0
  1  4  1  0  0  0  0
  1 19  1  0  0  0  0
  2 19  2  0  0  0  0
  2 13  1  0  0  0  0
  4 20  1  0  0  0  0
  5  1  2  0  0  0  0
  6  8  1  0  0  0  0
  7 15  1  1  0  0  0
  7  9  1  0  0  0  0
  8 12  1  0  0  0  0
  9 14  1  6  0  0  0
  9 22  1  0  0  0  0
 10  3  1  0  0  0  0
 10 21  2  0  0  0  0
 11  8  2  0  0  0  0
 11  5  1  0  0  0  0
 12 27  1  0  0  0  0
 12  4  2  0  0  0  0
 13 18  2  0  0  0  0
 15 23  1  0  0  0  0
 16  2  1  0  0  0  0
 17  3  1  0  0  0  0
 18 25  1  0  0  0  0
 19 26  1  0  0  0  0
 20 17  2  0  0  0  0
 22 20  1  6  0  0  0
 22 10  1  0  0  0  0
 23 14  1  0  0  0  0
 26 17  1  0  0  0  0
 26 25  2  0  0  0  0
 27 24  1  1  0  0  0
 27  7  1  0  0  0  0
 28 30  1  0  0  0  0
 28 11  1  0  0  0  0
 29 30  1  0  0  0  0
M  END
>  <MODEL>
3

>  <REMARK>
 VINA RESULT:      -9.5      2.123      5.599
  Name = 
  2 active torsions:
  status: ('A' for Active; 'I' for Inactive)
    1  A    between atoms: C_11  and  C_28
    2  A    between atoms: C_28  and  C_30
                            x       y       z     vdW  Elec       q    Type
                         _______ _______ _______ _____ _____    ______ ____

>  <TORSDO>
F 2

$$$$
=
 OpenBabel11122410263D

 30 35  0  0  1  0  0  0  0  0999 V2000
  187.1560  178.1660  140.5920 C   0  0  0  0  0  0  0  0  0  0  0  0
  184.8970  178.9350  139.7920 C   0  0  0  0  0  0  0  0  0  0  0  0
  185.7030  177.8310  144.5300 N   0  0  0  0  0  2  0  0  0  0  0  0
  187.9960  177.7530  141.6740 C   0  0  0  0  0  0  0  0  0  0  0  0
  187.7070  178.2290  139.3060 C   0  0  0  0  0  3  0  0  0  0  0  0
  191.2100  177.2430  139.8680 O   0  0  0  0  0  1  0  0  0  0  0  0
  190.3850  178.1170  143.6630 C   0  0  1  0  0  3  0  0  0  0  0  0
  189.8720  177.5370  140.1190 C   0  0  0  0  0  0  0  0  0  0  0  0
  189.2160  178.0900  144.6550 C   0  0  2  0  0  3  0  0  0  0  0  0
  186.8770  177.3460  145.1660 C   0  0  0  0  0  0  0  0  0  0  0  0
  189.0380  177.9130  139.0610 C   0  0  0  0  0  0  0  0  0  0  0  0
  189.3680  177.4590  141.4280 C   0  0  0  0  0  0  0  0  0  0  0  0
  183.5690  179.2520  140.0900 C   0  0  0  0  0  3  0  0  0  0  0  0
  189.7480  177.6700  145.9460 N   0  0  0  0  0  2  0  0  0  0  0  0
  191.6300  177.9340  144.4980 C   0  0  0  0  0  2  0  0  0  0  0  0
  185.3040  179.0580  138.4690 O   0  0  0  0  0  1  0  0  0  0  0  0
  186.1010  177.9990  143.1770 C   0  0  0  0  0  0  0  0  0  0  0  0
  183.0860  179.1550  141.3910 C   0  0  0  0  0  3  0  0  0  0  0  0
  185.7830  178.5070  140.8220 C   0  0  0  0  0  0  0  0  0  0  0  0
  187.4220  177.6710  142.9590 C   0  0  0  0  0  0  0  0  0  0  0  0
  186.9010  177.0350  146.3860 O   0  0  0  0  0  0  0  0  0  0  0  0
  188.0450  177.1950  144.2380 C   0  0  1  0  0  3  0  0  0  0  0  0
  191.1540  178.0390  145.9270 C   0  0  0  0  0  2  0  0  0  0  0  0
  190.2380  175.6340  142.9420 C   0  0  0  0  0  1  0  0  0  0  0  0
  183.9320  178.7410  142.4150 C   0  0  0  0  0  3  0  0  0  0  0  0
  185.2660  178.4190  142.1460 C   0  0  0  0  0  0  0  0  0  0  0  0
  190.3440  177.0940  142.5160 C   0  0  2  0  0  3  0  0  0  0  0  0
  189.5640  178.0160  137.6640 C   0  0  0  0  0  2  0  0  0  0  0  0
  188.0780  177.7400  135.6740 C   0  0  0  0  0  1  0  0  0  0  0  0
  188.5580  178.6980  136.7480 C   0  0  0  0  0  2  0  0  0  0  0  0
  1 19  2  0  0  0  0
  1  4  1  0  0  0  0
  2 13  2  0  0  0  0
  2 19  1  0  0  0  0
  3 10  1  0  0  0  0
  4 20  2  0  0  0  0
  5  1  1  0  0  0  0
  6  8  1  0  0  0  0
  7 15  1  1  0  0  0
  7  9  1  0  0  0  0
  8 12  2  0  0  0  0
  9 14  1  1  0  0  0
 10 21  2  0  0  0  0
 11  5  2  0  0  0  0
 11  8  1  0  0  0  0
 12  4  1  0  0  0  0
 12 27  1  0  0  0  0
 13 18  1  0  0  0  0
 15 23  1  0  0  0  0
 16  2  1  0  0  0  0
 17  3  1  0  0  0  0
 18 25  2  0  0  0  0
 19 26  1  0  0  0  0
 20 17  1  0  0  0  0
 22 20  1  6  0  0  0
 22  9  1  0  0  0  0
 22 10  1  0  0  0  0
 23 14  1  0  0  0  0
 26 25  1  0  0  0  0
 26 17  2  0  0  0  0
 27 24  1  1  0  0  0
 27  7  1  0  0  0  0
 28 11  1  0  0  0  0
 29 30  1  0  0  0  0
 30 28  1  0  0  0  0
M  END
>  <MODEL>
4

>  <REMARK>
 VINA RESULT:      -9.2      1.448      1.936
  Name = 
  2 active torsions:
  status: ('A' for Active; 'I' for Inactive)
    1  A    between atoms: C_11  and  C_28
    2  A    between atoms: C_28  and  C_30
                            x       y       z     vdW  Elec       q    Type
                         _______ _______ _______ _____ _____    ______ ____

>  <TORSDO>
F 2

$$$$
=
 OpenBabel11122410263D

 30 35  0  0  1  0  0  0  0  0999 V2000
  187.6400  177.7450  143.0320 C   0  0  0  0  0  0  0  0  0  0  0  0
  186.4220  177.9340  145.2260 C   0  0  0  0  0  0  0  0  0  0  0  0
  184.3090  179.3130  140.9890 N   0  0  0  0  0  2  0  0  0  0  0  0
  187.6360  177.9120  141.6110 C   0  0  0  0  0  0  0  0  0  0  0  0
  188.7960  177.2400  143.6410 C   0  0  0  0  0  3  0  0  0  0  0  0
  191.0390  176.6540  140.7800 O   0  0  0  0  0  1  0  0  0  0  0  0
  187.6720  176.8550  138.6640 C   0  0  1  0  0  3  0  0  0  0  0  0
  189.9140  177.0260  141.5120 C   0  0  0  0  0  0  0  0  0  0  0  0
  186.3070  177.5530  138.6790 C   0  0  2  0  0  3  0  0  0  0  0  0
  184.8350  179.3240  139.6690 C   0  0  0  0  0  0  0  0  0  0  0  0
  189.9220  176.8910  142.9040 C   0  0  0  0  0  0  0  0  0  0  0  0
  188.7790  177.5260  140.8530 C   0  0  0  0  0  0  0  0  0  0  0  0
  185.2630  178.2880  145.9210 C   0  0  0  0  0  3  0  0  0  0  0  0
  185.9780  177.8960  137.3010 N   0  0  0  0  0  2  0  0  0  0  0  0
  187.9830  176.6010  137.2090 C   0  0  0  0  0  2  0  0  0  0  0  0
  187.4860  177.4340  145.9670 O   0  0  0  0  0  1  0  0  0  0  0  0
  185.3670  178.7720  141.7660 C   0  0  0  0  0  0  0  0  0  0  0  0
  184.1540  178.7950  145.2500 C   0  0  0  0  0  3  0  0  0  0  0  0
  186.4870  178.0860  143.8110 C   0  0  0  0  0  0  0  0  0  0  0  0
  186.4750  178.4430  141.0140 C   0  0  0  0  0  0  0  0  0  0  0  0
  184.1880  179.7840  138.6920 O   0  0  0  0  0  0  0  0  0  0  0  0
  186.2340  178.7940  139.5760 C   0  0  1  0  0  3  0  0  0  0  0  0
  186.7090  176.9470  136.4770 C   0  0  0  0  0  2  0  0  0  0  0  0
  189.1190  178.9960  138.8270 C   0  0  0  0  0  1  0  0  0  0  0  0
  184.1920  178.9520  143.8680 C   0  0  0  0  0  3  0  0  0  0  0  0
  185.3380  178.6040  143.1470 C   0  0  0  0  0  0  0  0  0  0  0  0
  188.8350  177.5920  139.3490 C   0  0  2  0  0  3  0  0  0  0  0  0
  191.1170  176.3450  143.6200 C   0  0  0  0  0  2  0  0  0  0  0  0
  191.6870  176.4530  146.0500 C   0  0  0  0  0  1  0  0  0  0  0  0
  191.5310  177.2510  144.7700 C   0  0  0  0  0  2  0  0  0  0  0  0
  1  5  1  0  0  0  0
  1 19  1  0  0  0  0
  2 13  1  0  0  0  0
  2 16  1  0  0  0  0
  3 17  1  0  0  0  0
  4  1  2  0  0  0  0
  6  8  1  0  0  0  0
  7 15  1  6  0  0  0
  7  9  1  0  0  0  0
  7 27  1  0  0  0  0
  8 11  1  0  0  0  0
  9 14  1  6  0  0  0
  9 22  1  0  0  0  0
 10  3  1  0  0  0  0
 11 28  1  0  0  0  0
 11  5  2  0  0  0  0
 12  8  2  0  0  0  0
 12  4  1  0  0  0  0
 17 26  1  0  0  0  0
 18 13  2  0  0  0  0
 19  2  2  0  0  0  0
 20  4  1  0  0  0  0
 20 17  2  0  0  0  0
 21 10  2  0  0  0  0
 22 10  1  1  0  0  0
 22 20  1  0  0  0  0
 23 15  1  0  0  0  0
 23 14  1  0  0  0  0
 25 18  1  0  0  0  0
 26 19  1  0  0  0  0
 26 25  2  0  0  0  0
 27 24  1  1  0  0  0
 27 12  1  0  0  0  0
 28 30  1  0  0  0  0
 30 29  1  0  0  0  0
M  END
>  <MODEL>
5

>  <REMARK>
 VINA RESULT:      -9.2      2.319      5.767
  Name = 
  2 active torsions:
  status: ('A' for Active; 'I' for Inactive)
    1  A    between atoms: C_11  and  C_28
    2  A    between atoms: C_28  and  C_30
                            x       y       z     vdW  Elec       q    Type
                         _______ _______ _______ _____ _____    ______ ____

>  <TORSDO>
F 2

$$$$
=
 OpenBabel11122410263D

 30 35  0  0  1  0  0  0  0  0999 V2000
  186.3850  178.0590  144.7180 C   0  0  0  0  0  0  0  0  0  0  0  0
  183.9200  178.4370  145.0580 C   0  0  0  0  0  0  0  0  0  0  0  0
  185.9920  178.8600  140.6030 N   0  0  0  0  0  2  0  0  0  0  0  0
  187.5030  178.0000  143.8270 C   0  0  0  0  0  0  0  0  0  0  0  0
  186.6010  177.8040  146.0780 C   0  0  0  0  0  3  0  0  0  0  0  0
  190.2050  177.0610  146.2080 O   0  0  0  0  0  1  0  0  0  0  0  0
  189.7840  176.5060  142.2880 C   0  0  1  0  0  3  0  0  0  0  0  0
  188.9520  177.4000  145.7050 C   0  0  0  0  0  0  0  0  0  0  0  0
  188.9580  177.0230  141.1040 C   0  0  2  0  0  3  0  0  0  0  0  0
  187.3530  178.7300  140.2140 C   0  0  0  0  0  0  0  0  0  0  0  0
  187.8600  177.4880  146.5750 C   0  0  0  0  0  0  0  0  0  0  0  0
  188.7870  177.6450  144.3320 C   0  0  0  0  0  0  0  0  0  0  0  0
  182.6730  178.7490  144.5090 C   0  0  0  0  0  3  0  0  0  0  0  0
  189.8490  177.1020  139.9530 N   0  0  0  0  0  2  0  0  0  0  0  0
  191.1040  176.0670  141.7030 C   0  0  0  0  0  2  0  0  0  0  0  0
  183.9770  178.1960  146.4250 O   0  0  0  0  0  1  0  0  0  0  0  0
  186.0150  178.5840  141.9960 C   0  0  0  0  0  0  0  0  0  0  0  0
  182.5340  179.0020  143.1480 C   0  0  0  0  0  3  0  0  0  0  0  0
  185.0760  178.3730  144.2270 C   0  0  0  0  0  0  0  0  0  0  0  0
  187.2750  178.2820  142.4650 C   0  0  0  0  0  0  0  0  0  0  0  0
  187.7380  178.9460  139.0360 O   0  0  0  0  0  0  0  0  0  0  0  0
  188.2690  178.3700  141.3450 C   0  0  1  0  0  3  0  0  0  0  0  0
  190.9030  176.1330  140.2080 C   0  0  0  0  0  2  0  0  0  0  0  0
  190.6540  178.8100  143.0900 C   0  0  0  0  0  1  0  0  0  0  0  0
  183.6480  178.9440  142.3150 C   0  0  0  0  0  3  0  0  0  0  0  0
  184.9070  178.6330  142.8370 C   0  0  0  0  0  0  0  0  0  0  0  0
  190.0030  177.4810  143.4570 C   0  0  2  0  0  3  0  0  0  0  0  0
  188.0150  177.2130  148.0370 C   0  0  0  0  0  2  0  0  0  0  0  0
  189.8940  178.5630  148.9840 C   0  0  0  0  0  1  0  0  0  0  0  0
  188.3910  178.4770  148.7970 C   0  0  0  0  0  2  0  0  0  0  0  0
  1  5  1  0  0  0  0
  2 16  1  0  0  0  0
  3 17  1  0  0  0  0
  4 12  1  0  0  0  0
  4  1  2  0  0  0  0
  5 11  2  0  0  0  0
  7 15  1  6  0  0  0
  7 27  1  0  0  0  0
  8  6  1  0  0  0  0
  8 11  1  0  0  0  0
  9 14  1  6  0  0  0
  9 22  1  0  0  0  0
  9  7  1  0  0  0  0
 10  3  1  0  0  0  0
 11 28  1  0  0  0  0
 12  8  2  0  0  0  0
 13  2  1  0  0  0  0
 14 23  1  0  0  0  0
 17 20  2  0  0  0  0
 17 26  1  0  0  0  0
 18 13  2  0  0  0  0
 19  1  1  0  0  0  0
 19  2  2  0  0  0  0
 20  4  1  0  0  0  0
 21 10  2  0  0  0  0
 22 10  1  6  0  0  0
 22 20  1  0  0  0  0
 23 15  1  0  0  0  0
 25 26  2  0  0  0  0
 25 18  1  0  0  0  0
 26 19  1  0  0  0  0
 27 24  1  6  0  0  0
 27 12  1  0  0  0  0
 28 30  1  0  0  0  0
 30 29  1  0  0  0  0
M  END
>  <MODEL>
6

>  <REMARK>
 VINA RESULT:      -9.1      2.191      5.445
  Name = 
  2 active torsions:
  status: ('A' for Active; 'I' for Inactive)
    1  A    between atoms: C_11  and  C_28
    2  A    between atoms: C_28  and  C_30
                            x       y       z     vdW  Elec       q    Type
                         _______ _______ _______ _____ _____    ______ ____

>  <TORSDO>
F 2

$$$$
=
 OpenBabel11122410263D

 30 35  0  0  1  0  0  0  0  0999 V2000
  187.8070  177.6900  143.0120 C   0  0  0  0  0  0  0  0  0  0  0  0
  185.6320  178.2100  144.1680 C   0  0  0  0  0  0  0  0  0  0  0  0
  186.1400  178.7440  139.2920 N   0  0  0  0  0  2  0  0  0  0  0  0
  188.5580  177.6070  141.7980 C   0  0  0  0  0  0  0  0  0  0  0  0
  188.4390  177.3450  144.2130 C   0  0  0  0  0  3  0  0  0  0  0  0
  191.8110  176.3590  143.1090 O   0  0  0  0  0  1  0  0  0  0  0  0
  190.0730  176.0540  139.5400 C   0  0  1  0  0  3  0  0  0  0  0  0
  190.4930  176.8080  143.0640 C   0  0  0  0  0  0  0  0  0  0  0  0
  188.9460  176.6890  138.7160 C   0  0  2  0  0  3  0  0  0  0  0  0
  187.2800  178.5460  138.4670 C   0  0  0  0  0  0  0  0  0  0  0  0
  189.7620  176.9190  144.2510 C   0  0  0  0  0  0  0  0  0  0  0  0
  189.9040  177.1400  141.8330 C   0  0  0  0  0  0  0  0  0  0  0  0
  184.3040  178.6340  144.0780 C   0  0  0  0  0  3  0  0  0  0  0  0
  189.4090  176.7740  137.3370 N   0  0  0  0  0  2  0  0  0  0  0  0
  191.0850  175.5620  138.5340 C   0  0  0  0  0  2  0  0  0  0  0  0
  186.1190  177.8900  145.4300 O   0  0  0  0  0  1  0  0  0  0  0  0
  186.6000  178.3890  140.5880 C   0  0  0  0  0  0  0  0  0  0  0  0
  183.7430  178.9710  142.8500 C   0  0  0  0  0  3  0  0  0  0  0  0
  186.4390  178.1160  142.9970 C   0  0  0  0  0  0  0  0  0  0  0  0
  187.9170  177.9790  140.6000 C   0  0  0  0  0  0  0  0  0  0  0  0
  187.2700  178.8020  137.2350 O   0  0  0  0  0  0  0  0  0  0  0  0
  188.4860  178.0630  139.2150 C   0  0  1  0  0  3  0  0  0  0  0  0
  190.4060  175.7250  137.1950 C   0  0  0  0  0  2  0  0  0  0  0  0
  191.3420  178.2470  140.0750 C   0  0  0  0  0  1  0  0  0  0  0  0
  184.5100  178.8860  141.6910 C   0  0  0  0  0  3  0  0  0  0  0  0
  185.8410  178.4640  141.7530 C   0  0  0  0  0  0  0  0  0  0  0  0
  190.7440  176.9450  140.5980 C   0  0  2  0  0  3  0  0  0  0  0  0
  190.3700  176.5530  145.5690 C   0  0  0  0  0  2  0  0  0  0  0  0
  188.9810  176.7530  147.6370 C   0  0  0  0  0  1  0  0  0  0  0  0
  189.8930  177.4870  146.6720 C   0  0  0  0  0  2  0  0  0  0  0  0
  1  5  1  0  0  0  0
  2 16  1  0  0  0  0
  3 17  1  0  0  0  0
  4 12  1  0  0  0  0
  4  1  2  0  0  0  0
  5 11  2  0  0  0  0
  7 15  1  6  0  0  0
  7 27  1  0  0  0  0
  8  6  1  0  0  0  0
  8 11  1  0  0  0  0
  9 14  1  6  0  0  0
  9 22  1  0  0  0  0
  9  7  1  0  0  0  0
 10  3  1  0  0  0  0
 11 28  1  0  0  0  0
 12  8  2  0  0  0  0
 13  2  1  0  0  0  0
 17 20  2  0  0  0  0
 17 26  1  0  0  0  0
 18 13  2  0  0  0  0
 19  1  1  0  0  0  0
 19  2  2  0  0  0  0
 20  4  1  0  0  0  0
 21 10  2  0  0  0  0
 22 10  1  6  0  0  0
 22 20  1  0  0  0  0
 23 14  1  0  0  0  0
 23 15  1  0  0  0  0
 25 26  2  0  0  0  0
 25 18  1  0  0  0  0
 26 19  1  0  0  0  0
 27 24  1  6  0  0  0
 27 12  1  0  0  0  0
 28 30  1  0  0  0  0
 30 29  1  0  0  0  0
M  END
>  <MODEL>
7

>  <REMARK>
 VINA RESULT:      -8.0      2.826      5.705
  Name = 
  2 active torsions:
  status: ('A' for Active; 'I' for Inactive)
    1  A    between atoms: C_11  and  C_28
    2  A    between atoms: C_28  and  C_30
                            x       y       z     vdW  Elec       q    Type
                         _______ _______ _______ _____ _____    ______ ____

>  <TORSDO>
F 2

$$$$
=
 OpenBabel11122410263D

 30 35  0  0  1  0  0  0  0  0999 V2000
  184.8340  178.5420  141.3900 C   0  0  0  0  0  0  0  0  0  0  0  0
  187.3170  178.4350  140.9940 C   0  0  0  0  0  0  0  0  0  0  0  0
  184.1040  178.0280  137.2750 N   0  0  0  0  0  2  0  0  0  0  0  0
  183.5070  178.5220  140.8560 C   0  0  0  0  0  0  0  0  0  0  0  0
  184.9930  178.6930  142.7730 C   0  0  0  0  0  3  0  0  0  0  0  0
  181.5250  179.0030  143.9690 O   0  0  0  0  0  1  0  0  0  0  0  0
  180.7480  179.8250  140.1520 C   0  0  1  0  0  3  0  0  0  0  0  0
  182.6070  178.8410  143.1080 C   0  0  0  0  0  0  0  0  0  0  0  0
  181.2450  179.4760  138.7430 C   0  0  2  0  0  3  0  0  0  0  0  0
  182.6830  178.0210  137.2950 C   0  0  0  0  0  0  0  0  0  0  0  0
  183.9060  178.8320  143.6280 C   0  0  0  0  0  0  0  0  0  0  0  0
  182.3940  178.6950  141.7270 C   0  0  0  0  0  0  0  0  0  0  0  0
  188.3780  178.3020  140.0940 C   0  0  0  0  0  3  0  0  0  0  0  0
  180.0730  179.3600  137.8840 N   0  0  0  0  0  2  0  0  0  0  0  0
  179.2800  180.1390  139.9990 C   0  0  0  0  0  2  0  0  0  0  0  0
  187.6320  178.5890  142.3390 O   0  0  0  0  0  1  0  0  0  0  0  0
  184.4560  178.2200  138.6370 C   0  0  0  0  0  0  0  0  0  0  0  0
  188.1430  178.1450  138.7320 C   0  0  0  0  0  3  0  0  0  0  0  0
  185.9710  178.4120  140.5280 C   0  0  0  0  0  0  0  0  0  0  0  0
  183.3600  178.3460  139.4650 C   0  0  0  0  0  0  0  0  0  0  0  0
  181.9980  177.8290  136.2560 O   0  0  0  0  0  0  0  0  0  0  0  0
  182.1000  178.2070  138.6630 C   0  0  1  0  0  3  0  0  0  0  0  0
  179.0490  180.1830  138.5070 C   0  0  0  0  0  2  0  0  0  0  0  0
  180.3690  177.3940  140.9580 C   0  0  0  0  0  1  0  0  0  0  0  0
  186.8370  178.1210  138.2510 C   0  0  0  0  0  3  0  0  0  0  0  0
  185.7570  178.2530  139.1290 C   0  0  0  0  0  0  0  0  0  0  0  0
  180.9680  178.7660  141.2450 C   0  0  2  0  0  3  0  0  0  0  0  0
  184.1510  179.0020  145.0940 C   0  0  0  0  0  2  0  0  0  0  0  0
  185.7610  178.6290  146.9690 C   0  0  0  0  0  1  0  0  0  0  0  0
  185.5700  178.5960  145.4640 C   0  0  0  0  0  2  0  0  0  0  0  0
  1  5  2  0  0  0  0
  2 16  1  0  0  0  0
  3 10  1  0  0  0  0
  3 17  1  0  0  0  0
  4  1  1  0  0  0  0
  4 12  2  0  0  0  0
  5 11  1  0  0  0  0
  7 15  1  6  0  0  0
  7 27  1  0  0  0  0
  8 11  2  0  0  0  0
  8  6  1  0  0  0  0
  9 14  1  6  0  0  0
  9  7  1  0  0  0  0
 11 28  1  0  0  0  0
 12  8  1  0  0  0  0
 13  2  2  0  0  0  0
 14 23  1  0  0  0  0
 17 26  1  0  0  0  0
 17 20  2  0  0  0  0
 18 13  1  0  0  0  0
 19  2  1  0  0  0  0
 19  1  1  0  0  0  0
 20  4  1  0  0  0  0
 21 10  2  0  0  0  0
 22 10  1  6  0  0  0
 22  9  1  0  0  0  0
 22 20  1  0  0  0  0
 23 15  1  0  0  0  0
 25 18  2  0  0  0  0
 25 26  1  0  0  0  0
 26 19  2  0  0  0  0
 27 24  1  6  0  0  0
 27 12  1  0  0  0  0
 28 30  1  0  0  0  0
 30 29  1  0  0  0  0
M  END
>  <MODEL>
8

>  <REMARK>
 VINA RESULT:      -7.9      3.658      8.359
  Name = 
  2 active torsions:
  status: ('A' for Active; 'I' for Inactive)
    1  A    between atoms: C_11  and  C_28
    2  A    between atoms: C_28  and  C_30
                            x       y       z     vdW  Elec       q    Type
                         _______ _______ _______ _____ _____    ______ ____

>  <TORSDO>
F 2

$$$$
=
 OpenBabel11122410263D

 30 35  0  0  1  0  0  0  0  0999 V2000
  189.7430  177.3740  140.1840 C   0  0  0  0  0  0  0  0  0  0  0  0
  190.6020  177.2370  142.5460 C   0  0  0  0  0  0  0  0  0  0  0  0
  186.0350  178.8150  141.5630 N   0  0  0  0  0  2  0  0  0  0  0  0
  188.6710  177.6760  139.2880 C   0  0  0  0  0  0  0  0  0  0  0  0
  190.9550  176.9220  139.6470 C   0  0  0  0  0  3  0  0  0  0  0  0
  190.2610  176.8250  136.0320 O   0  0  0  0  0  1  0  0  0  0  0  0
  186.4590  176.9160  137.2070 C   0  0  1  0  0  3  0  0  0  0  0  0
  190.0800  177.0190  137.3990 C   0  0  0  0  0  0  0  0  0  0  0  0
  185.5820  177.4790  138.3320 C   0  0  2  0  0  3  0  0  0  0  0  0
  185.3850  179.0030  140.3130 C   0  0  0  0  0  0  0  0  0  0  0  0
  191.1340  176.7530  138.2780 C   0  0  0  0  0  0  0  0  0  0  0  0
  188.8440  177.4730  137.8880 C   0  0  0  0  0  0  0  0  0  0  0  0
  190.3710  177.4130  143.9130 C   0  0  0  0  0  3  0  0  0  0  0  0
  184.3310  177.9220  137.7300 N   0  0  0  0  0  2  0  0  0  0  0  0
  185.5610  176.8330  135.9960 C   0  0  0  0  0  2  0  0  0  0  0  0
  191.8540  176.7690  142.1630 O   0  0  0  0  0  1  0  0  0  0  0  0
  187.3090  178.3030  141.2020 C   0  0  0  0  0  0  0  0  0  0  0  0
  189.1430  177.8770  144.3750 C   0  0  0  0  0  3  0  0  0  0  0  0
  189.5790  177.5300  141.5990 C   0  0  0  0  0  0  0  0  0  0  0  0
  187.4650  178.1520  139.8400 C   0  0  0  0  0  0  0  0  0  0  0  0
  184.2280  179.4920  140.2250 O   0  0  0  0  0  0  0  0  0  0  0  0
  186.2250  178.6160  139.1340 C   0  0  1  0  0  3  0  0  0  0  0  0
  184.1770  177.1280  136.5210 C   0  0  0  0  0  2  0  0  0  0  0  0
  187.5560  179.1570  136.5140 C   0  0  0  0  0  1  0  0  0  0  0  0
  188.1270  178.1690  143.4700 C   0  0  0  0  0  3  0  0  0  0  0  0
  188.3310  178.0010  142.0980 C   0  0  0  0  0  0  0  0  0  0  0  0
  187.7470  177.6880  136.8790 C   0  0  2  0  0  3  0  0  0  0  0  0
  192.4520  176.2530  137.7750 C   0  0  0  0  0  2  0  0  0  0  0  0
  193.8450  174.1860  137.5940 C   0  0  0  0  0  1  0  0  0  0  0  0
  192.4330  174.7420  137.5940 C   0  0  0  0  0  2  0  0  0  0  0  0
  1 19  1  0  0  0  0
  2 13  1  0  0  0  0
  4 20  1  0  0  0  0
  4  1  2  0  0  0  0
  5  1  1  0  0  0  0
  6  8  1  0  0  0  0
  7 15  1  6  0  0  0
  7  9  1  0  0  0  0
  8 12  2  0  0  0  0
  8 11  1  0  0  0  0
  9 14  1  6  0  0  0
  9 22  1  0  0  0  0
 10  3  1  0  0  0  0
 11  5  2  0  0  0  0
 12  4  1  0  0  0  0
 13 18  2  0  0  0  0
 15 23  1  0  0  0  0
 16  2  1  0  0  0  0
 17  3  1  0  0  0  0
 17 26  1  0  0  0  0
 19 26  1  0  0  0  0
 19  2  2  0  0  0  0
 20 17  2  0  0  0  0
 21 10  2  0  0  0  0
 22 20  1  1  0  0  0
 22 10  1  0  0  0  0
 23 14  1  0  0  0  0
 25 18  1  0  0  0  0
 26 25  2  0  0  0  0
 27 24  1  1  0  0  0
 27  7  1  0  0  0  0
 27 12  1  0  0  0  0
 28 11  1  0  0  0  0
 30 29  1  0  0  0  0
 30 28  1  0  0  0  0
M  END
>  <MODEL>
9

>  <REMARK>
 VINA RESULT:      -7.6      3.101      6.621
  Name = 
  2 active torsions:
  status: ('A' for Active; 'I' for Inactive)
    1  A    between atoms: C_11  and  C_28
    2  A    between atoms: C_28  and  C_30
                            x       y       z     vdW  Elec       q    Type
                         _______ _______ _______ _____ _____    ______ ____

>  <TORSDO>
F 2

$$$$
