=
 OpenBabel11122412063D

 34 41  0  0  1  0  0  0  0  0999 V2000
  187.4070  178.1360  140.1600 C   0  0  0  0  0  0  0  0  0  0  0  0
  185.5250  178.9610  138.7850 N   0  0  0  0  0  2  0  0  0  0  0  0
  190.6680  177.6440  145.3930 C   0  0  2  0  0  3  0  0  0  0  0  0
  188.9980  176.9380  141.5160 C   0  0  0  0  0  0  0  0  0  0  0  0
  188.6620  176.6810  144.0140 C   0  0  1  0  0  3  0  0  0  0  0  0
  189.7580  179.0120  144.0010 C   0  0  0  0  0  2  0  0  0  0  0  0
  191.1580  178.8230  144.5660 C   0  0  0  0  0  2  0  0  0  0  0  0
  191.7060  176.1170  143.5790 C   0  0  0  0  0  2  0  0  0  0  0  0
  185.3830  179.2490  141.1710 C   0  0  2  0  0  3  0  0  0  0  0  0
  182.5320  178.2390  142.3960 C   0  0  0  0  0  2  0  0  0  0  0  0
  187.1760  176.9080  143.7140 C   0  0  0  0  0  2  0  0  0  0  0  0
  190.5340  175.4740  142.8590 C   0  0  0  0  0  2  0  0  0  0  0  0
  185.5150  178.2330  142.3280 C   0  0  1  0  0  3  0  0  0  0  0  0
  184.2020  179.5020  139.0890 C   0  0  0  0  0  2  0  0  0  0  0  0
  189.4130  176.4000  142.7860 N   0  0  0  0  0  0  0  0  0  0  0  0
  191.3920  176.3240  145.0590 C   0  0  0  0  0  2  0  0  0  0  0  0
  182.9960  178.2650  140.9280 C   0  0  1  0  0  3  0  0  0  0  0  0
  187.8050  177.6710  141.4200 C   0  0  0  0  0  0  0  0  0  0  0  0
  189.2560  177.8420  144.8370 C   0  0  2  0  0  3  0  0  0  0  0  0
  186.9970  178.0000  142.6560 C   0  0  2  0  0  3  0  0  0  0  0  0
  189.3180  177.1480  139.1780 C   0  0  0  0  0  3  0  0  0  0  0  0
  183.3230  179.1590  143.3300 C   0  0  0  0  0  2  0  0  0  0  0  0
  189.7240  176.6920  140.3910 N   0  0  0  0  0  0  0  0  0  0  0  0
  184.7550  178.6790  143.5850 C   0  0  0  0  0  2  0  0  0  0  0  0
  183.9770  179.4140  140.5950 C   0  0  1  0  0  3  0  0  0  0  0  0
  188.1650  177.8580  139.0660 N   0  0  0  0  0  0  0  0  0  0  0  0
  186.1710  178.8450  140.0240 N   0  0  0  0  0  0  0  0  0  0  0  0
  183.5290  177.0190  140.5760 O   0  0  0  0  0  0  0  0  0  0  0  0
  182.5020  176.3580  139.9000 C   0  0  0  0  0  2  0  0  0  0  0  0
  183.3150  175.9250  136.3920 O   0  0  0  0  0  0  0  0  0  0  0  0
  183.7080  174.8160  138.2870 O   0  0  0  0  0  0  0  0  0  0  0  0
  182.9780  175.9610  138.5490 C   0  0  0  0  0  0  0  0  0  0  0  0
  183.9510  174.7540  136.8900 C   0  0  0  0  0  2  0  0  0  0  0  0
  182.7330  176.6260  137.4390 C   0  0  0  0  0  3  0  0  0  0  0  0
  1 18  1  0  0  0  0
  2 14  1  0  0  0  0
  2 27  1  0  0  0  0
  3  7  1  6  0  0  0
  4 15  1  0  0  0  0
  5 11  1  6  0  0  0
  5 19  1  0  0  0  0
  6  7  1  0  0  0  0
  8 16  1  0  0  0  0
  9 27  1  6  0  0  0
  9 13  1  0  0  0  0
 10 22  1  0  0  0  0
 12  8  1  0  0  0  0
 13 20  1  0  0  0  0
 13 24  1  1  0  0  0
 15 12  1  0  0  0  0
 15  5  1  0  0  0  0
 16  3  1  0  0  0  0
 17 28  1  1  0  0  0
 17 10  1  0  0  0  0
 18  4  2  0  0  0  0
 18 20  1  0  0  0  0
 19  6  1  6  0  0  0
 19  3  1  0  0  0  0
 20 11  1  1  0  0  0
 21 23  2  0  0  0  0
 22 24  1  0  0  0  0
 23  4  1  0  0  0  0
 25 14  1  6  0  0  0
 25 17  1  0  0  0  0
 25  9  1  0  0  0  0
 26 21  1  0  0  0  0
 26  1  2  0  0  0  0
 27  1  1  0  0  0  0
 29 28  1  0  0  0  0
 30 33  1  0  0  0  0
 30 34  1  0  0  0  0
 31 32  1  0  0  0  0
 32 29  1  0  0  0  0
 33 31  1  0  0  0  0
 34 32  2  0  0  0  0
M  END
>  <MODEL>
1

>  <REMARK>
 VINA RESULT:      -8.6      0.000      0.000
  Name = 
  3 active torsions:
  status: ('A' for Active; 'I' for Inactive)
    1  A    between atoms: C_17  and  O_28
    2  A    between atoms: O_28  and  C_29
    3  A    between atoms: C_29  and  C_32
                            x       y       z     vdW  Elec       q    Type
                         _______ _______ _______ _____ _____    ______ ____

>  <TORSDO>
F 3

$$$$
=
 OpenBabel11122412063D

 34 41  0  0  1  0  0  0  0  0999 V2000
  185.6390  178.1910  137.8980 C   0  0  0  0  0  0  0  0  0  0  0  0
  187.8910  179.1330  137.5130 N   0  0  0  0  0  2  0  0  0  0  0  0
  180.7890  174.6270  136.4710 C   0  0  2  0  0  3  0  0  0  0  0  0
  183.6600  177.0000  138.5810 C   0  0  0  0  0  0  0  0  0  0  0  0
  183.1240  174.7030  137.6520 C   0  0  1  0  0  3  0  0  0  0  0  0
  182.1440  176.1370  135.7500 C   0  0  0  0  0  2  0  0  0  0  0  0
  180.6320  176.0130  135.8630 C   0  0  0  0  0  2  0  0  0  0  0  0
  180.3960  175.7420  138.7730 C   0  0  0  0  0  2  0  0  0  0  0  0
  187.2230  177.2440  136.1790 C   0  0  2  0  0  3  0  0  0  0  0  0
  189.4690  174.8780  136.1280 C   0  0  0  0  0  2  0  0  0  0  0  0
  184.6280  174.5990  137.3760 C   0  0  0  0  0  2  0  0  0  0  0  0
  181.7300  175.6790  139.4970 C   0  0  0  0  0  2  0  0  0  0  0  0
  186.6860  175.8530  136.5840 C   0  0  1  0  0  3  0  0  0  0  0  0
  189.0440  178.7250  136.7130 C   0  0  0  0  0  2  0  0  0  0  0  0
  182.8280  175.8240  138.5520 N   0  0  0  0  0  0  0  0  0  0  0  0
  180.1950  174.5130  137.8890 C   0  0  0  0  0  2  0  0  0  0  0  0
  189.5300  176.2510  136.8220 C   0  0  1  0  0  3  0  0  0  0  0  0
  184.8290  177.0510  137.8060 C   0  0  0  0  0  0  0  0  0  0  0  0
  182.3100  174.7440  136.3430 C   0  0  2  0  0  3  0  0  0  0  0  0
  185.1760  175.9300  136.8530 C   0  0  2  0  0  3  0  0  0  0  0  0
  184.1550  179.1350  139.4770 C   0  0  0  0  0  3  0  0  0  0  0  0
  188.4270  174.7750  135.0110 C   0  0  0  0  0  2  0  0  0  0  0  0
  183.3520  178.0420  139.4000 N   0  0  0  0  0  0  0  0  0  0  0  0
  186.9850  174.7820  135.5250 C   0  0  0  0  0  2  0  0  0  0  0  0
  188.7440  177.3640  136.0910 C   0  0  1  0  0  3  0  0  0  0  0  0
  185.2910  179.2030  138.7370 N   0  0  0  0  0  0  0  0  0  0  0  0
  186.8620  178.2510  137.1570 N   0  0  0  0  0  0  0  0  0  0  0  0
  189.1240  176.1280  138.1550 O   0  0  0  0  0  0  0  0  0  0  0  0
  190.2790  176.3300  138.9130 C   0  0  0  0  0  2  0  0  0  0  0  0
  189.9980  177.7720  142.2290 O   0  0  0  0  0  0  0  0  0  0  0  0
  188.7180  177.6600  140.4040 O   0  0  0  0  0  0  0  0  0  0  0  0
  189.9230  177.0200  140.1800 C   0  0  0  0  0  0  0  0  0  0  0  0
  188.7260  178.1680  141.7300 C   0  0  0  0  0  2  0  0  0  0  0  0
  190.6890  177.0720  141.2500 C   0  0  0  0  0  3  0  0  0  0  0  0
  1 26  1  0  0  0  0
  3  7  1  1  0  0  0
  3 16  1  0  0  0  0
  4 23  2  0  0  0  0
  5 11  1  6  0  0  0
  5 15  1  0  0  0  0
  6  7  1  0  0  0  0
  8 12  1  0  0  0  0
  9 13  1  0  0  0  0
  9 27  1  1  0  0  0
 10 17  1  0  0  0  0
 13 24  1  6  0  0  0
 13 20  1  0  0  0  0
 14  2  1  0  0  0  0
 15  4  1  0  0  0  0
 15 12  1  0  0  0  0
 16  8  1  0  0  0  0
 17 28  1  1  0  0  0
 18  1  2  0  0  0  0
 18  4  1  0  0  0  0
 19  6  1  1  0  0  0
 19  3  1  0  0  0  0
 19  5  1  0  0  0  0
 20 11  1  1  0  0  0
 20 18  1  0  0  0  0
 22 24  1  0  0  0  0
 22 10  1  0  0  0  0
 23 21  1  0  0  0  0
 25  9  1  0  0  0  0
 25 14  1  1  0  0  0
 25 17  1  0  0  0  0
 26 21  2  0  0  0  0
 27  2  1  0  0  0  0
 27  1  1  0  0  0  0
 28 29  1  0  0  0  0
 29 32  1  0  0  0  0
 31 33  1  0  0  0  0
 32 31  1  0  0  0  0
 32 34  2  0  0  0  0
 33 30  1  0  0  0  0
 34 30  1  0  0  0  0
M  END
>  <MODEL>
2

>  <REMARK>
 VINA RESULT:      -6.7      3.131      8.369
  Name = 
  3 active torsions:
  status: ('A' for Active; 'I' for Inactive)
    1  A    between atoms: C_17  and  O_28
    2  A    between atoms: O_28  and  C_29
    3  A    between atoms: C_29  and  C_32
                            x       y       z     vdW  Elec       q    Type
                         _______ _______ _______ _____ _____    ______ ____

>  <TORSDO>
F 3

$$$$
=
 OpenBabel11122412063D

 34 41  0  0  1  0  0  0  0  0999 V2000
  186.1890  176.2310  135.1300 C   0  0  0  0  0  0  0  0  0  0  0  0
  188.2020  177.5620  134.5940 N   0  0  0  0  0  2  0  0  0  0  0  0
  183.1470  170.9630  136.2490 C   0  0  2  0  0  3  0  0  0  0  0  0
  184.3000  175.0820  136.0860 C   0  0  0  0  0  0  0  0  0  0  0  0
  184.5840  172.8790  137.3060 C   0  0  1  0  0  3  0  0  0  0  0  0
  184.4730  171.9830  134.8940 C   0  0  0  0  0  2  0  0  0  0  0  0
  183.1270  171.2880  134.7640 C   0  0  0  0  0  2  0  0  0  0  0  0
  181.5470  172.9720  136.5700 C   0  0  0  0  0  2  0  0  0  0  0  0
  188.5150  175.2630  135.2340 C   0  0  2  0  0  3  0  0  0  0  0  0
  190.7890  174.8940  137.5440 C   0  0  0  0  0  2  0  0  0  0  0  0
  186.0320  173.3290  137.5270 C   0  0  0  0  0  2  0  0  0  0  0  0
  182.3580  174.0370  137.2870 C   0  0  0  0  0  2  0  0  0  0  0  0
  188.0340  174.4780  136.4750 C   0  0  1  0  0  3  0  0  0  0  0  0
  189.6400  177.3220  134.6970 C   0  0  0  0  0  2  0  0  0  0  0  0
  183.7470  173.9960  136.8540 N   0  0  0  0  0  0  0  0  0  0  0  0
  181.9600  171.5730  137.0230 C   0  0  0  0  0  2  0  0  0  0  0  0
  190.3280  176.1840  136.8420 C   0  0  1  0  0  3  0  0  0  0  0  0
  185.6800  175.1340  135.8360 C   0  0  0  0  0  0  0  0  0  0  0  0
  184.5090  171.6490  136.3800 C   0  0  2  0  0  3  0  0  0  0  0  0
  186.5880  174.0050  136.2700 C   0  0  2  0  0  3  0  0  0  0  0  0
  184.0170  177.1520  134.9690 C   0  0  0  0  0  3  0  0  0  0  0  0
  190.4420  173.6030  136.7970 C   0  0  0  0  0  2  0  0  0  0  0  0
  183.5020  176.0940  135.6480 N   0  0  0  0  0  0  0  0  0  0  0  0
  188.9450  173.2850  136.7980 C   0  0  0  0  0  2  0  0  0  0  0  0
  189.8580  175.9760  135.3830 C   0  0  1  0  0  3  0  0  0  0  0  0
  185.3500  177.2200  134.7200 N   0  0  0  0  0  0  0  0  0  0  0  0
  187.5980  176.3360  134.9030 N   0  0  0  0  0  0  0  0  0  0  0  0
  189.3460  176.8190  137.6110 O   0  0  0  0  0  0  0  0  0  0  0  0
  189.9450  177.0590  138.8490 C   0  0  0  0  0  2  0  0  0  0  0  0
  187.1850  178.6800  140.5550 O   0  0  0  0  0  0  0  0  0  0  0  0
  189.0580  177.6270  141.1560 O   0  0  0  0  0  0  0  0  0  0  0  0
  188.9400  177.6370  139.7780 C   0  0  0  0  0  0  0  0  0  0  0  0
  187.9320  178.2960  141.7030 C   0  0  0  0  0  2  0  0  0  0  0  0
  187.8410  178.2610  139.4060 C   0  0  0  0  0  3  0  0  0  0  0  0
  1 18  1  0  0  0  0
  2 14  1  0  0  0  0
  2 27  1  0  0  0  0
  3  7  1  6  0  0  0
  3 19  1  0  0  0  0
  3 16  1  0  0  0  0
  4 15  1  0  0  0  0
  5 11  1  6  0  0  0
  7  6  1  0  0  0  0
  8 16  1  0  0  0  0
  8 12  1  0  0  0  0
  9 27  1  1  0  0  0
  9 25  1  0  0  0  0
  9 13  1  0  0  0  0
 13 24  1  6  0  0  0
 15 12  1  0  0  0  0
 15  5  1  0  0  0  0
 17 10  1  0  0  0  0
 17 28  1  1  0  0  0
 18  4  2  0  0  0  0
 18 20  1  0  0  0  0
 19  6  1  6  0  0  0
 19  5  1  0  0  0  0
 20 13  1  0  0  0  0
 20 11  1  1  0  0  0
 21 23  2  0  0  0  0
 22 24  1  0  0  0  0
 22 10  1  0  0  0  0
 23  4  1  0  0  0  0
 25 14  1  1  0  0  0
 25 17  1  0  0  0  0
 26 21  1  0  0  0  0
 26  1  2  0  0  0  0
 27  1  1  0  0  0  0
 28 29  1  0  0  0  0
 29 32  1  0  0  0  0
 30 33  1  0  0  0  0
 31 33  1  0  0  0  0
 32 31  1  0  0  0  0
 34 32  2  0  0  0  0
 34 30  1  0  0  0  0
M  END
>  <MODEL>
3

>  <REMARK>
 VINA RESULT:      -6.4      4.101      8.846
  Name = 
  3 active torsions:
  status: ('A' for Active; 'I' for Inactive)
    1  A    between atoms: C_17  and  O_28
    2  A    between atoms: O_28  and  C_29
    3  A    between atoms: C_29  and  C_32
                            x       y       z     vdW  Elec       q    Type
                         _______ _______ _______ _____ _____    ______ ____

>  <TORSDO>
F 3

$$$$
=
 OpenBabel11122412063D

 34 41  0  0  1  0  0  0  0  0999 V2000
  186.3040  178.6280  139.5300 C   0  0  0  0  0  0  0  0  0  0  0  0
  188.5990  178.3110  138.6680 N   0  0  0  0  0  2  0  0  0  0  0  0
  180.2410  179.6940  138.9300 C   0  0  2  0  0  3  0  0  0  0  0  0
  184.0670  178.4740  140.4110 C   0  0  0  0  0  0  0  0  0  0  0  0
  182.1100  177.8610  138.9220 C   0  0  1  0  0  3  0  0  0  0  0  0
  182.2150  180.3840  138.4170 C   0  0  0  0  0  2  0  0  0  0  0  0
  181.0010  181.0010  139.0950 C   0  0  0  0  0  2  0  0  0  0  0  0
  180.7940  179.2180  141.4130 C   0  0  0  0  0  2  0  0  0  0  0  0
  186.7890  178.2600  137.0830 C   0  0  2  0  0  3  0  0  0  0  0  0
  186.9250  175.6790  135.0930 C   0  0  0  0  0  2  0  0  0  0  0  0
  183.1600  177.2020  138.0210 C   0  0  0  0  0  2  0  0  0  0  0  0
  181.7950  178.0750  141.4030 C   0  0  0  0  0  2  0  0  0  0  0  0
  185.4920  177.4200  137.0460 C   0  0  1  0  0  3  0  0  0  0  0  0
  189.1580  177.9510  137.3670 C   0  0  0  0  0  2  0  0  0  0  0  0
  182.6680  178.1750  140.2430 N   0  0  0  0  0  0  0  0  0  0  0  0
  179.7910  179.0770  140.2700 C   0  0  0  0  0  2  0  0  0  0  0  0
  187.9080  176.0940  136.2030 C   0  0  1  0  0  3  0  0  0  0  0  0
  184.9420  178.3780  139.3180 C   0  0  0  0  0  0  0  0  0  0  0  0
  181.4560  179.0760  138.2340 C   0  0  2  0  0  3  0  0  0  0  0  0
  184.4200  178.0690  137.9330 C   0  0  2  0  0  3  0  0  0  0  0  0
  185.8870  179.0260  141.8230 C   0  0  0  0  0  3  0  0  0  0  0  0
  186.0160  176.8050  134.5940 C   0  0  0  0  0  2  0  0  0  0  0  0
  184.5620  178.7930  141.6380 N   0  0  0  0  0  0  0  0  0  0  0  0
  184.9610  177.2310  135.6190 C   0  0  0  0  0  2  0  0  0  0  0  0
  188.0080  177.6220  136.4200 C   0  0  1  0  0  3  0  0  0  0  0  0
  186.7490  178.9370  140.7780 N   0  0  0  0  0  0  0  0  0  0  0  0
  187.2270  178.4900  138.4450 N   0  0  0  0  0  0  0  0  0  0  0  0
  187.5890  175.4280  137.3920 O   0  0  0  0  0  0  0  0  0  0  0  0
  188.0300  174.1150  137.2080 C   0  0  0  0  0  2  0  0  0  0  0  0
  191.5400  173.6580  136.4160 O   0  0  0  0  0  0  0  0  0  0  0  0
  190.3650  174.7610  137.9600 O   0  0  0  0  0  0  0  0  0  0  0  0
  189.5110  174.1050  137.0910 C   0  0  0  0  0  0  0  0  0  0  0  0
  191.6990  174.4970  137.5550 C   0  0  0  0  0  2  0  0  0  0  0  0
  190.1900  173.4440  136.1760 C   0  0  0  0  0  3  0  0  0  0  0  0
  1 26  1  0  0  0  0
  3  7  1  1  0  0  0
  3 16  1  0  0  0  0
  4 23  2  0  0  0  0
  5 11  1  6  0  0  0
  5 15  1  0  0  0  0
  6  7  1  0  0  0  0
  9 27  1  1  0  0  0
 10 17  1  0  0  0  0
 12  8  1  0  0  0  0
 13 24  1  6  0  0  0
 13  9  1  0  0  0  0
 13 20  1  0  0  0  0
 14  2  1  0  0  0  0
 15  4  1  0  0  0  0
 15 12  1  0  0  0  0
 16  8  1  0  0  0  0
 17 25  1  0  0  0  0
 17 28  1  1  0  0  0
 18  1  2  0  0  0  0
 18  4  1  0  0  0  0
 19  6  1  1  0  0  0
 19  5  1  0  0  0  0
 19  3  1  0  0  0  0
 20 11  1  1  0  0  0
 20 18  1  0  0  0  0
 22 10  1  0  0  0  0
 22 24  1  0  0  0  0
 23 21  1  0  0  0  0
 25  9  1  0  0  0  0
 25 14  1  1  0  0  0
 26 21  2  0  0  0  0
 27  2  1  0  0  0  0
 27  1  1  0  0  0  0
 29 28  1  0  0  0  0
 30 33  1  0  0  0  0
 32 29  1  0  0  0  0
 32 31  1  0  0  0  0
 33 31  1  0  0  0  0
 34 30  1  0  0  0  0
 34 32  2  0  0  0  0
M  END
>  <MODEL>
4

>  <REMARK>
 VINA RESULT:      -6.1      3.495      7.589
  Name = 
  3 active torsions:
  status: ('A' for Active; 'I' for Inactive)
    1  A    between atoms: C_17  and  O_28
    2  A    between atoms: O_28  and  C_29
    3  A    between atoms: C_29  and  C_32
                            x       y       z     vdW  Elec       q    Type
                         _______ _______ _______ _____ _____    ______ ____

>  <TORSDO>
F 3

$$$$
=
 OpenBabel11122412063D

 34 41  0  0  1  0  0  0  0  0999 V2000
  185.8960  178.4700  139.5420 C   0  0  0  0  0  0  0  0  0  0  0  0
  188.1670  177.9770  138.7000 N   0  0  0  0  0  2  0  0  0  0  0  0
  179.9420  180.0140  138.8930 C   0  0  2  0  0  3  0  0  0  0  0  0
  183.6460  178.4890  140.4020 C   0  0  0  0  0  0  0  0  0  0  0  0
  181.6610  178.0390  138.8920 C   0  0  1  0  0  3  0  0  0  0  0  0
  181.9690  180.5490  138.4020 C   0  0  0  0  0  2  0  0  0  0  0  0
  180.8010  181.2560  139.0720 C   0  0  0  0  0  2  0  0  0  0  0  0
  180.4330  179.4840  141.3790 C   0  0  0  0  0  2  0  0  0  0  0  0
  186.3730  178.0770  137.0980 C   0  0  2  0  0  3  0  0  0  0  0  0
  186.3250  175.5020  135.0950 C   0  0  0  0  0  2  0  0  0  0  0  0
  182.6640  177.3040  137.9970 C   0  0  0  0  0  2  0  0  0  0  0  0
  181.3400  178.2660  141.3710 C   0  0  0  0  0  2  0  0  0  0  0  0
  185.0150  177.3420  137.0450 C   0  0  1  0  0  3  0  0  0  0  0  0
  188.7090  177.5800  137.4010 C   0  0  0  0  0  2  0  0  0  0  0  0
  182.2300  178.3020  140.2190 N   0  0  0  0  0  0  0  0  0  0  0  0
  179.4320  179.4280  140.2260 C   0  0  0  0  0  2  0  0  0  0  0  0
  187.3260  175.8330  136.2160 C   0  0  1  0  0  3  0  0  0  0  0  0
  184.5210  178.3300  139.3160 C   0  0  0  0  0  0  0  0  0  0  0  0
  181.1110  179.3050  138.2050 C   0  0  2  0  0  3  0  0  0  0  0  0
  183.9890  178.0690  137.9250 C   0  0  2  0  0  3  0  0  0  0  0  0
  185.4900  178.8890  141.8340 C   0  0  0  0  0  3  0  0  0  0  0  0
  185.5120  176.6990  134.5940 C   0  0  0  0  0  2  0  0  0  0  0  0
  184.1520  178.7620  141.6350 N   0  0  0  0  0  0  0  0  0  0  0  0
  184.4840  177.2020  135.6110 C   0  0  0  0  0  2  0  0  0  0  0  0
  187.5450  177.3470  136.4420 C   0  0  1  0  0  3  0  0  0  0  0  0
  186.3520  178.7370  140.7950 N   0  0  0  0  0  0  0  0  0  0  0  0
  186.8160  178.2650  138.4650 N   0  0  0  0  0  0  0  0  0  0  0  0
  186.9450  175.1880  137.3980 O   0  0  0  0  0  0  0  0  0  0  0  0
  187.2740  173.8450  137.2080 C   0  0  0  0  0  2  0  0  0  0  0  0
  184.0000  172.2830  137.2320 O   0  0  0  0  0  0  0  0  0  0  0  0
  185.9020  172.0260  136.0940 O   0  0  0  0  0  0  0  0  0  0  0  0
  186.0290  173.0580  137.0050 C   0  0  0  0  0  0  0  0  0  0  0  0
  184.5910  171.4930  136.2080 C   0  0  0  0  0  2  0  0  0  0  0  0
  184.9160  173.2200  137.6900 C   0  0  0  0  0  3  0  0  0  0  0  0
  1 26  1  0  0  0  0
  3  7  1  1  0  0  0
  3 16  1  0  0  0  0
  4 23  2  0  0  0  0
  5 11  1  6  0  0  0
  5 15  1  0  0  0  0
  6  7  1  0  0  0  0
  9 27  1  1  0  0  0
 10 17  1  0  0  0  0
 12  8  1  0  0  0  0
 13 24  1  6  0  0  0
 13  9  1  0  0  0  0
 13 20  1  0  0  0  0
 14  2  1  0  0  0  0
 15  4  1  0  0  0  0
 15 12  1  0  0  0  0
 16  8  1  0  0  0  0
 17 25  1  0  0  0  0
 17 28  1  1  0  0  0
 18  1  2  0  0  0  0
 18  4  1  0  0  0  0
 19  6  1  1  0  0  0
 19  5  1  0  0  0  0
 19  3  1  0  0  0  0
 20 11  1  1  0  0  0
 20 18  1  0  0  0  0
 22 10  1  0  0  0  0
 22 24  1  0  0  0  0
 23 21  1  0  0  0  0
 25  9  1  0  0  0  0
 25 14  1  1  0  0  0
 26 21  2  0  0  0  0
 27  2  1  0  0  0  0
 27  1  1  0  0  0  0
 29 28  1  0  0  0  0
 30 34  1  0  0  0  0
 31 33  1  0  0  0  0
 31 32  1  0  0  0  0
 32 29  1  0  0  0  0
 32 34  2  0  0  0  0
 33 30  1  0  0  0  0
M  END
>  <MODEL>
5

>  <REMARK>
 VINA RESULT:      -6.0      3.575      7.289
  Name = 
  3 active torsions:
  status: ('A' for Active; 'I' for Inactive)
    1  A    between atoms: C_17  and  O_28
    2  A    between atoms: O_28  and  C_29
    3  A    between atoms: C_29  and  C_32
                            x       y       z     vdW  Elec       q    Type
                         _______ _______ _______ _____ _____    ______ ____

>  <TORSDO>
F 3

$$$$
=
 OpenBabel11122412063D

 34 41  0  0  1  0  0  0  0  0999 V2000
  184.7040  178.2870  139.8080 C   0  0  0  0  0  0  0  0  0  0  0  0
  182.4610  178.7540  140.7370 N   0  0  0  0  0  2  0  0  0  0  0  0
  188.6310  175.6250  135.8400 C   0  0  2  0  0  3  0  0  0  0  0  0
  186.8470  178.2530  138.7100 C   0  0  0  0  0  0  0  0  0  0  0  0
  187.0530  177.6730  136.2510 C   0  0  1  0  0  3  0  0  0  0  0  0
  187.0120  175.2860  137.2180 C   0  0  0  0  0  2  0  0  0  0  0  0
  188.4240  174.7430  137.0620 C   0  0  0  0  0  2  0  0  0  0  0  0
  189.9300  177.2360  137.3940 C   0  0  0  0  0  2  0  0  0  0  0  0
  182.5830  177.6790  138.5870 C   0  0  2  0  0  3  0  0  0  0  0  0
  180.6860  179.1080  136.3510 C   0  0  0  0  0  2  0  0  0  0  0  0
  185.5900  178.1170  136.1510 C   0  0  0  0  0  2  0  0  0  0  0  0
  189.0560  178.4700  137.5350 C   0  0  0  0  0  2  0  0  0  0  0  0
  183.3240  178.0780  137.2910 C   0  0  1  0  0  3  0  0  0  0  0  0
  181.1000  178.6470  140.2160 C   0  0  0  0  0  2  0  0  0  0  0  0
  187.6490  178.1000  137.5230 N   0  0  0  0  0  0  0  0  0  0  0  0
  189.7940  176.6260  136.0010 C   0  0  0  0  0  2  0  0  0  0  0  0
  180.8560  179.4610  137.8400 C   0  0  1  0  0  3  0  0  0  0  0  0
  185.4560  178.0820  138.6450 C   0  0  0  0  0  0  0  0  0  0  0  0
  187.2050  176.1610  135.9870 C   0  0  2  0  0  3  0  0  0  0  0  0
  184.7910  177.6310  137.3640 C   0  0  2  0  0  3  0  0  0  0  0  0
  186.6740  178.8200  141.0030 C   0  0  0  0  0  3  0  0  0  0  0  0
  181.1350  177.6930  135.9770 C   0  0  0  0  0  2  0  0  0  0  0  0
  187.4220  178.6200  139.8870 N   0  0  0  0  0  0  0  0  0  0  0  0
  182.6530  177.5030  136.0350 C   0  0  0  0  0  2  0  0  0  0  0  0
  181.1740  178.2480  138.7450 C   0  0  1  0  0  3  0  0  0  0  0  0
  185.3250  178.6600  140.9590 N   0  0  0  0  0  0  0  0  0  0  0  0
  183.2780  178.1680  139.7610 N   0  0  0  0  0  0  0  0  0  0  0  0
  181.8130  180.4720  137.9820 O   0  0  0  0  0  0  0  0  0  0  0  0
  181.1090  181.5830  138.4490 C   0  0  0  0  0  2  0  0  0  0  0  0
  181.5560  184.5680  136.4370 O   0  0  0  0  0  0  0  0  0  0  0  0
  180.5550  182.5900  136.1880 O   0  0  0  0  0  0  0  0  0  0  0  0
  181.1600  182.6630  137.4280 C   0  0  0  0  0  0  0  0  0  0  0  0
  180.7890  183.8130  135.5070 C   0  0  0  0  0  2  0  0  0  0  0  0
  181.7520  183.8280  137.5940 C   0  0  0  0  0  3  0  0  0  0  0  0
  1 26  1  0  0  0  0
  3 19  1  0  0  0  0
  3 16  1  1  0  0  0
  3  7  1  0  0  0  0
  4 23  2  0  0  0  0
  5 11  1  1  0  0  0
  5 15  1  0  0  0  0
  7  6  1  0  0  0  0
  8 12  1  0  0  0  0
  9 25  1  0  0  0  0
  9 27  1  1  0  0  0
 10 17  1  0  0  0  0
 13 24  1  6  0  0  0
 13 20  1  0  0  0  0
 13  9  1  0  0  0  0
 14  2  1  0  0  0  0
 15 12  1  0  0  0  0
 15  4  1  0  0  0  0
 16  8  1  0  0  0  0
 17 28  1  6  0  0  0
 17 25  1  0  0  0  0
 18  4  1  0  0  0  0
 18  1  2  0  0  0  0
 19  5  1  0  0  0  0
 19  6  1  1  0  0  0
 20 11  1  6  0  0  0
 20 18  1  0  0  0  0
 22 24  1  0  0  0  0
 22 10  1  0  0  0  0
 23 21  1  0  0  0  0
 25 14  1  1  0  0  0
 26 21  2  0  0  0  0
 27  1  1  0  0  0  0
 27  2  1  0  0  0  0
 28 29  1  0  0  0  0
 30 34  1  0  0  0  0
 31 32  1  0  0  0  0
 32 34  2  0  0  0  0
 32 29  1  0  0  0  0
 33 31  1  0  0  0  0
 33 30  1  0  0  0  0
M  END
>  <MODEL>
6

>  <REMARK>
 VINA RESULT:      -5.9      3.661      6.500
  Name = 
  3 active torsions:
  status: ('A' for Active; 'I' for Inactive)
    1  A    between atoms: C_17  and  O_28
    2  A    between atoms: O_28  and  C_29
    3  A    between atoms: C_29  and  C_32
                            x       y       z     vdW  Elec       q    Type
                         _______ _______ _______ _____ _____    ______ ____

>  <TORSDO>
F 3

$$$$
=
 OpenBabel11122412063D

 34 41  0  0  1  0  0  0  0  0999 V2000
  183.3050  178.4990  139.4520 C   0  0  0  0  0  0  0  0  0  0  0  0
  181.1890  179.3720  140.3840 N   0  0  0  0  0  2  0  0  0  0  0  0
  186.6650  174.7580  135.8500 C   0  0  2  0  0  3  0  0  0  0  0  0
  185.3570  178.0300  138.2790 C   0  0  0  0  0  0  0  0  0  0  0  0
  185.3390  177.0130  135.9580 C   0  0  1  0  0  3  0  0  0  0  0  0
  185.1130  174.8500  137.3400 C   0  0  0  0  0  2  0  0  0  0  0  0
  186.4480  174.1300  137.2180 C   0  0  0  0  0  2  0  0  0  0  0  0
  188.2240  176.4560  137.0270 C   0  0  0  0  0  2  0  0  0  0  0  0
  181.0570  177.9330  138.4590 C   0  0  2  0  0  3  0  0  0  0  0  0
  179.1760  179.1590  136.0920 C   0  0  0  0  0  2  0  0  0  0  0  0
  183.9260  177.5960  135.8470 C   0  0  0  0  0  2  0  0  0  0  0  0
  187.4940  177.7870  136.9840 C   0  0  0  0  0  2  0  0  0  0  0  0
  181.7480  178.0150  137.0790 C   0  0  1  0  0  3  0  0  0  0  0  0
  179.7920  179.3320  139.9540 C   0  0  0  0  0  2  0  0  0  0  0  0
  186.0580  177.5830  137.1030 N   0  0  0  0  0  0  0  0  0  0  0  0
  187.9330  175.6320  135.7740 C   0  0  0  0  0  2  0  0  0  0  0  0
  179.4790  179.7440  137.4840 C   0  0  1  0  0  3  0  0  0  0  0  0
  183.9540  178.0100  138.3100 C   0  0  0  0  0  0  0  0  0  0  0  0
  185.3150  175.4700  135.9630 C   0  0  2  0  0  3  0  0  0  0  0  0
  183.1630  177.4230  137.1630 C   0  0  2  0  0  3  0  0  0  0  0  0
  185.3940  179.0030  140.4390 C   0  0  0  0  0  3  0  0  0  0  0  0
  179.4490  177.6580  135.9590 C   0  0  0  0  0  2  0  0  0  0  0  0
  186.0430  178.5290  139.3440 N   0  0  0  0  0  0  0  0  0  0  0  0
  180.9400  177.3100  135.9800 C   0  0  0  0  0  2  0  0  0  0  0  0
  179.7280  178.6780  138.5770 C   0  0  1  0  0  3  0  0  0  0  0  0
  184.0360  178.9930  140.4860 N   0  0  0  0  0  0  0  0  0  0  0  0
  181.8750  178.5370  139.4920 N   0  0  0  0  0  0  0  0  0  0  0  0
  180.5430  180.6480  137.3970 O   0  0  0  0  0  0  0  0  0  0  0  0
  180.3780  181.2950  136.1710 C   0  0  0  0  0  2  0  0  0  0  0  0
  181.1980  184.8140  135.8540 O   0  0  0  0  0  0  0  0  0  0  0  0
  181.2550  183.2840  137.4770 O   0  0  0  0  0  0  0  0  0  0  0  0
  180.7670  182.7220  136.3120 C   0  0  0  0  0  0  0  0  0  0  0  0
  181.5470  184.6500  137.2230 C   0  0  0  0  0  2  0  0  0  0  0  0
  180.7330  183.6110  135.3410 C   0  0  0  0  0  3  0  0  0  0  0  0
  1 27  1  0  0  0  0
  1 26  1  0  0  0  0
  3 16  1  1  0  0  0
  3 19  1  0  0  0  0
  3  7  1  0  0  0  0
  4 18  1  0  0  0  0
  4 23  2  0  0  0  0
  5 11  1  1  0  0  0
  5 19  1  0  0  0  0
  5 15  1  0  0  0  0
  7  6  1  0  0  0  0
  9 25  1  0  0  0  0
  9 27  1  1  0  0  0
 10 17  1  0  0  0  0
 12  8  1  0  0  0  0
 12 15  1  0  0  0  0
 13 24  1  6  0  0  0
 13 20  1  0  0  0  0
 13  9  1  0  0  0  0
 14  2  1  0  0  0  0
 15  4  1  0  0  0  0
 16  8  1  0  0  0  0
 17 28  1  6  0  0  0
 17 25  1  0  0  0  0
 18  1  2  0  0  0  0
 19  6  1  1  0  0  0
 20 11  1  6  0  0  0
 20 18  1  0  0  0  0
 21 26  2  0  0  0  0
 22 24  1  0  0  0  0
 22 10  1  0  0  0  0
 23 21  1  0  0  0  0
 25 14  1  1  0  0  0
 27  2  1  0  0  0  0
 29 32  1  0  0  0  0
 29 28  1  0  0  0  0
 30 33  1  0  0  0  0
 32 31  1  0  0  0  0
 33 31  1  0  0  0  0
 34 30  1  0  0  0  0
 34 32  2  0  0  0  0
M  END
>  <MODEL>
7

>  <REMARK>
 VINA RESULT:      -5.9      4.343      7.267
  Name = 
  3 active torsions:
  status: ('A' for Active; 'I' for Inactive)
    1  A    between atoms: C_17  and  O_28
    2  A    between atoms: O_28  and  C_29
    3  A    between atoms: C_29  and  C_32
                            x       y       z     vdW  Elec       q    Type
                         _______ _______ _______ _____ _____    ______ ____

>  <TORSDO>
F 3

$$$$
=
 OpenBabel11122412063D

 34 41  0  0  1  0  0  0  0  0999 V2000
  189.3870  177.5590  138.9990 C   0  0  0  0  0  0  0  0  0  0  0  0
  188.3240  178.0910  136.8320 N   0  0  0  0  0  2  0  0  0  0  0  0
  190.1790  178.1850  145.1020 C   0  0  2  0  0  3  0  0  0  0  0  0
  190.1520  176.6640  141.1010 C   0  0  0  0  0  0  0  0  0  0  0  0
  188.8090  176.9750  143.2270 C   0  0  1  0  0  3  0  0  0  0  0  0
  190.0640  179.2250  143.2200 C   0  0  0  0  0  2  0  0  0  0  0  0
  191.0870  179.1410  144.3430 C   0  0  0  0  0  2  0  0  0  0  0  0
  191.6880  176.2740  144.2240 C   0  0  0  0  0  2  0  0  0  0  0  0
  187.2610  178.9050  138.8330 C   0  0  2  0  0  3  0  0  0  0  0  0
  184.0670  178.2440  138.9240 C   0  0  0  0  0  2  0  0  0  0  0  0
  187.6060  177.1560  142.2950 C   0  0  0  0  0  2  0  0  0  0  0  0
  190.8450  175.5080  143.2200 C   0  0  0  0  0  2  0  0  0  0  0  0
  186.8030  178.1690  140.1120 C   0  0  1  0  0  3  0  0  0  0  0  0
  187.0580  178.7100  136.4430 C   0  0  0  0  0  2  0  0  0  0  0  0
  189.9570  176.4140  142.5060 N   0  0  0  0  0  0  0  0  0  0  0  0
  190.8270  176.8100  145.3660 C   0  0  0  0  0  2  0  0  0  0  0  0
  185.0850  177.9350  137.8110 C   0  0  1  0  0  3  0  0  0  0  0  0
  189.1880  177.3790  140.3740 C   0  0  0  0  0  0  0  0  0  0  0  0
  189.1430  178.2790  143.9800 C   0  0  2  0  0  3  0  0  0  0  0  0
  187.9910  177.9890  141.0690 C   0  0  2  0  0  3  0  0  0  0  0  0
  191.4110  176.3430  139.1200 C   0  0  0  0  0  3  0  0  0  0  0  0
  184.5080  179.3340  139.9050 C   0  0  0  0  0  2  0  0  0  0  0  0
  191.2400  176.1610  140.4550 N   0  0  0  0  0  0  0  0  0  0  0  0
  185.6530  178.8970  140.8230 C   0  0  0  0  0  2  0  0  0  0  0  0
  186.2350  178.9630  137.7020 C   0  0  1  0  0  3  0  0  0  0  0  0
  190.4870  177.0300  138.4000 N   0  0  0  0  0  0  0  0  0  0  0  0
  188.3960  178.2420  138.2230 N   0  0  0  0  0  0  0  0  0  0  0  0
  185.5740  176.6330  137.9640 O   0  0  0  0  0  0  0  0  0  0  0  0
  184.7190  175.8270  137.2110 C   0  0  0  0  0  2  0  0  0  0  0  0
  185.3390  172.2530  137.2360 O   0  0  0  0  0  0  0  0  0  0  0  0
  186.5820  174.1060  137.1950 O   0  0  0  0  0  0  0  0  0  0  0  0
  185.2390  174.4340  137.1980 C   0  0  0  0  0  0  0  0  0  0  0  0
  186.6920  172.6910  137.2170 C   0  0  0  0  0  2  0  0  0  0  0  0
  184.4900  173.3510  137.2280 C   0  0  0  0  0  3  0  0  0  0  0  0
  1 18  1  0  0  0  0
  2 27  1  0  0  0  0
  3  7  1  6  0  0  0
  3 16  1  0  0  0  0
  4 15  1  0  0  0  0
  5 11  1  6  0  0  0
  5 19  1  0  0  0  0
  6  7  1  0  0  0  0
  8 16  1  0  0  0  0
  9 27  1  6  0  0  0
  9 13  1  0  0  0  0
 10 22  1  0  0  0  0
 12  8  1  0  0  0  0
 13 24  1  1  0  0  0
 13 20  1  0  0  0  0
 14  2  1  0  0  0  0
 15 12  1  0  0  0  0
 15  5  1  0  0  0  0
 17 28  1  1  0  0  0
 17 10  1  0  0  0  0
 18 20  1  0  0  0  0
 18  4  2  0  0  0  0
 19  6  1  6  0  0  0
 19  3  1  0  0  0  0
 20 11  1  1  0  0  0
 21 23  2  0  0  0  0
 22 24  1  0  0  0  0
 23  4  1  0  0  0  0
 25 14  1  6  0  0  0
 25 17  1  0  0  0  0
 25  9  1  0  0  0  0
 26  1  2  0  0  0  0
 26 21  1  0  0  0  0
 27  1  1  0  0  0  0
 29 28  1  0  0  0  0
 31 32  1  0  0  0  0
 31 33  1  0  0  0  0
 32 29  1  0  0  0  0
 32 34  2  0  0  0  0
 33 30  1  0  0  0  0
 34 30  1  0  0  0  0
M  END
>  <MODEL>
8

>  <REMARK>
 VINA RESULT:      -5.9      1.854      2.647
  Name = 
  3 active torsions:
  status: ('A' for Active; 'I' for Inactive)
    1  A    between atoms: C_17  and  O_28
    2  A    between atoms: O_28  and  C_29
    3  A    between atoms: C_29  and  C_32
                            x       y       z     vdW  Elec       q    Type
                         _______ _______ _______ _____ _____    ______ ____

>  <TORSDO>
F 3

$$$$
