=
 OpenBabel11122411043D

 31 35  0  0  1  0  0  0  0  0999 V2000
  190.3800  177.1250  145.8430 C   0  0  0  0  0  0  0  0  0  0  0  0
  187.6970  177.3410  143.1060 C   0  0  2  0  0  3  0  0  0  0  0  0
  186.5610  178.0590  143.8110 C   0  0  0  0  0  0  0  0  0  0  0  0
  191.2850  176.5930  139.1700 O   0  0  0  0  0  0  0  0  0  0  0  0
  190.1960  176.9840  138.6720 C   0  0  0  0  0  0  0  0  0  0  0  0
  185.1690  178.4140  145.7770 C   0  0  0  0  0  0  0  0  0  0  0  0
  189.0410  177.2840  143.8160 C   0  0  0  0  0  0  0  0  0  0  0  0
  191.5290  176.9170  145.0790 C   0  0  0  0  0  3  0  0  0  0  0  0
  186.2750  177.8200  145.1650 C   0  0  0  0  0  3  0  0  0  0  0  0
  189.0840  177.3450  140.9450 C   0  0  0  0  0  0  0  0  0  0  0  0
  190.4620  177.1490  147.1960 F   0  0  0  0  0  0  0  0  0  0  0  0
  185.8780  179.0250  141.6960 O   0  0  0  0  0  0  0  0  0  0  0  0
  184.8960  178.1690  147.2170 C   0  0  0  0  0  1  0  0  0  0  0  0
  190.1520  177.0250  141.6170 N   0  0  0  0  0  0  0  0  0  0  0  0
  187.8710  177.7700  141.6630 C   0  0  0  0  0  0  0  0  0  0  0  0
  189.0950  177.3550  139.5120 N   0  0  0  0  0  2  0  0  0  0  0  0
  189.1440  177.2910  145.2170 C   0  0  0  0  0  3  0  0  0  0  0  0
  184.3120  179.2260  145.0320 C   0  0  0  0  0  3  0  0  0  0  0  0
  190.2080  177.0560  143.0510 C   0  0  0  0  0  0  0  0  0  0  0  0
  191.4420  176.8790  143.6860 C   0  0  0  0  0  3  0  0  0  0  0  0
  186.9920  178.5120  141.0580 N   0  0  0  0  0  0  0  0  0  0  0  0
  185.6680  178.8450  143.0610 C   0  0  0  0  0  0  0  0  0  0  0  0
  184.5590  179.4370  143.6730 C   0  0  0  0  0  3  0  0  0  0  0  0
  187.2510  177.0520  136.2890 C   0  0  1  0  0  3  0  0  0  0  0  0
  189.3560  178.3470  136.7330 C   0  0  0  0  0  2  0  0  0  0  0  0
  190.0210  174.6520  137.0040 O   0  0  0  0  0  1  0  0  0  0  0  0
  185.7640  176.9950  136.5660 C   0  0  0  0  0  1  0  0  0  0  0  0
  187.8500  178.2720  136.9850 C   0  0  0  0  0  2  0  0  0  0  0  0
  189.4170  175.8220  136.5430 C   0  0  2  0  0  3  0  0  0  0  0  0
  190.0680  177.0640  137.1780 C   0  0  2  0  0  3  0  0  0  0  0  0
  187.9120  175.7750  136.7990 C   0  0  0  0  0  2  0  0  0  0  0  0
  1 11  1  0  0  0  0
  2 15  1  6  0  0  0
  2  3  1  0  0  0  0
  2  7  1  0  0  0  0
  3  9  1  0  0  0  0
  5  4  2  0  0  0  0
  5 16  1  0  0  0  0
  6 13  1  0  0  0  0
  7 17  2  0  0  0  0
  8  1  2  0  0  0  0
  9  6  2  0  0  0  0
 10 14  2  0  0  0  0
 10 15  1  0  0  0  0
 12 22  1  0  0  0  0
 14 19  1  0  0  0  0
 16 10  1  0  0  0  0
 17  1  1  0  0  0  0
 18  6  1  0  0  0  0
 19 20  2  0  0  0  0
 19  7  1  0  0  0  0
 20  8  1  0  0  0  0
 21 15  2  0  0  0  0
 21 12  1  0  0  0  0
 22 23  1  0  0  0  0
 22  3  2  0  0  0  0
 23 18  2  0  0  0  0
 24 27  1  1  0  0  0
 24 31  1  0  0  0  0
 24 28  1  0  0  0  0
 25 28  1  0  0  0  0
 25 30  1  0  0  0  0
 29 31  1  0  0  0  0
 29 26  1  1  0  0  0
 29 30  1  0  0  0  0
 30  5  1  1  0  0  0
M  END
>  <MODEL>
1

>  <REMARK>
 VINA RESULT:     -11.6      0.000      0.000
  Name = 
  1 active torsions:
  status: ('A' for Active; 'I' for Inactive)
    1  A    between atoms: C_5  and  C_30
                            x       y       z     vdW  Elec       q    Type
                         _______ _______ _______ _____ _____    ______ ____

>  <TORSDO>
F 1

$$$$
=
 OpenBabel11122411043D

 31 35  0  0  1  0  0  0  0  0999 V2000
  185.6680  178.2570  145.7730 C   0  0  0  0  0  0  0  0  0  0  0  0
  188.6910  177.9880  143.4210 C   0  0  2  0  0  3  0  0  0  0  0  0
  189.7130  177.2600  144.2770 C   0  0  0  0  0  0  0  0  0  0  0  0
  185.6730  178.7540  139.0350 O   0  0  0  0  0  0  0  0  0  0  0  0
  186.8140  178.3450  138.6900 C   0  0  0  0  0  0  0  0  0  0  0  0
  190.8240  176.9020  146.4130 C   0  0  0  0  0  0  0  0  0  0  0  0
  187.2640  178.0670  143.9450 C   0  0  0  0  0  0  0  0  0  0  0  0
  184.6360  178.4740  144.8600 C   0  0  0  0  0  3  0  0  0  0  0  0
  189.8170  177.5060  145.6550 C   0  0  0  0  0  3  0  0  0  0  0  0
  187.6060  177.9870  141.0940 C   0  0  0  0  0  0  0  0  0  0  0  0
  185.4050  178.2430  147.1020 F   0  0  0  0  0  0  0  0  0  0  0  0
  190.6600  176.2710  142.2770 O   0  0  0  0  0  0  0  0  0  0  0  0
  190.9040  177.1540  147.8750 C   0  0  0  0  0  1  0  0  0  0  0  0
  186.4620  178.3240  141.6150 N   0  0  0  0  0  0  0  0  0  0  0  0
  188.7060  177.5510  141.9710 C   0  0  0  0  0  0  0  0  0  0  0  0
  187.7880  177.9660  139.6720 N   0  0  0  0  0  2  0  0  0  0  0  0
  186.9750  178.0710  145.3190 C   0  0  0  0  0  3  0  0  0  0  0  0
  191.7620  176.0740  145.7940 C   0  0  0  0  0  3  0  0  0  0  0  0
  186.2140  178.3040  143.0290 C   0  0  0  0  0  0  0  0  0  0  0  0
  184.9080  178.5000  143.4910 C   0  0  0  0  0  3  0  0  0  0  0  0
  189.6490  176.7940  141.4930 N   0  0  0  0  0  0  0  0  0  0  0  0
  190.6870  176.4580  143.6570 C   0  0  0  0  0  0  0  0  0  0  0  0
  191.6970  175.8570  144.4160 C   0  0  0  0  0  3  0  0  0  0  0  0
  189.1910  176.2050  136.6600 C   0  0  1  0  0  3  0  0  0  0  0  0
  186.7740  176.8840  136.6450 C   0  0  0  0  0  2  0  0  0  0  0  0
  188.9480  179.8400  137.4820 O   0  0  0  0  0  1  0  0  0  0  0  0
  190.1610  175.1300  137.1000 C   0  0  0  0  0  1  0  0  0  0  0  0
  187.7750  175.8060  137.0650 C   0  0  0  0  0  2  0  0  0  0  0  0
  188.5950  178.6250  136.8910 C   0  0  2  0  0  3  0  0  0  0  0  0
  187.1400  178.2530  137.2270 C   0  0  2  0  0  3  0  0  0  0  0  0
  189.5750  177.5310  137.3100 C   0  0  0  0  0  2  0  0  0  0  0  0
  1 11  1  0  0  0  0
  2 15  1  6  0  0  0
  2  7  1  0  0  0  0
  2  3  1  0  0  0  0
  3  9  1  0  0  0  0
  5  4  2  0  0  0  0
  5 16  1  0  0  0  0
  6 13  1  0  0  0  0
  7 17  2  0  0  0  0
  8  1  2  0  0  0  0
  9  6  2  0  0  0  0
 10 14  2  0  0  0  0
 10 15  1  0  0  0  0
 12 22  1  0  0  0  0
 14 19  1  0  0  0  0
 16 10  1  0  0  0  0
 17  1  1  0  0  0  0
 18  6  1  0  0  0  0
 19 20  2  0  0  0  0
 19  7  1  0  0  0  0
 20  8  1  0  0  0  0
 21 15  2  0  0  0  0
 21 12  1  0  0  0  0
 22  3  2  0  0  0  0
 22 23  1  0  0  0  0
 23 18  2  0  0  0  0
 24 28  1  0  0  0  0
 24 27  1  1  0  0  0
 24 31  1  0  0  0  0
 25 28  1  0  0  0  0
 25 30  1  0  0  0  0
 29 30  1  0  0  0  0
 29 31  1  0  0  0  0
 29 26  1  1  0  0  0
 30  5  1  1  0  0  0
M  END
>  <MODEL>
2

>  <REMARK>
 VINA RESULT:     -11.4      1.757      4.537
  Name = 
  1 active torsions:
  status: ('A' for Active; 'I' for Inactive)
    1  A    between atoms: C_5  and  C_30
                            x       y       z     vdW  Elec       q    Type
                         _______ _______ _______ _____ _____    ______ ____

>  <TORSDO>
F 1

$$$$
=
 OpenBabel11122411043D

 31 35  0  0  1  0  0  0  0  0999 V2000
  184.5780  178.4770  144.6200 C   0  0  0  0  0  0  0  0  0  0  0  0
  188.3310  178.2150  143.8540 C   0  0  2  0  0  3  0  0  0  0  0  0
  188.8970  177.6700  145.1530 C   0  0  0  0  0  0  0  0  0  0  0  0
  187.5110  178.2590  138.5380 O   0  0  0  0  0  0  0  0  0  0  0  0
  188.6990  177.9130  138.7740 C   0  0  0  0  0  0  0  0  0  0  0  0
  188.9730  177.6330  147.5860 C   0  0  0  0  0  0  0  0  0  0  0  0
  186.8170  178.2290  143.6980 C   0  0  0  0  0  0  0  0  0  0  0  0
  184.0420  178.5090  143.3320 C   0  0  0  0  0  3  0  0  0  0  0  0
  188.3820  178.0670  146.3970 C   0  0  0  0  0  3  0  0  0  0  0  0
  188.3720  177.8780  141.3090 C   0  0  0  0  0  0  0  0  0  0  0  0
  183.7610  178.5810  145.6960 F   0  0  0  0  0  0  0  0  0  0  0  0
  190.6520  176.5580  143.9040 O   0  0  0  0  0  0  0  0  0  0  0  0
  188.4000  178.0440  148.8940 C   0  0  0  0  0  1  0  0  0  0  0  0
  187.1060  178.1710  141.2390 N   0  0  0  0  0  0  0  0  0  0  0  0
  188.9910  177.6300  142.6220 C   0  0  0  0  0  0  0  0  0  0  0  0
  189.1570  177.7220  140.1200 N   0  0  0  0  0  2  0  0  0  0  0  0
  185.9570  178.3540  144.8010 C   0  0  0  0  0  3  0  0  0  0  0  0
  190.1110  176.8250  147.5440 C   0  0  0  0  0  3  0  0  0  0  0  0
  186.2660  178.2790  142.3970 C   0  0  0  0  0  0  0  0  0  0  0  0
  184.8850  178.4140  142.2230 C   0  0  0  0  0  3  0  0  0  0  0  0
  190.0700  176.9080  142.7000 N   0  0  0  0  0  0  0  0  0  0  0  0
  190.0680  176.8910  145.1240 C   0  0  0  0  0  0  0  0  0  0  0  0
  190.6610  176.4600  146.3140 C   0  0  0  0  0  3  0  0  0  0  0  0
  188.4700  175.9450  135.5440 C   0  0  1  0  0  3  0  0  0  0  0  0
  189.0700  178.2600  136.3110 C   0  0  0  0  0  2  0  0  0  0  0  0
  190.5220  175.6960  138.6540 O   0  0  0  0  0  1  0  0  0  0  0  0
  187.3510  175.0850  134.9970 C   0  0  0  0  0  1  0  0  0  0  0  0
  187.9620  177.3700  135.7450 C   0  0  0  0  0  2  0  0  0  0  0  0
  190.0740  176.2300  137.4450 C   0  0  2  0  0  3  0  0  0  0  0  0
  189.6350  177.6950  137.6190 C   0  0  2  0  0  3  0  0  0  0  0  0
  188.9550  175.3640  136.8680 C   0  0  0  0  0  2  0  0  0  0  0  0
  1 17  1  0  0  0  0
  1 11  1  0  0  0  0
  2 15  1  6  0  0  0
  2  3  1  0  0  0  0
  3  9  1  0  0  0  0
  4  5  2  0  0  0  0
  5 16  1  0  0  0  0
  6 13  1  0  0  0  0
  7  2  1  0  0  0  0
  7 17  2  0  0  0  0
  8  1  2  0  0  0  0
  9  6  2  0  0  0  0
 10 15  1  0  0  0  0
 12 22  1  0  0  0  0
 14 10  2  0  0  0  0
 14 19  1  0  0  0  0
 15 21  2  0  0  0  0
 16 10  1  0  0  0  0
 18  6  1  0  0  0  0
 19  7  1  0  0  0  0
 20 19  2  0  0  0  0
 20  8  1  0  0  0  0
 21 12  1  0  0  0  0
 22  3  2  0  0  0  0
 22 23  1  0  0  0  0
 23 18  2  0  0  0  0
 24 27  1  1  0  0  0
 24 28  1  0  0  0  0
 24 31  1  0  0  0  0
 25 30  1  0  0  0  0
 28 25  1  0  0  0  0
 29 30  1  0  0  0  0
 29 26  1  1  0  0  0
 30  5  1  1  0  0  0
 31 29  1  0  0  0  0
M  END
>  <MODEL>
3

>  <REMARK>
 VINA RESULT:     -11.2      2.097      4.057
  Name = 
  1 active torsions:
  status: ('A' for Active; 'I' for Inactive)
    1  A    between atoms: C_5  and  C_30
                            x       y       z     vdW  Elec       q    Type
                         _______ _______ _______ _____ _____    ______ ____

>  <TORSDO>
F 1

$$$$
=
 OpenBabel11122411043D

 31 35  0  0  1  0  0  0  0  0999 V2000
  189.2080  177.9340  141.9090 C   0  0  0  0  0  0  0  0  0  0  0  0
  186.3330  177.7180  144.4440 C   0  0  2  0  0  3  0  0  0  0  0  0
  187.0460  177.9070  145.7710 C   0  0  0  0  0  0  0  0  0  0  0  0
  182.6190  178.8210  140.7120 O   0  0  0  0  0  0  0  0  0  0  0  0
  182.1010  178.9160  141.8560 C   0  0  0  0  0  0  0  0  0  0  0  0
  188.9280  177.4670  147.2500 C   0  0  0  0  0  0  0  0  0  0  0  0
  187.1290  177.9830  143.1740 C   0  0  0  0  0  0  0  0  0  0  0  0
  188.5130  178.2360  140.7380 C   0  0  0  0  0  3  0  0  0  0  0  0
  188.3230  177.3700  145.9950 C   0  0  0  0  0  3  0  0  0  0  0  0
  184.3100  178.5220  143.0820 C   0  0  0  0  0  0  0  0  0  0  0  0
  190.5520  177.7630  141.8740 F   0  0  0  0  0  0  0  0  0  0  0  0
  185.0470  178.9330  146.6810 O   0  0  0  0  0  0  0  0  0  0  0  0
  190.2920  176.9150  147.4630 C   0  0  0  0  0  1  0  0  0  0  0  0
  185.0090  178.4590  141.9860 N   0  0  0  0  0  0  0  0  0  0  0  0
  184.9860  178.4110  144.3850 C   0  0  0  0  0  0  0  0  0  0  0  0
  182.8980  178.7700  143.0400 N   0  0  0  0  0  2  0  0  0  0  0  0
  188.5190  177.7930  143.1150 C   0  0  0  0  0  3  0  0  0  0  0  0
  188.2460  178.0710  148.3080 C   0  0  0  0  0  3  0  0  0  0  0  0
  186.4320  178.2710  141.9790 C   0  0  0  0  0  0  0  0  0  0  0  0
  187.1270  178.4000  140.7720 C   0  0  0  0  0  3  0  0  0  0  0  0
  184.4300  178.9180  145.4450 N   0  0  0  0  0  0  0  0  0  0  0  0
  186.3520  178.4740  146.8540 C   0  0  0  0  0  0  0  0  0  0  0  0
  186.9560  178.5680  148.1110 C   0  0  0  0  0  3  0  0  0  0  0  0
  179.0480  177.6820  139.9820 C   0  0  1  0  0  3  0  0  0  0  0  0
  179.8380  177.9380  142.3510 C   0  0  0  0  0  2  0  0  0  0  0  0
  180.7910  180.9660  140.3290 O   0  0  0  0  0  1  0  0  0  0  0  0
  178.9330  176.7140  138.8240 C   0  0  0  0  0  1  0  0  0  0  0  0
  179.6960  176.9770  141.1700 C   0  0  0  0  0  2  0  0  0  0  0  0
  180.0280  179.8650  140.7190 C   0  0  2  0  0  3  0  0  0  0  0  0
  180.6290  179.1930  141.9670 C   0  0  2  0  0  3  0  0  0  0  0  0
  179.8870  178.8830  139.5560 C   0  0  0  0  0  2  0  0  0  0  0  0
  1 17  1  0  0  0  0
  2  7  1  6  0  0  0
  2  3  1  0  0  0  0
  3  9  2  0  0  0  0
  3 22  1  0  0  0  0
  4  5  2  0  0  0  0
  5 16  1  0  0  0  0
  6 13  1  0  0  0  0
  6 18  2  0  0  0  0
  8 20  1  0  0  0  0
  8  1  2  0  0  0  0
  9  6  1  0  0  0  0
 10 15  1  0  0  0  0
 11  1  1  0  0  0  0
 12 22  1  0  0  0  0
 14 10  2  0  0  0  0
 15  2  1  0  0  0  0
 15 21  2  0  0  0  0
 16 10  1  0  0  0  0
 17  7  2  0  0  0  0
 19 14  1  0  0  0  0
 19  7  1  0  0  0  0
 20 19  2  0  0  0  0
 21 12  1  0  0  0  0
 22 23  2  0  0  0  0
 23 18  1  0  0  0  0
 24 27  1  6  0  0  0
 24 28  1  0  0  0  0
 28 25  1  0  0  0  0
 29 26  1  6  0  0  0
 29 30  1  0  0  0  0
 30  5  1  6  0  0  0
 30 25  1  0  0  0  0
 31 24  1  0  0  0  0
 31 29  1  0  0  0  0
M  END
>  <MODEL>
4

>  <REMARK>
 VINA RESULT:     -11.2      3.811      6.717
  Name = 
  1 active torsions:
  status: ('A' for Active; 'I' for Inactive)
    1  A    between atoms: C_5  and  C_30
                            x       y       z     vdW  Elec       q    Type
                         _______ _______ _______ _____ _____    ______ ____

>  <TORSDO>
F 1

$$$$
=
 OpenBabel11122411043D

 31 35  0  0  1  0  0  0  0  0999 V2000
  188.9780  178.0320  141.5150 C   0  0  0  0  0  0  0  0  0  0  0  0
  185.7840  177.8160  143.6340 C   0  0  2  0  0  3  0  0  0  0  0  0
  186.3050  178.0340  145.0430 C   0  0  0  0  0  0  0  0  0  0  0  0
  182.6060  178.8120  139.4100 O   0  0  0  0  0  0  0  0  0  0  0  0
  181.9350  178.9180  140.4710 C   0  0  0  0  0  0  0  0  0  0  0  0
  187.9720  177.6420  146.7750 C   0  0  0  0  0  0  0  0  0  0  0  0
  186.7440  178.0720  142.4820 C   0  0  0  0  0  0  0  0  0  0  0  0
  188.4470  178.3060  140.2540 C   0  0  0  0  0  3  0  0  0  0  0  0
  187.5460  177.5180  145.4490 C   0  0  0  0  0  3  0  0  0  0  0  0
  183.9580  178.5720  141.9940 C   0  0  0  0  0  0  0  0  0  0  0  0
  190.3160  177.8780  141.6670 F   0  0  0  0  0  0  0  0  0  0  0  0
  184.1900  179.0480  145.6530 O   0  0  0  0  0  0  0  0  0  0  0  0
  189.2990  177.1120  147.1810 C   0  0  0  0  0  1  0  0  0  0  0  0
  184.8020  178.5020  141.0060 N   0  0  0  0  0  0  0  0  0  0  0  0
  184.4510  178.4900  143.3800 C   0  0  0  0  0  0  0  0  0  0  0  0
  182.5640  178.8000  141.7550 N   0  0  0  0  0  2  0  0  0  0  0  0
  188.1310  177.9000  142.6170 C   0  0  0  0  0  3  0  0  0  0  0  0
  187.1430  178.2530  147.7190 C   0  0  0  0  0  3  0  0  0  0  0  0
  186.2150  178.3330  141.1970 C   0  0  0  0  0  0  0  0  0  0  0  0
  187.0680  178.4530  140.0950 C   0  0  0  0  0  3  0  0  0  0  0  0
  183.7480  179.0050  144.3440 N   0  0  0  0  0  0  0  0  0  0  0  0
  185.4630  178.6090  146.0110 C   0  0  0  0  0  0  0  0  0  0  0  0
  185.8870  178.7300  147.3380 C   0  0  0  0  0  3  0  0  0  0  0  0
  179.1370  179.1570  143.0150 C   0  0  1  0  0  3  0  0  0  0  0  0
  180.0590  180.4740  141.0850 C   0  0  0  0  0  2  0  0  0  0  0  0
  180.0010  176.8060  140.2450 O   0  0  0  0  0  1  0  0  0  0  0  0
  179.1640  179.0030  144.5200 C   0  0  0  0  0  1  0  0  0  0  0  0
  180.0550  180.3050  142.6050 C   0  0  0  0  0  2  0  0  0  0  0  0
  179.5890  177.9980  140.8420 C   0  0  2  0  0  3  0  0  0  0  0  0
  180.4590  179.1780  140.3730 C   0  0  2  0  0  3  0  0  0  0  0  0
  179.5940  177.8550  142.3630 C   0  0  0  0  0  2  0  0  0  0  0  0
  1 11  1  0  0  0  0
  1 17  1  0  0  0  0
  2  7  1  6  0  0  0
  2  3  1  0  0  0  0
  3  9  2  0  0  0  0
  3 22  1  0  0  0  0
  4  5  2  0  0  0  0
  5 16  1  0  0  0  0
  6 13  1  0  0  0  0
  6 18  2  0  0  0  0
  7 17  2  0  0  0  0
  8  1  2  0  0  0  0
  9  6  1  0  0  0  0
 10 15  1  0  0  0  0
 12 22  1  0  0  0  0
 14 19  1  0  0  0  0
 14 10  2  0  0  0  0
 15  2  1  0  0  0  0
 15 21  2  0  0  0  0
 16 10  1  0  0  0  0
 19  7  1  0  0  0  0
 20  8  1  0  0  0  0
 20 19  2  0  0  0  0
 21 12  1  0  0  0  0
 22 23  2  0  0  0  0
 23 18  1  0  0  0  0
 24 27  1  1  0  0  0
 25 28  1  0  0  0  0
 28 24  1  0  0  0  0
 29 26  1  6  0  0  0
 29 31  1  0  0  0  0
 30  5  1  1  0  0  0
 30 29  1  0  0  0  0
 30 25  1  0  0  0  0
 31 24  1  0  0  0  0
M  END
>  <MODEL>
5

>  <REMARK>
 VINA RESULT:     -11.2      3.701      6.808
  Name = 
  1 active torsions:
  status: ('A' for Active; 'I' for Inactive)
    1  A    between atoms: C_5  and  C_30
                            x       y       z     vdW  Elec       q    Type
                         _______ _______ _______ _____ _____    ______ ____

>  <TORSDO>
F 1

$$$$
=
 OpenBabel11122411043D

 31 35  0  0  1  0  0  0  0  0999 V2000
  183.5940  178.7370  144.4880 C   0  0  0  0  0  0  0  0  0  0  0  0
  187.1730  178.4960  143.1220 C   0  0  2  0  0  3  0  0  0  0  0  0
  187.9310  177.8780  144.2840 C   0  0  0  0  0  0  0  0  0  0  0  0
  185.5230  178.8300  138.0140 O   0  0  0  0  0  0  0  0  0  0  0  0
  186.7280  178.4650  138.0390 C   0  0  0  0  0  0  0  0  0  0  0  0
  188.3910  177.7110  146.6690 C   0  0  0  0  0  0  0  0  0  0  0  0
  185.6550  178.5270  143.2100 C   0  0  0  0  0  0  0  0  0  0  0  0
  182.8610  178.8420  143.3050 C   0  0  0  0  0  3  0  0  0  0  0  0
  187.6250  178.2110  145.6130 C   0  0  0  0  0  3  0  0  0  0  0  0
  186.8060  178.2950  140.5890 C   0  0  0  0  0  0  0  0  0  0  0  0
  182.9590  178.7880  145.6850 F   0  0  0  0  0  0  0  0  0  0  0  0
  189.4490  176.8250  142.7160 O   0  0  0  0  0  0  0  0  0  0  0  0
  188.0370  178.0530  148.0710 C   0  0  0  0  0  1  0  0  0  0  0  0
  185.5490  178.5990  140.7360 N   0  0  0  0  0  0  0  0  0  0  0  0
  187.6210  177.9740  141.7720 C   0  0  0  0  0  0  0  0  0  0  0  0
  187.3900  178.1990  139.2840 N   0  0  0  0  0  2  0  0  0  0  0  0
  184.9820  178.5970  144.4410 C   0  0  0  0  0  3  0  0  0  0  0  0
  189.4960  176.8990  146.4050 C   0  0  0  0  0  3  0  0  0  0  0  0
  184.9050  178.6500  142.0180 C   0  0  0  0  0  0  0  0  0  0  0  0
  183.5150  178.8020  142.0730 C   0  0  0  0  0  3  0  0  0  0  0  0
  188.6890  177.2430  141.6400 N   0  0  0  0  0  0  0  0  0  0  0  0
  189.0700  177.0950  144.0290 C   0  0  0  0  0  0  0  0  0  0  0  0
  189.8390  176.5970  145.0860 C   0  0  0  0  0  3  0  0  0  0  0  0
  189.5500  176.2170  136.8850 C   0  0  1  0  0  3  0  0  0  0  0  0
  187.2570  176.9110  136.1350 C   0  0  0  0  0  2  0  0  0  0  0  0
  189.1520  179.8870  137.4470 O   0  0  0  0  0  1  0  0  0  0  0  0
  190.3280  175.1560  137.6330 C   0  0  0  0  0  1  0  0  0  0  0  0
  188.0700  175.8470  136.8740 C   0  0  0  0  0  2  0  0  0  0  0  0
  188.9620  178.6490  136.8300 C   0  0  2  0  0  3  0  0  0  0  0  0
  187.4650  178.3030  136.7410 C   0  0  2  0  0  3  0  0  0  0  0  0
  189.7540  177.5680  137.5630 C   0  0  0  0  0  2  0  0  0  0  0  0
  1 11  1  0  0  0  0
  2 15  1  6  0  0  0
  2  7  1  0  0  0  0
  2  3  1  0  0  0  0
  3  9  1  0  0  0  0
  4  5  2  0  0  0  0
  5 16  1  0  0  0  0
  6 13  1  0  0  0  0
  7 17  2  0  0  0  0
  8  1  2  0  0  0  0
  9  6  2  0  0  0  0
 10 14  2  0  0  0  0
 10 15  1  0  0  0  0
 12 22  1  0  0  0  0
 14 19  1  0  0  0  0
 16 10  1  0  0  0  0
 17  1  1  0  0  0  0
 18  6  1  0  0  0  0
 19 20  2  0  0  0  0
 19  7  1  0  0  0  0
 20  8  1  0  0  0  0
 21 15  2  0  0  0  0
 21 12  1  0  0  0  0
 22  3  2  0  0  0  0
 22 23  1  0  0  0  0
 23 18  2  0  0  0  0
 24 31  1  0  0  0  0
 24 27  1  1  0  0  0
 25 30  1  0  0  0  0
 25 28  1  0  0  0  0
 28 24  1  0  0  0  0
 29 26  1  1  0  0  0
 29 31  1  0  0  0  0
 30 29  1  0  0  0  0
 30  5  1  1  0  0  0
M  END
>  <MODEL>
6

>  <REMARK>
 VINA RESULT:     -10.8      2.311      4.587
  Name = 
  1 active torsions:
  status: ('A' for Active; 'I' for Inactive)
    1  A    between atoms: C_5  and  C_30
                            x       y       z     vdW  Elec       q    Type
                         _______ _______ _______ _____ _____    ______ ____

>  <TORSDO>
F 1

$$$$
=
 OpenBabel11122411043D

 31 35  0  0  1  0  0  0  0  0999 V2000
  190.6570  177.5320  144.5030 C   0  0  0  0  0  0  0  0  0  0  0  0
  187.4810  177.7070  142.3530 C   0  0  2  0  0  3  0  0  0  0  0  0
  186.4580  178.2790  143.3180 C   0  0  0  0  0  0  0  0  0  0  0  0
  190.2710  177.5270  137.7580 O   0  0  0  0  0  0  0  0  0  0  0  0
  189.0820  177.8590  137.5110 C   0  0  0  0  0  0  0  0  0  0  0  0
  185.4570  178.3830  145.5350 C   0  0  0  0  0  0  0  0  0  0  0  0
  188.9390  177.7150  142.7880 C   0  0  0  0  0  0  0  0  0  0  0  0
  191.6450  177.4720  143.5200 C   0  0  0  0  0  3  0  0  0  0  0  0
  186.4610  177.9260  144.6770 C   0  0  0  0  0  3  0  0  0  0  0  0
  188.4140  177.9720  139.9760 C   0  0  0  0  0  0  0  0  0  0  0  0
  191.0000  177.4720  145.8130 F   0  0  0  0  0  0  0  0  0  0  0  0
  185.3090  179.3250  141.4580 O   0  0  0  0  0  0  0  0  0  0  0  0
  185.4890  178.0200  146.9760 C   0  0  0  0  0  1  0  0  0  0  0  0
  189.6120  177.6980  140.4040 N   0  0  0  0  0  0  0  0  0  0  0  0
  187.3390  178.2460  140.9440 C   0  0  0  0  0  0  0  0  0  0  0  0
  188.1430  178.0800  138.5720 N   0  0  0  0  0  2  0  0  0  0  0  0
  189.3130  177.6360  144.1390 C   0  0  0  0  0  3  0  0  0  0  0  0
  184.4170  179.1700  145.0360 C   0  0  0  0  0  3  0  0  0  0  0  0
  189.9470  177.6370  141.7990 C   0  0  0  0  0  0  0  0  0  0  0  0
  191.2900  177.5220  142.1710 C   0  0  0  0  0  3  0  0  0  0  0  0
  186.3090  178.9500  140.5800 N   0  0  0  0  0  0  0  0  0  0  0  0
  185.3840  179.0370  142.8190 C   0  0  0  0  0  0  0  0  0  0  0  0
  184.3780  179.4910  143.6770 C   0  0  0  0  0  3  0  0  0  0  0  0
  186.7420  175.9510  135.2220 C   0  0  1  0  0  3  0  0  0  0  0  0
  187.1570  178.3150  135.9590 C   0  0  0  0  0  2  0  0  0  0  0  0
  190.4250  176.5560  135.3310 O   0  0  0  0  0  1  0  0  0  0  0  0
  185.9100  174.7140  135.4800 C   0  0  0  0  0  1  0  0  0  0  0  0
  186.3220  177.0550  136.1880 C   0  0  0  0  0  2  0  0  0  0  0  0
  189.0730  176.8610  135.1670 C   0  0  2  0  0  3  0  0  0  0  0  0
  188.6580  178.0280  136.0800 C   0  0  2  0  0  3  0  0  0  0  0  0
  188.2190  175.6180  135.4070 C   0  0  0  0  0  2  0  0  0  0  0  0
  1 11  1  0  0  0  0
  2 15  1  6  0  0  0
  2  7  1  0  0  0  0
  2  3  1  0  0  0  0
  3  9  1  0  0  0  0
  5  4  2  0  0  0  0
  5 16  1  0  0  0  0
  6 13  1  0  0  0  0
  7 17  2  0  0  0  0
  8  1  2  0  0  0  0
  9  6  2  0  0  0  0
 10 14  2  0  0  0  0
 10 15  1  0  0  0  0
 12 22  1  0  0  0  0
 14 19  1  0  0  0  0
 16 10  1  0  0  0  0
 17  1  1  0  0  0  0
 18  6  1  0  0  0  0
 19 20  2  0  0  0  0
 19  7  1  0  0  0  0
 20  8  1  0  0  0  0
 21 15  2  0  0  0  0
 21 12  1  0  0  0  0
 22  3  2  0  0  0  0
 22 23  1  0  0  0  0
 23 18  2  0  0  0  0
 24 31  1  0  0  0  0
 24 27  1  1  0  0  0
 24 28  1  0  0  0  0
 25 30  1  0  0  0  0
 25 28  1  0  0  0  0
 29 26  1  1  0  0  0
 29 31  1  0  0  0  0
 29 30  1  0  0  0  0
 30  5  1  1  0  0  0
M  END
>  <MODEL>
7

>  <REMARK>
 VINA RESULT:     -10.7      1.241      1.472
  Name = 
  1 active torsions:
  status: ('A' for Active; 'I' for Inactive)
    1  A    between atoms: C_5  and  C_30
                            x       y       z     vdW  Elec       q    Type
                         _______ _______ _______ _____ _____    ______ ____

>  <TORSDO>
F 1

$$$$
=
 OpenBabel11122411043D

 31 35  0  0  1  0  0  0  0  0999 V2000
  188.4440  178.2520  141.2960 C   0  0  0  0  0  0  0  0  0  0  0  0
  185.4480  177.8740  143.6650 C   0  0  2  0  0  3  0  0  0  0  0  0
  186.0760  178.0840  145.0310 C   0  0  0  0  0  0  0  0  0  0  0  0
  181.8950  178.8300  139.7420 O   0  0  0  0  0  0  0  0  0  0  0  0
  181.3110  178.8890  140.8560 C   0  0  0  0  0  0  0  0  0  0  0  0
  187.8940  177.7220  146.6100 C   0  0  0  0  0  0  0  0  0  0  0  0
  186.2980  178.1880  142.4440 C   0  0  0  0  0  0  0  0  0  0  0  0
  187.8000  178.5310  140.0900 C   0  0  0  0  0  3  0  0  0  0  0  0
  187.3640  177.6080  145.3220 C   0  0  0  0  0  3  0  0  0  0  0  0
  183.4650  178.5910  142.1990 C   0  0  0  0  0  0  0  0  0  0  0  0
  189.7950  178.1460  141.3330 F   0  0  0  0  0  0  0  0  0  0  0  0
  183.9830  179.0040  145.8370 O   0  0  0  0  0  0  0  0  0  0  0  0
  189.2690  177.2350  146.8940 C   0  0  0  0  0  1  0  0  0  0  0  0
  184.2260  178.5720  141.1430 N   0  0  0  0  0  0  0  0  0  0  0  0
  184.0740  178.5010  143.5370 C   0  0  0  0  0  0  0  0  0  0  0  0
  182.0480  178.7710  142.0810 N   0  0  0  0  0  2  0  0  0  0  0  0
  187.6970  178.0670  142.4610 C   0  0  0  0  0  3  0  0  0  0  0  0
  187.1250  178.2820  147.6330 C   0  0  0  0  0  3  0  0  0  0  0  0
  185.6550  178.4540  141.2130 C   0  0  0  0  0  0  0  0  0  0  0  0
  186.4080  178.6280  140.0480 C   0  0  0  0  0  3  0  0  0  0  0  0
  183.4360  178.9700  144.5680 N   0  0  0  0  0  0  0  0  0  0  0  0
  185.2970  178.6070  146.0780 C   0  0  0  0  0  0  0  0  0  0  0  0
  185.8260  178.7180  147.3680 C   0  0  0  0  0  3  0  0  0  0  0  0
  178.9310  181.1410  138.9520 C   0  0  1  0  0  3  0  0  0  0  0  0
  179.1670  178.7140  139.5550 C   0  0  0  0  0  2  0  0  0  0  0  0
  180.0540  180.8780  142.5040 O   0  0  0  0  0  1  0  0  0  0  0  0
  179.2030  182.1700  137.8780 C   0  0  0  0  0  1  0  0  0  0  0  0
  179.4170  179.7730  138.4800 C   0  0  0  0  0  2  0  0  0  0  0  0
  179.4000  180.5070  141.3290 C   0  0  2  0  0  3  0  0  0  0  0  0
  179.8230  179.0940  140.8870 C   0  0  2  0  0  3  0  0  0  0  0  0
  179.6500  181.5450  140.2360 C   0  0  0  0  0  2  0  0  0  0  0  0
  1 11  1  0  0  0  0
  1 17  1  0  0  0  0
  2  7  1  6  0  0  0
  2  3  1  0  0  0  0
  3  9  2  0  0  0  0
  3 22  1  0  0  0  0
  4  5  2  0  0  0  0
  5 16  1  0  0  0  0
  6 13  1  0  0  0  0
  6 18  2  0  0  0  0
  7 17  2  0  0  0  0
  8  1  2  0  0  0  0
  9  6  1  0  0  0  0
 10 15  1  0  0  0  0
 12 22  1  0  0  0  0
 14 19  1  0  0  0  0
 14 10  2  0  0  0  0
 15  2  1  0  0  0  0
 15 21  2  0  0  0  0
 16 10  1  0  0  0  0
 19  7  1  0  0  0  0
 20  8  1  0  0  0  0
 20 19  2  0  0  0  0
 21 12  1  0  0  0  0
 22 23  2  0  0  0  0
 23 18  1  0  0  0  0
 24 27  1  6  0  0  0
 24 31  1  0  0  0  0
 25 30  1  0  0  0  0
 28 24  1  0  0  0  0
 28 25  1  0  0  0  0
 29 26  1  1  0  0  0
 30  5  1  6  0  0  0
 30 29  1  0  0  0  0
 31 29  1  0  0  0  0
M  END
>  <MODEL>
8

>  <REMARK>
 VINA RESULT:     -10.7      4.233      7.064
  Name = 
  1 active torsions:
  status: ('A' for Active; 'I' for Inactive)
    1  A    between atoms: C_5  and  C_30
                            x       y       z     vdW  Elec       q    Type
                         _______ _______ _______ _____ _____    ______ ____

>  <TORSDO>
F 1

$$$$
=
 OpenBabel11122411043D

 31 35  0  0  1  0  0  0  0  0999 V2000
  190.3710  177.0400  145.8580 C   0  0  0  0  0  0  0  0  0  0  0  0
  188.0150  177.2670  142.8350 C   0  0  2  0  0  3  0  0  0  0  0  0
  186.8270  178.0270  143.3970 C   0  0  0  0  0  0  0  0  0  0  0  0
  191.9970  176.3520  139.3370 O   0  0  0  0  0  0  0  0  0  0  0  0
  190.9810  176.7600  138.7140 C   0  0  0  0  0  0  0  0  0  0  0  0
  185.2350  178.4540  145.1890 C   0  0  0  0  0  0  0  0  0  0  0  0
  189.2710  177.1910  143.6920 C   0  0  0  0  0  0  0  0  0  0  0  0
  191.5920  176.7890  145.2300 C   0  0  0  0  0  3  0  0  0  0  0  0
  186.3870  177.8220  144.7140 C   0  0  0  0  0  3  0  0  0  0  0  0
  189.6330  177.1930  140.8430 C   0  0  0  0  0  0  0  0  0  0  0  0
  190.3030  177.0900  147.2100 F   0  0  0  0  0  0  0  0  0  0  0  0
  186.4090  178.9670  141.2020 O   0  0  0  0  0  0  0  0  0  0  0  0
  184.7980  178.2450  146.5940 C   0  0  0  0  0  1  0  0  0  0  0  0
  190.6110  176.8620  141.6350 N   0  0  0  0  0  0  0  0  0  0  0  0
  188.3600  177.6630  141.4140 C   0  0  0  0  0  0  0  0  0  0  0  0
  189.8030  177.1750  139.4200 N   0  0  0  0  0  2  0  0  0  0  0  0
  189.2170  177.2240  145.0950 C   0  0  0  0  0  3  0  0  0  0  0  0
  184.4890  179.2730  144.3390 C   0  0  0  0  0  3  0  0  0  0  0  0
  190.5090  176.9200  143.0660 C   0  0  0  0  0  0  0  0  0  0  0  0
  191.6590  176.7260  143.8370 C   0  0  0  0  0  3  0  0  0  0  0  0
  187.5730  178.4140  140.7020 N   0  0  0  0  0  0  0  0  0  0  0  0
  186.0450  178.8190  142.5390 C   0  0  0  0  0  0  0  0  0  0  0  0
  184.8900  179.4500  143.0130 C   0  0  0  0  0  3  0  0  0  0  0  0
  191.0900  174.1240  135.9950 C   0  0  1  0  0  3  0  0  0  0  0  0
  189.7750  176.1800  136.5860 C   0  0  0  0  0  2  0  0  0  0  0  0
  193.4400  176.7510  137.2280 O   0  0  0  0  0  1  0  0  0  0  0  0
  191.1170  172.6140  136.0930 C   0  0  0  0  0  1  0  0  0  0  0  0
  189.8220  174.6530  136.6580 C   0  0  0  0  0  2  0  0  0  0  0  0
  192.3070  176.2250  136.6060 C   0  0  2  0  0  3  0  0  0  0  0  0
  191.0220  176.8140  137.2140 C   0  0  2  0  0  3  0  0  0  0  0  0
  192.3260  174.6990  136.6800 C   0  0  0  0  0  2  0  0  0  0  0  0
  1 11  1  0  0  0  0
  2 15  1  6  0  0  0
  2  3  1  0  0  0  0
  2  7  1  0  0  0  0
  3  9  1  0  0  0  0
  5  4  2  0  0  0  0
  5 16  1  0  0  0  0
  6 13  1  0  0  0  0
  7 17  1  0  0  0  0
  8  1  1  0  0  0  0
  9  6  2  0  0  0  0
 10 15  1  0  0  0  0
 10 14  2  0  0  0  0
 12 22  1  0  0  0  0
 14 19  1  0  0  0  0
 16 10  1  0  0  0  0
 17  1  2  0  0  0  0
 18  6  1  0  0  0  0
 19  7  2  0  0  0  0
 19 20  1  0  0  0  0
 20  8  2  0  0  0  0
 21 12  1  0  0  0  0
 21 15  2  0  0  0  0
 22 23  1  0  0  0  0
 22  3  2  0  0  0  0
 23 18  2  0  0  0  0
 24 27  1  1  0  0  0
 24 28  1  0  0  0  0
 24 31  1  0  0  0  0
 25 28  1  0  0  0  0
 25 30  1  0  0  0  0
 29 31  1  0  0  0  0
 29 30  1  0  0  0  0
 29 26  1  1  0  0  0
 30  5  1  1  0  0  0
M  END
>  <MODEL>
9

>  <REMARK>
 VINA RESULT:     -10.7      1.404      2.175
  Name = 
  1 active torsions:
  status: ('A' for Active; 'I' for Inactive)
    1  A    between atoms: C_5  and  C_30
                            x       y       z     vdW  Elec       q    Type
                         _______ _______ _______ _____ _____    ______ ____

>  <TORSDO>
F 1

$$$$
