=
 OpenBabel11122410323D

 30 35  0  0  1  0  0  0  0  0999 V2000
  187.4580  177.5620  142.1650 C   0  0  0  0  0  0  0  0  0  0  0  0
  186.1850  178.5690  140.2710 C   0  0  0  0  0  0  0  0  0  0  0  0
  184.3020  178.4030  144.9190 C   0  0  0  0  0  2  0  0  0  0  0  0
  187.5060  177.1890  143.5310 C   0  0  0  0  0  0  0  0  0  0  0  0
  188.6010  177.3070  141.3370 N   0  0  0  0  0  2  0  0  0  0  0  0
  190.5550  175.2160  143.2730 O   0  0  0  0  0  0  0  0  0  0  0  0
  188.7910  178.2640  145.9420 C   0  0  1  0  0  3  0  0  0  0  0  0
  189.7680  176.1330  143.0950 C   0  0  0  0  0  0  0  0  0  0  0  0
  187.3780  178.2550  146.5320 C   0  0  2  0  0  3  0  0  0  0  0  0
  184.8810  177.6960  146.1480 C   0  0  2  0  0  3  0  0  0  0  0  0
  189.9170  177.0070  141.8910 C   0  0  2  0  0  3  0  0  0  0  0  0
  188.6700  176.3870  144.0940 C   0  0  1  0  0  3  0  0  0  0  0  0
  185.0260  179.2000  139.8100 C   0  0  0  0  0  3  0  0  0  0  0  0
  187.5650  177.8950  147.9890 C   0  0  0  0  0  2  0  0  0  0  0  0
  189.6840  178.7180  147.0880 C   0  0  0  0  0  2  0  0  0  0  0  0
  187.2010  178.3220  139.3560 O   0  0  0  0  0  1  0  0  0  0  0  0
  185.3070  178.1410  143.8580 C   0  0  0  0  0  0  0  0  0  0  0  0
  183.9700  179.4750  140.6760 C   0  0  0  0  0  3  0  0  0  0  0  0
  186.2990  178.1980  141.6360 C   0  0  0  0  0  0  0  0  0  0  0  0
  186.4210  177.5170  144.3540 C   0  0  0  0  0  0  0  0  0  0  0  0
  184.7440  178.5040  147.2790 O   0  0  0  0  0  1  0  0  0  0  0  0
  186.3530  177.3320  145.8300 C   0  0  1  0  0  3  0  0  0  0  0  0
  188.9090  178.4800  148.3770 C   0  0  0  0  0  2  0  0  0  0  0  0
  189.9350  176.1790  146.0720 O   0  0  0  0  0  0  0  0  0  0  0  0
  184.0620  179.1210  142.0200 C   0  0  0  0  0  3  0  0  0  0  0  0
  185.2100  178.4860  142.5080 C   0  0  0  0  0  0  0  0  0  0  0  0
  189.2100  176.9070  145.4070 C   0  0  0  0  0  0  0  0  0  0  0  0
  190.6310  178.2940  142.2790 C   0  0  0  0  0  2  0  0  0  0  0  0
  191.9210  179.0750  144.2390 C   0  0  0  0  0  1  0  0  0  0  0  0
  191.8070  177.9910  143.1880 C   0  0  0  0  0  2  0  0  0  0  0  0
  1  4  1  0  0  0  0
  2 19  1  0  0  0  0
  3 10  1  0  0  0  0
  4 12  1  0  0  0  0
  4 20  2  0  0  0  0
  5 11  1  0  0  0  0
  5  1  1  0  0  0  0
  7  9  1  0  0  0  0
  7 15  1  1  0  0  0
  8  6  2  0  0  0  0
  9 14  1  1  0  0  0
 10 21  1  1  0  0  0
 11 28  1  1  0  0  0
 11  8  1  0  0  0  0
 12  8  1  6  0  0  0
 12 27  1  0  0  0  0
 13  2  2  0  0  0  0
 13 18  1  0  0  0  0
 14 23  1  0  0  0  0
 15 23  1  0  0  0  0
 16  2  1  0  0  0  0
 17 20  1  0  0  0  0
 17  3  1  0  0  0  0
 18 25  2  0  0  0  0
 19  1  2  0  0  0  0
 19 26  1  0  0  0  0
 22 20  1  6  0  0  0
 22 10  1  0  0  0  0
 22  9  1  0  0  0  0
 25 26  1  0  0  0  0
 26 17  2  0  0  0  0
 27  7  1  0  0  0  0
 27 24  2  0  0  0  0
 28 30  1  0  0  0  0
 30 29  1  0  0  0  0
M  END
>  <MODEL>
1

>  <REMARK>
 VINA RESULT:      -8.4      0.000      0.000
  Name = 
  2 active torsions:
  status: ('A' for Active; 'I' for Inactive)
    1  A    between atoms: C_11  and  C_28
    2  A    between atoms: C_28  and  C_30
                            x       y       z     vdW  Elec       q    Type
                         _______ _______ _______ _____ _____    ______ ____

>  <TORSDO>
F 2

$$$$
=
 OpenBabel11122410323D

 30 35  0  0  1  0  0  0  0  0999 V2000
  188.1300  178.0700  140.8820 C   0  0  0  0  0  0  0  0  0  0  0  0
  188.7240  177.6100  143.2600 C   0  0  0  0  0  0  0  0  0  0  0  0
  184.0040  178.5800  141.8620 C   0  0  0  0  0  2  0  0  0  0  0  0
  187.1470  178.4180  139.9240 C   0  0  0  0  0  0  0  0  0  0  0  0
  189.4770  177.8420  140.4410 N   0  0  0  0  0  2  0  0  0  0  0  0
  189.4810  179.0340  137.1980 O   0  0  0  0  0  0  0  0  0  0  0  0
  185.6340  176.9660  137.8680 C   0  0  1  0  0  3  0  0  0  0  0  0
  188.9770  178.4950  138.1710 C   0  0  0  0  0  0  0  0  0  0  0  0
  184.3990  177.5390  138.5690 C   0  0  2  0  0  3  0  0  0  0  0  0
  183.4990  179.0250  140.4860 C   0  0  2  0  0  3  0  0  0  0  0  0
  189.8140  177.6120  139.0400 C   0  0  2  0  0  3  0  0  0  0  0  0
  187.5170  178.7090  138.4770 C   0  0  1  0  0  3  0  0  0  0  0  0
  188.3160  177.4760  144.5910 C   0  0  0  0  0  3  0  0  0  0  0  0
  183.4130  177.8220  137.4570 C   0  0  0  0  0  2  0  0  0  0  0  0
  185.0810  176.2190  136.6630 C   0  0  0  0  0  2  0  0  0  0  0  0
  190.0700  177.4240  142.9690 O   0  0  0  0  0  1  0  0  0  0  0  0
  185.4640  178.4090  141.6610 C   0  0  0  0  0  0  0  0  0  0  0  0
  186.9810  177.6510  144.9500 C   0  0  0  0  0  3  0  0  0  0  0  0
  187.7770  177.9300  142.2540 C   0  0  0  0  0  0  0  0  0  0  0  0
  185.8180  178.5550  140.3450 C   0  0  0  0  0  0  0  0  0  0  0  0
  182.3160  178.3550  140.1670 O   0  0  0  0  0  1  0  0  0  0  0  0
  184.6380  178.7770  139.4650 C   0  0  1  0  0  3  0  0  0  0  0  0
  183.6820  176.7630  136.4040 C   0  0  0  0  0  2  0  0  0  0  0  0
  186.6560  178.4380  136.2990 O   0  0  0  0  0  0  0  0  0  0  0  0
  186.0350  177.9640  143.9770 C   0  0  0  0  0  3  0  0  0  0  0  0
  186.4160  178.1070  142.6380 C   0  0  0  0  0  0  0  0  0  0  0  0
  186.6230  178.0410  137.4560 C   0  0  0  0  0  0  0  0  0  0  0  0
  189.5710  176.1550  138.6730 C   0  0  0  0  0  2  0  0  0  0  0  0
  191.9960  176.3810  138.2410 C   0  0  0  0  0  1  0  0  0  0  0  0
  190.7440  175.6080  137.8820 C   0  0  0  0  0  2  0  0  0  0  0  0
  1 19  1  0  0  0  0
  2 13  1  0  0  0  0
  4 20  1  0  0  0  0
  4  1  2  0  0  0  0
  5  1  1  0  0  0  0
  6  8  2  0  0  0  0
  7 15  1  6  0  0  0
  7  9  1  0  0  0  0
  8 12  1  0  0  0  0
  8 11  1  0  0  0  0
  9 14  1  6  0  0  0
  9 22  1  0  0  0  0
 10 21  1  6  0  0  0
 10  3  1  0  0  0  0
 11 28  1  6  0  0  0
 11  5  1  0  0  0  0
 12 27  1  6  0  0  0
 12  4  1  0  0  0  0
 13 18  2  0  0  0  0
 16  2  1  0  0  0  0
 17  3  1  0  0  0  0
 17 26  1  0  0  0  0
 19 26  1  0  0  0  0
 19  2  2  0  0  0  0
 20 17  2  0  0  0  0
 22 20  1  1  0  0  0
 22 10  1  0  0  0  0
 23 15  1  0  0  0  0
 23 14  1  0  0  0  0
 24 27  2  0  0  0  0
 25 18  1  0  0  0  0
 26 25  2  0  0  0  0
 27  7  1  0  0  0  0
 30 29  1  0  0  0  0
 30 28  1  0  0  0  0
M  END
>  <MODEL>
2

>  <REMARK>
 VINA RESULT:      -7.8      2.623      6.594
  Name = 
  2 active torsions:
  status: ('A' for Active; 'I' for Inactive)
    1  A    between atoms: C_11  and  C_28
    2  A    between atoms: C_28  and  C_30
                            x       y       z     vdW  Elec       q    Type
                         _______ _______ _______ _____ _____    ______ ____

>  <TORSDO>
F 2

$$$$
=
 OpenBabel11122410323D

 30 35  0  0  1  0  0  0  0  0999 V2000
  187.9270  177.7840  140.7160 C   0  0  0  0  0  0  0  0  0  0  0  0
  189.8270  176.8960  142.0650 C   0  0  0  0  0  0  0  0  0  0  0  0
  185.5630  178.4350  144.2140 C   0  0  0  0  0  2  0  0  0  0  0  0
  186.6320  178.3570  140.6760 C   0  0  0  0  0  0  0  0  0  0  0  0
  188.6100  177.5310  139.4800 N   0  0  0  0  0  2  0  0  0  0  0  0
  186.7180  179.2350  137.1440 O   0  0  0  0  0  0  0  0  0  0  0  0
  183.9380  177.3810  140.0350 C   0  0  1  0  0  3  0  0  0  0  0  0
  186.8810  178.5840  138.1640 C   0  0  0  0  0  0  0  0  0  0  0  0
  183.5630  177.9220  141.4180 C   0  0  2  0  0  3  0  0  0  0  0  0
  184.3720  179.1360  143.5540 C   0  0  2  0  0  3  0  0  0  0  0  0
  187.9200  177.5090  138.1940 C   0  0  2  0  0  3  0  0  0  0  0  0
  186.0230  178.8530  139.3730 C   0  0  1  0  0  3  0  0  0  0  0  0
  190.3590  176.5760  143.3170 C   0  0  0  0  0  3  0  0  0  0  0  0
  182.1560  178.4570  141.2600 C   0  0  0  0  0  2  0  0  0  0  0  0
  182.6250  176.8850  139.4460 C   0  0  0  0  0  2  0  0  0  0  0  0
  190.6140  176.6590  140.9430 O   0  0  0  0  0  1  0  0  0  0  0  0
  186.4950  178.1900  143.0850 C   0  0  0  0  0  0  0  0  0  0  0  0
  189.6230  176.7900  144.4810 C   0  0  0  0  0  3  0  0  0  0  0  0
  188.5240  177.4470  141.9630 C   0  0  0  0  0  0  0  0  0  0  0  0
  185.9350  178.5230  141.8800 C   0  0  0  0  0  0  0  0  0  0  0  0
  183.1730  178.6180  144.0480 O   0  0  0  0  0  1  0  0  0  0  0  0
  184.5230  178.9750  142.0200 C   0  0  1  0  0  3  0  0  0  0  0  0
  181.5040  177.5680  140.2180 C   0  0  0  0  0  2  0  0  0  0  0  0
  183.9320  179.0090  138.2970 O   0  0  0  0  0  0  0  0  0  0  0  0
  188.3410  177.3290  144.4040 C   0  0  0  0  0  3  0  0  0  0  0  0
  187.7860  177.6600  143.1630 C   0  0  0  0  0  0  0  0  0  0  0  0
  184.5880  178.4310  139.1530 C   0  0  0  0  0  0  0  0  0  0  0  0
  187.2620  176.1550  137.9730 C   0  0  0  0  0  2  0  0  0  0  0  0
  185.1460  175.5640  136.8380 C   0  0  0  0  0  1  0  0  0  0  0  0
  186.5340  176.1330  136.6420 C   0  0  0  0  0  2  0  0  0  0  0  0
  1 19  1  0  0  0  0
  2 13  1  0  0  0  0
  4  1  2  0  0  0  0
  4 20  1  0  0  0  0
  5  1  1  0  0  0  0
  6  8  2  0  0  0  0
  7 15  1  6  0  0  0
  7  9  1  0  0  0  0
  8 11  1  0  0  0  0
  9 14  1  6  0  0  0
  9 22  1  0  0  0  0
 10 21  1  1  0  0  0
 10  3  1  0  0  0  0
 11 28  1  1  0  0  0
 11  5  1  0  0  0  0
 12  8  1  6  0  0  0
 12  4  1  0  0  0  0
 13 18  2  0  0  0  0
 15 23  1  0  0  0  0
 16  2  1  0  0  0  0
 17 26  1  0  0  0  0
 17  3  1  0  0  0  0
 19  2  2  0  0  0  0
 19 26  1  0  0  0  0
 20 17  2  0  0  0  0
 22 20  1  1  0  0  0
 22 10  1  0  0  0  0
 23 14  1  0  0  0  0
 24 27  2  0  0  0  0
 25 18  1  0  0  0  0
 26 25  2  0  0  0  0
 27 12  1  0  0  0  0
 27  7  1  0  0  0  0
 30 29  1  0  0  0  0
 30 28  1  0  0  0  0
M  END
>  <MODEL>
3

>  <REMARK>
 VINA RESULT:      -7.7      2.268      6.341
  Name = 
  2 active torsions:
  status: ('A' for Active; 'I' for Inactive)
    1  A    between atoms: C_11  and  C_28
    2  A    between atoms: C_28  and  C_30
                            x       y       z     vdW  Elec       q    Type
                         _______ _______ _______ _____ _____    ______ ____

>  <TORSDO>
F 2

$$$$
=
 OpenBabel11122410323D

 30 35  0  0  1  0  0  0  0  0999 V2000
  188.8530  177.7720  140.0570 C   0  0  0  0  0  0  0  0  0  0  0  0
  189.8330  177.3030  142.3030 C   0  0  0  0  0  0  0  0  0  0  0  0
  185.0260  178.6280  141.7500 C   0  0  0  0  0  2  0  0  0  0  0  0
  187.7410  178.1830  139.2820 C   0  0  0  0  0  0  0  0  0  0  0  0
  190.0760  177.4300  139.3880 N   0  0  0  0  0  2  0  0  0  0  0  0
  189.5800  178.5660  136.1630 O   0  0  0  0  0  0  0  0  0  0  0  0
  185.7730  176.8260  137.5780 C   0  0  1  0  0  3  0  0  0  0  0  0
  189.2220  178.0850  137.2270 C   0  0  0  0  0  0  0  0  0  0  0  0
  184.7340  177.5070  138.4730 C   0  0  2  0  0  3  0  0  0  0  0  0
  184.3140  179.0910  140.4750 C   0  0  2  0  0  3  0  0  0  0  0  0
  190.1330  177.1510  137.9570 C   0  0  2  0  0  3  0  0  0  0  0  0
  187.8620  178.4200  137.7850 C   0  0  1  0  0  3  0  0  0  0  0  0
  189.6660  177.2230  143.6880 C   0  0  0  0  0  3  0  0  0  0  0  0
  183.5860  177.8510  137.5480 C   0  0  0  0  0  2  0  0  0  0  0  0
  184.9540  176.1060  136.5150 C   0  0  0  0  0  2  0  0  0  0  0  0
  191.0860  177.0040  141.7790 O   0  0  0  0  0  1  0  0  0  0  0  0
  186.4080  178.3370  141.2940 C   0  0  0  0  0  0  0  0  0  0  0  0
  188.4360  177.5110  144.2770 C   0  0  0  0  0  3  0  0  0  0  0  0
  188.7460  177.6830  141.4740 C   0  0  0  0  0  0  0  0  0  0  0  0
  186.5260  178.4330  139.9320 C   0  0  0  0  0  0  0  0  0  0  0  0
  183.0450  178.5120  140.3950 O   0  0  0  0  0  1  0  0  0  0  0  0
  185.2250  178.7360  139.2740 C   0  0  1  0  0  3  0  0  0  0  0  0
  183.5780  176.7570  136.4970 C   0  0  0  0  0  2  0  0  0  0  0  0
  186.6010  178.1860  135.8070 O   0  0  0  0  0  0  0  0  0  0  0  0
  187.3550  177.8840  143.4820 C   0  0  0  0  0  3  0  0  0  0  0  0
  187.4960  177.9740  142.0920 C   0  0  0  0  0  0  0  0  0  0  0  0
  186.7490  177.8110  136.9620 C   0  0  0  0  0  0  0  0  0  0  0  0
  189.7170  175.7130  137.6840 C   0  0  0  0  0  2  0  0  0  0  0  0
  190.1100  175.0600  135.3310 C   0  0  0  0  0  1  0  0  0  0  0  0
  190.6940  175.0540  136.7280 C   0  0  0  0  0  2  0  0  0  0  0  0
  1 19  1  0  0  0  0
  2 13  1  0  0  0  0
  4 20  1  0  0  0  0
  4  1  2  0  0  0  0
  5  1  1  0  0  0  0
  6  8  2  0  0  0  0
  7 15  1  6  0  0  0
  7  9  1  0  0  0  0
  8 12  1  0  0  0  0
  8 11  1  0  0  0  0
  9 14  1  6  0  0  0
  9 22  1  0  0  0  0
 10 21  1  6  0  0  0
 10  3  1  0  0  0  0
 11 28  1  1  0  0  0
 11  5  1  0  0  0  0
 12 27  1  6  0  0  0
 12  4  1  0  0  0  0
 13 18  2  0  0  0  0
 16  2  1  0  0  0  0
 17  3  1  0  0  0  0
 17 26  1  0  0  0  0
 19 26  1  0  0  0  0
 19  2  2  0  0  0  0
 20 17  2  0  0  0  0
 22 20  1  1  0  0  0
 22 10  1  0  0  0  0
 23 15  1  0  0  0  0
 23 14  1  0  0  0  0
 24 27  2  0  0  0  0
 25 18  1  0  0  0  0
 26 25  2  0  0  0  0
 27  7  1  0  0  0  0
 29 30  1  0  0  0  0
 30 28  1  0  0  0  0
M  END
>  <MODEL>
4

>  <REMARK>
 VINA RESULT:      -7.1      3.117      7.019
  Name = 
  2 active torsions:
  status: ('A' for Active; 'I' for Inactive)
    1  A    between atoms: C_11  and  C_28
    2  A    between atoms: C_28  and  C_30
                            x       y       z     vdW  Elec       q    Type
                         _______ _______ _______ _____ _____    ______ ____

>  <TORSDO>
F 2

$$$$
=
 OpenBabel11122410323D

 30 35  0  0  1  0  0  0  0  0999 V2000
  186.6690  177.7980  141.5530 C   0  0  0  0  0  0  0  0  0  0  0  0
  184.3220  178.6230  141.3760 C   0  0  0  0  0  0  0  0  0  0  0  0
  186.5130  177.8410  145.8210 C   0  0  0  0  0  2  0  0  0  0  0  0
  187.7450  177.3720  142.3680 C   0  0  0  0  0  0  0  0  0  0  0  0
  186.8460  177.8220  140.1290 N   0  0  0  0  0  2  0  0  0  0  0  0
  189.7850  176.0710  139.6480 O   0  0  0  0  0  0  0  0  0  0  0  0
  190.2770  178.5600  143.2660 C   0  0  1  0  0  3  0  0  0  0  0  0
  189.0380  176.8190  140.2590 C   0  0  0  0  0  0  0  0  0  0  0  0
  189.7700  178.2350  144.6740 C   0  0  2  0  0  3  0  0  0  0  0  0
  187.8760  177.2030  146.1030 C   0  0  2  0  0  3  0  0  0  0  0  0
  188.1630  177.7660  139.5030 C   0  0  2  0  0  3  0  0  0  0  0  0
  189.0170  176.7940  141.7660 C   0  0  1  0  0  3  0  0  0  0  0  0
  183.1450  179.0300  142.0120 C   0  0  0  0  0  3  0  0  0  0  0  0
  191.0060  177.8450  145.4550 C   0  0  0  0  0  2  0  0  0  0  0  0
  191.6730  179.1250  143.4800 C   0  0  0  0  0  2  0  0  0  0  0  0
  184.3480  178.6330  139.9860 O   0  0  0  0  0  1  0  0  0  0  0  0
  186.4260  177.8430  144.3400 C   0  0  0  0  0  0  0  0  0  0  0  0
  183.0530  179.0410  143.4020 C   0  0  0  0  0  3  0  0  0  0  0  0
  185.4420  178.2130  142.1430 C   0  0  0  0  0  0  0  0  0  0  0  0
  187.5970  177.4320  143.7600 C   0  0  0  0  0  0  0  0  0  0  0  0
  188.5390  177.9080  147.1110 O   0  0  0  0  0  1  0  0  0  0  0  0
  188.6600  177.1610  144.7680 C   0  0  1  0  0  3  0  0  0  0  0  0
  192.1320  178.6700  144.8590 C   0  0  0  0  0  2  0  0  0  0  0  0
  191.3420  176.7450  142.1520 O   0  0  0  0  0  0  0  0  0  0  0  0
  184.1410  178.6440  144.1750 C   0  0  0  0  0  3  0  0  0  0  0  0
  185.3300  178.2300  143.5640 C   0  0  0  0  0  0  0  0  0  0  0  0
  190.2960  177.3450  142.3570 C   0  0  0  0  0  0  0  0  0  0  0  0
  188.7980  179.1490  139.4880 C   0  0  0  0  0  2  0  0  0  0  0  0
  188.5640  178.7510  137.0580 C   0  0  0  0  0  1  0  0  0  0  0  0
  189.3900  179.4430  138.1230 C   0  0  0  0  0  2  0  0  0  0  0  0
  1 19  2  0  0  0  0
  1  4  1  0  0  0  0
  2 13  2  0  0  0  0
  2 19  1  0  0  0  0
  3 10  1  0  0  0  0
  4 20  2  0  0  0  0
  5  1  1  0  0  0  0
  6  8  2  0  0  0  0
  7 15  1  1  0  0  0
  7  9  1  0  0  0  0
  9 22  1  0  0  0  0
  9 14  1  1  0  0  0
 10 21  1  1  0  0  0
 11 28  1  1  0  0  0
 11  5  1  0  0  0  0
 11  8  1  0  0  0  0
 12  8  1  6  0  0  0
 12 27  1  0  0  0  0
 12  4  1  0  0  0  0
 13 18  1  0  0  0  0
 15 23  1  0  0  0  0
 16  2  1  0  0  0  0
 17  3  1  0  0  0  0
 18 25  2  0  0  0  0
 19 26  1  0  0  0  0
 20 17  1  0  0  0  0
 22 20  1  6  0  0  0
 22 10  1  0  0  0  0
 23 14  1  0  0  0  0
 24 27  2  0  0  0  0
 26 25  1  0  0  0  0
 26 17  2  0  0  0  0
 27  7  1  0  0  0  0
 29 30  1  0  0  0  0
 30 28  1  0  0  0  0
M  END
>  <MODEL>
5

>  <REMARK>
 VINA RESULT:      -7.0      1.848      3.349
  Name = 
  2 active torsions:
  status: ('A' for Active; 'I' for Inactive)
    1  A    between atoms: C_11  and  C_28
    2  A    between atoms: C_28  and  C_30
                            x       y       z     vdW  Elec       q    Type
                         _______ _______ _______ _____ _____    ______ ____

>  <TORSDO>
F 2

$$$$
=
 OpenBabel11122410323D

 30 35  0  0  1  0  0  0  0  0999 V2000
  188.0410  178.0510  141.9440 C   0  0  0  0  0  0  0  0  0  0  0  0
  185.9890  178.2520  143.3460 C   0  0  0  0  0  0  0  0  0  0  0  0
  185.8020  178.5660  138.3430 C   0  0  0  0  0  2  0  0  0  0  0  0
  188.6400  178.0860  140.6610 C   0  0  0  0  0  0  0  0  0  0  0  0
  188.8680  177.7930  143.0870 N   0  0  0  0  0  2  0  0  0  0  0  0
  192.0800  178.1100  141.8540 O   0  0  0  0  0  0  0  0  0  0  0  0
  189.6500  176.0730  138.7760 C   0  0  1  0  0  3  0  0  0  0  0  0
  190.8980  177.8120  141.7800 C   0  0  0  0  0  0  0  0  0  0  0  0
  188.7020  176.7370  137.7740 C   0  0  2  0  0  3  0  0  0  0  0  0
  186.9710  178.6140  137.3550 C   0  0  2  0  0  3  0  0  0  0  0  0
  190.2090  177.2300  142.9730 C   0  0  2  0  0  3  0  0  0  0  0  0
  190.1500  178.0150  140.4880 C   0  0  1  0  0  3  0  0  0  0  0  0
  184.6060  178.4420  143.4240 C   0  0  0  0  0  3  0  0  0  0  0  0
  189.4260  176.6690  136.4470 C   0  0  0  0  0  2  0  0  0  0  0  0
  190.3830  175.0110  137.9690 C   0  0  0  0  0  2  0  0  0  0  0  0
  186.6890  178.0720  144.5340 O   0  0  0  0  0  1  0  0  0  0  0  0
  186.4640  178.4310  139.6640 C   0  0  0  0  0  0  0  0  0  0  0  0
  183.8460  178.6290  142.2710 C   0  0  0  0  0  3  0  0  0  0  0  0
  186.6380  178.2500  142.0860 C   0  0  0  0  0  0  0  0  0  0  0  0
  187.8170  178.2530  139.5400 C   0  0  0  0  0  0  0  0  0  0  0  0
  186.6930  177.8190  136.2400 O   0  0  0  0  0  1  0  0  0  0  0  0
  188.2470  178.1750  138.1160 C   0  0  1  0  0  3  0  0  0  0  0  0
  190.2430  175.3920  136.5010 C   0  0  0  0  0  2  0  0  0  0  0  0
  191.7630  177.1470  139.0050 O   0  0  0  0  0  0  0  0  0  0  0  0
  184.4630  178.6280  141.0230 C   0  0  0  0  0  3  0  0  0  0  0  0
  185.8470  178.4430  140.9170 C   0  0  0  0  0  0  0  0  0  0  0  0
  190.6130  177.0590  139.4120 C   0  0  0  0  0  0  0  0  0  0  0  0
  190.1330  175.7160  142.8320 C   0  0  0  0  0  2  0  0  0  0  0  0
  191.6800  175.9580  144.7460 C   0  0  0  0  0  1  0  0  0  0  0  0
  191.2620  175.0580  143.6030 C   0  0  0  0  0  2  0  0  0  0  0  0
  1 19  1  0  0  0  0
  1  5  1  0  0  0  0
  2 13  1  0  0  0  0
  2 16  1  0  0  0  0
  3 17  1  0  0  0  0
  4  1  2  0  0  0  0
  7 15  1  6  0  0  0
  7 27  1  0  0  0  0
  8  6  2  0  0  0  0
  8 11  1  0  0  0  0
  9 14  1  6  0  0  0
  9 22  1  0  0  0  0
  9  7  1  0  0  0  0
 10 21  1  6  0  0  0
 10 22  1  0  0  0  0
 10  3  1  0  0  0  0
 11 28  1  6  0  0  0
 11  5  1  0  0  0  0
 12 27  1  6  0  0  0
 12  4  1  0  0  0  0
 12  8  1  0  0  0  0
 14 23  1  0  0  0  0
 17 26  1  0  0  0  0
 18 13  2  0  0  0  0
 19  2  2  0  0  0  0
 20 17  2  0  0  0  0
 20  4  1  0  0  0  0
 22 20  1  1  0  0  0
 23 15  1  0  0  0  0
 24 27  2  0  0  0  0
 25 18  1  0  0  0  0
 26 25  2  0  0  0  0
 26 19  1  0  0  0  0
 28 30  1  0  0  0  0
 30 29  1  0  0  0  0
M  END
>  <MODEL>
6

>  <REMARK>
 VINA RESULT:      -6.9      2.722      6.102
  Name = 
  2 active torsions:
  status: ('A' for Active; 'I' for Inactive)
    1  A    between atoms: C_11  and  C_28
    2  A    between atoms: C_28  and  C_30
                            x       y       z     vdW  Elec       q    Type
                         _______ _______ _______ _____ _____    ______ ____

>  <TORSDO>
F 2

$$$$
=
 OpenBabel11122410323D

 30 35  0  0  1  0  0  0  0  0999 V2000
  188.3570  177.9430  141.8910 C   0  0  0  0  0  0  0  0  0  0  0  0
  189.5590  177.0900  143.9040 C   0  0  0  0  0  0  0  0  0  0  0  0
  184.7710  178.5760  144.1260 C   0  0  0  0  0  2  0  0  0  0  0  0
  187.1830  178.4960  141.3250 C   0  0  0  0  0  0  0  0  0  0  0  0
  189.4850  177.6940  141.0410 N   0  0  0  0  0  2  0  0  0  0  0  0
  188.6820  179.3580  138.1210 O   0  0  0  0  0  0  0  0  0  0  0  0
  184.9910  177.4770  139.6580 C   0  0  1  0  0  3  0  0  0  0  0  0
  188.4250  178.7140  139.1260 C   0  0  0  0  0  0  0  0  0  0  0  0
  184.0810  178.0190  140.7650 C   0  0  2  0  0  3  0  0  0  0  0  0
  183.9420  179.2560  143.0320 C   0  0  2  0  0  3  0  0  0  0  0  0
  189.3750  177.6550  139.5860 C   0  0  2  0  0  3  0  0  0  0  0  0
  187.1480  178.9760  139.8820 C   0  0  1  0  0  3  0  0  0  0  0  0
  189.5410  176.7840  145.2680 C   0  0  0  0  0  3  0  0  0  0  0  0
  182.8530  178.5320  140.0450 C   0  0  0  0  0  2  0  0  0  0  0  0
  184.0350  176.9580  138.5930 C   0  0  0  0  0  2  0  0  0  0  0  0
  190.7340  176.8590  143.1990 O   0  0  0  0  0  1  0  0  0  0  0  0
  186.0840  178.3390  143.4740 C   0  0  0  0  0  0  0  0  0  0  0  0
  188.3940  176.9930  146.0310 C   0  0  0  0  0  3  0  0  0  0  0  0
  188.4020  177.6220  143.2780 C   0  0  0  0  0  0  0  0  0  0  0  0
  186.0560  178.6580  142.1410 C   0  0  0  0  0  0  0  0  0  0  0  0
  182.6510  178.7230  143.0050 O   0  0  0  0  0  1  0  0  0  0  0  0
  184.7030  179.0890  141.6930 C   0  0  1  0  0  3  0  0  0  0  0  0
  182.6900  177.6280  138.8380 C   0  0  0  0  0  2  0  0  0  0  0  0
  185.6700  179.0960  138.0500 O   0  0  0  0  0  0  0  0  0  0  0  0
  187.2470  177.5130  145.4360 C   0  0  0  0  0  3  0  0  0  0  0  0
  187.2380  177.8290  144.0730 C   0  0  0  0  0  0  0  0  0  0  0  0
  185.9300  178.5320  139.1040 C   0  0  0  0  0  0  0  0  0  0  0  0
  188.8790  176.2900  139.1320 C   0  0  0  0  0  2  0  0  0  0  0  0
  190.9240  176.1170  137.7510 C   0  0  0  0  0  1  0  0  0  0  0  0
  189.4170  175.9660  137.7510 C   0  0  0  0  0  2  0  0  0  0  0  0
  1 19  1  0  0  0  0
  2 13  1  0  0  0  0
  4  1  2  0  0  0  0
  4 20  1  0  0  0  0
  5  1  1  0  0  0  0
  6  8  2  0  0  0  0
  7 15  1  6  0  0  0
  7  9  1  0  0  0  0
  8 11  1  0  0  0  0
  8 12  1  0  0  0  0
  9 14  1  6  0  0  0
  9 22  1  0  0  0  0
 10 21  1  6  0  0  0
 10  3  1  0  0  0  0
 11 28  1  1  0  0  0
 11  5  1  0  0  0  0
 12 27  1  6  0  0  0
 12  4  1  0  0  0  0
 13 18  2  0  0  0  0
 15 23  1  0  0  0  0
 16  2  1  0  0  0  0
 17 26  1  0  0  0  0
 17  3  1  0  0  0  0
 19  2  2  0  0  0  0
 19 26  1  0  0  0  0
 20 17  2  0  0  0  0
 22 20  1  1  0  0  0
 22 10  1  0  0  0  0
 23 14  1  0  0  0  0
 24 27  2  0  0  0  0
 25 18  1  0  0  0  0
 26 25  2  0  0  0  0
 27  7  1  0  0  0  0
 30 29  1  0  0  0  0
 30 28  1  0  0  0  0
M  END
>  <MODEL>
7

>  <REMARK>
 VINA RESULT:      -6.6      2.097      5.943
  Name = 
  2 active torsions:
  status: ('A' for Active; 'I' for Inactive)
    1  A    between atoms: C_11  and  C_28
    2  A    between atoms: C_28  and  C_30
                            x       y       z     vdW  Elec       q    Type
                         _______ _______ _______ _____ _____    ______ ____

>  <TORSDO>
F 2

$$$$
=
 OpenBabel11122410323D

 30 35  0  0  1  0  0  0  0  0999 V2000
  186.2830  178.4500  141.2930 C   0  0  0  0  0  0  0  0  0  0  0  0
  188.1190  177.8730  142.8800 C   0  0  0  0  0  0  0  0  0  0  0  0
  183.4090  178.6000  144.4490 C   0  0  0  0  0  2  0  0  0  0  0  0
  184.9250  178.7920  141.0830 C   0  0  0  0  0  0  0  0  0  0  0  0
  187.1550  178.3480  140.1570 N   0  0  0  0  0  2  0  0  0  0  0  0
  185.3140  179.7540  137.5940 O   0  0  0  0  0  0  0  0  0  0  0  0
  182.5490  177.3800  140.0920 C   0  0  1  0  0  3  0  0  0  0  0  0
  185.4540  179.1170  138.6260 C   0  0  0  0  0  0  0  0  0  0  0  0
  181.9090  177.8150  141.4140 C   0  0  2  0  0  3  0  0  0  0  0  0
  182.2100  179.1010  143.6380 C   0  0  2  0  0  3  0  0  0  0  0  0
  186.6520  178.2380  138.7920 C   0  0  2  0  0  3  0  0  0  0  0  0
  184.4130  179.2050  139.7120 C   0  0  1  0  0  3  0  0  0  0  0  0
  188.5310  177.6200  144.1920 C   0  0  0  0  0  3  0  0  0  0  0  0
  180.4630  178.1030  141.0720 C   0  0  0  0  0  2  0  0  0  0  0  0
  181.4300  176.6790  139.3350 C   0  0  0  0  0  2  0  0  0  0  0  0
  189.0730  177.8020  141.8720 O   0  0  0  0  0  1  0  0  0  0  0  0
  184.5080  178.5470  143.4530 C   0  0  0  0  0  0  0  0  0  0  0  0
  187.6250  177.6760  145.2480 C   0  0  0  0  0  3  0  0  0  0  0  0
  186.7640  178.1930  142.6080 C   0  0  0  0  0  0  0  0  0  0  0  0
  184.0600  178.8060  142.1840 C   0  0  0  0  0  0  0  0  0  0  0  0
  181.0650  178.3720  143.9700 O   0  0  0  0  0  1  0  0  0  0  0  0
  182.5840  179.0040  142.1380 C   0  0  1  0  0  3  0  0  0  0  0  0
  180.1170  177.1390  139.9530 C   0  0  0  0  0  2  0  0  0  0  0  0
  182.4840  179.0230  138.3700 O   0  0  0  0  0  0  0  0  0  0  0  0
  186.2890  177.9870  145.0030 C   0  0  0  0  0  3  0  0  0  0  0  0
  185.8500  178.2470  143.7000 C   0  0  0  0  0  0  0  0  0  0  0  0
  183.1140  178.5470  139.3040 C   0  0  0  0  0  0  0  0  0  0  0  0
  186.2750  176.7950  138.4850 C   0  0  0  0  0  2  0  0  0  0  0  0
  184.4600  175.8330  137.1080 C   0  0  0  0  0  1  0  0  0  0  0  0
  185.7110  176.6850  137.0810 C   0  0  0  0  0  2  0  0  0  0  0  0
  1 19  1  0  0  0  0
  2 13  1  0  0  0  0
  4  1  2  0  0  0  0
  4 20  1  0  0  0  0
  5  1  1  0  0  0  0
  6  8  2  0  0  0  0
  7 15  1  6  0  0  0
  7  9  1  0  0  0  0
  8 11  1  0  0  0  0
  9 14  1  6  0  0  0
  9 22  1  0  0  0  0
 10 21  1  6  0  0  0
 10  3  1  0  0  0  0
 11 28  1  1  0  0  0
 11  5  1  0  0  0  0
 12  8  1  6  0  0  0
 12  4  1  0  0  0  0
 13 18  2  0  0  0  0
 15 23  1  0  0  0  0
 16  2  1  0  0  0  0
 17 26  1  0  0  0  0
 17  3  1  0  0  0  0
 19  2  2  0  0  0  0
 19 26  1  0  0  0  0
 20 17  2  0  0  0  0
 22 20  1  1  0  0  0
 22 10  1  0  0  0  0
 23 14  1  0  0  0  0
 24 27  2  0  0  0  0
 25 18  1  0  0  0  0
 26 25  2  0  0  0  0
 27 12  1  0  0  0  0
 27  7  1  0  0  0  0
 30 29  1  0  0  0  0
 30 28  1  0  0  0  0
M  END
>  <MODEL>
8

>  <REMARK>
 VINA RESULT:      -6.6      2.597      6.715
  Name = 
  2 active torsions:
  status: ('A' for Active; 'I' for Inactive)
    1  A    between atoms: C_11  and  C_28
    2  A    between atoms: C_28  and  C_30
                            x       y       z     vdW  Elec       q    Type
                         _______ _______ _______ _____ _____    ______ ____

>  <TORSDO>
F 2

$$$$
=
 OpenBabel11122410323D

 30 35  0  0  1  0  0  0  0  0999 V2000
  186.2340  178.4630  139.4780 C   0  0  0  0  0  0  0  0  0  0  0  0
  185.3290  178.9210  141.7570 C   0  0  0  0  0  0  0  0  0  0  0  0
  182.3810  177.3350  138.0210 C   0  0  0  0  0  2  0  0  0  0  0  0
  185.9970  178.0910  138.1330 C   0  0  0  0  0  0  0  0  0  0  0  0
  187.5780  178.7480  139.8920 N   0  0  0  0  0  2  0  0  0  0  0  0
  189.3140  178.9670  136.9120 O   0  0  0  0  0  0  0  0  0  0  0  0
  186.4070  175.6600  136.5370 C   0  0  1  0  0  3  0  0  0  0  0  0
  188.4480  178.5240  137.6500 C   0  0  0  0  0  0  0  0  0  0  0  0
  184.9150  175.7870  136.2150 C   0  0  2  0  0  3  0  0  0  0  0  0
  182.7430  177.1530  136.5440 C   0  0  2  0  0  3  0  0  0  0  0  0
  188.7410  178.3470  139.1060 C   0  0  2  0  0  3  0  0  0  0  0  0
  187.1020  178.1430  137.0880 C   0  0  1  0  0  3  0  0  0  0  0  0
  184.2340  178.9590  142.6240 C   0  0  0  0  0  3  0  0  0  0  0  0
  184.7840  175.3200  134.7810 C   0  0  0  0  0  2  0  0  0  0  0  0
  186.8800  174.4710  135.7140 C   0  0  0  0  0  2  0  0  0  0  0  0
  186.5740  179.2790  142.2630 O   0  0  0  0  0  1  0  0  0  0  0  0
  183.6540  177.7790  138.6410 C   0  0  0  0  0  0  0  0  0  0  0  0
  182.9590  178.6140  142.1790 C   0  0  0  0  0  3  0  0  0  0  0  0
  185.1550  178.5300  140.4050 C   0  0  0  0  0  0  0  0  0  0  0  0
  184.6970  177.7310  137.7550 C   0  0  0  0  0  0  0  0  0  0  0  0
  182.1780  175.9750  136.0500 O   0  0  0  0  0  1  0  0  0  0  0  0
  184.2880  177.1840  136.4320 C   0  0  1  0  0  3  0  0  0  0  0  0
  185.8570  174.2610  134.6060 C   0  0  0  0  0  2  0  0  0  0  0  0
  187.8350  176.9870  135.1690 O   0  0  0  0  0  0  0  0  0  0  0  0
  182.7660  178.2250  140.8560 C   0  0  0  0  0  3  0  0  0  0  0  0
  183.8460  178.1800  139.9660 C   0  0  0  0  0  0  0  0  0  0  0  0
  187.1860  176.9190  136.2040 C   0  0  0  0  0  0  0  0  0  0  0  0
  189.0880  176.8920  139.3840 C   0  0  0  0  0  2  0  0  0  0  0  0
  190.4220  175.4660  137.8660 C   0  0  0  0  0  1  0  0  0  0  0  0
  190.4870  176.5790  138.8900 C   0  0  0  0  0  2  0  0  0  0  0  0
  1  5  1  0  0  0  0
  1 19  1  0  0  0  0
  2 16  1  0  0  0  0
  2 13  1  0  0  0  0
  3 17  1  0  0  0  0
  4  1  2  0  0  0  0
  6  8  2  0  0  0  0
  7 15  1  6  0  0  0
  8 11  1  0  0  0  0
  9 14  1  6  0  0  0
  9 22  1  0  0  0  0
  9  7  1  0  0  0  0
 10 21  1  1  0  0  0
 10  3  1  0  0  0  0
 11 28  1  6  0  0  0
 11  5  1  0  0  0  0
 12 27  1  1  0  0  0
 12  8  1  0  0  0  0
 12  4  1  0  0  0  0
 17 26  1  0  0  0  0
 18 13  2  0  0  0  0
 19  2  2  0  0  0  0
 20  4  1  0  0  0  0
 20 17  2  0  0  0  0
 22 10  1  0  0  0  0
 22 20  1  1  0  0  0
 23 14  1  0  0  0  0
 23 15  1  0  0  0  0
 24 27  2  0  0  0  0
 25 18  1  0  0  0  0
 26 19  1  0  0  0  0
 26 25  2  0  0  0  0
 27  7  1  0  0  0  0
 29 30  1  0  0  0  0
 30 28  1  0  0  0  0
M  END
>  <MODEL>
9

>  <REMARK>
 VINA RESULT:      -6.4      4.221      7.720
  Name = 
  2 active torsions:
  status: ('A' for Active; 'I' for Inactive)
    1  A    between atoms: C_11  and  C_28
    2  A    between atoms: C_28  and  C_30
                            x       y       z     vdW  Elec       q    Type
                         _______ _______ _______ _____ _____    ______ ____

>  <TORSDO>
F 2

$$$$
