=
 OpenBabel11122411133D

 31 35  0  0  1  0  0  0  0  0999 V2000
  191.3410  176.1060  143.7340 C   0  0  0  0  0  0  0  0  0  0  0  0
  187.6210  176.9920  143.5520 C   0  0  2  0  0  3  0  0  0  0  0  0
  187.0870  177.6060  144.8380 C   0  0  0  0  0  0  0  0  0  0  0  0
  187.1790  177.8670  147.2610 C   0  0  0  0  0  0  0  0  0  0  0  0
  189.1220  177.0650  143.4700 C   0  0  0  0  0  0  0  0  0  0  0  0
  192.0180  177.4180  143.4370 C   0  0  0  0  0  2  0  0  0  0  0  0
  187.7320  177.3770  145.9930 C   0  0  0  0  0  3  0  0  0  0  0  0
  187.7400  178.7530  141.5840 C   0  0  2  0  0  3  0  0  0  0  0  0
  192.0390  175.0860  143.9670 O   0  0  0  0  0  0  0  0  0  0  0  0
  185.3080  178.8830  143.5740 C   0  0  0  0  0  2  0  0  0  0  0  0
  187.7160  177.5470  148.3520 O   0  0  0  0  0  0  0  0  0  0  0  0
  188.8250  179.3810  142.4720 C   0  0  0  0  0  2  0  0  0  0  0  0
  186.9820  177.5900  142.2650 C   0  0  2  0  0  3  0  0  0  0  0  0
  189.8750  176.0170  143.8060 C   0  0  0  0  0  3  0  0  0  0  0  0
  186.0380  178.6690  147.2450 O   0  0  0  0  0  0  0  0  0  0  0  0
  189.7360  178.3160  142.9870 C   0  0  0  0  0  0  0  0  0  0  0  0
  191.0620  178.4730  142.9420 C   0  0  0  0  0  3  0  0  0  0  0  0
  185.5020  177.9130  142.4230 C   0  0  0  0  0  2  0  0  0  0  0  0
  185.6920  178.2130  144.8840 C   0  0  2  0  0  3  0  0  0  0  0  0
  185.5640  179.2280  146.0220 C   0  0  0  0  0  2  0  0  0  0  0  0
  186.4620  178.6370  139.0080 O   0  0  0  0  0  0  0  0  0  0  0  0
  187.6800  178.3240  139.0820 C   0  0  0  0  0  0  0  0  0  0  0  0
  188.3380  178.2620  140.3510 N   0  0  0  0  0  2  0  0  0  0  0  0
  187.2160  175.8250  136.2970 C   0  0  1  0  0  3  0  0  0  0  0  0
  187.5590  178.3290  136.6000 C   0  0  0  0  0  2  0  0  0  0  0  0
  189.9150  176.3670  139.0450 C   0  0  0  0  0  1  0  0  0  0  0  0
  185.7390  175.7180  136.6280 C   0  0  0  0  0  1  0  0  0  0  0  0
  187.5220  177.1620  135.6060 C   0  0  0  0  0  2  0  0  0  0  0  0
  189.0950  176.6640  137.8000 C   0  0  2  0  0  3  0  0  0  0  0  0
  188.4550  178.0660  137.8240 C   0  0  2  0  0  3  0  0  0  0  0  0
  188.0510  175.5740  137.5630 C   0  0  0  0  0  2  0  0  0  0  0  0
  1 14  1  0  0  0  0
  1  9  2  0  0  0  0
  2  5  1  6  0  0  0
  2  3  1  0  0  0  0
  3 19  1  0  0  0  0
  3  7  2  0  0  0  0
  4 11  2  0  0  0  0
  5 14  2  0  0  0  0
  6  1  1  0  0  0  0
  7  4  1  0  0  0  0
  8 23  1  6  0  0  0
  8 13  1  0  0  0  0
  8 12  1  0  0  0  0
 12 16  1  0  0  0  0
 13 18  1  1  0  0  0
 13  2  1  0  0  0  0
 15  4  1  0  0  0  0
 16  5  1  0  0  0  0
 17 16  2  0  0  0  0
 17  6  1  0  0  0  0
 18 10  1  0  0  0  0
 19 10  1  6  0  0  0
 19 20  1  0  0  0  0
 20 15  1  0  0  0  0
 21 22  2  0  0  0  0
 22 23  1  0  0  0  0
 24 27  1  1  0  0  0
 24 31  1  0  0  0  0
 25 30  1  0  0  0  0
 28 24  1  0  0  0  0
 28 25  1  0  0  0  0
 29 30  1  0  0  0  0
 29 26  1  1  0  0  0
 30 22  1  1  0  0  0
 31 29  1  0  0  0  0
M  END
>  <MODEL>
1

>  <REMARK>
 VINA RESULT:      -9.1      0.000      0.000
  Name = 
  2 active torsions:
  status: ('A' for Active; 'I' for Inactive)
    1  A    between atoms: C_5  and  C_30
    2  A    between atoms: C_10  and  N_16
                            x       y       z     vdW  Elec       q    Type
                         _______ _______ _______ _____ _____    ______ ____

>  <TORSDO>
F 2

$$$$
=
 OpenBabel11122411133D

 31 35  0  0  1  0  0  0  0  0999 V2000
  191.1320  176.0530  143.5880 C   0  0  0  0  0  0  0  0  0  0  0  0
  187.4170  176.9740  143.6240 C   0  0  2  0  0  3  0  0  0  0  0  0
  186.9970  177.7220  144.8810 C   0  0  0  0  0  0  0  0  0  0  0  0
  187.2930  178.2220  147.2490 C   0  0  0  0  0  0  0  0  0  0  0  0
  188.9060  177.0150  143.4120 C   0  0  0  0  0  0  0  0  0  0  0  0
  191.7920  177.3170  143.1050 C   0  0  0  0  0  2  0  0  0  0  0  0
  187.7340  177.5990  145.9960 C   0  0  0  0  0  3  0  0  0  0  0  0
  187.3840  178.5280  141.4850 C   0  0  2  0  0  3  0  0  0  0  0  0
  191.8400  175.0490  143.8640 O   0  0  0  0  0  0  0  0  0  0  0  0
  185.1280  178.8950  143.6450 C   0  0  0  0  0  2  0  0  0  0  0  0
  187.9170  178.0050  148.3200 O   0  0  0  0  0  0  0  0  0  0  0  0
  188.5450  179.2240  142.2130 C   0  0  0  0  0  2  0  0  0  0  0  0
  186.6780  177.4510  142.3400 C   0  0  2  0  0  3  0  0  0  0  0  0
  189.6770  175.9940  143.7890 C   0  0  0  0  0  3  0  0  0  0  0  0
  186.1600  179.0370  147.2470 O   0  0  0  0  0  0  0  0  0  0  0  0
  189.4870  178.2010  142.7560 C   0  0  0  0  0  0  0  0  0  0  0  0
  190.8060  178.3320  142.5870 C   0  0  0  0  0  3  0  0  0  0  0  0
  185.2180  177.8110  142.5860 C   0  0  0  0  0  2  0  0  0  0  0  0
  185.6150  178.3520  144.9800 C   0  0  2  0  0  3  0  0  0  0  0  0
  185.5900  179.4780  146.0170 C   0  0  0  0  0  2  0  0  0  0  0  0
  186.0400  178.5000  138.9410 O   0  0  0  0  0  0  0  0  0  0  0  0
  187.2010  178.0150  139.0060 C   0  0  0  0  0  0  0  0  0  0  0  0
  187.8730  177.9070  140.2630 N   0  0  0  0  0  2  0  0  0  0  0  0
  190.6520  176.6390  138.3650 C   0  0  1  0  0  3  0  0  0  0  0  0
  188.2300  176.0950  137.8070 C   0  0  0  0  0  2  0  0  0  0  0  0
  188.8330  179.9540  137.4560 C   0  0  0  0  0  1  0  0  0  0  0  0
  190.7200  176.1200  139.7900 C   0  0  0  0  0  1  0  0  0  0  0  0
  189.7020  175.7800  137.5190 C   0  0  0  0  0  2  0  0  0  0  0  0
  189.1360  178.4650  137.4390 C   0  0  2  0  0  3  0  0  0  0  0  0
  187.8990  177.5970  137.7450 C   0  0  2  0  0  3  0  0  0  0  0  0
  190.2980  178.1340  138.3740 C   0  0  0  0  0  2  0  0  0  0  0  0
  1 14  1  0  0  0  0
  1  9  2  0  0  0  0
  2  5  1  6  0  0  0
  2  3  1  0  0  0  0
  3 19  1  0  0  0  0
  3  7  2  0  0  0  0
  4 11  2  0  0  0  0
  5 14  2  0  0  0  0
  6  1  1  0  0  0  0
  7  4  1  0  0  0  0
  8 23  1  6  0  0  0
  8 12  1  0  0  0  0
  8 13  1  0  0  0  0
 12 16  1  0  0  0  0
 13 18  1  1  0  0  0
 13  2  1  0  0  0  0
 15  4  1  0  0  0  0
 16  5  1  0  0  0  0
 17 16  2  0  0  0  0
 17  6  1  0  0  0  0
 18 10  1  0  0  0  0
 19 10  1  6  0  0  0
 19 20  1  0  0  0  0
 20 15  1  0  0  0  0
 21 22  2  0  0  0  0
 22 23  1  0  0  0  0
 24 31  1  0  0  0  0
 24 27  1  1  0  0  0
 28 25  1  0  0  0  0
 28 24  1  0  0  0  0
 29 26  1  1  0  0  0
 29 30  1  0  0  0  0
 29 31  1  0  0  0  0
 30 25  1  0  0  0  0
 30 22  1  1  0  0  0
M  END
>  <MODEL>
2

>  <REMARK>
 VINA RESULT:      -8.7      0.880      1.837
  Name = 
  2 active torsions:
  status: ('A' for Active; 'I' for Inactive)
    1  A    between atoms: C_5  and  C_30
    2  A    between atoms: C_10  and  N_16
                            x       y       z     vdW  Elec       q    Type
                         _______ _______ _______ _____ _____    ______ ____

>  <TORSDO>
F 2

$$$$
=
 OpenBabel11122411133D

 31 35  0  0  1  0  0  0  0  0999 V2000
  189.2800  176.6560  141.8920 C   0  0  0  0  0  0  0  0  0  0  0  0
  186.2180  177.3380  144.0870 C   0  0  2  0  0  3  0  0  0  0  0  0
  186.5740  177.9070  145.4530 C   0  0  0  0  0  0  0  0  0  0  0  0
  188.1380  178.1460  147.3080 C   0  0  0  0  0  0  0  0  0  0  0  0
  187.3410  177.4930  143.0980 C   0  0  0  0  0  0  0  0  0  0  0  0
  189.5790  178.0050  141.2960 C   0  0  0  0  0  2  0  0  0  0  0  0
  187.8040  177.7010  145.9500 C   0  0  0  0  0  3  0  0  0  0  0  0
  185.0280  179.1240  142.5440 C   0  0  2  0  0  3  0  0  0  0  0  0
  190.0080  175.6730  141.6000 O   0  0  0  0  0  0  0  0  0  0  0  0
  184.3500  179.0980  145.6150 C   0  0  0  0  0  2  0  0  0  0  0  0
  189.2470  177.8450  147.8190 O   0  0  0  0  0  0  0  0  0  0  0  0
  186.4060  179.8010  142.5970 C   0  0  0  0  0  2  0  0  0  0  0  0
  184.8980  177.9130  143.4970 C   0  0  2  0  0  3  0  0  0  0  0  0
  188.1790  176.4850  142.8510 C   0  0  0  0  0  3  0  0  0  0  0  0
  187.2050  178.8850  148.0360 O   0  0  0  0  0  0  0  0  0  0  0  0
  187.4780  178.7820  142.3920 C   0  0  0  0  0  0  0  0  0  0  0  0
  188.4840  179.0120  141.5440 C   0  0  0  0  0  3  0  0  0  0  0  0
  183.8230  178.1530  144.5500 C   0  0  0  0  0  2  0  0  0  0  0  0
  185.4870  178.4360  146.3770 C   0  0  2  0  0  3  0  0  0  0  0  0
  186.0550  179.4300  147.3930 C   0  0  0  0  0  2  0  0  0  0  0  0
  182.4240  178.8280  141.3550 O   0  0  0  0  0  0  0  0  0  0  0  0
  183.4350  178.6490  140.6240 C   0  0  0  0  0  0  0  0  0  0  0  0
  184.7500  178.6800  141.1860 N   0  0  0  0  0  2  0  0  0  0  0  0
  180.4070  178.9060  138.3940 C   0  0  1  0  0  3  0  0  0  0  0  0
  182.7960  179.7770  138.5030 C   0  0  0  0  0  2  0  0  0  0  0  0
  182.7220  175.9880  139.5140 C   0  0  0  0  0  1  0  0  0  0  0  0
  179.7400  179.8350  139.3910 C   0  0  0  0  0  1  0  0  0  0  0  0
  181.5340  179.6320  137.6450 C   0  0  0  0  0  2  0  0  0  0  0  0
  182.3200  177.2770  138.8150 C   0  0  2  0  0  3  0  0  0  0  0  0
  183.2560  178.4560  139.1480 C   0  0  2  0  0  3  0  0  0  0  0  0
  180.8600  177.6210  139.1040 C   0  0  0  0  0  2  0  0  0  0  0  0
  1 14  1  0  0  0  0
  2  5  1  6  0  0  0
  2  3  1  0  0  0  0
  3  7  2  0  0  0  0
  3 19  1  0  0  0  0
  4 11  2  0  0  0  0
  4 15  1  0  0  0  0
  6 17  1  0  0  0  0
  6  1  1  0  0  0  0
  7  4  1  0  0  0  0
  8 23  1  6  0  0  0
  8 12  1  0  0  0  0
  8 13  1  0  0  0  0
  9  1  2  0  0  0  0
 13  2  1  0  0  0  0
 13 18  1  1  0  0  0
 14  5  2  0  0  0  0
 16 12  1  0  0  0  0
 16  5  1  0  0  0  0
 17 16  2  0  0  0  0
 18 10  1  0  0  0  0
 19 10  1  6  0  0  0
 19 20  1  0  0  0  0
 20 15  1  0  0  0  0
 22 23  1  0  0  0  0
 22 21  2  0  0  0  0
 24 31  1  0  0  0  0
 24 27  1  1  0  0  0
 25 30  1  0  0  0  0
 28 24  1  0  0  0  0
 28 25  1  0  0  0  0
 29 31  1  0  0  0  0
 29 30  1  0  0  0  0
 29 26  1  1  0  0  0
 30 22  1  1  0  0  0
M  END
>  <MODEL>
3

>  <REMARK>
 VINA RESULT:      -7.3      3.197      4.156
  Name = 
  2 active torsions:
  status: ('A' for Active; 'I' for Inactive)
    1  A    between atoms: C_5  and  C_30
    2  A    between atoms: C_10  and  N_16
                            x       y       z     vdW  Elec       q    Type
                         _______ _______ _______ _____ _____    ______ ____

>  <TORSDO>
F 2

$$$$
=
 OpenBabel11122411133D

 31 35  0  0  1  0  0  0  0  0999 V2000
  189.5240  176.6290  141.7530 C   0  0  0  0  0  0  0  0  0  0  0  0
  186.2470  177.3420  143.6000 C   0  0  2  0  0  3  0  0  0  0  0  0
  186.4560  177.8130  145.0330 C   0  0  0  0  0  0  0  0  0  0  0  0
  187.7880  177.8650  147.0740 C   0  0  0  0  0  0  0  0  0  0  0  0
  187.4900  177.4960  142.7660 C   0  0  0  0  0  0  0  0  0  0  0  0
  189.9540  177.9930  141.2840 C   0  0  0  0  0  2  0  0  0  0  0  0
  187.6040  177.5160  145.6610 C   0  0  0  0  0  3  0  0  0  0  0  0
  185.3380  179.2730  142.0410 C   0  0  2  0  0  3  0  0  0  0  0  0
  190.2390  175.6280  141.4900 O   0  0  0  0  0  0  0  0  0  0  0  0
  184.2840  179.1070  145.0000 C   0  0  0  0  0  2  0  0  0  0  0  0
  188.8110  177.4780  147.6960 O   0  0  0  0  0  0  0  0  0  0  0  0
  186.7280  179.8730  142.3020 C   0  0  0  0  0  2  0  0  0  0  0  0
  185.0370  178.0180  142.8930 C   0  0  2  0  0  3  0  0  0  0  0  0
  188.3060  176.4610  142.5590 C   0  0  0  0  0  3  0  0  0  0  0  0
  186.8050  178.6080  147.7290 O   0  0  0  0  0  0  0  0  0  0  0  0
  187.7700  178.8130  142.1650 C   0  0  0  0  0  0  0  0  0  0  0  0
  188.8820  179.0390  141.4610 C   0  0  0  0  0  3  0  0  0  0  0  0
  183.8520  178.2530  143.8220 C   0  0  0  0  0  2  0  0  0  0  0  0
  185.2880  178.3440  145.8500 C   0  0  2  0  0  3  0  0  0  0  0  0
  185.7690  179.2470  146.9880 C   0  0  0  0  0  2  0  0  0  0  0  0
  182.8790  179.0640  140.5600 O   0  0  0  0  0  0  0  0  0  0  0  0
  183.9650  178.9330  139.9330 C   0  0  0  0  0  0  0  0  0  0  0  0
  185.2110  178.9220  140.6340 N   0  0  0  0  0  2  0  0  0  0  0  0
  182.9210  176.1740  137.5850 C   0  0  1  0  0  3  0  0  0  0  0  0
  182.4990  178.6580  137.9440 C   0  0  0  0  0  2  0  0  0  0  0  0
  186.3100  177.8780  138.4450 C   0  0  0  0  0  1  0  0  0  0  0  0
  182.0160  175.5930  138.6550 C   0  0  0  0  0  1  0  0  0  0  0  0
  182.3180  177.4600  137.0030 C   0  0  0  0  0  2  0  0  0  0  0  0
  184.8970  177.7510  137.8990 C   0  0  2  0  0  3  0  0  0  0  0  0
  183.9470  178.8400  138.4360 C   0  0  2  0  0  3  0  0  0  0  0  0
  184.3410  176.3500  138.1460 C   0  0  0  0  0  2  0  0  0  0  0  0
  1 14  1  0  0  0  0
  2  5  1  6  0  0  0
  2  3  1  0  0  0  0
  3  7  2  0  0  0  0
  3 19  1  0  0  0  0
  4 11  2  0  0  0  0
  4 15  1  0  0  0  0
  6 17  1  0  0  0  0
  6  1  1  0  0  0  0
  7  4  1  0  0  0  0
  8 23  1  6  0  0  0
  8 12  1  0  0  0  0
  8 13  1  0  0  0  0
  9  1  2  0  0  0  0
 13  2  1  0  0  0  0
 13 18  1  1  0  0  0
 14  5  2  0  0  0  0
 16 12  1  0  0  0  0
 16  5  1  0  0  0  0
 17 16  2  0  0  0  0
 18 10  1  0  0  0  0
 19 10  1  6  0  0  0
 19 20  1  0  0  0  0
 20 15  1  0  0  0  0
 22 21  2  0  0  0  0
 22 23  1  0  0  0  0
 24 31  1  0  0  0  0
 24 27  1  1  0  0  0
 25 30  1  0  0  0  0
 28 24  1  0  0  0  0
 28 25  1  0  0  0  0
 29 31  1  0  0  0  0
 29 30  1  0  0  0  0
 29 26  1  1  0  0  0
 30 22  1  1  0  0  0
M  END
>  <MODEL>
4

>  <REMARK>
 VINA RESULT:      -6.8      2.300      3.020
  Name = 
  2 active torsions:
  status: ('A' for Active; 'I' for Inactive)
    1  A    between atoms: C_5  and  C_30
    2  A    between atoms: C_10  and  N_16
                            x       y       z     vdW  Elec       q    Type
                         _______ _______ _______ _____ _____    ______ ____

>  <TORSDO>
F 2

$$$$
=
 OpenBabel11122411133D

 31 35  0  0  1  0  0  0  0  0999 V2000
  179.8720  179.0390  141.0720 C   0  0  0  0  0  0  0  0  0  0  0  0
  183.6610  179.2350  140.5710 C   0  0  2  0  0  3  0  0  0  0  0  0
  184.4510  178.8740  141.8210 C   0  0  0  0  0  0  0  0  0  0  0  0
  184.6330  178.7390  144.2480 C   0  0  0  0  0  0  0  0  0  0  0  0
  182.2440  178.7350  140.6330 C   0  0  0  0  0  0  0  0  0  0  0  0
  179.5780  177.5750  140.8830 C   0  0  0  0  0  2  0  0  0  0  0  0
  183.8630  178.9780  143.0230 C   0  0  0  0  0  3  0  0  0  0  0  0
  183.8960  177.4000  138.6810 C   0  0  2  0  0  3  0  0  0  0  0  0
  178.9310  179.8320  141.3360 O   0  0  0  0  0  0  0  0  0  0  0  0
  186.4140  178.0810  140.4380 C   0  0  0  0  0  2  0  0  0  0  0  0
  184.1170  178.9570  145.3750 O   0  0  0  0  0  0  0  0  0  0  0  0
  183.1120  176.5440  139.6880 C   0  0  0  0  0  2  0  0  0  0  0  0
  184.3390  178.7680  139.2500 C   0  0  2  0  0  3  0  0  0  0  0  0
  181.2500  179.5440  141.0030 C   0  0  0  0  0  3  0  0  0  0  0  0
  185.9520  178.2940  144.1520 O   0  0  0  0  0  0  0  0  0  0  0  0
  181.9780  177.3350  140.2510 C   0  0  0  0  0  0  0  0  0  0  0  0
  180.7540  176.8070  140.3360 C   0  0  0  0  0  3  0  0  0  0  0  0
  185.8580  178.8880  139.2780 C   0  0  0  0  0  2  0  0  0  0  0  0
  185.9610  178.6910  141.7550 C   0  0  2  0  0  3  0  0  0  0  0  0
  186.4670  177.8220  142.9090 C   0  0  0  0  0  2  0  0  0  0  0  0
  183.2680  175.4560  136.6560 O   0  0  0  0  0  0  0  0  0  0  0  0
  182.7290  176.5920  136.5770 C   0  0  0  0  0  0  0  0  0  0  0  0
  183.0850  177.6290  137.4950 N   0  0  0  0  0  2  0  0  0  0  0  0
  180.1070  179.2800  136.2380 C   0  0  1  0  0  3  0  0  0  0  0  0
  181.9290  178.1810  134.8410 C   0  0  0  0  0  2  0  0  0  0  0  0
  180.0050  175.4480  136.8920 C   0  0  0  0  0  1  0  0  0  0  0  0
  180.9490  180.2200  137.0800 C   0  0  0  0  0  1  0  0  0  0  0  0
  180.7140  179.1160  134.8370 C   0  0  0  0  0  2  0  0  0  0  0  0
  180.2440  176.7390  136.1250 C   0  0  2  0  0  3  0  0  0  0  0  0
  181.6680  176.8370  135.5450 C   0  0  2  0  0  3  0  0  0  0  0  0
  179.9030  177.9540  136.9860 C   0  0  0  0  0  2  0  0  0  0  0  0
  1  9  2  0  0  0  0
  2  5  1  1  0  0  0
  2  3  1  0  0  0  0
  3  7  2  0  0  0  0
  4 11  2  0  0  0  0
  5 14  2  0  0  0  0
  6  1  1  0  0  0  0
  7  4  1  0  0  0  0
  8 23  1  6  0  0  0
  8 13  1  0  0  0  0
  8 12  1  0  0  0  0
 12 16  1  0  0  0  0
 13 18  1  1  0  0  0
 13  2  1  0  0  0  0
 14  1  1  0  0  0  0
 15  4  1  0  0  0  0
 16 17  2  0  0  0  0
 16  5  1  0  0  0  0
 17  6  1  0  0  0  0
 18 10  1  0  0  0  0
 19 10  1  6  0  0  0
 19  3  1  0  0  0  0
 19 20  1  0  0  0  0
 20 15  1  0  0  0  0
 22 21  2  0  0  0  0
 22 23  1  0  0  0  0
 24 31  1  0  0  0  0
 24 27  1  1  0  0  0
 25 30  1  0  0  0  0
 28 25  1  0  0  0  0
 28 24  1  0  0  0  0
 29 26  1  1  0  0  0
 29 31  1  0  0  0  0
 30 29  1  0  0  0  0
 30 22  1  1  0  0  0
M  END
>  <MODEL>
5

>  <REMARK>
 VINA RESULT:      -6.4      4.552      7.414
  Name = 
  2 active torsions:
  status: ('A' for Active; 'I' for Inactive)
    1  A    between atoms: C_5  and  C_30
    2  A    between atoms: C_10  and  N_16
                            x       y       z     vdW  Elec       q    Type
                         _______ _______ _______ _____ _____    ______ ____

>  <TORSDO>
F 2

$$$$
=
 OpenBabel11122411133D

 31 35  0  0  1  0  0  0  0  0999 V2000
  184.7740  178.8220  140.3530 C   0  0  0  0  0  0  0  0  0  0  0  0
  184.3210  177.5600  136.7670 C   0  0  2  0  0  3  0  0  0  0  0  0
  185.2440  176.4000  136.4180 C   0  0  0  0  0  0  0  0  0  0  0  0
  187.3310  175.1810  136.7390 C   0  0  0  0  0  0  0  0  0  0  0  0
  184.1830  177.7470  138.2540 C   0  0  0  0  0  0  0  0  0  0  0  0
  183.9390  177.8640  141.1590 C   0  0  0  0  0  2  0  0  0  0  0  0
  186.3730  176.2240  137.1220 C   0  0  0  0  0  3  0  0  0  0  0  0
  181.7940  176.8040  136.9410 C   0  0  2  0  0  3  0  0  0  0  0  0
  185.3980  179.7460  140.9370 O   0  0  0  0  0  0  0  0  0  0  0  0
  183.6010  175.5130  134.7130 C   0  0  0  0  0  2  0  0  0  0  0  0
  188.4430  175.0970  137.3190 O   0  0  0  0  0  0  0  0  0  0  0  0
  182.3130  176.0310  138.1640 C   0  0  0  0  0  2  0  0  0  0  0  0
  182.9170  177.4590  136.1040 C   0  0  2  0  0  3  0  0  0  0  0  0
  184.9100  178.6600  138.8980 C   0  0  0  0  0  3  0  0  0  0  0  0
  187.0060  174.3000  135.7070 O   0  0  0  0  0  0  0  0  0  0  0  0
  183.2060  176.9090  138.9750 C   0  0  0  0  0  0  0  0  0  0  0  0
  183.0690  176.9790  140.3020 C   0  0  0  0  0  3  0  0  0  0  0  0
  182.9580  176.8880  134.6920 C   0  0  0  0  0  2  0  0  0  0  0  0
  185.0620  175.6330  135.1170 C   0  0  2  0  0  3  0  0  0  0  0  0
  185.6730  174.2320  135.2070 C   0  0  0  0  0  2  0  0  0  0  0  0
  179.2830  176.3830  138.2820 O   0  0  0  0  0  0  0  0  0  0  0  0
  179.6810  177.5690  138.1220 C   0  0  0  0  0  0  0  0  0  0  0  0
  180.8670  177.8400  137.3720 N   0  0  0  0  0  2  0  0  0  0  0  0
  180.7830  180.9530  139.3660 C   0  0  1  0  0  3  0  0  0  0  0  0
  178.9870  179.9420  137.8720 C   0  0  0  0  0  2  0  0  0  0  0  0
  179.4370  177.7300  141.0790 C   0  0  0  0  0  1  0  0  0  0  0  0
  181.9650  180.9280  138.4150 C   0  0  0  0  0  1  0  0  0  0  0  0
  179.4750  181.2000  138.6000 C   0  0  0  0  0  2  0  0  0  0  0  0
  179.4130  178.9760  140.2080 C   0  0  2  0  0  3  0  0  0  0  0  0
  178.9310  178.6940  138.7710 C   0  0  2  0  0  3  0  0  0  0  0  0
  180.7730  179.6730  140.2160 C   0  0  0  0  0  2  0  0  0  0  0  0
  1  9  2  0  0  0  0
  1  6  1  0  0  0  0
  2  3  1  1  0  0  0
  2  5  1  0  0  0  0
  3  7  2  0  0  0  0
  4  7  1  0  0  0  0
  4 11  2  0  0  0  0
  5 14  2  0  0  0  0
  5 16  1  0  0  0  0
  8 23  1  1  0  0  0
  8 12  1  0  0  0  0
 12 16  1  0  0  0  0
 13 18  1  6  0  0  0
 13  2  1  0  0  0  0
 13  8  1  0  0  0  0
 14  1  1  0  0  0  0
 15  4  1  0  0  0  0
 16 17  2  0  0  0  0
 17  6  1  0  0  0  0
 18 10  1  0  0  0  0
 19 10  1  1  0  0  0
 19 20  1  0  0  0  0
 19  3  1  0  0  0  0
 20 15  1  0  0  0  0
 22 21  2  0  0  0  0
 23 22  1  0  0  0  0
 24 27  1  6  0  0  0
 24 31  1  0  0  0  0
 25 28  1  0  0  0  0
 25 30  1  0  0  0  0
 28 24  1  0  0  0  0
 29 31  1  0  0  0  0
 29 26  1  1  0  0  0
 30 22  1  6  0  0  0
 30 29  1  0  0  0  0
M  END
>  <MODEL>
6

>  <REMARK>
 VINA RESULT:      -6.3      5.061      9.019
  Name = 
  2 active torsions:
  status: ('A' for Active; 'I' for Inactive)
    1  A    between atoms: C_5  and  C_30
    2  A    between atoms: C_10  and  N_16
                            x       y       z     vdW  Elec       q    Type
                         _______ _______ _______ _____ _____    ______ ____

>  <TORSDO>
F 2

$$$$
=
 OpenBabel11122411133D

 31 35  0  0  1  0  0  0  0  0999 V2000
  187.2650  178.0040  135.4620 C   0  0  0  0  0  0  0  0  0  0  0  0
  189.4220  178.1020  138.6240 C   0  0  2  0  0  3  0  0  0  0  0  0
  188.6040  178.1010  139.9080 C   0  0  0  0  0  0  0  0  0  0  0  0
  186.5530  178.6290  141.1150 C   0  0  0  0  0  0  0  0  0  0  0  0
  188.6230  177.6210  137.4430 C   0  0  0  0  0  0  0  0  0  0  0  0
  186.9520  176.5390  135.3090 C   0  0  0  0  0  2  0  0  0  0  0  0
  187.3290  178.5190  139.8750 C   0  0  0  0  0  3  0  0  0  0  0  0
  190.7250  175.8290  138.2720 C   0  0  2  0  0  3  0  0  0  0  0  0
  186.8090  178.8270  134.6270 O   0  0  0  0  0  0  0  0  0  0  0  0
  190.4810  176.9880  141.1860 C   0  0  0  0  0  2  0  0  0  0  0  0
  185.4020  179.1370  141.1000 O   0  0  0  0  0  0  0  0  0  0  0  0
  189.3040  175.2660  138.1070 C   0  0  0  0  0  2  0  0  0  0  0  0
  190.7530  177.3040  138.7330 C   0  0  2  0  0  3  0  0  0  0  0  0
  188.0550  178.4880  136.6040 C   0  0  0  0  0  3  0  0  0  0  0  0
  187.1140  178.1900  142.3150 O   0  0  0  0  0  0  0  0  0  0  0  0
  188.5040  176.1670  137.2250 C   0  0  0  0  0  0  0  0  0  0  0  0
  187.7640  175.6660  136.2320 C   0  0  0  0  0  3  0  0  0  0  0  0
  191.4290  177.4450  140.0920 C   0  0  0  0  0  2  0  0  0  0  0  0
  189.2850  177.9250  141.2570 C   0  0  2  0  0  3  0  0  0  0  0  0
  188.3050  177.4070  142.3120 C   0  0  0  0  0  2  0  0  0  0  0  0
  193.1910  174.4080  137.8510 O   0  0  0  0  0  0  0  0  0  0  0  0
  192.6170  174.9140  136.8490 C   0  0  0  0  0  0  0  0  0  0  0  0
  191.4470  175.7190  137.0140 N   0  0  0  0  0  2  0  0  0  0  0  0
  195.6500  173.0260  135.6450 C   0  0  1  0  0  3  0  0  0  0  0  0
  193.1400  173.1030  135.2290 C   0  0  0  0  0  2  0  0  0  0  0  0
  194.5440  176.7530  135.5330 C   0  0  0  0  0  1  0  0  0  0  0  0
  195.6800  172.2320  136.9380 C   0  0  0  0  0  1  0  0  0  0  0  0
  194.4920  172.5610  134.7500 C   0  0  0  0  0  2  0  0  0  0  0  0
  194.5170  175.2660  135.2150 C   0  0  2  0  0  3  0  0  0  0  0  0
  193.1390  174.6230  135.4730 C   0  0  2  0  0  3  0  0  0  0  0  0
  195.6290  174.5290  135.9600 C   0  0  0  0  0  2  0  0  0  0  0  0
  1 14  1  0  0  0  0
  2  5  1  6  0  0  0
  2 13  1  0  0  0  0
  2  3  1  0  0  0  0
  3 19  1  0  0  0  0
  4 15  1  0  0  0  0
  6  1  1  0  0  0  0
  6 17  1  0  0  0  0
  7  3  2  0  0  0  0
  7  4  1  0  0  0  0
  8 23  1  6  0  0  0
  8 13  1  0  0  0  0
  9  1  2  0  0  0  0
 11  4  2  0  0  0  0
 12  8  1  0  0  0  0
 13 18  1  1  0  0  0
 14  5  2  0  0  0  0
 16  5  1  0  0  0  0
 16 12  1  0  0  0  0
 17 16  2  0  0  0  0
 18 10  1  0  0  0  0
 19 10  1  6  0  0  0
 19 20  1  0  0  0  0
 20 15  1  0  0  0  0
 22 23  1  0  0  0  0
 22 21  2  0  0  0  0
 24 31  1  0  0  0  0
 24 27  1  1  0  0  0
 25 30  1  0  0  0  0
 28 25  1  0  0  0  0
 28 24  1  0  0  0  0
 29 30  1  0  0  0  0
 29 26  1  1  0  0  0
 29 31  1  0  0  0  0
 30 22  1  1  0  0  0
M  END
>  <MODEL>
7

>  <REMARK>
 VINA RESULT:      -6.2      3.970      7.130
  Name = 
  2 active torsions:
  status: ('A' for Active; 'I' for Inactive)
    1  A    between atoms: C_5  and  C_30
    2  A    between atoms: C_10  and  N_16
                            x       y       z     vdW  Elec       q    Type
                         _______ _______ _______ _____ _____    ______ ____

>  <TORSDO>
F 2

$$$$
=
 OpenBabel11122411133D

 31 35  0  0  1  0  0  0  0  0999 V2000
  190.0550  176.5510  139.5600 C   0  0  0  0  0  0  0  0  0  0  0  0
  187.8330  176.8520  142.6630 C   0  0  2  0  0  3  0  0  0  0  0  0
  188.6180  177.1110  143.9400 C   0  0  0  0  0  0  0  0  0  0  0  0
  190.6660  176.9090  145.2480 C   0  0  0  0  0  0  0  0  0  0  0  0
  188.6320  177.1760  141.4300 C   0  0  0  0  0  0  0  0  0  0  0  0
  190.2910  177.9850  139.1700 C   0  0  0  0  0  2  0  0  0  0  0  0
  189.9150  176.7680  143.9960 C   0  0  0  0  0  3  0  0  0  0  0  0
  186.4170  178.9570  141.9200 C   0  0  2  0  0  3  0  0  0  0  0  0
  190.5750  175.6290  138.8800 O   0  0  0  0  0  0  0  0  0  0  0  0
  186.6550  178.3100  144.9890 C   0  0  0  0  0  2  0  0  0  0  0  0
  191.8430  176.4730  145.3340 O   0  0  0  0  0  0  0  0  0  0  0  0
  187.8080  179.5650  141.6830 C   0  0  0  0  0  2  0  0  0  0  0  0
  186.4570  177.5780  142.6190 C   0  0  2  0  0  3  0  0  0  0  0  0
  189.2660  176.2170  140.7550 C   0  0  0  0  0  3  0  0  0  0  0  0
  190.0540  177.5070  146.3500 O   0  0  0  0  0  0  0  0  0  0  0  0
  188.6770  178.5790  140.9750 C   0  0  0  0  0  0  0  0  0  0  0  0
  189.4120  178.9510  139.9240 C   0  0  0  0  0  3  0  0  0  0  0  0
  185.7590  177.6250  143.9730 C   0  0  0  0  0  2  0  0  0  0  0  0
  187.8970  177.4680  145.2320 C   0  0  2  0  0  3  0  0  0  0  0  0
  188.8230  178.2090  146.2000 C   0  0  0  0  0  2  0  0  0  0  0  0
  183.5650  178.9970  141.5370 O   0  0  0  0  0  0  0  0  0  0  0  0
  184.3020  178.9440  140.5160 C   0  0  0  0  0  0  0  0  0  0  0  0
  185.7200  178.8160  140.6500 N   0  0  0  0  0  2  0  0  0  0  0  0
  182.1510  176.6030  138.4900 C   0  0  1  0  0  3  0  0  0  0  0  0
  182.1520  179.0260  139.2700 C   0  0  0  0  0  2  0  0  0  0  0  0
  185.7550  178.0110  138.0980 C   0  0  0  0  0  1  0  0  0  0  0  0
  181.6870  175.9150  139.7600 C   0  0  0  0  0  1  0  0  0  0  0  0
  181.4980  177.9860  138.3530 C   0  0  0  0  0  2  0  0  0  0  0  0
  184.2360  178.0290  138.1580 C   0  0  2  0  0  3  0  0  0  0  0  0
  183.6870  179.0700  139.1540 C   0  0  2  0  0  3  0  0  0  0  0  0
  183.6860  176.6320  138.4460 C   0  0  0  0  0  2  0  0  0  0  0  0
  1 14  1  0  0  0  0
  2  5  1  6  0  0  0
  2  3  1  0  0  0  0
  3  7  2  0  0  0  0
  3 19  1  0  0  0  0
  4 11  2  0  0  0  0
  4 15  1  0  0  0  0
  6  1  1  0  0  0  0
  6 17  1  0  0  0  0
  7  4  1  0  0  0  0
  8 23  1  6  0  0  0
  8 13  1  0  0  0  0
  9  1  2  0  0  0  0
 12  8  1  0  0  0  0
 13  2  1  0  0  0  0
 13 18  1  1  0  0  0
 14  5  2  0  0  0  0
 16  5  1  0  0  0  0
 16 12  1  0  0  0  0
 17 16  2  0  0  0  0
 18 10  1  0  0  0  0
 19 10  1  6  0  0  0
 19 20  1  0  0  0  0
 20 15  1  0  0  0  0
 22 23  1  0  0  0  0
 22 21  2  0  0  0  0
 24 27  1  1  0  0  0
 28 24  1  0  0  0  0
 28 25  1  0  0  0  0
 29 26  1  1  0  0  0
 29 31  1  0  0  0  0
 29 30  1  0  0  0  0
 30 25  1  0  0  0  0
 30 22  1  1  0  0  0
 31 24  1  0  0  0  0
M  END
>  <MODEL>
8

>  <REMARK>
 VINA RESULT:      -6.2      2.695      3.903
  Name = 
  2 active torsions:
  status: ('A' for Active; 'I' for Inactive)
    1  A    between atoms: C_5  and  C_30
    2  A    between atoms: C_10  and  N_16
                            x       y       z     vdW  Elec       q    Type
                         _______ _______ _______ _____ _____    ______ ____

>  <TORSDO>
F 2

$$$$
=
 OpenBabel11122411133D

 31 35  0  0  1  0  0  0  0  0999 V2000
  182.9640  176.8070  138.3250 C   0  0  0  0  0  0  0  0  0  0  0  0
  184.5830  173.4390  137.4940 C   0  0  2  0  0  3  0  0  0  0  0  0
  183.6560  172.4980  136.7390 C   0  0  0  0  0  0  0  0  0  0  0  0
  181.4110  171.7160  136.1980 C   0  0  0  0  0  0  0  0  0  0  0  0
  184.1220  174.8700  137.4200 C   0  0  0  0  0  0  0  0  0  0  0  0
  183.1390  177.5920  137.0520 C   0  0  0  0  0  2  0  0  0  0  0  0
  182.3280  172.6730  136.8280 C   0  0  0  0  0  3  0  0  0  0  0  0
  186.5560  174.3250  135.9730 C   0  0  2  0  0  3  0  0  0  0  0  0
  182.3820  177.3370  139.3060 O   0  0  0  0  0  0  0  0  0  0  0  0
  185.6130  171.3440  135.6310 C   0  0  0  0  0  2  0  0  0  0  0  0
  180.1700  171.8100  136.3840 O   0  0  0  0  0  0  0  0  0  0  0  0
  185.4090  175.0360  135.2380 C   0  0  0  0  0  2  0  0  0  0  0  0
  186.0720  173.3310  137.0550 C   0  0  2  0  0  3  0  0  0  0  0  0
  183.4210  175.4130  138.4160 C   0  0  0  0  0  3  0  0  0  0  0  0
  181.9290  170.6870  135.4120 O   0  0  0  0  0  0  0  0  0  0  0  0
  184.4840  175.6600  136.2290 C   0  0  0  0  0  0  0  0  0  0  0  0
  184.0610  176.9170  136.0680 C   0  0  0  0  0  3  0  0  0  0  0  0
  186.5010  171.9060  136.7270 C   0  0  0  0  0  2  0  0  0  0  0  0
  184.1880  171.2030  136.1420 C   0  0  2  0  0  3  0  0  0  0  0  0
  183.2940  170.7070  135.0020 C   0  0  0  0  0  2  0  0  0  0  0  0
  189.4320  174.2520  136.0400 O   0  0  0  0  0  0  0  0  0  0  0  0
  188.8510  175.2670  136.5110 C   0  0  0  0  0  0  0  0  0  0  0  0
  187.4250  175.3100  136.5990 N   0  0  0  0  0  2  0  0  0  0  0  0
  187.8780  178.6090  137.9580 C   0  0  1  0  0  3  0  0  0  0  0  0
  189.4870  176.6970  138.4410 C   0  0  0  0  0  2  0  0  0  0  0  0
  189.4510  177.4550  134.5940 C   0  0  0  0  0  1  0  0  0  0  0  0
  186.5890  178.0130  138.4920 C   0  0  0  0  0  1  0  0  0  0  0  0
  189.0800  178.1350  138.7870 C   0  0  0  0  0  2  0  0  0  0  0  0
  189.3580  177.7090  136.0890 C   0  0  2  0  0  3  0  0  0  0  0  0
  189.6640  176.4550  136.9310 C   0  0  2  0  0  3  0  0  0  0  0  0
  188.0030  178.3130  136.4550 C   0  0  0  0  0  2  0  0  0  0  0  0
  1 14  1  0  0  0  0
  1  9  2  0  0  0  0
  2  3  1  6  0  0  0
  3  7  2  0  0  0  0
  4 11  2  0  0  0  0
  4  7  1  0  0  0  0
  5  2  1  0  0  0  0
  5 14  2  0  0  0  0
  6  1  1  0  0  0  0
  8 23  1  1  0  0  0
  8 13  1  0  0  0  0
 10 19  1  0  0  0  0
 10 18  1  0  0  0  0
 12  8  1  0  0  0  0
 12 16  1  0  0  0  0
 13 18  1  6  0  0  0
 13  2  1  0  0  0  0
 15  4  1  0  0  0  0
 16  5  1  0  0  0  0
 17 16  2  0  0  0  0
 17  6  1  0  0  0  0
 19 20  1  6  0  0  0
 19  3  1  0  0  0  0
 20 15  1  0  0  0  0
 21 22  2  0  0  0  0
 22 23  1  0  0  0  0
 24 27  1  1  0  0  0
 24 28  1  0  0  0  0
 25 28  1  0  0  0  0
 29 26  1  6  0  0  0
 29 31  1  0  0  0  0
 29 30  1  0  0  0  0
 30 22  1  6  0  0  0
 30 25  1  0  0  0  0
 31 24  1  0  0  0  0
M  END
>  <MODEL>
9

>  <REMARK>
 VINA RESULT:      -6.2      5.235      8.906
  Name = 
  2 active torsions:
  status: ('A' for Active; 'I' for Inactive)
    1  A    between atoms: C_5  and  C_30
    2  A    between atoms: C_10  and  N_16
                            x       y       z     vdW  Elec       q    Type
                         _______ _______ _______ _____ _____    ______ ____

>  <TORSDO>
F 2

$$$$
