=
 OpenBabel11122411443D

 37 44  0  0  1  0  0  0  0  0999 V2000
  182.8170  177.3960  138.6750 C   0  0  1  0  0  0  0  0  0  0  0  0
  185.2870  178.9550  141.0580 C   0  0  1  0  0  3  0  0  0  0  0  0
  188.4690  179.0580  140.1920 O   0  0  0  0  0  0  0  0  0  0  0  0
  182.8100  179.0530  140.2800 C   0  0  2  0  0  3  0  0  0  0  0  0
  186.2830  178.1040  140.2890 C   0  0  2  0  0  3  0  0  0  0  0  0
  184.2790  179.3510  139.9780 C   0  0  2  0  0  3  0  0  0  0  0  0
  187.7030  178.0880  140.8540 C   0  0  2  0  0  3  0  0  0  0  0  0
  182.5230  179.3910  141.7340 C   0  0  0  0  0  2  0  0  0  0  0  0
  184.7750  178.6770  138.6970 C   0  0  2  0  0  3  0  0  0  0  0  0
  182.2310  178.2760  137.7520 O   0  0  0  0  0  1  0  0  0  0  0  0
  185.6100  178.2710  143.3440 O   0  0  0  0  0  0  0  0  0  0  0  0
  183.3200  178.5090  142.7000 C   0  0  0  0  0  2  0  0  0  0  0  0
  184.2230  177.3760  138.5470 O   0  0  0  0  0  0  0  0  0  0  0  0
  189.0780  177.1020  138.9370 O   0  0  0  0  0  0  0  0  0  0  0  0
  189.2620  178.4840  139.1590 C   0  0  1  0  0  3  0  0  0  0  0  0
  184.7420  178.1390  142.2460 C   0  0  1  0  0  3  0  0  0  0  0  0
  186.2280  178.5830  138.9070 N   0  0  2  0  0  0  0  0  0  0  0  0
  182.4540  177.7170  140.0030 O   0  0  0  0  0  0  0  0  0  0  0  0
  187.8110  178.2210  142.3820 C   0  0  1  0  0  3  0  0  0  0  0  0
  182.3060  176.0030  138.3780 C   0  0  0  0  0  1  0  0  0  0  0  0
  188.4800  177.9530  137.9820 C   0  0  2  0  0  3  0  0  0  0  0  0
  186.9560  177.6640  138.0060 C   0  0  2  0  0  3  0  0  0  0  0  0
  186.7140  177.4360  143.1110 C   0  0  0  0  0  2  0  0  0  0  0  0
  189.5190  176.4460  142.8000 C   0  0  0  0  0  3  0  0  0  0  0  0
  189.1660  177.7990  142.8570 C   0  0  0  0  0  0  0  0  0  0  0  0
  190.0800  178.7350  143.3670 C   0  0  0  0  0  3  0  0  0  0  0  0
  192.2170  179.2200  144.3050 F   0  0  0  0  0  0  0  0  0  0  0  0
  191.6850  176.9630  143.7530 C   0  0  0  0  0  3  0  0  0  0  0  0
  191.3370  178.3150  143.8130 C   0  0  0  0  0  0  0  0  0  0  0  0
  190.7770  176.0280  143.2460 C   0  0  0  0  0  3  0  0  0  0  0  0
  186.4580  177.7710  136.5560 C   0  0  1  0  0  3  0  0  0  0  0  0
  187.2060  176.8180  135.6760 N   0  0  0  0  0  0  0  0  0  0  0  0
  185.8190  176.6090  136.1720 C   0  0  2  0  0  3  0  0  0  0  0  0
  184.8400  176.8950  135.0530 C   0  0  0  0  0  2  0  0  0  0  0  0
  183.7610  175.9240  135.0910 N   0  0  0  0  0  1  0  0  0  0  0  0
  189.0770  175.3840  135.3220 C   0  0  0  0  0  2  0  0  0  0  0  0
  188.3450  176.4130  134.9230 C   0  0  0  0  0  3  0  0  0  0  0  0
  1 20  1  6  0  0  0
  1 18  1  0  0  0  0
  2 16  1  0  0  0  0
  3  7  1  0  0  0  0
  4  8  1  0  0  0  0
  5  7  1  0  0  0  0
  5  2  1  0  0  0  0
  6  4  1  0  0  0  0
  6  2  1  0  0  0  0
  7 19  1  0  0  0  0
  8 12  1  0  0  0  0
  9 17  1  0  0  0  0
  9  6  1  0  0  0  0
 10  1  1  0  0  0  0
 13  1  1  0  0  0  0
 13  9  1  0  0  0  0
 14 15  1  0  0  0  0
 15  3  1  0  0  0  0
 16 12  1  0  0  0  0
 16 11  1  0  0  0  0
 17  5  1  0  0  0  0
 18  4  1  0  0  0  0
 19 25  1  0  0  0  0
 19 23  1  0  0  0  0
 21 22  1  0  0  0  0
 21 14  1  0  0  0  0
 21 15  1  0  0  0  0
 22 17  1  0  0  0  0
 23 11  1  0  0  0  0
 24 25  2  0  0  0  0
 24 30  1  0  0  0  0
 25 26  1  0  0  0  0
 26 29  2  0  0  0  0
 28 29  1  0  0  0  0
 29 27  1  0  0  0  0
 30 28  2  0  0  0  0
 31 22  1  0  0  0  0
 32 33  1  0  0  0  0
 32 31  1  0  0  0  0
 33 31  1  0  0  0  0
 34 35  1  0  0  0  0
 34 33  1  0  0  0  0
 37 36  2  0  0  0  0
 37 32  1  0  0  0  0
M  END
>  <MODEL>
1

>  <REMARK>
 VINA RESULT:      -8.0      0.000      0.000
  Name = 
  4 active torsions:
  status: ('A' for Active; 'I' for Inactive)
    1  A    between atoms: C_1  and  C_27
    2  A    between atoms: N_4  and  C_37
    3  A    between atoms: C_8  and  C_12
    4  A    between atoms: C_23  and  C_30
                            x       y       z     vdW  Elec       q    Type
                         _______ _______ _______ _____ _____    ______ ____

>  <TORSDO>
F 4

$$$$
=
 OpenBabel11122411443D

 37 44  0  0  1  0  0  0  0  0999 V2000
  183.0670  177.4150  137.3160 C   0  0  1  0  0  0  0  0  0  0  0  0
  183.6240  179.3360  140.5120 C   0  0  1  0  0  3  0  0  0  0  0  0
  186.6900  179.5500  141.7120 O   0  0  0  0  0  0  0  0  0  0  0  0
  182.1110  179.2120  138.4030 C   0  0  2  0  0  3  0  0  0  0  0  0
  184.8760  178.4790  140.5900 C   0  0  2  0  0  3  0  0  0  0  0  0
  183.4700  179.5680  139.0070 C   0  0  2  0  0  3  0  0  0  0  0  0
  185.6720  178.6010  141.8890 C   0  0  2  0  0  3  0  0  0  0  0  0
  181.0110  179.6650  139.3490 C   0  0  0  0  0  2  0  0  0  0  0  0
  184.6300  178.8080  138.3610 C   0  0  2  0  0  3  0  0  0  0  0  0
  183.1590  178.1680  136.1350 O   0  0  0  0  0  1  0  0  0  0  0  0
  182.5050  178.8890  142.5960 O   0  0  0  0  0  0  0  0  0  0  0  0
  181.0620  178.9280  140.6900 C   0  0  0  0  0  2  0  0  0  0  0  0
  184.2690  177.4680  138.0560 O   0  0  0  0  0  0  0  0  0  0  0  0
  187.9150  177.5250  141.2960 O   0  0  0  0  0  0  0  0  0  0  0  0
  187.9400  178.9310  141.4290 C   0  0  1  0  0  3  0  0  0  0  0  0
  182.4690  178.6030  141.2200 C   0  0  1  0  0  3  0  0  0  0  0  0
  185.6650  178.8220  139.4060 N   0  0  2  0  0  0  0  0  0  0  0  0
  181.9820  177.8360  138.1190 O   0  0  0  0  0  0  0  0  0  0  0  0
  184.8420  178.8820  143.1520 C   0  0  1  0  0  3  0  0  0  0  0  0
  182.8260  175.9720  136.9290 C   0  0  0  0  0  1  0  0  0  0  0  0
  188.0160  178.2460  140.0860 C   0  0  2  0  0  3  0  0  0  0  0  0
  186.7810  177.8690  139.2260 C   0  0  2  0  0  3  0  0  0  0  0  0
  183.5220  178.1040  143.1630 C   0  0  0  0  0  2  0  0  0  0  0  0
  185.2480  179.1610  145.6010 C   0  0  0  0  0  3  0  0  0  0  0  0
  185.6370  178.5900  144.3850 C   0  0  0  0  0  0  0  0  0  0  0  0
  186.7710  177.7620  144.3380 C   0  0  0  0  0  3  0  0  0  0  0  0
  188.5970  176.7120  145.4540 F   0  0  0  0  0  0  0  0  0  0  0  0
  187.1090  178.0840  146.7140 C   0  0  0  0  0  3  0  0  0  0  0  0
  187.5040  177.5110  145.5020 C   0  0  0  0  0  0  0  0  0  0  0  0
  185.9820  178.9080  146.7640 C   0  0  0  0  0  3  0  0  0  0  0  0
  187.2540  177.8100  137.7660 C   0  0  1  0  0  3  0  0  0  0  0  0
  188.5720  177.1040  137.6720 N   0  0  0  0  0  0  0  0  0  0  0  0
  187.2580  176.5080  137.3060 C   0  0  2  0  0  3  0  0  0  0  0  0
  187.1240  176.4840  135.7980 C   0  0  0  0  0  2  0  0  0  0  0  0
  186.7250  177.7970  135.3250 N   0  0  0  0  0  1  0  0  0  0  0  0
  190.5550  175.9980  138.3950 C   0  0  0  0  0  2  0  0  0  0  0  0
  189.9880  177.0380  137.8050 C   0  0  0  0  0  3  0  0  0  0  0  0
  1 20  1  6  0  0  0
  1 13  1  0  0  0  0
  1 18  1  0  0  0  0
  2  5  1  0  0  0  0
  2 16  1  0  0  0  0
  3  7  1  0  0  0  0
  4  6  1  0  0  0  0
  4  8  1  0  0  0  0
  5  7  1  0  0  0  0
  6  2  1  0  0  0  0
  7 19  1  0  0  0  0
  8 12  1  0  0  0  0
  9  6  1  0  0  0  0
  9 17  1  0  0  0  0
 10  1  1  0  0  0  0
 11 23  1  0  0  0  0
 12 16  1  0  0  0  0
 13  9  1  0  0  0  0
 14 15  1  0  0  0  0
 15  3  1  0  0  0  0
 16 11  1  0  0  0  0
 17  5  1  0  0  0  0
 18  4  1  0  0  0  0
 19 23  1  0  0  0  0
 19 25  1  0  0  0  0
 21 14  1  0  0  0  0
 21 15  1  0  0  0  0
 22 17  1  0  0  0  0
 22 21  1  0  0  0  0
 24 30  1  0  0  0  0
 25 24  2  0  0  0  0
 26 25  1  0  0  0  0
 26 29  2  0  0  0  0
 27 29  1  0  0  0  0
 28 30  2  0  0  0  0
 29 28  1  0  0  0  0
 31 22  1  0  0  0  0
 32 31  1  0  0  0  0
 32 37  1  0  0  0  0
 33 32  1  0  0  0  0
 33 31  1  0  0  0  0
 34 33  1  0  0  0  0
 35 34  1  0  0  0  0
 37 36  2  0  0  0  0
M  END
>  <MODEL>
2

>  <REMARK>
 VINA RESULT:      -7.9      2.156      3.025
  Name = 
  4 active torsions:
  status: ('A' for Active; 'I' for Inactive)
    1  A    between atoms: C_1  and  C_27
    2  A    between atoms: N_4  and  C_37
    3  A    between atoms: C_8  and  C_12
    4  A    between atoms: C_23  and  C_30
                            x       y       z     vdW  Elec       q    Type
                         _______ _______ _______ _____ _____    ______ ____

>  <TORSDO>
F 4

$$$$
=
 OpenBabel11122411443D

 37 44  0  0  1  0  0  0  0  0999 V2000
  189.8380  176.4840  137.6760 C   0  0  1  0  0  0  0  0  0  0  0  0
  186.5770  178.3410  137.3190 C   0  0  1  0  0  3  0  0  0  0  0  0
  185.1280  179.5260  140.0360 O   0  0  0  0  0  0  0  0  0  0  0  0
  188.8040  177.8030  136.0920 C   0  0  2  0  0  3  0  0  0  0  0  0
  186.4110  177.9540  138.7790 C   0  0  2  0  0  3  0  0  0  0  0  0
  188.0850  178.5710  137.2030 C   0  0  2  0  0  3  0  0  0  0  0  0
  185.0500  178.2820  139.3920 C   0  0  2  0  0  3  0  0  0  0  0  0
  187.9430  177.8180  134.8400 C   0  0  0  0  0  2  0  0  0  0  0  0
  188.6470  178.2760  138.5950 C   0  0  2  0  0  3  0  0  0  0  0  0
  190.9960  177.2730  137.5910 O   0  0  0  0  0  1  0  0  0  0  0  0
  184.5990  177.4540  136.2730 O   0  0  0  0  0  0  0  0  0  0  0  0
  186.6140  177.0850  135.0430 C   0  0  0  0  0  2  0  0  0  0  0  0
  189.0020  176.9070  138.7330 O   0  0  0  0  0  0  0  0  0  0  0  0
  185.4750  178.0530  141.9030 O   0  0  0  0  0  0  0  0  0  0  0  0
  185.3190  179.3780  141.4390 C   0  0  1  0  0  3  0  0  0  0  0  0
  185.9770  177.2320  136.4350 C   0  0  1  0  0  3  0  0  0  0  0  0
  187.5210  178.5940  139.4860 N   0  0  2  0  0  0  0  0  0  0  0  0
  189.1200  176.4780  136.4590 O   0  0  0  0  0  0  0  0  0  0  0  0
  183.8540  178.2130  138.4280 C   0  0  1  0  0  3  0  0  0  0  0  0
  190.2660  175.0610  137.9680 C   0  0  0  0  0  1  0  0  0  0  0  0
  186.6610  178.8170  141.8390 C   0  0  2  0  0  3  0  0  0  0  0  0
  187.6250  178.0820  140.8700 C   0  0  2  0  0  3  0  0  0  0  0  0
  183.9630  177.0350  137.4540 C   0  0  0  0  0  2  0  0  0  0  0  0
  182.0260  176.9060  139.5180 C   0  0  0  0  0  3  0  0  0  0  0  0
  182.5660  178.1530  139.1860 C   0  0  0  0  0  0  0  0  0  0  0  0
  181.8870  179.3250  139.5580 C   0  0  0  0  0  3  0  0  0  0  0  0
  180.0260  180.3760  140.6140 F   0  0  0  0  0  0  0  0  0  0  0  0
  180.1450  177.9950  140.5870 C   0  0  0  0  0  3  0  0  0  0  0  0
  180.6790  179.2440  140.2570 C   0  0  0  0  0  0  0  0  0  0  0  0
  180.8180  176.8260  140.2190 C   0  0  0  0  0  3  0  0  0  0  0  0
  189.0430  178.2490  141.4370 C   0  0  1  0  0  3  0  0  0  0  0  0
  189.1010  177.7540  142.8500 N   0  0  0  0  0  0  0  0  0  0  0  0
  189.6240  177.0180  141.6660 C   0  0  2  0  0  3  0  0  0  0  0  0
  191.1340  177.1370  141.6320 C   0  0  0  0  0  2  0  0  0  0  0  0
  191.6800  176.7530  142.9210 N   0  0  0  0  0  1  0  0  0  0  0  0
  187.9430  177.1340  144.8380 C   0  0  0  0  0  2  0  0  0  0  0  0
  188.8660  177.8780  144.2480 C   0  0  0  0  0  3  0  0  0  0  0  0
  1 20  1  1  0  0  0
  1 13  1  0  0  0  0
  2  5  1  0  0  0  0
  3 15  1  0  0  0  0
  4 18  1  0  0  0  0
  4  6  1  0  0  0  0
  5  7  1  0  0  0  0
  5 17  1  0  0  0  0
  6  2  1  0  0  0  0
  6  9  1  0  0  0  0
  7  3  1  0  0  0  0
  8 12  1  0  0  0  0
  8  4  1  0  0  0  0
  9 13  1  0  0  0  0
  9 17  1  0  0  0  0
 10  1  1  0  0  0  0
 11 16  1  0  0  0  0
 11 23  1  0  0  0  0
 12 16  1  0  0  0  0
 15 21  1  0  0  0  0
 15 14  1  0  0  0  0
 16  2  1  0  0  0  0
 17 22  1  0  0  0  0
 18  1  1  0  0  0  0
 19 25  1  0  0  0  0
 19  7  1  0  0  0  0
 21 14  1  0  0  0  0
 22 31  1  0  0  0  0
 22 21  1  0  0  0  0
 23 19  1  0  0  0  0
 24 30  1  0  0  0  0
 25 24  2  0  0  0  0
 25 26  1  0  0  0  0
 26 29  2  0  0  0  0
 29 28  1  0  0  0  0
 29 27  1  0  0  0  0
 30 28  2  0  0  0  0
 31 33  1  0  0  0  0
 31 32  1  0  0  0  0
 32 37  1  0  0  0  0
 33 32  1  0  0  0  0
 34 33  1  0  0  0  0
 34 35  1  0  0  0  0
 37 36  2  0  0  0  0
M  END
>  <MODEL>
3

>  <REMARK>
 VINA RESULT:      -7.8      3.011      7.469
  Name = 
  4 active torsions:
  status: ('A' for Active; 'I' for Inactive)
    1  A    between atoms: C_1  and  C_27
    2  A    between atoms: N_4  and  C_37
    3  A    between atoms: C_8  and  C_12
    4  A    between atoms: C_23  and  C_30
                            x       y       z     vdW  Elec       q    Type
                         _______ _______ _______ _____ _____    ______ ____

>  <TORSDO>
F 4

$$$$
=
 OpenBabel11122411443D

 37 44  0  0  1  0  0  0  0  0999 V2000
  189.8180  176.7690  141.9590 C   0  0  1  0  0  0  0  0  0  0  0  0
  188.3350  177.7630  138.6390 C   0  0  1  0  0  3  0  0  0  0  0  0
  185.2920  179.0370  138.5850 O   0  0  0  0  0  0  0  0  0  0  0  0
  190.5830  177.5370  139.9230 C   0  0  2  0  0  3  0  0  0  0  0  0
  187.0220  177.6020  139.3880 C   0  0  2  0  0  3  0  0  0  0  0  0
  189.2730  178.3010  139.7210 C   0  0  2  0  0  3  0  0  0  0  0  0
  185.7630  177.7170  138.5300 C   0  0  2  0  0  3  0  0  0  0  0  0
  191.1460  177.1460  138.5670 C   0  0  0  0  0  2  0  0  0  0  0  0
  188.4230  178.3790  140.9900 C   0  0  2  0  0  3  0  0  0  0  0  0
  190.5450  177.7710  142.6210 O   0  0  0  0  0  1  0  0  0  0  0  0
  188.0900  176.2930  136.7490 O   0  0  0  0  0  0  0  0  0  0  0  0
  190.2260  176.1800  137.8150 C   0  0  0  0  0  2  0  0  0  0  0  0
  188.4820  177.1680  141.7310 O   0  0  0  0  0  0  0  0  0  0  0  0
  183.9080  178.0170  140.2640 O   0  0  0  0  0  0  0  0  0  0  0  0
  184.2290  179.1750  139.5220 C   0  0  1  0  0  3  0  0  0  0  0  0
  188.7170  176.4150  138.0010 C   0  0  1  0  0  3  0  0  0  0  0  0
  187.0620  178.5840  140.4720 N   0  0  2  0  0  0  0  0  0  0  0  0
  190.4300  176.3970  140.7410 O   0  0  0  0  0  0  0  0  0  0  0  0
  185.8980  177.2200  137.0810 C   0  0  1  0  0  3  0  0  0  0  0  0
  189.7880  175.5490  142.8550 C   0  0  0  0  0  1  0  0  0  0  0  0
  184.6330  179.0040  140.9660 C   0  0  2  0  0  3  0  0  0  0  0  0
  185.9610  178.3500  141.4300 C   0  0  2  0  0  3  0  0  0  0  0  0
  186.7480  175.9480  136.9830 C   0  0  0  0  0  2  0  0  0  0  0  0
  184.2980  177.4990  135.1840 C   0  0  0  0  0  3  0  0  0  0  0  0
  184.5510  177.0030  136.4670 C   0  0  0  0  0  0  0  0  0  0  0  0
  183.5370  176.3220  137.1610 C   0  0  0  0  0  3  0  0  0  0  0  0
  181.3080  175.4830  137.2420 F   0  0  0  0  0  0  0  0  0  0  0  0
  182.0370  176.6370  135.2870 C   0  0  0  0  0  3  0  0  0  0  0  0
  182.2830  176.1400  136.5700 C   0  0  0  0  0  0  0  0  0  0  0  0
  183.0430  177.3160  134.5940 C   0  0  0  0  0  3  0  0  0  0  0  0
  186.2800  178.9230  142.8190 C   0  0  1  0  0  3  0  0  0  0  0  0
  185.0430  178.9650  143.6640 N   0  0  0  0  0  0  0  0  0  0  0  0
  186.1300  177.9550  143.7930 C   0  0  2  0  0  3  0  0  0  0  0  0
  186.9800  178.2890  145.0010 C   0  0  0  0  0  2  0  0  0  0  0  0
  186.2960  177.8670  146.2090 N   0  0  0  0  0  1  0  0  0  0  0  0
  182.7250  178.7610  144.1780 C   0  0  0  0  0  2  0  0  0  0  0  0
  183.7980  179.5280  144.0630 C   0  0  0  0  0  3  0  0  0  0  0  0
  1 10  1  0  0  0  0
  1 20  1  1  0  0  0
  2  5  1  0  0  0  0
  2  6  1  0  0  0  0
  3 15  1  0  0  0  0
  4 18  1  0  0  0  0
  5 17  1  0  0  0  0
  6  4  1  0  0  0  0
  6  9  1  0  0  0  0
  7  3  1  0  0  0  0
  7  5  1  0  0  0  0
  8  4  1  0  0  0  0
  9 13  1  0  0  0  0
 11 23  1  0  0  0  0
 11 16  1  0  0  0  0
 12 16  1  0  0  0  0
 12  8  1  0  0  0  0
 13  1  1  0  0  0  0
 14 21  1  0  0  0  0
 15 14  1  0  0  0  0
 15 21  1  0  0  0  0
 16  2  1  0  0  0  0
 17  9  1  0  0  0  0
 17 22  1  0  0  0  0
 18  1  1  0  0  0  0
 19  7  1  0  0  0  0
 21 22  1  0  0  0  0
 22 31  1  0  0  0  0
 23 19  1  0  0  0  0
 24 25  1  0  0  0  0
 25 19  1  0  0  0  0
 25 26  2  0  0  0  0
 28 29  2  0  0  0  0
 29 26  1  0  0  0  0
 29 27  1  0  0  0  0
 30 24  2  0  0  0  0
 30 28  1  0  0  0  0
 31 32  1  0  0  0  0
 31 33  1  0  0  0  0
 32 33  1  0  0  0  0
 32 37  1  0  0  0  0
 33 34  1  0  0  0  0
 34 35  1  0  0  0  0
 37 36  2  0  0  0  0
M  END
>  <MODEL>
4

>  <REMARK>
 VINA RESULT:      -7.6      3.163      8.077
  Name = 
  4 active torsions:
  status: ('A' for Active; 'I' for Inactive)
    1  A    between atoms: C_1  and  C_27
    2  A    between atoms: N_4  and  C_37
    3  A    between atoms: C_8  and  C_12
    4  A    between atoms: C_23  and  C_30
                            x       y       z     vdW  Elec       q    Type
                         _______ _______ _______ _____ _____    ______ ____

>  <TORSDO>
F 4

$$$$
=
 OpenBabel11122411443D

 37 44  0  0  1  0  0  0  0  0999 V2000
  185.9040  179.2030  146.0100 C   0  0  1  0  0  0  0  0  0  0  0  0
  186.8540  177.3840  142.8480 C   0  0  1  0  0  3  0  0  0  0  0  0
  189.7240  175.7590  142.7610 O   0  0  0  0  0  0  0  0  0  0  0  0
  184.8180  178.1410  144.2740 C   0  0  2  0  0  3  0  0  0  0  0  0
  188.2590  177.5290  143.4080 C   0  0  2  0  0  3  0  0  0  0  0  0
  186.0090  177.1950  144.1100 C   0  0  2  0  0  3  0  0  0  0  0  0
  189.3840  177.0890  142.4710 C   0  0  2  0  0  3  0  0  0  0  0  0
  184.1320  178.3170  142.9300 C   0  0  0  0  0  2  0  0  0  0  0  0
  186.9990  177.2710  145.2730 C   0  0  2  0  0  3  0  0  0  0  0  0
  185.1690  178.4530  146.9420 O   0  0  0  0  0  1  0  0  0  0  0  0
  187.0070  178.4010  140.6720 O   0  0  0  0  0  0  0  0  0  0  0  0
  185.0420  178.9900  141.8990 C   0  0  0  0  0  2  0  0  0  0  0  0
  187.1550  178.6040  145.7390 O   0  0  0  0  0  0  0  0  0  0  0  0
  191.4020  176.9170  144.0320 O   0  0  0  0  0  0  0  0  0  0  0  0
  190.8760  175.6820  143.5930 C   0  0  1  0  0  3  0  0  0  0  0  0
  186.5310  178.6130  141.9770 C   0  0  1  0  0  3  0  0  0  0  0  0
  188.2570  176.7990  144.6760 N   0  0  2  0  0  0  0  0  0  0  0  0
  185.1850  179.3940  144.8090 O   0  0  0  0  0  0  0  0  0  0  0  0
  189.1190  177.2960  140.9710 C   0  0  1  0  0  3  0  0  0  0  0  0
  186.1670  180.5650  146.6160 C   0  0  0  0  0  1  0  0  0  0  0  0
  190.6750  176.1890  145.0000 C   0  0  2  0  0  3  0  0  0  0  0  0
  189.4870  177.0830  145.4450 C   0  0  2  0  0  3  0  0  0  0  0  0
  188.3940  178.6170  140.6890 C   0  0  0  0  0  2  0  0  0  0  0  0
  191.5980  177.5610  140.8150 C   0  0  0  0  0  3  0  0  0  0  0  0
  190.3930  177.2160  140.1920 C   0  0  0  0  0  0  0  0  0  0  0  0
  190.3980  176.8130  138.8470 C   0  0  0  0  0  3  0  0  0  0  0  0
  191.6020  176.3660  136.8390 F   0  0  0  0  0  0  0  0  0  0  0  0
  192.8010  177.1000  138.7640 C   0  0  0  0  0  3  0  0  0  0  0  0
  191.6010  176.7550  138.1360 C   0  0  0  0  0  0  0  0  0  0  0  0
  192.8000  177.5020  140.1030 C   0  0  0  0  0  3  0  0  0  0  0  0
  189.2890  176.8460  146.9500 C   0  0  1  0  0  3  0  0  0  0  0  0
  190.5640  177.1060  147.6920 N   0  0  0  0  0  0  0  0  0  0  0  0
  189.3990  178.0320  147.6490 C   0  0  2  0  0  3  0  0  0  0  0  0
  188.6410  177.9410  148.9570 C   0  0  0  0  0  2  0  0  0  0  0  0
  187.5550  176.9880  148.8250 N   0  0  0  0  0  1  0  0  0  0  0  0
  192.4320  175.6260  147.7180 C   0  0  0  0  0  2  0  0  0  0  0  0
  191.8730  176.7540  148.1280 C   0  0  0  0  0  3  0  0  0  0  0  0
  1 20  1  1  0  0  0
  1 10  1  0  0  0  0
  2  5  1  0  0  0  0
  2  6  1  0  0  0  0
  3 15  1  0  0  0  0
  4 18  1  0  0  0  0
  5 17  1  0  0  0  0
  6  4  1  0  0  0  0
  6  9  1  0  0  0  0
  7  3  1  0  0  0  0
  7  5  1  0  0  0  0
  8  4  1  0  0  0  0
  9 13  1  0  0  0  0
 11 23  1  0  0  0  0
 11 16  1  0  0  0  0
 12 16  1  0  0  0  0
 12  8  1  0  0  0  0
 13  1  1  0  0  0  0
 14 21  1  0  0  0  0
 15 14  1  0  0  0  0
 15 21  1  0  0  0  0
 16  2  1  0  0  0  0
 17  9  1  0  0  0  0
 17 22  1  0  0  0  0
 18  1  1  0  0  0  0
 19  7  1  0  0  0  0
 21 22  1  0  0  0  0
 22 31  1  0  0  0  0
 23 19  1  0  0  0  0
 25 24  1  0  0  0  0
 25 19  1  0  0  0  0
 26 25  2  0  0  0  0
 27 29  1  0  0  0  0
 28 30  1  0  0  0  0
 29 28  2  0  0  0  0
 29 26  1  0  0  0  0
 30 24  2  0  0  0  0
 31 33  1  0  0  0  0
 31 32  1  0  0  0  0
 32 37  1  0  0  0  0
 33 32  1  0  0  0  0
 33 34  1  0  0  0  0
 35 34  1  0  0  0  0
 36 37  2  0  0  0  0
M  END
>  <MODEL>
5

>  <REMARK>
 VINA RESULT:      -7.4      4.120      7.583
  Name = 
  4 active torsions:
  status: ('A' for Active; 'I' for Inactive)
    1  A    between atoms: C_1  and  C_27
    2  A    between atoms: N_4  and  C_37
    3  A    between atoms: C_8  and  C_12
    4  A    between atoms: C_23  and  C_30
                            x       y       z     vdW  Elec       q    Type
                         _______ _______ _______ _____ _____    ______ ____

>  <TORSDO>
F 4

$$$$
=
 OpenBabel11122411443D

 37 44  0  0  1  0  0  0  0  0999 V2000
  186.2130  176.9500  137.6470 C   0  0  1  0  0  0  0  0  0  0  0  0
  186.7740  178.6130  140.9830 C   0  0  1  0  0  3  0  0  0  0  0  0
  189.8160  178.6040  142.2620 O   0  0  0  0  0  0  0  0  0  0  0  0
  185.3090  178.7060  138.8390 C   0  0  2  0  0  3  0  0  0  0  0  0
  187.9860  177.6970  141.0270 C   0  0  2  0  0  3  0  0  0  0  0  0
  186.6680  178.9570  139.4970 C   0  0  2  0  0  3  0  0  0  0  0  0
  188.7540  177.6910  142.3480 C   0  0  2  0  0  3  0  0  0  0  0  0
  184.2070  179.1410  139.7910 C   0  0  0  0  0  2  0  0  0  0  0  0
  187.8090  178.1940  138.8230 C   0  0  2  0  0  3  0  0  0  0  0  0
  186.3680  177.7800  136.5250 O   0  0  0  0  0  1  0  0  0  0  0  0
  185.5850  178.0710  143.0050 O   0  0  0  0  0  0  0  0  0  0  0  0
  184.1930  178.3090  141.0770 C   0  0  0  0  0  2  0  0  0  0  0  0
  187.3980  176.8960  138.4150 O   0  0  0  0  0  0  0  0  0  0  0  0
  190.9620  176.5600  141.7280 O   0  0  0  0  0  0  0  0  0  0  0  0
  191.0440  177.9510  141.9620 C   0  0  1  0  0  3  0  0  0  0  0  0
  185.5710  177.8850  141.6120 C   0  0  1  0  0  3  0  0  0  0  0  0
  188.8180  178.0880  139.8880 N   0  0  2  0  0  0  0  0  0  0  0  0
  185.1280  177.3610  138.4540 O   0  0  0  0  0  0  0  0  0  0  0  0
  187.9060  177.9200  143.6100 C   0  0  1  0  0  3  0  0  0  0  0  0
  185.9200  175.5500  137.1530 C   0  0  0  0  0  1  0  0  0  0  0  0
  191.1240  177.3600  140.5760 C   0  0  2  0  0  3  0  0  0  0  0  0
  189.8960  177.1010  139.6650 C   0  0  2  0  0  3  0  0  0  0  0  0
  186.5530  177.2020  143.5360 C   0  0  0  0  0  2  0  0  0  0  0  0
  188.0010  177.5030  146.0710 C   0  0  0  0  0  3  0  0  0  0  0  0
  188.6570  177.5050  144.8350 C   0  0  0  0  0  0  0  0  0  0  0  0
  190.0090  177.1290  144.7670 C   0  0  0  0  0  3  0  0  0  0  0  0
  191.9960  176.3930  145.8580 F   0  0  0  0  0  0  0  0  0  0  0  0
  190.0310  176.7540  147.1580 C   0  0  0  0  0  3  0  0  0  0  0  0
  190.6920  176.7550  145.9270 C   0  0  0  0  0  0  0  0  0  0  0  0
  188.6860  177.1280  147.2310 C   0  0  0  0  0  3  0  0  0  0  0  0
  190.4010  177.1240  138.2140 C   0  0  1  0  0  3  0  0  0  0  0  0
  191.7290  176.4380  138.1130 N   0  0  0  0  0  0  0  0  0  0  0  0
  190.4310  175.8480  137.6870 C   0  0  2  0  0  3  0  0  0  0  0  0
  190.3300  175.9020  136.1770 C   0  0  0  0  0  2  0  0  0  0  0  0
  189.7020  177.1480  135.7760 N   0  0  0  0  0  1  0  0  0  0  0  0
  193.7950  175.2500  138.0440 C   0  0  0  0  0  2  0  0  0  0  0  0
  193.1430  176.3790  138.2740 C   0  0  0  0  0  3  0  0  0  0  0  0
  1 20  1  6  0  0  0
  1 13  1  0  0  0  0
  1 18  1  0  0  0  0
  2  5  1  0  0  0  0
  2 16  1  0  0  0  0
  3  7  1  0  0  0  0
  4  6  1  0  0  0  0
  4  8  1  0  0  0  0
  5  7  1  0  0  0  0
  6  2  1  0  0  0  0
  7 19  1  0  0  0  0
  8 12  1  0  0  0  0
  9  6  1  0  0  0  0
  9 17  1  0  0  0  0
 10  1  1  0  0  0  0
 11 23  1  0  0  0  0
 12 16  1  0  0  0  0
 13  9  1  0  0  0  0
 14 15  1  0  0  0  0
 15  3  1  0  0  0  0
 16 11  1  0  0  0  0
 17  5  1  0  0  0  0
 18  4  1  0  0  0  0
 19 25  1  0  0  0  0
 21 14  1  0  0  0  0
 21 15  1  0  0  0  0
 22 17  1  0  0  0  0
 22 21  1  0  0  0  0
 23 19  1  0  0  0  0
 24 30  1  0  0  0  0
 25 24  2  0  0  0  0
 26 25  1  0  0  0  0
 26 29  2  0  0  0  0
 27 29  1  0  0  0  0
 28 30  2  0  0  0  0
 29 28  1  0  0  0  0
 31 22  1  0  0  0  0
 32 31  1  0  0  0  0
 32 37  1  0  0  0  0
 33 32  1  0  0  0  0
 33 31  1  0  0  0  0
 34 33  1  0  0  0  0
 35 34  1  0  0  0  0
 36 37  2  0  0  0  0
M  END
>  <MODEL>
6

>  <REMARK>
 VINA RESULT:      -7.3      2.494      3.509
  Name = 
  4 active torsions:
  status: ('A' for Active; 'I' for Inactive)
    1  A    between atoms: C_1  and  C_27
    2  A    between atoms: N_4  and  C_37
    3  A    between atoms: C_8  and  C_12
    4  A    between atoms: C_23  and  C_30
                            x       y       z     vdW  Elec       q    Type
                         _______ _______ _______ _____ _____    ______ ____

>  <TORSDO>
F 4

$$$$
=
 OpenBabel11122411443D

 37 44  0  0  1  0  0  0  0  0999 V2000
  183.7660  176.8120  137.6730 C   0  0  1  0  0  0  0  0  0  0  0  0
  185.8040  178.7620  140.1740 C   0  0  1  0  0  3  0  0  0  0  0  0
  189.0900  178.7580  139.8810 O   0  0  0  0  0  0  0  0  0  0  0  0
  183.5050  178.7070  138.9630 C   0  0  2  0  0  3  0  0  0  0  0  0
  186.9050  177.8090  139.7410 C   0  0  2  0  0  3  0  0  0  0  0  0
  185.0100  178.9670  138.8820 C   0  0  2  0  0  3  0  0  0  0  0  0
  188.2010  177.9000  140.5440 C   0  0  2  0  0  3  0  0  0  0  0  0
  182.9720  179.2710  140.2690 C   0  0  0  0  0  2  0  0  0  0  0  0
  185.7130  178.1010  137.8350 C   0  0  2  0  0  3  0  0  0  0  0  0
  183.3680  177.5250  136.5300 O   0  0  0  0  0  1  0  0  0  0  0  0
  185.7040  178.4600  142.5600 O   0  0  0  0  0  0  0  0  0  0  0  0
  183.5690  178.5670  141.4900 C   0  0  0  0  0  2  0  0  0  0  0  0
  185.1720  176.7860  137.8010 O   0  0  0  0  0  0  0  0  0  0  0  0
  189.8750  176.6310  139.0860 O   0  0  0  0  0  0  0  0  0  0  0  0
  190.0430  178.0330  139.1110 C   0  0  1  0  0  3  0  0  0  0  0  0
  185.0420  178.1430  141.3610 C   0  0  1  0  0  3  0  0  0  0  0  0
  187.1030  178.0570  138.3120 N   0  0  2  0  0  0  0  0  0  0  0  0
  183.1800  177.3390  138.8460 O   0  0  0  0  0  0  0  0  0  0  0  0
  188.0400  178.2790  142.0250 C   0  0  1  0  0  3  0  0  0  0  0  0
  183.2900  175.3840  137.5180 C   0  0  0  0  0  1  0  0  0  0  0  0
  189.4720  177.3110  137.9160 C   0  0  2  0  0  3  0  0  0  0  0  0
  187.9620  177.0130  137.7140 C   0  0  2  0  0  3  0  0  0  0  0  0
  186.8170  177.6100  142.6640 C   0  0  0  0  0  2  0  0  0  0  0  0
  189.9540  178.9790  143.4690 C   0  0  0  0  0  3  0  0  0  0  0  0
  189.2810  177.9540  142.7940 C   0  0  0  0  0  0  0  0  0  0  0  0
  189.7860  176.6440  142.8400 C   0  0  0  0  0  3  0  0  0  0  0  0
  191.4380  175.1030  143.5990 F   0  0  0  0  0  0  0  0  0  0  0  0
  191.6200  177.3940  144.2300 C   0  0  0  0  0  3  0  0  0  0  0  0
  190.9530  176.3670  143.5570 C   0  0  0  0  0  0  0  0  0  0  0  0
  191.1210  178.7000  144.1870 C   0  0  0  0  0  3  0  0  0  0  0  0
  187.7310  176.8790  136.2010 C   0  0  1  0  0  3  0  0  0  0  0  0
  188.6320  175.8290  135.6260 N   0  0  0  0  0  0  0  0  0  0  0  0
  187.1790  175.6500  135.8990 C   0  0  2  0  0  3  0  0  0  0  0  0
  186.4140  175.7250  134.5940 C   0  0  0  0  0  2  0  0  0  0  0  0
  185.2270  174.8940  134.6780 N   0  0  0  0  0  1  0  0  0  0  0  0
  190.5980  174.5080  135.8900 C   0  0  0  0  0  2  0  0  0  0  0  0
  189.8900  175.3540  135.1590 C   0  0  0  0  0  3  0  0  0  0  0  0
  1 20  1  6  0  0  0
  1 13  1  0  0  0  0
  1 18  1  0  0  0  0
  2 16  1  0  0  0  0
  3  7  1  0  0  0  0
  4  8  1  0  0  0  0
  5  2  1  0  0  0  0
  5  7  1  0  0  0  0
  6  4  1  0  0  0  0
  6  2  1  0  0  0  0
  7 19  1  0  0  0  0
  8 12  1  0  0  0  0
  9 17  1  0  0  0  0
  9  6  1  0  0  0  0
 10  1  1  0  0  0  0
 11 23  1  0  0  0  0
 13  9  1  0  0  0  0
 14 15  1  0  0  0  0
 15  3  1  0  0  0  0
 16 12  1  0  0  0  0
 16 11  1  0  0  0  0
 17  5  1  0  0  0  0
 18  4  1  0  0  0  0
 19 23  1  0  0  0  0
 19 25  1  0  0  0  0
 21 14  1  0  0  0  0
 21 15  1  0  0  0  0
 22 21  1  0  0  0  0
 22 17  1  0  0  0  0
 24 30  1  0  0  0  0
 25 26  1  0  0  0  0
 25 24  2  0  0  0  0
 26 29  2  0  0  0  0
 29 27  1  0  0  0  0
 29 28  1  0  0  0  0
 30 28  2  0  0  0  0
 31 22  1  0  0  0  0
 32 33  1  0  0  0  0
 32 31  1  0  0  0  0
 33 31  1  0  0  0  0
 34 35  1  0  0  0  0
 34 33  1  0  0  0  0
 37 32  1  0  0  0  0
 37 36  2  0  0  0  0
M  END
>  <MODEL>
7

>  <REMARK>
 VINA RESULT:      -7.0      1.319      1.624
  Name = 
  4 active torsions:
  status: ('A' for Active; 'I' for Inactive)
    1  A    between atoms: C_1  and  C_27
    2  A    between atoms: N_4  and  C_37
    3  A    between atoms: C_8  and  C_12
    4  A    between atoms: C_23  and  C_30
                            x       y       z     vdW  Elec       q    Type
                         _______ _______ _______ _____ _____    ______ ____

>  <TORSDO>
F 4

$$$$
=
 OpenBabel11122411443D

 37 44  0  0  1  0  0  0  0  0999 V2000
  190.0190  178.5340  143.5280 C   0  0  1  0  0  0  0  0  0  0  0  0
  186.4530  177.3830  143.9400 C   0  0  1  0  0  3  0  0  0  0  0  0
  184.4420  177.5030  141.3270 O   0  0  0  0  0  0  0  0  0  0  0  0
  188.8700  177.0060  144.8180 C   0  0  2  0  0  3  0  0  0  0  0  0
  186.2250  178.2620  142.7210 C   0  0  2  0  0  3  0  0  0  0  0  0
  187.8540  176.8200  143.6900 C   0  0  2  0  0  3  0  0  0  0  0  0
  184.7640  178.4470  142.3140 C   0  0  2  0  0  3  0  0  0  0  0  0
  188.1860  176.7530  146.1510 C   0  0  0  0  0  2  0  0  0  0  0  0
  188.3070  177.4400  142.3670 C   0  0  2  0  0  3  0  0  0  0  0  0
  190.9360  177.5400  143.1500 O   0  0  0  0  0  1  0  0  0  0  0  0
  184.9060  178.2600  145.5630 O   0  0  0  0  0  0  0  0  0  0  0  0
  187.0770  177.7710  146.4350 C   0  0  0  0  0  2  0  0  0  0  0  0
  188.9860  178.6720  142.5750 O   0  0  0  0  0  0  0  0  0  0  0  0
  184.9400  179.4080  139.9510 O   0  0  0  0  0  0  0  0  0  0  0  0
  184.5010  178.0680  140.0220 C   0  0  1  0  0  3  0  0  0  0  0  0
  186.2670  178.2320  145.2120 C   0  0  1  0  0  3  0  0  0  0  0  0
  187.0420  177.6790  141.6560 N   0  0  2  0  0  0  0  0  0  0  0  0
  189.4730  178.2820  144.8060 O   0  0  0  0  0  0  0  0  0  0  0  0
  183.7460  178.4370  143.4660 C   0  0  1  0  0  3  0  0  0  0  0  0
  190.7640  179.8510  143.5930 C   0  0  0  0  0  1  0  0  0  0  0  0
  185.8870  178.4390  139.5550 C   0  0  2  0  0  3  0  0  0  0  0  0
  187.1140  178.5900  140.4940 C   0  0  2  0  0  3  0  0  0  0  0  0
  184.2690  179.1720  144.7060 C   0  0  0  0  0  2  0  0  0  0  0  0
  181.4740  179.3340  143.9840 C   0  0  0  0  0  3  0  0  0  0  0  0
  182.4380  179.0120  143.0230 C   0  0  0  0  0  0  0  0  0  0  0  0
  182.1610  179.2230  141.6630 C   0  0  0  0  0  3  0  0  0  0  0  0
  180.6620  179.9540  139.9600 F   0  0  0  0  0  0  0  0  0  0  0  0
  179.9680  180.0730  142.2370 C   0  0  0  0  0  3  0  0  0  0  0  0
  180.9270  179.7520  141.2730 C   0  0  0  0  0  0  0  0  0  0  0  0
  180.2400  179.8650  143.5920 C   0  0  0  0  0  3  0  0  0  0  0  0
  188.3650  178.3330  139.6400 C   0  0  1  0  0  3  0  0  0  0  0  0
  188.1190  177.2100  138.6790 N   0  0  0  0  0  0  0  0  0  0  0  0
  188.1290  178.6540  138.3180 C   0  0  2  0  0  3  0  0  0  0  0  0
  189.4310  178.9850  137.6190 C   0  0  0  0  0  2  0  0  0  0  0  0
  189.4540  178.3530  136.3120 N   0  0  0  0  0  1  0  0  0  0  0  0
  187.3950  175.4730  137.2160 C   0  0  0  0  0  2  0  0  0  0  0  0
  187.9900  175.8320  138.3430 C   0  0  0  0  0  3  0  0  0  0  0  0
  1 20  1  1  0  0  0
  1 18  1  0  0  0  0
  2 16  1  0  0  0  0
  3  7  1  0  0  0  0
  4  8  1  0  0  0  0
  5  2  1  0  0  0  0
  6  2  1  0  0  0  0
  6  4  1  0  0  0  0
  7  5  1  0  0  0  0
  7 19  1  0  0  0  0
  8 12  1  0  0  0  0
  9 13  1  0  0  0  0
  9  6  1  0  0  0  0
 10  1  1  0  0  0  0
 13  1  1  0  0  0  0
 14 15  1  0  0  0  0
 15  3  1  0  0  0  0
 16 11  1  0  0  0  0
 16 12  1  0  0  0  0
 17  9  1  0  0  0  0
 17  5  1  0  0  0  0
 18  4  1  0  0  0  0
 19 23  1  0  0  0  0
 21 14  1  0  0  0  0
 21 15  1  0  0  0  0
 21 22  1  0  0  0  0
 22 17  1  0  0  0  0
 23 11  1  0  0  0  0
 25 19  1  0  0  0  0
 25 24  2  0  0  0  0
 26 25  1  0  0  0  0
 27 29  1  0  0  0  0
 28 30  2  0  0  0  0
 29 26  2  0  0  0  0
 29 28  1  0  0  0  0
 30 24  1  0  0  0  0
 31 22  1  0  0  0  0
 32 31  1  0  0  0  0
 33 32  1  0  0  0  0
 33 31  1  0  0  0  0
 34 33  1  0  0  0  0
 35 34  1  0  0  0  0
 36 37  2  0  0  0  0
 37 32  1  0  0  0  0
M  END
>  <MODEL>
8

>  <REMARK>
 VINA RESULT:      -6.4      3.042      6.669
  Name = 
  4 active torsions:
  status: ('A' for Active; 'I' for Inactive)
    1  A    between atoms: C_1  and  C_27
    2  A    between atoms: N_4  and  C_37
    3  A    between atoms: C_8  and  C_12
    4  A    between atoms: C_23  and  C_30
                            x       y       z     vdW  Elec       q    Type
                         _______ _______ _______ _____ _____    ______ ____

>  <TORSDO>
F 4

$$$$
=
 OpenBabel11122411443D

 37 44  0  0  1  0  0  0  0  0999 V2000
  190.1180  178.6200  143.5630 C   0  0  1  0  0  0  0  0  0  0  0  0
  186.5950  177.3490  143.9960 C   0  0  1  0  0  3  0  0  0  0  0  0
  184.5460  177.4610  141.4120 O   0  0  0  0  0  0  0  0  0  0  0  0
  189.0340  177.0300  144.8350 C   0  0  2  0  0  3  0  0  0  0  0  0
  186.3230  178.2450  142.7990 C   0  0  2  0  0  3  0  0  0  0  0  0
  188.0090  176.8360  143.7160 C   0  0  2  0  0  3  0  0  0  0  0  0
  184.8520  178.3930  142.4150 C   0  0  2  0  0  3  0  0  0  0  0  0
  188.3760  176.7260  146.1710 C   0  0  0  0  0  2  0  0  0  0  0  0
  188.4250  177.4970  142.4010 C   0  0  2  0  0  3  0  0  0  0  0  0
  191.0590  177.6630  143.1520 O   0  0  0  0  0  1  0  0  0  0  0  0
  185.0430  178.1420  145.6570 O   0  0  0  0  0  0  0  0  0  0  0  0
  187.2400  177.7030  146.4900 C   0  0  0  0  0  2  0  0  0  0  0  0
  189.0670  178.7450  142.6270 O   0  0  0  0  0  0  0  0  0  0  0  0
  184.9660  179.4100  140.0710 O   0  0  0  0  0  0  0  0  0  0  0  0
  184.5700  178.0550  140.1190 C   0  0  1  0  0  3  0  0  0  0  0  0
  186.3990  178.1650  145.2880 C   0  0  1  0  0  3  0  0  0  0  0  0
  187.1440  177.7120  141.7110 N   0  0  2  0  0  0  0  0  0  0  0  0
  189.5960  178.3230  144.8430 O   0  0  0  0  0  0  0  0  0  0  0  0
  183.8500  178.3270  143.5790 C   0  0  1  0  0  3  0  0  0  0  0  0
  190.8210  179.9580  143.6480 C   0  0  0  0  0  1  0  0  0  0  0  0
  185.9380  178.4790  139.6420 C   0  0  2  0  0  3  0  0  0  0  0  0
  187.1710  178.6490  140.5680 C   0  0  2  0  0  3  0  0  0  0  0  0
  184.3660  179.0520  144.8280 C   0  0  0  0  0  2  0  0  0  0  0  0
  182.3390  179.3060  141.8490 C   0  0  0  0  0  3  0  0  0  0  0  0
  182.5190  178.8700  143.1660 C   0  0  0  0  0  0  0  0  0  0  0  0
  181.4560  178.9590  144.0790 C   0  0  0  0  0  3  0  0  0  0  0  0
  179.1990  179.5630  144.5540 F   0  0  0  0  0  0  0  0  0  0  0  0
  180.0490  179.9120  142.3540 C   0  0  0  0  0  3  0  0  0  0  0  0
  180.2240  179.4790  143.6710 C   0  0  0  0  0  0  0  0  0  0  0  0
  181.1050  179.8260  141.4430 C   0  0  0  0  0  3  0  0  0  0  0  0
  188.4180  178.4490  139.6940 C   0  0  1  0  0  3  0  0  0  0  0  0
  188.2420  177.2600  138.7990 N   0  0  0  0  0  0  0  0  0  0  0  0
  188.1240  178.6790  138.3640 C   0  0  2  0  0  3  0  0  0  0  0  0
  189.3770  179.0770  137.6120 C   0  0  0  0  0  2  0  0  0  0  0  0
  189.3290  178.5320  136.2670 N   0  0  0  0  0  1  0  0  0  0  0  0
  188.6070  175.3950  137.3600 C   0  0  0  0  0  2  0  0  0  0  0  0
  188.2200  175.8610  138.5370 C   0  0  0  0  0  3  0  0  0  0  0  0
  1 20  1  1  0  0  0
  1 18  1  0  0  0  0
  2 16  1  0  0  0  0
  3  7  1  0  0  0  0
  4 18  1  0  0  0  0
  4  8  1  0  0  0  0
  5  2  1  0  0  0  0
  6  2  1  0  0  0  0
  6  4  1  0  0  0  0
  7  5  1  0  0  0  0
  7 19  1  0  0  0  0
  8 12  1  0  0  0  0
  9 13  1  0  0  0  0
  9  6  1  0  0  0  0
 10  1  1  0  0  0  0
 13  1  1  0  0  0  0
 14 15  1  0  0  0  0
 15  3  1  0  0  0  0
 16 11  1  0  0  0  0
 16 12  1  0  0  0  0
 17  9  1  0  0  0  0
 17  5  1  0  0  0  0
 19 23  1  0  0  0  0
 21 14  1  0  0  0  0
 21 15  1  0  0  0  0
 21 22  1  0  0  0  0
 22 17  1  0  0  0  0
 23 11  1  0  0  0  0
 24 25  1  0  0  0  0
 25 19  1  0  0  0  0
 25 26  2  0  0  0  0
 28 29  2  0  0  0  0
 29 26  1  0  0  0  0
 29 27  1  0  0  0  0
 30 24  2  0  0  0  0
 30 28  1  0  0  0  0
 31 22  1  0  0  0  0
 32 31  1  0  0  0  0
 33 32  1  0  0  0  0
 33 31  1  0  0  0  0
 34 33  1  0  0  0  0
 35 34  1  0  0  0  0
 36 37  2  0  0  0  0
 37 32  1  0  0  0  0
M  END
>  <MODEL>
9

>  <REMARK>
 VINA RESULT:      -6.1      3.195      6.710
  Name = 
  4 active torsions:
  status: ('A' for Active; 'I' for Inactive)
    1  A    between atoms: C_1  and  C_27
    2  A    between atoms: N_4  and  C_37
    3  A    between atoms: C_8  and  C_12
    4  A    between atoms: C_23  and  C_30
                            x       y       z     vdW  Elec       q    Type
                         _______ _______ _______ _____ _____    ______ ____

>  <TORSDO>
F 4

$$$$
