=
 OpenBabel11122410263D

 30 34  0  0  1  0  0  0  0  0999 V2000
  189.6330  175.2600  137.6740 C   0  0  1  0  0  3  0  0  0  0  0  0
  189.4060  173.0080  136.5660 C   0  0  0  0  0  0  0  0  0  0  0  0
  192.9450  175.9790  135.0890 N   0  0  0  0  0  2  0  0  0  0  0  0
  190.8650  176.0120  138.2250 C   0  0  2  0  0  3  0  0  0  0  0  0
  188.4770  176.1570  137.1930 C   0  0  0  0  0  2  0  0  0  0  0  0
  189.1340  179.1160  139.0310 O   0  0  0  0  0  0  0  0  0  0  0  0
  189.4250  178.0520  138.5080 C   0  0  0  0  0  0  0  0  0  0  0  0
  193.9110  176.2230  136.0930 C   0  0  0  0  0  0  0  0  0  0  0  0
  188.8060  177.6510  137.1910 C   0  0  2  0  0  3  0  0  0  0  0  0
  190.4640  177.1690  139.1490 C   0  0  1  0  0  3  0  0  0  0  0  0
  189.7490  172.1040  135.5570 C   0  0  0  0  0  3  0  0  0  0  0  0
  188.4520  172.6470  137.5100 O   0  0  0  0  0  1  0  0  0  0  0  0
  191.6200  175.9900  135.6910 C   0  0  2  0  0  3  0  0  0  0  0  0
  190.6960  172.4520  134.5940 C   0  0  0  0  0  3  0  0  0  0  0  0
  190.0220  174.2700  136.6180 C   0  0  0  0  0  0  0  0  0  0  0  0
  191.8360  176.5120  137.1320 C   0  0  2  0  0  3  0  0  0  0  0  0
  195.1430  176.2830  135.8400 O   0  0  0  0  0  0  0  0  0  0  0  0
  193.3430  176.3960  137.4480 C   0  0  1  0  0  3  0  0  0  0  0  0
  191.3120  173.7050  134.6400 C   0  0  0  0  0  3  0  0  0  0  0  0
  190.9950  174.6150  135.6600 C   0  0  0  0  0  0  0  0  0  0  0  0
  194.9120  175.4660  139.0870 O   0  0  0  0  0  0  0  0  0  0  0  0
  193.7570  175.2020  138.3240 C   0  0  2  0  0  3  0  0  0  0  0  0
  193.9540  173.9470  137.5140 C   0  0  0  0  0  2  0  0  0  0  0  0
  195.7010  174.3010  139.0540 C   0  0  0  0  0  2  0  0  0  0  0  0
  194.9710  173.2060  138.3110 C   0  0  0  0  0  2  0  0  0  0  0  0
  190.8480  177.1510  141.3300 C   0  0  0  0  0  1  0  0  0  0  0  0
  189.9750  176.6620  140.3570 O   0  0  0  0  0  0  0  0  0  0  0  0
  187.6440  178.3850  136.9390 O   0  0  0  0  0  0  0  0  0  0  0  0
  185.5590  178.3000  138.0770 C   0  0  0  0  0  1  0  0  0  0  0  0
  186.5980  177.5300  137.2910 C   0  0  0  0  0  2  0  0  0  0  0  0
  1  5  1  6  0  0  0
  1  4  1  0  0  0  0
  2 15  1  0  0  0  0
  2 12  1  0  0  0  0
  3 13  1  0  0  0  0
  3  8  1  0  0  0  0
  4 10  1  0  0  0  0
  7  6  2  0  0  0  0
  7 10  1  0  0  0  0
  8 18  1  0  0  0  0
  9  5  1  0  0  0  0
  9  7  1  0  0  0  0
 10 27  1  0  0  0  0
 11  2  2  0  0  0  0
 13 16  1  0  0  0  0
 14 19  2  0  0  0  0
 14 11  1  0  0  0  0
 15  1  1  0  0  0  0
 16 18  1  0  0  0  0
 16  4  1  0  0  0  0
 17  8  2  0  0  0  0
 18 22  1  0  0  0  0
 19 20  1  0  0  0  0
 20 13  1  0  0  0  0
 20 15  2  0  0  0  0
 22 21  1  0  0  0  0
 23 25  1  0  0  0  0
 23 22  1  0  0  0  0
 24 21  1  0  0  0  0
 25 24  1  0  0  0  0
 27 26  1  0  0  0  0
 28  9  1  0  0  0  0
 28 30  1  0  0  0  0
 30 29  1  0  0  0  0
M  END
>  <MODEL>
1

>  <REMARK>
 VINA RESULT:      -5.9      0.000      0.000
  Name = 
  4 active torsions:
  status: ('A' for Active; 'I' for Inactive)
    1  A    between atoms: C_9  and  C_22
    2  A    between atoms: C_11  and  O_28
    3  A    between atoms: C_12  and  O_27
    4  A    between atoms: O_28  and  C_30
                            x       y       z     vdW  Elec       q    Type
                         _______ _______ _______ _____ _____    ______ ____

>  <TORSDO>
F 4

$$$$
=
 OpenBabel11122410263D

 30 34  0  0  1  0  0  0  0  0999 V2000
  182.2230  179.4540  138.5750 C   0  0  1  0  0  3  0  0  0  0  0  0
  184.2370  179.2910  140.0790 C   0  0  0  0  0  0  0  0  0  0  0  0
  179.9740  177.6590  141.7200 N   0  0  0  0  0  2  0  0  0  0  0  0
  181.1220  178.4290  138.2200 C   0  0  2  0  0  3  0  0  0  0  0  0
  181.7940  180.9310  138.4940 C   0  0  0  0  0  2  0  0  0  0  0  0
  179.0520  180.6980  136.2590 O   0  0  0  0  0  0  0  0  0  0  0  0
  179.8500  180.2710  137.0790 C   0  0  0  0  0  0  0  0  0  0  0  0
  179.4950  176.5450  140.9910 C   0  0  0  0  0  0  0  0  0  0  0  0
  180.3000  181.1330  138.2320 C   0  0  2  0  0  3  0  0  0  0  0  0
  180.3300  178.8460  136.9740 C   0  0  1  0  0  3  0  0  0  0  0  0
  184.8110  179.0370  141.3270 C   0  0  0  0  0  3  0  0  0  0  0  0
  185.0500  179.6890  139.0230 O   0  0  0  0  0  1  0  0  0  0  0  0
  180.5500  178.6220  140.7940 C   0  0  2  0  0  3  0  0  0  0  0  0
  184.0110  178.6470  142.4020 C   0  0  0  0  0  3  0  0  0  0  0  0
  182.8520  179.1470  139.9000 C   0  0  0  0  0  0  0  0  0  0  0  0
  180.1600  178.1120  139.3860 C   0  0  2  0  0  3  0  0  0  0  0  0
  178.9330  175.5670  141.5490 O   0  0  0  0  0  0  0  0  0  0  0  0
  179.7180  176.6390  139.5310 C   0  0  1  0  0  3  0  0  0  0  0  0
  182.6330  178.5010  142.2300 C   0  0  0  0  0  3  0  0  0  0  0  0
  182.0450  178.7310  140.9770 C   0  0  0  0  0  0  0  0  0  0  0  0
  182.0380  175.8500  139.6200 O   0  0  0  0  0  0  0  0  0  0  0  0
  180.7530  175.5820  139.1100 C   0  0  2  0  0  3  0  0  0  0  0  0
  180.8180  175.4190  137.6140 C   0  0  0  0  0  2  0  0  0  0  0  0
  182.9560  175.5600  138.5940 C   0  0  0  0  0  2  0  0  0  0  0  0
  182.2290  174.9880  137.3990 C   0  0  0  0  0  2  0  0  0  0  0  0
  180.4080  177.8310  135.0080 C   0  0  0  0  0  1  0  0  0  0  0  0
  181.1260  178.6960  135.8350 O   0  0  0  0  0  0  0  0  0  0  0  0
  180.0500  182.4840  137.9750 O   0  0  0  0  0  0  0  0  0  0  0  0
  181.0700  184.1140  136.5780 C   0  0  0  0  0  1  0  0  0  0  0  0
  181.2850  183.0090  137.5890 C   0  0  0  0  0  2  0  0  0  0  0  0
  1  5  1  1  0  0  0
  1 15  1  0  0  0  0
  2 11  1  0  0  0  0
  4  1  1  0  0  0  0
  4 16  1  0  0  0  0
  6  7  2  0  0  0  0
  7  9  1  0  0  0  0
  8 17  2  0  0  0  0
  8  3  1  0  0  0  0
  9  5  1  0  0  0  0
 10  7  1  0  0  0  0
 10  4  1  0  0  0  0
 11 14  2  0  0  0  0
 12  2  1  0  0  0  0
 13 20  1  0  0  0  0
 13  3  1  0  0  0  0
 15  2  2  0  0  0  0
 15 20  1  0  0  0  0
 16 18  1  0  0  0  0
 16 13  1  0  0  0  0
 18  8  1  0  0  0  0
 19 14  1  0  0  0  0
 20 19  2  0  0  0  0
 22 18  1  0  0  0  0
 22 21  1  0  0  0  0
 23 22  1  0  0  0  0
 24 21  1  0  0  0  0
 25 23  1  0  0  0  0
 25 24  1  0  0  0  0
 26 27  1  0  0  0  0
 27 10  1  0  0  0  0
 28  9  1  0  0  0  0
 29 30  1  0  0  0  0
 30 28  1  0  0  0  0
M  END
>  <MODEL>
2

>  <REMARK>
 VINA RESULT:      -5.4      8.539     11.438
  Name = 
  4 active torsions:
  status: ('A' for Active; 'I' for Inactive)
    1  A    between atoms: C_9  and  C_22
    2  A    between atoms: C_11  and  O_28
    3  A    between atoms: C_12  and  O_27
    4  A    between atoms: O_28  and  C_30
                            x       y       z     vdW  Elec       q    Type
                         _______ _______ _______ _____ _____    ______ ____

>  <TORSDO>
F 4

$$$$
=
 OpenBabel11122410263D

 30 34  0  0  1  0  0  0  0  0999 V2000
  184.6640  175.4140  137.2130 C   0  0  1  0  0  3  0  0  0  0  0  0
  186.1500  173.3810  137.1140 C   0  0  0  0  0  0  0  0  0  0  0  0
  188.0490  177.7030  136.0030 N   0  0  0  0  0  2  0  0  0  0  0  0
  184.8820  176.8140  137.8300 C   0  0  2  0  0  3  0  0  0  0  0  0
  183.6950  175.3670  136.0180 C   0  0  0  0  0  2  0  0  0  0  0  0
  181.7890  178.2990  136.6010 O   0  0  0  0  0  0  0  0  0  0  0  0
  182.7710  177.5780  136.7030 C   0  0  0  0  0  0  0  0  0  0  0  0
  188.0740  178.5920  137.1030 C   0  0  0  0  0  0  0  0  0  0  0  0
  183.2330  176.7430  135.5350 C   0  0  2  0  0  3  0  0  0  0  0  0
  183.5650  177.5830  137.9840 C   0  0  1  0  0  3  0  0  0  0  0  0
  187.3550  172.7650  136.7650 C   0  0  0  0  0  3  0  0  0  0  0  0
  185.1380  172.6220  137.6920 O   0  0  0  0  0  1  0  0  0  0  0  0
  186.7900  176.9750  136.0060 C   0  0  2  0  0  3  0  0  0  0  0  0
  188.3780  173.5080  136.1740 C   0  0  0  0  0  3  0  0  0  0  0  0
  185.9680  174.7530  136.8770 C   0  0  0  0  0  0  0  0  0  0  0  0
  185.9210  177.6750  137.0780 C   0  0  2  0  0  3  0  0  0  0  0  0
  189.0470  179.3580  137.3280 O   0  0  0  0  0  0  0  0  0  0  0  0
  186.8630  178.5330  137.9520 C   0  0  1  0  0  3  0  0  0  0  0  0
  188.2020  174.8730  135.9370 C   0  0  0  0  0  3  0  0  0  0  0  0
  187.0070  175.5100  136.3020 C   0  0  0  0  0  0  0  0  0  0  0  0
  187.1190  178.8770  140.3670 O   0  0  0  0  0  0  0  0  0  0  0  0
  187.2360  177.9400  139.3210 C   0  0  2  0  0  3  0  0  0  0  0  0
  188.6200  177.3430  139.3200 C   0  0  0  0  0  2  0  0  0  0  0  0
  188.2250  178.6860  141.2160 C   0  0  0  0  0  2  0  0  0  0  0  0
  189.0400  177.5050  140.7410 C   0  0  0  0  0  2  0  0  0  0  0  0
  183.2820  177.6240  140.1800 C   0  0  0  0  0  1  0  0  0  0  0  0
  182.8060  177.0210  139.0140 O   0  0  0  0  0  0  0  0  0  0  0  0
  182.2110  176.5890  134.5940 O   0  0  0  0  0  0  0  0  0  0  0  0
  180.1800  175.3970  134.9120 C   0  0  0  0  0  1  0  0  0  0  0  0
  181.6900  175.3170  134.8370 C   0  0  0  0  0  2  0  0  0  0  0  0
  1  5  1  6  0  0  0
  1  4  1  0  0  0  0
  2 12  1  0  0  0  0
  3 13  1  0  0  0  0
  3  8  1  0  0  0  0
  4 10  1  0  0  0  0
  6  7  2  0  0  0  0
  7 10  1  0  0  0  0
  8 17  2  0  0  0  0
  8 18  1  0  0  0  0
  9  5  1  0  0  0  0
  9  7  1  0  0  0  0
 10 27  1  0  0  0  0
 11  2  2  0  0  0  0
 13 20  1  0  0  0  0
 13 16  1  0  0  0  0
 14 11  1  0  0  0  0
 15  2  1  0  0  0  0
 15  1  1  0  0  0  0
 16  4  1  0  0  0  0
 16 18  1  0  0  0  0
 18 22  1  0  0  0  0
 19 14  2  0  0  0  0
 19 20  1  0  0  0  0
 20 15  2  0  0  0  0
 21 24  1  0  0  0  0
 22 21  1  0  0  0  0
 23 22  1  0  0  0  0
 23 25  1  0  0  0  0
 25 24  1  0  0  0  0
 27 26  1  0  0  0  0
 28 30  1  0  0  0  0
 28  9  1  0  0  0  0
 30 29  1  0  0  0  0
M  END
>  <MODEL>
3

>  <REMARK>
 VINA RESULT:      -4.9      4.025      6.134
  Name = 
  4 active torsions:
  status: ('A' for Active; 'I' for Inactive)
    1  A    between atoms: C_9  and  C_22
    2  A    between atoms: C_11  and  O_28
    3  A    between atoms: C_12  and  O_27
    4  A    between atoms: O_28  and  C_30
                            x       y       z     vdW  Elec       q    Type
                         _______ _______ _______ _____ _____    ______ ____

>  <TORSDO>
F 4

$$$$
=
 OpenBabel11122410263D

 30 34  0  0  1  0  0  0  0  0999 V2000
  182.5060  179.0740  140.2370 C   0  0  1  0  0  3  0  0  0  0  0  0
  184.4160  178.6680  138.6450 C   0  0  0  0  0  0  0  0  0  0  0  0
  180.9910  175.2620  139.0800 N   0  0  0  0  0  2  0  0  0  0  0  0
  180.9800  178.8900  140.0760 C   0  0  2  0  0  3  0  0  0  0  0  0
  183.0350  178.9360  141.6760 C   0  0  0  0  0  2  0  0  0  0  0  0
  180.0990  179.6580  143.5280 O   0  0  0  0  0  0  0  0  0  0  0  0
  180.7260  179.3020  142.5420 C   0  0  0  0  0  0  0  0  0  0  0  0
  179.7220  175.6970  138.6290 C   0  0  0  0  0  0  0  0  0  0  0  0
  181.9810  178.4790  142.6870 C   0  0  2  0  0  3  0  0  0  0  0  0
  180.1960  179.6280  141.1690 C   0  0  1  0  0  3  0  0  0  0  0  0
  185.1400  177.8270  137.7960 C   0  0  0  0  0  3  0  0  0  0  0  0
  184.8460  179.9760  138.8380 O   0  0  0  0  0  1  0  0  0  0  0  0
  181.6300  176.3400  139.8180 C   0  0  2  0  0  3  0  0  0  0  0  0
  184.7310  176.5080  137.5980 C   0  0  0  0  0  3  0  0  0  0  0  0
  183.2670  178.1900  139.2960 C   0  0  0  0  0  0  0  0  0  0  0  0
  180.5300  177.4150  139.9960 C   0  0  2  0  0  3  0  0  0  0  0  0
  178.9490  174.9510  137.9740 O   0  0  0  0  0  0  0  0  0  0  0  0
  179.4000  177.0950  138.9930 C   0  0  1  0  0  3  0  0  0  0  0  0
  183.5890  176.0270  138.2420 C   0  0  0  0  0  3  0  0  0  0  0  0
  182.8390  176.8660  139.0790 C   0  0  0  0  0  0  0  0  0  0  0  0
  180.5500  177.8360  136.9580 O   0  0  0  0  0  0  0  0  0  0  0  0
  179.3700  177.9540  137.7180 C   0  0  2  0  0  3  0  0  0  0  0  0
  179.0970  179.4050  138.0190 C   0  0  0  0  0  2  0  0  0  0  0  0
  180.8710  179.1260  136.4950 C   0  0  0  0  0  2  0  0  0  0  0  0
  179.7900  180.1010  136.8990 C   0  0  0  0  0  2  0  0  0  0  0  0
  178.9310  181.4160  140.8470 C   0  0  0  0  0  1  0  0  0  0  0  0
  180.2610  181.0060  140.9500 O   0  0  0  0  0  0  0  0  0  0  0  0
  182.5000  178.5800  143.9810 O   0  0  0  0  0  0  0  0  0  0  0  0
  184.5170  179.0540  145.1460 C   0  0  0  0  0  1  0  0  0  0  0  0
  183.8140  179.0180  143.8060 C   0  0  0  0  0  2  0  0  0  0  0  0
  1  5  1  1  0  0  0
  2 12  1  0  0  0  0
  2 15  1  0  0  0  0
  3 13  1  0  0  0  0
  4  1  1  0  0  0  0
  4 10  1  0  0  0  0
  5  9  1  0  0  0  0
  7  9  1  0  0  0  0
  7  6  2  0  0  0  0
  8 18  1  0  0  0  0
  8  3  1  0  0  0  0
  9 28  1  0  0  0  0
 10  7  1  0  0  0  0
 11  2  2  0  0  0  0
 13 16  1  0  0  0  0
 14 11  1  0  0  0  0
 14 19  2  0  0  0  0
 15  1  1  0  0  0  0
 16  4  1  0  0  0  0
 17  8  2  0  0  0  0
 18 16  1  0  0  0  0
 19 20  1  0  0  0  0
 20 15  2  0  0  0  0
 20 13  1  0  0  0  0
 21 22  1  0  0  0  0
 22 23  1  0  0  0  0
 22 18  1  0  0  0  0
 24 25  1  0  0  0  0
 24 21  1  0  0  0  0
 25 23  1  0  0  0  0
 26 27  1  0  0  0  0
 27 10  1  0  0  0  0
 30 28  1  0  0  0  0
 30 29  1  0  0  0  0
M  END
>  <MODEL>
4

>  <REMARK>
 VINA RESULT:      -4.7      7.501     11.343
  Name = 
  4 active torsions:
  status: ('A' for Active; 'I' for Inactive)
    1  A    between atoms: C_9  and  C_22
    2  A    between atoms: C_11  and  O_28
    3  A    between atoms: C_12  and  O_27
    4  A    between atoms: O_28  and  C_30
                            x       y       z     vdW  Elec       q    Type
                         _______ _______ _______ _____ _____    ______ ____

>  <TORSDO>
F 4

$$$$
=
 OpenBabel11122410263D

 30 34  0  0  1  0  0  0  0  0999 V2000
  182.7000  179.7540  139.5620 C   0  0  1  0  0  3  0  0  0  0  0  0
  181.5110  181.0230  137.7380 C   0  0  0  0  0  0  0  0  0  0  0  0
  180.9850  176.2050  137.9410 N   0  0  0  0  0  2  0  0  0  0  0  0
  182.2150  178.6480  140.5250 C   0  0  2  0  0  3  0  0  0  0  0  0
  184.2040  179.7250  139.2330 C   0  0  0  0  0  2  0  0  0  0  0  0
  185.4580  177.9620  142.0420 O   0  0  0  0  0  0  0  0  0  0  0  0
  184.5980  178.3050  141.2440 C   0  0  0  0  0  0  0  0  0  0  0  0
  180.3140  175.7740  139.1100 C   0  0  0  0  0  0  0  0  0  0  0  0
  184.9400  178.5040  139.7880 C   0  0  2  0  0  3  0  0  0  0  0  0
  183.1730  178.4580  141.7080 C   0  0  1  0  0  3  0  0  0  0  0  0
  180.7710  181.0500  136.5530 C   0  0  0  0  0  3  0  0  0  0  0  0
  181.8810  182.2200  138.3390 O   0  0  0  0  0  1  0  0  0  0  0  0
  181.9140  177.2680  138.2900 C   0  0  2  0  0  3  0  0  0  0  0  0
  180.3990  179.8580  135.9300 C   0  0  0  0  0  3  0  0  0  0  0  0
  181.8750  179.7930  138.3110 C   0  0  0  0  0  0  0  0  0  0  0  0
  181.9390  177.2930  139.8370 C   0  0  2  0  0  3  0  0  0  0  0  0
  179.4630  174.8470  139.0940 O   0  0  0  0  0  0  0  0  0  0  0  0
  180.7040  176.5090  140.3340 C   0  0  1  0  0  3  0  0  0  0  0  0
  180.7580  178.6330  136.4950 C   0  0  0  0  0  3  0  0  0  0  0  0
  181.4800  178.5890  137.6970 C   0  0  0  0  0  0  0  0  0  0  0  0
  179.2310  178.4290  139.9390 O   0  0  0  0  0  0  0  0  0  0  0  0
  179.5140  177.3600  140.8110 C   0  0  2  0  0  3  0  0  0  0  0  0
  179.7160  177.8790  142.2110 C   0  0  0  0  0  2  0  0  0  0  0  0
  178.9310  179.5460  140.7420 C   0  0  0  0  0  2  0  0  0  0  0  0
  178.9310  179.1460  142.1990 C   0  0  0  0  0  2  0  0  0  0  0  0
  182.8120  178.9830  143.8290 C   0  0  0  0  0  1  0  0  0  0  0  0
  183.0720  179.5470  142.5790 O   0  0  0  0  0  0  0  0  0  0  0  0
  186.3170  178.6700  139.6150 O   0  0  0  0  0  0  0  0  0  0  0  0
  188.0010  177.7600  138.2060 C   0  0  0  0  0  1  0  0  0  0  0  0
  186.5680  178.2360  138.3120 C   0  0  0  0  0  2  0  0  0  0  0  0
  1  5  1  6  0  0  0
  1  4  1  0  0  0  0
  2 15  1  0  0  0  0
  2 12  1  0  0  0  0
  3 13  1  0  0  0  0
  3  8  1  0  0  0  0
  4 10  1  0  0  0  0
  5  9  1  0  0  0  0
  7 10  1  0  0  0  0
  7  6  2  0  0  0  0
  8 18  1  0  0  0  0
  9  7  1  0  0  0  0
 10 27  1  0  0  0  0
 11  2  2  0  0  0  0
 13 16  1  0  0  0  0
 14 19  2  0  0  0  0
 14 11  1  0  0  0  0
 15  1  1  0  0  0  0
 16 18  1  0  0  0  0
 16  4  1  0  0  0  0
 17  8  2  0  0  0  0
 18 22  1  0  0  0  0
 19 20  1  0  0  0  0
 20 13  1  0  0  0  0
 20 15  2  0  0  0  0
 21 24  1  0  0  0  0
 21 22  1  0  0  0  0
 22 23  1  0  0  0  0
 24 25  1  0  0  0  0
 25 23  1  0  0  0  0
 27 26  1  0  0  0  0
 28  9  1  0  0  0  0
 29 30  1  0  0  0  0
 30 28  1  0  0  0  0
M  END
>  <MODEL>
5

>  <REMARK>
 VINA RESULT:      -4.7      5.822     11.151
  Name = 
  4 active torsions:
  status: ('A' for Active; 'I' for Inactive)
    1  A    between atoms: C_9  and  C_22
    2  A    between atoms: C_11  and  O_28
    3  A    between atoms: C_12  and  O_27
    4  A    between atoms: O_28  and  C_30
                            x       y       z     vdW  Elec       q    Type
                         _______ _______ _______ _____ _____    ______ ____

>  <TORSDO>
F 4

$$$$
=
 OpenBabel11122410263D

 30 34  0  0  1  0  0  0  0  0999 V2000
  182.1180  178.4470  140.1390 C   0  0  1  0  0  3  0  0  0  0  0  0
  180.2910  179.1600  141.7210 C   0  0  0  0  0  0  0  0  0  0  0  0
  180.7800  181.5280  137.5160 N   0  0  0  0  0  2  0  0  0  0  0  0
  182.1120  178.1850  138.6160 C   0  0  2  0  0  3  0  0  0  0  0  0
  183.4690  178.9000  140.7210 C   0  0  0  0  0  2  0  0  0  0  0  0
  185.6980  177.6360  138.2700 O   0  0  0  0  0  0  0  0  0  0  0  0
  184.6180  178.0260  138.6880 C   0  0  0  0  0  0  0  0  0  0  0  0
  180.5160  180.7110  136.3920 C   0  0  0  0  0  0  0  0  0  0  0  0
  184.5430  179.1720  139.6660 C   0  0  2  0  0  3  0  0  0  0  0  0
  183.3510  177.4020  138.1640 C   0  0  1  0  0  3  0  0  0  0  0  0
  179.2900  180.0560  142.1050 C   0  0  0  0  0  3  0  0  0  0  0  0
  180.5580  178.0530  142.5180 O   0  0  0  0  0  1  0  0  0  0  0  0
  181.5400  180.7640  138.4920 C   0  0  2  0  0  3  0  0  0  0  0  0
  179.0140  181.1790  141.3240 C   0  0  0  0  0  3  0  0  0  0  0  0
  181.0170  179.3830  140.5390 C   0  0  0  0  0  0  0  0  0  0  0  0
  181.9420  179.4610  137.7610 C   0  0  2  0  0  3  0  0  0  0  0  0
  179.8850  181.1320  135.3880 O   0  0  0  0  0  0  0  0  0  0  0  0
  181.0460  179.3340  136.5090 C   0  0  1  0  0  3  0  0  0  0  0  0
  179.7330  181.4050  140.1480 C   0  0  0  0  0  3  0  0  0  0  0  0
  180.7250  180.5020  139.7370 C   0  0  0  0  0  0  0  0  0  0  0  0
  179.2550  178.3830  137.8880 O   0  0  0  0  0  0  0  0  0  0  0  0
  179.8700  178.3500  136.6210 C   0  0  2  0  0  3  0  0  0  0  0  0
  180.2790  176.9390  136.2860 C   0  0  0  0  0  2  0  0  0  0  0  0
  178.9680  177.0510  138.2400 C   0  0  0  0  0  2  0  0  0  0  0  0
  179.3300  176.1280  137.1000 C   0  0  0  0  0  2  0  0  0  0  0  0
  183.2870  175.3130  137.4330 C   0  0  0  0  0  1  0  0  0  0  0  0
  183.2580  176.0780  138.6000 O   0  0  0  0  0  0  0  0  0  0  0  0
  185.7750  179.3760  140.2950 O   0  0  0  0  0  0  0  0  0  0  0  0
  186.7380  178.4320  142.2530 C   0  0  0  0  0  1  0  0  0  0  0  0
  185.5330  179.1190  141.6460 C   0  0  0  0  0  2  0  0  0  0  0  0
  1 15  1  0  0  0  0
  1  5  1  6  0  0  0
  2 11  1  0  0  0  0
  2 12  1  0  0  0  0
  3 13  1  0  0  0  0
  4  1  1  0  0  0  0
  6  7  2  0  0  0  0
  7  9  1  0  0  0  0
  8 18  1  0  0  0  0
  8  3  1  0  0  0  0
  9 28  1  0  0  0  0
  9  5  1  0  0  0  0
 10 27  1  0  0  0  0
 10  4  1  0  0  0  0
 10  7  1  0  0  0  0
 13 20  1  0  0  0  0
 14 11  2  0  0  0  0
 15  2  2  0  0  0  0
 16 13  1  0  0  0  0
 16  4  1  0  0  0  0
 17  8  2  0  0  0  0
 18 22  1  0  0  0  0
 18 16  1  0  0  0  0
 19 14  1  0  0  0  0
 20 19  2  0  0  0  0
 20 15  1  0  0  0  0
 21 24  1  0  0  0  0
 22 21  1  0  0  0  0
 23 22  1  0  0  0  0
 23 25  1  0  0  0  0
 25 24  1  0  0  0  0
 26 27  1  0  0  0  0
 28 30  1  0  0  0  0
 30 29  1  0  0  0  0
M  END
>  <MODEL>
6

>  <REMARK>
 VINA RESULT:      -4.6      7.437     11.517
  Name = 
  4 active torsions:
  status: ('A' for Active; 'I' for Inactive)
    1  A    between atoms: C_9  and  C_22
    2  A    between atoms: C_11  and  O_28
    3  A    between atoms: C_12  and  O_27
    4  A    between atoms: O_28  and  C_30
                            x       y       z     vdW  Elec       q    Type
                         _______ _______ _______ _____ _____    ______ ____

>  <TORSDO>
F 4

$$$$
=
 OpenBabel11122410263D

 30 34  0  0  1  0  0  0  0  0999 V2000
  184.0870  175.9790  137.6250 C   0  0  1  0  0  3  0  0  0  0  0  0
  185.1470  173.7980  136.9420 C   0  0  0  0  0  0  0  0  0  0  0  0
  187.3790  177.9380  135.7570 N   0  0  0  0  0  2  0  0  0  0  0  0
  184.6790  177.2450  138.2840 C   0  0  2  0  0  3  0  0  0  0  0  0
  182.8520  176.2170  136.7380 C   0  0  0  0  0  2  0  0  0  0  0  0
  181.6590  179.2740  138.0800 O   0  0  0  0  0  0  0  0  0  0  0  0
  182.5040  178.4230  137.8470 C   0  0  0  0  0  0  0  0  0  0  0  0
  187.8260  178.6640  136.8860 C   0  0  0  0  0  0  0  0  0  0  0  0
  182.5120  177.6940  136.5260 C   0  0  2  0  0  3  0  0  0  0  0  0
  183.5870  178.1550  138.8590 C   0  0  1  0  0  3  0  0  0  0  0  0
  186.1080  173.0790  136.2260 C   0  0  0  0  0  3  0  0  0  0  0  0
  184.2070  173.1100  137.7010 O   0  0  0  0  0  1  0  0  0  0  0  0
  186.0610  177.3890  136.0350 C   0  0  2  0  0  3  0  0  0  0  0  0
  187.0540  173.7500  135.4500 C   0  0  0  0  0  3  0  0  0  0  0  0
  185.1370  175.2010  136.8900 C   0  0  0  0  0  0  0  0  0  0  0  0
  185.6190  178.0520  137.3620 C   0  0  2  0  0  3  0  0  0  0  0  0
  188.9350  179.2580  136.9080 O   0  0  0  0  0  0  0  0  0  0  0  0
  186.8780  178.6560  138.0220 C   0  0  1  0  0  3  0  0  0  0  0  0
  187.0480  175.1450  135.3950 C   0  0  0  0  0  3  0  0  0  0  0  0
  186.1050  175.8820  136.1270 C   0  0  0  0  0  0  0  0  0  0  0  0
  187.6910  178.6210  140.3360 O   0  0  0  0  0  0  0  0  0  0  0  0
  187.4850  177.8440  139.1790 C   0  0  2  0  0  3  0  0  0  0  0  0
  188.7710  177.1670  138.7800 C   0  0  0  0  0  2  0  0  0  0  0  0
  188.9340  178.2370  140.8730 C   0  0  0  0  0  2  0  0  0  0  0  0
  189.5070  177.0900  140.0740 C   0  0  0  0  0  2  0  0  0  0  0  0
  183.7810  178.0790  141.0640 C   0  0  0  0  0  1  0  0  0  0  0  0
  183.0340  177.5690  140.0010 O   0  0  0  0  0  0  0  0  0  0  0  0
  181.2740  177.8020  135.8870 O   0  0  0  0  0  0  0  0  0  0  0  0
  181.0770  179.7870  134.5940 C   0  0  0  0  0  1  0  0  0  0  0  0
  181.5640  178.3540  134.6380 C   0  0  0  0  0  2  0  0  0  0  0  0
  1  5  1  6  0  0  0
  1  4  1  0  0  0  0
  2 12  1  0  0  0  0
  3 13  1  0  0  0  0
  3  8  1  0  0  0  0
  4 10  1  0  0  0  0
  7  6  2  0  0  0  0
  7 10  1  0  0  0  0
  8 17  2  0  0  0  0
  8 18  1  0  0  0  0
  9  5  1  0  0  0  0
  9  7  1  0  0  0  0
 10 27  1  0  0  0  0
 11  2  2  0  0  0  0
 13 20  1  0  0  0  0
 13 16  1  0  0  0  0
 14 11  1  0  0  0  0
 15  2  1  0  0  0  0
 15  1  1  0  0  0  0
 16 18  1  0  0  0  0
 16  4  1  0  0  0  0
 18 22  1  0  0  0  0
 19 14  2  0  0  0  0
 19 20  1  0  0  0  0
 20 15  2  0  0  0  0
 21 24  1  0  0  0  0
 22 21  1  0  0  0  0
 23 22  1  0  0  0  0
 23 25  1  0  0  0  0
 25 24  1  0  0  0  0
 27 26  1  0  0  0  0
 28  9  1  0  0  0  0
 29 30  1  0  0  0  0
 30 28  1  0  0  0  0
M  END
>  <MODEL>
7

>  <REMARK>
 VINA RESULT:      -4.5      4.165      6.207
  Name = 
  4 active torsions:
  status: ('A' for Active; 'I' for Inactive)
    1  A    between atoms: C_9  and  C_22
    2  A    between atoms: C_11  and  O_28
    3  A    between atoms: C_12  and  O_27
    4  A    between atoms: O_28  and  C_30
                            x       y       z     vdW  Elec       q    Type
                         _______ _______ _______ _____ _____    ______ ____

>  <TORSDO>
F 4

$$$$
=
 OpenBabel11122410263D

 30 34  0  0  1  0  0  0  0  0999 V2000
  190.4720  175.9010  138.8870 C   0  0  1  0  0  3  0  0  0  0  0  0
  189.6800  176.7710  141.1150 C   0  0  0  0  0  0  0  0  0  0  0  0
  188.3820  179.1540  137.0940 N   0  0  0  0  0  2  0  0  0  0  0  0
  189.7280  175.6700  137.5530 C   0  0  2  0  0  3  0  0  0  0  0  0
  191.9770  176.1990  138.7560 C   0  0  0  0  0  2  0  0  0  0  0  0
  192.6610  174.7560  135.5910 O   0  0  0  0  0  0  0  0  0  0  0  0
  191.9470  175.2490  136.4510 C   0  0  0  0  0  0  0  0  0  0  0  0
  187.5420  178.3900  136.2490 C   0  0  0  0  0  0  0  0  0  0  0  0
  192.4550  176.3780  137.3140 C   0  0  2  0  0  3  0  0  0  0  0  0
  190.5260  174.7710  136.6000 C   0  0  1  0  0  3  0  0  0  0  0  0
  189.0710  177.7600  141.8930 C   0  0  0  0  0  3  0  0  0  0  0  0
  190.1760  175.6280  141.7310 O   0  0  0  0  0  1  0  0  0  0  0  0
  189.4290  178.2960  137.6260 C   0  0  2  0  0  3  0  0  0  0  0  0
  188.5770  178.9200  141.2950 C   0  0  0  0  0  3  0  0  0  0  0  0
  189.7880  176.9390  139.7240 C   0  0  0  0  0  0  0  0  0  0  0  0
  189.3090  176.9720  136.8350 C   0  0  2  0  0  3  0  0  0  0  0  0
  186.5610  178.8930  135.6440 O   0  0  0  0  0  0  0  0  0  0  0  0
  187.9240  176.9630  136.1510 C   0  0  1  0  0  3  0  0  0  0  0  0
  188.6820  179.0920  139.9130 C   0  0  0  0  0  3  0  0  0  0  0  0
  189.2690  178.0980  139.1150 C   0  0  0  0  0  0  0  0  0  0  0  0
  186.1640  175.2700  135.9220 O   0  0  0  0  0  0  0  0  0  0  0  0
  186.8430  176.1050  136.8310 C   0  0  2  0  0  3  0  0  0  0  0  0
  185.8530  176.9450  137.5950 C   0  0  0  0  0  2  0  0  0  0  0  0
  184.8020  175.2980  136.2770 C   0  0  0  0  0  2  0  0  0  0  0  0
  184.6150  176.1170  137.5330 C   0  0  0  0  0  2  0  0  0  0  0  0
  189.2140  173.0030  136.8430 C   0  0  0  0  0  1  0  0  0  0  0  0
  190.5150  173.4550  137.0720 O   0  0  0  0  0  0  0  0  0  0  0  0
  193.8510  176.4400  137.2880 O   0  0  0  0  0  0  0  0  0  0  0  0
  195.2730  174.6160  137.8360 C   0  0  0  0  0  1  0  0  0  0  0  0
  194.2640  175.6250  138.3430 C   0  0  0  0  0  2  0  0  0  0  0  0
  1  5  1  6  0  0  0
  1 15  1  0  0  0  0
  2 12  1  0  0  0  0
  2 11  1  0  0  0  0
  3 13  1  0  0  0  0
  4  1  1  0  0  0  0
  6  7  2  0  0  0  0
  7 10  1  0  0  0  0
  7  9  1  0  0  0  0
  8  3  1  0  0  0  0
  9  5  1  0  0  0  0
 10 27  1  0  0  0  0
 10  4  1  0  0  0  0
 13 20  1  0  0  0  0
 14 11  2  0  0  0  0
 15  2  2  0  0  0  0
 16  4  1  0  0  0  0
 16 13  1  0  0  0  0
 17  8  2  0  0  0  0
 18  8  1  0  0  0  0
 18 22  1  0  0  0  0
 18 16  1  0  0  0  0
 19 14  1  0  0  0  0
 20 15  1  0  0  0  0
 20 19  2  0  0  0  0
 21 24  1  0  0  0  0
 21 22  1  0  0  0  0
 22 23  1  0  0  0  0
 24 25  1  0  0  0  0
 25 23  1  0  0  0  0
 26 27  1  0  0  0  0
 28  9  1  0  0  0  0
 28 30  1  0  0  0  0
 29 30  1  0  0  0  0
M  END
>  <MODEL>
8

>  <REMARK>
 VINA RESULT:      -4.4      2.014      6.802
  Name = 
  4 active torsions:
  status: ('A' for Active; 'I' for Inactive)
    1  A    between atoms: C_9  and  C_22
    2  A    between atoms: C_11  and  O_28
    3  A    between atoms: C_12  and  O_27
    4  A    between atoms: O_28  and  C_30
                            x       y       z     vdW  Elec       q    Type
                         _______ _______ _______ _____ _____    ______ ____

>  <TORSDO>
F 4

$$$$
=
 OpenBabel11122410263D

 30 34  0  0  1  0  0  0  0  0999 V2000
  184.8170  176.9450  137.5890 C   0  0  1  0  0  3  0  0  0  0  0  0
  183.9510  178.7770  139.0860 C   0  0  0  0  0  0  0  0  0  0  0  0
  181.0820  177.1180  135.5450 N   0  0  0  0  0  2  0  0  0  0  0  0
  184.1700  175.6320  137.0960 C   0  0  2  0  0  3  0  0  0  0  0  0
  185.8790  177.5470  136.6500 C   0  0  0  0  0  2  0  0  0  0  0  0
  186.8580  174.6630  134.8340 O   0  0  0  0  0  0  0  0  0  0  0  0
  186.1010  175.3370  135.5160 C   0  0  0  0  0  0  0  0  0  0  0  0
  180.7090  175.7660  135.7280 C   0  0  0  0  0  0  0  0  0  0  0  0
  186.0010  176.8270  135.3050 C   0  0  2  0  0  3  0  0  0  0  0  0
  185.2100  174.6600  136.5250 C   0  0  1  0  0  3  0  0  0  0  0  0
  182.9970  179.7490  139.3990 C   0  0  0  0  0  3  0  0  0  0  0  0
  185.0650  178.6270  139.9040 O   0  0  0  0  0  1  0  0  0  0  0  0
  182.4830  177.2780  135.8990 C   0  0  2  0  0  3  0  0  0  0  0  0
  181.8770  179.9220  138.5850 C   0  0  0  0  0  3  0  0  0  0  0  0
  183.7800  177.9650  137.9540 C   0  0  0  0  0  0  0  0  0  0  0  0
  183.0190  175.8390  136.0870 C   0  0  2  0  0  3  0  0  0  0  0  0
  179.5480  175.3480  135.4780 O   0  0  0  0  0  0  0  0  0  0  0  0
  181.7990  174.9040  136.2360 C   0  0  1  0  0  3  0  0  0  0  0  0
  181.7020  179.1170  137.4580 C   0  0  0  0  0  3  0  0  0  0  0  0
  182.6390  178.1220  137.1430 C   0  0  0  0  0  0  0  0  0  0  0  0
  180.7260  173.2590  137.7060 O   0  0  0  0  0  0  0  0  0  0  0  0
  181.4620  174.4600  137.6700 C   0  0  2  0  0  3  0  0  0  0  0  0
  180.7330  175.5320  138.4370 C   0  0  0  0  0  2  0  0  0  0  0  0
  179.7410  173.4110  138.6990 C   0  0  0  0  0  2  0  0  0  0  0  0
  179.9160  174.7390  139.3990 C   0  0  0  0  0  2  0  0  0  0  0  0
  185.3010  172.9850  137.9710 C   0  0  0  0  0  1  0  0  0  0  0  0
  185.9840  174.1310  137.5620 O   0  0  0  0  0  0  0  0  0  0  0  0
  187.1160  177.3120  134.6150 O   0  0  0  0  0  0  0  0  0  0  0  0
  189.3640  177.4260  135.3770 C   0  0  0  0  0  1  0  0  0  0  0  0
  187.9330  177.8650  135.6020 C   0  0  0  0  0  2  0  0  0  0  0  0
  1  5  1  6  0  0  0
  1 15  1  0  0  0  0
  2 11  1  0  0  0  0
  2 12  1  0  0  0  0
  3  8  1  0  0  0  0
  3 13  1  0  0  0  0
  4  1  1  0  0  0  0
  6  7  2  0  0  0  0
  7 10  1  0  0  0  0
  8 18  1  0  0  0  0
  9  7  1  0  0  0  0
  9  5  1  0  0  0  0
 10  4  1  0  0  0  0
 10 27  1  0  0  0  0
 13 16  1  0  0  0  0
 13 20  1  0  0  0  0
 14 11  2  0  0  0  0
 15  2  2  0  0  0  0
 16 18  1  0  0  0  0
 16  4  1  0  0  0  0
 17  8  2  0  0  0  0
 18 22  1  0  0  0  0
 19 14  1  0  0  0  0
 20 19  2  0  0  0  0
 20 15  1  0  0  0  0
 21 24  1  0  0  0  0
 22 21  1  0  0  0  0
 22 23  1  0  0  0  0
 23 25  1  0  0  0  0
 24 25  1  0  0  0  0
 27 26  1  0  0  0  0
 28  9  1  0  0  0  0
 28 30  1  0  0  0  0
 29 30  1  0  0  0  0
M  END
>  <MODEL>
9

>  <REMARK>
 VINA RESULT:      -4.4      5.210      9.787
  Name = 
  4 active torsions:
  status: ('A' for Active; 'I' for Inactive)
    1  A    between atoms: C_9  and  C_22
    2  A    between atoms: C_11  and  O_28
    3  A    between atoms: C_12  and  O_27
    4  A    between atoms: O_28  and  C_30
                            x       y       z     vdW  Elec       q    Type
                         _______ _______ _______ _____ _____    ______ ____

>  <TORSDO>
F 4

$$$$
