=
 OpenBabel11122412073D

 34 40  0  0  1  0  0  0  0  0999 V2000
  182.2510  178.5330  143.3510 C   0  0  2  0  0  3  0  0  0  0  0  0
  183.7000  178.8090  145.3710 C   0  0  0  0  0  2  0  0  0  0  0  0
  180.8070  179.8890  137.4880 C   0  0  1  0  0  3  0  0  0  0  0  0
  180.9150  178.2270  141.2110 C   0  0  0  0  0  0  0  0  0  0  0  0
  182.1090  178.2690  138.9920 C   0  0  1  0  0  3  0  0  0  0  0  0
  182.3770  180.6810  139.0980 O   0  0  0  0  0  1  0  0  0  0  0  0
  181.0580  180.7040  136.3850 O   0  0  0  0  0  1  0  0  0  0  0  0
  179.2020  178.4530  138.0330 C   0  0  0  0  0  2  0  0  0  0  0  0
  184.6730  179.3990  143.2120 C   0  0  2  0  0  3  0  0  0  0  0  0
  187.5910  178.0220  142.8430 C   0  0  0  0  0  2  0  0  0  0  0  0
  183.3650  177.9880  139.8160 C   0  0  0  0  0  2  0  0  0  0  0  0
  179.7310  177.4950  139.0960 C   0  0  0  0  0  2  0  0  0  0  0  0
  184.6570  178.5410  141.9280 C   0  0  1  0  0  3  0  0  0  0  0  0
  185.1510  179.1610  145.5920 C   0  0  0  0  0  2  0  0  0  0  0  0
  180.8900  178.0690  139.7790 N   0  0  0  0  0  0  0  0  0  0  0  0
  180.1880  178.7040  137.0680 O   0  0  0  0  0  0  0  0  0  0  0  0
  186.5920  177.8120  143.9770 C   0  0  2  0  0  3  0  0  0  0  0  0
  182.1020  178.9070  141.8720 C   0  0  2  0  0  3  0  0  0  0  0  0
  182.1170  179.6130  138.2360 C   0  0  2  0  0  3  0  0  0  0  0  0
  183.4280  178.8690  141.0680 C   0  0  2  0  0  3  0  0  0  0  0  0
  179.8570  177.8550  143.4580 C   0  0  0  0  0  2  0  0  0  0  0  0
  186.9710  177.7390  141.4840 C   0  0  0  0  0  2  0  0  0  0  0  0
  179.8680  177.8270  141.9530 C   0  0  0  0  0  3  0  0  0  0  0  0
  185.9290  178.7820  141.1250 C   0  0  0  0  0  2  0  0  0  0  0  0
  185.8110  179.1230  144.2190 C   0  0  1  0  0  3  0  0  0  0  0  0
  180.9150  178.7910  144.0370 C   0  0  0  0  0  2  0  0  0  0  0  0
  183.3560  179.3630  144.0060 C   0  0  1  0  0  3  0  0  0  0  0  0
  187.3740  177.3830  145.2140 C   0  0  0  0  0  2  0  0  0  0  0  0
  188.8140  177.0670  144.8430 C   0  0  0  0  0  2  0  0  0  0  0  0
  191.0630  176.5520  147.3550 C   0  0  0  0  0  3  0  0  0  0  0  0
  191.1040  177.5280  145.4120 O   0  0  0  0  0  0  0  0  0  0  0  0
  189.7620  177.7580  145.8060 C   0  0  2  0  0  3  0  0  0  0  0  0
  191.8140  176.8250  146.3470 N   0  0  0  0  0  0  0  0  0  0  0  0
  189.6810  177.0850  147.1730 C   0  0  0  0  0  2  0  0  0  0  0  0
  1 27  1  0  0  0  0
  1 26  1  1  0  0  0
  2 14  1  0  0  0  0
  3  7  1  6  0  0  0
  3 19  1  0  0  0  0
  4 18  1  0  0  0  0
  4 23  2  0  0  0  0
  5 15  1  0  0  0  0
  5 11  1  1  0  0  0
  8 12  1  0  0  0  0
  9 27  1  0  0  0  0
  9 25  1  0  0  0  0
 10 17  1  0  0  0  0
 11 20  1  0  0  0  0
 12 15  1  0  0  0  0
 13  9  1  0  0  0  0
 15  4  1  0  0  0  0
 16  3  1  0  0  0  0
 16  8  1  0  0  0  0
 17 25  1  0  0  0  0
 17 28  1  0  0  0  0
 18  1  1  0  0  0  0
 19  5  1  0  0  0  0
 19  6  1  0  0  0  0
 20 18  1  0  0  0  0
 20 13  1  0  0  0  0
 21 26  1  0  0  0  0
 22 10  1  0  0  0  0
 23 21  1  0  0  0  0
 24 22  1  0  0  0  0
 24 13  1  0  0  0  0
 25 14  1  0  0  0  0
 27  2  1  0  0  0  0
 29 28  1  0  0  0  0
 29 32  1  0  0  0  0
 31 32  1  0  0  0  0
 31 33  1  0  0  0  0
 32 34  1  0  0  0  0
 33 30  2  0  0  0  0
 34 30  1  0  0  0  0
M  END
>  <MODEL>
1

>  <REMARK>
 VINA RESULT:      -9.9      0.000      0.000
  Name = 
  3 active torsions:
  status: ('A' for Active; 'I' for Inactive)
    1  A    between atoms: C_17  and  C_28
    2  A    between atoms: C_28  and  C_29
    3  A    between atoms: C_29  and  C_32
                            x       y       z     vdW  Elec       q    Type
                         _______ _______ _______ _____ _____    ______ ____

>  <TORSDO>
F 3

$$$$
=
 OpenBabel11122412073D

 34 40  0  0  1  0  0  0  0  0999 V2000
  188.3550  177.5170  138.4130 C   0  0  2  0  0  3  0  0  0  0  0  0
  186.8900  178.5920  140.1330 C   0  0  0  0  0  2  0  0  0  0  0  0
  193.9460  176.1100  136.1660 C   0  0  1  0  0  3  0  0  0  0  0  0
  189.9220  176.3520  136.7870 C   0  0  0  0  0  0  0  0  0  0  0  0
  192.0310  175.2800  137.6570 C   0  0  1  0  0  3  0  0  0  0  0  0
  193.0980  177.4430  137.9510 O   0  0  0  0  0  1  0  0  0  0  0  0
  195.3240  176.3030  136.2640 O   0  0  0  0  0  1  0  0  0  0  0  0
  192.6030  175.2050  134.6460 C   0  0  0  0  0  2  0  0  0  0  0  0
  189.1750  178.0480  140.7960 C   0  0  2  0  0  3  0  0  0  0  0  0
  189.2110  176.4540  143.6250 C   0  0  0  0  0  2  0  0  0  0  0  0
  191.3310  175.3240  139.0160 C   0  0  0  0  0  2  0  0  0  0  0  0
  191.2880  174.8120  135.3140 C   0  0  0  0  0  2  0  0  0  0  0  0
  189.8970  176.6980  140.5950 C   0  0  1  0  0  3  0  0  0  0  0  0
  187.0380  178.9030  141.6020 C   0  0  0  0  0  2  0  0  0  0  0  0
  191.1000  175.5530  136.5610 N   0  0  0  0  0  0  0  0  0  0  0  0
  193.6850  174.9120  135.4880 O   0  0  0  0  0  0  0  0  0  0  0  0
  187.9980  176.8620  142.7940 C   0  0  2  0  0  3  0  0  0  0  0  0
  189.8060  177.1750  138.0590 C   0  0  2  0  0  3  0  0  0  0  0  0
  193.3220  176.1190  137.5660 C   0  0  2  0  0  3  0  0  0  0  0  0
  190.6530  176.6770  139.2590 C   0  0  2  0  0  3  0  0  0  0  0  0
  187.6520  177.1360  136.0540 C   0  0  0  0  0  2  0  0  0  0  0  0
  190.1930  175.6200  142.8190 C   0  0  0  0  0  2  0  0  0  0  0  0
  188.9590  176.4140  135.8530 C   0  0  0  0  0  3  0  0  0  0  0  0
  190.8680  176.4500  141.7420 C   0  0  0  0  0  2  0  0  0  0  0  0
  188.3030  178.1880  142.0620 C   0  0  1  0  0  3  0  0  0  0  0  0
  187.7110  178.1550  137.1880 C   0  0  0  0  0  2  0  0  0  0  0  0
  188.3030  178.4760  139.6030 C   0  0  1  0  0  3  0  0  0  0  0  0
  186.8100  177.0000  143.7410 C   0  0  0  0  0  2  0  0  0  0  0  0
  187.2880  177.3600  145.1370 C   0  0  0  0  0  2  0  0  0  0  0  0
  184.2100  178.7330  145.6670 C   0  0  0  0  0  3  0  0  0  0  0  0
  185.9640  178.3370  146.8900 O   0  0  0  0  0  0  0  0  0  0  0  0
  186.5620  178.5970  145.6320 C   0  0  2  0  0  3  0  0  0  0  0  0
  184.5990  178.4300  146.8550 N   0  0  0  0  0  0  0  0  0  0  0  0
  185.3630  178.8810  144.7300 C   0  0  0  0  0  2  0  0  0  0  0  0
  1 26  1  6  0  0  0
  1 27  1  0  0  0  0
  2 14  1  0  0  0  0
  3  7  1  1  0  0  0
  3 19  1  0  0  0  0
  4 18  1  0  0  0  0
  5 11  1  1  0  0  0
  8 12  1  0  0  0  0
  8 16  1  0  0  0  0
  9 25  1  0  0  0  0
 11 20  1  0  0  0  0
 12 15  1  0  0  0  0
 13  9  1  0  0  0  0
 13 24  1  0  0  0  0
 14 25  1  0  0  0  0
 15  4  1  0  0  0  0
 15  5  1  0  0  0  0
 16  3  1  0  0  0  0
 17 10  1  0  0  0  0
 17 28  1  0  0  0  0
 18  1  1  0  0  0  0
 18 20  1  0  0  0  0
 19  5  1  0  0  0  0
 19  6  1  0  0  0  0
 20 13  1  0  0  0  0
 21 26  1  0  0  0  0
 22 10  1  0  0  0  0
 23 21  1  0  0  0  0
 23  4  2  0  0  0  0
 24 22  1  0  0  0  0
 25 17  1  0  0  0  0
 27  2  1  0  0  0  0
 27  9  1  0  0  0  0
 28 29  1  0  0  0  0
 29 32  1  0  0  0  0
 30 33  2  0  0  0  0
 32 31  1  0  0  0  0
 33 31  1  0  0  0  0
 34 32  1  0  0  0  0
 34 30  1  0  0  0  0
M  END
>  <MODEL>
2

>  <REMARK>
 VINA RESULT:      -8.2      5.553      8.716
  Name = 
  3 active torsions:
  status: ('A' for Active; 'I' for Inactive)
    1  A    between atoms: C_17  and  C_28
    2  A    between atoms: C_28  and  C_29
    3  A    between atoms: C_29  and  C_32
                            x       y       z     vdW  Elec       q    Type
                         _______ _______ _______ _____ _____    ______ ____

>  <TORSDO>
F 3

$$$$
=
 OpenBabel11122412073D

 34 40  0  0  1  0  0  0  0  0999 V2000
  186.6870  178.1470  141.4200 C   0  0  2  0  0  3  0  0  0  0  0  0
  189.1560  177.7500  141.3240 C   0  0  0  0  0  2  0  0  0  0  0  0
  181.5380  180.8230  139.2730 C   0  0  1  0  0  3  0  0  0  0  0  0
  184.1740  178.5140  141.3590 C   0  0  0  0  0  0  0  0  0  0  0  0
  183.0100  178.7270  139.1340 C   0  0  1  0  0  3  0  0  0  0  0  0
  183.8720  180.9750  138.8140 O   0  0  0  0  0  1  0  0  0  0  0  0
  180.9900  181.7620  138.3990 O   0  0  0  0  0  1  0  0  0  0  0  0
  180.7620  179.6610  140.9980 C   0  0  0  0  0  2  0  0  0  0  0  0
  188.0700  178.5240  139.2800 C   0  0  2  0  0  3  0  0  0  0  0  0
  188.9320  176.6860  136.7450 C   0  0  0  0  0  2  0  0  0  0  0  0
  184.2610  178.0540  138.5680 C   0  0  0  0  0  2  0  0  0  0  0  0
  181.6470  178.4360  141.2130 C   0  0  0  0  0  2  0  0  0  0  0  0
  186.7940  177.9390  138.6350 C   0  0  1  0  0  3  0  0  0  0  0  0
  190.1860  177.7600  140.2210 C   0  0  0  0  0  2  0  0  0  0  0  0
  182.9590  178.6320  140.5940 N   0  0  0  0  0  0  0  0  0  0  0  0
  180.5610  179.8840  139.6290 O   0  0  0  0  0  0  0  0  0  0  0  0
  189.2730  176.4730  138.2170 C   0  0  2  0  0  3  0  0  0  0  0  0
  185.5090  178.8100  140.6980 C   0  0  2  0  0  3  0  0  0  0  0  0
  182.7560  180.1590  138.6200 C   0  0  2  0  0  3  0  0  0  0  0  0
  185.5410  178.6580  139.1550 C   0  0  2  0  0  3  0  0  0  0  0  0
  185.3440  177.9510  143.5080 C   0  0  0  0  0  2  0  0  0  0  0  0
  187.4320  176.7890  136.5220 C   0  0  0  0  0  2  0  0  0  0  0  0
  184.1220  178.2000  142.6650 C   0  0  0  0  0  3  0  0  0  0  0  0
  186.8720  178.0660  137.1200 C   0  0  0  0  0  2  0  0  0  0  0  0
  189.4080  177.8450  138.9140 C   0  0  1  0  0  3  0  0  0  0  0  0
  186.6130  178.5340  142.8920 C   0  0  0  0  0  2  0  0  0  0  0  0
  188.0150  178.6050  140.8150 C   0  0  1  0  0  3  0  0  0  0  0  0
  190.5720  175.6760  138.2830 C   0  0  0  0  0  2  0  0  0  0  0  0
  191.5940  176.2530  137.3170 C   0  0  0  0  0  2  0  0  0  0  0  0
  194.6300  174.8420  136.6620 C   0  0  0  0  0  3  0  0  0  0  0  0
  193.9180  176.8420  137.1350 O   0  0  0  0  0  0  0  0  0  0  0  0
  192.9960  176.0450  137.8590 C   0  0  2  0  0  3  0  0  0  0  0  0
  194.8440  176.0940  136.4600 N   0  0  0  0  0  0  0  0  0  0  0  0
  193.4550  174.6210  137.5560 C   0  0  0  0  0  2  0  0  0  0  0  0
  1 26  1  1  0  0  0
  3  7  1  6  0  0  0
  3 16  1  0  0  0  0
  4 23  2  0  0  0  0
  5 11  1  1  0  0  0
  5 15  1  0  0  0  0
  8 12  1  0  0  0  0
  9 27  1  0  0  0  0
 10 17  1  0  0  0  0
 11 20  1  0  0  0  0
 13 20  1  0  0  0  0
 13  9  1  0  0  0  0
 14  2  1  0  0  0  0
 15 12  1  0  0  0  0
 15  4  1  0  0  0  0
 16  8  1  0  0  0  0
 17 28  1  0  0  0  0
 17 25  1  0  0  0  0
 18  4  1  0  0  0  0
 18  1  1  0  0  0  0
 19  6  1  0  0  0  0
 19  5  1  0  0  0  0
 19  3  1  0  0  0  0
 20 18  1  0  0  0  0
 22 10  1  0  0  0  0
 22 24  1  0  0  0  0
 23 21  1  0  0  0  0
 24 13  1  0  0  0  0
 25  9  1  0  0  0  0
 25 14  1  0  0  0  0
 26 21  1  0  0  0  0
 27  2  1  0  0  0  0
 27  1  1  0  0  0  0
 29 32  1  0  0  0  0
 29 28  1  0  0  0  0
 30 34  1  0  0  0  0
 31 32  1  0  0  0  0
 33 30  2  0  0  0  0
 33 31  1  0  0  0  0
 34 32  1  0  0  0  0
M  END
>  <MODEL>
3

>  <REMARK>
 VINA RESULT:      -8.1      4.309      5.861
  Name = 
  3 active torsions:
  status: ('A' for Active; 'I' for Inactive)
    1  A    between atoms: C_17  and  C_28
    2  A    between atoms: C_28  and  C_29
    3  A    between atoms: C_29  and  C_32
                            x       y       z     vdW  Elec       q    Type
                         _______ _______ _______ _____ _____    ______ ____

>  <TORSDO>
F 3

$$$$
=
 OpenBabel11122412073D

 34 40  0  0  1  0  0  0  0  0999 V2000
  189.5150  175.9280  137.1060 C   0  0  2  0  0  3  0  0  0  0  0  0
  187.7020  177.2600  138.1990 C   0  0  0  0  0  2  0  0  0  0  0  0
  195.4070  175.1970  135.3620 C   0  0  1  0  0  3  0  0  0  0  0  0
  191.4470  174.5960  136.1300 C   0  0  0  0  0  0  0  0  0  0  0  0
  193.7120  174.7200  137.2280 C   0  0  1  0  0  3  0  0  0  0  0  0
  194.1070  176.9440  136.3320 O   0  0  0  0  0  1  0  0  0  0  0  0
  196.6660  175.7840  135.2340 O   0  0  0  0  0  1  0  0  0  0  0  0
  194.4730  173.3320  134.6020 C   0  0  0  0  0  2  0  0  0  0  0  0
  190.0010  177.7660  138.8430 C   0  0  2  0  0  3  0  0  0  0  0  0
  190.3040  177.8550  142.0750 C   0  0  0  0  0  2  0  0  0  0  0  0
  192.9440  175.2340  138.4460 C   0  0  0  0  0  2  0  0  0  0  0  0
  193.2820  172.9740  135.4870 C   0  0  0  0  0  2  0  0  0  0  0  0
  191.0840  176.7510  139.2670 C   0  0  1  0  0  3  0  0  0  0  0  0
  187.6630  178.2820  139.3090 C   0  0  0  0  0  2  0  0  0  0  0  0
  192.8130  174.1490  136.2230 N   0  0  0  0  0  0  0  0  0  0  0  0
  195.5370  173.8020  135.3820 O   0  0  0  0  0  0  0  0  0  0  0  0
  189.0800  177.4490  141.2590 C   0  0  2  0  0  3  0  0  0  0  0  0
  191.0240  175.8710  136.8410 C   0  0  2  0  0  3  0  0  0  0  0  0
  194.7190  175.7230  136.6270 C   0  0  2  0  0  3  0  0  0  0  0  0
  191.8990  176.2840  138.0520 C   0  0  2  0  0  3  0  0  0  0  0  0
  189.1000  174.2580  135.3060 C   0  0  0  0  0  2  0  0  0  0  0  0
  191.5300  177.0400  141.6990 C   0  0  0  0  0  2  0  0  0  0  0  0
  190.5660  173.9220  135.3720 C   0  0  0  0  0  3  0  0  0  0  0  0
  192.0110  177.3800  140.3000 C   0  0  0  0  0  2  0  0  0  0  0  0
  189.0460  178.2670  139.9490 C   0  0  1  0  0  3  0  0  0  0  0  0
  188.7970  175.6740  135.7860 C   0  0  0  0  0  2  0  0  0  0  0  0
  189.1210  177.2920  137.6740 C   0  0  1  0  0  3  0  0  0  0  0  0
  187.8440  177.7020  142.1160 C   0  0  0  0  0  2  0  0  0  0  0  0
  188.1780  177.5270  143.5870 C   0  0  0  0  0  2  0  0  0  0  0  0
  185.9380  178.7020  145.8770 C   0  0  0  0  0  3  0  0  0  0  0  0
  185.8190  177.9090  143.8550 O   0  0  0  0  0  0  0  0  0  0  0  0
  186.9230  177.1840  144.3680 C   0  0  2  0  0  3  0  0  0  0  0  0
  185.2860  178.7750  144.7710 N   0  0  0  0  0  0  0  0  0  0  0  0
  187.0500  177.7090  145.7960 C   0  0  0  0  0  2  0  0  0  0  0  0
  1 26  1  6  0  0  0
  1 27  1  0  0  0  0
  2 14  1  0  0  0  0
  3  7  1  1  0  0  0
  3 16  1  0  0  0  0
  3 19  1  0  0  0  0
  4 15  1  0  0  0  0
  4 18  1  0  0  0  0
  5 11  1  1  0  0  0
  6 19  1  0  0  0  0
  8 16  1  0  0  0  0
  8 12  1  0  0  0  0
  9 13  1  0  0  0  0
  9 25  1  0  0  0  0
 12 15  1  0  0  0  0
 13 24  1  0  0  0  0
 14 25  1  0  0  0  0
 15  5  1  0  0  0  0
 17 10  1  0  0  0  0
 17 28  1  0  0  0  0
 18  1  1  0  0  0  0
 18 20  1  0  0  0  0
 19  5  1  0  0  0  0
 20 11  1  0  0  0  0
 20 13  1  0  0  0  0
 21 23  1  0  0  0  0
 21 26  1  0  0  0  0
 22 10  1  0  0  0  0
 23  4  2  0  0  0  0
 24 22  1  0  0  0  0
 25 17  1  0  0  0  0
 27  2  1  0  0  0  0
 27  9  1  0  0  0  0
 28 29  1  0  0  0  0
 29 32  1  0  0  0  0
 31 32  1  0  0  0  0
 31 33  1  0  0  0  0
 32 34  1  0  0  0  0
 33 30  2  0  0  0  0
 34 30  1  0  0  0  0
M  END
>  <MODEL>
4

>  <REMARK>
 VINA RESULT:      -7.6      6.789     10.142
  Name = 
  3 active torsions:
  status: ('A' for Active; 'I' for Inactive)
    1  A    between atoms: C_17  and  C_28
    2  A    between atoms: C_28  and  C_29
    3  A    between atoms: C_29  and  C_32
                            x       y       z     vdW  Elec       q    Type
                         _______ _______ _______ _____ _____    ______ ____

>  <TORSDO>
F 3

$$$$
=
 OpenBabel11122412073D

 34 40  0  0  1  0  0  0  0  0999 V2000
  191.5690  174.4340  136.6450 C   0  0  2  0  0  3  0  0  0  0  0  0
  189.4350  175.6230  137.1840 C   0  0  0  0  0  2  0  0  0  0  0  0
  197.6640  174.4460  135.5760 C   0  0  1  0  0  3  0  0  0  0  0  0
  193.8040  173.3000  136.2240 C   0  0  0  0  0  0  0  0  0  0  0  0
  195.8660  174.1660  137.3850 C   0  0  1  0  0  3  0  0  0  0  0  0
  195.9760  176.0950  135.9120 O   0  0  0  0  0  1  0  0  0  0  0  0
  198.8090  175.2150  135.3660 O   0  0  0  0  0  1  0  0  0  0  0  0
  197.1620  172.2970  135.3280 C   0  0  0  0  0  2  0  0  0  0  0  0
  191.5190  176.7330  137.8040 C   0  0  2  0  0  3  0  0  0  0  0  0
  191.4150  177.7540  140.8850 C   0  0  0  0  0  2  0  0  0  0  0  0
  194.8810  174.8270  138.3490 C   0  0  0  0  0  2  0  0  0  0  0  0
  195.9540  171.9640  136.1990 C   0  0  0  0  0  2  0  0  0  0  0  0
  192.7030  176.1080  138.5730 C   0  0  1  0  0  3  0  0  0  0  0  0
  189.0890  176.8790  137.9470 C   0  0  0  0  0  2  0  0  0  0  0  0
  195.2060  173.1760  136.5310 N   0  0  0  0  0  0  0  0  0  0  0  0
  198.0290  173.1640  136.0070 O   0  0  0  0  0  0  0  0  0  0  0  0
  190.3860  176.9060  140.1430 C   0  0  2  0  0  3  0  0  0  0  0  0
  193.0850  174.6090  136.5070 C   0  0  2  0  0  3  0  0  0  0  0  0
  196.7490  175.1480  136.5860 C   0  0  2  0  0  3  0  0  0  0  0  0
  193.7250  175.5000  137.6020 C   0  0  2  0  0  3  0  0  0  0  0  0
  191.6650  172.2900  135.3810 C   0  0  0  0  0  2  0  0  0  0  0  0
  192.7990  177.1280  140.8420 C   0  0  0  0  0  2  0  0  0  0  0  0
  193.1490  172.2840  135.6370 C   0  0  0  0  0  3  0  0  0  0  0  0
  193.3770  177.1650  139.4390 C   0  0  0  0  0  2  0  0  0  0  0  0
  190.3670  177.3140  138.6530 C   0  0  1  0  0  3  0  0  0  0  0  0
  191.0680  173.6940  135.4100 C   0  0  0  0  0  2  0  0  0  0  0  0
  190.8800  175.7940  136.7670 C   0  0  1  0  0  3  0  0  0  0  0  0
  189.0310  177.1310  140.8070 C   0  0  0  0  0  2  0  0  0  0  0  0
  189.0610  176.6380  142.2440 C   0  0  0  0  0  2  0  0  0  0  0  0
  188.6760  177.4980  145.5230 C   0  0  0  0  0  3  0  0  0  0  0  0
  189.7120  178.3440  143.8080 O   0  0  0  0  0  0  0  0  0  0  0  0
  188.5960  177.7370  143.1800 C   0  0  2  0  0  3  0  0  0  0  0  0
  189.7090  178.1750  145.1660 N   0  0  0  0  0  0  0  0  0  0  0  0
  187.8320  177.1220  144.3500 C   0  0  0  0  0  2  0  0  0  0  0  0
  1 26  1  6  0  0  0
  1 27  1  0  0  0  0
  2 14  1  0  0  0  0
  3  7  1  1  0  0  0
  3 16  1  0  0  0  0
  3 19  1  0  0  0  0
  4 18  1  0  0  0  0
  4 15  1  0  0  0  0
  5 11  1  6  0  0  0
  6 19  1  0  0  0  0
  8 16  1  0  0  0  0
  8 12  1  0  0  0  0
  9 13  1  0  0  0  0
  9 25  1  0  0  0  0
 12 15  1  0  0  0  0
 13 24  1  0  0  0  0
 14 25  1  0  0  0  0
 15  5  1  0  0  0  0
 17 28  1  0  0  0  0
 17 10  1  0  0  0  0
 18  1  1  0  0  0  0
 18 20  1  0  0  0  0
 19  5  1  0  0  0  0
 20 11  1  0  0  0  0
 20 13  1  0  0  0  0
 21 26  1  0  0  0  0
 21 23  1  0  0  0  0
 22 10  1  0  0  0  0
 23  4  2  0  0  0  0
 24 22  1  0  0  0  0
 25 17  1  0  0  0  0
 27  2  1  0  0  0  0
 27  9  1  0  0  0  0
 28 29  1  0  0  0  0
 29 32  1  0  0  0  0
 31 33  1  0  0  0  0
 32 31  1  0  0  0  0
 32 34  1  0  0  0  0
 33 30  2  0  0  0  0
 34 30  1  0  0  0  0
M  END
>  <MODEL>
5

>  <REMARK>
 VINA RESULT:      -7.0      8.078     11.911
  Name = 
  3 active torsions:
  status: ('A' for Active; 'I' for Inactive)
    1  A    between atoms: C_17  and  C_28
    2  A    between atoms: C_28  and  C_29
    3  A    between atoms: C_29  and  C_32
                            x       y       z     vdW  Elec       q    Type
                         _______ _______ _______ _____ _____    ______ ____

>  <TORSDO>
F 3

$$$$
