=
 OpenBabel11122410453D

 32 37  0  0  1  0  0  0  0  0999 V2000
  188.7240  177.9260  148.2920 C   0  0  0  0  0  2  0  0  0  0  0  0
  185.2890  178.7050  143.8710 C   0  0  0  0  0  0  0  0  0  0  0  0
  187.8600  178.7950  139.6330 C   0  0  0  0  0  2  0  0  0  0  0  0
  186.7560  177.9830  138.9890 C   0  0  0  0  0  2  0  0  0  0  0  0
  182.8600  178.8200  143.7210 C   0  0  0  0  0  0  0  0  0  0  0  0
  181.7410  178.8030  142.8990 C   0  0  0  0  0  0  0  0  0  0  0  0
  186.6520  178.5260  145.9950 C   0  0  2  0  0  3  0  0  0  0  0  0
  187.3580  177.3310  143.8280 C   0  0  0  0  0  2  0  0  0  0  0  0
  180.5270  178.6800  140.9030 C   0  0  1  0  0  3  0  0  0  0  0  0
  188.7830  177.1550  145.8710 C   0  0  0  0  0  2  0  0  0  0  0  0
  187.9420  178.4290  141.1070 C   0  0  0  0  0  2  0  0  0  0  0  0
  186.6570  178.5630  143.2450 C   0  0  1  0  0  3  0  0  0  0  0  0
  186.6410  178.5250  141.7830 N   0  0  0  0  0  0  0  0  0  0  0  0
  184.2200  178.5780  141.6940 C   0  0  0  0  0  0  0  0  0  0  0  0
  179.6370  178.8240  142.1120 C   0  0  0  0  0  3  0  0  0  0  0  0
  187.6780  178.9750  147.9080 C   0  0  0  0  0  2  0  0  0  0  0  0
  187.3500  177.3010  145.3670 C   0  0  1  0  0  3  0  0  0  0  0  0
  180.3370  178.8930  143.2490 C   0  0  0  0  0  3  0  0  0  0  0  0
  186.5310  178.3720  147.3810 O   0  0  0  0  0  0  0  0  0  0  0  0
  188.7900  176.7280  147.3380 C   0  0  1  0  0  3  0  0  0  0  0  0
  185.4160  178.4410  139.5400 C   0  0  0  0  0  2  0  0  0  0  0  0
  185.3980  178.4730  141.0510 C   0  0  0  0  0  0  0  0  0  0  0  0
  183.0660  178.5690  140.9560 N   0  0  0  0  0  0  0  0  0  0  0  0
  185.2650  178.7400  145.3830 C   0  0  0  0  0  2  0  0  0  0  0  0
  182.6710  178.9550  145.0600 F   0  0  0  0  0  0  0  0  0  0  0  0
  180.3780  179.9010  140.0140 C   0  0  0  0  0  1  0  0  0  0  0  0
  184.1530  178.7050  143.1240 C   0  0  0  0  0  0  0  0  0  0  0  0
  181.8590  178.6820  141.5540 C   0  0  0  0  0  0  0  0  0  0  0  0
  190.0390  175.9190  147.6480 C   0  0  0  0  0  2  0  0  0  0  0  0
  191.2870  176.6160  147.1300 C   0  0  1  0  0  3  0  0  0  0  0  0
  192.0490  177.0930  148.1960 O   0  0  0  0  0  1  0  0  0  0  0  0
  192.1130  175.6320  146.3290 C   0  0  0  0  0  1  0  0  0  0  0  0
  2 24  1  0  0  0  0
  3 11  1  0  0  0  0
  4 21  1  0  0  0  0
  4  3  1  0  0  0  0
  5 25  1  0  0  0  0
  6 18  1  0  0  0  0
  6  5  2  0  0  0  0
  7 24  1  6  0  0  0
  7 19  1  0  0  0  0
  9 26  1  6  0  0  0
  9 28  1  0  0  0  0
  9 15  1  0  0  0  0
 10 20  1  0  0  0  0
 11 13  1  0  0  0  0
 12  8  1  1  0  0  0
 12  2  1  0  0  0  0
 13 12  1  0  0  0  0
 14 27  1  0  0  0  0
 15 18  2  0  0  0  0
 16  1  1  0  0  0  0
 17  8  1  6  0  0  0
 17 10  1  0  0  0  0
 17  7  1  0  0  0  0
 19 16  1  0  0  0  0
 20 29  1  1  0  0  0
 20  1  1  0  0  0  0
 21 22  1  0  0  0  0
 22 14  2  0  0  0  0
 22 13  1  0  0  0  0
 23 28  2  0  0  0  0
 23 14  1  0  0  0  0
 27  5  1  0  0  0  0
 27  2  2  0  0  0  0
 28  6  1  0  0  0  0
 30 32  1  1  0  0  0
 30 29  1  0  0  0  0
 30 31  1  0  0  0  0
M  END
>  <MODEL>
1

>  <REMARK>
 VINA RESULT:     -10.2      0.000      0.000
  Name = 
  2 active torsions:
  status: ('A' for Active; 'I' for Inactive)
    1  A    between atoms: C_20  and  C_29
    2  A    between atoms: C_29  and  C_30
                            x       y       z     vdW  Elec       q    Type
                         _______ _______ _______ _____ _____    ______ ____

>  <TORSDO>
F 2

$$$$
=
 OpenBabel11122410453D

 32 37  0  0  1  0  0  0  0  0999 V2000
  186.7960  178.6760  147.6860 C   0  0  0  0  0  2  0  0  0  0  0  0
  184.8500  178.7680  142.3790 C   0  0  0  0  0  0  0  0  0  0  0  0
  188.5910  178.7130  139.1260 C   0  0  0  0  0  2  0  0  0  0  0  0
  187.7860  177.7560  138.2730 C   0  0  0  0  0  2  0  0  0  0  0  0
  182.5830  178.6580  141.4950 C   0  0  0  0  0  0  0  0  0  0  0  0
  181.7730  178.4720  140.3820 C   0  0  0  0  0  0  0  0  0  0  0  0
  185.5010  178.8920  144.8200 C   0  0  2  0  0  3  0  0  0  0  0  0
  186.9060  177.5800  143.1100 C   0  0  0  0  0  2  0  0  0  0  0  0
  181.2410  178.0720  138.1390 C   0  0  1  0  0  3  0  0  0  0  0  0
  187.6400  177.7060  145.4930 C   0  0  0  0  0  2  0  0  0  0  0  0
  188.2350  178.4840  140.5880 C   0  0  0  0  0  2  0  0  0  0  0  0
  186.3500  178.6910  142.2120 C   0  0  1  0  0  3  0  0  0  0  0  0
  186.7870  178.5250  140.8270 N   0  0  0  0  0  0  0  0  0  0  0  0
  184.5120  178.3600  140.0100 C   0  0  0  0  0  0  0  0  0  0  0  0
  180.0160  178.2420  139.0020 C   0  0  0  0  0  3  0  0  0  0  0  0
  185.8620  179.5930  146.8920 C   0  0  0  0  0  2  0  0  0  0  0  0
  186.4260  177.6830  144.5690 C   0  0  1  0  0  3  0  0  0  0  0  0
  180.3270  178.4690  140.2810 C   0  0  0  0  0  3  0  0  0  0  0  0
  184.9680  178.8490  146.1150 O   0  0  0  0  0  0  0  0  0  0  0  0
  187.2200  177.4110  146.9320 C   0  0  1  0  0  3  0  0  0  0  0  0
  186.3180  178.1410  138.3420 C   0  0  0  0  0  2  0  0  0  0  0  0
  185.8340  178.3020  139.7650 C   0  0  0  0  0  0  0  0  0  0  0  0
  183.6430  178.1870  138.9640 N   0  0  0  0  0  0  0  0  0  0  0  0
  184.3600  178.9310  143.8010 C   0  0  0  0  0  2  0  0  0  0  0  0
  181.9840  178.8920  142.6920 F   0  0  0  0  0  0  0  0  0  0  0  0
  181.3050  179.1940  137.1190 C   0  0  0  0  0  1  0  0  0  0  0  0
  184.0010  178.6040  141.3300 C   0  0  0  0  0  0  0  0  0  0  0  0
  182.3060  178.2460  139.1560 C   0  0  0  0  0  0  0  0  0  0  0  0
  188.3570  176.7430  147.6890 C   0  0  0  0  0  2  0  0  0  0  0  0
  189.6430  177.5430  147.5640 C   0  0  1  0  0  3  0  0  0  0  0  0
  189.9030  178.2250  148.7530 O   0  0  0  0  0  1  0  0  0  0  0  0
  190.7910  176.6000  147.2710 C   0  0  0  0  0  1  0  0  0  0  0  0
  2 24  1  0  0  0  0
  3 11  1  0  0  0  0
  4 21  1  0  0  0  0
  4  3  1  0  0  0  0
  5 25  1  0  0  0  0
  6  5  2  0  0  0  0
  7 24  1  6  0  0  0
  7 19  1  0  0  0  0
  9 26  1  6  0  0  0
  9 15  1  0  0  0  0
  9 28  1  0  0  0  0
 10 20  1  0  0  0  0
 11 13  1  0  0  0  0
 12  2  1  0  0  0  0
 12  8  1  1  0  0  0
 13 12  1  0  0  0  0
 14 27  1  0  0  0  0
 15 18  2  0  0  0  0
 16  1  1  0  0  0  0
 17  8  1  6  0  0  0
 17  7  1  0  0  0  0
 17 10  1  0  0  0  0
 18  6  1  0  0  0  0
 19 16  1  0  0  0  0
 20  1  1  0  0  0  0
 20 29  1  1  0  0  0
 21 22  1  0  0  0  0
 22 14  2  0  0  0  0
 22 13  1  0  0  0  0
 23 28  2  0  0  0  0
 23 14  1  0  0  0  0
 27  5  1  0  0  0  0
 27  2  2  0  0  0  0
 28  6  1  0  0  0  0
 30 32  1  1  0  0  0
 30 29  1  0  0  0  0
 30 31  1  0  0  0  0
M  END
>  <MODEL>
2

>  <REMARK>
 VINA RESULT:      -9.8      1.481      1.996
  Name = 
  2 active torsions:
  status: ('A' for Active; 'I' for Inactive)
    1  A    between atoms: C_20  and  C_29
    2  A    between atoms: C_29  and  C_30
                            x       y       z     vdW  Elec       q    Type
                         _______ _______ _______ _____ _____    ______ ____

>  <TORSDO>
F 2

$$$$
=
 OpenBabel11122410453D

 32 37  0  0  1  0  0  0  0  0999 V2000
  181.8010  179.0030  139.9930 C   0  0  0  0  0  2  0  0  0  0  0  0
  186.4190  177.8290  143.0350 C   0  0  0  0  0  0  0  0  0  0  0  0
  190.2790  176.8620  140.0790 C   0  0  0  0  0  2  0  0  0  0  0  0
  191.1570  177.6520  141.0280 C   0  0  0  0  0  2  0  0  0  0  0  0
  186.8230  177.8950  145.4360 C   0  0  0  0  0  0  0  0  0  0  0  0
  187.7600  177.8780  146.4620 C   0  0  0  0  0  0  0  0  0  0  0  0
  184.2040  178.2250  141.8780 C   0  0  2  0  0  3  0  0  0  0  0  0
  186.4290  179.0030  140.8440 C   0  0  0  0  0  2  0  0  0  0  0  0
  189.8760  177.7870  147.4540 C   0  0  1  0  0  3  0  0  0  0  0  0
  184.2870  179.3770  139.6190 C   0  0  0  0  0  2  0  0  0  0  0  0
  188.8760  177.4470  140.1080 C   0  0  0  0  0  2  0  0  0  0  0  0
  186.9000  177.7570  141.6040 C   0  0  1  0  0  3  0  0  0  0  0  0
  188.3440  177.5670  141.4720 N   0  0  0  0  0  0  0  0  0  0  0  0
  188.6970  177.7020  143.8650 C   0  0  0  0  0  0  0  0  0  0  0  0
  188.7680  177.9090  148.4690 C   0  0  0  0  0  3  0  0  0  0  0  0
  182.1420  177.9970  141.0960 C   0  0  0  0  0  2  0  0  0  0  0  0
  184.9230  179.2740  141.0020 C   0  0  1  0  0  3  0  0  0  0  0  0
  187.5620  177.9610  147.8950 C   0  0  0  0  0  3  0  0  0  0  0  0
  182.8780  178.6040  142.1190 O   0  0  0  0  0  0  0  0  0  0  0  0
  182.9070  180.0260  139.7130 C   0  0  1  0  0  3  0  0  0  0  0  0
  190.6990  177.4000  142.4540 C   0  0  0  0  0  2  0  0  0  0  0  0
  189.2120  177.6070  142.6250 C   0  0  0  0  0  0  0  0  0  0  0  0
  189.5540  177.6920  144.9340 N   0  0  0  0  0  0  0  0  0  0  0  0
  184.9310  178.0340  143.2110 C   0  0  0  0  0  2  0  0  0  0  0  0
  185.5090  177.9880  145.7690 F   0  0  0  0  0  0  0  0  0  0  0  0
  190.5880  176.4580  147.6350 C   0  0  0  0  0  1  0  0  0  0  0  0
  187.2810  177.8070  144.0850 C   0  0  0  0  0  0  0  0  0  0  0  0
  189.0860  177.7750  146.1990 C   0  0  0  0  0  0  0  0  0  0  0  0
  182.5800  180.7660  138.4270 C   0  0  0  0  0  2  0  0  0  0  0  0
  181.0800  180.8220  138.1920 C   0  0  1  0  0  3  0  0  0  0  0  0
  180.5560  182.0050  138.7110 O   0  0  0  0  0  1  0  0  0  0  0  0
  180.8050  180.7680  136.7040 C   0  0  0  0  0  1  0  0  0  0  0  0
  1 16  1  0  0  0  0
  2 24  1  0  0  0  0
  2 27  2  0  0  0  0
  3 11  1  0  0  0  0
  3  4  1  0  0  0  0
  4 21  1  0  0  0  0
  5 25  1  0  0  0  0
  5  6  2  0  0  0  0
  6 18  1  0  0  0  0
  7 19  1  0  0  0  0
  7 24  1  1  0  0  0
  8 17  1  0  0  0  0
  9 26  1  1  0  0  0
  9 15  1  0  0  0  0
 10 20  1  0  0  0  0
 11 13  1  0  0  0  0
 12  8  1  6  0  0  0
 12  2  1  0  0  0  0
 13 12  1  0  0  0  0
 13 22  1  0  0  0  0
 14 27  1  0  0  0  0
 14 23  1  0  0  0  0
 16 19  1  0  0  0  0
 17 10  1  6  0  0  0
 17  7  1  0  0  0  0
 18 15  2  0  0  0  0
 20 29  1  6  0  0  0
 20  1  1  0  0  0  0
 21 22  1  0  0  0  0
 22 14  2  0  0  0  0
 23 28  2  0  0  0  0
 27  5  1  0  0  0  0
 28  6  1  0  0  0  0
 28  9  1  0  0  0  0
 30 32  1  6  0  0  0
 30 29  1  0  0  0  0
 30 31  1  0  0  0  0
M  END
>  <MODEL>
3

>  <REMARK>
 VINA RESULT:      -9.7      2.993      8.271
  Name = 
  2 active torsions:
  status: ('A' for Active; 'I' for Inactive)
    1  A    between atoms: C_20  and  C_29
    2  A    between atoms: C_29  and  C_30
                            x       y       z     vdW  Elec       q    Type
                         _______ _______ _______ _____ _____    ______ ____

>  <TORSDO>
F 2

$$$$
=
 OpenBabel11122410453D

 32 37  0  0  1  0  0  0  0  0999 V2000
  193.1800  176.7580  138.1790 C   0  0  0  0  0  2  0  0  0  0  0  0
  189.5500  177.8150  142.3820 C   0  0  0  0  0  0  0  0  0  0  0  0
  185.1200  179.1390  140.5950 C   0  0  0  0  0  2  0  0  0  0  0  0
  184.4740  178.3000  141.6780 C   0  0  0  0  0  2  0  0  0  0  0  0
  189.7670  177.5640  144.7950 C   0  0  0  0  0  0  0  0  0  0  0  0
  189.1230  177.5250  146.0250 C   0  0  0  0  0  0  0  0  0  0  0  0
  191.3760  177.4500  140.6690 C   0  0  2  0  0  3  0  0  0  0  0  0
  188.9260  176.8270  140.1890 C   0  0  0  0  0  2  0  0  0  0  0  0
  187.3350  177.5980  147.5320 C   0  0  1  0  0  3  0  0  0  0  0  0
  190.6650  176.4900  138.4300 C   0  0  0  0  0  2  0  0  0  0  0  0
  186.4540  178.5110  140.2200 C   0  0  0  0  0  2  0  0  0  0  0  0
  188.7260  178.0200  141.1320 C   0  0  1  0  0  3  0  0  0  0  0  0
  187.3070  178.2640  141.3890 N   0  0  0  0  0  0  0  0  0  0  0  0
  187.5680  177.9420  143.7760 C   0  0  0  0  0  0  0  0  0  0  0  0
  188.6580  177.3590  148.2160 C   0  0  0  0  0  3  0  0  0  0  0  0
  193.1810  177.6790  139.4010 C   0  0  0  0  0  2  0  0  0  0  0  0
  190.4070  176.4980  139.9340 C   0  0  1  0  0  3  0  0  0  0  0  0
  189.6740  177.3180  147.3500 C   0  0  0  0  0  3  0  0  0  0  0  0
  192.6990  177.0120  140.5330 O   0  0  0  0  0  0  0  0  0  0  0  0
  191.9890  175.7950  138.1200 C   0  0  1  0  0  3  0  0  0  0  0  0
  185.2900  178.4200  142.9530 C   0  0  0  0  0  2  0  0  0  0  0  0
  186.7600  178.1550  142.7200 C   0  0  0  0  0  0  0  0  0  0  0  0
  187.0120  177.8900  145.0280 N   0  0  0  0  0  0  0  0  0  0  0  0
  191.0230  177.5510  142.1540 C   0  0  0  0  0  2  0  0  0  0  0  0
  191.1160  177.4050  144.7710 F   0  0  0  0  0  0  0  0  0  0  0  0
  186.7610  178.9280  147.9850 C   0  0  0  0  0  1  0  0  0  0  0  0
  188.9860  177.7770  143.6170 C   0  0  0  0  0  0  0  0  0  0  0  0
  187.7800  177.6890  146.1210 C   0  0  0  0  0  0  0  0  0  0  0  0
  191.9410  175.1530  136.7430 C   0  0  0  0  0  2  0  0  0  0  0  0
  191.6560  173.6640  136.8420 C   0  0  1  0  0  3  0  0  0  0  0  0
  190.3290  173.4520  137.2150 O   0  0  0  0  0  1  0  0  0  0  0  0
  191.9020  173.0180  135.4940 C   0  0  0  0  0  1  0  0  0  0  0  0
  1 16  1  0  0  0  0
  2 27  2  0  0  0  0
  3  4  1  0  0  0  0
  4 21  1  0  0  0  0
  5  6  2  0  0  0  0
  6 28  1  0  0  0  0
  6 18  1  0  0  0  0
  7 24  1  1  0  0  0
  9 26  1  1  0  0  0
  9 15  1  0  0  0  0
 11  3  1  0  0  0  0
 11 13  1  0  0  0  0
 12  8  1  6  0  0  0
 12 13  1  0  0  0  0
 12  2  1  0  0  0  0
 13 22  1  0  0  0  0
 14 23  1  0  0  0  0
 16 19  1  0  0  0  0
 17 10  1  6  0  0  0
 17  8  1  0  0  0  0
 17  7  1  0  0  0  0
 18 15  2  0  0  0  0
 19  7  1  0  0  0  0
 20 29  1  6  0  0  0
 20  1  1  0  0  0  0
 20 10  1  0  0  0  0
 22 21  1  0  0  0  0
 22 14  2  0  0  0  0
 23 28  2  0  0  0  0
 24  2  1  0  0  0  0
 25  5  1  0  0  0  0
 27 14  1  0  0  0  0
 27  5  1  0  0  0  0
 28  9  1  0  0  0  0
 29 30  1  0  0  0  0
 30 32  1  6  0  0  0
 30 31  1  0  0  0  0
M  END
>  <MODEL>
4

>  <REMARK>
 VINA RESULT:      -9.5      4.322      7.779
  Name = 
  2 active torsions:
  status: ('A' for Active; 'I' for Inactive)
    1  A    between atoms: C_20  and  C_29
    2  A    between atoms: C_29  and  C_30
                            x       y       z     vdW  Elec       q    Type
                         _______ _______ _______ _____ _____    ______ ____

>  <TORSDO>
F 2

$$$$
=
 OpenBabel11122410453D

 32 37  0  0  1  0  0  0  0  0999 V2000
  179.4210  179.6490  137.8520 C   0  0  0  0  0  2  0  0  0  0  0  0
  183.7930  178.5380  141.2610 C   0  0  0  0  0  0  0  0  0  0  0  0
  187.9110  177.7010  138.6330 C   0  0  0  0  0  2  0  0  0  0  0  0
  188.6860  178.4980  139.6620 C   0  0  0  0  0  2  0  0  0  0  0  0
  183.9900  178.5800  143.6880 C   0  0  0  0  0  0  0  0  0  0  0  0
  184.8370  178.5690  144.7890 C   0  0  0  0  0  0  0  0  0  0  0  0
  181.6750  178.9000  139.9250 C   0  0  2  0  0  3  0  0  0  0  0  0
  183.9600  179.7420  139.0940 C   0  0  0  0  0  2  0  0  0  0  0  0
  186.8640  178.5130  145.9570 C   0  0  1  0  0  3  0  0  0  0  0  0
  181.9210  180.0850  137.6950 C   0  0  0  0  0  2  0  0  0  0  0  0
  186.4970  178.2530  138.5490 C   0  0  0  0  0  2  0  0  0  0  0  0
  184.3950  178.4970  139.8760 C   0  0  1  0  0  3  0  0  0  0  0  0
  185.8490  178.3420  139.8640 N   0  0  0  0  0  0  0  0  0  0  0  0
  185.9940  178.4520  142.2800 C   0  0  0  0  0  0  0  0  0  0  0  0
  185.6700  178.5950  146.8750 C   0  0  0  0  0  3  0  0  0  0  0  0
  179.6920  178.6350  138.9680 C   0  0  0  0  0  2  0  0  0  0  0  0
  182.4400  179.9770  139.1260 C   0  0  1  0  0  3  0  0  0  0  0  0
  184.5160  178.6280  146.2020 C   0  0  0  0  0  3  0  0  0  0  0  0
  180.3240  179.2450  140.0570 O   0  0  0  0  0  0  0  0  0  0  0  0
  180.5230  180.7010  137.6800 C   0  0  1  0  0  3  0  0  0  0  0  0
  188.1160  178.2150  141.0410 C   0  0  0  0  0  2  0  0  0  0  0  0
  186.6150  178.3860  141.0870 C   0  0  0  0  0  0  0  0  0  0  0  0
  186.7580  178.4460  143.4180 N   0  0  0  0  0  0  0  0  0  0  0  0
  182.2900  178.7070  141.3130 C   0  0  0  0  0  2  0  0  0  0  0  0
  182.6510  178.6380  143.9100 F   0  0  0  0  0  0  0  0  0  0  0  0
  187.5890  177.1980  146.1820 C   0  0  0  0  0  1  0  0  0  0  0  0
  184.5630  178.5210  142.3810 C   0  0  0  0  0  0  0  0  0  0  0  0
  186.1830  178.5010  144.6400 C   0  0  0  0  0  0  0  0  0  0  0  0
  180.2890  181.4510  136.3790 C   0  0  0  0  0  2  0  0  0  0  0  0
  180.0400  182.9290  136.6360 C   0  0  1  0  0  3  0  0  0  0  0  0
  180.4710  183.2730  137.9170 O   0  0  0  0  0  1  0  0  0  0  0  0
  180.8050  183.7480  135.6180 C   0  0  0  0  0  1  0  0  0  0  0  0
  1 16  1  0  0  0  0
  2 24  1  0  0  0  0
  2 27  2  0  0  0  0
  3  4  1  0  0  0  0
  4 21  1  0  0  0  0
  5 25  1  0  0  0  0
  5  6  2  0  0  0  0
  6 18  1  0  0  0  0
  7 19  1  0  0  0  0
  7 24  1  1  0  0  0
  8 17  1  0  0  0  0
  9 26  1  1  0  0  0
  9 15  1  0  0  0  0
 11  3  1  0  0  0  0
 11 13  1  0  0  0  0
 12  8  1  1  0  0  0
 12  2  1  0  0  0  0
 13 12  1  0  0  0  0
 13 22  1  0  0  0  0
 14 27  1  0  0  0  0
 14 23  1  0  0  0  0
 16 19  1  0  0  0  0
 17 10  1  6  0  0  0
 17  7  1  0  0  0  0
 18 15  2  0  0  0  0
 20 29  1  6  0  0  0
 20 10  1  0  0  0  0
 20  1  1  0  0  0  0
 21 22  1  0  0  0  0
 22 14  2  0  0  0  0
 23 28  2  0  0  0  0
 27  5  1  0  0  0  0
 28  6  1  0  0  0  0
 28  9  1  0  0  0  0
 29 30  1  0  0  0  0
 30 32  1  6  0  0  0
 30 31  1  0  0  0  0
M  END
>  <MODEL>
5

>  <REMARK>
 VINA RESULT:      -9.3      3.597      8.698
  Name = 
  2 active torsions:
  status: ('A' for Active; 'I' for Inactive)
    1  A    between atoms: C_20  and  C_29
    2  A    between atoms: C_29  and  C_30
                            x       y       z     vdW  Elec       q    Type
                         _______ _______ _______ _____ _____    ______ ____

>  <TORSDO>
F 2

$$$$
=
 OpenBabel11122410453D

 32 37  0  0  1  0  0  0  0  0999 V2000
  180.7900  179.6330  138.6410 C   0  0  0  0  0  2  0  0  0  0  0  0
  185.7060  178.7100  141.2770 C   0  0  0  0  0  0  0  0  0  0  0  0
  185.0960  178.7110  146.1970 C   0  0  0  0  0  2  0  0  0  0  0  0
  186.0550  177.5410  146.2790 C   0  0  0  0  0  2  0  0  0  0  0  0
  187.9170  178.1680  140.4120 C   0  0  0  0  0  0  0  0  0  0  0  0
  189.2000  177.7170  140.6940 C   0  0  0  0  0  0  0  0  0  0  0  0
  183.6550  179.2650  139.9030 C   0  0  2  0  0  3  0  0  0  0  0  0
  183.4930  177.9290  142.0960 C   0  0  0  0  0  2  0  0  0  0  0  0
  190.9800  176.9370  141.9970 C   0  0  1  0  0  3  0  0  0  0  0  0
  181.4210  178.4890  140.8220 C   0  0  0  0  0  2  0  0  0  0  0  0
  184.3530  178.6430  144.8710 C   0  0  0  0  0  2  0  0  0  0  0  0
  184.7050  178.8170  142.4050 C   0  0  1  0  0  3  0  0  0  0  0  0
  185.2620  178.5190  143.7230 N   0  0  0  0  0  0  0  0  0  0  0  0
  187.4240  177.9310  142.8040 C   0  0  0  0  0  0  0  0  0  0  0  0
  191.3420  177.0570  140.5380 C   0  0  0  0  0  3  0  0  0  0  0  0
  182.1710  180.2930  138.6150 C   0  0  0  0  0  2  0  0  0  0  0  0
  182.9080  178.1700  140.6940 C   0  0  1  0  0  3  0  0  0  0  0  0
  190.3210  177.5030  139.7990 C   0  0  0  0  0  3  0  0  0  0  0  0
  183.1870  179.3310  138.5850 O   0  0  0  0  0  0  0  0  0  0  0  0
  180.7270  178.3440  139.4690 C   0  0  1  0  0  3  0  0  0  0  0  0
  187.1560  177.7290  145.2490 C   0  0  0  0  0  2  0  0  0  0  0  0
  186.6080  178.0200  143.8700 C   0  0  0  0  0  0  0  0  0  0  0  0
  188.7090  177.4950  142.9950 N   0  0  0  0  0  0  0  0  0  0  0  0
  185.1630  179.0030  139.8950 C   0  0  0  0  0  2  0  0  0  0  0  0
  187.6150  178.4830  139.1260 F   0  0  0  0  0  0  0  0  0  0  0  0
  191.8220  177.9020  142.8110 C   0  0  0  0  0  1  0  0  0  0  0  0
  186.9800  178.2860  141.4840 C   0  0  0  0  0  0  0  0  0  0  0  0
  189.5710  177.3970  141.9580 C   0  0  0  0  0  0  0  0  0  0  0  0
  179.2710  177.9520  139.6600 C   0  0  0  0  0  2  0  0  0  0  0  0
  179.0480  176.4880  139.3160 C   0  0  1  0  0  3  0  0  0  0  0  0
  180.0840  176.0210  138.5080 O   0  0  0  0  0  1  0  0  0  0  0  0
  179.0090  175.6760  140.5940 C   0  0  0  0  0  1  0  0  0  0  0  0
  1 20  1  0  0  0  0
  2 27  2  0  0  0  0
  2 12  1  0  0  0  0
  3  4  1  0  0  0  0
  5  6  2  0  0  0  0
  5 27  1  0  0  0  0
  6 28  1  0  0  0  0
  7 24  1  6  0  0  0
  7 17  1  0  0  0  0
  9 26  1  1  0  0  0
 11  3  1  0  0  0  0
 12  8  1  6  0  0  0
 12 13  1  0  0  0  0
 13 22  1  0  0  0  0
 13 11  1  0  0  0  0
 14 23  1  0  0  0  0
 14 22  2  0  0  0  0
 15  9  1  0  0  0  0
 16  1  1  0  0  0  0
 17 10  1  1  0  0  0
 17  8  1  0  0  0  0
 18 15  2  0  0  0  0
 18  6  1  0  0  0  0
 19 16  1  0  0  0  0
 19  7  1  0  0  0  0
 20 29  1  1  0  0  0
 20 10  1  0  0  0  0
 21  4  1  0  0  0  0
 22 21  1  0  0  0  0
 24  2  1  0  0  0  0
 25  5  1  0  0  0  0
 27 14  1  0  0  0  0
 28  9  1  0  0  0  0
 28 23  2  0  0  0  0
 30 29  1  0  0  0  0
 30 32  1  1  0  0  0
 31 30  1  0  0  0  0
M  END
>  <MODEL>
6

>  <REMARK>
 VINA RESULT:      -9.2      3.817      8.908
  Name = 
  2 active torsions:
  status: ('A' for Active; 'I' for Inactive)
    1  A    between atoms: C_20  and  C_29
    2  A    between atoms: C_29  and  C_30
                            x       y       z     vdW  Elec       q    Type
                         _______ _______ _______ _____ _____    ______ ____

>  <TORSDO>
F 2

$$$$
=
 OpenBabel11122410453D

 32 37  0  0  1  0  0  0  0  0999 V2000
  191.5010  175.9540  137.2750 C   0  0  0  0  0  2  0  0  0  0  0  0
  189.0040  176.8430  142.2680 C   0  0  0  0  0  0  0  0  0  0  0  0
  191.9930  175.5230  145.9960 C   0  0  0  0  0  2  0  0  0  0  0  0
  191.5350  176.7530  146.7510 C   0  0  0  0  0  2  0  0  0  0  0  0
  186.8760  177.8810  142.8400 C   0  0  0  0  0  0  0  0  0  0  0  0
  186.0700  178.4160  143.8370 C   0  0  0  0  0  0  0  0  0  0  0  0
  189.8640  176.3790  139.9350 C   0  0  2  0  0  3  0  0  0  0  0  0
  191.4400  177.0850  141.8430 C   0  0  0  0  0  2  0  0  0  0  0  0
  185.4540  179.0780  145.9950 C   0  0  1  0  0  3  0  0  0  0  0  0
  192.3680  176.5880  139.5790 C   0  0  0  0  0  2  0  0  0  0  0  0
  191.9540  175.8200  144.5040 C   0  0  0  0  0  2  0  0  0  0  0  0
  190.3730  176.3220  142.6370 C   0  0  1  0  0  3  0  0  0  0  0  0
  190.6550  176.3510  144.0710 N   0  0  0  0  0  0  0  0  0  0  0  0
  188.5500  177.4400  144.5770 C   0  0  0  0  0  0  0  0  0  0  0  0
  184.3870  179.3780  144.9720 C   0  0  0  0  0  3  0  0  0  0  0  0
  190.1820  175.5160  137.9180 C   0  0  0  0  0  2  0  0  0  0  0  0
  191.1550  177.1280  140.3310 C   0  0  1  0  0  3  0  0  0  0  0  0
  184.7460  178.9980  143.7420 C   0  0  0  0  0  3  0  0  0  0  0  0
  189.5680  176.5830  138.5810 O   0  0  0  0  0  0  0  0  0  0  0  0
  192.2930  176.9720  138.1020 C   0  0  1  0  0  3  0  0  0  0  0  0
  190.0580  176.9820  146.4770 C   0  0  0  0  0  2  0  0  0  0  0  0
  189.7410  176.9750  144.9990 C   0  0  0  0  0  0  0  0  0  0  0  0
  187.6940  177.9840  145.4990 N   0  0  0  0  0  0  0  0  0  0  0  0
  188.6810  176.8360  140.7900 C   0  0  0  0  0  2  0  0  0  0  0  0
  186.3960  177.8610  141.5690 F   0  0  0  0  0  0  0  0  0  0  0  0
  184.9290  178.0620  146.9940 C   0  0  0  0  0  1  0  0  0  0  0  0
  188.1620  177.3710  143.1950 C   0  0  0  0  0  0  0  0  0  0  0  0
  186.4840  178.4550  145.1280 C   0  0  0  0  0  0  0  0  0  0  0  0
  193.6900  177.1030  137.5180 C   0  0  0  0  0  2  0  0  0  0  0  0
  193.9300  176.0650  136.4330 C   0  0  1  0  0  3  0  0  0  0  0  0
  194.4330  176.6770  135.2860 O   0  0  0  0  0  1  0  0  0  0  0  0
  194.9310  175.0450  136.9320 C   0  0  0  0  0  1  0  0  0  0  0  0
  1 16  1  0  0  0  0
  1 20  1  0  0  0  0
  2 12  1  0  0  0  0
  2 27  2  0  0  0  0
  3  4  1  0  0  0  0
  5 27  1  0  0  0  0
  5  6  2  0  0  0  0
  6 28  1  0  0  0  0
  7 17  1  0  0  0  0
  7 24  1  1  0  0  0
  9 26  1  1  0  0  0
 11  3  1  0  0  0  0
 12  8  1  6  0  0  0
 12 13  1  0  0  0  0
 13 11  1  0  0  0  0
 13 22  1  0  0  0  0
 14 22  2  0  0  0  0
 14 23  1  0  0  0  0
 15  9  1  0  0  0  0
 16 19  1  0  0  0  0
 17 10  1  6  0  0  0
 17  8  1  0  0  0  0
 18  6  1  0  0  0  0
 18 15  2  0  0  0  0
 19  7  1  0  0  0  0
 20 29  1  6  0  0  0
 20 10  1  0  0  0  0
 21  4  1  0  0  0  0
 22 21  1  0  0  0  0
 24  2  1  0  0  0  0
 25  5  1  0  0  0  0
 27 14  1  0  0  0  0
 28 23  2  0  0  0  0
 28  9  1  0  0  0  0
 30 32  1  1  0  0  0
 30 29  1  0  0  0  0
 31 30  1  0  0  0  0
M  END
>  <MODEL>
7

>  <REMARK>
 VINA RESULT:      -8.6      4.571      7.645
  Name = 
  2 active torsions:
  status: ('A' for Active; 'I' for Inactive)
    1  A    between atoms: C_20  and  C_29
    2  A    between atoms: C_29  and  C_30
                            x       y       z     vdW  Elec       q    Type
                         _______ _______ _______ _____ _____    ______ ____

>  <TORSDO>
F 2

$$$$
=
 OpenBabel11122410453D

 32 37  0  0  1  0  0  0  0  0999 V2000
  193.4040  176.5250  137.9530 C   0  0  0  0  0  2  0  0  0  0  0  0
  189.1880  177.8260  141.4880 C   0  0  0  0  0  0  0  0  0  0  0  0
  185.1430  179.2060  138.9780 C   0  0  0  0  0  2  0  0  0  0  0  0
  184.3060  178.4230  139.9680 C   0  0  0  0  0  2  0  0  0  0  0  0
  189.0100  177.6520  143.9110 C   0  0  0  0  0  0  0  0  0  0  0  0
  188.1780  177.6740  145.0230 C   0  0  0  0  0  0  0  0  0  0  0  0
  191.2500  177.3520  140.1000 C   0  0  2  0  0  3  0  0  0  0  0  0
  188.8880  176.7800  139.2540 C   0  0  0  0  0  2  0  0  0  0  0  0
  186.1770  177.8470  146.2220 C   0  0  1  0  0  3  0  0  0  0  0  0
  190.8730  176.3350  137.8070 C   0  0  0  0  0  2  0  0  0  0  0  0
  186.4980  178.5310  138.8390 C   0  0  0  0  0  2  0  0  0  0  0  0
  188.5800  178.0090  140.1170 C   0  0  1  0  0  3  0  0  0  0  0  0
  187.1470  178.3000  140.1370 N   0  0  0  0  0  0  0  0  0  0  0  0
  187.0140  178.0540  142.5430 C   0  0  0  0  0  0  0  0  0  0  0  0
  187.3650  177.5960  147.1160 C   0  0  0  0  0  3  0  0  0  0  0  0
  193.2400  177.4880  139.1320 C   0  0  0  0  0  2  0  0  0  0  0  0
  190.3800  176.4020  139.2490 C   0  0  1  0  0  3  0  0  0  0  0  0
  188.5050  177.4980  146.4250 C   0  0  0  0  0  3  0  0  0  0  0  0
  192.5630  176.8740  140.1910 O   0  0  0  0  0  0  0  0  0  0  0  0
  192.2070  175.5940  137.7330 C   0  0  1  0  0  3  0  0  0  0  0  0
  184.9130  178.5650  141.3530 C   0  0  0  0  0  2  0  0  0  0  0  0
  186.3920  178.2520  141.3660 C   0  0  0  0  0  0  0  0  0  0  0  0
  186.2650  178.0610  143.6900 N   0  0  0  0  0  0  0  0  0  0  0  0
  190.6680  177.5140  141.5070 C   0  0  0  0  0  2  0  0  0  0  0  0
  190.3390  177.4560  144.1080 F   0  0  0  0  0  0  0  0  0  0  0  0
  185.5810  179.2070  146.5370 C   0  0  0  0  0  1  0  0  0  0  0  0
  188.4330  177.8450  142.6180 C   0  0  0  0  0  0  0  0  0  0  0  0
  186.8430  177.8770  144.8980 C   0  0  0  0  0  0  0  0  0  0  0  0
  192.3570  174.9070  136.3860 C   0  0  0  0  0  2  0  0  0  0  0  0
  193.0480  173.5610  136.5300 C   0  0  1  0  0  3  0  0  0  0  0  0
  192.6970  172.7240  135.4720 O   0  0  0  0  0  1  0  0  0  0  0  0
  194.5480  173.7670  136.5240 C   0  0  0  0  0  1  0  0  0  0  0  0
  1 16  1  0  0  0  0
  2 24  1  0  0  0  0
  2 27  2  0  0  0  0
  3  4  1  0  0  0  0
  4 21  1  0  0  0  0
  5 25  1  0  0  0  0
  5  6  2  0  0  0  0
  6 18  1  0  0  0  0
  7 19  1  0  0  0  0
  7 24  1  1  0  0  0
  9 26  1  1  0  0  0
  9 15  1  0  0  0  0
 11  3  1  0  0  0  0
 11 13  1  0  0  0  0
 12  8  1  6  0  0  0
 12 13  1  0  0  0  0
 12  2  1  0  0  0  0
 13 22  1  0  0  0  0
 14 27  1  0  0  0  0
 14 23  1  0  0  0  0
 16 19  1  0  0  0  0
 17 10  1  6  0  0  0
 17  8  1  0  0  0  0
 17  7  1  0  0  0  0
 18 15  2  0  0  0  0
 20 29  1  6  0  0  0
 20 10  1  0  0  0  0
 20  1  1  0  0  0  0
 21 22  1  0  0  0  0
 22 14  2  0  0  0  0
 23 28  2  0  0  0  0
 27  5  1  0  0  0  0
 28  6  1  0  0  0  0
 28  9  1  0  0  0  0
 29 30  1  0  0  0  0
 30 32  1  6  0  0  0
 31 30  1  0  0  0  0
M  END
>  <MODEL>
8

>  <REMARK>
 VINA RESULT:      -8.4      4.629      7.538
  Name = 
  2 active torsions:
  status: ('A' for Active; 'I' for Inactive)
    1  A    between atoms: C_20  and  C_29
    2  A    between atoms: C_29  and  C_30
                            x       y       z     vdW  Elec       q    Type
                         _______ _______ _______ _____ _____    ______ ____

>  <TORSDO>
F 2

$$$$
=
 OpenBabel11122410453D

 32 37  0  0  1  0  0  0  0  0999 V2000
  180.2830  179.0430  139.3900 C   0  0  0  0  0  2  0  0  0  0  0  0
  185.3870  177.9840  141.5780 C   0  0  0  0  0  0  0  0  0  0  0  0
  188.7710  177.4680  137.9920 C   0  0  0  0  0  2  0  0  0  0  0  0
  189.7430  178.2510  138.8480 C   0  0  0  0  0  2  0  0  0  0  0  0
  186.1660  177.9210  143.8840 C   0  0  0  0  0  0  0  0  0  0  0  0
  187.2550  177.8990  144.7470 C   0  0  0  0  0  0  0  0  0  0  0  0
  182.9970  178.3050  140.8130 C   0  0  2  0  0  3  0  0  0  0  0  0
  184.9800  179.2940  139.5060 C   0  0  0  0  0  2  0  0  0  0  0  0
  189.5050  177.8840  145.3870 C   0  0  1  0  0  3  0  0  0  0  0  0
  182.6520  179.6040  138.6610 C   0  0  0  0  0  2  0  0  0  0  0  0
  187.3590  177.9550  138.2830 C   0  0  0  0  0  2  0  0  0  0  0  0
  185.6360  178.0360  140.0880 C   0  0  1  0  0  3  0  0  0  0  0  0
  187.0480  177.9510  139.7180 N   0  0  0  0  0  0  0  0  0  0  0  0
  187.7720  177.9550  142.0300 C   0  0  0  0  0  0  0  0  0  0  0  0
  188.5680  177.8670  146.5690 C   0  0  0  0  0  3  0  0  0  0  0  0
  180.8520  177.9920  140.3480 C   0  0  0  0  0  2  0  0  0  0  0  0
  183.5060  179.4540  139.9170 C   0  0  1  0  0  3  0  0  0  0  0  0
  187.2850  177.8760  146.1960 C   0  0  0  0  0  3  0  0  0  0  0  0
  181.7070  178.5800  141.2860 O   0  0  0  0  0  0  0  0  0  0  0  0
  181.2720  180.1530  139.0180 C   0  0  1  0  0  3  0  0  0  0  0  0
  189.5350  177.8770  140.3060 C   0  0  0  0  0  2  0  0  0  0  0  0
  188.0850  177.9740  140.7210 C   0  0  0  0  0  0  0  0  0  0  0  0
  188.7880  177.9320  142.9490 N   0  0  0  0  0  0  0  0  0  0  0  0
  183.9370  178.0780  141.9990 C   0  0  0  0  0  2  0  0  0  0  0  0
  184.9200  177.9040  144.4240 F   0  0  0  0  0  0  0  0  0  0  0  0
  190.3080  176.5970  145.3560 C   0  0  0  0  0  1  0  0  0  0  0  0
  186.4060  177.9510  142.4760 C   0  0  0  0  0  0  0  0  0  0  0  0
  188.5260  177.9020  144.2740 C   0  0  0  0  0  0  0  0  0  0  0  0
  180.7030  180.9520  137.8570 C   0  0  0  0  0  2  0  0  0  0  0  0
  180.4990  182.4080  138.2410 C   0  0  1  0  0  3  0  0  0  0  0  0
  180.3140  183.1850  137.0970 O   0  0  0  0  0  1  0  0  0  0  0  0
  179.2750  182.5250  139.1240 C   0  0  0  0  0  1  0  0  0  0  0  0
  1 16  1  0  0  0  0
  2 24  1  0  0  0  0
  2 27  2  0  0  0  0
  3 11  1  0  0  0  0
  3  4  1  0  0  0  0
  4 21  1  0  0  0  0
  5 25  1  0  0  0  0
  5  6  2  0  0  0  0
  6 18  1  0  0  0  0
  7 19  1  0  0  0  0
  7 24  1  1  0  0  0
  8 17  1  0  0  0  0
  9 26  1  6  0  0  0
  9 15  1  0  0  0  0
 10 20  1  0  0  0  0
 11 13  1  0  0  0  0
 12  8  1  1  0  0  0
 12  2  1  0  0  0  0
 13 12  1  0  0  0  0
 13 22  1  0  0  0  0
 14 27  1  0  0  0  0
 14 23  1  0  0  0  0
 16 19  1  0  0  0  0
 17 10  1  6  0  0  0
 17  7  1  0  0  0  0
 18 15  2  0  0  0  0
 20 29  1  6  0  0  0
 20  1  1  0  0  0  0
 21 22  1  0  0  0  0
 22 14  2  0  0  0  0
 23 28  2  0  0  0  0
 27  5  1  0  0  0  0
 28  6  1  0  0  0  0
 28  9  1  0  0  0  0
 29 30  1  0  0  0  0
 30 32  1  1  0  0  0
 31 30  1  0  0  0  0
M  END
>  <MODEL>
9

>  <REMARK>
 VINA RESULT:      -8.1      3.143      8.497
  Name = 
  2 active torsions:
  status: ('A' for Active; 'I' for Inactive)
    1  A    between atoms: C_20  and  C_29
    2  A    between atoms: C_29  and  C_30
                            x       y       z     vdW  Elec       q    Type
                         _______ _______ _______ _____ _____    ______ ____

>  <TORSDO>
F 2

$$$$
