=
 OpenBabel11122412173D

 34 40  0  0  0  0  0  0  0  0999 V2000
  189.2250  177.2980  143.0360 C   0  0  0  0  0  0  0  0  0  0  0  0
  187.4970  177.4600  144.8420 C   0  0  0  0  0  3  0  0  0  0  0  0
  190.1340  175.0930  137.6090 C   0  0  0  0  0  2  0  0  0  0  0  0
  190.7170  177.2200  141.0970 C   0  0  0  0  0  0  0  0  0  0  0  0
  189.8960  177.8600  138.8970 C   0  0  0  0  0  0  0  0  0  0  0  0
  189.2510  177.2230  136.5620 C   0  0  0  0  0  2  0  0  0  0  0  0
  189.8660  175.8460  136.3060 C   0  0  0  0  0  2  0  0  0  0  0  0
  192.3550  176.3170  137.8410 C   0  0  0  0  0  2  0  0  0  0  0  0
  186.9370  177.9860  142.7520 C   0  0  0  0  0  0  0  0  0  0  0  0
  184.1200  178.9080  141.9880 C   0  0  0  0  0  3  0  0  0  0  0  0
  188.6340  178.1020  139.4420 C   0  0  0  0  0  3  0  0  0  0  0  0
  192.3230  177.1040  139.1540 C   0  0  0  0  0  2  0  0  0  0  0  0
  187.1150  178.1890  141.3350 N   0  0  0  0  0  0  0  0  0  0  0  0
  186.1940  177.8200  144.8520 N   0  0  0  0  0  2  0  0  0  0  0  0
  190.9460  177.3930  139.7160 C   0  0  0  0  0  0  0  0  0  0  0  0
  191.6320  174.9720  137.8970 C   0  0  0  0  0  2  0  0  0  0  0  0
  184.5520  178.5580  143.2580 C   0  0  0  0  0  0  0  0  0  0  0  0
  189.4360  177.4850  141.6480 C   0  0  0  0  0  0  0  0  0  0  0  0
  190.0750  177.9950  137.4850 N   0  0  0  0  0  2  0  0  0  0  0  0
  188.3710  177.9320  140.8130 C   0  0  0  0  0  0  0  0  0  0  0  0
  191.5260  176.5970  143.3100 C   0  0  0  0  0  3  0  0  0  0  0  0
  184.8110  178.9300  140.7860 C   0  0  0  0  0  3  0  0  0  0  0  0
  191.7460  176.7760  141.9440 C   0  0  0  0  0  3  0  0  0  0  0  0
  186.1310  178.6130  140.4940 C   0  0  0  0  0  3  0  0  0  0  0  0
  185.8430  178.1430  143.5830 C   0  0  0  0  0  0  0  0  0  0  0  0
  190.2690  176.8580  143.8560 C   0  0  0  0  0  3  0  0  0  0  0  0
  187.9630  177.5610  143.5490 C   0  0  0  0  0  0  0  0  0  0  0  0
  183.5320  178.6620  144.3470 C   0  0  0  0  0  2  0  0  0  0  0  0
  182.3140  179.4230  143.8530 C   0  0  0  0  0  2  0  0  0  0  0  0
  178.9400  179.2420  143.4720 C   0  0  0  0  0  2  0  0  0  0  0  0
  180.8460  178.7130  142.1700 C   0  0  0  0  0  2  0  0  0  0  0  0
  181.2370  178.4920  143.5560 N   0  0  0  0  0  0  0  0  0  0  0  0
  179.3390  178.7290  142.1190 C   0  0  0  0  0  2  0  0  0  0  0  0
  180.0970  178.8830  144.3800 C   0  0  0  0  0  2  0  0  0  0  0  0
  1 27  1  0  0  0  0
  1 26  1  0  0  0  0
  2 14  1  0  0  0  0
  3 16  1  0  0  0  0
  4 18  1  0  0  0  0
  4 23  2  0  0  0  0
  5 11  1  0  0  0  0
  5 15  2  0  0  0  0
  6 19  1  0  0  0  0
  7  6  1  0  0  0  0
  7  3  1  0  0  0  0
  8 16  1  0  0  0  0
  8 12  1  0  0  0  0
  9 27  1  0  0  0  0
  9 25  2  0  0  0  0
 10 17  2  0  0  0  0
 11 20  2  0  0  0  0
 12 15  1  0  0  0  0
 13  9  1  0  0  0  0
 15  4  1  0  0  0  0
 17 25  1  0  0  0  0
 17 28  1  0  0  0  0
 18  1  2  0  0  0  0
 19  5  1  0  0  0  0
 20 13  1  0  0  0  0
 20 18  1  0  0  0  0
 21 26  2  0  0  0  0
 22 10  1  0  0  0  0
 23 21  1  0  0  0  0
 24 22  2  0  0  0  0
 24 13  1  0  0  0  0
 25 14  1  0  0  0  0
 27  2  2  0  0  0  0
 29 28  1  0  0  0  0
 30 34  1  0  0  0  0
 31 32  1  0  0  0  0
 32 29  1  0  0  0  0
 32 34  1  0  0  0  0
 33 31  1  0  0  0  0
 33 30  1  0  0  0  0
M  END
>  <MODEL>
1

>  <REMARK>
 VINA RESULT:      -9.4      0.000      0.000
  Name = 
  3 active torsions:
  status: ('A' for Active; 'I' for Inactive)
    1  A    between atoms: C_17  and  C_28
    2  A    between atoms: C_28  and  C_29
    3  A    between atoms: C_29  and  N_32
                            x       y       z     vdW  Elec       q    Type
                         _______ _______ _______ _____ _____    ______ ____

>  <TORSDO>
F 3

$$$$
=
 OpenBabel11122412173D

 34 40  0  0  0  0  0  0  0  0999 V2000
  184.2410  178.5920  142.6050 C   0  0  0  0  0  0  0  0  0  0  0  0
  186.6240  178.3640  143.3430 C   0  0  0  0  0  3  0  0  0  0  0  0
  180.7560  181.6330  138.8970 C   0  0  0  0  0  2  0  0  0  0  0  0
  182.0070  178.8020  141.6280 C   0  0  0  0  0  0  0  0  0  0  0  0
  181.7190  178.7450  139.2110 C   0  0  0  0  0  0  0  0  0  0  0  0
  181.1480  179.9190  137.0750 C   0  0  0  0  0  2  0  0  0  0  0  0
  180.4140  181.2010  137.4720 C   0  0  0  0  0  2  0  0  0  0  0  0
  178.9770  180.0430  139.7880 C   0  0  0  0  0  2  0  0  0  0  0  0
  186.1530  178.3520  141.1660 C   0  0  0  0  0  0  0  0  0  0  0  0
  188.3160  178.0650  139.0200 C   0  0  0  0  0  3  0  0  0  0  0  0
  183.1000  178.6080  139.0550 C   0  0  0  0  0  3  0  0  0  0  0  0
  179.6690  179.0320  140.7070 C   0  0  0  0  0  2  0  0  0  0  0  0
  185.3360  178.4030  139.9780 N   0  0  0  0  0  0  0  0  0  0  0  0
  187.7930  178.2250  142.6790 N   0  0  0  0  0  2  0  0  0  0  0  0
  181.1600  178.8660  140.5010 C   0  0  0  0  0  0  0  0  0  0  0  0
  179.5690  181.4510  139.8460 C   0  0  0  0  0  2  0  0  0  0  0  0
  188.5200  178.0870  140.3910 C   0  0  0  0  0  0  0  0  0  0  0  0
  183.4080  178.6460  141.4610 C   0  0  0  0  0  0  0  0  0  0  0  0
  180.9010  178.8590  138.0450 N   0  0  0  0  0  2  0  0  0  0  0  0
  183.9720  178.5490  140.1560 C   0  0  0  0  0  0  0  0  0  0  0  0
  182.3110  178.8440  144.0460 C   0  0  0  0  0  3  0  0  0  0  0  0
  187.1410  178.1660  138.2920 C   0  0  0  0  0  3  0  0  0  0  0  0
  181.4790  178.9000  142.9260 C   0  0  0  0  0  3  0  0  0  0  0  0
  185.8250  178.3160  138.7100 C   0  0  0  0  0  3  0  0  0  0  0  0
  187.5170  178.2160  141.3510 C   0  0  0  0  0  0  0  0  0  0  0  0
  183.6890  178.6890  143.8870 C   0  0  0  0  0  3  0  0  0  0  0  0
  185.6070  178.4420  142.4150 C   0  0  0  0  0  0  0  0  0  0  0  0
  189.9380  177.9400  140.8430 C   0  0  0  0  0  2  0  0  0  0  0  0
  190.1410  176.5830  141.4970 C   0  0  0  0  0  2  0  0  0  0  0  0
  191.2790  178.0490  144.3460 C   0  0  0  0  0  2  0  0  0  0  0  0
  190.9580  175.8380  143.5630 C   0  0  0  0  0  2  0  0  0  0  0  0
  191.2900  176.6320  142.3870 N   0  0  0  0  0  0  0  0  0  0  0  0
  191.3960  176.6170  144.7770 C   0  0  0  0  0  2  0  0  0  0  0  0
  191.4200  178.0140  142.8380 C   0  0  0  0  0  2  0  0  0  0  0  0
  1 26  1  0  0  0  0
  3 16  1  0  0  0  0
  4 23  2  0  0  0  0
  5 15  2  0  0  0  0
  6  7  1  0  0  0  0
  6 19  1  0  0  0  0
  7  3  1  0  0  0  0
  8 16  1  0  0  0  0
  8 12  1  0  0  0  0
  9 25  2  0  0  0  0
  9 27  1  0  0  0  0
 10 17  2  0  0  0  0
 11  5  1  0  0  0  0
 11 20  2  0  0  0  0
 13 20  1  0  0  0  0
 13  9  1  0  0  0  0
 14  2  1  0  0  0  0
 15 12  1  0  0  0  0
 15  4  1  0  0  0  0
 17 28  1  0  0  0  0
 17 25  1  0  0  0  0
 18  4  1  0  0  0  0
 18  1  2  0  0  0  0
 19  5  1  0  0  0  0
 20 18  1  0  0  0  0
 22 24  2  0  0  0  0
 22 10  1  0  0  0  0
 23 21  1  0  0  0  0
 24 13  1  0  0  0  0
 25 14  1  0  0  0  0
 26 21  2  0  0  0  0
 27  1  1  0  0  0  0
 27  2  2  0  0  0  0
 28 29  1  0  0  0  0
 29 32  1  0  0  0  0
 30 33  1  0  0  0  0
 31 33  1  0  0  0  0
 32 34  1  0  0  0  0
 32 31  1  0  0  0  0
 34 30  1  0  0  0  0
M  END
>  <MODEL>
2

>  <REMARK>
 VINA RESULT:      -9.0      2.436      8.514
  Name = 
  3 active torsions:
  status: ('A' for Active; 'I' for Inactive)
    1  A    between atoms: C_17  and  C_28
    2  A    between atoms: C_28  and  C_29
    3  A    between atoms: C_29  and  N_32
                            x       y       z     vdW  Elec       q    Type
                         _______ _______ _______ _____ _____    ______ ____

>  <TORSDO>
F 3

$$$$
=
 OpenBabel11122412173D

 34 40  0  0  1  0  0  0  0  0999 V2000
  185.0040  178.7200  142.4300 C   0  0  0  0  0  0  0  0  0  0  0  0
  187.4840  178.6860  142.0750 C   0  0  0  0  0  3  0  0  0  0  0  0
  180.0010  181.0810  140.3030 C   0  0  0  0  0  2  0  0  0  0  0  0
  182.5580  178.7080  142.5080 C   0  0  0  0  0  0  0  0  0  0  0  0
  181.2730  178.3030  140.4810 C   0  0  0  0  0  0  0  0  0  0  0  0
  179.7350  179.1450  138.6920 C   0  0  0  0  0  2  0  0  0  0  0  0
  179.1240  180.4420  139.2260 C   0  0  0  0  0  2  0  0  0  0  0  0
  178.9310  179.5660  142.0490 C   0  0  0  0  0  2  0  0  0  0  0  0
  186.1320  178.3520  140.3370 C   0  0  0  0  0  0  0  0  0  0  0  0
  187.1870  177.8490  137.5090 C   0  0  0  0  0  3  0  0  0  0  0  0
  182.4600  178.1980  139.7540 C   0  0  0  0  0  3  0  0  0  0  0  0
  180.0410  178.7200  142.6790 C   0  0  0  0  0  2  0  0  0  0  0  0
  184.8850  178.2060  139.6270 N   0  0  0  0  0  0  0  0  0  0  0  0
  188.2640  178.5000  140.9870 N   0  0  0  0  0  0  0  0  0  0  0  0
  181.3100  178.5820  141.8630 C   0  0  0  0  0  0  0  0  0  0  0  0
  179.3560  180.9890  141.6880 C   0  0  0  0  0  2  0  0  0  0  0  0
  187.9540  178.0700  138.6420 C   0  0  0  0  0  0  0  0  0  0  0  0
  183.7620  178.5830  141.7660 C   0  0  1  0  0  3  0  0  0  0  0  0
  180.0280  178.2220  139.7830 N   0  0  0  0  0  2  0  0  0  0  0  0
  183.7200  178.3250  140.3640 C   0  0  0  0  0  0  0  0  0  0  0  0
  183.8610  179.0980  144.5300 C   0  0  0  0  0  3  0  0  0  0  0  0
  185.8090  177.8040  137.3590 C   0  0  0  0  0  3  0  0  0  0  0  0
  182.6300  178.9670  143.8870 C   0  0  0  0  0  3  0  0  0  0  0  0
  184.7910  177.9610  138.2900 C   0  0  0  0  0  3  0  0  0  0  0  0
  187.4500  178.2940  139.9230 C   0  0  0  0  0  0  0  0  0  0  0  0
  185.0460  178.9740  143.8050 C   0  0  0  0  0  3  0  0  0  0  0  0
  186.1660  178.5960  141.6810 C   0  0  0  0  0  0  0  0  0  0  0  0
  189.4360  178.0400  138.4440 C   0  0  0  0  0  2  0  0  0  0  0  0
  189.8720  176.6700  137.9560 C   0  0  0  0  0  2  0  0  0  0  0  0
  193.2360  176.5140  138.4240 C   0  0  0  0  0  2  0  0  0  0  0  0
  191.3590  177.2280  139.6790 C   0  0  0  0  0  2  0  0  0  0  0  0
  190.8870  176.1290  138.8460 N   0  0  0  0  0  0  0  0  0  0  0  0
  192.8640  177.1430  139.7350 C   0  0  0  0  0  2  0  0  0  0  0  0
  192.0130  175.7230  138.0110 C   0  0  0  0  0  2  0  0  0  0  0  0
  1 26  1  0  0  0  0
  3 16  1  0  0  0  0
  4 23  2  0  0  0  0
  5 15  2  0  0  0  0
  6  7  1  0  0  0  0
  6 19  1  0  0  0  0
  7  3  1  0  0  0  0
  8 12  1  0  0  0  0
  9 27  1  0  0  0  0
 10 17  2  0  0  0  0
 11 20  2  0  0  0  0
 11  5  1  0  0  0  0
 13  9  1  0  0  0  0
 13 20  1  0  0  0  0
 14  2  2  0  0  0  0
 15  4  1  0  0  0  0
 15 12  1  0  0  0  0
 16  8  1  0  0  0  0
 17 25  1  0  0  0  0
 18 20  1  6  0  0  0
 18  1  1  0  0  0  0
 18  4  1  0  0  0  0
 19  5  1  0  0  0  0
 22 10  1  0  0  0  0
 22 24  2  0  0  0  0
 23 21  1  0  0  0  0
 24 13  1  0  0  0  0
 25  9  2  0  0  0  0
 25 14  1  0  0  0  0
 26 21  2  0  0  0  0
 27  2  1  0  0  0  0
 27  1  2  0  0  0  0
 28 17  1  0  0  0  0
 29 28  1  0  0  0  0
 29 32  1  0  0  0  0
 30 33  1  0  0  0  0
 31 33  1  0  0  0  0
 32 31  1  0  0  0  0
 34 30  1  0  0  0  0
 34 32  1  0  0  0  0
M  END
>  <MODEL>
3

>  <REMARK>
 VINA RESULT:      -8.9      1.950      9.082
  Name = 
  3 active torsions:
  status: ('A' for Active; 'I' for Inactive)
    1  A    between atoms: C_17  and  C_28
    2  A    between atoms: C_28  and  C_29
    3  A    between atoms: C_29  and  N_32
                            x       y       z     vdW  Elec       q    Type
                         _______ _______ _______ _____ _____    ______ ____

>  <TORSDO>
F 3

$$$$
=
 OpenBabel11122412173D

 34 40  0  0  1  0  0  0  0  0999 V2000
  184.6770  178.4930  144.5150 C   0  0  0  0  0  0  0  0  0  0  0  0
  182.2240  178.6600  144.0370 C   0  0  0  0  0  3  0  0  0  0  0  0
  189.5890  175.6280  142.8430 C   0  0  0  0  0  2  0  0  0  0  0  0
  187.1120  178.3490  144.7120 C   0  0  0  0  0  0  0  0  0  0  0  0
  188.5090  178.4900  142.7240 C   0  0  0  0  0  0  0  0  0  0  0  0
  190.0600  177.3940  141.0900 C   0  0  0  0  0  2  0  0  0  0  0  0
  190.5540  176.1110  141.7610 C   0  0  0  0  0  2  0  0  0  0  0  0
  190.6860  177.2150  144.5060 C   0  0  0  0  0  2  0  0  0  0  0  0
  183.6690  178.7510  142.3460 C   0  0  0  0  0  0  0  0  0  0  0  0
  182.7760  179.0730  139.4360 C   0  0  0  0  0  3  0  0  0  0  0  0
  187.3650  178.6090  141.9330 C   0  0  0  0  0  3  0  0  0  0  0  0
  189.6120  178.1850  145.0080 C   0  0  0  0  0  2  0  0  0  0  0  0
  184.9530  178.7510  141.6880 N   0  0  0  0  0  0  0  0  0  0  0  0
  181.5060  178.8030  142.9000 N   0  0  0  0  0  0  0  0  0  0  0  0
  188.3930  178.3350  144.1210 C   0  0  0  0  0  0  0  0  0  0  0  0
  190.1780  175.7970  144.2450 C   0  0  0  0  0  2  0  0  0  0  0  0
  181.9470  179.0030  140.5450 C   0  0  0  0  0  0  0  0  0  0  0  0
  185.9540  178.4890  143.9030 C   0  0  1  0  0  3  0  0  0  0  0  0
  189.7860  178.4260  142.0840 N   0  0  0  0  0  2  0  0  0  0  0  0
  186.0740  178.6200  142.4890 C   0  0  0  0  0  0  0  0  0  0  0  0
  185.6980  178.2250  146.6930 C   0  0  0  0  0  3  0  0  0  0  0  0
  184.1590  179.0140  139.3520 C   0  0  0  0  0  3  0  0  0  0  0  0
  186.9630  178.2170  146.1030 C   0  0  0  0  0  3  0  0  0  0  0  0
  185.1220  178.8710  140.3420 C   0  0  0  0  0  3  0  0  0  0  0  0
  182.3780  178.8590  141.8640 C   0  0  0  0  0  0  0  0  0  0  0  0
  184.5570  178.3630  145.9030 C   0  0  0  0  0  3  0  0  0  0  0  0
  183.5600  178.6280  143.7020 C   0  0  0  0  0  0  0  0  0  0  0  0
  180.4810  179.1140  140.2730 C   0  0  0  0  0  2  0  0  0  0  0  0
  180.0300  180.5590  140.4090 C   0  0  0  0  0  2  0  0  0  0  0  0
  180.8050  181.3750  137.2000 C   0  0  0  0  0  2  0  0  0  0  0  0
  179.3500  179.8510  138.2810 C   0  0  0  0  0  2  0  0  0  0  0  0
  179.4370  181.0100  139.1610 N   0  0  0  0  0  0  0  0  0  0  0  0
  179.8190  180.2810  136.9140 C   0  0  0  0  0  2  0  0  0  0  0  0
  180.3880  181.9310  138.5460 C   0  0  0  0  0  2  0  0  0  0  0  0
  1 26  1  0  0  0  0
  3 16  1  0  0  0  0
  4 23  2  0  0  0  0
  5 15  2  0  0  0  0
  6  7  1  0  0  0  0
  6 19  1  0  0  0  0
  7  3  1  0  0  0  0
  8 12  1  0  0  0  0
  9 27  1  0  0  0  0
 10 17  2  0  0  0  0
 11 20  2  0  0  0  0
 11  5  1  0  0  0  0
 13  9  1  0  0  0  0
 13 20  1  0  0  0  0
 14  2  2  0  0  0  0
 15  4  1  0  0  0  0
 15 12  1  0  0  0  0
 16  8  1  0  0  0  0
 17 25  1  0  0  0  0
 18 20  1  6  0  0  0
 18  1  1  0  0  0  0
 18  4  1  0  0  0  0
 19  5  1  0  0  0  0
 22 10  1  0  0  0  0
 22 24  2  0  0  0  0
 23 21  1  0  0  0  0
 24 13  1  0  0  0  0
 25  9  2  0  0  0  0
 25 14  1  0  0  0  0
 26 21  2  0  0  0  0
 27  2  1  0  0  0  0
 27  1  2  0  0  0  0
 28 29  1  0  0  0  0
 28 17  1  0  0  0  0
 30 34  1  0  0  0  0
 31 32  1  0  0  0  0
 32 29  1  0  0  0  0
 33 30  1  0  0  0  0
 33 31  1  0  0  0  0
 34 32  1  0  0  0  0
M  END
>  <MODEL>
4

>  <REMARK>
 VINA RESULT:      -8.9      2.441      4.978
  Name = 
  3 active torsions:
  status: ('A' for Active; 'I' for Inactive)
    1  A    between atoms: C_17  and  C_28
    2  A    between atoms: C_28  and  C_29
    3  A    between atoms: C_29  and  N_32
                            x       y       z     vdW  Elec       q    Type
                         _______ _______ _______ _____ _____    ______ ____

>  <TORSDO>
F 3

$$$$
=
 OpenBabel11122412173D

 34 40  0  0  0  0  0  0  0  0999 V2000
  185.6810  178.3880  140.8170 C   0  0  0  0  0  0  0  0  0  0  0  0
  187.6620  178.1200  142.3270 C   0  0  0  0  0  3  0  0  0  0  0  0
  180.2010  176.3340  139.8730 C   0  0  0  0  0  2  0  0  0  0  0  0
  183.5940  178.6650  139.5700 C   0  0  0  0  0  0  0  0  0  0  0  0
  181.4910  178.9650  140.7580 C   0  0  0  0  0  0  0  0  0  0  0  0
  179.2430  178.0880  141.4290 C   0  0  0  0  0  2  0  0  0  0  0  0
  178.9310  176.9330  140.4750 C   0  0  0  0  0  2  0  0  0  0  0  0
  180.1850  178.1440  138.0820 C   0  0  0  0  0  2  0  0  0  0  0  0
  185.6420  178.3900  143.2220 C   0  0  0  0  0  0  0  0  0  0  0  0
  185.1810  178.4490  146.2480 C   0  0  0  0  0  3  0  0  0  0  0  0
  182.1680  178.8610  141.9740 C   0  0  0  0  0  3  0  0  0  0  0  0
  181.4900  178.9370  138.2040 C   0  0  0  0  0  2  0  0  0  0  0  0
  184.2120  178.5830  143.2550 N   0  0  0  0  0  0  0  0  0  0  0  0
  187.8110  178.0960  143.6700 N   0  0  0  0  0  2  0  0  0  0  0  0
  182.1950  178.8450  139.5410 C   0  0  0  0  0  0  0  0  0  0  0  0
  180.3270  176.6530  138.3820 C   0  0  0  0  0  2  0  0  0  0  0  0
  186.3990  178.2820  145.6070 C   0  0  0  0  0  0  0  0  0  0  0  0
  184.2780  178.5770  140.8100 C   0  0  0  0  0  0  0  0  0  0  0  0
  180.0680  179.0950  140.7700 N   0  0  0  0  0  2  0  0  0  0  0  0
  183.5600  178.6730  142.0380 C   0  0  0  0  0  0  0  0  0  0  0  0
  185.7110  178.3770  138.3970 C   0  0  0  0  0  3  0  0  0  0  0  0
  183.9110  178.6210  145.7170 C   0  0  0  0  0  3  0  0  0  0  0  0
  184.3270  178.5610  138.3760 C   0  0  0  0  0  3  0  0  0  0  0  0
  183.4800  178.6800  144.3990 C   0  0  0  0  0  3  0  0  0  0  0  0
  186.5850  178.2610  144.2250 C   0  0  0  0  0  0  0  0  0  0  0  0
  186.3870  178.2910  139.6140 C   0  0  0  0  0  3  0  0  0  0  0  0
  186.3260  178.3020  142.0430 C   0  0  0  0  0  0  0  0  0  0  0  0
  187.5900  178.1330  146.4990 C   0  0  0  0  0  2  0  0  0  0  0  0
  188.5450  177.0980  145.9290 C   0  0  0  0  0  2  0  0  0  0  0  0
  191.4310  176.0990  147.4240 C   0  0  0  0  0  2  0  0  0  0  0  0
  190.7610  176.7550  145.2500 C   0  0  0  0  0  2  0  0  0  0  0  0
  189.9190  177.5090  146.1700 N   0  0  0  0  0  0  0  0  0  0  0  0
  191.9540  176.2590  146.0270 C   0  0  0  0  0  2  0  0  0  0  0  0
  190.2670  177.0630  147.5160 C   0  0  0  0  0  2  0  0  0  0  0  0
  1 27  1  0  0  0  0
  2 14  1  0  0  0  0
  3  7  1  0  0  0  0
  4 18  1  0  0  0  0
  5 19  1  0  0  0  0
  5 11  2  0  0  0  0
  7  6  1  0  0  0  0
  8 12  1  0  0  0  0
  8 16  1  0  0  0  0
  9 13  1  0  0  0  0
  9 25  2  0  0  0  0
 11 20  1  0  0  0  0
 12 15  1  0  0  0  0
 13 24  1  0  0  0  0
 14 25  1  0  0  0  0
 15  4  2  0  0  0  0
 15  5  1  0  0  0  0
 16  3  1  0  0  0  0
 17 10  2  0  0  0  0
 17 28  1  0  0  0  0
 18  1  1  0  0  0  0
 18 20  2  0  0  0  0
 19  6  1  0  0  0  0
 20 13  1  0  0  0  0
 21 26  1  0  0  0  0
 22 10  1  0  0  0  0
 23 21  2  0  0  0  0
 23  4  1  0  0  0  0
 24 22  2  0  0  0  0
 25 17  1  0  0  0  0
 26  1  2  0  0  0  0
 27  2  2  0  0  0  0
 27  9  1  0  0  0  0
 29 32  1  0  0  0  0
 29 28  1  0  0  0  0
 30 34  1  0  0  0  0
 31 33  1  0  0  0  0
 31 32  1  0  0  0  0
 32 34  1  0  0  0  0
 33 30  1  0  0  0  0
M  END
>  <MODEL>
5

>  <REMARK>
 VINA RESULT:      -8.8      3.242      8.104
  Name = 
  3 active torsions:
  status: ('A' for Active; 'I' for Inactive)
    1  A    between atoms: C_17  and  C_28
    2  A    between atoms: C_28  and  C_29
    3  A    between atoms: C_29  and  N_32
                            x       y       z     vdW  Elec       q    Type
                         _______ _______ _______ _____ _____    ______ ____

>  <TORSDO>
F 3

$$$$
=
 OpenBabel11122412173D

 34 40  0  0  0  0  0  0  0  0999 V2000
  189.8180  177.5230  141.0310 C   0  0  0  0  0  0  0  0  0  0  0  0
  189.8060  177.6100  143.5340 C   0  0  0  0  0  3  0  0  0  0  0  0
  186.8790  175.2540  136.4100 C   0  0  0  0  0  2  0  0  0  0  0  0
  189.5630  177.5000  138.5970 C   0  0  0  0  0  0  0  0  0  0  0  0
  187.4120  178.0290  137.5880 C   0  0  0  0  0  0  0  0  0  0  0  0
  185.3790  177.2930  136.3240 C   0  0  0  0  0  2  0  0  0  0  0  0
  185.7380  175.9550  135.6740 C   0  0  0  0  0  2  0  0  0  0  0  0
  188.5600  176.6330  135.0830 C   0  0  0  0  0  2  0  0  0  0  0  0
  187.9270  178.0460  142.4230 C   0  0  0  0  0  0  0  0  0  0  0  0
  185.3070  178.7540  143.8380 C   0  0  0  0  0  3  0  0  0  0  0  0
  186.8620  178.1970  138.8600 C   0  0  0  0  0  3  0  0  0  0  0  0
  189.3900  177.4470  136.0800 C   0  0  0  0  0  2  0  0  0  0  0  0
  187.0650  178.2260  141.2800 N   0  0  0  0  0  0  0  0  0  0  0  0
  188.8500  177.8800  144.4500 N   0  0  0  0  0  2  0  0  0  0  0  0
  188.7650  177.6550  137.4440 C   0  0  0  0  0  0  0  0  0  0  0  0
  188.1660  175.2430  135.5830 C   0  0  0  0  0  2  0  0  0  0  0  0
  186.5170  178.4650  144.4500 C   0  0  0  0  0  0  0  0  0  0  0  0
  189.0020  177.6910  139.8860 C   0  0  0  0  0  0  0  0  0  0  0  0
  186.5590  178.1420  136.4470 N   0  0  0  0  0  2  0  0  0  0  0  0
  187.6270  178.0430  140.0290 C   0  0  0  0  0  0  0  0  0  0  0  0
  191.7140  176.9880  139.6230 C   0  0  0  0  0  3  0  0  0  0  0  0
  184.9760  178.7940  142.4920 C   0  0  0  0  0  3  0  0  0  0  0  0
  190.9190  177.1480  138.4870 C   0  0  0  0  0  3  0  0  0  0  0  0
  185.7470  178.5610  141.3620 C   0  0  0  0  0  3  0  0  0  0  0  0
  187.7000  178.1480  143.7830 C   0  0  0  0  0  0  0  0  0  0  0  0
  191.1660  177.1750  140.8930 C   0  0  0  0  0  3  0  0  0  0  0  0
  189.2440  177.7110  142.2800 C   0  0  0  0  0  0  0  0  0  0  0  0
  186.5250  178.5260  145.9440 C   0  0  0  0  0  2  0  0  0  0  0  0
  186.5890  177.1240  146.5260 C   0  0  0  0  0  2  0  0  0  0  0  0
  189.7310  177.3990  147.7950 C   0  0  0  0  0  2  0  0  0  0  0  0
  187.6680  178.5320  148.0560 C   0  0  0  0  0  2  0  0  0  0  0  0
  187.3270  177.1430  147.7780 N   0  0  0  0  0  0  0  0  0  0  0  0
  189.1080  178.5660  148.5020 C   0  0  0  0  0  2  0  0  0  0  0  0
  188.5850  176.4420  147.5410 C   0  0  0  0  0  2  0  0  0  0  0  0
  1 27  1  0  0  0  0
  2 14  1  0  0  0  0
  4 18  1  0  0  0  0
  5 11  1  0  0  0  0
  6 19  1  0  0  0  0
  7  6  1  0  0  0  0
  7  3  1  0  0  0  0
  8 16  1  0  0  0  0
  8 12  1  0  0  0  0
  9 25  2  0  0  0  0
 10 17  2  0  0  0  0
 11 20  2  0  0  0  0
 12 15  1  0  0  0  0
 13 24  1  0  0  0  0
 13  9  1  0  0  0  0
 15  5  2  0  0  0  0
 15  4  1  0  0  0  0
 16  3  1  0  0  0  0
 17 28  1  0  0  0  0
 18 20  1  0  0  0  0
 18  1  2  0  0  0  0
 19  5  1  0  0  0  0
 20 13  1  0  0  0  0
 21 26  2  0  0  0  0
 22 10  1  0  0  0  0
 23  4  2  0  0  0  0
 23 21  1  0  0  0  0
 24 22  2  0  0  0  0
 25 17  1  0  0  0  0
 25 14  1  0  0  0  0
 26  1  1  0  0  0  0
 27  9  1  0  0  0  0
 27  2  2  0  0  0  0
 28 29  1  0  0  0  0
 29 32  1  0  0  0  0
 30 33  1  0  0  0  0
 31 33  1  0  0  0  0
 32 31  1  0  0  0  0
 34 32  1  0  0  0  0
 34 30  1  0  0  0  0
M  END
>  <MODEL>
6

>  <REMARK>
 VINA RESULT:      -8.5      2.564      4.756
  Name = 
  3 active torsions:
  status: ('A' for Active; 'I' for Inactive)
    1  A    between atoms: C_17  and  C_28
    2  A    between atoms: C_28  and  C_29
    3  A    between atoms: C_29  and  N_32
                            x       y       z     vdW  Elec       q    Type
                         _______ _______ _______ _____ _____    ______ ____

>  <TORSDO>
F 3

$$$$
=
 OpenBabel11122412173D

 34 40  0  0  0  0  0  0  0  0999 V2000
  191.0150  177.0510  139.5900 C   0  0  0  0  0  0  0  0  0  0  0  0
  192.0710  177.0700  141.8610 C   0  0  0  0  0  3  0  0  0  0  0  0
  186.3730  174.8920  136.6020 C   0  0  0  0  0  2  0  0  0  0  0  0
  189.7470  177.0930  137.4970 C   0  0  0  0  0  0  0  0  0  0  0  0
  187.3740  177.6360  137.5160 C   0  0  0  0  0  0  0  0  0  0  0  0
  184.9920  176.9230  137.2190 C   0  0  0  0  0  2  0  0  0  0  0  0
  185.0310  175.6060  136.4420 C   0  0  0  0  0  2  0  0  0  0  0  0
  187.3370  176.3160  134.7240 C   0  0  0  0  0  2  0  0  0  0  0  0
  189.9000  177.5250  141.6680 C   0  0  0  0  0  0  0  0  0  0  0  0
  188.1370  178.1790  144.0840 C   0  0  0  0  0  3  0  0  0  0  0  0
  187.4190  177.7670  138.9050 C   0  0  0  0  0  3  0  0  0  0  0  0
  188.5170  177.1080  135.2940 C   0  0  0  0  0  2  0  0  0  0  0  0
  188.6340  177.7310  141.0080 N   0  0  0  0  0  0  0  0  0  0  0  0
  191.5970  177.3090  143.1040 N   0  0  0  0  0  2  0  0  0  0  0  0
  188.5340  177.2750  136.7990 C   0  0  0  0  0  0  0  0  0  0  0  0
  187.1840  174.9110  135.3050 C   0  0  0  0  0  2  0  0  0  0  0  0
  189.4910  177.8800  144.1140 C   0  0  0  0  0  0  0  0  0  0  0  0
  189.7890  177.2450  138.9080 C   0  0  0  0  0  0  0  0  0  0  0  0
  186.1170  177.7750  136.8510 N   0  0  0  0  0  2  0  0  0  0  0  0
  188.6090  177.5860  139.6320 C   0  0  0  0  0  0  0  0  0  0  0  0
  192.1260  176.5660  137.4950 C   0  0  0  0  0  3  0  0  0  0  0  0
  187.2640  178.2530  143.0090 C   0  0  0  0  0  3  0  0  0  0  0  0
  190.9240  176.7530  136.8110 C   0  0  0  0  0  3  0  0  0  0  0  0
  187.4790  178.0550  141.6520 C   0  0  0  0  0  3  0  0  0  0  0  0
  190.2750  177.5890  142.9980 C   0  0  0  0  0  0  0  0  0  0  0  0
  192.1720  176.7150  138.8810 C   0  0  0  0  0  3  0  0  0  0  0  0
  191.0280  177.2020  140.9690 C   0  0  0  0  0  0  0  0  0  0  0  0
  190.1350  177.9010  145.4630 C   0  0  0  0  0  2  0  0  0  0  0  0
  190.1610  176.5010  146.0530 C   0  0  0  0  0  2  0  0  0  0  0  0
  189.0690  178.6280  148.4710 C   0  0  0  0  0  2  0  0  0  0  0  0
  188.2850  176.6400  147.4500 C   0  0  0  0  0  2  0  0  0  0  0  0
  189.7390  176.5440  147.4440 N   0  0  0  0  0  0  0  0  0  0  0  0
  187.9020  177.6840  148.4680 C   0  0  0  0  0  2  0  0  0  0  0  0
  190.2440  177.7940  148.0030 C   0  0  0  0  0  2  0  0  0  0  0  0
  1 27  1  0  0  0  0
  2 14  1  0  0  0  0
  4 18  1  0  0  0  0
  5 11  2  0  0  0  0
  7  3  1  0  0  0  0
  7  6  1  0  0  0  0
  8 12  1  0  0  0  0
  8 16  1  0  0  0  0
  9 25  2  0  0  0  0
 10 17  2  0  0  0  0
 11 20  1  0  0  0  0
 12 15  1  0  0  0  0
 13 24  1  0  0  0  0
 13  9  1  0  0  0  0
 15  4  2  0  0  0  0
 15  5  1  0  0  0  0
 16  3  1  0  0  0  0
 17 28  1  0  0  0  0
 18  1  1  0  0  0  0
 18 20  2  0  0  0  0
 19  6  1  0  0  0  0
 19  5  1  0  0  0  0
 20 13  1  0  0  0  0
 21 26  1  0  0  0  0
 22 10  1  0  0  0  0
 23 21  2  0  0  0  0
 23  4  1  0  0  0  0
 24 22  2  0  0  0  0
 25 14  1  0  0  0  0
 25 17  1  0  0  0  0
 26  1  2  0  0  0  0
 27  9  1  0  0  0  0
 27  2  2  0  0  0  0
 28 29  1  0  0  0  0
 29 32  1  0  0  0  0
 31 33  1  0  0  0  0
 32 31  1  0  0  0  0
 32 34  1  0  0  0  0
 33 30  1  0  0  0  0
 34 30  1  0  0  0  0
M  END
>  <MODEL>
7

>  <REMARK>
 VINA RESULT:      -8.4      3.521      5.813
  Name = 
  3 active torsions:
  status: ('A' for Active; 'I' for Inactive)
    1  A    between atoms: C_17  and  C_28
    2  A    between atoms: C_28  and  C_29
    3  A    between atoms: C_29  and  N_32
                            x       y       z     vdW  Elec       q    Type
                         _______ _______ _______ _____ _____    ______ ____

>  <TORSDO>
F 3

$$$$
=
 OpenBabel11122412173D

 34 40  0  0  0  0  0  0  0  0999 V2000
  187.5650  178.1360  139.8100 C   0  0  0  0  0  0  0  0  0  0  0  0
  189.6080  177.9390  141.2460 C   0  0  0  0  0  3  0  0  0  0  0  0
  182.1370  175.8770  139.0550 C   0  0  0  0  0  2  0  0  0  0  0  0
  185.4240  178.3370  138.6400 C   0  0  0  0  0  0  0  0  0  0  0  0
  183.3560  178.5520  139.9050 C   0  0  0  0  0  0  0  0  0  0  0  0
  181.1690  177.5870  140.6520 C   0  0  0  0  0  2  0  0  0  0  0  0
  180.8670  176.4240  139.7050 C   0  0  0  0  0  2  0  0  0  0  0  0
  181.9860  177.6910  137.2730 C   0  0  0  0  0  2  0  0  0  0  0  0
  187.6120  178.1290  142.2150 C   0  0  0  0  0  0  0  0  0  0  0  0
  187.2590  178.1600  145.2550 C   0  0  0  0  0  3  0  0  0  0  0  0
  184.0800  178.4700  141.0950 C   0  0  0  0  0  3  0  0  0  0  0  0
  183.2630  178.5330  137.3520 C   0  0  0  0  0  2  0  0  0  0  0  0
  186.1790  178.2660  142.3000 N   0  0  0  0  0  0  0  0  0  0  0  0
  189.8060  177.9170  142.5820 N   0  0  0  0  0  2  0  0  0  0  0  0
  184.0190  178.4640  138.6630 C   0  0  0  0  0  0  0  0  0  0  0  0
  182.1960  176.2040  137.5610 C   0  0  0  0  0  2  0  0  0  0  0  0
  188.4590  178.0410  144.5700 C   0  0  0  0  0  0  0  0  0  0  0  0
  186.1560  178.2710  139.8550 C   0  0  0  0  0  0  0  0  0  0  0  0
  181.9300  178.6270  139.9690 N   0  0  0  0  0  2  0  0  0  0  0  0
  185.4790  178.3360  141.1080 C   0  0  0  0  0  0  0  0  0  0  0  0
  187.5070  178.1340  137.3900 C   0  0  0  0  0  3  0  0  0  0  0  0
  185.9660  178.2850  144.7720 C   0  0  0  0  0  3  0  0  0  0  0  0
  186.1170  178.2650  137.4200 C   0  0  0  0  0  3  0  0  0  0  0  0
  185.4850  178.3320  143.4700 C   0  0  0  0  0  3  0  0  0  0  0  0
  188.5950  178.0330  143.1830 C   0  0  0  0  0  0  0  0  0  0  0  0
  188.2290  178.0700  138.5810 C   0  0  0  0  0  3  0  0  0  0  0  0
  188.2560  178.0700  141.0110 C   0  0  0  0  0  0  0  0  0  0  0  0
  189.6870  177.9350  145.4170 C   0  0  0  0  0  2  0  0  0  0  0  0
  189.8000  176.5390  146.0050 C   0  0  0  0  0  2  0  0  0  0  0  0
  188.9130  178.6060  148.5550 C   0  0  0  0  0  2  0  0  0  0  0  0
  188.3040  176.4430  147.8060 C   0  0  0  0  0  2  0  0  0  0  0  0
  189.7090  176.6050  147.4550 N   0  0  0  0  0  0  0  0  0  0  0  0
  187.9760  177.4730  148.8580 C   0  0  0  0  0  2  0  0  0  0  0  0
  190.0840  177.9620  147.8430 C   0  0  0  0  0  2  0  0  0  0  0  0
  1 18  1  0  0  0  0
  1 27  1  0  0  0  0
  2 14  1  0  0  0  0
  3  7  1  0  0  0  0
  4 15  2  0  0  0  0
  4 18  1  0  0  0  0
  5 19  1  0  0  0  0
  5 11  2  0  0  0  0
  7  6  1  0  0  0  0
  8 12  1  0  0  0  0
  8 16  1  0  0  0  0
  9 13  1  0  0  0  0
  9 25  2  0  0  0  0
 11 20  1  0  0  0  0
 12 15  1  0  0  0  0
 13 24  1  0  0  0  0
 14 25  1  0  0  0  0
 15  5  1  0  0  0  0
 16  3  1  0  0  0  0
 17 10  2  0  0  0  0
 17 28  1  0  0  0  0
 18 20  2  0  0  0  0
 19  6  1  0  0  0  0
 20 13  1  0  0  0  0
 21 23  2  0  0  0  0
 21 26  1  0  0  0  0
 22 10  1  0  0  0  0
 23  4  1  0  0  0  0
 24 22  2  0  0  0  0
 25 17  1  0  0  0  0
 26  1  2  0  0  0  0
 27  2  2  0  0  0  0
 27  9  1  0  0  0  0
 28 29  1  0  0  0  0
 29 32  1  0  0  0  0
 30 33  1  0  0  0  0
 31 33  1  0  0  0  0
 32 31  1  0  0  0  0
 32 34  1  0  0  0  0
 34 30  1  0  0  0  0
M  END
>  <MODEL>
8

>  <REMARK>
 VINA RESULT:      -8.3      2.686      7.079
  Name = 
  3 active torsions:
  status: ('A' for Active; 'I' for Inactive)
    1  A    between atoms: C_17  and  C_28
    2  A    between atoms: C_28  and  C_29
    3  A    between atoms: C_29  and  N_32
                            x       y       z     vdW  Elec       q    Type
                         _______ _______ _______ _____ _____    ______ ____

>  <TORSDO>
F 3

$$$$
=
 OpenBabel11122412173D

 34 40  0  0  1  0  0  0  0  0999 V2000
  185.6630  178.4380  145.2340 C   0  0  0  0  0  0  0  0  0  0  0  0
  183.1700  178.6330  145.1020 C   0  0  0  0  0  3  0  0  0  0  0  0
  190.2580  175.4830  142.9330 C   0  0  0  0  0  2  0  0  0  0  0  0
  188.1000  178.2620  145.0890 C   0  0  0  0  0  0  0  0  0  0  0  0
  189.2060  178.3570  142.9230 C   0  0  0  0  0  0  0  0  0  0  0  0
  190.4990  177.2190  141.1050 C   0  0  0  0  0  2  0  0  0  0  0  0
  191.0670  175.9380  141.7190 C   0  0  0  0  0  2  0  0  0  0  0  0
  191.5970  177.0760  144.4010 C   0  0  0  0  0  2  0  0  0  0  0  0
  184.3650  178.6810  143.2240 C   0  0  0  0  0  0  0  0  0  0  0  0
  183.0760  178.9780  140.4640 C   0  0  0  0  0  3  0  0  0  0  0  0
  187.9640  178.4830  142.2990 C   0  0  0  0  0  3  0  0  0  0  0  0
  190.6150  178.0670  145.0340 C   0  0  0  0  0  2  0  0  0  0  0  0
  185.5430  178.6540  142.3920 N   0  0  0  0  0  0  0  0  0  0  0  0
  182.3010  178.7700  144.0750 N   0  0  0  0  0  0  0  0  0  0  0  0
  189.2860  178.2220  144.3250 C   0  0  1  0  0  3  0  0  0  0  0  0
  191.0400  175.6620  144.2360 C   0  0  0  0  0  2  0  0  0  0  0  0
  182.4100  178.9340  141.6790 C   0  0  0  0  0  0  0  0  0  0  0  0
  186.8420  178.4070  144.4490 C   0  0  0  0  0  0  0  0  0  0  0  0
  190.3790  178.2670  142.1120 N   0  0  0  0  0  2  0  0  0  0  0  0
  186.7640  178.5180  143.0300 C   0  0  0  0  0  0  0  0  0  0  0  0
  186.9770  178.1830  147.2510 C   0  0  0  0  0  3  0  0  0  0  0  0
  184.4320  178.8980  140.1870 C   0  0  0  0  0  3  0  0  0  0  0  0
  188.1460  178.1500  146.4890 C   0  0  0  0  0  3  0  0  0  0  0  0
  185.5230  178.7550  141.0340 C   0  0  0  0  0  3  0  0  0  0  0  0
  183.0200  178.8010  142.9260 C   0  0  0  0  0  0  0  0  0  0  0  0
  185.7390  178.3270  146.6260 C   0  0  0  0  0  3  0  0  0  0  0  0
  184.4460  178.5770  144.5840 C   0  0  0  0  0  0  0  0  0  0  0  0
  180.9220  179.0620  141.6130 C   0  0  0  0  0  2  0  0  0  0  0  0
  180.3500  178.0410  140.6440 C   0  0  0  0  0  2  0  0  0  0  0  0
  180.1860  180.7320  138.5720 C   0  0  0  0  0  2  0  0  0  0  0  0
  179.9830  178.3830  138.3550 C   0  0  0  0  0  2  0  0  0  0  0  0
  179.4810  178.7040  139.6850 N   0  0  0  0  0  0  0  0  0  0  0  0
  179.9790  179.6560  137.5470 C   0  0  0  0  0  2  0  0  0  0  0  0
  179.6660  180.1410  139.8660 C   0  0  0  0  0  2  0  0  0  0  0  0
  1 26  1  0  0  0  0
  3 16  1  0  0  0  0
  4 23  2  0  0  0  0
  5 15  1  0  0  0  0
  6  7  1  0  0  0  0
  6 19  1  0  0  0  0
  7  3  1  0  0  0  0
  8 12  1  0  0  0  0
  9 27  1  0  0  0  0
 10 17  2  0  0  0  0
 11  5  2  0  0  0  0
 11 20  1  0  0  0  0
 13 20  1  0  0  0  0
 13  9  1  0  0  0  0
 14  2  2  0  0  0  0
 15 12  1  1  0  0  0
 15  4  1  0  0  0  0
 16  8  1  0  0  0  0
 17 25  1  0  0  0  0
 18  4  1  0  0  0  0
 18  1  1  0  0  0  0
 19  5  1  0  0  0  0
 20 18  2  0  0  0  0
 22 10  1  0  0  0  0
 22 24  2  0  0  0  0
 23 21  1  0  0  0  0
 24 13  1  0  0  0  0
 25  9  2  0  0  0  0
 25 14  1  0  0  0  0
 26 21  2  0  0  0  0
 27  2  1  0  0  0  0
 27  1  2  0  0  0  0
 28 17  1  0  0  0  0
 29 28  1  0  0  0  0
 30 34  1  0  0  0  0
 31 32  1  0  0  0  0
 32 34  1  0  0  0  0
 32 29  1  0  0  0  0
 33 31  1  0  0  0  0
 33 30  1  0  0  0  0
M  END
>  <MODEL>
9

>  <REMARK>
 VINA RESULT:      -8.3      2.369      4.429
  Name = 
  3 active torsions:
  status: ('A' for Active; 'I' for Inactive)
    1  A    between atoms: C_17  and  C_28
    2  A    between atoms: C_28  and  C_29
    3  A    between atoms: C_29  and  N_32
                            x       y       z     vdW  Elec       q    Type
                         _______ _______ _______ _____ _____    ______ ____

>  <TORSDO>
F 3

$$$$
