=
 OpenBabel11122411233D

 37 43  0  0  1  0  0  0  0  0999 V2000
  184.1650  174.9950  137.3280 C   0  0  0  0  0  2  0  0  0  0  0  0
  188.6590  177.4300  137.1320 C   0  0  0  0  0  0  0  0  0  0  0  0
  185.1780  178.0100  139.3320 C   0  0  1  0  0  3  0  0  0  0  0  0
  184.0190  173.6450  136.6200 C   0  0  2  0  0  3  0  0  0  0  0  0
  181.7420  177.4160  137.9120 O   0  0  0  0  0  0  0  0  0  0  0  0
  187.7250  178.1850  139.1650 C   0  0  1  0  0  3  0  0  0  0  0  0
  184.0400  178.0540  138.3150 C   0  0  2  0  0  3  0  0  0  0  0  0
  181.6040  174.2370  135.8710 C   0  0  2  0  0  3  0  0  0  0  0  0
  186.3620  178.2840  138.4790 C   0  0  1  0  0  3  0  0  0  0  0  0
  182.7870  177.3210  138.8390 C   0  0  1  0  0  3  0  0  0  0  0  0
  187.5690  177.9250  140.6750 C   0  0  0  0  0  2  0  0  0  0  0  0
  182.9600  173.6100  135.5090 C   0  0  0  0  0  2  0  0  0  0  0  0
  186.1790  177.2800  137.4130 C   0  0  2  0  0  3  0  0  0  0  0  0
  189.4470  176.2810  136.5380 C   0  0  0  0  0  1  0  0  0  0  0  0
  183.9440  178.9820  141.3360 C   0  0  0  0  0  2  0  0  0  0  0  0
  186.4790  178.8210  141.3250 C   0  0  0  0  0  2  0  0  0  0  0  0
  187.2860  177.4790  136.4000 C   0  0  0  0  0  2  0  0  0  0  0  0
  181.6300  175.7550  136.1710 C   0  0  1  0  0  3  0  0  0  0  0  0
  181.3810  176.0930  137.6450 C   0  0  0  0  0  2  0  0  0  0  0  0
  185.2000  179.0110  140.4720 C   0  0  1  0  0  3  0  0  0  0  0  0
  184.7220  177.4900  137.0100 C   0  0  1  0  0  3  0  0  0  0  0  0
  188.5520  177.2080  138.5450 O   0  0  0  0  0  0  0  0  0  0  0  0
  182.2940  177.8220  140.2150 C   0  0  1  0  0  3  0  0  0  0  0  0
  189.4300  178.7100  136.8440 C   0  0  0  0  0  1  0  0  0  0  0  0
  182.8730  176.4620  135.6000 C   0  0  0  0  0  2  0  0  0  0  0  0
  180.9550  173.4990  136.8640 O   0  0  0  0  0  1  0  0  0  0  0  0
  184.1780  176.2010  136.3720 C   0  0  2  0  0  3  0  0  0  0  0  0
  183.2570  177.7540  141.2530 O   0  0  0  0  0  0  0  0  0  0  0  0
  180.4410  179.1620  141.2560 C   0  0  0  0  0  3  0  0  0  0  0  0
  181.3760  179.0240  140.2250 C   0  0  0  0  0  0  0  0  0  0  0  0
  181.4630  180.0110  139.2320 C   0  0  0  0  0  3  0  0  0  0  0  0
  180.7290  182.3460  138.0250 Cl  0  0  0  0  0  0  0  0  0  0  0  0
  179.6800  181.2530  140.2980 C   0  0  0  0  0  3  0  0  0  0  0  0
  180.6160  181.1210  139.2690 C   0  0  0  0  0  0  0  0  0  0  0  0
  179.5930  180.2730  141.2930 C   0  0  0  0  0  3  0  0  0  0  0  0
  183.8060  171.4540  136.8430 C   0  0  0  0  0  1  0  0  0  0  0  0
  183.7590  172.6480  137.5630 O   0  0  0  0  0  0  0  0  0  0  0  0
  2 22  1  0  0  0  0
  3 20  1  0  0  0  0
  4  1  1  0  0  0  0
  4 37  1  0  0  0  0
  5 10  1  0  0  0  0
  6 11  1  0  0  0  0
  7 10  1  0  0  0  0
  7  3  1  0  0  0  0
  8 18  1  0  0  0  0
  8 26  1  0  0  0  0
  9  6  1  0  0  0  0
  9  3  1  0  0  0  0
 10 23  1  0  0  0  0
 11 16  1  0  0  0  0
 12  8  1  0  0  0  0
 12  4  1  0  0  0  0
 13  9  1  0  0  0  0
 14  2  1  0  0  0  0
 17  2  1  0  0  0  0
 17 13  1  0  0  0  0
 18 19  1  0  0  0  0
 19  5  1  0  0  0  0
 20 16  1  0  0  0  0
 20 15  1  0  0  0  0
 21 13  1  0  0  0  0
 21  7  1  0  0  0  0
 22  6  1  0  0  0  0
 23 30  1  0  0  0  0
 23 28  1  0  0  0  0
 24  2  1  0  0  0  0
 25 18  1  0  0  0  0
 25 27  1  0  0  0  0
 27 21  1  0  0  0  0
 27  1  1  0  0  0  0
 28 15  1  0  0  0  0
 29 35  1  0  0  0  0
 30 29  2  0  0  0  0
 31 34  2  0  0  0  0
 31 30  1  0  0  0  0
 32 34  1  0  0  0  0
 33 35  2  0  0  0  0
 34 33  1  0  0  0  0
 36 37  1  0  0  0  0
M  END
>  <MODEL>
1

>  <REMARK>
 VINA RESULT:      -6.6      0.000      0.000
  Name = 
  2 active torsions:
  status: ('A' for Active; 'I' for Inactive)
    1  A    between atoms: C_4  and  O_37
    2  A    between atoms: C_23  and  C_30
                            x       y       z     vdW  Elec       q    Type
                         _______ _______ _______ _____ _____    ______ ____

>  <TORSDO>
F 2

$$$$
=
 OpenBabel11122411233D

 37 43  0  0  1  0  0  0  0  0999 V2000
  180.6930  180.6290  139.0000 C   0  0  0  0  0  2  0  0  0  0  0  0
  180.0590  178.7750  143.7240 C   0  0  0  0  0  0  0  0  0  0  0  0
  183.2000  178.6680  141.0000 C   0  0  1  0  0  3  0  0  0  0  0  0
  179.6590  181.6080  138.4400 C   0  0  2  0  0  3  0  0  0  0  0  0
  182.6720  178.3430  137.2870 O   0  0  0  0  0  0  0  0  0  0  0  0
  182.4010  178.7120  143.4310 C   0  0  1  0  0  3  0  0  0  0  0  0
  182.6070  178.1390  139.6970 C   0  0  2  0  0  3  0  0  0  0  0  0
  179.8380  180.5360  136.0820 C   0  0  2  0  0  3  0  0  0  0  0  0
  182.1880  178.2290  141.9950 C   0  0  1  0  0  3  0  0  0  0  0  0
  183.1920  178.8760  138.4730 C   0  0  1  0  0  3  0  0  0  0  0  0
  183.7270  179.4820  143.5670 C   0  0  0  0  0  2  0  0  0  0  0  0
  178.9340  181.1280  137.1740 C   0  0  0  0  0  2  0  0  0  0  0  0
  180.9500  178.7550  141.3890 C   0  0  2  0  0  3  0  0  0  0  0  0
  178.9330  179.7070  144.1210 C   0  0  0  0  0  1  0  0  0  0  0  0
  185.6680  178.3620  140.4560 C   0  0  0  0  0  2  0  0  0  0  0  0
  184.9060  178.7730  142.8450 C   0  0  0  0  0  2  0  0  0  0  0  0
  179.7910  178.3200  142.2600 C   0  0  0  0  0  2  0  0  0  0  0  0
  180.5910  179.2410  136.4690 C   0  0  1  0  0  3  0  0  0  0  0  0
  182.1030  179.4340  136.6240 C   0  0  0  0  0  2  0  0  0  0  0  0
  184.5480  178.1540  141.4710 C   0  0  1  0  0  3  0  0  0  0  0  0
  181.0550  178.2610  139.9480 C   0  0  1  0  0  3  0  0  0  0  0  0
  181.2960  179.4800  143.8930 O   0  0  0  0  0  0  0  0  0  0  0  0
  184.7350  178.8580  138.4050 C   0  0  1  0  0  3  0  0  0  0  0  0
  179.9970  177.5660  144.6470 C   0  0  0  0  0  1  0  0  0  0  0  0
  179.9590  178.5100  137.6680 C   0  0  0  0  0  2  0  0  0  0  0  0
  180.6790  181.5110  135.5380 O   0  0  0  0  0  1  0  0  0  0  0  0
  180.2130  179.1680  139.0350 C   0  0  2  0  0  3  0  0  0  0  0  0
  185.3880  179.3970  139.5430 O   0  0  0  0  0  0  0  0  0  0  0  0
  186.6630  177.7760  137.2110 C   0  0  0  0  0  3  0  0  0  0  0  0
  185.3850  177.6510  137.7640 C   0  0  0  0  0  0  0  0  0  0  0  0
  184.7370  176.4070  137.7390 C   0  0  0  0  0  3  0  0  0  0  0  0
  184.5460  173.7550  137.1250 Cl  0  0  0  0  0  0  0  0  0  0  0  0
  186.6370  175.4330  136.5990 C   0  0  0  0  0  3  0  0  0  0  0  0
  185.3620  175.3020  137.1560 C   0  0  0  0  0  0  0  0  0  0  0  0
  187.2880  176.6700  136.6270 C   0  0  0  0  0  3  0  0  0  0  0  0
  179.2050  183.7530  138.1320 C   0  0  0  0  0  1  0  0  0  0  0  0
  180.2630  182.8460  138.2060 O   0  0  0  0  0  0  0  0  0  0  0  0
  1 27  1  0  0  0  0
  2 22  1  0  0  0  0
  2 14  1  0  0  0  0
  2 24  1  0  0  0  0
  3 20  1  0  0  0  0
  3  9  1  0  0  0  0
  4  1  1  0  0  0  0
  5 10  1  0  0  0  0
  6 11  1  0  0  0  0
  6 22  1  0  0  0  0
  7 21  1  0  0  0  0
  7  3  1  0  0  0  0
  8 18  1  0  0  0  0
  8 12  1  0  0  0  0
  9  6  1  0  0  0  0
 10  7  1  0  0  0  0
 12  4  1  0  0  0  0
 13  9  1  0  0  0  0
 13 17  1  0  0  0  0
 15 20  1  0  0  0  0
 16 11  1  0  0  0  0
 17  2  1  0  0  0  0
 18 19  1  0  0  0  0
 18 25  1  0  0  0  0
 19  5  1  0  0  0  0
 20 16  1  0  0  0  0
 21 13  1  0  0  0  0
 23 10  1  0  0  0  0
 23 28  1  0  0  0  0
 25 27  1  0  0  0  0
 26  8  1  0  0  0  0
 27 21  1  0  0  0  0
 28 15  1  0  0  0  0
 29 30  1  0  0  0  0
 30 23  1  0  0  0  0
 31 30  2  0  0  0  0
 32 34  1  0  0  0  0
 33 35  1  0  0  0  0
 33 34  2  0  0  0  0
 34 31  1  0  0  0  0
 35 29  2  0  0  0  0
 36 37  1  0  0  0  0
 37  4  1  0  0  0  0
M  END
>  <MODEL>
2

>  <REMARK>
 VINA RESULT:      -6.1      2.881      7.305
  Name = 
  2 active torsions:
  status: ('A' for Active; 'I' for Inactive)
    1  A    between atoms: C_4  and  O_37
    2  A    between atoms: C_23  and  C_30
                            x       y       z     vdW  Elec       q    Type
                         _______ _______ _______ _____ _____    ______ ____

>  <TORSDO>
F 2

$$$$
=
 OpenBabel11122411233D

 37 43  0  0  1  0  0  0  0  0999 V2000
  186.7520  175.8830  137.8440 C   0  0  0  0  0  2  0  0  0  0  0  0
  189.3590  177.8530  141.7790 C   0  0  0  0  0  0  0  0  0  0  0  0
  185.4080  178.1590  140.5170 C   0  0  1  0  0  3  0  0  0  0  0  0
  187.4000  174.7850  136.9970 C   0  0  2  0  0  3  0  0  0  0  0  0
  184.4290  178.2820  136.8840 O   0  0  0  0  0  0  0  0  0  0  0  0
  187.1070  178.1330  142.4310 C   0  0  1  0  0  3  0  0  0  0  0  0
  185.4670  178.5750  139.0490 C   0  0  2  0  0  3  0  0  0  0  0  0
  186.3730  175.7750  134.8270 C   0  0  2  0  0  3  0  0  0  0  0  0
  186.7630  178.5350  140.9950 C   0  0  1  0  0  3  0  0  0  0  0  0
  184.3890  177.8500  138.2150 C   0  0  1  0  0  3  0  0  0  0  0  0
  185.8930  177.5030  143.1370 C   0  0  0  0  0  2  0  0  0  0  0  0
  187.5920  175.1410  135.5150 C   0  0  0  0  0  2  0  0  0  0  0  0
  187.6120  177.8670  139.9910 C   0  0  2  0  0  3  0  0  0  0  0  0
  190.4770  176.8310  141.7680 C   0  0  0  0  0  1  0  0  0  0  0  0
  182.9580  178.6840  140.9700 C   0  0  0  0  0  2  0  0  0  0  0  0
  184.5790  178.2950  142.8870 C   0  0  0  0  0  2  0  0  0  0  0  0
  189.0510  178.2200  140.2980 C   0  0  0  0  0  2  0  0  0  0  0  0
  185.9360  177.1530  135.3810 C   0  0  1  0  0  3  0  0  0  0  0  0
  184.6020  177.1150  136.1350 C   0  0  0  0  0  2  0  0  0  0  0  0
  184.4030  178.8200  141.4410 C   0  0  1  0  0  3  0  0  0  0  0  0
  186.9760  178.3110  138.6760 C   0  0  1  0  0  3  0  0  0  0  0  0
  188.2440  177.2800  142.4750 O   0  0  0  0  0  0  0  0  0  0  0  0
  182.9530  178.0170  138.7610 C   0  0  1  0  0  3  0  0  0  0  0  0
  189.8740  179.0860  142.5080 C   0  0  0  0  0  1  0  0  0  0  0  0
  187.0470  177.8650  136.1740 C   0  0  0  0  0  2  0  0  0  0  0  0
  185.3150  174.8670  134.7350 O   0  0  0  0  0  1  0  0  0  0  0  0
  187.3130  177.2900  137.5760 C   0  0  2  0  0  3  0  0  0  0  0  0
  182.7720  177.5900  140.1020 O   0  0  0  0  0  0  0  0  0  0  0  0
  182.6610  180.5120  138.7350 C   0  0  0  0  0  3  0  0  0  0  0  0
  182.1930  179.2550  138.3400 C   0  0  0  0  0  0  0  0  0  0  0  0
  181.0430  179.1630  137.5410 C   0  0  0  0  0  3  0  0  0  0  0  0
  178.9310  180.1970  136.1560 Cl  0  0  0  0  0  0  0  0  0  0  0  0
  180.8330  181.5740  137.5520 C   0  0  0  0  0  3  0  0  0  0  0  0
  180.3660  180.3200  137.1500 C   0  0  0  0  0  0  0  0  0  0  0  0
  181.9820  181.6710  138.3440 C   0  0  0  0  0  3  0  0  0  0  0  0
  187.5790  172.5830  136.8610 C   0  0  0  0  0  1  0  0  0  0  0  0
  186.6630  173.6050  137.1150 O   0  0  0  0  0  0  0  0  0  0  0  0
  2 22  1  0  0  0  0
  2 24  1  0  0  0  0
  3  9  1  0  0  0  0
  3 20  1  0  0  0  0
  4 37  1  0  0  0  0
  4  1  1  0  0  0  0
  5 10  1  0  0  0  0
  6 22  1  0  0  0  0
  6 11  1  0  0  0  0
  7  3  1  0  0  0  0
  8 18  1  0  0  0  0
  8 12  1  0  0  0  0
  9  6  1  0  0  0  0
 10 23  1  0  0  0  0
 10  7  1  0  0  0  0
 12  4  1  0  0  0  0
 13 17  1  0  0  0  0
 13  9  1  0  0  0  0
 14  2  1  0  0  0  0
 15 20  1  0  0  0  0
 16 11  1  0  0  0  0
 17  2  1  0  0  0  0
 18 19  1  0  0  0  0
 18 25  1  0  0  0  0
 19  5  1  0  0  0  0
 20 16  1  0  0  0  0
 21  7  1  0  0  0  0
 21 13  1  0  0  0  0
 23 28  1  0  0  0  0
 25 27  1  0  0  0  0
 26  8  1  0  0  0  0
 27  1  1  0  0  0  0
 27 21  1  0  0  0  0
 28 15  1  0  0  0  0
 30 29  2  0  0  0  0
 30 23  1  0  0  0  0
 31 30  1  0  0  0  0
 32 34  1  0  0  0  0
 33 35  2  0  0  0  0
 34 31  2  0  0  0  0
 34 33  1  0  0  0  0
 35 29  1  0  0  0  0
 36 37  1  0  0  0  0
M  END
>  <MODEL>
3

>  <REMARK>
 VINA RESULT:      -5.7      2.438      3.460
  Name = 
  2 active torsions:
  status: ('A' for Active; 'I' for Inactive)
    1  A    between atoms: C_4  and  O_37
    2  A    between atoms: C_23  and  C_30
                            x       y       z     vdW  Elec       q    Type
                         _______ _______ _______ _____ _____    ______ ____

>  <TORSDO>
F 2

$$$$
=
 OpenBabel11122411233D

 37 43  0  0  1  0  0  0  0  0999 V2000
  185.7760  175.7040  137.5750 C   0  0  0  0  0  2  0  0  0  0  0  0
  188.4030  178.1230  141.2360 C   0  0  0  0  0  0  0  0  0  0  0  0
  184.4370  178.2520  139.9920 C   0  0  1  0  0  3  0  0  0  0  0  0
  186.4270  174.5240  136.8480 C   0  0  2  0  0  3  0  0  0  0  0  0
  183.4200  177.9600  136.3790 O   0  0  0  0  0  0  0  0  0  0  0  0
  186.1550  178.4550  141.8780 C   0  0  1  0  0  3  0  0  0  0  0  0
  184.4770  178.5020  138.4870 C   0  0  2  0  0  3  0  0  0  0  0  0
  185.3680  175.2570  134.5940 C   0  0  2  0  0  3  0  0  0  0  0  0
  185.7930  178.6910  140.4110 C   0  0  1  0  0  3  0  0  0  0  0  0
  183.3980  177.6800  137.7510 C   0  0  1  0  0  3  0  0  0  0  0  0
  184.9540  177.8970  142.6640 C   0  0  0  0  0  2  0  0  0  0  0  0
  186.6000  174.7150  135.3340 C   0  0  0  0  0  2  0  0  0  0  0  0
  186.6380  177.9230  139.4770 C   0  0  2  0  0  3  0  0  0  0  0  0
  189.5310  177.1170  141.3270 C   0  0  0  0  0  1  0  0  0  0  0  0
  181.9860  178.8030  140.4110 C   0  0  0  0  0  2  0  0  0  0  0  0
  183.6310  178.6450  142.3420 C   0  0  0  0  0  2  0  0  0  0  0  0
  188.0770  178.3200  139.7270 C   0  0  0  0  0  2  0  0  0  0  0  0
  184.9230  176.6840  134.9950 C   0  0  1  0  0  3  0  0  0  0  0  0
  183.5970  176.7190  135.7630 C   0  0  0  0  0  2  0  0  0  0  0  0
  183.4340  179.0040  140.8480 C   0  0  1  0  0  3  0  0  0  0  0  0
  185.9850  178.2110  138.1290 C   0  0  1  0  0  3  0  0  0  0  0  0
  187.3010  177.6220  142.0050 O   0  0  0  0  0  0  0  0  0  0  0  0
  181.9660  177.8940  138.2910 C   0  0  1  0  0  3  0  0  0  0  0  0
  188.9130  179.4350  141.8180 C   0  0  0  0  0  1  0  0  0  0  0  0
  186.0350  177.4900  135.6910 C   0  0  0  0  0  2  0  0  0  0  0  0
  184.3190  174.3350  134.6150 O   0  0  0  0  0  1  0  0  0  0  0  0
  186.3210  177.0770  137.1460 C   0  0  2  0  0  3  0  0  0  0  0  0
  181.8030  177.6180  139.6720 O   0  0  0  0  0  0  0  0  0  0  0  0
  179.9950  178.8390  137.0520 C   0  0  0  0  0  3  0  0  0  0  0  0
  181.1890  179.0710  137.7420 C   0  0  0  0  0  0  0  0  0  0  0  0
  181.6340  180.3860  137.9360 C   0  0  0  0  0  3  0  0  0  0  0  0
  181.4560  183.0980  137.6780 Cl  0  0  0  0  0  0  0  0  0  0  0  0
  179.7030  181.2240  136.7410 C   0  0  0  0  0  3  0  0  0  0  0  0
  180.8920  181.4590  137.4350 C   0  0  0  0  0  0  0  0  0  0  0  0
  179.2530  179.9130  136.5500 C   0  0  0  0  0  3  0  0  0  0  0  0
  184.6130  173.7750  137.8710 C   0  0  0  0  0  1  0  0  0  0  0  0
  185.7030  173.3580  137.1060 O   0  0  0  0  0  0  0  0  0  0  0  0
  2 14  1  0  0  0  0
  2 24  1  0  0  0  0
  2 22  1  0  0  0  0
  3  9  1  0  0  0  0
  3 20  1  0  0  0  0
  4 37  1  0  0  0  0
  4  1  1  0  0  0  0
  5 10  1  0  0  0  0
  6 22  1  0  0  0  0
  6 11  1  0  0  0  0
  7  3  1  0  0  0  0
  8 26  1  0  0  0  0
  8 18  1  0  0  0  0
  8 12  1  0  0  0  0
  9  6  1  0  0  0  0
 10 23  1  0  0  0  0
 10  7  1  0  0  0  0
 12  4  1  0  0  0  0
 13 17  1  0  0  0  0
 13  9  1  0  0  0  0
 15 20  1  0  0  0  0
 16 11  1  0  0  0  0
 17  2  1  0  0  0  0
 18 25  1  0  0  0  0
 18 19  1  0  0  0  0
 19  5  1  0  0  0  0
 20 16  1  0  0  0  0
 21  7  1  0  0  0  0
 21 13  1  0  0  0  0
 23 28  1  0  0  0  0
 25 27  1  0  0  0  0
 27  1  1  0  0  0  0
 27 21  1  0  0  0  0
 28 15  1  0  0  0  0
 29 30  1  0  0  0  0
 30 31  2  0  0  0  0
 30 23  1  0  0  0  0
 33 34  2  0  0  0  0
 34 32  1  0  0  0  0
 34 31  1  0  0  0  0
 35 33  1  0  0  0  0
 35 29  2  0  0  0  0
 37 36  1  0  0  0  0
M  END
>  <MODEL>
4

>  <REMARK>
 VINA RESULT:      -5.4      2.010      3.009
  Name = 
  2 active torsions:
  status: ('A' for Active; 'I' for Inactive)
    1  A    between atoms: C_4  and  O_37
    2  A    between atoms: C_23  and  C_30
                            x       y       z     vdW  Elec       q    Type
                         _______ _______ _______ _____ _____    ______ ____

>  <TORSDO>
F 2

$$$$
=
 OpenBabel11122411233D

 37 43  0  0  1  0  0  0  0  0999 V2000
  188.4540  176.6550  140.4460 C   0  0  0  0  0  2  0  0  0  0  0  0
  184.4340  177.0280  137.3060 C   0  0  0  0  0  0  0  0  0  0  0  0
  188.1520  175.1920  136.9960 C   0  0  1  0  0  3  0  0  0  0  0  0
  188.3050  177.1050  141.9020 C   0  0  2  0  0  3  0  0  0  0  0  0
  191.2920  176.6830  138.4420 O   0  0  0  0  0  0  0  0  0  0  0  0
  185.6660  175.2330  136.3920 C   0  0  1  0  0  3  0  0  0  0  0  0
  189.1810  176.2670  137.3360 C   0  0  2  0  0  3  0  0  0  0  0  0
  190.7040  178.0980  141.8980 C   0  0  2  0  0  3  0  0  0  0  0  0
  186.9570  176.0080  136.6640 C   0  0  1  0  0  3  0  0  0  0  0  0
  190.3370  175.6930  138.1830 C   0  0  1  0  0  3  0  0  0  0  0  0
  185.9160  173.7140  136.4100 C   0  0  0  0  0  2  0  0  0  0  0  0
  189.2350  178.2530  142.3210 C   0  0  0  0  0  2  0  0  0  0  0  0
  186.8680  176.8760  137.8530 C   0  0  2  0  0  3  0  0  0  0  0  0
  183.4120  177.3470  138.3780 C   0  0  0  0  0  1  0  0  0  0  0  0
  189.7130  173.4840  135.9320 C   0  0  0  0  0  2  0  0  0  0  0  0
  187.1970  173.3100  135.6290 C   0  0  0  0  0  2  0  0  0  0  0  0
  185.7210  177.8380  137.6350 C   0  0  0  0  0  2  0  0  0  0  0  0
  190.9620  178.0860  140.3720 C   0  0  1  0  0  3  0  0  0  0  0  0
  191.4000  176.7200  139.8350 C   0  0  0  0  0  2  0  0  0  0  0  0
  188.4040  174.2600  135.8250 C   0  0  1  0  0  3  0  0  0  0  0  0
  188.2960  177.3990  137.9850 C   0  0  1  0  0  3  0  0  0  0  0  0
  184.6320  175.6080  137.2950 O   0  0  0  0  0  0  0  0  0  0  0  0
  191.0330  174.4670  137.5500 C   0  0  1  0  0  3  0  0  0  0  0  0
  183.8640  177.5030  135.9770 C   0  0  0  0  0  1  0  0  0  0  0  0
  189.8080  178.7020  139.5600 C   0  0  0  0  0  2  0  0  0  0  0  0
  191.3100  177.0260  142.5590 O   0  0  0  0  0  1  0  0  0  0  0  0
  188.5540  177.8170  139.4420 C   0  0  2  0  0  3  0  0  0  0  0  0
  190.1730  173.3780  137.2600 O   0  0  0  0  0  0  0  0  0  0  0  0
  191.9140  175.6550  135.5180 C   0  0  0  0  0  3  0  0  0  0  0  0
  192.1370  174.7390  136.5510 C   0  0  0  0  0  0  0  0  0  0  0  0
  193.3840  174.1070  136.6600 C   0  0  0  0  0  3  0  0  0  0  0  0
  195.9470  173.5890  135.8770 Cl  0  0  0  0  0  0  0  0  0  0  0  0
  194.1660  175.2950  134.7030 C   0  0  0  0  0  3  0  0  0  0  0  0
  194.3950  174.3840  135.7360 C   0  0  0  0  0  0  0  0  0  0  0  0
  192.9260  175.9320  134.5940 C   0  0  0  0  0  3  0  0  0  0  0  0
  187.9310  176.4100  143.9690 C   0  0  0  0  0  1  0  0  0  0  0  0
  188.4810  176.0100  142.7510 O   0  0  0  0  0  0  0  0  0  0  0  0
  1  4  1  0  0  0  0
  2 17  1  0  0  0  0
  2 14  1  0  0  0  0
  3  7  1  0  0  0  0
  4 12  1  0  0  0  0
  4 37  1  0  0  0  0
  5 19  1  0  0  0  0
  6 11  1  0  0  0  0
  6  9  1  0  0  0  0
  6 22  1  0  0  0  0
  7 21  1  0  0  0  0
  7 10  1  0  0  0  0
  8 12  1  0  0  0  0
  8 26  1  0  0  0  0
  9  3  1  0  0  0  0
  9 13  1  0  0  0  0
 10  5  1  0  0  0  0
 13 21  1  0  0  0  0
 15 28  1  0  0  0  0
 16 20  1  0  0  0  0
 16 11  1  0  0  0  0
 17 13  1  0  0  0  0
 18  8  1  0  0  0  0
 19 18  1  0  0  0  0
 20 15  1  0  0  0  0
 20  3  1  0  0  0  0
 21 27  1  0  0  0  0
 22  2  1  0  0  0  0
 23 10  1  0  0  0  0
 24  2  1  0  0  0  0
 25 18  1  0  0  0  0
 27 25  1  0  0  0  0
 27  1  1  0  0  0  0
 28 23  1  0  0  0  0
 29 30  1  0  0  0  0
 30 31  2  0  0  0  0
 30 23  1  0  0  0  0
 33 34  2  0  0  0  0
 34 32  1  0  0  0  0
 34 31  1  0  0  0  0
 35 33  1  0  0  0  0
 35 29  2  0  0  0  0
 37 36  1  0  0  0  0
M  END
>  <MODEL>
5

>  <REMARK>
 VINA RESULT:      -4.5      4.106      9.486
  Name = 
  2 active torsions:
  status: ('A' for Active; 'I' for Inactive)
    1  A    between atoms: C_4  and  O_37
    2  A    between atoms: C_23  and  C_30
                            x       y       z     vdW  Elec       q    Type
                         _______ _______ _______ _____ _____    ______ ____

>  <TORSDO>
F 2

$$$$
=
 OpenBabel11122411233D

 37 43  0  0  1  0  0  0  0  0999 V2000
  185.9840  174.9540  137.0450 C   0  0  0  0  0  2  0  0  0  0  0  0
  190.3280  176.9130  138.9020 C   0  0  0  0  0  0  0  0  0  0  0  0
  186.3070  177.8220  139.4530 C   0  0  1  0  0  3  0  0  0  0  0  0
  186.0340  173.6360  136.2680 C   0  0  2  0  0  3  0  0  0  0  0  0
  183.7660  177.6050  136.6830 O   0  0  0  0  0  0  0  0  0  0  0  0
  188.6870  177.7350  140.3880 C   0  0  1  0  0  3  0  0  0  0  0  0
  185.7200  177.9970  138.0550 C   0  0  2  0  0  3  0  0  0  0  0  0
  184.2320  174.4840  134.6020 C   0  0  2  0  0  3  0  0  0  0  0  0
  187.7610  177.9830  139.1970 C   0  0  1  0  0  3  0  0  0  0  0  0
  184.3040  177.3910  137.9580 C   0  0  1  0  0  3  0  0  0  0  0  0
  187.8810  177.4740  141.6740 C   0  0  0  0  0  2  0  0  0  0  0  0
  185.5510  173.7250  134.8130 C   0  0  0  0  0  2  0  0  0  0  0  0
  187.9620  177.0180  138.1000 C   0  0  2  0  0  3  0  0  0  0  0  0
  191.1890  175.6970  138.6340 C   0  0  0  0  0  1  0  0  0  0  0  0
  184.4280  178.8920  140.7980 C   0  0  0  0  0  2  0  0  0  0  0  0
  186.7010  178.4690  141.8510 C   0  0  0  0  0  2  0  0  0  0  0  0
  189.4080  177.1140  137.6630 C   0  0  0  0  0  2  0  0  0  0  0  0
  184.2610  175.9870  134.9690 C   0  0  1  0  0  3  0  0  0  0  0  0
  183.4380  176.3300  136.2150 C   0  0  0  0  0  2  0  0  0  0  0  0
  185.9300  178.8020  140.5490 C   0  0  1  0  0  3  0  0  0  0  0  0
  186.8410  177.3820  137.1310 C   0  0  1  0  0  3  0  0  0  0  0  0
  189.6100  176.6860  140.1230 O   0  0  0  0  0  0  0  0  0  0  0  0
  183.3180  177.9230  139.0220 C   0  0  1  0  0  3  0  0  0  0  0  0
  191.2580  178.1100  139.0390 C   0  0  0  0  0  1  0  0  0  0  0  0
  185.6850  176.5700  135.0170 C   0  0  0  0  0  2  0  0  0  0  0  0
  183.1580  173.8040  135.1850 O   0  0  0  0  0  1  0  0  0  0  0  0
  186.5090  176.1640  136.2520 C   0  0  2  0  0  3  0  0  0  0  0  0
  183.7370  177.7430  140.3650 O   0  0  0  0  0  0  0  0  0  0  0  0
  183.2600  180.4310  138.8790 C   0  0  0  0  0  3  0  0  0  0  0  0
  182.5930  179.2130  138.7100 C   0  0  0  0  0  0  0  0  0  0  0  0
  181.2750  179.2060  138.2300 C   0  0  0  0  0  3  0  0  0  0  0  0
  178.9840  180.3930  137.3380 Cl  0  0  0  0  0  0  0  0  0  0  0  0
  181.2980  181.6230  138.1090 C   0  0  0  0  0  3  0  0  0  0  0  0
  180.6300  180.4090  137.9330 C   0  0  0  0  0  0  0  0  0  0  0  0
  182.6140  181.6350  138.5820 C   0  0  0  0  0  3  0  0  0  0  0  0
  184.7250  173.3360  138.0270 C   0  0  0  0  0  1  0  0  0  0  0  0
  185.3100  172.6600  136.9550 O   0  0  0  0  0  0  0  0  0  0  0  0
  2 24  1  0  0  0  0
  2 22  1  0  0  0  0
  3 20  1  0  0  0  0
  4 37  1  0  0  0  0
  4  1  1  0  0  0  0
  5 10  1  0  0  0  0
  6 11  1  0  0  0  0
  7  3  1  0  0  0  0
  8 12  1  0  0  0  0
  8 18  1  0  0  0  0
  8 26  1  0  0  0  0
  9  3  1  0  0  0  0
  9  6  1  0  0  0  0
 10  7  1  0  0  0  0
 10 23  1  0  0  0  0
 11 16  1  0  0  0  0
 12  4  1  0  0  0  0
 13  9  1  0  0  0  0
 14  2  1  0  0  0  0
 17 13  1  0  0  0  0
 17  2  1  0  0  0  0
 18 25  1  0  0  0  0
 18 19  1  0  0  0  0
 19  5  1  0  0  0  0
 20 15  1  0  0  0  0
 20 16  1  0  0  0  0
 21  7  1  0  0  0  0
 21 13  1  0  0  0  0
 22  6  1  0  0  0  0
 23 28  1  0  0  0  0
 25 27  1  0  0  0  0
 27  1  1  0  0  0  0
 27 21  1  0  0  0  0
 28 15  1  0  0  0  0
 30 29  1  0  0  0  0
 30 23  1  0  0  0  0
 31 30  2  0  0  0  0
 32 34  1  0  0  0  0
 33 35  1  0  0  0  0
 34 33  2  0  0  0  0
 34 31  1  0  0  0  0
 35 29  2  0  0  0  0
 37 36  1  0  0  0  0
M  END
>  <MODEL>
6

>  <REMARK>
 VINA RESULT:      -4.4      1.776      2.264
  Name = 
  2 active torsions:
  status: ('A' for Active; 'I' for Inactive)
    1  A    between atoms: C_4  and  O_37
    2  A    between atoms: C_23  and  C_30
                            x       y       z     vdW  Elec       q    Type
                         _______ _______ _______ _____ _____    ______ ____

>  <TORSDO>
F 2

$$$$
=
 OpenBabel11122411233D

 37 43  0  0  1  0  0  0  0  0999 V2000
  182.4520  179.9100  138.9190 C   0  0  0  0  0  2  0  0  0  0  0  0
  184.1480  179.0830  143.6720 C   0  0  0  0  0  0  0  0  0  0  0  0
  185.6980  178.2850  139.8960 C   0  0  1  0  0  3  0  0  0  0  0  0
  181.2240  180.8000  138.7110 C   0  0  2  0  0  3  0  0  0  0  0  0
  183.5490  177.2380  136.9870 O   0  0  0  0  0  0  0  0  0  0  0  0
  186.0970  178.8580  142.3580 C   0  0  1  0  0  3  0  0  0  0  0  0
  184.6050  177.5300  139.1450 C   0  0  2  0  0  3  0  0  0  0  0  0
  180.3640  179.2640  136.8020 C   0  0  2  0  0  3  0  0  0  0  0  0
  185.2780  178.1040  141.3090 C   0  0  1  0  0  3  0  0  0  0  0  0
  184.5240  177.9760  137.6690 C   0  0  1  0  0  3  0  0  0  0  0  0
  187.2950  179.5800  141.7140 C   0  0  0  0  0  2  0  0  0  0  0  0
  180.0280  180.1050  138.0430 C   0  0  0  0  0  2  0  0  0  0  0  0
  183.8740  178.5490  141.2450 C   0  0  2  0  0  3  0  0  0  0  0  0
  183.2790  180.1260  144.3440 C   0  0  0  0  0  1  0  0  0  0  0  0
  187.6580  177.7660  138.3560 C   0  0  0  0  0  2  0  0  0  0  0  0
  188.0500  178.6870  140.6900 C   0  0  0  0  0  2  0  0  0  0  0  0
  183.2660  178.3530  142.6180 C   0  0  0  0  0  2  0  0  0  0  0  0
  181.2800  178.0420  137.0520 C   0  0  1  0  0  3  0  0  0  0  0  0
  182.6830  178.1960  136.4550 C   0  0  0  0  0  2  0  0  0  0  0  0
  187.1380  177.8190  139.7890 C   0  0  1  0  0  3  0  0  0  0  0  0
  183.3350  177.7700  140.0490 C   0  0  1  0  0  3  0  0  0  0  0  0
  185.2850  179.7520  143.1100 O   0  0  0  0  0  0  0  0  0  0  0  0
  185.8650  177.8760  136.9070 C   0  0  1  0  0  3  0  0  0  0  0  0
  184.5810  178.0910  144.7420 C   0  0  0  0  0  1  0  0  0  0  0  0
  181.3060  177.5980  138.5260 C   0  0  0  0  0  2  0  0  0  0  0  0
  180.8090  180.0700  135.7500 O   0  0  0  0  0  1  0  0  0  0  0  0
  182.1210  178.5090  139.4620 C   0  0  2  0  0  3  0  0  0  0  0  0
  186.9340  178.6050  137.4860 O   0  0  0  0  0  0  0  0  0  0  0  0
  187.0380  176.4950  135.1680 C   0  0  0  0  0  3  0  0  0  0  0  0
  186.2140  176.5370  136.2970 C   0  0  0  0  0  0  0  0  0  0  0  0
  185.7460  175.3400  136.8590 C   0  0  0  0  0  3  0  0  0  0  0  0
  185.5040  172.6240  136.9930 Cl  0  0  0  0  0  0  0  0  0  0  0  0
  186.9130  174.0750  135.1570 C   0  0  0  0  0  3  0  0  0  0  0  0
  186.0950  174.1130  136.2880 C   0  0  0  0  0  0  0  0  0  0  0  0
  187.3860  175.2660  134.5960 C   0  0  0  0  0  3  0  0  0  0  0  0
  180.4600  182.7590  138.0210 C   0  0  0  0  0  1  0  0  0  0  0  0
  181.5860  181.9360  137.9840 O   0  0  0  0  0  0  0  0  0  0  0  0
  1 27  1  0  0  0  0
  2 14  1  0  0  0  0
  2 24  1  0  0  0  0
  3  9  1  0  0  0  0
  4  1  1  0  0  0  0
  5 10  1  0  0  0  0
  6 22  1  0  0  0  0
  7  3  1  0  0  0  0
  7 21  1  0  0  0  0
  8 18  1  0  0  0  0
  8 12  1  0  0  0  0
  9  6  1  0  0  0  0
 10  7  1  0  0  0  0
 11  6  1  0  0  0  0
 12  4  1  0  0  0  0
 13  9  1  0  0  0  0
 13 17  1  0  0  0  0
 15 20  1  0  0  0  0
 16 11  1  0  0  0  0
 17  2  1  0  0  0  0
 18 25  1  0  0  0  0
 19  5  1  0  0  0  0
 19 18  1  0  0  0  0
 20  3  1  0  0  0  0
 20 16  1  0  0  0  0
 21 13  1  0  0  0  0
 22  2  1  0  0  0  0
 23 28  1  0  0  0  0
 23 10  1  0  0  0  0
 25 27  1  0  0  0  0
 26  8  1  0  0  0  0
 27 21  1  0  0  0  0
 28 15  1  0  0  0  0
 29 30  1  0  0  0  0
 30 31  2  0  0  0  0
 30 23  1  0  0  0  0
 33 34  2  0  0  0  0
 34 31  1  0  0  0  0
 34 32  1  0  0  0  0
 35 33  1  0  0  0  0
 35 29  2  0  0  0  0
 37 36  1  0  0  0  0
 37  4  1  0  0  0  0
M  END
>  <MODEL>
7

>  <REMARK>
 VINA RESULT:      -4.2      2.847      6.697
  Name = 
  2 active torsions:
  status: ('A' for Active; 'I' for Inactive)
    1  A    between atoms: C_4  and  O_37
    2  A    between atoms: C_23  and  C_30
                            x       y       z     vdW  Elec       q    Type
                         _______ _______ _______ _____ _____    ______ ____

>  <TORSDO>
F 2

$$$$
=
 OpenBabel11122411233D

 37 43  0  0  1  0  0  0  0  0999 V2000
  184.0810  176.8990  136.4310 C   0  0  0  0  0  2  0  0  0  0  0  0
  180.9980  172.8200  136.5480 C   0  0  0  0  0  0  0  0  0  0  0  0
  181.4570  176.1380  139.0120 C   0  0  1  0  0  3  0  0  0  0  0  0
  184.9180  177.1640  135.1770 C   0  0  2  0  0  3  0  0  0  0  0  0
  184.8070  177.6980  139.7340 O   0  0  0  0  0  0  0  0  0  0  0  0
  179.9370  174.3400  138.0110 C   0  0  1  0  0  3  0  0  0  0  0  0
  182.9420  176.2030  139.3580 C   0  0  2  0  0  3  0  0  0  0  0  0
  186.9280  177.9560  136.6160 C   0  0  2  0  0  3  0  0  0  0  0  0
  181.3070  174.7290  138.5670 C   0  0  1  0  0  3  0  0  0  0  0  0
  183.4560  177.6580  139.3680 C   0  0  1  0  0  3  0  0  0  0  0  0
  178.9340  175.5010  138.1420 C   0  0  0  0  0  2  0  0  0  0  0  0
  186.4370  177.1560  135.4000 C   0  0  0  0  0  2  0  0  0  0  0  0
  182.3840  174.6360  137.5640 C   0  0  2  0  0  3  0  0  0  0  0  0
  181.1230  172.4730  135.0790 C   0  0  0  0  0  1  0  0  0  0  0  0
  180.5750  177.7310  140.7930 C   0  0  0  0  0  2  0  0  0  0  0  0
  178.9970  176.1910  139.5320 C   0  0  0  0  0  2  0  0  0  0  0  0
  182.4160  173.2100  137.0560 C   0  0  0  0  0  2  0  0  0  0  0  0
  186.4510  177.4360  137.9930 C   0  0  1  0  0  3  0  0  0  0  0  0
  185.4430  178.3620  138.6820 C   0  0  0  0  0  2  0  0  0  0  0  0
  180.4260  176.3810  140.0990 C   0  0  1  0  0  3  0  0  0  0  0  0
  183.5830  175.2110  138.3130 C   0  0  1  0  0  3  0  0  0  0  0  0
  180.0310  173.8720  136.6710 O   0  0  0  0  0  0  0  0  0  0  0  0
  182.6510  178.6030  140.2880 C   0  0  1  0  0  3  0  0  0  0  0  0
  180.5270  171.5680  137.2750 C   0  0  0  0  0  1  0  0  0  0  0  0
  185.9840  175.9700  137.9570 C   0  0  0  0  0  2  0  0  0  0  0  0
  186.7040  179.3250  136.4450 O   0  0  0  0  0  1  0  0  0  0  0  0
  184.6100  175.7440  137.3000 C   0  0  2  0  0  3  0  0  0  0  0  0
  181.2640  178.6730  140.0030 O   0  0  0  0  0  0  0  0  0  0  0  0
  182.0890  179.0180  142.7020 C   0  0  0  0  0  3  0  0  0  0  0  0
  183.0420  178.6440  141.7490 C   0  0  0  0  0  0  0  0  0  0  0  0
  184.3350  178.2900  142.1630 C   0  0  0  0  0  3  0  0  0  0  0  0
  186.2850  177.8800  144.0280 Cl  0  0  0  0  0  0  0  0  0  0  0  0
  183.7160  178.6990  144.4670 C   0  0  0  0  0  3  0  0  0  0  0  0
  184.6700  178.3190  143.5190 C   0  0  0  0  0  0  0  0  0  0  0  0
  182.4250  179.0480  144.0590 C   0  0  0  0  0  3  0  0  0  0  0  0
  183.1370  178.4080  134.7520 C   0  0  0  0  0  1  0  0  0  0  0  0
  184.5240  178.3720  134.5980 O   0  0  0  0  0  0  0  0  0  0  0  0
  1 27  1  0  0  0  0
  2 22  1  0  0  0  0
  2 17  1  0  0  0  0
  2 24  1  0  0  0  0
  3  7  1  0  0  0  0
  3 20  1  0  0  0  0
  4 12  1  0  0  0  0
  4  1  1  0  0  0  0
  6 11  1  0  0  0  0
  6  9  1  0  0  0  0
  7 10  1  0  0  0  0
  8 18  1  0  0  0  0
  9  3  1  0  0  0  0
 10  5  1  0  0  0  0
 10 23  1  0  0  0  0
 11 16  1  0  0  0  0
 12  8  1  0  0  0  0
 13 21  1  0  0  0  0
 13  9  1  0  0  0  0
 14  2  1  0  0  0  0
 16 20  1  0  0  0  0
 17 13  1  0  0  0  0
 18 19  1  0  0  0  0
 19  5  1  0  0  0  0
 20 15  1  0  0  0  0
 21  7  1  0  0  0  0
 22  6  1  0  0  0  0
 23 30  1  0  0  0  0
 25 18  1  0  0  0  0
 26  8  1  0  0  0  0
 27 25  1  0  0  0  0
 27 21  1  0  0  0  0
 28 23  1  0  0  0  0
 28 15  1  0  0  0  0
 29 35  1  0  0  0  0
 30 31  1  0  0  0  0
 30 29  2  0  0  0  0
 31 34  2  0  0  0  0
 34 32  1  0  0  0  0
 34 33  1  0  0  0  0
 35 33  2  0  0  0  0
 37 36  1  0  0  0  0
 37  4  1  0  0  0  0
M  END
>  <MODEL>
8

>  <REMARK>
 VINA RESULT:      -4.0      2.548      6.031
  Name = 
  2 active torsions:
  status: ('A' for Active; 'I' for Inactive)
    1  A    between atoms: C_4  and  O_37
    2  A    between atoms: C_23  and  C_30
                            x       y       z     vdW  Elec       q    Type
                         _______ _______ _______ _____ _____    ______ ____

>  <TORSDO>
F 2

$$$$
=
 OpenBabel11122411233D

 37 43  0  0  1  0  0  0  0  0999 V2000
  180.5080  179.2240  140.3520 C   0  0  0  0  0  2  0  0  0  0  0  0
  179.9070  182.2130  136.2460 C   0  0  0  0  0  0  0  0  0  0  0  0
  181.2050  178.2980  136.7760 C   0  0  1  0  0  3  0  0  0  0  0  0
  179.9460  179.6870  141.6980 C   0  0  2  0  0  3  0  0  0  0  0  0
  183.2740  177.2150  139.7300 O   0  0  0  0  0  0  0  0  0  0  0  0
  180.0320  180.0450  135.3200 C   0  0  1  0  0  3  0  0  0  0  0  0
  182.3080  178.3600  137.8300 C   0  0  2  0  0  3  0  0  0  0  0  0
  182.0060  178.7270  142.9540 C   0  0  2  0  0  3  0  0  0  0  0  0
  181.1460  179.7070  136.3120 C   0  0  1  0  0  3  0  0  0  0  0  0
  182.2260  177.1650  138.8030 C   0  0  1  0  0  3  0  0  0  0  0  0
  179.2510  178.7820  134.9120 C   0  0  0  0  0  2  0  0  0  0  0  0
  180.9920  179.8730  142.8070 C   0  0  0  0  0  2  0  0  0  0  0  0
  181.0110  180.4210  137.5950 C   0  0  2  0  0  3  0  0  0  0  0  0
  178.9330  183.1810  136.8840 C   0  0  0  0  0  1  0  0  0  0  0  0
  181.6590  175.9590  135.8770 C   0  0  0  0  0  2  0  0  0  0  0  0
  180.1830  177.5800  134.5940 C   0  0  0  0  0  2  0  0  0  0  0  0
  181.0120  181.9050  137.2980 C   0  0  0  0  0  2  0  0  0  0  0  0
  182.9370  178.5000  141.7390 C   0  0  1  0  0  3  0  0  0  0  0  0
  182.6480  177.2020  140.9780 C   0  0  0  0  0  2  0  0  0  0  0  0
  181.3920  177.4250  135.5490 C   0  0  1  0  0  3  0  0  0  0  0  0
  182.1270  179.8050  138.4340 C   0  0  1  0  0  3  0  0  0  0  0  0
  179.1700  181.0560  135.8270 O   0  0  0  0  0  0  0  0  0  0  0  0
  182.2280  175.7850  138.1070 C   0  0  1  0  0  3  0  0  0  0  0  0
  180.5320  182.9160  135.0490 C   0  0  0  0  0  1  0  0  0  0  0  0
  183.0280  179.7260  140.8100 C   0  0  0  0  0  2  0  0  0  0  0  0
  181.3830  177.5530  143.3860 O   0  0  0  0  0  1  0  0  0  0  0  0
  181.7900  179.9620  139.9260 C   0  0  2  0  0  3  0  0  0  0  0  0
  181.1930  175.5960  137.1560 O   0  0  0  0  0  0  0  0  0  0  0  0
  183.7820  173.8160  137.9610 C   0  0  0  0  0  3  0  0  0  0  0  0
  183.5740  175.1850  137.7650 C   0  0  0  0  0  0  0  0  0  0  0  0
  184.6060  175.9740  137.2350 C   0  0  0  0  0  3  0  0  0  0  0  0
  187.1190  176.3870  136.2540 Cl  0  0  0  0  0  0  0  0  0  0  0  0
  186.0410  174.0290  137.1140 C   0  0  0  0  0  3  0  0  0  0  0  0
  185.8360  175.3960  136.9120 C   0  0  0  0  0  0  0  0  0  0  0  0
  185.0130  173.2380  137.6380 C   0  0  0  0  0  3  0  0  0  0  0  0
  178.9320  177.7980  141.1510 C   0  0  0  0  0  1  0  0  0  0  0  0
  178.9510  178.8020  142.1200 O   0  0  0  0  0  0  0  0  0  0  0  0
  1  4  1  0  0  0  0
  2 14  1  0  0  0  0
  2 17  1  0  0  0  0
  3  7  1  0  0  0  0
  4 37  1  0  0  0  0
  4 12  1  0  0  0  0
  5 19  1  0  0  0  0
  6 22  1  0  0  0  0
  6  9  1  0  0  0  0
  7 21  1  0  0  0  0
  7 10  1  0  0  0  0
  8 26  1  0  0  0  0
  9  3  1  0  0  0  0
  9 13  1  0  0  0  0
 10  5  1  0  0  0  0
 11  6  1  0  0  0  0
 12  8  1  0  0  0  0
 13 21  1  0  0  0  0
 15 28  1  0  0  0  0
 16 11  1  0  0  0  0
 16 20  1  0  0  0  0
 17 13  1  0  0  0  0
 18  8  1  0  0  0  0
 19 18  1  0  0  0  0
 20 15  1  0  0  0  0
 20  3  1  0  0  0  0
 21 27  1  0  0  0  0
 22  2  1  0  0  0  0
 23 10  1  0  0  0  0
 24  2  1  0  0  0  0
 25 18  1  0  0  0  0
 27  1  1  0  0  0  0
 27 25  1  0  0  0  0
 28 23  1  0  0  0  0
 30 29  1  0  0  0  0
 30 23  1  0  0  0  0
 31 30  2  0  0  0  0
 32 34  1  0  0  0  0
 33 35  1  0  0  0  0
 34 33  2  0  0  0  0
 34 31  1  0  0  0  0
 35 29  2  0  0  0  0
 36 37  1  0  0  0  0
M  END
>  <MODEL>
9

>  <REMARK>
 VINA RESULT:      -3.8      2.908      7.556
  Name = 
  2 active torsions:
  status: ('A' for Active; 'I' for Inactive)
    1  A    between atoms: C_4  and  O_37
    2  A    between atoms: C_23  and  C_30
                            x       y       z     vdW  Elec       q    Type
                         _______ _______ _______ _____ _____    ______ ____

>  <TORSDO>
F 2

$$$$
