=
 OpenBabel11122412243D

 34 40  0  0  1  0  0  0  0  0999 V2000
  182.2310  179.0020  143.2440 C   0  0  0  0  0  0  0  0  0  0  0  0
  183.3790  178.5970  145.4220 C   0  0  0  0  0  2  0  0  0  0  0  0
  182.1730  177.4310  136.8340 C   0  0  0  0  0  0  0  0  0  0  0  0
  181.3470  178.3440  141.0990 C   0  0  0  0  0  0  0  0  0  0  0  0
  182.9710  178.1790  139.1440 C   0  0  2  0  0  3  0  0  0  0  0  0
  184.4920  177.7440  137.3380 O   0  0  0  0  0  1  0  0  0  0  0  0
  182.4080  177.9620  135.7160 O   0  0  0  0  0  0  0  0  0  0  0  0
  180.2100  176.8750  138.2780 C   0  0  0  0  0  2  0  0  0  0  0  0
  184.7810  179.3280  143.5710 C   0  0  2  0  0  3  0  0  0  0  0  0
  187.7040  177.9960  143.6150 C   0  0  0  0  0  2  0  0  0  0  0  0
  183.9230  177.7840  140.1820 N   0  0  0  0  0  2  0  0  0  0  0  0
  181.0550  176.7060  139.3800 O   0  0  0  0  0  0  0  0  0  0  0  0
  184.9130  178.4240  142.3250 C   0  0  1  0  0  3  0  0  0  0  0  0
  184.7690  178.7930  145.9720 C   0  0  0  0  0  2  0  0  0  0  0  0
  181.5220  177.9990  139.6450 C   0  0  1  0  0  3  0  0  0  0  0  0
  180.9300  176.8190  137.0450 O   0  0  0  0  0  0  0  0  0  0  0  0
  186.5680  177.7000  144.5830 C   0  0  2  0  0  3  0  0  0  0  0  0
  182.4540  178.6570  141.9050 C   0  0  0  0  0  0  0  0  0  0  0  0
  183.2600  177.3640  137.8770 C   0  0  2  0  0  3  0  0  0  0  0  0
  183.8260  178.7290  141.2940 C   0  0  2  0  0  3  0  0  0  0  0  0
  179.9020  178.6880  142.9380 C   0  0  0  0  0  3  0  0  0  0  0  0
  187.2970  177.6660  142.1910 C   0  0  0  0  0  2  0  0  0  0  0  0
  180.0990  178.3610  141.6360 N   0  0  0  0  0  0  0  0  0  0  0  0
  186.2700  178.6560  141.6710 C   0  0  0  0  0  2  0  0  0  0  0  0
  185.6890  178.9510  144.7680 C   0  0  1  0  0  3  0  0  0  0  0  0
  180.9580  179.0110  143.7270 N   0  0  0  0  0  0  0  0  0  0  0  0
  183.3600  179.4090  144.1500 C   0  0  1  0  0  3  0  0  0  0  0  0
  187.1210  177.3090  145.8060 O   0  0  0  0  0  0  0  0  0  0  0  0
  188.4030  177.8670  145.8120 C   0  0  0  0  0  2  0  0  0  0  0  0
  191.7930  176.6060  146.0930 C   0  0  0  0  0  2  0  0  0  0  0  0
  189.9990  177.2470  147.5480 N   0  0  0  0  0  2  0  0  0  0  0  0
  189.4110  176.8350  146.2830 C   0  0  2  0  0  3  0  0  0  0  0  0
  191.3500  176.7090  147.5360 C   0  0  0  0  0  2  0  0  0  0  0  0
  190.5300  176.7150  145.2750 C   0  0  0  0  0  2  0  0  0  0  0  0
  1 26  1  0  0  0  0
  1 27  1  0  0  0  0
  2 14  1  0  0  0  0
  3 16  1  0  0  0  0
  3 19  1  0  0  0  0
  4 23  2  0  0  0  0
  4 18  1  0  0  0  0
  5 15  1  0  0  0  0
  5 11  1  1  0  0  0
  6 19  1  0  0  0  0
  7  3  2  0  0  0  0
  8 12  1  0  0  0  0
  9 27  1  0  0  0  0
  9 25  1  0  0  0  0
 10 17  1  0  0  0  0
 11 20  1  0  0  0  0
 12 15  1  0  0  0  0
 13  9  1  0  0  0  0
 15  4  1  0  0  0  0
 16  8  1  0  0  0  0
 17 25  1  0  0  0  0
 17 28  1  0  0  0  0
 18  1  2  0  0  0  0
 19  5  1  0  0  0  0
 20 18  1  0  0  0  0
 20 13  1  0  0  0  0
 21 26  2  0  0  0  0
 22 10  1  0  0  0  0
 23 21  1  0  0  0  0
 24 22  1  0  0  0  0
 24 13  1  0  0  0  0
 25 14  1  0  0  0  0
 27  2  1  0  0  0  0
 28 29  1  0  0  0  0
 29 32  1  0  0  0  0
 30 33  1  0  0  0  0
 32 31  1  0  0  0  0
 33 31  1  0  0  0  0
 34 30  1  0  0  0  0
 34 32  1  0  0  0  0
M  END
>  <MODEL>
1

>  <REMARK>
 VINA RESULT:      -9.5      0.000      0.000
  Name = 
  3 active torsions:
  status: ('A' for Active; 'I' for Inactive)
    1  A    between atoms: C_17  and  O_28
    2  A    between atoms: O_28  and  C_29
    3  A    between atoms: C_29  and  C_32
                            x       y       z     vdW  Elec       q    Type
                         _______ _______ _______ _____ _____    ______ ____

>  <TORSDO>
F 3

$$$$
=
 OpenBabel11122412243D

 34 40  0  0  1  0  0  0  0  0999 V2000
  187.9980  177.9480  139.8330 C   0  0  0  0  0  0  0  0  0  0  0  0
  185.8350  177.7820  138.5990 C   0  0  0  0  0  2  0  0  0  0  0  0
  190.9670  176.8700  145.6270 C   0  0  0  0  0  0  0  0  0  0  0  0
  189.6720  177.1890  141.3930 C   0  0  0  0  0  0  0  0  0  0  0  0
  189.3000  177.6760  143.8660 C   0  0  2  0  0  3  0  0  0  0  0  0
  188.8720  177.8650  146.2200 O   0  0  0  0  0  1  0  0  0  0  0  0
  191.4750  177.5210  146.5780 O   0  0  0  0  0  0  0  0  0  0  0  0
  191.7090  175.6280  143.5890 C   0  0  0  0  0  2  0  0  0  0  0  0
  185.8070  179.0390  140.6830 C   0  0  2  0  0  3  0  0  0  0  0  0
  183.0580  178.6990  142.3100 C   0  0  0  0  0  2  0  0  0  0  0  0
  187.8880  177.5330  143.5120 N   0  0  0  0  0  2  0  0  0  0  0  0
  190.4060  175.6610  143.0820 O   0  0  0  0  0  0  0  0  0  0  0  0
  186.1220  178.3090  142.0070 C   0  0  1  0  0  3  0  0  0  0  0  0
  184.4530  178.3690  138.7400 C   0  0  0  0  0  2  0  0  0  0  0  0
  190.1930  177.0150  142.7940 C   0  0  1  0  0  3  0  0  0  0  0  0
  191.7370  175.8850  144.9950 O   0  0  0  0  0  0  0  0  0  0  0  0
  183.4260  177.9960  141.0120 C   0  0  2  0  0  3  0  0  0  0  0  0
  188.4210  177.7810  141.1570 C   0  0  0  0  0  0  0  0  0  0  0  0
  189.5190  177.0800  145.2620 C   0  0  2  0  0  3  0  0  0  0  0  0
  187.6220  178.3230  142.3100 C   0  0  2  0  0  3  0  0  0  0  0  0
  189.9990  176.9360  139.0650 C   0  0  0  0  0  3  0  0  0  0  0  0
  184.0470  178.3530  143.4090 C   0  0  0  0  0  2  0  0  0  0  0  0
  190.4280  176.7750  140.3420 N   0  0  0  0  0  0  0  0  0  0  0  0
  185.3960  179.0010  143.1540 C   0  0  0  0  0  2  0  0  0  0  0  0
  184.3530  178.8900  140.1690 C   0  0  1  0  0  3  0  0  0  0  0  0
  188.8000  177.5220  138.8190 N   0  0  0  0  0  0  0  0  0  0  0  0
  186.6990  178.6290  139.5010 C   0  0  1  0  0  3  0  0  0  0  0  0
  182.2470  177.7190  140.3120 O   0  0  0  0  0  0  0  0  0  0  0  0
  181.3560  178.7210  140.7030 C   0  0  0  0  0  2  0  0  0  0  0  0
  181.2920  180.5920  137.5950 C   0  0  0  0  0  2  0  0  0  0  0  0
  180.7990  178.3730  138.3550 N   0  0  0  0  0  2  0  0  0  0  0  0
  180.6320  179.2700  139.4880 C   0  0  2  0  0  3  0  0  0  0  0  0
  180.7800  179.2290  137.1810 C   0  0  0  0  0  2  0  0  0  0  0  0
  181.2200  180.6080  139.1020 C   0  0  0  0  0  2  0  0  0  0  0  0
  1 18  1  0  0  0  0
  2 14  1  0  0  0  0
  2 27  1  0  0  0  0
  3  7  2  0  0  0  0
  4 15  1  0  0  0  0
  5 11  1  6  0  0  0
  5 19  1  0  0  0  0
  8 16  1  0  0  0  0
  9 13  1  0  0  0  0
 10 22  1  0  0  0  0
 12  8  1  0  0  0  0
 13 20  1  0  0  0  0
 13 24  1  0  0  0  0
 14 25  1  0  0  0  0
 15 12  1  0  0  0  0
 15  5  1  0  0  0  0
 16  3  1  0  0  0  0
 17 10  1  0  0  0  0
 18  4  2  0  0  0  0
 18 20  1  0  0  0  0
 19  3  1  0  0  0  0
 19  6  1  0  0  0  0
 20 11  1  0  0  0  0
 21 23  2  0  0  0  0
 23  4  1  0  0  0  0
 24 22  1  0  0  0  0
 25  9  1  0  0  0  0
 25 17  1  0  0  0  0
 26 21  1  0  0  0  0
 26  1  2  0  0  0  0
 27  1  1  0  0  0  0
 27  9  1  0  0  0  0
 28 29  1  0  0  0  0
 28 17  1  0  0  0  0
 30 34  1  0  0  0  0
 31 32  1  0  0  0  0
 32 29  1  0  0  0  0
 33 30  1  0  0  0  0
 33 31  1  0  0  0  0
 34 32  1  0  0  0  0
M  END
>  <MODEL>
2

>  <REMARK>
 VINA RESULT:      -9.2      2.813      9.211
  Name = 
  3 active torsions:
  status: ('A' for Active; 'I' for Inactive)
    1  A    between atoms: C_17  and  O_28
    2  A    between atoms: O_28  and  C_29
    3  A    between atoms: C_29  and  C_32
                            x       y       z     vdW  Elec       q    Type
                         _______ _______ _______ _____ _____    ______ ____

>  <TORSDO>
F 3

$$$$
=
 OpenBabel11122412243D

 34 40  0  0  1  0  0  0  0  0999 V2000
  188.7280  178.1220  138.4830 C   0  0  0  0  0  0  0  0  0  0  0  0
  186.9680  178.0950  140.2520 C   0  0  0  0  0  2  0  0  0  0  0  0
  194.3030  175.2580  136.4150 C   0  0  0  0  0  0  0  0  0  0  0  0
  190.3010  177.1000  136.9690 C   0  0  0  0  0  0  0  0  0  0  0  0
  192.5700  176.4090  137.9000 C   0  0  2  0  0  3  0  0  0  0  0  0
  194.6080  175.4950  138.7780 O   0  0  0  0  0  1  0  0  0  0  0  0
  195.5270  175.5250  136.2920 O   0  0  0  0  0  0  0  0  0  0  0  0
  192.2460  175.1650  134.9980 C   0  0  0  0  0  2  0  0  0  0  0  0
  189.2710  178.3170  141.0090 C   0  0  2  0  0  3  0  0  0  0  0  0
  189.8210  176.8080  143.7920 C   0  0  0  0  0  2  0  0  0  0  0  0
  191.8090  176.1690  139.1260 N   0  0  0  0  0  2  0  0  0  0  0  0
  191.4440  175.1660  136.1440 O   0  0  0  0  0  0  0  0  0  0  0  0
  190.2650  177.1650  140.7400 C   0  0  1  0  0  3  0  0  0  0  0  0
  186.9230  178.2960  141.7460 C   0  0  0  0  0  2  0  0  0  0  0  0
  191.6260  176.4470  136.6780 C   0  0  1  0  0  3  0  0  0  0  0  0
  193.5950  174.7990  135.2970 O   0  0  0  0  0  0  0  0  0  0  0  0
  188.5140  176.8060  143.0130 C   0  0  2  0  0  3  0  0  0  0  0  0
  189.9600  177.4900  138.2740 C   0  0  0  0  0  0  0  0  0  0  0  0
  193.6510  175.3290  137.7730 C   0  0  2  0  0  3  0  0  0  0  0  0
  190.9590  177.3300  139.3870 C   0  0  2  0  0  3  0  0  0  0  0  0
  188.2350  177.9270  136.1730 C   0  0  0  0  0  3  0  0  0  0  0  0
  190.9450  176.2190  142.9580 C   0  0  0  0  0  2  0  0  0  0  0  0
  189.4290  177.3210  135.9510 N   0  0  0  0  0  0  0  0  0  0  0  0
  191.3340  177.1540  141.8270 C   0  0  0  0  0  2  0  0  0  0  0  0
  188.3540  178.1300  142.2440 C   0  0  1  0  0  3  0  0  0  0  0  0
  187.8960  178.3270  137.4250 N   0  0  0  0  0  0  0  0  0  0  0  0
  188.3210  178.6230  139.8410 C   0  0  1  0  0  3  0  0  0  0  0  0
  187.4620  176.6390  143.9190 O   0  0  0  0  0  0  0  0  0  0  0  0
  187.9650  177.0990  145.1390 C   0  0  0  0  0  2  0  0  0  0  0  0
  184.7570  178.5010  146.0900 C   0  0  0  0  0  2  0  0  0  0  0  0
  186.8990  178.1020  147.0890 N   0  0  0  0  0  2  0  0  0  0  0  0
  187.1030  178.2360  145.6550 C   0  0  2  0  0  3  0  0  0  0  0  0
  185.5860  178.6710  147.3450 C   0  0  0  0  0  2  0  0  0  0  0  0
  185.7450  178.1910  144.9930 C   0  0  0  0  0  2  0  0  0  0  0  0
  1 27  1  0  0  0  0
  2 14  1  0  0  0  0
  3 19  1  0  0  0  0
  4 18  2  0  0  0  0
  5 11  1  1  0  0  0
  7  3  2  0  0  0  0
  8 16  1  0  0  0  0
  8 12  1  0  0  0  0
  9 25  1  0  0  0  0
 11 20  1  0  0  0  0
 12 15  1  0  0  0  0
 13  9  1  0  0  0  0
 13 24  1  0  0  0  0
 14 25  1  0  0  0  0
 15  4  1  0  0  0  0
 15  5  1  0  0  0  0
 16  3  1  0  0  0  0
 17 10  1  0  0  0  0
 17 28  1  0  0  0  0
 18  1  1  0  0  0  0
 18 20  1  0  0  0  0
 19  5  1  0  0  0  0
 19  6  1  0  0  0  0
 20 13  1  0  0  0  0
 21 26  1  0  0  0  0
 22 10  1  0  0  0  0
 23 21  2  0  0  0  0
 23  4  1  0  0  0  0
 24 22  1  0  0  0  0
 25 17  1  0  0  0  0
 26  1  2  0  0  0  0
 27  2  1  0  0  0  0
 27  9  1  0  0  0  0
 28 29  1  0  0  0  0
 29 32  1  0  0  0  0
 30 33  1  0  0  0  0
 31 33  1  0  0  0  0
 32 31  1  0  0  0  0
 34 32  1  0  0  0  0
 34 30  1  0  0  0  0
M  END
>  <MODEL>
3

>  <REMARK>
 VINA RESULT:      -9.1      5.582      8.168
  Name = 
  3 active torsions:
  status: ('A' for Active; 'I' for Inactive)
    1  A    between atoms: C_17  and  O_28
    2  A    between atoms: O_28  and  C_29
    3  A    between atoms: C_29  and  C_32
                            x       y       z     vdW  Elec       q    Type
                         _______ _______ _______ _____ _____    ______ ____

>  <TORSDO>
F 3

$$$$
=
 OpenBabel11122412243D

 34 40  0  0  1  0  0  0  0  0999 V2000
  185.6320  178.6250  139.7660 C   0  0  0  0  0  0  0  0  0  0  0  0
  184.3820  177.7670  137.7840 C   0  0  0  0  0  2  0  0  0  0  0  0
  185.8470  178.6820  146.3620 C   0  0  0  0  0  0  0  0  0  0  0  0
  186.5590  178.4630  141.9850 C   0  0  0  0  0  0  0  0  0  0  0  0
  185.0030  178.8850  143.9580 C   0  0  2  0  0  3  0  0  0  0  0  0
  183.5300  179.0030  145.8500 O   0  0  0  0  0  1  0  0  0  0  0  0
  185.6830  179.4850  147.3180 O   0  0  0  0  0  0  0  0  0  0  0  0
  187.7210  177.6670  145.0560 C   0  0  0  0  0  2  0  0  0  0  0  0
  183.0930  179.0160  139.4280 C   0  0  2  0  0  3  0  0  0  0  0  0
  180.1020  177.8960  139.7830 C   0  0  0  0  0  2  0  0  0  0  0  0
  183.9930  178.3050  143.0730 N   0  0  0  0  0  2  0  0  0  0  0  0
  186.8270  177.2840  144.0510 O   0  0  0  0  0  0  0  0  0  0  0  0
  182.9590  178.4570  140.8620 C   0  0  1  0  0  3  0  0  0  0  0  0
  182.9840  177.9060  137.2340 C   0  0  0  0  0  2  0  0  0  0  0  0
  186.4210  178.4980  143.4840 C   0  0  1  0  0  3  0  0  0  0  0  0
  187.0460  177.9620  146.2810 O   0  0  0  0  0  0  0  0  0  0  0  0
  181.1830  177.3020  138.8930 C   0  0  2  0  0  3  0  0  0  0  0  0
  185.4410  178.6350  141.1540 C   0  0  0  0  0  0  0  0  0  0  0  0
  184.7190  178.4270  145.3940 C   0  0  2  0  0  3  0  0  0  0  0  0
  184.0990  178.9400  141.7590 C   0  0  2  0  0  3  0  0  0  0  0  0
  187.9500  178.2540  140.0860 C   0  0  0  0  0  3  0  0  0  0  0  0
  180.5440  177.9030  141.2350 C   0  0  0  0  0  2  0  0  0  0  0  0
  187.7850  178.2690  141.4320 N   0  0  0  0  0  0  0  0  0  0  0  0
  181.6420  178.9260  141.4680 C   0  0  0  0  0  2  0  0  0  0  0  0
  182.1200  178.4120  138.3830 C   0  0  1  0  0  3  0  0  0  0  0  0
  186.8830  178.4360  139.2670 N   0  0  0  0  0  0  0  0  0  0  0  0
  184.4930  178.8650  138.8140 C   0  0  1  0  0  3  0  0  0  0  0  0
  180.5640  176.6570  137.8180 O   0  0  0  0  0  0  0  0  0  0  0  0
  180.4460  175.3240  138.2220 C   0  0  0  0  0  2  0  0  0  0  0  0
  182.4210  174.7940  135.2250 C   0  0  0  0  0  2  0  0  0  0  0  0
  182.5600  174.3010  137.5670 N   0  0  0  0  0  2  0  0  0  0  0  0
  181.1500  174.4200  137.2280 C   0  0  2  0  0  3  0  0  0  0  0  0
  183.2460  174.1170  136.2990 C   0  0  0  0  0  2  0  0  0  0  0  0
  181.0610  175.0150  135.8410 C   0  0  0  0  0  2  0  0  0  0  0  0
  1 18  1  0  0  0  0
  2 27  1  0  0  0  0
  3  7  2  0  0  0  0
  4 15  1  0  0  0  0
  5 11  1  6  0  0  0
  5 19  1  0  0  0  0
  8 16  1  0  0  0  0
  9 13  1  0  0  0  0
 10 22  1  0  0  0  0
 12  8  1  0  0  0  0
 13 24  1  0  0  0  0
 13 20  1  0  0  0  0
 14  2  1  0  0  0  0
 14 25  1  0  0  0  0
 15  5  1  0  0  0  0
 15 12  1  0  0  0  0
 16  3  1  0  0  0  0
 17 10  1  0  0  0  0
 18 20  1  0  0  0  0
 18  4  2  0  0  0  0
 19  6  1  0  0  0  0
 19  3  1  0  0  0  0
 20 11  1  0  0  0  0
 21 23  2  0  0  0  0
 22 24  1  0  0  0  0
 23  4  1  0  0  0  0
 25 17  1  0  0  0  0
 25  9  1  0  0  0  0
 26  1  2  0  0  0  0
 26 21  1  0  0  0  0
 27  9  1  0  0  0  0
 27  1  1  0  0  0  0
 28 29  1  0  0  0  0
 28 17  1  0  0  0  0
 30 34  1  0  0  0  0
 30 33  1  0  0  0  0
 32 31  1  0  0  0  0
 32 29  1  0  0  0  0
 33 31  1  0  0  0  0
 34 32  1  0  0  0  0
M  END
>  <MODEL>
4

>  <REMARK>
 VINA RESULT:      -9.0      2.372      8.730
  Name = 
  3 active torsions:
  status: ('A' for Active; 'I' for Inactive)
    1  A    between atoms: C_17  and  O_28
    2  A    between atoms: O_28  and  C_29
    3  A    between atoms: C_29  and  C_32
                            x       y       z     vdW  Elec       q    Type
                         _______ _______ _______ _____ _____    ______ ____

>  <TORSDO>
F 3

$$$$
=
 OpenBabel11122412243D

 34 40  0  0  1  0  0  0  0  0999 V2000
  188.2400  177.9550  139.7180 C   0  0  0  0  0  0  0  0  0  0  0  0
  186.1840  177.7700  138.3150 C   0  0  0  0  0  2  0  0  0  0  0  0
  190.7610  176.8550  145.7170 C   0  0  0  0  0  0  0  0  0  0  0  0
  189.7980  177.2050  141.3970 C   0  0  0  0  0  0  0  0  0  0  0  0
  189.2240  177.6560  143.8380 C   0  0  2  0  0  3  0  0  0  0  0  0
  188.6090  177.8100  146.1530 O   0  0  0  0  0  1  0  0  0  0  0  0
  191.1810  177.5030  146.7120 O   0  0  0  0  0  0  0  0  0  0  0  0
  191.6810  175.6490  143.7300 C   0  0  0  0  0  2  0  0  0  0  0  0
  185.9710  179.0030  140.4040 C   0  0  2  0  0  3  0  0  0  0  0  0
  183.1080  178.6000  141.8050 C   0  0  0  0  0  2  0  0  0  0  0  0
  187.8470  177.4950  143.3720 N   0  0  0  0  0  2  0  0  0  0  0  0
  190.4220  175.6680  143.1220 O   0  0  0  0  0  0  0  0  0  0  0  0
  186.1930  178.2610  141.7410 C   0  0  1  0  0  3  0  0  0  0  0  0
  184.7860  178.3350  138.3530 C   0  0  0  0  0  2  0  0  0  0  0  0
  190.2100  177.0210  142.8330 C   0  0  1  0  0  3  0  0  0  0  0  0
  191.5940  175.8900  145.1360 O   0  0  0  0  0  0  0  0  0  0  0  0
  183.5880  177.9180  140.5330 C   0  0  2  0  0  3  0  0  0  0  0  0
  188.5590  177.7790  141.0700 C   0  0  0  0  0  0  0  0  0  0  0  0
  189.3430  177.0470  145.2400 C   0  0  2  0  0  3  0  0  0  0  0  0
  187.6630  178.2960  142.1620 C   0  0  2  0  0  3  0  0  0  0  0  0
  190.3110  176.9840  139.1000 C   0  0  0  0  0  3  0  0  0  0  0  0
  184.0130  178.2560  142.9750 C   0  0  0  0  0  2  0  0  0  0  0  0
  190.6410  176.8140  140.4050 N   0  0  0  0  0  0  0  0  0  0  0  0
  185.3670  178.9280  142.8340 C   0  0  0  0  0  2  0  0  0  0  0  0
  184.5640  178.8370  139.7750 C   0  0  1  0  0  3  0  0  0  0  0  0
  189.1260  177.5550  138.7660 N   0  0  0  0  0  0  0  0  0  0  0  0
  186.9600  178.6210  139.2920 C   0  0  1  0  0  3  0  0  0  0  0  0
  182.4740  177.6320  139.7390 O   0  0  0  0  0  0  0  0  0  0  0  0
  182.2980  176.2500  139.8560 C   0  0  0  0  0  2  0  0  0  0  0  0
  182.4190  176.4130  136.2340 C   0  0  0  0  0  2  0  0  0  0  0  0
  183.3390  175.0700  137.9940 N   0  0  0  0  0  2  0  0  0  0  0  0
  182.0920  175.6390  138.4830 C   0  0  2  0  0  3  0  0  0  0  0  0
  183.2840  175.2110  136.5480 C   0  0  0  0  0  2  0  0  0  0  0  0
  181.6610  176.7070  137.5050 C   0  0  0  0  0  2  0  0  0  0  0  0
  1 18  1  0  0  0  0
  2 14  1  0  0  0  0
  2 27  1  0  0  0  0
  3  7  2  0  0  0  0
  4 15  1  0  0  0  0
  5 11  1  6  0  0  0
  5 19  1  0  0  0  0
  8 16  1  0  0  0  0
  9 13  1  0  0  0  0
 10 22  1  0  0  0  0
 12  8  1  0  0  0  0
 13 20  1  0  0  0  0
 13 24  1  0  0  0  0
 14 25  1  0  0  0  0
 15 12  1  0  0  0  0
 15  5  1  0  0  0  0
 16  3  1  0  0  0  0
 17 10  1  0  0  0  0
 18  4  2  0  0  0  0
 18 20  1  0  0  0  0
 19  3  1  0  0  0  0
 19  6  1  0  0  0  0
 20 11  1  0  0  0  0
 21 23  2  0  0  0  0
 23  4  1  0  0  0  0
 24 22  1  0  0  0  0
 25  9  1  0  0  0  0
 25 17  1  0  0  0  0
 26 21  1  0  0  0  0
 26  1  2  0  0  0  0
 27  1  1  0  0  0  0
 27  9  1  0  0  0  0
 28 29  1  0  0  0  0
 28 17  1  0  0  0  0
 30 33  1  0  0  0  0
 30 34  1  0  0  0  0
 31 32  1  0  0  0  0
 32 29  1  0  0  0  0
 33 31  1  0  0  0  0
 34 32  1  0  0  0  0
M  END
>  <MODEL>
5

>  <REMARK>
 VINA RESULT:      -8.8      2.829      9.121
  Name = 
  3 active torsions:
  status: ('A' for Active; 'I' for Inactive)
    1  A    between atoms: C_17  and  O_28
    2  A    between atoms: O_28  and  C_29
    3  A    between atoms: C_29  and  C_32
                            x       y       z     vdW  Elec       q    Type
                         _______ _______ _______ _____ _____    ______ ____

>  <TORSDO>
F 3

$$$$
=
 OpenBabel11122412243D

 34 40  0  0  1  0  0  0  0  0999 V2000
  188.6130  177.9980  140.4720 C   0  0  0  0  0  0  0  0  0  0  0  0
  186.5330  177.9160  139.0960 C   0  0  0  0  0  2  0  0  0  0  0  0
  191.2000  176.5800  146.3760 C   0  0  0  0  0  0  0  0  0  0  0  0
  190.1800  177.1430  142.0920 C   0  0  0  0  0  0  0  0  0  0  0  0
  189.6530  177.4940  144.5590 C   0  0  2  0  0  3  0  0  0  0  0  0
  189.0750  177.5560  146.8880 O   0  0  0  0  0  1  0  0  0  0  0  0
  191.6480  177.1740  147.3920 O   0  0  0  0  0  0  0  0  0  0  0  0
  192.0670  175.4470  144.3230 C   0  0  0  0  0  2  0  0  0  0  0  0
  186.3760  179.0570  141.2400 C   0  0  2  0  0  3  0  0  0  0  0  0
  183.5270  178.6460  142.6670 C   0  0  0  0  0  2  0  0  0  0  0  0
  188.2660  177.3810  144.1080 N   0  0  0  0  0  2  0  0  0  0  0  0
  190.7990  175.5180  143.7360 O   0  0  0  0  0  0  0  0  0  0  0  0
  186.6030  178.2520  142.5390 C   0  0  1  0  0  3  0  0  0  0  0  0
  185.1470  178.5050  139.1810 C   0  0  0  0  0  2  0  0  0  0  0  0
  190.6110  176.8870  143.5110 C   0  0  1  0  0  3  0  0  0  0  0  0
  192.0050  175.6260  145.7400 O   0  0  0  0  0  0  0  0  0  0  0  0
  183.9750  178.0130  141.3580 C   0  0  2  0  0  3  0  0  0  0  0  0
  188.9490  177.7550  141.8100 C   0  0  0  0  0  0  0  0  0  0  0  0
  189.7800  176.8210  145.9310 C   0  0  2  0  0  3  0  0  0  0  0  0
  188.0800  178.2390  142.9380 C   0  0  2  0  0  3  0  0  0  0  0  0
  190.6550  177.0160  139.7790 C   0  0  0  0  0  3  0  0  0  0  0  0
  184.4420  178.2330  143.8060 C   0  0  0  0  0  2  0  0  0  0  0  0
  191.0010  176.7810  141.0700 N   0  0  0  0  0  0  0  0  0  0  0  0
  185.8070  178.8840  143.6740 C   0  0  0  0  0  2  0  0  0  0  0  0
  184.9570  178.9460  140.6270 C   0  0  1  0  0  3  0  0  0  0  0  0
  189.4770  177.6240  139.4900 N   0  0  0  0  0  0  0  0  0  0  0  0
  187.3400  178.7060  140.0970 C   0  0  1  0  0  3  0  0  0  0  0  0
  182.8430  177.7840  140.5700 O   0  0  0  0  0  0  0  0  0  0  0  0
  181.8670  178.6400  141.0880 C   0  0  0  0  0  2  0  0  0  0  0  0
  179.6740  176.5430  139.0990 C   0  0  0  0  0  2  0  0  0  0  0  0
  179.7470  177.4580  141.3140 N   0  0  0  0  0  2  0  0  0  0  0  0
  180.5240  178.3350  140.4520 C   0  0  2  0  0  3  0  0  0  0  0  0
  178.9320  176.6590  140.4130 C   0  0  0  0  0  2  0  0  0  0  0  0
  180.7300  177.6210  139.1370 C   0  0  0  0  0  2  0  0  0  0  0  0
  1 18  1  0  0  0  0
  2 14  1  0  0  0  0
  2 27  1  0  0  0  0
  3  7  2  0  0  0  0
  4 15  1  0  0  0  0
  5 11  1  6  0  0  0
  5 19  1  0  0  0  0
  8 16  1  0  0  0  0
  9 13  1  0  0  0  0
 10 22  1  0  0  0  0
 12  8  1  0  0  0  0
 13 20  1  0  0  0  0
 13 24  1  0  0  0  0
 14 25  1  0  0  0  0
 15 12  1  0  0  0  0
 15  5  1  0  0  0  0
 16  3  1  0  0  0  0
 17 10  1  0  0  0  0
 18  4  2  0  0  0  0
 18 20  1  0  0  0  0
 19  3  1  0  0  0  0
 19  6  1  0  0  0  0
 20 11  1  0  0  0  0
 21 23  2  0  0  0  0
 23  4  1  0  0  0  0
 24 22  1  0  0  0  0
 25  9  1  0  0  0  0
 25 17  1  0  0  0  0
 26 21  1  0  0  0  0
 26  1  2  0  0  0  0
 27  1  1  0  0  0  0
 27  9  1  0  0  0  0
 28 29  1  0  0  0  0
 28 17  1  0  0  0  0
 30 34  1  0  0  0  0
 30 33  1  0  0  0  0
 32 29  1  0  0  0  0
 32 31  1  0  0  0  0
 33 31  1  0  0  0  0
 34 32  1  0  0  0  0
M  END
>  <MODEL>
6

>  <REMARK>
 VINA RESULT:      -8.7      2.712      9.345
  Name = 
  3 active torsions:
  status: ('A' for Active; 'I' for Inactive)
    1  A    between atoms: C_17  and  O_28
    2  A    between atoms: O_28  and  C_29
    3  A    between atoms: C_29  and  C_32
                            x       y       z     vdW  Elec       q    Type
                         _______ _______ _______ _____ _____    ______ ____

>  <TORSDO>
F 3

$$$$
=
 OpenBabel11122412243D

 34 40  0  0  1  0  0  0  0  0999 V2000
  186.1540  178.6330  140.6140 C   0  0  0  0  0  0  0  0  0  0  0  0
  184.5370  178.1230  138.7830 C   0  0  0  0  0  2  0  0  0  0  0  0
  187.3500  177.9310  147.0670 C   0  0  0  0  0  0  0  0  0  0  0  0
  187.3760  178.1370  142.6320 C   0  0  0  0  0  0  0  0  0  0  0  0
  186.1870  178.4800  144.8580 C   0  0  2  0  0  3  0  0  0  0  0  0
  185.0320  178.5240  146.9620 O   0  0  0  0  0  1  0  0  0  0  0  0
  187.4190  178.6340  148.1090 O   0  0  0  0  0  0  0  0  0  0  0  0
  188.8860  176.8980  145.3870 C   0  0  0  0  0  2  0  0  0  0  0  0
  183.6510  179.2970  140.7230 C   0  0  2  0  0  3  0  0  0  0  0  0
  180.6410  178.4310  141.4400 C   0  0  0  0  0  2  0  0  0  0  0  0
  184.9990  178.1010  144.0930 N   0  0  0  0  0  2  0  0  0  0  0  0
  187.8160  176.7150  144.5050 O   0  0  0  0  0  0  0  0  0  0  0  0
  183.6700  178.5960  142.1000 C   0  0  1  0  0  3  0  0  0  0  0  0
  183.0970  178.4540  138.4790 C   0  0  0  0  0  2  0  0  0  0  0  0
  187.4670  178.0180  144.1300 C   0  0  1  0  0  3  0  0  0  0  0  0
  188.4370  177.1150  146.7270 O   0  0  0  0  0  0  0  0  0  0  0  0
  181.5070  177.8410  140.3370 C   0  0  2  0  0  3  0  0  0  0  0  0
  186.1730  178.5060  142.0090 C   0  0  0  0  0  0  0  0  0  0  0  0
  186.0700  177.8930  146.2700 C   0  0  2  0  0  3  0  0  0  0  0  0
  184.9780  178.8660  142.8470 C   0  0  2  0  0  3  0  0  0  0  0  0
  188.4390  178.0120  140.5240 C   0  0  0  0  0  3  0  0  0  0  0  0
  181.2920  178.2340  142.7980 C   0  0  0  0  0  2  0  0  0  0  0  0
  188.4780  177.8920  141.8750 N   0  0  0  0  0  0  0  0  0  0  0  0
  182.5180  179.1160  142.9500 C   0  0  0  0  0  2  0  0  0  0  0  0
  182.4740  178.9080  139.7930 C   0  0  1  0  0  3  0  0  0  0  0  0
  187.2890  178.3840  139.9060 N   0  0  0  0  0  0  0  0  0  0  0  0
  184.9190  179.0840  139.8830 C   0  0  1  0  0  3  0  0  0  0  0  0
  180.6670  177.3810  139.3170 O   0  0  0  0  0  0  0  0  0  0  0  0
  179.5110  178.1570  139.4300 C   0  0  0  0  0  2  0  0  0  0  0  0
  180.2410  180.4580  136.7210 C   0  0  0  0  0  2  0  0  0  0  0  0
  179.8930  178.1050  137.0220 N   0  0  0  0  0  2  0  0  0  0  0  0
  179.1850  178.7930  138.0910 C   0  0  2  0  0  3  0  0  0  0  0  0
  180.1480  179.1220  136.0150 C   0  0  0  0  0  2  0  0  0  0  0  0
  179.6360  180.2350  138.0850 C   0  0  0  0  0  2  0  0  0  0  0  0
  1 18  1  0  0  0  0
  2 27  1  0  0  0  0
  3  7  2  0  0  0  0
  4 15  1  0  0  0  0
  5 11  1  6  0  0  0
  5 19  1  0  0  0  0
  8 16  1  0  0  0  0
  9 13  1  0  0  0  0
 10 22  1  0  0  0  0
 12  8  1  0  0  0  0
 13 20  1  0  0  0  0
 13 24  1  0  0  0  0
 14  2  1  0  0  0  0
 14 25  1  0  0  0  0
 15 12  1  0  0  0  0
 15  5  1  0  0  0  0
 16  3  1  0  0  0  0
 17 10  1  0  0  0  0
 18  4  2  0  0  0  0
 18 20  1  0  0  0  0
 19  6  1  0  0  0  0
 19  3  1  0  0  0  0
 20 11  1  0  0  0  0
 21 23  2  0  0  0  0
 22 24  1  0  0  0  0
 23  4  1  0  0  0  0
 25 17  1  0  0  0  0
 25  9  1  0  0  0  0
 26 21  1  0  0  0  0
 26  1  2  0  0  0  0
 27  1  1  0  0  0  0
 27  9  1  0  0  0  0
 28 29  1  0  0  0  0
 28 17  1  0  0  0  0
 30 34  1  0  0  0  0
 31 32  1  0  0  0  0
 32 29  1  0  0  0  0
 33 30  1  0  0  0  0
 33 31  1  0  0  0  0
 34 32  1  0  0  0  0
M  END
>  <MODEL>
7

>  <REMARK>
 VINA RESULT:      -8.7      2.333      9.120
  Name = 
  3 active torsions:
  status: ('A' for Active; 'I' for Inactive)
    1  A    between atoms: C_17  and  O_28
    2  A    between atoms: O_28  and  C_29
    3  A    between atoms: C_29  and  C_32
                            x       y       z     vdW  Elec       q    Type
                         _______ _______ _______ _____ _____    ______ ____

>  <TORSDO>
F 3

$$$$
=
 OpenBabel11122412243D

 34 40  0  0  1  0  0  0  0  0999 V2000
  185.8330  178.7410  140.8410 C   0  0  0  0  0  0  0  0  0  0  0  0
  184.0710  178.2520  139.1420 C   0  0  0  0  0  2  0  0  0  0  0  0
  187.5700  177.9260  147.1560 C   0  0  0  0  0  0  0  0  0  0  0  0
  187.2230  178.2170  142.7390 C   0  0  0  0  0  0  0  0  0  0  0  0
  186.2220  178.5070  145.0640 C   0  0  2  0  0  3  0  0  0  0  0  0
  185.2480  178.5010  147.2580 O   0  0  0  0  0  1  0  0  0  0  0  0
  187.7220  178.6100  148.2030 O   0  0  0  0  0  0  0  0  0  0  0  0
  188.9680  176.9380  145.3340 C   0  0  0  0  0  2  0  0  0  0  0  0
  183.3430  179.3810  141.1720 C   0  0  2  0  0  3  0  0  0  0  0  0
  180.4100  178.4750  142.1220 C   0  0  0  0  0  2  0  0  0  0  0  0
  184.9770  178.1330  144.3940 N   0  0  0  0  0  2  0  0  0  0  0  0
  187.8290  176.7630  144.5410 O   0  0  0  0  0  0  0  0  0  0  0  0
  183.4830  178.6540  142.5290 C   0  0  1  0  0  3  0  0  0  0  0  0
  182.6090  178.5770  138.9660 C   0  0  0  0  0  2  0  0  0  0  0  0
  187.4400  178.0700  144.2220 C   0  0  1  0  0  3  0  0  0  0  0  0
  188.6310  177.1260  146.7100 O   0  0  0  0  0  0  0  0  0  0  0  0
  181.1840  177.9140  140.9380 C   0  0  2  0  0  3  0  0  0  0  0  0
  185.9700  178.5870  142.2270 C   0  0  0  0  0  0  0  0  0  0  0  0
  186.2280  177.8920  146.4690 C   0  0  2  0  0  3  0  0  0  0  0  0
  184.8460  178.9210  143.1690 C   0  0  2  0  0  3  0  0  0  0  0  0
  188.1060  178.1410  140.5480 C   0  0  0  0  0  3  0  0  0  0  0  0
  181.1740  178.2580  143.4160 C   0  0  0  0  0  2  0  0  0  0  0  0
  188.2590  177.9960  141.8880 N   0  0  0  0  0  0  0  0  0  0  0  0
  182.4020  179.1480  143.4830 C   0  0  0  0  0  2  0  0  0  0  0  0
  182.0950  179.0000  140.3370 C   0  0  1  0  0  3  0  0  0  0  0  0
  186.9060  178.5160  140.0360 N   0  0  0  0  0  0  0  0  0  0  0  0
  184.5380  179.1950  140.2250 C   0  0  1  0  0  3  0  0  0  0  0  0
  180.2660  177.4660  139.9840 O   0  0  0  0  0  0  0  0  0  0  0  0
  179.9580  176.1590  140.3700 C   0  0  0  0  0  2  0  0  0  0  0  0
  180.1610  174.0200  137.4470 C   0  0  0  0  0  2  0  0  0  0  0  0
  179.0660  174.0320  139.5790 N   0  0  0  0  0  2  0  0  0  0  0  0
  179.3210  175.4160  139.2110 C   0  0  2  0  0  3  0  0  0  0  0  0
  179.1960  173.2760  138.3450 C   0  0  0  0  0  2  0  0  0  0  0  0
  180.2620  175.4090  138.0280 C   0  0  0  0  0  2  0  0  0  0  0  0
  1 18  1  0  0  0  0
  2 27  1  0  0  0  0
  3  7  2  0  0  0  0
  4 15  1  0  0  0  0
  5 11  1  6  0  0  0
  5 19  1  0  0  0  0
  8 16  1  0  0  0  0
  9 13  1  0  0  0  0
 10 22  1  0  0  0  0
 12  8  1  0  0  0  0
 13 20  1  0  0  0  0
 13 24  1  0  0  0  0
 14  2  1  0  0  0  0
 14 25  1  0  0  0  0
 15 12  1  0  0  0  0
 15  5  1  0  0  0  0
 16  3  1  0  0  0  0
 17 10  1  0  0  0  0
 18  4  2  0  0  0  0
 18 20  1  0  0  0  0
 19  3  1  0  0  0  0
 19  6  1  0  0  0  0
 20 11  1  0  0  0  0
 21 23  2  0  0  0  0
 22 24  1  0  0  0  0
 23  4  1  0  0  0  0
 25 17  1  0  0  0  0
 25  9  1  0  0  0  0
 26 21  1  0  0  0  0
 26  1  2  0  0  0  0
 27  1  1  0  0  0  0
 27  9  1  0  0  0  0
 28 29  1  0  0  0  0
 28 17  1  0  0  0  0
 30 34  1  0  0  0  0
 30 33  1  0  0  0  0
 32 31  1  0  0  0  0
 32 29  1  0  0  0  0
 33 31  1  0  0  0  0
 34 32  1  0  0  0  0
M  END
>  <MODEL>
8

>  <REMARK>
 VINA RESULT:      -8.7      2.443      8.910
  Name = 
  3 active torsions:
  status: ('A' for Active; 'I' for Inactive)
    1  A    between atoms: C_17  and  O_28
    2  A    between atoms: O_28  and  C_29
    3  A    between atoms: C_29  and  C_32
                            x       y       z     vdW  Elec       q    Type
                         _______ _______ _______ _____ _____    ______ ____

>  <TORSDO>
F 3

$$$$
=
 OpenBabel11122412243D

 34 40  0  0  1  0  0  0  0  0999 V2000
  187.7620  178.0750  138.7160 C   0  0  0  0  0  0  0  0  0  0  0  0
  186.3820  178.2530  140.7870 C   0  0  0  0  0  2  0  0  0  0  0  0
  192.5180  174.6200  135.7160 C   0  0  0  0  0  0  0  0  0  0  0  0
  188.9030  176.8770  136.9640 C   0  0  0  0  0  0  0  0  0  0  0  0
  191.2280  175.9630  137.4660 C   0  0  2  0  0  3  0  0  0  0  0  0
  193.2940  174.8510  137.9680 O   0  0  0  0  0  1  0  0  0  0  0  0
  193.7160  174.7560  135.3540 O   0  0  0  0  0  0  0  0  0  0  0  0
  190.2270  174.7260  134.7200 C   0  0  0  0  0  2  0  0  0  0  0  0
  188.7970  178.2410  141.0860 C   0  0  2  0  0  3  0  0  0  0  0  0
  189.7190  176.7150  143.7590 C   0  0  0  0  0  2  0  0  0  0  0  0
  190.6970  175.8180  138.8220 N   0  0  0  0  0  2  0  0  0  0  0  0
  189.6650  174.8250  135.9970 O   0  0  0  0  0  0  0  0  0  0  0  0
  189.6010  176.9890  140.6680 C   0  0  1  0  0  3  0  0  0  0  0  0
  186.6460  178.4750  142.2560 C   0  0  0  0  0  2  0  0  0  0  0  0
  190.0750  176.0850  136.4460 C   0  0  1  0  0  3  0  0  0  0  0  0
  191.5650  174.2250  134.7670 O   0  0  0  0  0  0  0  0  0  0  0  0
  188.2930  176.8410  143.2430 C   0  0  2  0  0  3  0  0  0  0  0  0
  188.8610  177.3150  138.2960 C   0  0  0  0  0  0  0  0  0  0  0  0
  192.1500  174.7740  137.1700 C   0  0  2  0  0  3  0  0  0  0  0  0
  190.0340  177.0650  139.2030 C   0  0  2  0  0  3  0  0  0  0  0  0
  186.8160  177.9070  136.5500 C   0  0  0  0  0  3  0  0  0  0  0  0
  190.5970  176.0030  142.7450 C   0  0  0  0  0  2  0  0  0  0  0  0
  187.8780  177.1770  136.1240 N   0  0  0  0  0  0  0  0  0  0  0  0
  190.8520  176.8790  141.5310 C   0  0  0  0  0  2  0  0  0  0  0  0
  188.1220  178.1660  142.4780 C   0  0  1  0  0  3  0  0  0  0  0  0
  186.7670  178.3540  137.8300 N   0  0  0  0  0  0  0  0  0  0  0  0
  187.6760  178.6320  140.1110 C   0  0  1  0  0  3  0  0  0  0  0  0
  187.4240  176.7950  144.3370 O   0  0  0  0  0  0  0  0  0  0  0  0
  187.8350  177.8430  145.1650 C   0  0  0  0  0  2  0  0  0  0  0  0
  189.3340  177.8990  148.4680 C   0  0  0  0  0  2  0  0  0  0  0  0
  187.1800  178.2530  147.4770 N   0  0  0  0  0  2  0  0  0  0  0  0
  187.9240  177.3620  146.6010 C   0  0  2  0  0  3  0  0  0  0  0  0
  187.8800  178.2110  148.7500 C   0  0  0  0  0  2  0  0  0  0  0  0
  189.3650  177.3690  147.0560 C   0  0  0  0  0  2  0  0  0  0  0  0
  1 27  1  0  0  0  0
  2 14  1  0  0  0  0
  3 19  1  0  0  0  0
  4 18  2  0  0  0  0
  5 11  1  1  0  0  0
  7  3  2  0  0  0  0
  8 16  1  0  0  0  0
  8 12  1  0  0  0  0
  9 25  1  0  0  0  0
 11 20  1  0  0  0  0
 12 15  1  0  0  0  0
 13  9  1  0  0  0  0
 13 24  1  0  0  0  0
 14 25  1  0  0  0  0
 15  4  1  0  0  0  0
 15  5  1  0  0  0  0
 16  3  1  0  0  0  0
 17 10  1  0  0  0  0
 17 28  1  0  0  0  0
 18  1  1  0  0  0  0
 18 20  1  0  0  0  0
 19  5  1  0  0  0  0
 19  6  1  0  0  0  0
 20 13  1  0  0  0  0
 21 26  1  0  0  0  0
 22 10  1  0  0  0  0
 23 21  2  0  0  0  0
 23  4  1  0  0  0  0
 24 22  1  0  0  0  0
 25 17  1  0  0  0  0
 26  1  2  0  0  0  0
 27  2  1  0  0  0  0
 27  9  1  0  0  0  0
 28 29  1  0  0  0  0
 29 32  1  0  0  0  0
 30 33  1  0  0  0  0
 31 33  1  0  0  0  0
 32 34  1  0  0  0  0
 32 31  1  0  0  0  0
 34 30  1  0  0  0  0
M  END
>  <MODEL>
9

>  <REMARK>
 VINA RESULT:      -8.7      4.963      7.066
  Name = 
  3 active torsions:
  status: ('A' for Active; 'I' for Inactive)
    1  A    between atoms: C_17  and  O_28
    2  A    between atoms: O_28  and  C_29
    3  A    between atoms: C_29  and  C_32
                            x       y       z     vdW  Elec       q    Type
                         _______ _______ _______ _____ _____    ______ ____

>  <TORSDO>
F 3

$$$$
