=
 OpenBabel11122411533D

 28 31  0  0  1  0  0  0  0  0999 V2000
  180.9640  178.7870  137.8250 C   0  0  0  0  0  0  0  0  0  0  0  0
  184.4810  180.1620  139.1550 O   0  0  0  0  0  0  0  0  0  0  0  0
  179.6970  179.3030  140.2690 C   0  0  0  0  0  3  0  0  0  0  0  0
  181.5990  178.5180  136.6130 O   0  0  0  0  0  0  0  0  0  0  0  0
  184.7760  178.3160  140.7520 O   0  0  0  0  0  0  0  0  0  0  0  0
  184.8700  178.7190  139.3070 S   0  0  0  0  0  0  0  0  0  0  0  0
  186.4410  178.3790  137.2830 C   0  0  1  0  0  3  0  0  0  0  0  0
  183.8260  177.6980  138.2990 C   0  0  1  0  0  3  0  0  0  0  0  0
  178.9900  176.9250  136.0830 O   0  0  0  0  0  1  0  0  0  0  0  0
  182.2990  175.8140  138.3840 C   0  0  2  0  0  3  0  0  0  0  0  0
  185.8640  176.7260  136.7010 S   0  0  0  0  0  0  0  0  0  0  0  0
  186.4920  178.4740  138.7400 N   0  0  0  0  0  2  0  0  0  0  0  0
  180.2330  176.8760  135.4480 C   0  0  2  0  0  3  0  0  0  0  0  0
  181.4440  178.1880  139.0070 C   0  0  0  0  0  0  0  0  0  0  0  0
  187.8110  178.6640  136.7070 C   0  0  0  0  0  1  0  0  0  0  0  0
  181.1450  175.8040  136.0600 C   0  0  0  0  0  2  0  0  0  0  0  0
  180.8020  178.4500  140.2220 C   0  0  0  0  0  3  0  0  0  0  0  0
  179.8470  179.6330  137.8770 C   0  0  0  0  0  3  0  0  0  0  0  0
  179.2180  179.8930  139.0960 C   0  0  0  0  0  3  0  0  0  0  0  0
  180.8810  178.2600  135.4140 C   0  0  0  0  0  2  0  0  0  0  0  0
  183.5550  175.4160  137.6030 C   0  0  1  0  0  3  0  0  0  0  0  0
  180.9860  175.6690  137.5830 C   0  0  1  0  0  3  0  0  0  0  0  0
  184.5970  176.4460  137.9900 C   0  0  2  0  0  3  0  0  0  0  0  0
  182.5820  177.1990  139.0000 C   0  0  2  0  0  3  0  0  0  0  0  0
  179.8460  174.6080  139.1560 C   0  0  0  0  0  1  0  0  0  0  0  0
  180.3890  174.4430  137.8800 O   0  0  0  0  0  0  0  0  0  0  0  0
  183.9770  174.1440  137.9930 O   0  0  0  0  0  0  0  0  0  0  0  0
  183.8820  173.3660  136.8380 C   0  0  0  0  0  1  0  0  0  0  0  0
  1 18  2  0  0  0  0
  1 14  1  0  0  0  0
  2  6  2  0  0  0  0
  4  1  1  0  0  0  0
  6  5  2  0  0  0  0
  7 15  1  6  0  0  0
  7 12  1  0  0  0  0
  8 24  1  0  0  0  0
  8  6  1  1  0  0  0
 10 24  1  0  0  0  0
 11  7  1  0  0  0  0
 11 23  1  0  0  0  0
 12  6  1  0  0  0  0
 13 16  1  0  0  0  0
 13  9  1  0  0  0  0
 14 17  2  0  0  0  0
 16 22  1  0  0  0  0
 17  3  1  0  0  0  0
 18 19  1  0  0  0  0
 19  3  2  0  0  0  0
 20 13  1  0  0  0  0
 20  4  1  0  0  0  0
 21 23  1  0  0  0  0
 21 27  1  0  0  0  0
 21 10  1  0  0  0  0
 22 26  1  0  0  0  0
 22 10  1  0  0  0  0
 23  8  1  0  0  0  0
 24 14  1  0  0  0  0
 26 25  1  0  0  0  0
 28 27  1  0  0  0  0
M  END
>  <MODEL>
1

>  <REMARK>
 VINA RESULT:      -4.7      0.000      0.000
  Name = 
  2 active torsions:
  status: ('A' for Active; 'I' for Inactive)
    1  A    between atoms: O_5  and  C_24
    2  A    between atoms: O_17  and  C_25
                            x       y       z     vdW  Elec       q    Type
                         _______ _______ _______ _____ _____    ______ ____

>  <TORSDO>
F 2

$$$$
=
 OpenBabel11122411533D

 28 31  0  0  1  0  0  0  0  0999 V2000
  182.9400  175.9270  138.7970 C   0  0  0  0  0  0  0  0  0  0  0  0
  185.4400  177.5490  141.4700 O   0  0  0  0  0  0  0  0  0  0  0  0
  184.7520  176.2920  136.6940 C   0  0  0  0  0  3  0  0  0  0  0  0
  182.0320  175.7560  139.8420 O   0  0  0  0  0  0  0  0  0  0  0  0
  185.2730  179.7990  140.4920 O   0  0  0  0  0  0  0  0  0  0  0  0
  184.5890  178.7820  141.3620 S   0  0  0  0  0  0  0  0  0  0  0  0
  183.2410  178.6870  143.5660 C   0  0  1  0  0  3  0  0  0  0  0  0
  182.9930  178.3650  140.7070 C   0  0  1  0  0  3  0  0  0  0  0  0
  180.0830  175.1830  137.4980 O   0  0  0  0  0  1  0  0  0  0  0  0
  181.4470  178.8750  138.9080 C   0  0  2  0  0  3  0  0  0  0  0  0
  181.5700  179.1600  142.9420 S   0  0  0  0  0  0  0  0  0  0  0  0
  184.3120  179.4560  142.9370 N   0  0  0  0  0  2  0  0  0  0  0  0
  179.8330  175.4980  138.8350 C   0  0  2  0  0  3  0  0  0  0  0  0
  183.4060  177.2190  138.4870 C   0  0  0  0  0  0  0  0  0  0  0  0
  183.2900  178.8800  145.0660 C   0  0  0  0  0  1  0  0  0  0  0  0
  179.6510  177.0080  139.0420 C   0  0  0  0  0  2  0  0  0  0  0  0
  184.3090  177.3910  137.4320 C   0  0  0  0  0  3  0  0  0  0  0  0
  183.3790  174.8290  138.0440 C   0  0  0  0  0  3  0  0  0  0  0  0
  184.2850  175.0110  136.9980 C   0  0  0  0  0  3  0  0  0  0  0  0
  180.9050  174.8970  139.7450 C   0  0  0  0  0  2  0  0  0  0  0  0
  180.8520  179.3460  140.2390 C   0  0  1  0  0  3  0  0  0  0  0  0
  180.5670  177.8580  138.1480 C   0  0  1  0  0  3  0  0  0  0  0  0
  182.0290  179.4120  141.1910 C   0  0  2  0  0  3  0  0  0  0  0  0
  182.8990  178.4470  139.2010 C   0  0  2  0  0  3  0  0  0  0  0  0
  180.6990  178.8940  136.1970 C   0  0  0  0  0  1  0  0  0  0  0  0
  179.7950  178.5250  137.1960 O   0  0  0  0  0  0  0  0  0  0  0  0
  180.2900  180.6140  140.0880 O   0  0  0  0  0  0  0  0  0  0  0  0
  178.9310  180.4360  140.3480 C   0  0  0  0  0  1  0  0  0  0  0  0
  1  4  1  0  0  0  0
  3 19  2  0  0  0  0
  3 17  1  0  0  0  0
  5  6  2  0  0  0  0
  6  2  2  0  0  0  0
  6 12  1  0  0  0  0
  7 15  1  1  0  0  0
  8 23  1  0  0  0  0
  8  6  1  6  0  0  0
  9 13  1  0  0  0  0
 10 24  1  0  0  0  0
 10 21  1  0  0  0  0
 11  7  1  0  0  0  0
 12  7  1  0  0  0  0
 13 16  1  0  0  0  0
 13 20  1  0  0  0  0
 14  1  1  0  0  0  0
 14 24  1  0  0  0  0
 17 14  2  0  0  0  0
 18  1  2  0  0  0  0
 19 18  1  0  0  0  0
 20  4  1  0  0  0  0
 21 23  1  0  0  0  0
 22 10  1  0  0  0  0
 22 16  1  0  0  0  0
 23 11  1  0  0  0  0
 24  8  1  0  0  0  0
 25 26  1  0  0  0  0
 26 22  1  0  0  0  0
 27 21  1  0  0  0  0
 27 28  1  0  0  0  0
M  END
>  <MODEL>
2

>  <REMARK>
 VINA RESULT:      -4.5      2.400      5.262
  Name = 
  2 active torsions:
  status: ('A' for Active; 'I' for Inactive)
    1  A    between atoms: O_5  and  C_24
    2  A    between atoms: O_17  and  C_25
                            x       y       z     vdW  Elec       q    Type
                         _______ _______ _______ _____ _____    ______ ____

>  <TORSDO>
F 2

$$$$
=
 OpenBabel11122411533D

 28 31  0  0  1  0  0  0  0  0999 V2000
  183.1830  175.7770  138.1210 C   0  0  0  0  0  0  0  0  0  0  0  0
  184.5830  177.4960  141.4540 O   0  0  0  0  0  0  0  0  0  0  0  0
  185.6310  176.0680  136.7920 C   0  0  0  0  0  3  0  0  0  0  0  0
  181.9600  175.6430  138.7780 O   0  0  0  0  0  0  0  0  0  0  0  0
  184.8040  179.7090  140.4050 O   0  0  0  0  0  0  0  0  0  0  0  0
  183.8420  178.7240  141.0070 S   0  0  0  0  0  0  0  0  0  0  0  0
  181.7950  178.7070  142.5860 C   0  0  1  0  0  3  0  0  0  0  0  0
  182.5800  178.2820  139.8400 C   0  0  1  0  0  3  0  0  0  0  0  0
  180.9700  174.9840  135.9130 O   0  0  0  0  0  1  0  0  0  0  0  0
  181.7850  178.7260  137.5910 C   0  0  2  0  0  3  0  0  0  0  0  0
  180.4630  179.1560  141.3910 S   0  0  0  0  0  0  0  0  0  0  0  0
  183.0290  179.4540  142.3560 N   0  0  0  0  0  2  0  0  0  0  0  0
  180.2620  175.3470  137.0610 C   0  0  2  0  0  3  0  0  0  0  0  0
  183.7450  177.0570  137.9540 C   0  0  0  0  0  0  0  0  0  0  0  0
  181.3080  178.9530  143.9970 C   0  0  0  0  0  1  0  0  0  0  0  0
  180.0360  176.8630  137.1380 C   0  0  0  0  0  2  0  0  0  0  0  0
  184.9670  177.1930  137.2860 C   0  0  0  0  0  3  0  0  0  0  0  0
  183.8490  174.6530  137.6120 C   0  0  0  0  0  3  0  0  0  0  0  0
  185.0710  174.7980  136.9530 C   0  0  0  0  0  3  0  0  0  0  0  0
  180.9310  174.7800  138.3130 C   0  0  0  0  0  2  0  0  0  0  0  0
  180.7600  179.2440  138.6050 C   0  0  1  0  0  3  0  0  0  0  0  0
  181.2220  177.6810  136.6020 C   0  0  1  0  0  3  0  0  0  0  0  0
  181.5200  179.3450  139.9120 C   0  0  2  0  0  3  0  0  0  0  0  0
  183.0320  178.3100  138.3970 C   0  0  2  0  0  3  0  0  0  0  0  0
  181.9750  178.2260  134.5940 C   0  0  0  0  0  1  0  0  0  0  0  0
  180.8490  178.3140  135.4140 O   0  0  0  0  0  0  0  0  0  0  0  0
  180.3040  180.5060  138.2200 O   0  0  0  0  0  0  0  0  0  0  0  0
  181.4130  181.3420  138.3550 C   0  0  0  0  0  1  0  0  0  0  0  0
  1  4  1  0  0  0  0
  3 19  2  0  0  0  0
  3 17  1  0  0  0  0
  5  6  2  0  0  0  0
  6  2  2  0  0  0  0
  6 12  1  0  0  0  0
  7 15  1  1  0  0  0
  8 23  1  0  0  0  0
  8  6  1  1  0  0  0
  9 13  1  0  0  0  0
 10 24  1  0  0  0  0
 10 21  1  0  0  0  0
 11  7  1  0  0  0  0
 12  7  1  0  0  0  0
 13 16  1  0  0  0  0
 13 20  1  0  0  0  0
 14  1  1  0  0  0  0
 14 24  1  0  0  0  0
 17 14  2  0  0  0  0
 18  1  2  0  0  0  0
 19 18  1  0  0  0  0
 20  4  1  0  0  0  0
 21 23  1  0  0  0  0
 22 16  1  0  0  0  0
 22 10  1  0  0  0  0
 23 11  1  0  0  0  0
 24  8  1  0  0  0  0
 25 26  1  0  0  0  0
 26 22  1  0  0  0  0
 27 28  1  0  0  0  0
 27 21  1  0  0  0  0
M  END
>  <MODEL>
3

>  <REMARK>
 VINA RESULT:      -4.2      2.126      5.212
  Name = 
  2 active torsions:
  status: ('A' for Active; 'I' for Inactive)
    1  A    between atoms: O_5  and  C_24
    2  A    between atoms: O_17  and  C_25
                            x       y       z     vdW  Elec       q    Type
                         _______ _______ _______ _____ _____    ______ ____

>  <TORSDO>
F 2

$$$$
=
 OpenBabel11122411533D

 28 31  0  0  1  0  0  0  0  0999 V2000
  180.5360  179.5340  139.4050 C   0  0  0  0  0  0  0  0  0  0  0  0
  179.2870  177.7760  136.0320 O   0  0  0  0  0  0  0  0  0  0  0  0
  180.3210  182.0970  138.2970 C   0  0  0  0  0  3  0  0  0  0  0  0
  180.6560  178.2570  139.9530 O   0  0  0  0  0  0  0  0  0  0  0  0
  181.3030  178.4070  134.7730 O   0  0  0  0  0  0  0  0  0  0  0  0
  180.7340  177.4540  135.7870 S   0  0  0  0  0  0  0  0  0  0  0  0
  180.8200  174.9370  136.3660 C   0  0  1  0  0  3  0  0  0  0  0  0
  181.6420  177.5390  137.3090 C   0  0  1  0  0  3  0  0  0  0  0  0
  182.2040  179.8030  142.1520 O   0  0  0  0  0  1  0  0  0  0  0  0
  183.5390  178.6140  138.3730 C   0  0  2  0  0  3  0  0  0  0  0  0
  182.4000  174.8780  137.3160 S   0  0  0  0  0  0  0  0  0  0  0  0
  180.8940  175.8260  135.2090 N   0  0  0  0  0  2  0  0  0  0  0  0
  182.1660  178.4390  141.8510 C   0  0  2  0  0  3  0  0  0  0  0  0
  181.2630  179.8620  138.2440 C   0  0  0  0  0  0  0  0  0  0  0  0
  180.4560  173.5400  135.9100 C   0  0  0  0  0  1  0  0  0  0  0  0
  183.2920  178.0350  140.8900 C   0  0  0  0  0  2  0  0  0  0  0  0
  181.1500  181.1460  137.7000 C   0  0  0  0  0  3  0  0  0  0  0  0
  179.7140  180.4970  140.0070 C   0  0  0  0  0  3  0  0  0  0  0  0
  179.6040  181.7740  139.4520 C   0  0  0  0  0  3  0  0  0  0  0  0
  180.7800  178.0310  141.3500 C   0  0  0  0  0  2  0  0  0  0  0  0
  183.8310  177.1200  138.2040 C   0  0  1  0  0  3  0  0  0  0  0  0
  183.6040  179.1080  139.8350 C   0  0  1  0  0  3  0  0  0  0  0  0
  182.8410  176.6460  137.1580 C   0  0  2  0  0  3  0  0  0  0  0  0
  182.2320  178.8990  137.6060 C   0  0  2  0  0  3  0  0  0  0  0  0
  185.4470  178.7930  141.0200 C   0  0  0  0  0  1  0  0  0  0  0  0
  184.8630  179.6560  140.0890 O   0  0  0  0  0  0  0  0  0  0  0  0
  185.1350  176.9370  137.7420 O   0  0  0  0  0  0  0  0  0  0  0  0
  185.0790  177.2450  136.3820 C   0  0  0  0  0  1  0  0  0  0  0  0
  1  4  1  0  0  0  0
  1 18  1  0  0  0  0
  3 19  1  0  0  0  0
  4 20  1  0  0  0  0
  5  6  2  0  0  0  0
  6  2  2  0  0  0  0
  7 15  1  6  0  0  0
  7 11  1  0  0  0  0
  8  6  1  6  0  0  0
  8 24  1  0  0  0  0
 10 22  1  0  0  0  0
 12  6  1  0  0  0  0
 12  7  1  0  0  0  0
 13  9  1  0  0  0  0
 14  1  2  0  0  0  0
 16 13  1  0  0  0  0
 17 14  1  0  0  0  0
 17  3  2  0  0  0  0
 19 18  2  0  0  0  0
 20 13  1  0  0  0  0
 21 10  1  0  0  0  0
 22 26  1  0  0  0  0
 22 16  1  0  0  0  0
 23  8  1  0  0  0  0
 23 11  1  0  0  0  0
 23 21  1  0  0  0  0
 24 14  1  0  0  0  0
 24 10  1  0  0  0  0
 26 25  1  0  0  0  0
 27 21  1  0  0  0  0
 28 27  1  0  0  0  0
M  END
>  <MODEL>
4

>  <REMARK>
 VINA RESULT:      -4.2      2.635      5.068
  Name = 
  2 active torsions:
  status: ('A' for Active; 'I' for Inactive)
    1  A    between atoms: O_5  and  C_24
    2  A    between atoms: O_17  and  C_25
                            x       y       z     vdW  Elec       q    Type
                         _______ _______ _______ _____ _____    ______ ____

>  <TORSDO>
F 2

$$$$
=
 OpenBabel11122411533D

 28 31  0  0  1  0  0  0  0  0999 V2000
  183.0200  177.8770  137.8470 C   0  0  0  0  0  0  0  0  0  0  0  0
  181.3900  179.7860  134.7280 O   0  0  0  0  0  0  0  0  0  0  0  0
  182.1600  175.3760  136.9260 C   0  0  0  0  0  3  0  0  0  0  0  0
  183.4370  179.1240  138.3120 O   0  0  0  0  0  0  0  0  0  0  0  0
  179.0860  179.2890  135.4290 O   0  0  0  0  0  0  0  0  0  0  0  0
  180.2840  180.1650  135.6710 S   0  0  0  0  0  0  0  0  0  0  0  0
  180.8260  182.6460  136.1480 C   0  0  1  0  0  3  0  0  0  0  0  0
  180.8400  180.0210  137.3500 C   0  0  1  0  0  3  0  0  0  0  0  0
  183.9980  177.5030  140.8980 O   0  0  0  0  0  1  0  0  0  0  0  0
  180.3430  178.9450  139.4670 C   0  0  2  0  0  3  0  0  0  0  0  0
  180.5210  182.6990  137.9670 S   0  0  0  0  0  0  0  0  0  0  0  0
  179.8460  181.8280  135.4390 N   0  0  0  0  0  2  0  0  0  0  0  0
  183.8800  178.8790  140.6920 C   0  0  2  0  0  3  0  0  0  0  0  0
  181.6480  177.6380  137.6380 C   0  0  0  0  0  0  0  0  0  0  0  0
  180.8060  184.0550  135.5950 C   0  0  0  0  0  1  0  0  0  0  0  0
  182.4460  179.3720  140.9260 C   0  0  0  0  0  2  0  0  0  0  0  0
  181.2280  176.3850  137.1810 C   0  0  0  0  0  3  0  0  0  0  0  0
  183.9490  176.8560  137.6020 C   0  0  0  0  0  3  0  0  0  0  0  0
  183.5200  175.6110  137.1390 C   0  0  0  0  0  3  0  0  0  0  0  0
  184.4280  179.2730  139.3200 C   0  0  0  0  0  2  0  0  0  0  0  0
  180.1200  180.4550  139.5990 C   0  0  1  0  0  3  0  0  0  0  0  0
  181.3770  178.3710  140.4620 C   0  0  1  0  0  3  0  0  0  0  0  0
  180.0030  180.9580  138.1750 C   0  0  2  0  0  3  0  0  0  0  0  0
  180.5950  178.6650  137.9720 C   0  0  2  0  0  3  0  0  0  0  0  0
  179.6900  177.0620  141.0460 C   0  0  0  0  0  1  0  0  0  0  0  0
  180.7160  177.8480  141.5750 O   0  0  0  0  0  0  0  0  0  0  0  0
  178.9330  180.7030  140.2910 O   0  0  0  0  0  0  0  0  0  0  0  0
  179.3400  181.1540  141.5480 C   0  0  0  0  0  1  0  0  0  0  0  0
  1  4  1  0  0  0  0
  2  6  2  0  0  0  0
  3 19  2  0  0  0  0
  3 17  1  0  0  0  0
  4 20  1  0  0  0  0
  5  6  2  0  0  0  0
  7 15  1  6  0  0  0
  7 11  1  0  0  0  0
  8  6  1  6  0  0  0
  8 24  1  0  0  0  0
  8 23  1  0  0  0  0
 10 21  1  0  0  0  0
 10 22  1  0  0  0  0
 11 23  1  0  0  0  0
 12  6  1  0  0  0  0
 12  7  1  0  0  0  0
 13  9  1  0  0  0  0
 13 16  1  0  0  0  0
 14  1  1  0  0  0  0
 14 24  1  0  0  0  0
 17 14  2  0  0  0  0
 18  1  2  0  0  0  0
 19 18  1  0  0  0  0
 20 13  1  0  0  0  0
 21 27  1  0  0  0  0
 22 16  1  0  0  0  0
 22 26  1  0  0  0  0
 23 21  1  0  0  0  0
 24 10  1  0  0  0  0
 25 26  1  0  0  0  0
 27 28  1  0  0  0  0
M  END
>  <MODEL>
5

>  <REMARK>
 VINA RESULT:      -4.1      3.127      6.046
  Name = 
  2 active torsions:
  status: ('A' for Active; 'I' for Inactive)
    1  A    between atoms: O_5  and  C_24
    2  A    between atoms: O_17  and  C_25
                            x       y       z     vdW  Elec       q    Type
                         _______ _______ _______ _____ _____    ______ ____

>  <TORSDO>
F 2

$$$$
=
 OpenBabel11122411533D

 28 31  0  0  1  0  0  0  0  0999 V2000
  189.6630  177.7320  138.6510 C   0  0  0  0  0  0  0  0  0  0  0  0
  193.6600  177.5070  138.6670 O   0  0  0  0  0  0  0  0  0  0  0  0
  189.4870  177.0180  141.3540 C   0  0  0  0  0  3  0  0  0  0  0  0
  189.7500  178.0750  137.3020 O   0  0  0  0  0  0  0  0  0  0  0  0
  193.6770  175.0680  138.9780 O   0  0  0  0  0  0  0  0  0  0  0  0
  193.4840  176.1800  137.9850 S   0  0  0  0  0  0  0  0  0  0  0  0
  194.1180  176.7520  135.5460 C   0  0  1  0  0  3  0  0  0  0  0  0
  191.8770  176.0870  137.2400 C   0  0  1  0  0  3  0  0  0  0  0  0
  186.6980  177.5220  137.3980 O   0  0  0  0  0  1  0  0  0  0  0  0
  189.8390  174.7700  137.1920 C   0  0  2  0  0  3  0  0  0  0  0  0
  192.7990  175.8280  134.6450 S   0  0  0  0  0  0  0  0  0  0  0  0
  194.6340  176.0140  136.6960 N   0  0  0  0  0  2  0  0  0  0  0  0
  187.5740  177.6180  136.3140 C   0  0  2  0  0  3  0  0  0  0  0  0
  190.2010  176.5070  139.0920 C   0  0  0  0  0  0  0  0  0  0  0  0
  195.2520  177.0660  134.5940 C   0  0  0  0  0  1  0  0  0  0  0  0
  188.1360  176.2480  135.9100 C   0  0  0  0  0  2  0  0  0  0  0  0
  190.1050  176.1580  140.4430 C   0  0  0  0  0  3  0  0  0  0  0  0
  189.0330  178.5850  139.5680 C   0  0  0  0  0  3  0  0  0  0  0  0
  188.9480  178.2310  140.9160 C   0  0  0  0  0  3  0  0  0  0  0  0
  188.6660  178.6530  136.5880 C   0  0  0  0  0  2  0  0  0  0  0  0
  190.5470  174.6610  135.8380 C   0  0  1  0  0  3  0  0  0  0  0  0
  188.3990  175.3230  137.1080 C   0  0  1  0  0  3  0  0  0  0  0  0
  191.9710  175.1060  136.1060 C   0  0  2  0  0  3  0  0  0  0  0  0
  190.8070  175.5080  138.1380 C   0  0  2  0  0  3  0  0  0  0  0  0
  187.0540  174.1960  135.7590 C   0  0  0  0  0  1  0  0  0  0  0  0
  187.4910  174.2630  137.0840 O   0  0  0  0  0  0  0  0  0  0  0  0
  190.5370  173.3360  135.4000 O   0  0  0  0  0  0  0  0  0  0  0  0
  191.7540  172.8070  135.8320 C   0  0  0  0  0  1  0  0  0  0  0  0
  1 14  2  0  0  0  0
  1 18  1  0  0  0  0
  4  1  1  0  0  0  0
  6  2  2  0  0  0  0
  6  5  2  0  0  0  0
  7 15  1  6  0  0  0
  7 12  1  0  0  0  0
  8  6  1  1  0  0  0
  8 24  1  0  0  0  0
 10 24  1  0  0  0  0
 11  7  1  0  0  0  0
 11 23  1  0  0  0  0
 12  6  1  0  0  0  0
 13 20  1  0  0  0  0
 13  9  1  0  0  0  0
 14 17  1  0  0  0  0
 16 13  1  0  0  0  0
 16 22  1  0  0  0  0
 17  3  2  0  0  0  0
 18 19  2  0  0  0  0
 19  3  1  0  0  0  0
 20  4  1  0  0  0  0
 21 23  1  0  0  0  0
 21 10  1  0  0  0  0
 22 10  1  0  0  0  0
 23  8  1  0  0  0  0
 24 14  1  0  0  0  0
 25 26  1  0  0  0  0
 26 22  1  0  0  0  0
 27 28  1  0  0  0  0
 27 21  1  0  0  0  0
M  END
>  <MODEL>
6

>  <REMARK>
 VINA RESULT:      -4.0      6.408      8.354
  Name = 
  2 active torsions:
  status: ('A' for Active; 'I' for Inactive)
    1  A    between atoms: O_5  and  C_24
    2  A    between atoms: O_17  and  C_25
                            x       y       z     vdW  Elec       q    Type
                         _______ _______ _______ _____ _____    ______ ____

>  <TORSDO>
F 2

$$$$
=
 OpenBabel11122411533D

 28 31  0  0  1  0  0  0  0  0999 V2000
  182.1780  175.2040  137.5380 C   0  0  0  0  0  0  0  0  0  0  0  0
  186.0930  176.0380  137.5940 O   0  0  0  0  0  0  0  0  0  0  0  0
  182.2400  174.4960  134.8290 C   0  0  0  0  0  3  0  0  0  0  0  0
  182.1450  175.5680  138.8840 O   0  0  0  0  0  0  0  0  0  0  0  0
  185.8560  177.9950  136.1250 O   0  0  0  0  0  0  0  0  0  0  0  0
  185.6810  177.4810  137.5260 S   0  0  0  0  0  0  0  0  0  0  0  0
  186.0860  178.2580  139.9580 C   0  0  1  0  0  3  0  0  0  0  0  0
  183.9970  177.6570  138.0570 C   0  0  1  0  0  3  0  0  0  0  0  0
  179.0830  175.5050  138.3920 O   0  0  0  0  0  1  0  0  0  0  0  0
  181.8260  178.4860  137.3600 C   0  0  2  0  0  3  0  0  0  0  0  0
  184.5690  179.2740  140.2280 S   0  0  0  0  0  0  0  0  0  0  0  0
  186.6420  178.4280  138.6180 N   0  0  0  0  0  2  0  0  0  0  0  0
  179.8290  176.0830  139.4210 C   0  0  2  0  0  3  0  0  0  0  0  0
  182.6150  176.1360  136.5770 C   0  0  0  0  0  0  0  0  0  0  0  0
  187.1280  178.6280  140.9910 C   0  0  0  0  0  1  0  0  0  0  0  0
  180.1710  177.5490  139.1240 C   0  0  0  0  0  2  0  0  0  0  0  0
  182.6390  175.7740  135.2260 C   0  0  0  0  0  3  0  0  0  0  0  0
  181.7670  173.9260  137.1320 C   0  0  0  0  0  3  0  0  0  0  0  0
  181.8020  173.5720  135.7820 C   0  0  0  0  0  3  0  0  0  0  0  0
  181.0610  175.2370  139.7410 C   0  0  0  0  0  2  0  0  0  0  0  0
  182.3510  179.3440  138.5150 C   0  0  1  0  0  3  0  0  0  0  0  0
  180.4620  177.8160  137.6390 C   0  0  1  0  0  3  0  0  0  0  0  0
  183.8390  179.0630  138.5650 C   0  0  2  0  0  3  0  0  0  0  0  0
  182.9800  177.5530  136.9430 C   0  0  2  0  0  3  0  0  0  0  0  0
  179.3290  178.1730  135.7720 C   0  0  0  0  0  1  0  0  0  0  0  0
  179.4380  178.5950  137.0990 O   0  0  0  0  0  0  0  0  0  0  0  0
  182.1310  180.6950  138.2440 O   0  0  0  0  0  0  0  0  0  0  0  0
  181.0870  181.0650  139.0930 C   0  0  0  0  0  1  0  0  0  0  0  0
  1  4  1  0  0  0  0
  3 17  2  0  0  0  0
  3 19  1  0  0  0  0
  4 20  1  0  0  0  0
  5  6  2  0  0  0  0
  6  2  2  0  0  0  0
  6 12  1  0  0  0  0
  7 11  1  0  0  0  0
  7 15  1  1  0  0  0
  8  6  1  6  0  0  0
  8 23  1  0  0  0  0
  9 13  1  0  0  0  0
 10 22  1  0  0  0  0
 10 21  1  0  0  0  0
 12  7  1  0  0  0  0
 13 20  1  0  0  0  0
 14 24  1  0  0  0  0
 14  1  2  0  0  0  0
 16 13  1  0  0  0  0
 17 14  1  0  0  0  0
 18  1  1  0  0  0  0
 19 18  2  0  0  0  0
 21 23  1  0  0  0  0
 22 16  1  0  0  0  0
 23 11  1  0  0  0  0
 24 10  1  0  0  0  0
 24  8  1  0  0  0  0
 25 26  1  0  0  0  0
 26 22  1  0  0  0  0
 27 21  1  0  0  0  0
 27 28  1  0  0  0  0
M  END
>  <MODEL>
7

>  <REMARK>
 VINA RESULT:      -3.8      1.988      4.615
  Name = 
  2 active torsions:
  status: ('A' for Active; 'I' for Inactive)
    1  A    between atoms: O_5  and  C_24
    2  A    between atoms: O_17  and  C_25
                            x       y       z     vdW  Elec       q    Type
                         _______ _______ _______ _____ _____    ______ ____

>  <TORSDO>
F 2

$$$$
=
 OpenBabel11122411533D

 28 31  0  0  1  0  0  0  0  0999 V2000
  184.0160  175.7270  136.0690 C   0  0  0  0  0  0  0  0  0  0  0  0
  180.3860  176.4150  137.6120 O   0  0  0  0  0  0  0  0  0  0  0  0
  184.0720  173.1030  137.0470 C   0  0  0  0  0  3  0  0  0  0  0  0
  183.9930  177.0370  135.5930 O   0  0  0  0  0  0  0  0  0  0  0  0
  181.1850  176.3160  139.9360 O   0  0  0  0  0  0  0  0  0  0  0  0
  181.1040  177.1640  138.6980 S   0  0  0  0  0  0  0  0  0  0  0  0
  180.6380  179.6200  138.0400 C   0  0  1  0  0  3  0  0  0  0  0  0
  182.7260  177.6290  138.1470 C   0  0  1  0  0  3  0  0  0  0  0  0
  187.0030  176.4660  135.1050 O   0  0  0  0  0  1  0  0  0  0  0  0
  185.0830  177.4360  138.6900 C   0  0  2  0  0  3  0  0  0  0  0  0
  182.3030  180.3560  138.3390 S   0  0  0  0  0  0  0  0  0  0  0  0
  180.2670  178.6410  139.0590 N   0  0  0  0  0  2  0  0  0  0  0  0
  186.3010  177.6730  135.1580 C   0  0  2  0  0  3  0  0  0  0  0  0
  183.8880  175.4880  137.4510 C   0  0  0  0  0  0  0  0  0  0  0  0
  179.6030  180.7230  137.9940 C   0  0  0  0  0  1  0  0  0  0  0  0
  186.3130  178.2800  136.5680 C   0  0  0  0  0  2  0  0  0  0  0  0
  183.9200  174.1740  137.9300 C   0  0  0  0  0  3  0  0  0  0  0  0
  184.1800  174.6480  135.1890 C   0  0  0  0  0  3  0  0  0  0  0  0
  184.2040  173.3390  135.6770 C   0  0  0  0  0  3  0  0  0  0  0  0
  184.8900  177.5050  134.5950 C   0  0  0  0  0  2  0  0  0  0  0  0
  184.6430  178.8960  138.8420 C   0  0  1  0  0  3  0  0  0  0  0  0
  186.2350  177.2260  137.6830 C   0  0  1  0  0  3  0  0  0  0  0  0
  183.1320  178.8400  138.9380 C   0  0  2  0  0  3  0  0  0  0  0  0
  183.8020  176.6120  138.4540 C   0  0  2  0  0  3  0  0  0  0  0  0
  188.1060  178.3630  138.0070 C   0  0  0  0  0  1  0  0  0  0  0  0
  187.4520  177.1830  138.3660 O   0  0  0  0  0  0  0  0  0  0  0  0
  185.1750  179.4350  140.0150 O   0  0  0  0  0  0  0  0  0  0  0  0
  184.4860  178.7960  141.0460 C   0  0  0  0  0  1  0  0  0  0  0  0
  1 14  1  0  0  0  0
  2  6  2  0  0  0  0
  3 17  1  0  0  0  0
  4  1  1  0  0  0  0
  6 12  1  0  0  0  0
  6  5  2  0  0  0  0
  7 15  1  1  0  0  0
  7 11  1  0  0  0  0
  7 12  1  0  0  0  0
  8 24  1  0  0  0  0
  8  6  1  1  0  0  0
  8 23  1  0  0  0  0
  9 13  1  0  0  0  0
 10 21  1  0  0  0  0
 11 23  1  0  0  0  0
 13 16  1  0  0  0  0
 14 17  2  0  0  0  0
 14 24  1  0  0  0  0
 16 22  1  0  0  0  0
 18 19  1  0  0  0  0
 18  1  2  0  0  0  0
 19  3  2  0  0  0  0
 20 13  1  0  0  0  0
 20  4  1  0  0  0  0
 21 23  1  0  0  0  0
 21 27  1  0  0  0  0
 22 26  1  0  0  0  0
 22 10  1  0  0  0  0
 24 10  1  0  0  0  0
 25 26  1  0  0  0  0
 27 28  1  0  0  0  0
M  END
>  <MODEL>
8

>  <REMARK>
 VINA RESULT:      -3.7      2.623      5.872
  Name = 
  2 active torsions:
  status: ('A' for Active; 'I' for Inactive)
    1  A    between atoms: O_5  and  C_24
    2  A    between atoms: O_17  and  C_25
                            x       y       z     vdW  Elec       q    Type
                         _______ _______ _______ _____ _____    ______ ____

>  <TORSDO>
F 2

$$$$
=
 OpenBabel11122411533D

 28 31  0  0  1  0  0  0  0  0999 V2000
  181.4360  175.0220  138.3460 C   0  0  0  0  0  0  0  0  0  0  0  0
  183.3950  171.7210  137.2080 O   0  0  0  0  0  0  0  0  0  0  0  0
  179.0440  174.1580  137.1750 C   0  0  0  0  0  3  0  0  0  0  0  0
  182.6310  175.4580  138.9190 O   0  0  0  0  0  0  0  0  0  0  0  0
  183.2820  172.2900  134.8190 O   0  0  0  0  0  0  0  0  0  0  0  0
  183.9830  172.5720  136.1180 S   0  0  0  0  0  0  0  0  0  0  0  0
  186.3790  172.9740  136.9990 C   0  0  1  0  0  3  0  0  0  0  0  0
  183.8490  174.2880  136.5470 C   0  0  1  0  0  3  0  0  0  0  0  0
  181.0860  178.1440  139.0760 O   0  0  0  0  0  1  0  0  0  0  0  0
  182.9730  176.4140  135.7710 C   0  0  2  0  0  3  0  0  0  0  0  0
  186.5740  174.7650  136.5990 S   0  0  0  0  0  0  0  0  0  0  0  0
  185.6780  172.2380  135.9500 N   0  0  0  0  0  2  0  0  0  0  0  0
  182.4510  177.8710  139.1800 C   0  0  2  0  0  3  0  0  0  0  0  0
  181.3920  174.7340  136.9690 C   0  0  0  0  0  0  0  0  0  0  0  0
  187.7440  172.3590  137.2240 C   0  0  0  0  0  1  0  0  0  0  0  0
  183.1620  177.9880  137.8250 C   0  0  0  0  0  2  0  0  0  0  0  0
  180.1910  174.3050  136.3920 C   0  0  0  0  0  3  0  0  0  0  0  0
  180.2780  174.8840  139.1250 C   0  0  0  0  0  3  0  0  0  0  0  0
  179.0860  174.4490  138.5410 C   0  0  0  0  0  3  0  0  0  0  0  0
  182.6860  176.5210  139.8600 C   0  0  0  0  0  2  0  0  0  0  0  0
  184.5040  176.4640  135.7700 C   0  0  1  0  0  3  0  0  0  0  0  0
  182.3060  177.4980  136.6460 C   0  0  1  0  0  3  0  0  0  0  0  0
  184.9410  175.0140  135.8140 C   0  0  2  0  0  3  0  0  0  0  0  0
  182.5790  174.9520  136.0650 C   0  0  2  0  0  3  0  0  0  0  0  0
  180.8230  178.1590  135.1420 C   0  0  0  0  0  1  0  0  0  0  0  0
  181.9470  178.5880  135.8500 O   0  0  0  0  0  0  0  0  0  0  0  0
  184.9610  177.0640  134.5960 O   0  0  0  0  0  0  0  0  0  0  0  0
  186.0600  177.8290  134.9910 C   0  0  0  0  0  1  0  0  0  0  0  0
  1  4  1  0  0  0  0
  1 18  1  0  0  0  0
  3 19  1  0  0  0  0
  4 20  1  0  0  0  0
  5  6  2  0  0  0  0
  6  2  2  0  0  0  0
  7 15  1  6  0  0  0
  8  6  1  6  0  0  0
  9 13  1  0  0  0  0
 10 24  1  0  0  0  0
 10 22  1  0  0  0  0
 11  7  1  0  0  0  0
 12  6  1  0  0  0  0
 12  7  1  0  0  0  0
 13 20  1  0  0  0  0
 14  1  2  0  0  0  0
 16 13  1  0  0  0  0
 17 14  1  0  0  0  0
 17  3  2  0  0  0  0
 19 18  2  0  0  0  0
 21 10  1  0  0  0  0
 21 23  1  0  0  0  0
 22 16  1  0  0  0  0
 23  8  1  0  0  0  0
 23 11  1  0  0  0  0
 24  8  1  0  0  0  0
 24 14  1  0  0  0  0
 25 26  1  0  0  0  0
 26 22  1  0  0  0  0
 27 28  1  0  0  0  0
 27 21  1  0  0  0  0
M  END
>  <MODEL>
9

>  <REMARK>
 VINA RESULT:      -3.6      2.724      5.066
  Name = 
  2 active torsions:
  status: ('A' for Active; 'I' for Inactive)
    1  A    between atoms: O_5  and  C_24
    2  A    between atoms: O_17  and  C_25
                            x       y       z     vdW  Elec       q    Type
                         _______ _______ _______ _____ _____    ______ ____

>  <TORSDO>
F 2

$$$$
