=
 OpenBabel11122411123D

 31 35  0  0  1  0  0  0  0  0999 V2000
  193.2870  175.6450  135.7150 C   0  0  0  0  0  0  0  0  0  0  0  0
  189.7490  176.7550  136.5500 C   0  0  2  0  0  3  0  0  0  0  0  0
  188.7550  175.6140  136.6460 C   0  0  0  0  0  0  0  0  0  0  0  0
  188.1320  173.3050  136.2090 C   0  0  0  0  0  0  0  0  0  0  0  0
  191.1770  176.3120  136.6970 C   0  0  0  0  0  0  0  0  0  0  0  0
  193.8300  175.4800  136.9940 C   0  0  0  0  0  3  0  0  0  0  0  0
  189.0700  174.3390  136.1510 C   0  0  0  0  0  3  0  0  0  0  0  0
  189.9340  177.5930  139.0270 C   0  0  1  0  0  3  0  0  0  0  0  0
  194.0650  175.3960  134.5940 O   0  0  0  0  0  1  0  0  0  0  0  0
  187.0990  177.1480  137.6420 N   0  0  0  0  0  2  0  0  0  0  0  0
  188.4840  171.9560  135.6960 C   0  0  0  0  0  1  0  0  0  0  0  0
  190.8630  176.3750  139.1800 C   0  0  0  0  0  2  0  0  0  0  0  0
  189.4460  177.8720  137.5730 C   0  0  2  0  0  3  0  0  0  0  0  0
  191.9590  176.0590  135.5660 C   0  0  0  0  0  3  0  0  0  0  0  0
  186.8650  173.5380  136.7480 C   0  0  0  0  0  3  0  0  0  0  0  0
  191.7250  176.1560  137.9780 C   0  0  0  0  0  0  0  0  0  0  0  0
  193.0480  175.7300  138.1260 C   0  0  0  0  0  3  0  0  0  0  0  0
  187.9790  178.3010  137.4710 C   0  0  0  0  0  2  0  0  0  0  0  0
  187.4600  175.8510  137.1550 C   0  0  0  0  0  0  0  0  0  0  0  0
  186.5290  174.8110  137.2190 C   0  0  0  0  0  3  0  0  0  0  0  0
  188.8440  177.4750  139.9370 O   0  0  0  0  0  0  0  0  0  0  0  0
  188.3800  179.0020  141.6090 O   0  0  0  0  0  0  0  0  0  0  0  0
  188.9120  177.9150  141.2620 C   0  0  0  0  0  0  0  0  0  0  0  0
  188.6730  177.1930  145.1140 C   0  0  1  0  0  3  0  0  0  0  0  0
  188.6800  176.0590  142.9050 C   0  0  0  0  0  2  0  0  0  0  0  0
  191.3030  178.6280  143.0250 O   0  0  0  0  0  0  0  0  0  0  0  0
  187.8230  177.8780  146.1620 C   0  0  0  0  0  1  0  0  0  0  0  0
  187.7930  176.6870  143.9780 C   0  0  0  0  0  2  0  0  0  0  0  0
  190.2730  177.9680  143.3190 C   0  0  0  0  0  0  0  0  0  0  0  0
  189.6280  177.0900  142.2820 C   0  0  2  0  0  3  0  0  0  0  0  0
  189.6810  178.1200  144.6140 N   0  0  0  0  0  2  0  0  0  0  0  0
  1  6  1  0  0  0  0
  2  3  1  1  0  0  0
  2  5  1  0  0  0  0
  2 13  1  0  0  0  0
  3 19  1  0  0  0  0
  4 15  2  0  0  0  0
  5 16  2  0  0  0  0
  6 17  2  0  0  0  0
  7  4  1  0  0  0  0
  7  3  2  0  0  0  0
  8 12  1  0  0  0  0
  8 21  1  1  0  0  0
  9  1  1  0  0  0  0
 11  4  1  0  0  0  0
 13 18  1  1  0  0  0
 13  8  1  0  0  0  0
 14  1  2  0  0  0  0
 14  5  1  0  0  0  0
 15 20  1  0  0  0  0
 16 17  1  0  0  0  0
 16 12  1  0  0  0  0
 18 10  1  0  0  0  0
 19 20  2  0  0  0  0
 19 10  1  0  0  0  0
 21 23  1  0  0  0  0
 23 22  2  0  0  0  0
 24 27  1  1  0  0  0
 25 28  1  0  0  0  0
 26 29  2  0  0  0  0
 28 24  1  0  0  0  0
 29 31  1  0  0  0  0
 30 23  1  6  0  0  0
 30 25  1  0  0  0  0
 30 29  1  0  0  0  0
 31 24  1  0  0  0  0
M  END
>  <MODEL>
1

>  <REMARK>
 VINA RESULT:      -8.0      0.000      0.000
  Name = 
  3 active torsions:
  status: ('A' for Active; 'I' for Inactive)
    1  A    between atoms: C_5  and  O_16
    2  A    between atoms: C_5  and  C_30
    3  A    between atoms: C_10  and  O_16
                            x       y       z     vdW  Elec       q    Type
                         _______ _______ _______ _____ _____    ______ ____

>  <TORSDO>
F 3

$$$$
=
 OpenBabel11122411123D

 31 35  0  0  1  0  0  0  0  0999 V2000
  192.8110  176.0390  136.9270 C   0  0  0  0  0  0  0  0  0  0  0  0
  189.2130  177.2630  136.8630 C   0  0  2  0  0  3  0  0  0  0  0  0
  188.1850  176.1540  136.9720 C   0  0  0  0  0  0  0  0  0  0  0  0
  187.5880  173.8000  136.8470 C   0  0  0  0  0  0  0  0  0  0  0  0
  190.5740  176.8610  137.3550 C   0  0  0  0  0  0  0  0  0  0  0  0
  193.0990  176.1120  138.2940 C   0  0  0  0  0  3  0  0  0  0  0  0
  188.5500  174.8110  136.7830 C   0  0  0  0  0  3  0  0  0  0  0  0
  188.9550  178.5390  139.1390 C   0  0  1  0  0  3  0  0  0  0  0  0
  193.7770  175.5940  136.0360 O   0  0  0  0  0  1  0  0  0  0  0  0
  186.4180  177.8340  137.3440 N   0  0  0  0  0  2  0  0  0  0  0  0
  187.9900  172.3820  136.6610 C   0  0  0  0  0  1  0  0  0  0  0  0
  189.8030  177.3740  139.6810 C   0  0  0  0  0  2  0  0  0  0  0  0
  188.7560  178.5460  137.5930 C   0  0  2  0  0  3  0  0  0  0  0  0
  191.5470  176.4120  136.4570 C   0  0  0  0  0  3  0  0  0  0  0  0
  186.2500  174.1210  137.0850 C   0  0  0  0  0  3  0  0  0  0  0  0
  190.8680  176.9450  138.7240 C   0  0  0  0  0  0  0  0  0  0  0  0
  192.1270  176.5590  139.1930 C   0  0  0  0  0  3  0  0  0  0  0  0
  187.3470  178.9410  137.1390 C   0  0  0  0  0  2  0  0  0  0  0  0
  186.8260  176.4720  137.1760 C   0  0  0  0  0  0  0  0  0  0  0  0
  185.8690  175.4560  137.2480 C   0  0  0  0  0  3  0  0  0  0  0  0
  187.7110  178.5820  139.8320 O   0  0  0  0  0  0  0  0  0  0  0  0
  188.2990  179.3790  141.9210 O   0  0  0  0  0  0  0  0  0  0  0  0
  187.6200  178.5770  141.2260 C   0  0  0  0  0  0  0  0  0  0  0  0
  185.6200  178.3290  144.5960 C   0  0  1  0  0  3  0  0  0  0  0  0
  185.3270  178.2280  142.1330 C   0  0  0  0  0  2  0  0  0  0  0  0
  188.2810  176.2930  143.1440 O   0  0  0  0  0  0  0  0  0  0  0  0
  185.6800  179.2320  145.8100 C   0  0  0  0  0  1  0  0  0  0  0  0
  185.3180  179.1510  143.3500 C   0  0  0  0  0  2  0  0  0  0  0  0
  187.3250  177.1090  143.1870 C   0  0  0  0  0  0  0  0  0  0  0  0
  186.7100  177.6060  141.9070 C   0  0  2  0  0  3  0  0  0  0  0  0
  186.8830  177.6140  144.4510 N   0  0  0  0  0  2  0  0  0  0  0  0
  1  6  1  0  0  0  0
  2  3  1  1  0  0  0
  2  5  1  0  0  0  0
  2 13  1  0  0  0  0
  3 19  1  0  0  0  0
  4 15  2  0  0  0  0
  5 16  2  0  0  0  0
  6 17  2  0  0  0  0
  7  4  1  0  0  0  0
  7  3  2  0  0  0  0
  8 12  1  0  0  0  0
  8 21  1  1  0  0  0
  9  1  1  0  0  0  0
 11  4  1  0  0  0  0
 13 18  1  1  0  0  0
 13  8  1  0  0  0  0
 14  1  2  0  0  0  0
 14  5  1  0  0  0  0
 15 20  1  0  0  0  0
 16 17  1  0  0  0  0
 16 12  1  0  0  0  0
 18 10  1  0  0  0  0
 19 20  2  0  0  0  0
 19 10  1  0  0  0  0
 21 23  1  0  0  0  0
 23 22  2  0  0  0  0
 24 27  1  1  0  0  0
 25 28  1  0  0  0  0
 26 29  2  0  0  0  0
 28 24  1  0  0  0  0
 29 31  1  0  0  0  0
 30 23  1  1  0  0  0
 30 25  1  0  0  0  0
 30 29  1  0  0  0  0
 31 24  1  0  0  0  0
M  END
>  <MODEL>
2

>  <REMARK>
 VINA RESULT:      -7.2      1.662      1.968
  Name = 
  3 active torsions:
  status: ('A' for Active; 'I' for Inactive)
    1  A    between atoms: C_5  and  O_16
    2  A    between atoms: C_5  and  C_30
    3  A    between atoms: C_10  and  O_16
                            x       y       z     vdW  Elec       q    Type
                         _______ _______ _______ _____ _____    ______ ____

>  <TORSDO>
F 3

$$$$
=
 OpenBabel11122411123D

 31 35  0  0  1  0  0  0  0  0999 V2000
  180.4640  178.3640  143.4950 C   0  0  0  0  0  0  0  0  0  0  0  0
  181.1890  178.0910  139.7740 C   0  0  2  0  0  3  0  0  0  0  0  0
  180.8740  179.3530  138.9930 C   0  0  0  0  0  0  0  0  0  0  0  0
  179.7790  181.5160  138.8160 C   0  0  0  0  0  0  0  0  0  0  0  0
  181.3610  178.3320  141.2460 C   0  0  0  0  0  0  0  0  0  0  0  0
  181.7020  178.7930  143.9830 C   0  0  0  0  0  3  0  0  0  0  0  0
  180.0950  180.3750  139.5580 C   0  0  0  0  0  3  0  0  0  0  0  0
  183.8040  177.9590  139.6630 C   0  0  1  0  0  3  0  0  0  0  0  0
  179.4040  178.1680  144.3690 O   0  0  0  0  0  1  0  0  0  0  0  0
  182.0620  178.4320  137.0370 N   0  0  0  0  0  2  0  0  0  0  0  0
  178.9660  182.5980  139.4310 C   0  0  0  0  0  1  0  0  0  0  0  0
  183.7250  179.0130  140.7820 C   0  0  0  0  0  2  0  0  0  0  0  0
  182.4330  177.3650  139.2180 C   0  0  2  0  0  3  0  0  0  0  0  0
  180.2920  178.1350  142.1260 C   0  0  0  0  0  3  0  0  0  0  0  0
  180.2240  181.6410  137.4980 C   0  0  0  0  0  3  0  0  0  0  0  0
  182.6050  178.7520  141.7380 C   0  0  0  0  0  0  0  0  0  0  0  0
  182.7720  178.9930  143.1050 C   0  0  0  0  0  3  0  0  0  0  0  0
  182.2960  177.1550  137.7070 C   0  0  0  0  0  2  0  0  0  0  0  0
  181.2900  179.4700  137.6500 C   0  0  0  0  0  0  0  0  0  0  0  0
  180.9780  180.6180  136.9160 C   0  0  0  0  0  3  0  0  0  0  0  0
  184.5310  178.4930  138.5600 O   0  0  0  0  0  0  0  0  0  0  0  0
  186.6630  178.4120  139.4490 O   0  0  0  0  0  0  0  0  0  0  0  0
  185.9180  178.3680  138.4350 C   0  0  0  0  0  0  0  0  0  0  0  0
  188.5660  176.0270  136.7270 C   0  0  1  0  0  3  0  0  0  0  0  0
  186.2130  176.7900  136.5320 C   0  0  0  0  0  2  0  0  0  0  0  0
  188.4200  179.6410  137.2310 O   0  0  0  0  0  0  0  0  0  0  0  0
  189.5050  175.0240  137.3630 C   0  0  0  0  0  1  0  0  0  0  0  0
  187.1300  175.7270  137.1340 C   0  0  0  0  0  2  0  0  0  0  0  0
  188.0070  178.4580  137.1260 C   0  0  0  0  0  0  0  0  0  0  0  0
  186.5280  178.1850  137.0830 C   0  0  2  0  0  3  0  0  0  0  0  0
  188.9460  177.3780  137.1250 N   0  0  0  0  0  2  0  0  0  0  0  0
  1  6  1  0  0  0  0
  1  9  1  0  0  0  0
  2  3  1  6  0  0  0
  2  5  1  0  0  0  0
  3  7  1  0  0  0  0
  4 11  1  0  0  0  0
  4  7  2  0  0  0  0
  5 16  2  0  0  0  0
  5 14  1  0  0  0  0
  8 21  1  6  0  0  0
  8 12  1  0  0  0  0
 10 19  1  0  0  0  0
 10 18  1  0  0  0  0
 12 16  1  0  0  0  0
 13 18  1  6  0  0  0
 13  8  1  0  0  0  0
 13  2  1  0  0  0  0
 14  1  2  0  0  0  0
 15  4  1  0  0  0  0
 16 17  1  0  0  0  0
 17  6  2  0  0  0  0
 19  3  2  0  0  0  0
 20 15  2  0  0  0  0
 20 19  1  0  0  0  0
 23 21  1  0  0  0  0
 23 22  2  0  0  0  0
 24 31  1  0  0  0  0
 24 28  1  0  0  0  0
 24 27  1  1  0  0  0
 25 30  1  0  0  0  0
 25 28  1  0  0  0  0
 29 26  2  0  0  0  0
 30 29  1  0  0  0  0
 30 23  1  1  0  0  0
 31 29  1  0  0  0  0
M  END
>  <MODEL>
3

>  <REMARK>
 VINA RESULT:      -7.0      5.897      9.650
  Name = 
  3 active torsions:
  status: ('A' for Active; 'I' for Inactive)
    1  A    between atoms: C_5  and  O_16
    2  A    between atoms: C_5  and  C_30
    3  A    between atoms: C_10  and  O_16
                            x       y       z     vdW  Elec       q    Type
                         _______ _______ _______ _____ _____    ______ ____

>  <TORSDO>
F 3

$$$$
=
 OpenBabel11122411123D

 31 35  0  0  1  0  0  0  0  0999 V2000
  179.8370  178.8180  141.6340 C   0  0  0  0  0  0  0  0  0  0  0  0
  183.3130  179.1270  140.1280 C   0  0  2  0  0  3  0  0  0  0  0  0
  184.4320  178.7890  141.0940 C   0  0  0  0  0  0  0  0  0  0  0  0
  185.2360  178.4250  143.3600 C   0  0  0  0  0  0  0  0  0  0  0  0
  181.9830  178.5650  140.5420 C   0  0  0  0  0  0  0  0  0  0  0  0
  179.5150  177.4960  141.3080 C   0  0  0  0  0  3  0  0  0  0  0  0
  184.1910  178.6980  142.4750 C   0  0  0  0  0  3  0  0  0  0  0  0
  183.4120  177.1630  138.3950 C   0  0  1  0  0  3  0  0  0  0  0  0
  178.9310  179.5990  142.3380 O   0  0  0  0  0  1  0  0  0  0  0  0
  186.0370  178.7690  139.2210 N   0  0  0  0  0  2  0  0  0  0  0  0
  184.9650  178.3160  144.8160 C   0  0  0  0  0  1  0  0  0  0  0  0
  182.6580  176.3940  139.4960 C   0  0  0  0  0  2  0  0  0  0  0  0
  183.6400  178.6770  138.6870 C   0  0  2  0  0  3  0  0  0  0  0  0
  181.0720  179.3520  141.2520 C   0  0  0  0  0  3  0  0  0  0  0  0
  186.5360  178.2560  142.8780 C   0  0  0  0  0  3  0  0  0  0  0  0
  181.6550  177.2440  140.2060 C   0  0  0  0  0  0  0  0  0  0  0  0
  180.4260  176.7070  140.5990 C   0  0  0  0  0  3  0  0  0  0  0  0
  185.0170  179.2000  138.2680 C   0  0  0  0  0  2  0  0  0  0  0  0
  185.7540  178.6540  140.6190 C   0  0  0  0  0  0  0  0  0  0  0  0
  186.7950  178.3720  141.5090 C   0  0  0  0  0  3  0  0  0  0  0  0
  184.6320  176.4920  138.0980 O   0  0  0  0  0  0  0  0  0  0  0  0
  184.0200  174.3880  137.3600 O   0  0  0  0  0  0  0  0  0  0  0  0
  184.7120  175.4280  137.1940 C   0  0  0  0  0  0  0  0  0  0  0  0
  188.0240  177.3000  136.2260 C   0  0  1  0  0  3  0  0  0  0  0  0
  187.0350  175.0290  136.3920 C   0  0  0  0  0  2  0  0  0  0  0  0
  184.6570  177.3410  134.8140 O   0  0  0  0  0  0  0  0  0  0  0  0
  188.7490  178.4030  136.9680 C   0  0  0  0  0  1  0  0  0  0  0  0
  187.8230  176.1000  137.1430 C   0  0  0  0  0  2  0  0  0  0  0  0
  185.6470  176.9180  135.4640 C   0  0  0  0  0  0  0  0  0  0  0  0
  185.6310  175.5190  136.0190 C   0  0  2  0  0  3  0  0  0  0  0  0
  186.7440  177.7960  135.7340 N   0  0  0  0  0  2  0  0  0  0  0  0
  1  9  1  0  0  0  0
  2  5  1  1  0  0  0
  2  3  1  0  0  0  0
  3  7  1  0  0  0  0
  4 11  1  0  0  0  0
  5 14  1  0  0  0  0
  6  1  1  0  0  0  0
  7  4  2  0  0  0  0
  8 21  1  1  0  0  0
  8 13  1  0  0  0  0
  8 12  1  0  0  0  0
 10 19  1  0  0  0  0
 12 16  1  0  0  0  0
 13 18  1  1  0  0  0
 13  2  1  0  0  0  0
 14  1  2  0  0  0  0
 15  4  1  0  0  0  0
 16  5  2  0  0  0  0
 16 17  1  0  0  0  0
 17  6  2  0  0  0  0
 18 10  1  0  0  0  0
 19  3  2  0  0  0  0
 19 20  1  0  0  0  0
 20 15  2  0  0  0  0
 23 22  2  0  0  0  0
 23 21  1  0  0  0  0
 24 27  1  1  0  0  0
 24 28  1  0  0  0  0
 25 28  1  0  0  0  0
 26 29  2  0  0  0  0
 29 31  1  0  0  0  0
 29 30  1  0  0  0  0
 30 25  1  0  0  0  0
 30 23  1  1  0  0  0
 31 24  1  0  0  0  0
M  END
>  <MODEL>
4

>  <REMARK>
 VINA RESULT:      -6.8      4.910      9.353
  Name = 
  3 active torsions:
  status: ('A' for Active; 'I' for Inactive)
    1  A    between atoms: C_5  and  O_16
    2  A    between atoms: C_5  and  C_30
    3  A    between atoms: C_10  and  O_16
                            x       y       z     vdW  Elec       q    Type
                         _______ _______ _______ _____ _____    ______ ____

>  <TORSDO>
F 3

$$$$
=
 OpenBabel11122411123D

 31 35  0  0  1  0  0  0  0  0999 V2000
  192.2260  176.6520  137.9820 C   0  0  0  0  0  0  0  0  0  0  0  0
  188.5930  177.2070  137.0130 C   0  0  2  0  0  3  0  0  0  0  0  0
  187.7730  175.9330  136.9520 C   0  0  0  0  0  0  0  0  0  0  0  0
  187.6310  173.5090  136.8430 C   0  0  0  0  0  0  0  0  0  0  0  0
  189.8460  177.0670  137.8290 C   0  0  0  0  0  0  0  0  0  0  0  0
  192.1640  176.8050  139.3720 C   0  0  0  0  0  3  0  0  0  0  0  0
  188.3950  174.6740  136.9380 C   0  0  0  0  0  3  0  0  0  0  0  0
  187.5880  178.4650  139.0810 C   0  0  1  0  0  3  0  0  0  0  0  0
  193.4390  176.3690  137.3690 O   0  0  0  0  0  1  0  0  0  0  0  0
  185.7090  177.2760  136.7980 N   0  0  0  0  0  2  0  0  0  0  0  0
  188.3010  172.1820  136.8450 C   0  0  0  0  0  1  0  0  0  0  0  0
  188.4670  177.4830  139.8770 C   0  0  0  0  0  2  0  0  0  0  0  0
  187.7650  178.4020  137.5340 C   0  0  2  0  0  3  0  0  0  0  0  0
  191.0670  176.7810  137.2110 C   0  0  0  0  0  3  0  0  0  0  0  0
  186.2410  173.5880  136.7450 C   0  0  0  0  0  3  0  0  0  0  0  0
  189.7870  177.2320  139.2210 C   0  0  0  0  0  0  0  0  0  0  0  0
  190.9440  177.0900  139.9920 C   0  0  0  0  0  3  0  0  0  0  0  0
  186.4590  178.5280  136.7430 C   0  0  0  0  0  2  0  0  0  0  0  0
  186.3700  176.0060  136.8160 C   0  0  0  0  0  0  0  0  0  0  0  0
  185.6110  174.8360  136.7300 C   0  0  0  0  0  3  0  0  0  0  0  0
  186.2260  178.2990  139.4640 O   0  0  0  0  0  0  0  0  0  0  0  0
  186.3840  179.0910  141.6300 O   0  0  0  0  0  0  0  0  0  0  0  0
  185.6810  178.8980  140.6030 C   0  0  0  0  0  0  0  0  0  0  0  0
  182.2900  177.6700  139.0520 C   0  0  1  0  0  3  0  0  0  0  0  0
  183.3680  178.2130  141.2200 C   0  0  0  0  0  2  0  0  0  0  0  0
  184.1810  180.7760  138.7190 O   0  0  0  0  0  0  0  0  0  0  0  0
  182.0490  176.5970  138.0110 C   0  0  0  0  0  1  0  0  0  0  0  0
  183.0840  177.0970  140.2180 C   0  0  0  0  0  2  0  0  0  0  0  0
  183.7950  179.6910  139.2240 C   0  0  0  0  0  0  0  0  0  0  0  0
  184.2450  179.3120  140.6090 C   0  0  2  0  0  3  0  0  0  0  0  0
  182.9960  178.7930  138.4460 N   0  0  0  0  0  2  0  0  0  0  0  0
  1  6  1  0  0  0  0
  2  3  1  1  0  0  0
  2 13  1  0  0  0  0
  2  5  1  0  0  0  0
  4 11  1  0  0  0  0
  4  7  2  0  0  0  0
  5 16  2  0  0  0  0
  6 17  2  0  0  0  0
  7  3  1  0  0  0  0
  8 21  1  6  0  0  0
  8 12  1  0  0  0  0
  9  1  1  0  0  0  0
 10 19  1  0  0  0  0
 13 18  1  6  0  0  0
 13  8  1  0  0  0  0
 14  5  1  0  0  0  0
 14  1  2  0  0  0  0
 15  4  1  0  0  0  0
 16 12  1  0  0  0  0
 16 17  1  0  0  0  0
 18 10  1  0  0  0  0
 19  3  2  0  0  0  0
 20 15  2  0  0  0  0
 20 19  1  0  0  0  0
 21 23  1  0  0  0  0
 23 22  2  0  0  0  0
 24 27  1  6  0  0  0
 24 28  1  0  0  0  0
 26 29  2  0  0  0  0
 28 25  1  0  0  0  0
 29 30  1  0  0  0  0
 30 23  1  6  0  0  0
 30 25  1  0  0  0  0
 31 24  1  0  0  0  0
 31 29  1  0  0  0  0
M  END
>  <MODEL>
5

>  <REMARK>
 VINA RESULT:      -6.7      2.957      4.444
  Name = 
  3 active torsions:
  status: ('A' for Active; 'I' for Inactive)
    1  A    between atoms: C_5  and  O_16
    2  A    between atoms: C_5  and  C_30
    3  A    between atoms: C_10  and  O_16
                            x       y       z     vdW  Elec       q    Type
                         _______ _______ _______ _____ _____    ______ ____

>  <TORSDO>
F 3

$$$$
=
 OpenBabel11122411123D

 31 35  0  0  1  0  0  0  0  0999 V2000
  183.6930  178.9450  142.6030 C   0  0  0  0  0  0  0  0  0  0  0  0
  182.5760  177.5960  139.2290 C   0  0  2  0  0  3  0  0  0  0  0  0
  181.9950  178.6510  138.3090 C   0  0  0  0  0  0  0  0  0  0  0  0
  181.0510  180.8630  137.9520 C   0  0  0  0  0  0  0  0  0  0  0  0
  183.4290  178.1690  140.3240 C   0  0  0  0  0  0  0  0  0  0  0  0
  185.0360  179.2430  142.3460 C   0  0  0  0  0  3  0  0  0  0  0  0
  181.6220  179.9120  138.8010 C   0  0  0  0  0  3  0  0  0  0  0  0
  184.8250  176.9490  138.0480 C   0  0  1  0  0  3  0  0  0  0  0  0
  183.1580  179.1820  143.8610 O   0  0  0  0  0  1  0  0  0  0  0  0
  182.0810  177.0530  136.4310 N   0  0  0  0  0  2  0  0  0  0  0  0
  180.6750  182.1990  138.4830 C   0  0  0  0  0  1  0  0  0  0  0  0
  185.3310  178.2490  138.6980 C   0  0  0  0  0  2  0  0  0  0  0  0
  183.3780  176.5300  138.4510 C   0  0  2  0  0  3  0  0  0  0  0  0
  182.8890  178.4090  141.5910 C   0  0  0  0  0  3  0  0  0  0  0  0
  180.8330  180.5600  136.6060 C   0  0  0  0  0  3  0  0  0  0  0  0
  184.7780  178.4580  140.0710 C   0  0  0  0  0  0  0  0  0  0  0  0
  185.5770  179.0050  141.0790 C   0  0  0  0  0  3  0  0  0  0  0  0
  182.5380  175.9710  137.2980 C   0  0  0  0  0  2  0  0  0  0  0  0
  181.7380  178.3400  136.9570 C   0  0  0  0  0  0  0  0  0  0  0  0
  181.1750  179.2990  136.1100 C   0  0  0  0  0  3  0  0  0  0  0  0
  184.9760  177.0350  136.6340 O   0  0  0  0  0  0  0  0  0  0  0  0
  185.2940  174.9910  135.6030 O   0  0  0  0  0  0  0  0  0  0  0  0
  185.7440  176.1300  135.8970 C   0  0  0  0  0  0  0  0  0  0  0  0
  188.9060  177.8960  137.4130 C   0  0  1  0  0  3  0  0  0  0  0  0
  188.1780  175.7980  136.3030 C   0  0  0  0  0  2  0  0  0  0  0  0
  186.7320  178.7100  134.5940 O   0  0  0  0  0  0  0  0  0  0  0  0
  189.0520  178.6240  138.7320 C   0  0  0  0  0  1  0  0  0  0  0  0
  188.3770  176.4880  137.6510 C   0  0  0  0  0  2  0  0  0  0  0  0
  187.2890  178.0070  135.4760 C   0  0  0  0  0  0  0  0  0  0  0  0
  187.1190  176.5120  135.4540 C   0  0  2  0  0  3  0  0  0  0  0  0
  188.0130  178.6420  136.5340 N   0  0  0  0  0  2  0  0  0  0  0  0
  1  9  1  0  0  0  0
  2  3  1  6  0  0  0
  2  5  1  0  0  0  0
  3  7  1  0  0  0  0
  4 11  1  0  0  0  0
  4  7  2  0  0  0  0
  5 14  1  0  0  0  0
  6  1  1  0  0  0  0
  8 21  1  6  0  0  0
  8 13  1  0  0  0  0
  8 12  1  0  0  0  0
 10 19  1  0  0  0  0
 10 18  1  0  0  0  0
 12 16  1  0  0  0  0
 13 18  1  6  0  0  0
 13  2  1  0  0  0  0
 14  1  2  0  0  0  0
 15  4  1  0  0  0  0
 16  5  2  0  0  0  0
 16 17  1  0  0  0  0
 17  6  2  0  0  0  0
 19  3  2  0  0  0  0
 20 15  2  0  0  0  0
 20 19  1  0  0  0  0
 22 23  2  0  0  0  0
 23 21  1  0  0  0  0
 24 28  1  0  0  0  0
 24 27  1  1  0  0  0
 25 28  1  0  0  0  0
 26 29  2  0  0  0  0
 29 31  1  0  0  0  0
 30 29  1  0  0  0  0
 30 23  1  1  0  0  0
 30 25  1  0  0  0  0
 31 24  1  0  0  0  0
M  END
>  <MODEL>
6

>  <REMARK>
 VINA RESULT:      -6.6      4.860      8.559
  Name = 
  3 active torsions:
  status: ('A' for Active; 'I' for Inactive)
    1  A    between atoms: C_5  and  O_16
    2  A    between atoms: C_5  and  C_30
    3  A    between atoms: C_10  and  O_16
                            x       y       z     vdW  Elec       q    Type
                         _______ _______ _______ _____ _____    ______ ____

>  <TORSDO>
F 3

$$$$
=
 OpenBabel11122411123D

 31 35  0  0  1  0  0  0  0  0999 V2000
  188.5820  177.8700  136.0820 C   0  0  0  0  0  0  0  0  0  0  0  0
  185.1350  178.2400  137.6410 C   0  0  2  0  0  3  0  0  0  0  0  0
  184.4380  176.9210  137.9080 C   0  0  0  0  0  0  0  0  0  0  0  0
  184.2300  174.5250  137.5510 C   0  0  0  0  0  0  0  0  0  0  0  0
  186.6230  178.1040  137.4850 C   0  0  0  0  0  0  0  0  0  0  0  0
  189.3950  177.8450  137.2210 C   0  0  0  0  0  3  0  0  0  0  0  0
  184.9020  175.7280  137.3300 C   0  0  0  0  0  3  0  0  0  0  0  0
  185.6400  179.1450  140.0480 C   0  0  1  0  0  3  0  0  0  0  0  0
  189.1520  177.7660  134.8210 O   0  0  0  0  0  1  0  0  0  0  0  0
  182.7380  178.0980  139.2540 N   0  0  0  0  0  2  0  0  0  0  0  0
  184.7410  173.2680  136.9460 C   0  0  0  0  0  1  0  0  0  0  0  0
  186.8120  178.1490  139.9810 C   0  0  0  0  0  2  0  0  0  0  0  0
  184.8210  179.2900  138.7300 C   0  0  2  0  0  3  0  0  0  0  0  0
  187.1950  177.9980  136.2140 C   0  0  0  0  0  3  0  0  0  0  0  0
  183.0770  174.5010  138.3400 C   0  0  0  0  0  3  0  0  0  0  0  0
  187.4390  178.0900  138.6260 C   0  0  0  0  0  0  0  0  0  0  0  0
  188.8240  177.9490  138.4930 C   0  0  0  0  0  3  0  0  0  0  0  0
  183.3080  179.4040  138.9360 C   0  0  0  0  0  2  0  0  0  0  0  0
  183.2530  176.8950  138.6740 C   0  0  0  0  0  0  0  0  0  0  0  0
  182.5890  175.6850  138.8990 C   0  0  0  0  0  3  0  0  0  0  0  0
  184.8060  178.8220  141.1560 O   0  0  0  0  0  0  0  0  0  0  0  0
  185.6650  180.1260  142.8610 O   0  0  0  0  0  0  0  0  0  0  0  0
  185.1980  179.0180  142.4830 C   0  0  0  0  0  0  0  0  0  0  0  0
  185.7630  178.4450  146.3260 C   0  0  1  0  0  3  0  0  0  0  0  0
  184.0400  178.2530  144.5500 C   0  0  0  0  0  2  0  0  0  0  0  0
  187.2510  176.9320  143.3540 O   0  0  0  0  0  0  0  0  0  0  0  0
  186.4110  179.3610  147.3420 C   0  0  0  0  0  1  0  0  0  0  0  0
  184.6330  179.1750  145.6130 C   0  0  0  0  0  2  0  0  0  0  0  0
  186.4090  177.5510  144.0540 C   0  0  0  0  0  0  0  0  0  0  0  0
  185.0680  177.9020  143.4690 C   0  0  2  0  0  3  0  0  0  0  0  0
  186.7640  177.9820  145.3720 N   0  0  0  0  0  2  0  0  0  0  0  0
  1 14  2  0  0  0  0
  1  6  1  0  0  0  0
  2  5  1  1  0  0  0
  2  3  1  0  0  0  0
  2 13  1  0  0  0  0
  3 19  1  0  0  0  0
  4 15  2  0  0  0  0
  5 16  2  0  0  0  0
  6 17  2  0  0  0  0
  7  4  1  0  0  0  0
  7  3  2  0  0  0  0
  8 21  1  1  0  0  0
  9  1  1  0  0  0  0
 11  4  1  0  0  0  0
 12  8  1  0  0  0  0
 13 18  1  1  0  0  0
 13  8  1  0  0  0  0
 14  5  1  0  0  0  0
 15 20  1  0  0  0  0
 16 12  1  0  0  0  0
 17 16  1  0  0  0  0
 18 10  1  0  0  0  0
 19 20  2  0  0  0  0
 19 10  1  0  0  0  0
 21 23  1  0  0  0  0
 23 22  2  0  0  0  0
 24 27  1  1  0  0  0
 25 28  1  0  0  0  0
 26 29  2  0  0  0  0
 28 24  1  0  0  0  0
 29 31  1  0  0  0  0
 30 23  1  6  0  0  0
 30 29  1  0  0  0  0
 30 25  1  0  0  0  0
 31 24  1  0  0  0  0
M  END
>  <MODEL>
7

>  <REMARK>
 VINA RESULT:      -6.2      3.256      4.519
  Name = 
  3 active torsions:
  status: ('A' for Active; 'I' for Inactive)
    1  A    between atoms: C_5  and  O_16
    2  A    between atoms: C_5  and  C_30
    3  A    between atoms: C_10  and  O_16
                            x       y       z     vdW  Elec       q    Type
                         _______ _______ _______ _____ _____    ______ ____

>  <TORSDO>
F 3

$$$$
=
 OpenBabel11122411123D

 31 35  0  0  1  0  0  0  0  0999 V2000
  180.9660  179.2460  139.7340 C   0  0  0  0  0  0  0  0  0  0  0  0
  184.6510  178.9640  138.8470 C   0  0  2  0  0  3  0  0  0  0  0  0
  185.5440  178.6420  140.0300 C   0  0  0  0  0  0  0  0  0  0  0  0
  185.9130  178.5060  142.4290 C   0  0  0  0  0  0  0  0  0  0  0  0
  183.2090  178.6130  139.0800 C   0  0  0  0  0  0  0  0  0  0  0  0
  180.5310  177.9350  139.5120 C   0  0  0  0  0  3  0  0  0  0  0  0
  185.0710  178.7670  141.3460 C   0  0  0  0  0  3  0  0  0  0  0  0
  184.7720  176.7820  137.4000 C   0  0  1  0  0  3  0  0  0  0  0  0
  180.0680  180.2110  140.1690 O   0  0  0  0  0  1  0  0  0  0  0  0
  187.4150  178.1890  138.4880 N   0  0  0  0  0  2  0  0  0  0  0  0
  185.3960  178.6280  143.8170 C   0  0  0  0  0  1  0  0  0  0  0  0
  183.7550  176.2580  138.4300 C   0  0  0  0  0  2  0  0  0  0  0  0
  185.1470  178.2870  137.5500 C   0  0  2  0  0  3  0  0  0  0  0  0
  182.3060  179.5850  139.5190 C   0  0  0  0  0  3  0  0  0  0  0  0
  187.2410  178.1320  142.2100 C   0  0  0  0  0  3  0  0  0  0  0  0
  182.7700  177.3020  138.8470 C   0  0  0  0  0  0  0  0  0  0  0  0
  181.4330  176.9610  139.0740 C   0  0  0  0  0  3  0  0  0  0  0  0
  186.6300  178.5950  137.3250 C   0  0  0  0  0  2  0  0  0  0  0  0
  186.8960  178.2990  139.8170 C   0  0  0  0  0  0  0  0  0  0  0  0
  187.7310  178.0300  140.9050 C   0  0  0  0  0  3  0  0  0  0  0  0
  185.9260  175.9470  137.4050 O   0  0  0  0  0  0  0  0  0  0  0  0
  187.2000  175.9880  135.4770 O   0  0  0  0  0  0  0  0  0  0  0  0
  186.4350  175.3500  136.2480 C   0  0  0  0  0  0  0  0  0  0  0  0
  183.2530  173.0570  136.4090 C   0  0  1  0  0  3  0  0  0  0  0  0
  184.9770  173.9070  134.8380 C   0  0  0  0  0  2  0  0  0  0  0  0
  186.5390  172.8410  137.9870 O   0  0  0  0  0  0  0  0  0  0  0  0
  181.9120  173.3290  137.0570 C   0  0  0  0  0  1  0  0  0  0  0  0
  183.5940  174.1720  135.4280 C   0  0  0  0  0  2  0  0  0  0  0  0
  185.6620  173.1910  137.1560 C   0  0  0  0  0  0  0  0  0  0  0  0
  186.0670  173.9410  135.9160 C   0  0  2  0  0  3  0  0  0  0  0  0
  184.2810  172.9390  137.4360 N   0  0  0  0  0  2  0  0  0  0  0  0
  1  9  1  0  0  0  0
  2  5  1  1  0  0  0
  2  3  1  0  0  0  0
  3  7  1  0  0  0  0
  4 11  1  0  0  0  0
  5 14  2  0  0  0  0
  6  1  2  0  0  0  0
  7  4  2  0  0  0  0
  8 21  1  1  0  0  0
  8 13  1  0  0  0  0
  8 12  1  0  0  0  0
 10 19  1  0  0  0  0
 12 16  1  0  0  0  0
 13 18  1  1  0  0  0
 13  2  1  0  0  0  0
 14  1  1  0  0  0  0
 15  4  1  0  0  0  0
 16 17  2  0  0  0  0
 16  5  1  0  0  0  0
 17  6  1  0  0  0  0
 18 10  1  0  0  0  0
 19  3  2  0  0  0  0
 19 20  1  0  0  0  0
 20 15  2  0  0  0  0
 22 23  2  0  0  0  0
 23 21  1  0  0  0  0
 24 27  1  1  0  0  0
 24 31  1  0  0  0  0
 25 28  1  0  0  0  0
 25 30  1  0  0  0  0
 28 24  1  0  0  0  0
 29 31  1  0  0  0  0
 29 26  2  0  0  0  0
 30 23  1  1  0  0  0
 30 29  1  0  0  0  0
M  END
>  <MODEL>
8

>  <REMARK>
 VINA RESULT:      -6.1      4.297      8.850
  Name = 
  3 active torsions:
  status: ('A' for Active; 'I' for Inactive)
    1  A    between atoms: C_5  and  O_16
    2  A    between atoms: C_5  and  C_30
    3  A    between atoms: C_10  and  O_16
                            x       y       z     vdW  Elec       q    Type
                         _______ _______ _______ _____ _____    ______ ____

>  <TORSDO>
F 3

$$$$
=
 OpenBabel11122411123D

 31 35  0  0  1  0  0  0  0  0999 V2000
  190.2530  177.1190  141.5110 C   0  0  0  0  0  0  0  0  0  0  0  0
  190.4920  175.3860  138.1360 C   0  0  2  0  0  3  0  0  0  0  0  0
  189.9120  176.1920  136.9900 C   0  0  0  0  0  0  0  0  0  0  0  0
  188.5300  178.0170  136.1710 C   0  0  0  0  0  0  0  0  0  0  0  0
  190.8310  176.2220  139.3370 C   0  0  0  0  0  0  0  0  0  0  0  0
  191.4800  177.7880  141.5610 C   0  0  0  0  0  3  0  0  0  0  0  0
  189.0900  177.3050  137.2340 C   0  0  0  0  0  3  0  0  0  0  0  0
  193.0620  175.3860  137.6230 C   0  0  1  0  0  3  0  0  0  0  0  0
  189.3570  177.2320  142.5650 O   0  0  0  0  0  1  0  0  0  0  0  0
  190.9310  174.6260  135.3800 N   0  0  0  0  0  2  0  0  0  0  0  0
  187.6750  179.2020  136.4420 C   0  0  0  0  0  1  0  0  0  0  0  0
  193.0000  176.8000  138.2300 C   0  0  0  0  0  2  0  0  0  0  0  0
  191.7330  174.5760  137.7010 C   0  0  2  0  0  3  0  0  0  0  0  0
  189.9270  176.3360  140.3980 C   0  0  0  0  0  3  0  0  0  0  0  0
  188.7710  177.6170  134.8550 C   0  0  0  0  0  3  0  0  0  0  0  0
  192.0650  176.8850  139.3930 C   0  0  0  0  0  0  0  0  0  0  0  0
  192.3840  177.6770  140.5000 C   0  0  0  0  0  3  0  0  0  0  0  0
  191.4180  173.7560  136.4460 C   0  0  0  0  0  2  0  0  0  0  0  0
  190.1210  175.7730  135.6590 C   0  0  0  0  0  0  0  0  0  0  0  0
  189.5640  176.4950  134.6000 C   0  0  0  0  0  3  0  0  0  0  0  0
  193.5560  175.4650  136.2890 O   0  0  0  0  0  0  0  0  0  0  0  0
  195.2170  176.9780  135.7480 O   0  0  0  0  0  0  0  0  0  0  0  0
  194.8820  175.7880  135.9890 C   0  0  0  0  0  0  0  0  0  0  0  0
  197.8500  174.5170  138.2220 C   0  0  1  0  0  3  0  0  0  0  0  0
  195.7520  173.7570  137.1370 C   0  0  0  0  0  2  0  0  0  0  0  0
  197.7030  175.8330  134.8190 O   0  0  0  0  0  0  0  0  0  0  0  0
  198.4590  175.1530  139.4540 C   0  0  0  0  0  1  0  0  0  0  0  0
  196.3500  174.3400  138.4150 C   0  0  0  0  0  2  0  0  0  0  0  0
  197.2990  175.3050  135.8870 C   0  0  0  0  0  0  0  0  0  0  0  0
  195.9180  174.7120  135.9490 C   0  0  2  0  0  3  0  0  0  0  0  0
  198.1280  175.3420  137.0530 N   0  0  0  0  0  2  0  0  0  0  0  0
  1  6  1  0  0  0  0
  1  9  1  0  0  0  0
  2  3  1  6  0  0  0
  2  5  1  0  0  0  0
  3  7  1  0  0  0  0
  4 11  1  0  0  0  0
  4  7  2  0  0  0  0
  5 16  2  0  0  0  0
  5 14  1  0  0  0  0
  8 21  1  6  0  0  0
  8 13  1  0  0  0  0
  8 12  1  0  0  0  0
 10 19  1  0  0  0  0
 10 18  1  0  0  0  0
 12 16  1  0  0  0  0
 13 18  1  6  0  0  0
 13  2  1  0  0  0  0
 14  1  2  0  0  0  0
 15  4  1  0  0  0  0
 16 17  1  0  0  0  0
 17  6  2  0  0  0  0
 19  3  2  0  0  0  0
 20 15  2  0  0  0  0
 20 19  1  0  0  0  0
 22 23  2  0  0  0  0
 23 21  1  0  0  0  0
 24 28  1  0  0  0  0
 24 27  1  1  0  0  0
 25 28  1  0  0  0  0
 26 29  2  0  0  0  0
 29 30  1  0  0  0  0
 29 31  1  0  0  0  0
 30 23  1  1  0  0  0
 30 25  1  0  0  0  0
 31 24  1  0  0  0  0
M  END
>  <MODEL>
9

>  <REMARK>
 VINA RESULT:      -6.0      3.138      7.186
  Name = 
  3 active torsions:
  status: ('A' for Active; 'I' for Inactive)
    1  A    between atoms: C_5  and  O_16
    2  A    between atoms: C_5  and  C_30
    3  A    between atoms: C_10  and  O_16
                            x       y       z     vdW  Elec       q    Type
                         _______ _______ _______ _____ _____    ______ ____

>  <TORSDO>
F 3

$$$$
