=
 OpenBabel11122410243D

 30 35  0  0  1  0  0  0  0  0999 V2000
  189.1180  177.3860  143.5580 C   0  0  1  0  0  3  0  0  0  0  0  0
  191.2200  176.8480  144.8930 C   0  0  0  0  0  0  0  0  0  0  0  0
  187.1320  178.2060  147.0570 C   0  0  0  0  0  2  0  0  0  0  0  0
  187.7550  178.0820  143.7280 C   0  0  1  0  0  3  0  0  0  0  0  0
  189.9330  178.1510  142.6920 O   0  0  0  0  0  0  0  0  0  0  0  0
  187.4990  178.5410  140.0010 O   0  0  0  0  0  1  0  0  0  0  0  0
  184.5890  178.0000  142.8720 C   0  0  1  0  0  3  0  0  0  0  0  0
  188.0280  178.6990  141.2850 C   0  0  2  0  0  3  0  0  0  0  0  0
  184.4410  178.0350  144.3960 C   0  0  2  0  0  3  0  0  0  0  0  0
  185.8870  178.6590  146.4190 C   0  0  0  0  0  0  0  0  0  0  0  0
  189.4210  178.0650  141.3760 C   0  0  2  0  0  3  0  0  0  0  0  0
  187.0800  178.1140  142.3380 C   0  0  2  0  0  3  0  0  0  0  0  0
  191.8550  176.5310  146.0950 C   0  0  0  0  0  3  0  0  0  0  0  0
  183.4620  179.1490  144.7090 C   0  0  0  0  0  2  0  0  0  0  0  0
  183.0070  178.5110  142.1250 S   0  0  0  0  0  0  0  0  0  0  0  0
  191.9860  176.8860  143.7340 O   0  0  0  0  0  1  0  0  0  0  0  0
  187.5930  177.1140  146.0980 C   0  0  1  0  0  3  0  0  0  0  0  0
  191.1220  176.4310  147.2740 C   0  0  0  0  0  3  0  0  0  0  0  0
  189.8290  177.1110  144.8650 C   0  0  0  0  0  0  0  0  0  0  0  0
  186.8760  177.3500  144.7510 C   0  0  1  0  0  3  0  0  0  0  0  0
  185.0490  179.3950  147.0030 O   0  0  0  0  0  0  0  0  0  0  0  0
  185.7300  178.1890  145.0840 N   0  0  0  0  0  0  0  0  0  0  0  0
  182.3170  178.9960  143.7360 C   0  0  0  0  0  2  0  0  0  0  0  0
  185.7970  180.2820  142.8200 C   0  0  0  0  0  1  0  0  0  0  0  0
  189.7450  176.6380  147.2520 C   0  0  0  0  0  3  0  0  0  0  0  0
  189.0890  176.9720  146.0590 C   0  0  0  0  0  0  0  0  0  0  0  0
  185.7330  178.8480  142.2970 C   0  0  2  0  0  3  0  0  0  0  0  0
  189.4880  176.6450  140.8030 C   0  0  0  0  0  2  0  0  0  0  0  0
  191.6270  177.3620  140.0890 F   0  0  0  0  0  0  0  0  0  0  0  0
  190.5590  176.5600  139.7340 C   0  0  0  0  0  2  0  0  0  0  0  0
  1  5  1  6  0  0  0
  1  4  1  0  0  0  0
  1 19  1  0  0  0  0
  2 13  1  0  0  0  0
  4 20  1  0  0  0  0
  6  8  1  0  0  0  0
  7  9  1  0  0  0  0
  8 11  1  0  0  0  0
  8 12  1  0  0  0  0
  9 14  1  0  0  0  0
  9 22  1  0  0  0  0
 10 21  2  0  0  0  0
 10  3  1  0  0  0  0
 11  5  1  0  0  0  0
 12  4  1  0  0  0  0
 13 18  2  0  0  0  0
 15  7  1  0  0  0  0
 15 23  1  0  0  0  0
 16  2  1  0  0  0  0
 17  3  1  0  0  0  0
 19  2  2  0  0  0  0
 19 26  1  0  0  0  0
 20 22  1  0  0  0  0
 20 17  1  0  0  0  0
 22 10  1  0  0  0  0
 23 14  1  0  0  0  0
 25 18  1  0  0  0  0
 26 17  1  0  0  0  0
 26 25  2  0  0  0  0
 27 12  1  0  0  0  0
 27 24  1  0  0  0  0
 27  7  1  0  0  0  0
 28 11  1  0  0  0  0
 30 29  1  0  0  0  0
 30 28  1  0  0  0  0
M  END
>  <MODEL>
1

>  <REMARK>
 VINA RESULT:      -9.7      0.000      0.000
  Name = 
  2 active torsions:
  status: ('A' for Active; 'I' for Inactive)
    1  A    between atoms: C_11  and  C_28
    2  A    between atoms: C_28  and  C_30
                            x       y       z     vdW  Elec       q    Type
                         _______ _______ _______ _____ _____    ______ ____

>  <TORSDO>
F 2

$$$$
=
 OpenBabel11122410243D

 30 35  0  0  1  0  0  0  0  0999 V2000
  187.1110  177.9350  145.2330 C   0  0  1  0  0  3  0  0  0  0  0  0
  184.7180  178.5900  145.8130 C   0  0  0  0  0  0  0  0  0  0  0  0
  186.3880  178.8620  141.2990 C   0  0  0  0  0  2  0  0  0  0  0  0
  188.1390  178.0960  144.0980 C   0  0  1  0  0  3  0  0  0  0  0  0
  187.5270  178.6870  146.3560 O   0  0  0  0  0  0  0  0  0  0  0  0
  190.9450  177.4180  146.5120 O   0  0  0  0  0  1  0  0  0  0  0  0
  190.5850  176.6240  142.4820 C   0  0  1  0  0  3  0  0  0  0  0  0
  189.8530  178.0960  145.9650 C   0  0  2  0  0  3  0  0  0  0  0  0
  189.6910  177.0060  141.2990 C   0  0  2  0  0  3  0  0  0  0  0  0
  187.7660  178.6350  140.8370 C   0  0  0  0  0  0  0  0  0  0  0  0
  188.6630  178.0710  146.9320 C   0  0  2  0  0  3  0  0  0  0  0  0
  189.4740  177.5050  144.6020 C   0  0  2  0  0  3  0  0  0  0  0  0
  183.4010  178.8620  145.4360 C   0  0  0  0  0  3  0  0  0  0  0  0
  190.5790  177.7190  140.2990 C   0  0  0  0  0  2  0  0  0  0  0  0
  192.2650  176.2960  141.8560 S   0  0  0  0  0  0  0  0  0  0  0  0
  185.0300  178.5980  147.1670 O   0  0  0  0  0  1  0  0  0  0  0  0
  186.2470  177.8060  142.3890 C   0  0  1  0  0  3  0  0  0  0  0  0
  183.0280  178.8160  144.0960 C   0  0  0  0  0  3  0  0  0  0  0  0
  185.6980  178.3020  144.8320 C   0  0  0  0  0  0  0  0  0  0  0  0
  187.6730  177.3920  142.8160 C   0  0  1  0  0  3  0  0  0  0  0  0
  188.2210  179.1360  139.7750 O   0  0  0  0  0  0  0  0  0  0  0  0
  188.5270  177.8030  141.7070 N   0  0  0  0  0  0  0  0  0  0  0  0
  191.8440  176.9010  140.1930 C   0  0  0  0  0  2  0  0  0  0  0  0
  190.9090  179.0880  143.1830 C   0  0  0  0  0  1  0  0  0  0  0  0
  183.9710  178.4850  143.1250 C   0  0  0  0  0  3  0  0  0  0  0  0
  185.3010  178.2220  143.4800 C   0  0  0  0  0  0  0  0  0  0  0  0
  190.6480  177.6490  143.6240 C   0  0  2  0  0  3  0  0  0  0  0  0
  188.3620  176.6790  147.4990 C   0  0  0  0  0  2  0  0  0  0  0  0
  187.9960  178.0030  149.4250 F   0  0  0  0  0  0  0  0  0  0  0  0
  187.6610  176.7980  148.8370 C   0  0  0  0  0  2  0  0  0  0  0  0
  1 19  1  6  0  0  0
  1  5  1  0  0  0  0
  2 16  1  0  0  0  0
  3 17  1  0  0  0  0
  4 12  1  0  0  0  0
  4  1  1  0  0  0  0
  5 11  1  0  0  0  0
  7 27  1  0  0  0  0
  8  6  1  0  0  0  0
  8 11  1  0  0  0  0
  9 22  1  0  0  0  0
  9  7  1  0  0  0  0
 10  3  1  0  0  0  0
 10 22  1  0  0  0  0
 11 28  1  0  0  0  0
 12  8  1  0  0  0  0
 13  2  1  0  0  0  0
 14  9  1  0  0  0  0
 15  7  1  0  0  0  0
 17 20  1  0  0  0  0
 17 26  1  0  0  0  0
 18 13  2  0  0  0  0
 19  2  2  0  0  0  0
 20  4  1  0  0  0  0
 21 10  2  0  0  0  0
 22 20  1  0  0  0  0
 23 14  1  0  0  0  0
 23 15  1  0  0  0  0
 24 27  1  0  0  0  0
 25 26  2  0  0  0  0
 25 18  1  0  0  0  0
 26 19  1  0  0  0  0
 27 12  1  0  0  0  0
 28 30  1  0  0  0  0
 30 29  1  0  0  0  0
M  END
>  <MODEL>
2

>  <REMARK>
 VINA RESULT:      -8.0      3.028      6.644
  Name = 
  2 active torsions:
  status: ('A' for Active; 'I' for Inactive)
    1  A    between atoms: C_11  and  C_28
    2  A    between atoms: C_28  and  C_30
                            x       y       z     vdW  Elec       q    Type
                         _______ _______ _______ _____ _____    ______ ____

>  <TORSDO>
F 2

$$$$
=
 OpenBabel11122410243D

 30 35  0  0  1  0  0  0  0  0999 V2000
  187.3280  178.1530  139.9520 C   0  0  1  0  0  3  0  0  0  0  0  0
  185.1180  178.5030  138.7350 C   0  0  0  0  0  0  0  0  0  0  0  0
  185.2990  177.8770  143.5110 C   0  0  0  0  0  2  0  0  0  0  0  0
  187.8660  177.6610  141.3090 C   0  0  1  0  0  3  0  0  0  0  0  0
  187.6690  177.2220  138.9450 O   0  0  0  0  0  0  0  0  0  0  0  0
  191.2190  176.9590  139.7510 O   0  0  0  0  0  1  0  0  0  0  0  0
  190.1950  178.1030  143.5770 C   0  0  1  0  0  3  0  0  0  0  0  0
  189.8440  176.8290  139.9600 C   0  0  2  0  0  3  0  0  0  0  0  0
  188.9500  178.2050  144.4650 C   0  0  2  0  0  3  0  0  0  0  0  0
  186.4760  177.5480  144.3280 C   0  0  0  0  0  0  0  0  0  0  0  0
  189.0650  177.2750  138.7160 C   0  0  2  0  0  3  0  0  0  0  0  0
  189.4070  177.6150  141.2010 C   0  0  2  0  0  3  0  0  0  0  0  0
  183.7590  178.8230  138.7390 C   0  0  0  0  0  3  0  0  0  0  0  0
  189.1720  177.2600  145.6290 C   0  0  0  0  0  2  0  0  0  0  0  0
  191.6350  177.7530  144.6370 S   0  0  0  0  0  0  0  0  0  0  0  0
  185.7360  178.2750  137.5110 O   0  0  0  0  0  1  0  0  0  0  0  0
  185.8950  178.8210  142.4730 C   0  0  1  0  0  3  0  0  0  0  0  0
  183.1070  179.1100  139.9350 C   0  0  0  0  0  3  0  0  0  0  0  0
  185.8400  178.4290  139.9500 C   0  0  0  0  0  0  0  0  0  0  0  0
  187.4210  178.5810  142.4550 C   0  0  1  0  0  3  0  0  0  0  0  0
  186.3920  176.9780  145.4480 O   0  0  0  0  0  0  0  0  0  0  0  0
  187.7090  177.9320  143.7280 N   0  0  0  0  0  0  0  0  0  0  0  0
  190.5880  177.4900  146.1010 C   0  0  0  0  0  2  0  0  0  0  0  0
  189.6370  175.6820  142.8720 C   0  0  0  0  0  1  0  0  0  0  0  0
  183.8170  179.0900  141.1330 C   0  0  0  0  0  3  0  0  0  0  0  0
  185.1780  178.7570  141.1530 C   0  0  0  0  0  0  0  0  0  0  0  0
  190.1190  177.0680  142.4450 C   0  0  2  0  0  3  0  0  0  0  0  0
  189.5250  178.6250  138.1560 C   0  0  0  0  0  2  0  0  0  0  0  0
  189.5170  177.7140  135.9720 F   0  0  0  0  0  0  0  0  0  0  0  0
  189.0630  178.7820  136.7210 C   0  0  0  0  0  2  0  0  0  0  0  0
  1  5  1  6  0  0  0
  1  4  1  0  0  0  0
  2 13  2  0  0  0  0
  2 19  1  0  0  0  0
  3 10  1  0  0  0  0
  4 20  1  0  0  0  0
  6  8  1  0  0  0  0
  7  9  1  0  0  0  0
  7 15  1  0  0  0  0
  8 12  1  0  0  0  0
  9 14  1  0  0  0  0
 10 21  2  0  0  0  0
 11  5  1  0  0  0  0
 11  8  1  0  0  0  0
 12  4  1  0  0  0  0
 12 27  1  0  0  0  0
 13 18  1  0  0  0  0
 14 23  1  0  0  0  0
 15 23  1  0  0  0  0
 16  2  1  0  0  0  0
 17  3  1  0  0  0  0
 18 25  2  0  0  0  0
 19  1  1  0  0  0  0
 19 26  2  0  0  0  0
 20 17  1  0  0  0  0
 20 22  1  0  0  0  0
 22 10  1  0  0  0  0
 22  9  1  0  0  0  0
 25 26  1  0  0  0  0
 26 17  1  0  0  0  0
 27 24  1  0  0  0  0
 27  7  1  0  0  0  0
 28 11  1  0  0  0  0
 29 30  1  0  0  0  0
 30 28  1  0  0  0  0
M  END
>  <MODEL>
3

>  <REMARK>
 VINA RESULT:      -7.7      2.843      5.976
  Name = 
  2 active torsions:
  status: ('A' for Active; 'I' for Inactive)
    1  A    between atoms: C_11  and  C_28
    2  A    between atoms: C_28  and  C_30
                            x       y       z     vdW  Elec       q    Type
                         _______ _______ _______ _____ _____    ______ ____

>  <TORSDO>
F 2

$$$$
=
 OpenBabel11122410243D

 30 35  0  0  1  0  0  0  0  0999 V2000
  188.5530  177.5580  143.1020 C   0  0  1  0  0  3  0  0  0  0  0  0
  187.8030  177.9170  145.5110 C   0  0  0  0  0  0  0  0  0  0  0  0
  184.9990  179.1350  141.7840 C   0  0  0  0  0  2  0  0  0  0  0  0
  188.1900  177.9990  141.6720 C   0  0  1  0  0  3  0  0  0  0  0  0
  189.7980  178.1190  143.4670 O   0  0  0  0  0  0  0  0  0  0  0  0
  191.6470  177.0970  140.4910 O   0  0  0  0  0  1  0  0  0  0  0  0
  188.0140  177.0330  138.5420 C   0  0  1  0  0  3  0  0  0  0  0  0
  190.6750  177.7820  141.2240 C   0  0  2  0  0  3  0  0  0  0  0  0
  186.5880  177.5590  138.7280 C   0  0  2  0  0  3  0  0  0  0  0  0
  185.3410  179.0990  140.3550 C   0  0  0  0  0  0  0  0  0  0  0  0
  190.8260  177.4930  142.7220 C   0  0  2  0  0  3  0  0  0  0  0  0
  189.2690  177.4250  140.7270 C   0  0  2  0  0  3  0  0  0  0  0  0
  186.8040  178.1560  146.4550 C   0  0  0  0  0  3  0  0  0  0  0  0
  186.3240  178.5070  137.5750 C   0  0  0  0  0  2  0  0  0  0  0  0
  188.3730  176.9490  136.7580 S   0  0  0  0  0  0  0  0  0  0  0  0
  189.0990  177.6990  145.9640 O   0  0  0  0  0  1  0  0  0  0  0  0
  185.7050  177.8890  142.3050 C   0  0  1  0  0  3  0  0  0  0  0  0
  185.4820  178.3300  146.0540 C   0  0  0  0  0  3  0  0  0  0  0  0
  187.4910  177.8860  144.1300 C   0  0  0  0  0  0  0  0  0  0  0  0
  186.7910  177.5100  141.2730 C   0  0  1  0  0  3  0  0  0  0  0  0
  184.7650  179.8180  139.4960 O   0  0  0  0  0  0  0  0  0  0  0  0
  186.3830  178.1800  140.0430 N   0  0  0  0  0  0  0  0  0  0  0  0
  186.8320  177.8170  136.3310 C   0  0  0  0  0  2  0  0  0  0  0  0
  189.0560  179.3430  139.0380 C   0  0  0  0  0  1  0  0  0  0  0  0
  185.1530  178.2520  144.7030 C   0  0  0  0  0  3  0  0  0  0  0  0
  186.1430  178.0270  143.7360 C   0  0  0  0  0  0  0  0  0  0  0  0
  189.1140  177.8330  139.2560 C   0  0  2  0  0  3  0  0  0  0  0  0
  190.9720  176.0020  143.0480 C   0  0  0  0  0  2  0  0  0  0  0  0
  192.4300  174.6620  144.3440 F   0  0  0  0  0  0  0  0  0  0  0  0
  191.6810  175.8230  144.3750 C   0  0  0  0  0  2  0  0  0  0  0  0
  1  5  1  1  0  0  0
  1 19  1  0  0  0  0
  2 16  1  0  0  0  0
  2 13  1  0  0  0  0
  3 17  1  0  0  0  0
  4  1  1  0  0  0  0
  6  8  1  0  0  0  0
  7  9  1  0  0  0  0
  7 27  1  0  0  0  0
  8 11  1  0  0  0  0
  9 22  1  0  0  0  0
 10  3  1  0  0  0  0
 11 28  1  0  0  0  0
 11  5  1  0  0  0  0
 12  8  1  0  0  0  0
 12  4  1  0  0  0  0
 14  9  1  0  0  0  0
 15  7  1  0  0  0  0
 17 26  1  0  0  0  0
 18 13  2  0  0  0  0
 19  2  2  0  0  0  0
 20  4  1  0  0  0  0
 20 17  1  0  0  0  0
 21 10  2  0  0  0  0
 22 10  1  0  0  0  0
 22 20  1  0  0  0  0
 23 15  1  0  0  0  0
 23 14  1  0  0  0  0
 24 27  1  0  0  0  0
 25 18  1  0  0  0  0
 26 19  1  0  0  0  0
 26 25  2  0  0  0  0
 27 12  1  0  0  0  0
 28 30  1  0  0  0  0
 29 30  1  0  0  0  0
M  END
>  <MODEL>
4

>  <REMARK>
 VINA RESULT:      -7.6      2.821      4.973
  Name = 
  2 active torsions:
  status: ('A' for Active; 'I' for Inactive)
    1  A    between atoms: C_11  and  C_28
    2  A    between atoms: C_28  and  C_30
                            x       y       z     vdW  Elec       q    Type
                         _______ _______ _______ _____ _____    ______ ____

>  <TORSDO>
F 2

$$$$
=
 OpenBabel11122410243D

 30 35  0  0  1  0  0  0  0  0999 V2000
  187.4850  177.8920  141.4800 C   0  0  1  0  0  3  0  0  0  0  0  0
  189.1810  177.9150  143.3820 C   0  0  0  0  0  0  0  0  0  0  0  0
  184.5310  178.9390  144.1330 C   0  0  0  0  0  2  0  0  0  0  0  0
  186.0610  178.3820  141.1600 C   0  0  1  0  0  3  0  0  0  0  0  0
  188.4190  178.6270  140.7150 O   0  0  0  0  0  0  0  0  0  0  0  0
  186.7980  178.1890  137.4750 O   0  0  0  0  0  1  0  0  0  0  0  0
  183.2840  177.6630  139.5670 C   0  0  1  0  0  3  0  0  0  0  0  0
  186.9300  178.6330  138.7930 C   0  0  2  0  0  3  0  0  0  0  0  0
  182.7170  177.9190  140.9670 C   0  0  2  0  0  3  0  0  0  0  0  0
  183.4690  179.0810  143.1250 C   0  0  0  0  0  0  0  0  0  0  0  0
  188.3040  178.2500  139.3560 C   0  0  2  0  0  3  0  0  0  0  0  0
  185.7980  178.0820  139.6670 C   0  0  2  0  0  3  0  0  0  0  0  0
  189.4890  177.8990  144.7430 C   0  0  0  0  0  3  0  0  0  0  0  0
  181.5740  178.9000  140.7970 C   0  0  0  0  0  2  0  0  0  0  0  0
  181.9250  177.7920  138.3600 S   0  0  0  0  0  0  0  0  0  0  0  0
  190.2290  177.8860  142.4690 O   0  0  0  0  0  1  0  0  0  0  0  0
  185.3560  177.7940  143.5560 C   0  0  1  0  0  3  0  0  0  0  0  0
  188.4730  177.8760  145.6950 C   0  0  0  0  0  3  0  0  0  0  0  0
  187.8320  177.9460  142.9530 C   0  0  0  0  0  0  0  0  0  0  0  0
  185.0180  177.6940  142.0520 C   0  0  1  0  0  3  0  0  0  0  0  0
  182.4270  179.7600  143.3220 O   0  0  0  0  0  0  0  0  0  0  0  0
  183.7400  178.3840  141.9130 N   0  0  0  0  0  0  0  0  0  0  0  0
  180.7670  178.4140  139.6160 C   0  0  0  0  0  2  0  0  0  0  0  0
  184.2020  180.0690  139.3730 C   0  0  0  0  0  1  0  0  0  0  0  0
  187.1420  177.8560  145.2860 C   0  0  0  0  0  3  0  0  0  0  0  0
  186.8100  177.8850  143.9250 C   0  0  0  0  0  0  0  0  0  0  0  0
  184.4430  178.5780  139.1450 C   0  0  2  0  0  3  0  0  0  0  0  0
  188.6810  176.7850  139.1100 C   0  0  0  0  0  2  0  0  0  0  0  0
  190.8970  176.3800  139.8350 F   0  0  0  0  0  0  0  0  0  0  0  0
  190.1410  176.6780  138.7180 C   0  0  0  0  0  2  0  0  0  0  0  0
  1  5  1  6  0  0  0
  1 19  1  0  0  0  0
  2 13  1  0  0  0  0
  4  1  1  0  0  0  0
  4 20  1  0  0  0  0
  6  8  1  0  0  0  0
  7  9  1  0  0  0  0
  8 11  1  0  0  0  0
  8 12  1  0  0  0  0
  9 22  1  0  0  0  0
 10 21  2  0  0  0  0
 10  3  1  0  0  0  0
 11  5  1  0  0  0  0
 12  4  1  0  0  0  0
 13 18  2  0  0  0  0
 14  9  1  0  0  0  0
 15  7  1  0  0  0  0
 15 23  1  0  0  0  0
 16  2  1  0  0  0  0
 17 26  1  0  0  0  0
 17  3  1  0  0  0  0
 19  2  2  0  0  0  0
 19 26  1  0  0  0  0
 20 17  1  0  0  0  0
 22 20  1  0  0  0  0
 22 10  1  0  0  0  0
 23 14  1  0  0  0  0
 25 18  1  0  0  0  0
 26 25  2  0  0  0  0
 27 24  1  0  0  0  0
 27  7  1  0  0  0  0
 27 12  1  0  0  0  0
 28 11  1  0  0  0  0
 30 28  1  0  0  0  0
 30 29  1  0  0  0  0
M  END
>  <MODEL>
5

>  <REMARK>
 VINA RESULT:      -6.8      2.373      3.274
  Name = 
  2 active torsions:
  status: ('A' for Active; 'I' for Inactive)
    1  A    between atoms: C_11  and  C_28
    2  A    between atoms: C_28  and  C_30
                            x       y       z     vdW  Elec       q    Type
                         _______ _______ _______ _____ _____    ______ ____

>  <TORSDO>
F 2

$$$$
=
 OpenBabel11122410243D

 30 35  0  0  1  0  0  0  0  0999 V2000
  188.3800  177.6010  145.2620 C   0  0  1  0  0  3  0  0  0  0  0  0
  186.6000  178.2060  146.9820 C   0  0  0  0  0  0  0  0  0  0  0  0
  185.8520  178.8000  142.2560 C   0  0  0  0  0  2  0  0  0  0  0  0
  188.7240  177.8440  143.7810 C   0  0  1  0  0  3  0  0  0  0  0  0
  189.3160  178.2730  146.0800 O   0  0  0  0  0  0  0  0  0  0  0  0
  192.3300  177.0050  144.4580 O   0  0  0  0  0  1  0  0  0  0  0  0
  190.0160  176.4960  141.0830 C   0  0  1  0  0  3  0  0  0  0  0  0
  191.1320  177.7170  144.5610 C   0  0  2  0  0  3  0  0  0  0  0  0
  188.6690  176.9580  140.5180 C   0  0  2  0  0  3  0  0  0  0  0  0
  186.8180  178.6090  141.1650 C   0  0  0  0  0  0  0  0  0  0  0  0
  190.5690  177.6210  145.9840 C   0  0  2  0  0  3  0  0  0  0  0  0
  190.1160  177.2220  143.5260 C   0  0  2  0  0  3  0  0  0  0  0  0
  185.2780  178.5010  147.3180 C   0  0  0  0  0  3  0  0  0  0  0  0
  188.9760  177.7420  139.2580 C   0  0  0  0  0  2  0  0  0  0  0  0
  191.1610  176.2170  139.6940 S   0  0  0  0  0  0  0  0  0  0  0  0
  187.5360  178.1200  148.0060 O   0  0  0  0  0  1  0  0  0  0  0  0
  186.2300  177.6690  143.2060 C   0  0  1  0  0  3  0  0  0  0  0  0
  184.2940  178.5480  146.3340 C   0  0  0  0  0  3  0  0  0  0  0  0
  186.9640  177.9900  145.6310 C   0  0  0  0  0  0  0  0  0  0  0  0
  187.6680  177.2300  142.8520 C   0  0  1  0  0  3  0  0  0  0  0  0
  186.7110  179.1850  140.0500 O   0  0  0  0  0  0  0  0  0  0  0  0
  187.8810  177.7210  141.4950 N   0  0  0  0  0  0  0  0  0  0  0  0
  190.0000  176.9360  138.4930 C   0  0  0  0  0  2  0  0  0  0  0  0
  190.7210  178.9050  141.6880 C   0  0  0  0  0  1  0  0  0  0  0  0
  184.6290  178.2880  145.0070 C   0  0  0  0  0  3  0  0  0  0  0  0
  185.9540  178.0050  144.6450 C   0  0  0  0  0  0  0  0  0  0  0  0
  190.6630  177.4380  142.1090 C   0  0  2  0  0  3  0  0  0  0  0  0
  190.5390  176.1920  146.5370 C   0  0  0  0  0  2  0  0  0  0  0  0
  192.6690  175.2790  147.0170 F   0  0  0  0  0  0  0  0  0  0  0  0
  191.6330  176.0060  147.5700 C   0  0  0  0  0  2  0  0  0  0  0  0
  1 19  1  6  0  0  0
  1  5  1  0  0  0  0
  2 13  1  0  0  0  0
  2 16  1  0  0  0  0
  3 17  1  0  0  0  0
  4  1  1  0  0  0  0
  6  8  1  0  0  0  0
  7 27  1  0  0  0  0
  8 11  1  0  0  0  0
  9  7  1  0  0  0  0
  9 22  1  0  0  0  0
 10 22  1  0  0  0  0
 10  3  1  0  0  0  0
 11  5  1  0  0  0  0
 11 28  1  0  0  0  0
 12  4  1  0  0  0  0
 12  8  1  0  0  0  0
 14  9  1  0  0  0  0
 15  7  1  0  0  0  0
 17 26  1  0  0  0  0
 18 13  2  0  0  0  0
 19  2  2  0  0  0  0
 20 17  1  0  0  0  0
 20  4  1  0  0  0  0
 21 10  2  0  0  0  0
 22 20  1  0  0  0  0
 23 14  1  0  0  0  0
 23 15  1  0  0  0  0
 24 27  1  0  0  0  0
 25 18  1  0  0  0  0
 26 25  2  0  0  0  0
 26 19  1  0  0  0  0
 27 12  1  0  0  0  0
 28 30  1  0  0  0  0
 29 30  1  0  0  0  0
M  END
>  <MODEL>
6

>  <REMARK>
 VINA RESULT:      -6.7      2.621      5.723
  Name = 
  2 active torsions:
  status: ('A' for Active; 'I' for Inactive)
    1  A    between atoms: C_11  and  C_28
    2  A    between atoms: C_28  and  C_30
                            x       y       z     vdW  Elec       q    Type
                         _______ _______ _______ _____ _____    ______ ____

>  <TORSDO>
F 2

$$$$
