=
 OpenBabel11122410313D

 30 35  0  0  1  0  0  0  0  0999 V2000
  189.1110  177.1570  143.2810 C   0  0  2  0  0  3  0  0  0  0  0  0
  191.0990  176.8520  144.7680 C   0  0  1  0  0  3  0  0  0  0  0  0
  186.9810  178.3800  146.6270 O   0  0  0  0  0  0  0  0  0  0  0  0
  187.5910  177.3850  143.1320 C   0  0  2  0  0  3  0  0  0  0  0  0
  189.6460  176.5600  141.9880 C   0  0  0  0  0  2  0  0  0  0  0  0
  187.5220  178.3710  139.7220 O   0  0  0  0  0  0  0  0  0  0  0  0
  184.7870  177.9450  142.3730 C   0  0  1  0  0  3  0  0  0  0  0  0
  188.0460  178.1220  140.8000 C   0  0  0  0  0  0  0  0  0  0  0  0
  184.5130  178.0970  143.8670 C   0  0  2  0  0  3  0  0  0  0  0  0
  185.7640  178.6780  146.0280 C   0  0  0  0  0  0  0  0  0  0  0  0
  189.4570  177.5610  140.8410 C   0  0  2  0  0  3  0  0  0  0  0  0
  187.3560  178.5000  142.0990 C   0  0  1  0  0  3  0  0  0  0  0  0
  191.5800  176.7140  146.2040 C   0  0  0  0  0  2  0  0  0  0  0  0
  183.5050  179.2220  143.9680 C   0  0  0  0  0  2  0  0  0  0  0  0
  183.4610  178.2880  141.7080 C   0  0  0  0  0  2  0  0  0  0  0  0
  191.9070  176.0760  143.9370 O   0  0  0  0  0  1  0  0  0  0  0  0
  187.8740  178.0070  145.5910 C   0  0  2  0  0  3  0  0  0  0  0  0
  190.7320  177.5120  147.0730 N   0  0  0  0  0  2  0  0  0  0  0  0
  189.6190  176.4580  144.5830 C   0  0  1  0  0  3  0  0  0  0  0  0
  186.9320  177.5690  144.4990 C   0  0  1  0  0  3  0  0  0  0  0  0
  184.7770  179.1240  146.6690 O   0  0  0  0  0  0  0  0  0  0  0  0
  185.7300  178.3730  144.6340 N   0  0  0  0  0  0  0  0  0  0  0  0
  182.6650  179.1170  142.7070 C   0  0  0  0  0  2  0  0  0  0  0  0
  185.6340  179.9510  141.4090 O   0  0  0  0  0  0  0  0  0  0  0  0
  189.4660  176.8030  147.1820 C   0  0  0  0  0  2  0  0  0  0  0  0
  188.7320  176.7810  145.8390 C   0  0  1  0  0  3  0  0  0  0  0  0
  185.9000  178.8620  141.8990 C   0  0  0  0  0  0  0  0  0  0  0  0
  189.8010  176.9240  139.5780 N   0  0  0  0  0  2  0  0  0  0  0  0
  191.6740  176.2320  138.2080 C   0  0  0  0  0  1  0  0  0  0  0  0
  191.2460  176.9940  139.4440 C   0  0  0  0  0  2  0  0  0  0  0  0
  1  5  1  6  0  0  0
  1 19  1  0  0  0  0
  2 16  1  6  0  0  0
  2 13  1  0  0  0  0
  4  1  1  0  0  0  0
  4 20  1  0  0  0  0
  6  8  2  0  0  0  0
  7  9  1  0  0  0  0
  8 11  1  0  0  0  0
  8 12  1  0  0  0  0
  9 14  1  0  0  0  0
  9 22  1  0  0  0  0
 10  3  1  0  0  0  0
 10 21  2  0  0  0  0
 11  5  1  0  0  0  0
 12  4  1  0  0  0  0
 13 18  1  0  0  0  0
 15  7  1  0  0  0  0
 15 23  1  0  0  0  0
 17 26  1  0  0  0  0
 17  3  1  0  0  0  0
 18 25  1  0  0  0  0
 19  2  1  0  0  0  0
 19 26  1  0  0  0  0
 20 22  1  0  0  0  0
 20 17  1  0  0  0  0
 22 10  1  0  0  0  0
 23 14  1  0  0  0  0
 24 27  2  0  0  0  0
 26 25  1  0  0  0  0
 27 12  1  0  0  0  0
 27  7  1  0  0  0  0
 28 11  1  0  0  0  0
 29 30  1  0  0  0  0
 30 28  1  0  0  0  0
M  END
>  <MODEL>
1

>  <REMARK>
 VINA RESULT:     -10.6      0.000      0.000
  Name = 
  2 active torsions:
  status: ('A' for Active; 'I' for Inactive)
    1  A    between atoms: C_11  and  N_28
    2  A    between atoms: N_28  and  C_30
                            x       y       z     vdW  Elec       q    Type
                         _______ _______ _______ _____ _____    ______ ____

>  <TORSDO>
F 2

$$$$
=
 OpenBabel11122410313D

 30 35  0  0  1  0  0  0  0  0999 V2000
  188.6300  177.3450  143.8680 C   0  0  2  0  0  3  0  0  0  0  0  0
  190.1510  177.3120  145.8540 C   0  0  1  0  0  3  0  0  0  0  0  0
  185.6280  178.7330  146.3750 O   0  0  0  0  0  0  0  0  0  0  0  0
  187.2010  177.4580  143.2970 C   0  0  2  0  0  3  0  0  0  0  0  0
  189.5180  176.6670  142.8360 C   0  0  0  0  0  2  0  0  0  0  0  0
  188.0210  178.1140  139.9060 O   0  0  0  0  0  0  0  0  0  0  0  0
  184.6880  177.7590  141.7630 C   0  0  1  0  0  3  0  0  0  0  0  0
  188.2430  178.0020  141.1040 C   0  0  0  0  0  0  0  0  0  0  0  0
  184.0140  178.0320  143.1060 C   0  0  2  0  0  3  0  0  0  0  0  0
  184.6080  178.8930  145.4460 C   0  0  0  0  0  0  0  0  0  0  0  0
  189.6090  177.5420  141.5800 C   0  0  2  0  0  3  0  0  0  0  0  0
  187.2120  178.4530  142.1250 C   0  0  1  0  0  3  0  0  0  0  0  0
  190.2290  177.3400  147.3720 C   0  0  0  0  0  2  0  0  0  0  0  0
  182.9740  179.0930  142.8130 C   0  0  0  0  0  2  0  0  0  0  0  0
  183.5800  177.9500  140.7370 C   0  0  0  0  0  2  0  0  0  0  0  0
  191.1830  176.5170  145.3570 O   0  0  0  0  0  1  0  0  0  0  0  0
  186.7820  178.3250  145.6610 C   0  0  2  0  0  3  0  0  0  0  0  0
  189.1480  178.1590  147.8940 N   0  0  0  0  0  2  0  0  0  0  0  0
  188.7930  176.8060  145.3260 C   0  0  1  0  0  3  0  0  0  0  0  0
  186.1890  177.7250  144.4110 C   0  0  1  0  0  3  0  0  0  0  0  0
  183.4680  179.3310  145.7500 O   0  0  0  0  0  0  0  0  0  0  0  0
  184.9660  178.4580  144.1350 N   0  0  0  0  0  0  0  0  0  0  0  0
  182.5120  178.8160  141.3930 C   0  0  0  0  0  2  0  0  0  0  0  0
  185.6880  179.7180  140.8490 O   0  0  0  0  0  0  0  0  0  0  0  0
  187.9280  177.3820  147.7380 C   0  0  0  0  0  2  0  0  0  0  0  0
  187.5860  177.1860  146.2590 C   0  0  1  0  0  3  0  0  0  0  0  0
  185.8520  178.6990  141.5070 C   0  0  0  0  0  0  0  0  0  0  0  0
  190.3080  176.8140  140.5300 N   0  0  0  0  0  2  0  0  0  0  0  0
  192.2820  176.8680  139.1290 C   0  0  0  0  0  1  0  0  0  0  0  0
  191.5860  177.4740  140.3280 C   0  0  0  0  0  2  0  0  0  0  0  0
  1  5  1  6  0  0  0
  1 19  1  0  0  0  0
  2 16  1  6  0  0  0
  2 13  1  0  0  0  0
  4  1  1  0  0  0  0
  4 20  1  0  0  0  0
  6  8  2  0  0  0  0
  7  9  1  0  0  0  0
  8 11  1  0  0  0  0
  8 12  1  0  0  0  0
  9 22  1  0  0  0  0
 10 21  2  0  0  0  0
 10  3  1  0  0  0  0
 11  5  1  0  0  0  0
 12  4  1  0  0  0  0
 13 18  1  0  0  0  0
 14  9  1  0  0  0  0
 15 23  1  0  0  0  0
 15  7  1  0  0  0  0
 17 26  1  0  0  0  0
 17  3  1  0  0  0  0
 19  2  1  0  0  0  0
 19 26  1  0  0  0  0
 20 17  1  0  0  0  0
 22 20  1  0  0  0  0
 22 10  1  0  0  0  0
 23 14  1  0  0  0  0
 24 27  2  0  0  0  0
 25 18  1  0  0  0  0
 26 25  1  0  0  0  0
 27  7  1  0  0  0  0
 27 12  1  0  0  0  0
 28 11  1  0  0  0  0
 29 30  1  0  0  0  0
 30 28  1  0  0  0  0
M  END
>  <MODEL>
2

>  <REMARK>
 VINA RESULT:     -10.2      1.037      1.158
  Name = 
  2 active torsions:
  status: ('A' for Active; 'I' for Inactive)
    1  A    between atoms: C_11  and  N_28
    2  A    between atoms: N_28  and  C_30
                            x       y       z     vdW  Elec       q    Type
                         _______ _______ _______ _____ _____    ______ ____

>  <TORSDO>
F 2

$$$$
=
 OpenBabel11122410313D

 30 35  0  0  1  0  0  0  0  0999 V2000
  187.2140  178.2460  141.1360 C   0  0  2  0  0  3  0  0  0  0  0  0
  184.8740  178.6000  140.3250 C   0  0  1  0  0  3  0  0  0  0  0  0
  185.6650  177.8170  144.9620 O   0  0  0  0  0  0  0  0  0  0  0  0
  188.2060  178.1460  142.3140 C   0  0  2  0  0  3  0  0  0  0  0  0
  187.9910  178.5630  139.8660 C   0  0  0  0  0  2  0  0  0  0  0  0
  190.9180  176.6140  140.6120 O   0  0  0  0  0  0  0  0  0  0  0  0
  190.4160  177.7440  144.2400 C   0  0  1  0  0  3  0  0  0  0  0  0
  189.7620  176.9880  140.7570 C   0  0  0  0  0  0  0  0  0  0  0  0
  189.3590  177.8730  145.3340 C   0  0  2  0  0  3  0  0  0  0  0  0
  186.8370  177.5420  145.6550 C   0  0  0  0  0  0  0  0  0  0  0  0
  188.9470  177.4070  139.5460 C   0  0  2  0  0  3  0  0  0  0  0  0
  189.0880  176.9030  142.1150 C   0  0  1  0  0  3  0  0  0  0  0  0
  183.4450  178.9290  140.7260 C   0  0  0  0  0  2  0  0  0  0  0  0
  189.7790  176.8840  146.4010 C   0  0  0  0  0  2  0  0  0  0  0  0
  191.7020  177.4270  144.9900 C   0  0  0  0  0  2  0  0  0  0  0  0
  185.1320  179.1430  139.0660 O   0  0  0  0  0  1  0  0  0  0  0  0
  186.0070  177.9200  143.5910 C   0  0  2  0  0  3  0  0  0  0  0  0
  183.1770  178.3750  142.0430 N   0  0  0  0  0  2  0  0  0  0  0  0
  185.9210  179.1000  141.3400 C   0  0  1  0  0  3  0  0  0  0  0  0
  187.4750  178.2600  143.6510 C   0  0  1  0  0  3  0  0  0  0  0  0
  186.8630  177.3090  146.8920 O   0  0  0  0  0  0  0  0  0  0  0  0
  188.0060  177.6110  144.8380 N   0  0  0  0  0  0  0  0  0  0  0  0
  191.2960  176.8580  146.3440 C   0  0  0  0  0  2  0  0  0  0  0  0
  190.5380  175.5320  143.3670 O   0  0  0  0  0  0  0  0  0  0  0  0
  183.8870  179.2130  142.9970 C   0  0  0  0  0  2  0  0  0  0  0  0
  185.4020  179.0810  142.8240 C   0  0  1  0  0  3  0  0  0  0  0  0
  190.0740  176.6560  143.2380 C   0  0  0  0  0  0  0  0  0  0  0  0
  189.8140  177.7860  138.4400 N   0  0  0  0  0  2  0  0  0  0  0  0
  188.8540  178.0140  136.2290 C   0  0  0  0  0  1  0  0  0  0  0  0
  189.0490  178.6700  137.5790 C   0  0  0  0  0  2  0  0  0  0  0  0
  1  5  1  6  0  0  0
  1 19  1  0  0  0  0
  1  4  1  0  0  0  0
  2 16  1  6  0  0  0
  2 13  1  0  0  0  0
  2 19  1  0  0  0  0
  3 10  1  0  0  0  0
  4 20  1  0  0  0  0
  6  8  2  0  0  0  0
  7 15  1  0  0  0  0
  7  9  1  0  0  0  0
  8 12  1  0  0  0  0
  9 14  1  0  0  0  0
 10 21  2  0  0  0  0
 11  5  1  0  0  0  0
 11  8  1  0  0  0  0
 12  4  1  0  0  0  0
 12 27  1  0  0  0  0
 13 18  1  0  0  0  0
 15 23  1  0  0  0  0
 17 20  1  0  0  0  0
 17  3  1  0  0  0  0
 18 25  1  0  0  0  0
 19 26  1  0  0  0  0
 20 22  1  0  0  0  0
 22  9  1  0  0  0  0
 22 10  1  0  0  0  0
 23 14  1  0  0  0  0
 26 25  1  0  0  0  0
 26 17  1  0  0  0  0
 27 24  2  0  0  0  0
 27  7  1  0  0  0  0
 28 11  1  0  0  0  0
 29 30  1  0  0  0  0
 30 28  1  0  0  0  0
M  END
>  <MODEL>
3

>  <REMARK>
 VINA RESULT:      -9.7      1.807      5.474
  Name = 
  2 active torsions:
  status: ('A' for Active; 'I' for Inactive)
    1  A    between atoms: C_11  and  N_28
    2  A    between atoms: N_28  and  C_30
                            x       y       z     vdW  Elec       q    Type
                         _______ _______ _______ _____ _____    ______ ____

>  <TORSDO>
F 2

$$$$
=
 OpenBabel11122410313D

 30 35  0  0  1  0  0  0  0  0999 V2000
  187.1240  177.9500  144.7120 C   0  0  2  0  0  3  0  0  0  0  0  0
  184.9010  178.7960  145.4870 C   0  0  1  0  0  3  0  0  0  0  0  0
  185.9870  178.9420  140.8450 O   0  0  0  0  0  0  0  0  0  0  0  0
  188.0450  177.5190  143.5510 C   0  0  2  0  0  3  0  0  0  0  0  0
  187.6480  177.3420  146.0040 C   0  0  0  0  0  2  0  0  0  0  0  0
  191.1540  177.6120  145.2610 O   0  0  0  0  0  0  0  0  0  0  0  0
  190.1820  176.7410  141.6570 C   0  0  1  0  0  3  0  0  0  0  0  0
  189.9620  177.8370  145.1040 C   0  0  0  0  0  0  0  0  0  0  0  0
  189.1970  177.1010  140.5470 C   0  0  2  0  0  3  0  0  0  0  0  0
  187.1480  178.5940  140.1680 C   0  0  0  0  0  0  0  0  0  0  0  0
  189.0420  177.9040  146.3100 C   0  0  2  0  0  3  0  0  0  0  0  0
  189.4170  178.1900  143.7310 C   0  0  1  0  0  3  0  0  0  0  0  0
  183.4920  179.1820  145.0670 C   0  0  0  0  0  2  0  0  0  0  0  0
  190.0450  177.7270  139.4610 C   0  0  0  0  0  2  0  0  0  0  0  0
  191.4630  176.3740  140.9230 C   0  0  0  0  0  2  0  0  0  0  0  0
  184.8610  178.2390  146.7650 O   0  0  0  0  0  1  0  0  0  0  0  0
  186.2320  178.7330  142.2260 C   0  0  2  0  0  3  0  0  0  0  0  0
  183.5280  179.7520  143.7310 N   0  0  0  0  0  2  0  0  0  0  0  0
  185.5800  177.8180  144.5070 C   0  0  1  0  0  3  0  0  0  0  0  0
  187.3540  177.7270  142.2030 C   0  0  1  0  0  3  0  0  0  0  0  0
  187.2870  178.7440  138.9260 O   0  0  0  0  0  0  0  0  0  0  0  0
  188.1360  177.9990  141.0090 N   0  0  0  0  0  0  0  0  0  0  0  0
  191.3870  177.0210  139.5470 C   0  0  0  0  0  2  0  0  0  0  0  0
  191.3530  178.6490  142.4700 O   0  0  0  0  0  0  0  0  0  0  0  0
  183.7500  178.6440  142.8140 C   0  0  0  0  0  2  0  0  0  0  0  0
  185.1400  178.0350  143.0130 C   0  0  1  0  0  3  0  0  0  0  0  0
  190.4030  177.8930  142.6210 C   0  0  0  0  0  0  0  0  0  0  0  0
  189.6150  177.1920  147.4430 N   0  0  0  0  0  2  0  0  0  0  0  0
  188.0390  178.1030  149.0410 C   0  0  0  0  0  1  0  0  0  0  0  0
  189.4870  178.0580  148.6030 C   0  0  0  0  0  2  0  0  0  0  0  0
  1  5  1  1  0  0  0
  2 16  1  1  0  0  0
  3 17  1  0  0  0  0
  4 12  1  0  0  0  0
  4  1  1  0  0  0  0
  5 11  1  0  0  0  0
  7 27  1  0  0  0  0
  8  6  2  0  0  0  0
  8 11  1  0  0  0  0
  9 22  1  0  0  0  0
  9  7  1  0  0  0  0
 10  3  1  0  0  0  0
 10 22  1  0  0  0  0
 11 28  1  0  0  0  0
 12  8  1  0  0  0  0
 13  2  1  0  0  0  0
 14 23  1  0  0  0  0
 14  9  1  0  0  0  0
 15  7  1  0  0  0  0
 17 26  1  0  0  0  0
 18 13  1  0  0  0  0
 19  1  1  0  0  0  0
 19  2  1  0  0  0  0
 20 17  1  0  0  0  0
 20  4  1  0  0  0  0
 21 10  2  0  0  0  0
 22 20  1  0  0  0  0
 23 15  1  0  0  0  0
 24 27  2  0  0  0  0
 25 26  1  0  0  0  0
 25 18  1  0  0  0  0
 26 19  1  0  0  0  0
 27 12  1  0  0  0  0
 28 30  1  0  0  0  0
 30 29  1  0  0  0  0
M  END
>  <MODEL>
4

>  <REMARK>
 VINA RESULT:      -9.4      1.476      6.533
  Name = 
  2 active torsions:
  status: ('A' for Active; 'I' for Inactive)
    1  A    between atoms: C_11  and  N_28
    2  A    between atoms: N_28  and  C_30
                            x       y       z     vdW  Elec       q    Type
                         _______ _______ _______ _____ _____    ______ ____

>  <TORSDO>
F 2

$$$$
=
 OpenBabel11122410313D

 30 35  0  0  1  0  0  0  0  0999 V2000
  188.4200  177.5110  143.7370 C   0  0  2  0  0  3  0  0  0  0  0  0
  186.6660  178.4300  145.2650 C   0  0  1  0  0  3  0  0  0  0  0  0
  186.1740  178.9270  140.5470 O   0  0  0  0  0  0  0  0  0  0  0  0
  188.8630  177.1260  142.3090 C   0  0  2  0  0  3  0  0  0  0  0  0
  189.2800  176.7530  144.7370 C   0  0  0  0  0  2  0  0  0  0  0  0
  192.3560  176.8510  142.8800 O   0  0  0  0  0  0  0  0  0  0  0  0
  190.1750  176.3820  139.7640 C   0  0  1  0  0  3  0  0  0  0  0  0
  191.2050  177.1700  143.1470 C   0  0  0  0  0  0  0  0  0  0  0  0
  188.9180  176.9070  139.0730 C   0  0  2  0  0  3  0  0  0  0  0  0
  187.0090  178.5640  139.4990 C   0  0  0  0  0  0  0  0  0  0  0  0
  190.7430  177.1890  144.5930 C   0  0  2  0  0  3  0  0  0  0  0  0
  190.2740  177.6830  142.0610 C   0  0  1  0  0  3  0  0  0  0  0  0
  185.2390  178.9480  145.3670 C   0  0  0  0  0  2  0  0  0  0  0  0
  189.4170  177.5710  137.8070 C   0  0  0  0  0  2  0  0  0  0  0  0
  191.1030  175.9970  138.6200 C   0  0  0  0  0  2  0  0  0  0  0  0
  186.9960  177.7630  146.4440 O   0  0  0  0  0  1  0  0  0  0  0  0
  186.8380  178.5770  141.7490 C   0  0  2  0  0  3  0  0  0  0  0  0
  184.8880  179.6340  144.1350 N   0  0  0  0  0  2  0  0  0  0  0  0
  186.8890  177.5030  144.0530 C   0  0  1  0  0  3  0  0  0  0  0  0
  187.7900  177.5030  141.2870 C   0  0  1  0  0  3  0  0  0  0  0  0
  186.7460  178.8170  138.2940 O   0  0  0  0  0  0  0  0  0  0  0  0
  188.1580  177.8290  139.9200 N   0  0  0  0  0  0  0  0  0  0  0  0
  190.6390  176.7710  137.3930 C   0  0  0  0  0  2  0  0  0  0  0  0
  191.7220  178.1230  140.2560 O   0  0  0  0  0  0  0  0  0  0  0  0
  184.6900  178.6020  143.1280 C   0  0  0  0  0  2  0  0  0  0  0  0
  186.0050  177.8850  142.8110 C   0  0  1  0  0  3  0  0  0  0  0  0
  190.8080  177.4230  140.6680 C   0  0  0  0  0  0  0  0  0  0  0  0
  191.5870  176.3390  145.4200 N   0  0  0  0  0  2  0  0  0  0  0  0
  192.0600  175.7400  147.7190 C   0  0  0  0  0  1  0  0  0  0  0  0
  191.3410  176.7080  146.8040 C   0  0  0  0  0  2  0  0  0  0  0  0
  1 19  1  0  0  0  0
  1  5  1  1  0  0  0
  2 13  1  0  0  0  0
  2 16  1  1  0  0  0
  3 17  1  0  0  0  0
  4  1  1  0  0  0  0
  6  8  2  0  0  0  0
  7 27  1  0  0  0  0
  8 11  1  0  0  0  0
  9  7  1  0  0  0  0
  9 22  1  0  0  0  0
 10 22  1  0  0  0  0
 10  3  1  0  0  0  0
 11  5  1  0  0  0  0
 11 28  1  0  0  0  0
 12  4  1  0  0  0  0
 12  8  1  0  0  0  0
 14  9  1  0  0  0  0
 15  7  1  0  0  0  0
 17 26  1  0  0  0  0
 18 13  1  0  0  0  0
 19  2  1  0  0  0  0
 20 17  1  0  0  0  0
 20  4  1  0  0  0  0
 21 10  2  0  0  0  0
 22 20  1  0  0  0  0
 23 14  1  0  0  0  0
 23 15  1  0  0  0  0
 24 27  2  0  0  0  0
 25 18  1  0  0  0  0
 26 25  1  0  0  0  0
 26 19  1  0  0  0  0
 27 12  1  0  0  0  0
 28 30  1  0  0  0  0
 30 29  1  0  0  0  0
M  END
>  <MODEL>
5

>  <REMARK>
 VINA RESULT:      -9.2      1.548      6.050
  Name = 
  2 active torsions:
  status: ('A' for Active; 'I' for Inactive)
    1  A    between atoms: C_11  and  N_28
    2  A    between atoms: N_28  and  C_30
                            x       y       z     vdW  Elec       q    Type
                         _______ _______ _______ _____ _____    ______ ____

>  <TORSDO>
F 2

$$$$
=
 OpenBabel11122410313D

 30 35  0  0  1  0  0  0  0  0999 V2000
  189.7010  177.7240  142.4710 C   0  0  2  0  0  3  0  0  0  0  0  0
  191.0240  177.2300  140.4070 C   0  0  1  0  0  3  0  0  0  0  0  0
  186.3450  178.0850  140.0550 O   0  0  0  0  0  0  0  0  0  0  0  0
  188.3920  178.2280  143.1160 C   0  0  2  0  0  3  0  0  0  0  0  0
  190.8230  177.8300  143.4930 C   0  0  0  0  0  2  0  0  0  0  0  0
  188.8890  176.9780  146.4010 O   0  0  0  0  0  0  0  0  0  0  0  0
  186.0550  178.9760  144.7690 C   0  0  1  0  0  3  0  0  0  0  0  0
  189.1120  177.0800  145.2030 C   0  0  0  0  0  0  0  0  0  0  0  0
  185.3030  179.1590  143.4530 C   0  0  2  0  0  3  0  0  0  0  0  0
  185.3860  178.3270  141.0300 C   0  0  0  0  0  0  0  0  0  0  0  0
  190.5270  176.9050  144.6800 C   0  0  2  0  0  3  0  0  0  0  0  0
  187.9690  177.2400  144.2150 C   0  0  1  0  0  3  0  0  0  0  0  0
  191.0500  177.3010  138.8880 C   0  0  0  0  0  2  0  0  0  0  0  0
  183.8980  178.6700  143.7340 C   0  0  0  0  0  2  0  0  0  0  0  0
  185.0050  179.2250  145.8430 C   0  0  0  0  0  2  0  0  0  0  0  0
  192.3170  177.4200  140.8950 O   0  0  0  0  0  1  0  0  0  0  0  0
  187.5720  177.8560  140.7270 C   0  0  2  0  0  3  0  0  0  0  0  0
  189.7020  177.1160  138.3760 N   0  0  0  0  0  2  0  0  0  0  0  0
  190.0630  178.2530  141.0460 C   0  0  1  0  0  3  0  0  0  0  0  0
  187.3480  178.5500  142.0470 C   0  0  1  0  0  3  0  0  0  0  0  0
  184.1660  178.4870  140.7640 O   0  0  0  0  0  0  0  0  0  0  0  0
  185.9310  178.4360  142.3440 N   0  0  0  0  0  0  0  0  0  0  0  0
  183.6460  179.0030  145.1940 C   0  0  0  0  0  2  0  0  0  0  0  0
  186.0610  176.7070  145.4900 O   0  0  0  0  0  0  0  0  0  0  0  0
  188.9800  178.3470  138.6550 C   0  0  0  0  0  2  0  0  0  0  0  0
  188.7980  178.5490  140.1620 C   0  0  1  0  0  3  0  0  0  0  0  0
  186.6610  177.5900  144.8940 C   0  0  0  0  0  0  0  0  0  0  0  0
  191.5040  177.1390  145.7340 N   0  0  0  0  0  2  0  0  0  0  0  0
  192.0740  175.7190  147.6110 C   0  0  0  0  0  1  0  0  0  0  0  0
  192.0550  175.8460  146.1030 C   0  0  0  0  0  2  0  0  0  0  0  0
  1  4  1  0  0  0  0
  1  5  1  1  0  0  0
  2 16  1  1  0  0  0
  2 19  1  0  0  0  0
  3 17  1  0  0  0  0
  3 10  1  0  0  0  0
  4 12  1  0  0  0  0
  5 11  1  0  0  0  0
  7 27  1  0  0  0  0
  7 15  1  0  0  0  0
  8  6  2  0  0  0  0
  9 14  1  0  0  0  0
  9  7  1  0  0  0  0
 10 22  1  0  0  0  0
 11  8  1  0  0  0  0
 11 28  1  0  0  0  0
 12 27  1  0  0  0  0
 12  8  1  0  0  0  0
 13  2  1  0  0  0  0
 14 23  1  0  0  0  0
 17 20  1  0  0  0  0
 18 25  1  0  0  0  0
 18 13  1  0  0  0  0
 19  1  1  0  0  0  0
 20 22  1  0  0  0  0
 20  4  1  0  0  0  0
 21 10  2  0  0  0  0
 22  9  1  0  0  0  0
 23 15  1  0  0  0  0
 25 26  1  0  0  0  0
 26 17  1  0  0  0  0
 26 19  1  0  0  0  0
 27 24  2  0  0  0  0
 28 30  1  0  0  0  0
 30 29  1  0  0  0  0
M  END
>  <MODEL>
6

>  <REMARK>
 VINA RESULT:      -8.5      1.535      5.107
  Name = 
  2 active torsions:
  status: ('A' for Active; 'I' for Inactive)
    1  A    between atoms: C_11  and  N_28
    2  A    between atoms: N_28  and  C_30
                            x       y       z     vdW  Elec       q    Type
                         _______ _______ _______ _____ _____    ______ ____

>  <TORSDO>
F 2

$$$$
=
 OpenBabel11122410313D

 30 35  0  0  1  0  0  0  0  0999 V2000
  185.8430  178.2730  142.4420 C   0  0  2  0  0  3  0  0  0  0  0  0
  186.2520  178.5960  139.9950 C   0  0  1  0  0  3  0  0  0  0  0  0
  189.9590  178.2210  142.9720 O   0  0  0  0  0  0  0  0  0  0  0  0
  186.3910  177.9160  143.8400 C   0  0  2  0  0  3  0  0  0  0  0  0
  184.3350  178.0680  142.4400 C   0  0  0  0  0  2  0  0  0  0  0  0
  183.7100  179.1580  145.8070 O   0  0  0  0  0  0  0  0  0  0  0  0
  187.0180  177.4360  146.6920 C   0  0  1  0  0  3  0  0  0  0  0  0
  184.3700  179.0150  144.7870 C   0  0  0  0  0  0  0  0  0  0  0  0
  188.4740  177.3110  146.2520 C   0  0  2  0  0  3  0  0  0  0  0  0
  190.0110  178.0920  144.3540 C   0  0  0  0  0  0  0  0  0  0  0  0
  183.6830  179.0370  143.4340 C   0  0  2  0  0  3  0  0  0  0  0  0
  185.8870  178.9590  144.8510 C   0  0  1  0  0  3  0  0  0  0  0  0
  187.2720  178.5000  138.8720 C   0  0  0  0  0  2  0  0  0  0  0  0
  189.2760  177.9460  147.3680 C   0  0  0  0  0  2  0  0  0  0  0  0
  187.0680  177.3140  148.2080 C   0  0  0  0  0  2  0  0  0  0  0  0
  184.9880  178.2820  139.4940 O   0  0  0  0  0  1  0  0  0  0  0  0
  188.5920  178.3320  142.6160 C   0  0  2  0  0  3  0  0  0  0  0  0
  188.5910  178.8140  139.3940 N   0  0  0  0  0  2  0  0  0  0  0  0
  186.5830  177.6870  141.1960 C   0  0  1  0  0  3  0  0  0  0  0  0
  187.9010  177.6860  143.7900 C   0  0  1  0  0  3  0  0  0  0  0  0
  191.0920  178.0550  144.9980 O   0  0  0  0  0  0  0  0  0  0  0  0
  188.7250  177.9490  144.9570 N   0  0  0  0  0  0  0  0  0  0  0  0
  188.4880  177.6630  148.6340 C   0  0  0  0  0  2  0  0  0  0  0  0
  186.3760  179.7040  147.0310 O   0  0  0  0  0  0  0  0  0  0  0  0
  189.0080  177.6670  140.1870 C   0  0  0  0  0  2  0  0  0  0  0  0
  188.1280  177.5090  141.4290 C   0  0  1  0  0  3  0  0  0  0  0  0
  186.4010  178.7550  146.2600 C   0  0  0  0  0  0  0  0  0  0  0  0
  182.2680  178.7200  143.5630 N   0  0  0  0  0  2  0  0  0  0  0  0
  180.3400  179.7050  142.4780 C   0  0  0  0  0  1  0  0  0  0  0  0
  181.6510  178.9770  142.2740 C   0  0  0  0  0  2  0  0  0  0  0  0
  1  5  1  1  0  0  0
  1  4  1  0  0  0  0
  2 16  1  6  0  0  0
  2 19  1  0  0  0  0
  3 10  1  0  0  0  0
  4 12  1  0  0  0  0
  5 11  1  0  0  0  0
  7 15  1  0  0  0  0
  8 12  1  0  0  0  0
  8  6  2  0  0  0  0
  9  7  1  0  0  0  0
  9 14  1  0  0  0  0
 10 22  1  0  0  0  0
 10 21  2  0  0  0  0
 11 28  1  0  0  0  0
 11  8  1  0  0  0  0
 12 27  1  0  0  0  0
 13 18  1  0  0  0  0
 13  2  1  0  0  0  0
 14 23  1  0  0  0  0
 15 23  1  0  0  0  0
 17  3  1  0  0  0  0
 17 20  1  0  0  0  0
 18 25  1  0  0  0  0
 19 26  1  0  0  0  0
 19  1  1  0  0  0  0
 20  4  1  0  0  0  0
 20 22  1  0  0  0  0
 22  9  1  0  0  0  0
 25 26  1  0  0  0  0
 26 17  1  0  0  0  0
 27  7  1  0  0  0  0
 27 24  2  0  0  0  0
 30 29  1  0  0  0  0
 30 28  1  0  0  0  0
M  END
>  <MODEL>
7

>  <REMARK>
 VINA RESULT:      -8.4      1.810      6.461
  Name = 
  2 active torsions:
  status: ('A' for Active; 'I' for Inactive)
    1  A    between atoms: C_11  and  N_28
    2  A    between atoms: N_28  and  C_30
                            x       y       z     vdW  Elec       q    Type
                         _______ _______ _______ _____ _____    ______ ____

>  <TORSDO>
F 2

$$$$
=
 OpenBabel11122410313D

 30 35  0  0  1  0  0  0  0  0999 V2000
  187.4210  177.8650  143.3310 C   0  0  2  0  0  3  0  0  0  0  0  0
  186.2420  178.5100  145.4400 C   0  0  1  0  0  3  0  0  0  0  0  0
  184.2610  179.5420  141.2260 O   0  0  0  0  0  0  0  0  0  0  0  0
  187.3870  177.6760  141.7990 C   0  0  2  0  0  3  0  0  0  0  0  0
  188.5620  177.0350  143.9010 C   0  0  0  0  0  2  0  0  0  0  0  0
  190.8800  177.5030  141.1940 O   0  0  0  0  0  0  0  0  0  0  0  0
  187.8200  177.3040  138.8960 C   0  0  1  0  0  3  0  0  0  0  0  0
  189.8730  177.7320  141.8510 C   0  0  0  0  0  0  0  0  0  0  0  0
  186.4050  177.8470  138.7120 C   0  0  2  0  0  3  0  0  0  0  0  0
  184.7200  179.3480  139.9300 C   0  0  0  0  0  0  0  0  0  0  0  0
  189.8990  177.5550  143.3590 C   0  0  2  0  0  3  0  0  0  0  0  0
  188.6400  178.3250  141.1910 C   0  0  1  0  0  3  0  0  0  0  0  0
  184.9200  178.9430  146.0550 C   0  0  0  0  0  2  0  0  0  0  0  0
  186.4670  178.6810  137.4500 C   0  0  0  0  0  2  0  0  0  0  0  0
  188.3360  177.1040  137.4780 C   0  0  0  0  0  2  0  0  0  0  0  0
  186.9370  177.7230  146.3590 O   0  0  0  0  0  1  0  0  0  0  0  0
  185.2780  179.0830  142.1010 C   0  0  2  0  0  3  0  0  0  0  0  0
  184.1870  179.7530  145.0960 N   0  0  0  0  0  2  0  0  0  0  0  0
  186.0730  177.7460  144.1120 C   0  0  1  0  0  3  0  0  0  0  0  0
  186.0400  178.1190  141.2270 C   0  0  1  0  0  3  0  0  0  0  0  0
  184.0830  179.7300  138.9140 O   0  0  0  0  0  0  0  0  0  0  0  0
  185.9490  178.6240  139.8680 N   0  0  0  0  0  0  0  0  0  0  0  0
  187.4980  177.9960  136.5710 C   0  0  0  0  0  2  0  0  0  0  0  0
  189.4300  179.0470  139.0930 O   0  0  0  0  0  0  0  0  0  0  0  0
  183.6850  178.8400  144.0800 C   0  0  0  0  0  2  0  0  0  0  0  0
  184.8340  178.2300  143.2740 C   0  0  1  0  0  3  0  0  0  0  0  0
  188.7020  178.2590  139.6800 C   0  0  0  0  0  0  0  0  0  0  0  0
  190.9690  176.6540  143.7600 N   0  0  0  0  0  2  0  0  0  0  0  0
  191.6800  176.3780  146.0580 C   0  0  0  0  0  1  0  0  0  0  0  0
  191.6800  177.2940  144.8530 C   0  0  0  0  0  2  0  0  0  0  0  0
  1  5  1  1  0  0  0
  1 19  1  0  0  0  0
  2 13  1  0  0  0  0
  2 16  1  1  0  0  0
  3 17  1  0  0  0  0
  4  1  1  0  0  0  0
  6  8  2  0  0  0  0
  7 27  1  0  0  0  0
  8 11  1  0  0  0  0
  9  7  1  0  0  0  0
  9 22  1  0  0  0  0
 10  3  1  0  0  0  0
 11 28  1  0  0  0  0
 11  5  1  0  0  0  0
 12  4  1  0  0  0  0
 12  8  1  0  0  0  0
 14  9  1  0  0  0  0
 15  7  1  0  0  0  0
 17 26  1  0  0  0  0
 18 13  1  0  0  0  0
 19  2  1  0  0  0  0
 20  4  1  0  0  0  0
 20 17  1  0  0  0  0
 21 10  2  0  0  0  0
 22 10  1  0  0  0  0
 22 20  1  0  0  0  0
 23 14  1  0  0  0  0
 23 15  1  0  0  0  0
 24 27  2  0  0  0  0
 25 18  1  0  0  0  0
 26 25  1  0  0  0  0
 26 19  1  0  0  0  0
 27 12  1  0  0  0  0
 28 30  1  0  0  0  0
 30 29  1  0  0  0  0
M  END
>  <MODEL>
8

>  <REMARK>
 VINA RESULT:      -8.4      2.105      5.259
  Name = 
  2 active torsions:
  status: ('A' for Active; 'I' for Inactive)
    1  A    between atoms: C_11  and  N_28
    2  A    between atoms: N_28  and  C_30
                            x       y       z     vdW  Elec       q    Type
                         _______ _______ _______ _____ _____    ______ ____

>  <TORSDO>
F 2

$$$$
=
 OpenBabel11122410313D

 30 35  0  0  1  0  0  0  0  0999 V2000
  187.2300  177.9450  140.8960 C   0  0  2  0  0  3  0  0  0  0  0  0
  186.5470  177.8000  138.4940 C   0  0  1  0  0  3  0  0  0  0  0  0
  183.2330  178.5370  141.8430 O   0  0  0  0  0  0  0  0  0  0  0  0
  186.8750  178.3060  142.3540 C   0  0  2  0  0  3  0  0  0  0  0  0
  188.7440  177.9400  140.7470 C   0  0  0  0  0  2  0  0  0  0  0  0
  189.5290  176.6130  143.9940 O   0  0  0  0  0  0  0  0  0  0  0  0
  186.5990  178.7290  145.2690 C   0  0  1  0  0  3  0  0  0  0  0  0
  188.8010  176.8950  143.0520 C   0  0  0  0  0  0  0  0  0  0  0  0
  185.1390  179.0750  144.9840 C   0  0  2  0  0  3  0  0  0  0  0  0
  183.3330  178.6050  143.2270 C   0  0  0  0  0  0  0  0  0  0  0  0
  189.3450  176.8440  141.6360 C   0  0  2  0  0  3  0  0  0  0  0  0
  187.3210  177.1560  143.2720 C   0  0  1  0  0  3  0  0  0  0  0  0
  185.4470  178.0890  137.4840 C   0  0  0  0  0  2  0  0  0  0  0  0
  184.3660  178.5030  146.1540 C   0  0  0  0  0  2  0  0  0  0  0  0
  186.7120  178.7850  146.7860 C   0  0  0  0  0  2  0  0  0  0  0  0
  187.7880  177.9600  137.8770 O   0  0  0  0  0  1  0  0  0  0  0  0
  184.5300  178.2560  141.3460 C   0  0  2  0  0  3  0  0  0  0  0  0
  184.1530  177.9350  138.1270 N   0  0  0  0  0  2  0  0  0  0  0  0
  186.4640  178.6860  139.7530 C   0  0  1  0  0  3  0  0  0  0  0  0
  185.4150  178.7440  142.4650 C   0  0  1  0  0  3  0  0  0  0  0  0
  182.3340  178.7600  143.9790 O   0  0  0  0  0  0  0  0  0  0  0  0
  184.6780  178.5410  143.7000 N   0  0  0  0  0  0  0  0  0  0  0  0
  185.3050  178.6130  147.3420 C   0  0  0  0  0  2  0  0  0  0  0  0
  186.9420  176.3810  145.4640 O   0  0  0  0  0  0  0  0  0  0  0  0
  183.9810  179.0880  138.9960 C   0  0  0  0  0  2  0  0  0  0  0  0
  184.9900  179.0640  140.1470 C   0  0  1  0  0  3  0  0  0  0  0  0
  186.9780  177.3610  144.7320 C   0  0  0  0  0  0  0  0  0  0  0  0
  190.7970  176.9570  141.6320 N   0  0  0  0  0  2  0  0  0  0  0  0
  192.6770  177.5030  140.2060 C   0  0  0  0  0  1  0  0  0  0  0  0
  191.2090  177.1370  140.2500 C   0  0  0  0  0  2  0  0  0  0  0  0
  1  5  1  6  0  0  0
  1  4  1  0  0  0  0
  2 16  1  6  0  0  0
  2 19  1  0  0  0  0
  3 10  1  0  0  0  0
  4 20  1  0  0  0  0
  4 12  1  0  0  0  0
  5 11  1  0  0  0  0
  7 15  1  0  0  0  0
  8 12  1  0  0  0  0
  8  6  2  0  0  0  0
  9  7  1  0  0  0  0
  9 14  1  0  0  0  0
 10 22  1  0  0  0  0
 10 21  2  0  0  0  0
 11  8  1  0  0  0  0
 12 27  1  0  0  0  0
 13 18  1  0  0  0  0
 13  2  1  0  0  0  0
 14 23  1  0  0  0  0
 15 23  1  0  0  0  0
 17  3  1  0  0  0  0
 17 20  1  0  0  0  0
 18 25  1  0  0  0  0
 19 26  1  0  0  0  0
 19  1  1  0  0  0  0
 20 22  1  0  0  0  0
 22  9  1  0  0  0  0
 25 26  1  0  0  0  0
 26 17  1  0  0  0  0
 27  7  1  0  0  0  0
 27 24  2  0  0  0  0
 28 11  1  0  0  0  0
 29 30  1  0  0  0  0
 30 28  1  0  0  0  0
M  END
>  <MODEL>
9

>  <REMARK>
 VINA RESULT:      -7.8      2.138      5.312
  Name = 
  2 active torsions:
  status: ('A' for Active; 'I' for Inactive)
    1  A    between atoms: C_11  and  N_28
    2  A    between atoms: N_28  and  C_30
                            x       y       z     vdW  Elec       q    Type
                         _______ _______ _______ _____ _____    ______ ____

>  <TORSDO>
F 2

$$$$
