=
 OpenBabel11122412073D

 34 41  0  0  1  0  0  0  0  0999 V2000
  187.6030  177.9030  140.1810 C   0  0  0  0  0  0  0  0  0  0  0  0
  185.7400  178.7290  138.6790 C   0  0  0  0  0  2  0  0  0  0  0  0
  190.7600  177.7260  145.4930 C   0  0  2  0  0  3  0  0  0  0  0  0
  189.1120  176.7530  141.6670 C   0  0  0  0  0  0  0  0  0  0  0  0
  188.7280  176.7360  144.1710 C   0  0  1  0  0  3  0  0  0  0  0  0
  189.9350  179.0030  143.9690 C   0  0  0  0  0  2  0  0  0  0  0  0
  191.3170  178.8020  144.5730 C   0  0  0  0  0  2  0  0  0  0  0  0
  191.7480  175.9930  143.8430 C   0  0  0  0  0  2  0  0  0  0  0  0
  185.6050  179.1860  141.0540 C   0  0  2  0  0  3  0  0  0  0  0  0
  182.7080  178.3840  142.3310 C   0  0  0  0  0  2  0  0  0  0  0  0
  187.2600  177.0040  143.8250 C   0  0  0  0  0  2  0  0  0  0  0  0
  190.5560  175.3440  143.1620 C   0  0  0  0  0  2  0  0  0  0  0  0
  185.6820  178.2730  142.2980 C   0  0  1  0  0  3  0  0  0  0  0  0
  184.3950  179.3830  138.9450 C   0  0  0  0  0  2  0  0  0  0  0  0
  189.4820  176.3110  142.9860 N   0  0  0  0  0  0  0  0  0  0  0  0
  191.4240  176.3490  145.2920 C   0  0  0  0  0  2  0  0  0  0  0  0
  183.1720  178.2940  140.8650 C   0  0  1  0  0  3  0  0  0  0  0  0
  187.9570  177.5300  141.4830 C   0  0  0  0  0  0  0  0  0  0  0  0
  189.3670  177.9390  144.8980 C   0  0  2  0  0  3  0  0  0  0  0  0
  187.1480  178.0040  142.6690 C   0  0  2  0  0  3  0  0  0  0  0  0
  189.4810  176.7460  139.3270 C   0  0  0  0  0  3  0  0  0  0  0  0
  183.5150  179.3590  143.1920 C   0  0  0  0  0  2  0  0  0  0  0  0
  189.8450  176.3780  140.5820 N   0  0  0  0  0  0  0  0  0  0  0  0
  184.9310  178.8650  143.5010 C   0  0  0  0  0  2  0  0  0  0  0  0
  184.2000  179.3740  140.4580 C   0  0  1  0  0  3  0  0  0  0  0  0
  188.3660  177.4970  139.1310 N   0  0  0  0  0  0  0  0  0  0  0  0
  186.4070  178.6580  139.9630 N   0  0  0  0  0  0  0  0  0  0  0  0
  183.6510  177.0070  140.5970 O   0  0  0  0  0  0  0  0  0  0  0  0
  182.5900  176.3410  139.9790 C   0  0  0  0  0  2  0  0  0  0  0  0
  183.9850  175.6710  136.6140 O   0  0  0  0  0  0  0  0  0  0  0  0
  182.1630  176.8130  137.5880 C   0  0  0  0  0  3  0  0  0  0  0  0
  182.8580  176.2320  138.5200 C   0  0  0  0  0  0  0  0  0  0  0  0
  182.8480  176.4660  136.3080 C   0  0  0  0  0  3  0  0  0  0  0  0
  183.9580  175.5570  137.9680 N   0  0  0  0  0  0  0  0  0  0  0  0
  1 18  1  0  0  0  0
  2 14  1  0  0  0  0
  2 27  1  0  0  0  0
  3  7  1  6  0  0  0
  4 15  1  0  0  0  0
  5 11  1  6  0  0  0
  5 19  1  0  0  0  0
  6  7  1  0  0  0  0
  8 16  1  0  0  0  0
  9 27  1  6  0  0  0
  9 13  1  0  0  0  0
 10 22  1  0  0  0  0
 12  8  1  0  0  0  0
 13 20  1  0  0  0  0
 13 24  1  1  0  0  0
 15 12  1  0  0  0  0
 15  5  1  0  0  0  0
 16  3  1  0  0  0  0
 17 28  1  1  0  0  0
 17 10  1  0  0  0  0
 18  4  2  0  0  0  0
 18 20  1  0  0  0  0
 19  6  1  6  0  0  0
 19  3  1  0  0  0  0
 20 11  1  1  0  0  0
 21 23  2  0  0  0  0
 22 24  1  0  0  0  0
 23  4  1  0  0  0  0
 25 14  1  6  0  0  0
 25 17  1  0  0  0  0
 25  9  1  0  0  0  0
 26 21  1  0  0  0  0
 26  1  2  0  0  0  0
 27  1  1  0  0  0  0
 29 28  1  0  0  0  0
 30 34  1  0  0  0  0
 31 32  1  0  0  0  0
 32 29  1  0  0  0  0
 33 30  1  0  0  0  0
 33 31  2  0  0  0  0
 34 32  2  0  0  0  0
M  END
>  <MODEL>
1

>  <REMARK>
 VINA RESULT:      -8.1      0.000      0.000
  Name = 
  3 active torsions:
  status: ('A' for Active; 'I' for Inactive)
    1  A    between atoms: C_17  and  O_28
    2  A    between atoms: O_28  and  C_29
    3  A    between atoms: C_29  and  C_32
                            x       y       z     vdW  Elec       q    Type
                         _______ _______ _______ _____ _____    ______ ____

>  <TORSDO>
F 3

$$$$
=
 OpenBabel11122412073D

 34 41  0  0  1  0  0  0  0  0999 V2000
  185.9260  176.2670  135.1870 C   0  0  0  0  0  0  0  0  0  0  0  0
  187.9510  177.6670  134.5980 C   0  0  0  0  0  2  0  0  0  0  0  0
  183.0400  170.9250  136.3500 C   0  0  2  0  0  3  0  0  0  0  0  0
  184.0810  175.0710  136.1720 C   0  0  0  0  0  0  0  0  0  0  0  0
  184.4400  172.8780  137.3910 C   0  0  1  0  0  3  0  0  0  0  0  0
  184.3230  171.9800  134.9790 C   0  0  0  0  0  2  0  0  0  0  0  0
  182.9940  171.2480  134.8640 C   0  0  0  0  0  2  0  0  0  0  0  0
  181.3910  172.8900  136.6920 C   0  0  0  0  0  2  0  0  0  0  0  0
  188.2880  175.3660  135.2760 C   0  0  2  0  0  3  0  0  0  0  0  0
  190.5690  175.0550  137.5940 C   0  0  0  0  0  2  0  0  0  0  0  0
  185.8770  173.3660  137.5930 C   0  0  0  0  0  2  0  0  0  0  0  0
  182.1830  173.9760  137.4000 C   0  0  0  0  0  2  0  0  0  0  0  0
  187.8360  174.5690  136.5200 C   0  0  1  0  0  3  0  0  0  0  0  0
  189.4490  177.4310  134.6940 C   0  0  0  0  0  2  0  0  0  0  0  0
  183.5670  173.9720  136.9480 N   0  0  0  0  0  0  0  0  0  0  0  0
  181.8480  171.5030  137.1370 C   0  0  0  0  0  2  0  0  0  0  0  0
  190.1000  176.3300  136.8690 C   0  0  1  0  0  3  0  0  0  0  0  0
  185.4560  175.1610  135.9050 C   0  0  0  0  0  0  0  0  0  0  0  0
  184.3860  171.6460  136.4630 C   0  0  2  0  0  3  0  0  0  0  0  0
  186.3990  174.0580  136.3300 C   0  0  2  0  0  3  0  0  0  0  0  0
  183.7260  177.1270  135.0490 C   0  0  0  0  0  3  0  0  0  0  0  0
  190.2660  173.7540  136.8450 C   0  0  0  0  0  2  0  0  0  0  0  0
  183.2500  176.0590  135.7390 N   0  0  0  0  0  0  0  0  0  0  0  0
  188.7780  173.3960  136.8320 C   0  0  0  0  0  2  0  0  0  0  0  0
  189.6330  176.0990  135.4150 C   0  0  1  0  0  3  0  0  0  0  0  0
  185.0540  177.2300  134.7820 N   0  0  0  0  0  0  0  0  0  0  0  0
  187.3290  176.4040  134.9390 N   0  0  0  0  0  0  0  0  0  0  0  0
  189.1120  176.9700  137.6270 O   0  0  0  0  0  0  0  0  0  0  0  0
  189.8030  177.8310  138.4820 C   0  0  0  0  0  2  0  0  0  0  0  0
  187.5480  178.5500  141.3310 O   0  0  0  0  0  0  0  0  0  0  0  0
  189.5300  177.3440  140.8920 C   0  0  0  0  0  3  0  0  0  0  0  0
  189.1030  177.8910  139.7930 C   0  0  0  0  0  0  0  0  0  0  0  0
  188.5370  177.7300  141.9380 C   0  0  0  0  0  3  0  0  0  0  0  0
  187.9320  178.6280  140.0290 N   0  0  0  0  0  0  0  0  0  0  0  0
  1 18  1  0  0  0  0
  2 14  1  0  0  0  0
  2 27  1  0  0  0  0
  3  7  1  6  0  0  0
  3 19  1  0  0  0  0
  3 16  1  0  0  0  0
  4 15  1  0  0  0  0
  5 11  1  6  0  0  0
  7  6  1  0  0  0  0
  8 16  1  0  0  0  0
  8 12  1  0  0  0  0
  9 27  1  1  0  0  0
  9 25  1  0  0  0  0
  9 13  1  0  0  0  0
 13 24  1  6  0  0  0
 15  5  1  0  0  0  0
 15 12  1  0  0  0  0
 17 10  1  0  0  0  0
 17 28  1  1  0  0  0
 18  4  2  0  0  0  0
 18 20  1  0  0  0  0
 19  6  1  6  0  0  0
 19  5  1  0  0  0  0
 20 13  1  0  0  0  0
 20 11  1  1  0  0  0
 21 23  2  0  0  0  0
 22 10  1  0  0  0  0
 23  4  1  0  0  0  0
 24 22  1  0  0  0  0
 25 14  1  1  0  0  0
 25 17  1  0  0  0  0
 26 21  1  0  0  0  0
 26  1  2  0  0  0  0
 27  1  1  0  0  0  0
 28 29  1  0  0  0  0
 29 32  1  0  0  0  0
 30 33  1  0  0  0  0
 31 33  2  0  0  0  0
 32 34  2  0  0  0  0
 32 31  1  0  0  0  0
 34 30  1  0  0  0  0
M  END
>  <MODEL>
2

>  <REMARK>
 VINA RESULT:      -6.4      3.738      8.902
  Name = 
  3 active torsions:
  status: ('A' for Active; 'I' for Inactive)
    1  A    between atoms: C_17  and  O_28
    2  A    between atoms: O_28  and  C_29
    3  A    between atoms: C_29  and  C_32
                            x       y       z     vdW  Elec       q    Type
                         _______ _______ _______ _____ _____    ______ ____

>  <TORSDO>
F 3

$$$$
=
 OpenBabel11122412073D

 34 41  0  0  1  0  0  0  0  0999 V2000
  185.8960  178.4720  139.5110 C   0  0  0  0  0  0  0  0  0  0  0  0
  188.2040  177.9580  138.6060 C   0  0  0  0  0  2  0  0  0  0  0  0
  179.9440  180.0350  138.9230 C   0  0  2  0  0  3  0  0  0  0  0  0
  183.6580  178.5100  140.4020 C   0  0  0  0  0  0  0  0  0  0  0  0
  181.6500  178.0490  138.9260 C   0  0  1  0  0  3  0  0  0  0  0  0
  181.9680  180.5490  138.3960 C   0  0  0  0  0  2  0  0  0  0  0  0
  180.8130  181.2750  139.0710 C   0  0  0  0  0  2  0  0  0  0  0  0
  180.4650  179.5370  141.4090 C   0  0  0  0  0  2  0  0  0  0  0  0
  186.3400  178.0240  137.0600 C   0  0  2  0  0  3  0  0  0  0  0  0
  186.2150  175.3990  135.1210 C   0  0  0  0  0  2  0  0  0  0  0  0
  182.6360  177.2960  138.0290 C   0  0  0  0  0  2  0  0  0  0  0  0
  181.3650  178.3130  141.4050 C   0  0  0  0  0  2  0  0  0  0  0  0
  184.9740  177.3020  137.0430 C   0  0  1  0  0  3  0  0  0  0  0  0
  188.7210  177.5260  137.2440 C   0  0  0  0  0  2  0  0  0  0  0  0
  182.2390  178.3280  140.2420 N   0  0  0  0  0  0  0  0  0  0  0  0
  179.4500  179.4720  140.2700 C   0  0  0  0  0  2  0  0  0  0  0  0
  187.2620  175.7550  136.1920 C   0  0  1  0  0  3  0  0  0  0  0  0
  184.5180  178.3300  139.3070 C   0  0  0  0  0  0  0  0  0  0  0  0
  181.1000  179.3100  138.2280 C   0  0  2  0  0  3  0  0  0  0  0  0
  183.9660  178.0510  137.9280 C   0  0  2  0  0  3  0  0  0  0  0  0
  185.5230  178.9320  141.8010 C   0  0  0  0  0  3  0  0  0  0  0  0
  185.4130  176.5930  134.5980 C   0  0  0  0  0  2  0  0  0  0  0  0
  184.1830  178.8040  141.6230 N   0  0  0  0  0  0  0  0  0  0  0  0
  184.4160  177.1470  135.6200 C   0  0  0  0  0  2  0  0  0  0  0  0
  187.4930  177.2720  136.3740 C   0  0  1  0  0  3  0  0  0  0  0  0
  186.3700  178.7600  140.7520 N   0  0  0  0  0  0  0  0  0  0  0  0
  186.7980  178.2510  138.4210 N   0  0  0  0  0  0  0  0  0  0  0  0
  186.9280  175.1400  137.4050 O   0  0  0  0  0  0  0  0  0  0  0  0
  187.2430  173.7910  137.2320 C   0  0  0  0  0  2  0  0  0  0  0  0
  184.5440  171.4500  136.2560 O   0  0  0  0  0  0  0  0  0  0  0  0
  184.8830  173.2510  137.7430 C   0  0  0  0  0  3  0  0  0  0  0  0
  185.9860  173.0040  137.1030 C   0  0  0  0  0  0  0  0  0  0  0  0
  183.9000  172.2480  137.2380 C   0  0  0  0  0  3  0  0  0  0  0  0
  185.8080  171.9450  136.1990 N   0  0  0  0  0  0  0  0  0  0  0  0
  1 26  1  0  0  0  0
  3  7  1  1  0  0  0
  3 16  1  0  0  0  0
  4 23  2  0  0  0  0
  5 11  1  6  0  0  0
  5 15  1  0  0  0  0
  6  7  1  0  0  0  0
  9 27  1  1  0  0  0
 10 17  1  0  0  0  0
 12  8  1  0  0  0  0
 13 24  1  6  0  0  0
 13  9  1  0  0  0  0
 13 20  1  0  0  0  0
 14  2  1  0  0  0  0
 15  4  1  0  0  0  0
 15 12  1  0  0  0  0
 16  8  1  0  0  0  0
 17 25  1  0  0  0  0
 17 28  1  1  0  0  0
 18  1  2  0  0  0  0
 18  4  1  0  0  0  0
 19  6  1  1  0  0  0
 19  3  1  0  0  0  0
 19  5  1  0  0  0  0
 20 11  1  1  0  0  0
 20 18  1  0  0  0  0
 22 10  1  0  0  0  0
 22 24  1  0  0  0  0
 23 21  1  0  0  0  0
 25  9  1  0  0  0  0
 25 14  1  1  0  0  0
 26 21  2  0  0  0  0
 27  2  1  0  0  0  0
 27  1  1  0  0  0  0
 29 28  1  0  0  0  0
 30 33  1  0  0  0  0
 32 29  1  0  0  0  0
 32 31  1  0  0  0  0
 33 31  2  0  0  0  0
 34 30  1  0  0  0  0
 34 32  2  0  0  0  0
M  END
>  <MODEL>
3

>  <REMARK>
 VINA RESULT:      -6.3      3.617      7.369
  Name = 
  3 active torsions:
  status: ('A' for Active; 'I' for Inactive)
    1  A    between atoms: C_17  and  O_28
    2  A    between atoms: O_28  and  C_29
    3  A    between atoms: C_29  and  C_32
                            x       y       z     vdW  Elec       q    Type
                         _______ _______ _______ _____ _____    ______ ____

>  <TORSDO>
F 3

$$$$
=
 OpenBabel11122412073D

 34 41  0  0  1  0  0  0  0  0999 V2000
  185.8640  177.9550  137.5650 C   0  0  0  0  0  0  0  0  0  0  0  0
  188.1870  178.8340  137.0750 C   0  0  0  0  0  2  0  0  0  0  0  0
  180.9730  174.3350  136.4740 C   0  0  2  0  0  3  0  0  0  0  0  0
  183.8600  176.8740  138.3510 C   0  0  0  0  0  0  0  0  0  0  0  0
  183.2960  174.4990  137.6710 C   0  0  1  0  0  3  0  0  0  0  0  0
  182.3640  175.7350  135.6130 C   0  0  0  0  0  2  0  0  0  0  0  0
  180.8490  175.6480  135.7180 C   0  0  0  0  0  2  0  0  0  0  0  0
  180.5740  175.6980  138.6380 C   0  0  0  0  0  2  0  0  0  0  0  0
  187.4650  176.7930  135.9870 C   0  0  2  0  0  3  0  0  0  0  0  0
  189.6470  174.3780  136.2570 C   0  0  0  0  0  2  0  0  0  0  0  0
  184.8000  174.3420  137.4280 C   0  0  0  0  0  2  0  0  0  0  0  0
  181.8990  175.6910  139.3810 C   0  0  0  0  0  2  0  0  0  0  0  0
  186.8910  175.4670  136.5340 C   0  0  1  0  0  3  0  0  0  0  0  0
  189.3730  178.2810  136.3010 C   0  0  0  0  0  2  0  0  0  0  0  0
  183.0100  175.7160  138.4410 N   0  0  0  0  0  0  0  0  0  0  0  0
  180.3610  174.3850  137.8880 C   0  0  0  0  0  2  0  0  0  0  0  0
  189.7490  175.8290  136.7640 C   0  0  1  0  0  3  0  0  0  0  0  0
  185.0390  176.8240  137.5910 C   0  0  0  0  0  0  0  0  0  0  0  0
  182.4970  174.4120  136.3540 C   0  0  2  0  0  3  0  0  0  0  0  0
  185.3790  175.6000  136.7720 C   0  0  2  0  0  3  0  0  0  0  0  0
  184.3750  179.0910  139.0100 C   0  0  0  0  0  3  0  0  0  0  0  0
  188.6310  174.1700  135.1320 C   0  0  0  0  0  2  0  0  0  0  0  0
  183.5580  178.0070  139.0450 N   0  0  0  0  0  0  0  0  0  0  0  0
  187.1770  174.2810  135.6000 C   0  0  0  0  0  2  0  0  0  0  0  0
  188.9980  176.8600  135.8910 C   0  0  1  0  0  3  0  0  0  0  0  0
  185.5200  179.0600  138.2800 N   0  0  0  0  0  0  0  0  0  0  0  0
  187.0930  177.9150  136.8330 N   0  0  0  0  0  0  0  0  0  0  0  0
  189.3380  175.8950  138.1000 O   0  0  0  0  0  0  0  0  0  0  0  0
  190.4830  176.2380  138.8210 C   0  0  0  0  0  2  0  0  0  0  0  0
  190.2770  177.7410  142.2000 O   0  0  0  0  0  0  0  0  0  0  0  0
  188.9080  177.4440  140.3000 C   0  0  0  0  0  3  0  0  0  0  0  0
  190.0870  176.9510  140.0660 C   0  0  0  0  0  0  0  0  0  0  0  0
  188.9770  177.9930  141.6870 C   0  0  0  0  0  3  0  0  0  0  0  0
  190.9190  177.1010  141.1870 N   0  0  0  0  0  0  0  0  0  0  0  0
  1 18  2  0  0  0  0
  1 26  1  0  0  0  0
  3  7  1  6  0  0  0
  3 16  1  0  0  0  0
  4 15  1  0  0  0  0
  4 23  2  0  0  0  0
  5 11  1  6  0  0  0
  5 15  1  0  0  0  0
  6  7  1  0  0  0  0
  8 12  1  0  0  0  0
  9 13  1  0  0  0  0
  9 27  1  1  0  0  0
 10 17  1  0  0  0  0
 13 24  1  6  0  0  0
 13 20  1  0  0  0  0
 14  2  1  0  0  0  0
 15 12  1  0  0  0  0
 16  8  1  0  0  0  0
 17 28  1  1  0  0  0
 18  4  1  0  0  0  0
 19  6  1  6  0  0  0
 19  3  1  0  0  0  0
 19  5  1  0  0  0  0
 20 11  1  1  0  0  0
 20 18  1  0  0  0  0
 21 23  1  0  0  0  0
 22 24  1  0  0  0  0
 22 10  1  0  0  0  0
 25  9  1  0  0  0  0
 25 14  1  1  0  0  0
 25 17  1  0  0  0  0
 26 21  2  0  0  0  0
 27  2  1  0  0  0  0
 27  1  1  0  0  0  0
 28 29  1  0  0  0  0
 29 32  1  0  0  0  0
 31 33  2  0  0  0  0
 32 31  1  0  0  0  0
 32 34  2  0  0  0  0
 33 30  1  0  0  0  0
 34 30  1  0  0  0  0
M  END
>  <MODEL>
4

>  <REMARK>
 VINA RESULT:      -6.2      2.989      8.485
  Name = 
  3 active torsions:
  status: ('A' for Active; 'I' for Inactive)
    1  A    between atoms: C_17  and  O_28
    2  A    between atoms: O_28  and  C_29
    3  A    between atoms: C_29  and  C_32
                            x       y       z     vdW  Elec       q    Type
                         _______ _______ _______ _____ _____    ______ ____

>  <TORSDO>
F 3

$$$$
=
 OpenBabel11122412073D

 34 41  0  0  1  0  0  0  0  0999 V2000
  186.3740  178.6320  139.5500 C   0  0  0  0  0  0  0  0  0  0  0  0
  188.7350  178.3810  138.6700 C   0  0  0  0  0  2  0  0  0  0  0  0
  180.2990  179.5730  138.9050 C   0  0  2  0  0  3  0  0  0  0  0  0
  184.1340  178.4180  140.4090 C   0  0  0  0  0  0  0  0  0  0  0  0
  182.2040  177.7770  138.8970 C   0  0  1  0  0  3  0  0  0  0  0  0
  182.2630  180.3070  138.4170 C   0  0  0  0  0  2  0  0  0  0  0  0
  181.0300  180.8940  139.0880 C   0  0  0  0  0  2  0  0  0  0  0  0
  180.8380  179.0840  141.3890 C   0  0  0  0  0  2  0  0  0  0  0  0
  186.8930  178.2810  137.0990 C   0  0  2  0  0  3  0  0  0  0  0  0
  187.0690  175.6950  135.1100 C   0  0  0  0  0  2  0  0  0  0  0  0
  183.2750  177.1490  138.0000 C   0  0  0  0  0  2  0  0  0  0  0  0
  181.8620  177.9610  141.3760 C   0  0  0  0  0  2  0  0  0  0  0  0
  185.6110  177.4190  137.0490 C   0  0  1  0  0  3  0  0  0  0  0  0
  189.3110  178.0320  137.3070 C   0  0  0  0  0  2  0  0  0  0  0  0
  182.7440  178.0900  140.2260 N   0  0  0  0  0  0  0  0  0  0  0  0
  179.8500  178.9350  140.2350 C   0  0  0  0  0  2  0  0  0  0  0  0
  188.0600  176.1390  136.2040 C   0  0  1  0  0  3  0  0  0  0  0  0
  185.0220  178.3510  139.3240 C   0  0  0  0  0  0  0  0  0  0  0  0
  181.5320  178.9870  138.2140 C   0  0  2  0  0  3  0  0  0  0  0  0
  184.5190  178.0420  137.9320 C   0  0  2  0  0  3  0  0  0  0  0  0
  185.9260  179.0060  141.8430 C   0  0  0  0  0  3  0  0  0  0  0  0
  186.1530  176.8090  134.5980 C   0  0  0  0  0  2  0  0  0  0  0  0
  184.6090  178.7420  141.6440 N   0  0  0  0  0  0  0  0  0  0  0  0
  185.0910  177.2340  135.6150 C   0  0  0  0  0  2  0  0  0  0  0  0
  188.1270  177.6680  136.4160 C   0  0  1  0  0  3  0  0  0  0  0  0
  186.8000  178.9450  140.8030 N   0  0  0  0  0  0  0  0  0  0  0  0
  187.3080  178.5280  138.4700 N   0  0  0  0  0  0  0  0  0  0  0  0
  187.7780  175.4690  137.4000 O   0  0  0  0  0  0  0  0  0  0  0  0
  188.2550  174.1700  137.2150 C   0  0  0  0  0  2  0  0  0  0  0  0
  191.8480  174.7640  137.8880 O   0  0  0  0  0  0  0  0  0  0  0  0
  190.4970  173.6390  136.3130 C   0  0  0  0  0  3  0  0  0  0  0  0
  189.7430  174.1850  137.2200 C   0  0  0  0  0  0  0  0  0  0  0  0
  191.8970  173.9730  136.7090 C   0  0  0  0  0  3  0  0  0  0  0  0
  190.5210  174.8740  138.1620 N   0  0  0  0  0  0  0  0  0  0  0  0
  1 26  1  0  0  0  0
  3  7  1  1  0  0  0
  3 16  1  0  0  0  0
  4 23  2  0  0  0  0
  5 11  1  6  0  0  0
  5 15  1  0  0  0  0
  6  7  1  0  0  0  0
  9 27  1  1  0  0  0
 10 17  1  0  0  0  0
 12  8  1  0  0  0  0
 13 24  1  6  0  0  0
 13  9  1  0  0  0  0
 13 20  1  0  0  0  0
 14  2  1  0  0  0  0
 15  4  1  0  0  0  0
 15 12  1  0  0  0  0
 16  8  1  0  0  0  0
 17 25  1  0  0  0  0
 17 28  1  1  0  0  0
 18  1  2  0  0  0  0
 18  4  1  0  0  0  0
 19  6  1  1  0  0  0
 19  5  1  0  0  0  0
 19  3  1  0  0  0  0
 20 11  1  1  0  0  0
 20 18  1  0  0  0  0
 22 10  1  0  0  0  0
 22 24  1  0  0  0  0
 23 21  1  0  0  0  0
 25  9  1  0  0  0  0
 25 14  1  1  0  0  0
 26 21  2  0  0  0  0
 27  2  1  0  0  0  0
 27  1  1  0  0  0  0
 29 32  1  0  0  0  0
 29 28  1  0  0  0  0
 30 34  1  0  0  0  0
 31 33  2  0  0  0  0
 31 32  1  0  0  0  0
 32 34  2  0  0  0  0
 33 30  1  0  0  0  0
M  END
>  <MODEL>
5

>  <REMARK>
 VINA RESULT:      -6.2      3.493      7.683
  Name = 
  3 active torsions:
  status: ('A' for Active; 'I' for Inactive)
    1  A    between atoms: C_17  and  O_28
    2  A    between atoms: O_28  and  C_29
    3  A    between atoms: C_29  and  C_32
                            x       y       z     vdW  Elec       q    Type
                         _______ _______ _______ _____ _____    ______ ____

>  <TORSDO>
F 3

$$$$
=
 OpenBabel11122412073D

 34 41  0  0  1  0  0  0  0  0999 V2000
  184.8460  178.2520  139.9150 C   0  0  0  0  0  0  0  0  0  0  0  0
  182.5830  178.6710  140.9690 C   0  0  0  0  0  2  0  0  0  0  0  0
  188.6220  175.6550  135.7660 C   0  0  2  0  0  3  0  0  0  0  0  0
  186.9350  178.2560  138.7150 C   0  0  0  0  0  0  0  0  0  0  0  0
  187.0330  177.6790  136.2490 C   0  0  1  0  0  3  0  0  0  0  0  0
  187.0740  175.2930  137.2180 C   0  0  0  0  0  2  0  0  0  0  0  0
  188.4860  174.7700  136.9960 C   0  0  0  0  0  2  0  0  0  0  0  0
  189.9680  177.2880  137.2570 C   0  0  0  0  0  2  0  0  0  0  0  0
  182.6710  177.6220  138.7870 C   0  0  2  0  0  3  0  0  0  0  0  0
  180.6820  179.0450  136.6210 C   0  0  0  0  0  2  0  0  0  0  0  0
  185.5610  178.0990  136.2170 C   0  0  0  0  0  2  0  0  0  0  0  0
  189.0820  178.5080  137.4370 C   0  0  0  0  0  2  0  0  0  0  0  0
  183.3500  178.0300  137.4600 C   0  0  1  0  0  3  0  0  0  0  0  0
  181.1540  178.5260  140.4710 C   0  0  0  0  0  2  0  0  0  0  0  0
  187.6810  178.1160  137.4910 N   0  0  0  0  0  0  0  0  0  0  0  0
  189.7750  176.6720  135.8720 C   0  0  0  0  0  2  0  0  0  0  0  0
  180.8790  179.3790  138.1110 C   0  0  1  0  0  3  0  0  0  0  0  0
  185.5440  178.0630  138.7160 C   0  0  0  0  0  0  0  0  0  0  0  0
  187.1960  176.1680  135.9790 C   0  0  2  0  0  3  0  0  0  0  0  0
  184.8270  177.6030  137.4680 C   0  0  2  0  0  3  0  0  0  0  0  0
  186.8630  178.8110  141.0170 C   0  0  0  0  0  3  0  0  0  0  0  0
  181.1160  177.6310  136.2270 C   0  0  0  0  0  2  0  0  0  0  0  0
  187.5600  178.6270  139.8660 N   0  0  0  0  0  0  0  0  0  0  0  0
  182.6350  177.4400  136.2350 C   0  0  0  0  0  2  0  0  0  0  0  0
  181.2450  178.1630  138.9910 C   0  0  1  0  0  3  0  0  0  0  0  0
  185.5170  178.6290  141.0360 N   0  0  0  0  0  0  0  0  0  0  0  0
  183.4220  178.1040  139.9330 N   0  0  0  0  0  0  0  0  0  0  0  0
  181.8180  180.4080  138.2470 O   0  0  0  0  0  0  0  0  0  0  0  0
  181.0960  181.5060  138.7180 C   0  0  0  0  0  2  0  0  0  0  0  0
  181.9270  184.6270  136.9040 O   0  0  0  0  0  0  0  0  0  0  0  0
  180.4860  182.7700  136.6810 C   0  0  0  0  0  3  0  0  0  0  0  0
  181.2140  182.6280  137.7480 C   0  0  0  0  0  0  0  0  0  0  0  0
  180.9220  184.0630  136.0740 C   0  0  0  0  0  3  0  0  0  0  0  0
  182.0710  183.7270  137.9130 N   0  0  0  0  0  0  0  0  0  0  0  0
  1 27  1  0  0  0  0
  1 26  1  0  0  0  0
  3 16  1  1  0  0  0
  3 19  1  0  0  0  0
  3  7  1  0  0  0  0
  4 18  1  0  0  0  0
  4 23  2  0  0  0  0
  5 11  1  1  0  0  0
  5 15  1  0  0  0  0
  7  6  1  0  0  0  0
  8 12  1  0  0  0  0
  9 25  1  0  0  0  0
  9 27  1  1  0  0  0
 10 17  1  0  0  0  0
 12 15  1  0  0  0  0
 13 24  1  6  0  0  0
 13 20  1  0  0  0  0
 13  9  1  0  0  0  0
 14  2  1  0  0  0  0
 15  4  1  0  0  0  0
 16  8  1  0  0  0  0
 17 28  1  6  0  0  0
 17 25  1  0  0  0  0
 18  1  2  0  0  0  0
 19  5  1  0  0  0  0
 19  6  1  1  0  0  0
 20 11  1  6  0  0  0
 20 18  1  0  0  0  0
 21 26  2  0  0  0  0
 22 24  1  0  0  0  0
 22 10  1  0  0  0  0
 23 21  1  0  0  0  0
 25 14  1  1  0  0  0
 27  2  1  0  0  0  0
 28 29  1  0  0  0  0
 30 34  1  0  0  0  0
 31 32  1  0  0  0  0
 32 34  2  0  0  0  0
 32 29  1  0  0  0  0
 33 31  2  0  0  0  0
 33 30  1  0  0  0  0
M  END
>  <MODEL>
6

>  <REMARK>
 VINA RESULT:      -6.1      3.466      6.445
  Name = 
  3 active torsions:
  status: ('A' for Active; 'I' for Inactive)
    1  A    between atoms: C_17  and  O_28
    2  A    between atoms: O_28  and  C_29
    3  A    between atoms: C_29  and  C_32
                            x       y       z     vdW  Elec       q    Type
                         _______ _______ _______ _____ _____    ______ ____

>  <TORSDO>
F 3

$$$$
=
 OpenBabel11122412073D

 34 41  0  0  1  0  0  0  0  0999 V2000
  189.7750  177.5060  138.8400 C   0  0  0  0  0  0  0  0  0  0  0  0
  188.8290  177.9850  136.5410 C   0  0  0  0  0  2  0  0  0  0  0  0
  190.0800  178.2700  144.9670 C   0  0  2  0  0  3  0  0  0  0  0  0
  190.4150  176.6780  141.0100 C   0  0  0  0  0  0  0  0  0  0  0  0
  188.9050  176.9670  143.0230 C   0  0  1  0  0  3  0  0  0  0  0  0
  190.0610  179.2680  143.0590 C   0  0  0  0  0  2  0  0  0  0  0  0
  191.0000  179.2520  144.2560 C   0  0  0  0  0  2  0  0  0  0  0  0
  191.7300  176.4100  144.2440 C   0  0  0  0  0  2  0  0  0  0  0  0
  187.5970  178.7440  138.4840 C   0  0  2  0  0  3  0  0  0  0  0  0
  184.4410  177.9090  138.3830 C   0  0  0  0  0  2  0  0  0  0  0  0
  187.7690  177.0780  142.0020 C   0  0  0  0  0  2  0  0  0  0  0  0
  190.9950  175.5900  143.1980 C   0  0  0  0  0  2  0  0  0  0  0  0
  187.0850  178.0130  139.7450 C   0  0  1  0  0  3  0  0  0  0  0  0
  187.5140  178.5680  136.0520 C   0  0  0  0  0  2  0  0  0  0  0  0
  190.1260  176.4440  142.4010 N   0  0  0  0  0  0  0  0  0  0  0  0
  190.7640  176.9310  145.3070 C   0  0  0  0  0  2  0  0  0  0  0  0
  185.5370  177.6590  137.3310 C   0  0  1  0  0  3  0  0  0  0  0  0
  189.4790  177.3370  140.1980 C   0  0  0  0  0  0  0  0  0  0  0  0
  189.1270  178.2990  143.7700 C   0  0  2  0  0  3  0  0  0  0  0  0
  188.2080  177.9040  140.7880 C   0  0  2  0  0  3  0  0  0  0  0  0
  191.8370  176.3850  139.1370 C   0  0  0  0  0  3  0  0  0  0  0  0
  184.7490  179.0460  139.3600 C   0  0  0  0  0  2  0  0  0  0  0  0
  191.5710  176.2160  140.4580 N   0  0  0  0  0  0  0  0  0  0  0  0
  185.8570  178.7030  140.3590 C   0  0  0  0  0  2  0  0  0  0  0  0
  186.6330  178.7470  137.2850 C   0  0  1  0  0  3  0  0  0  0  0  0
  190.9410  177.0200  138.3360 N   0  0  0  0  0  0  0  0  0  0  0  0
  188.8180  178.1350  137.9820 N   0  0  0  0  0  0  0  0  0  0  0  0
  186.0890  176.3860  137.5130 O   0  0  0  0  0  0  0  0  0  0  0  0
  185.7240  175.6600  136.3770 C   0  0  0  0  0  2  0  0  0  0  0  0
  184.5670  172.4080  137.7190 O   0  0  0  0  0  0  0  0  0  0  0  0
  183.7270  174.1990  136.4320 C   0  0  0  0  0  3  0  0  0  0  0  0
  184.9500  174.4570  136.7880 C   0  0  0  0  0  0  0  0  0  0  0  0
  183.4130  172.8680  137.0300 C   0  0  0  0  0  3  0  0  0  0  0  0
  185.4790  173.4000  137.5440 N   0  0  0  0  0  0  0  0  0  0  0  0
  1 18  1  0  0  0  0
  2 27  1  0  0  0  0
  3  7  1  6  0  0  0
  3 16  1  0  0  0  0
  4 15  1  0  0  0  0
  5 11  1  6  0  0  0
  5 19  1  0  0  0  0
  6  7  1  0  0  0  0
  8 16  1  0  0  0  0
  9 27  1  6  0  0  0
  9 13  1  0  0  0  0
 10 22  1  0  0  0  0
 12  8  1  0  0  0  0
 13 24  1  1  0  0  0
 13 20  1  0  0  0  0
 14  2  1  0  0  0  0
 15  5  1  0  0  0  0
 15 12  1  0  0  0  0
 17 28  1  1  0  0  0
 17 10  1  0  0  0  0
 18 20  1  0  0  0  0
 18  4  2  0  0  0  0
 19  6  1  6  0  0  0
 19  3  1  0  0  0  0
 20 11  1  1  0  0  0
 21 23  2  0  0  0  0
 22 24  1  0  0  0  0
 23  4  1  0  0  0  0
 25 14  1  6  0  0  0
 25 17  1  0  0  0  0
 25  9  1  0  0  0  0
 26  1  2  0  0  0  0
 26 21  1  0  0  0  0
 27  1  1  0  0  0  0
 29 32  1  0  0  0  0
 29 28  1  0  0  0  0
 31 32  1  0  0  0  0
 31 33  2  0  0  0  0
 32 34  2  0  0  0  0
 33 30  1  0  0  0  0
 34 30  1  0  0  0  0
M  END
>  <MODEL>
7

>  <REMARK>
 VINA RESULT:      -5.9      2.009      2.878
  Name = 
  3 active torsions:
  status: ('A' for Active; 'I' for Inactive)
    1  A    between atoms: C_17  and  O_28
    2  A    between atoms: O_28  and  C_29
    3  A    between atoms: C_29  and  C_32
                            x       y       z     vdW  Elec       q    Type
                         _______ _______ _______ _____ _____    ______ ____

>  <TORSDO>
F 3

$$$$
=
 OpenBabel11122412073D

 34 41  0  0  1  0  0  0  0  0999 V2000
  183.3190  178.4620  139.0570 C   0  0  0  0  0  0  0  0  0  0  0  0
  181.0600  179.3360  139.7940 C   0  0  0  0  0  2  0  0  0  0  0  0
  187.0110  174.6730  135.8600 C   0  0  2  0  0  3  0  0  0  0  0  0
  185.4690  177.9890  138.0800 C   0  0  0  0  0  0  0  0  0  0  0  0
  185.6640  176.9170  135.7920 C   0  0  1  0  0  3  0  0  0  0  0  0
  185.3320  174.7880  137.2030 C   0  0  0  0  0  2  0  0  0  0  0  0
  186.6780  174.0770  137.2190 C   0  0  0  0  0  2  0  0  0  0  0  0
  188.4480  176.4140  137.1260 C   0  0  0  0  0  2  0  0  0  0  0  0
  181.1640  177.8630  137.8730 C   0  0  2  0  0  3  0  0  0  0  0  0
  179.5290  179.0290  135.2970 C   0  0  0  0  0  2  0  0  0  0  0  0
  184.2630  177.4840  135.5420 C   0  0  0  0  0  2  0  0  0  0  0  0
  187.7150  177.7370  136.9840 C   0  0  0  0  0  2  0  0  0  0  0  0
  181.9820  177.9150  136.5630 C   0  0  1  0  0  3  0  0  0  0  0  0
  179.6630  179.2530  139.2020 C   0  0  0  0  0  2  0  0  0  0  0  0
  186.2750  177.5220  136.9820 N   0  0  0  0  0  0  0  0  0  0  0  0
  188.2750  175.5560  135.8750 C   0  0  0  0  0  2  0  0  0  0  0  0
  179.6640  179.6350  136.7070 C   0  0  1  0  0  3  0  0  0  0  0  0
  184.0690  177.9570  137.9880 C   0  0  0  0  0  0  0  0  0  0  0  0
  185.6510  175.3740  135.8350 C   0  0  2  0  0  3  0  0  0  0  0  0
  183.3870  177.3370  136.7910 C   0  0  2  0  0  3  0  0  0  0  0  0
  185.3090  179.0040  140.2150 C   0  0  0  0  0  3  0  0  0  0  0  0
  179.8060  177.5250  135.2260 C   0  0  0  0  0  2  0  0  0  0  0  0
  186.0550  178.5150  139.1910 N   0  0  0  0  0  0  0  0  0  0  0  0
  181.2840  177.1720  135.4130 C   0  0  0  0  0  2  0  0  0  0  0  0
  179.8090  178.5890  137.8360 C   0  0  1  0  0  3  0  0  0  0  0  0
  183.9520  178.9820  140.1430 N   0  0  0  0  0  0  0  0  0  0  0  0
  181.8900  178.4800  138.9710 N   0  0  0  0  0  0  0  0  0  0  0  0
  180.7150  180.5580  136.7290 O   0  0  0  0  0  0  0  0  0  0  0  0
  180.4390  181.4540  135.6940 C   0  0  0  0  0  2  0  0  0  0  0  0
  181.2060  185.0700  135.9360 O   0  0  0  0  0  0  0  0  0  0  0  0
  181.1820  183.1610  137.3240 C   0  0  0  0  0  3  0  0  0  0  0  0
  180.7810  182.8350  136.1320 C   0  0  0  0  0  0  0  0  0  0  0  0
  181.4620  184.6260  137.2600 C   0  0  0  0  0  3  0  0  0  0  0  0
  180.8000  183.9500  135.2800 N   0  0  0  0  0  0  0  0  0  0  0  0
  1 26  1  0  0  0  0
  3 16  1  1  0  0  0
  3  7  1  0  0  0  0
  4 23  2  0  0  0  0
  5 11  1  1  0  0  0
  5 19  1  0  0  0  0
  5 15  1  0  0  0  0
  6  7  1  0  0  0  0
  9 27  1  1  0  0  0
 10 17  1  0  0  0  0
 12  8  1  0  0  0  0
 13 24  1  6  0  0  0
 13 20  1  0  0  0  0
 13  9  1  0  0  0  0
 14  2  1  0  0  0  0
 15 12  1  0  0  0  0
 15  4  1  0  0  0  0
 16  8  1  0  0  0  0
 17 28  1  6  0  0  0
 17 25  1  0  0  0  0
 18  4  1  0  0  0  0
 18  1  2  0  0  0  0
 19  3  1  0  0  0  0
 19  6  1  1  0  0  0
 20 11  1  6  0  0  0
 20 18  1  0  0  0  0
 22 10  1  0  0  0  0
 22 24  1  0  0  0  0
 23 21  1  0  0  0  0
 25  9  1  0  0  0  0
 25 14  1  1  0  0  0
 26 21  2  0  0  0  0
 27  1  1  0  0  0  0
 27  2  1  0  0  0  0
 29 32  1  0  0  0  0
 29 28  1  0  0  0  0
 30 33  1  0  0  0  0
 32 31  1  0  0  0  0
 33 31  2  0  0  0  0
 34 30  1  0  0  0  0
 34 32  2  0  0  0  0
M  END
>  <MODEL>
8

>  <REMARK>
 VINA RESULT:      -5.8      4.428      7.406
  Name = 
  3 active torsions:
  status: ('A' for Active; 'I' for Inactive)
    1  A    between atoms: C_17  and  O_28
    2  A    between atoms: O_28  and  C_29
    3  A    between atoms: C_29  and  C_32
                            x       y       z     vdW  Elec       q    Type
                         _______ _______ _______ _____ _____    ______ ____

>  <TORSDO>
F 3

$$$$
=
 OpenBabel11122412073D

 34 41  0  0  1  0  0  0  0  0999 V2000
  181.4710  177.9630  136.6180 C   0  0  0  0  0  0  0  0  0  0  0  0
  180.4890  180.1200  137.5100 C   0  0  0  0  0  2  0  0  0  0  0  0
  185.7500  173.5080  136.3930 C   0  0  2  0  0  3  0  0  0  0  0  0
  182.1000  175.7110  136.0380 C   0  0  0  0  0  0  0  0  0  0  0  0
  183.5590  174.3200  137.5740 C   0  0  1  0  0  3  0  0  0  0  0  0
  185.4070  175.6330  136.3510 C   0  0  0  0  0  2  0  0  0  0  0  0
  186.0980  174.6360  135.4330 C   0  0  0  0  0  2  0  0  0  0  0  0
  183.8070  172.9210  134.7870 C   0  0  0  0  0  2  0  0  0  0  0  0
  182.2780  179.0570  138.7510 C   0  0  2  0  0  3  0  0  0  0  0  0
  181.5910  178.7360  141.9290 C   0  0  0  0  0  2  0  0  0  0  0  0
  183.0510  175.2390  138.6880 C   0  0  0  0  0  2  0  0  0  0  0  0
  182.5330  173.2910  135.5270 C   0  0  0  0  0  2  0  0  0  0  0  0
  182.4550  177.6260  139.3060 C   0  0  1  0  0  3  0  0  0  0  0  0
  180.6810  180.9010  138.7990 C   0  0  0  0  0  2  0  0  0  0  0  0
  182.7510  174.4670  136.3570 N   0  0  0  0  0  0  0  0  0  0  0  0
  184.8730  172.4130  135.7540 C   0  0  0  0  0  2  0  0  0  0  0  0
  180.7460  179.3950  140.8230 C   0  0  1  0  0  3  0  0  0  0  0  0
  182.1530  176.7850  136.9410 C   0  0  0  0  0  0  0  0  0  0  0  0
  185.0700  174.5130  137.3250 C   0  0  2  0  0  3  0  0  0  0  0  0
  182.9780  176.6910  138.2050 C   0  0  2  0  0  3  0  0  0  0  0  0
  180.7250  176.9910  134.5940 C   0  0  0  0  0  3  0  0  0  0  0  0
  183.0830  178.6260  141.6040 C   0  0  0  0  0  2  0  0  0  0  0  0
  181.3840  175.8410  134.8870 N   0  0  0  0  0  0  0  0  0  0  0  0
  183.3920  177.5860  140.5230 C   0  0  0  0  0  2  0  0  0  0  0  0
  181.5750  180.0480  139.6940 C   0  0  1  0  0  3  0  0  0  0  0  0
  180.7650  178.0400  135.4580 N   0  0  0  0  0  0  0  0  0  0  0  0
  181.4740  179.0570  137.5410 N   0  0  0  0  0  0  0  0  0  0  0  0
  179.8290  178.4700  140.3120 O   0  0  0  0  0  0  0  0  0  0  0  0
  179.5250  177.6230  141.3800 C   0  0  0  0  0  2  0  0  0  0  0  0
  179.1700  173.9610  140.9550 O   0  0  0  0  0  0  0  0  0  0  0  0
  179.2760  175.9040  139.6190 C   0  0  0  0  0  3  0  0  0  0  0  0
  179.3360  176.2370  140.8730 C   0  0  0  0  0  0  0  0  0  0  0  0
  179.1490  174.4160  139.6100 C   0  0  0  0  0  3  0  0  0  0  0  0
  179.2900  175.0970  141.6910 N   0  0  0  0  0  0  0  0  0  0  0  0
  1 18  1  0  0  0  0
  1 27  1  0  0  0  0
  2 27  1  0  0  0  0
  2 14  1  0  0  0  0
  3  7  1  6  0  0  0
  3 19  1  0  0  0  0
  4 15  1  0  0  0  0
  4 18  2  0  0  0  0
  5 11  1  1  0  0  0
  7  6  1  0  0  0  0
  8 12  1  0  0  0  0
  8 16  1  0  0  0  0
  9 27  1  6  0  0  0
  9 13  1  0  0  0  0
  9 25  1  0  0  0  0
 12 15  1  0  0  0  0
 13 24  1  1  0  0  0
 15  5  1  0  0  0  0
 16  3  1  0  0  0  0
 17 28  1  6  0  0  0
 17 10  1  0  0  0  0
 18 20  1  0  0  0  0
 19  6  1  6  0  0  0
 19  5  1  0  0  0  0
 20 11  1  1  0  0  0
 20 13  1  0  0  0  0
 21 23  2  0  0  0  0
 21 26  1  0  0  0  0
 22 10  1  0  0  0  0
 23  4  1  0  0  0  0
 24 22  1  0  0  0  0
 25 14  1  6  0  0  0
 25 17  1  0  0  0  0
 26  1  2  0  0  0  0
 28 29  1  0  0  0  0
 30 34  1  0  0  0  0
 31 32  1  0  0  0  0
 32 29  1  0  0  0  0
 32 34  2  0  0  0  0
 33 31  2  0  0  0  0
 33 30  1  0  0  0  0
M  END
>  <MODEL>
9

>  <REMARK>
 VINA RESULT:      -5.1      5.499      7.467
  Name = 
  3 active torsions:
  status: ('A' for Active; 'I' for Inactive)
    1  A    between atoms: C_17  and  O_28
    2  A    between atoms: O_28  and  C_29
    3  A    between atoms: C_29  and  C_32
                            x       y       z     vdW  Elec       q    Type
                         _______ _______ _______ _____ _____    ______ ____

>  <TORSDO>
F 3

$$$$
