=
 OpenBabel11122411503D

 28 32  0  0  1  0  0  0  0  0999 V2000
  180.9230  178.6780  142.2510 C   0  0  0  0  0  0  0  0  0  0  0  0
  180.5490  181.2390  140.1020 O   0  0  0  0  0  0  0  0  0  0  0  0
  179.6110  175.0190  137.4220 O   0  0  0  0  0  0  0  0  0  0  0  0
  183.6380  178.7890  142.9450 C   0  0  0  0  0  3  0  0  0  0  0  0
  181.4520  176.4260  136.8960 C   0  0  1  0  0  3  0  0  0  0  0  0
  179.4610  178.5610  141.9400 C   0  0  0  0  0  2  0  0  0  0  0  0
  182.0500  182.0620  138.3510 O   0  0  0  0  0  0  0  0  0  0  0  0
  181.1790  180.9150  138.7770 S   0  0  0  0  0  0  0  0  0  0  0  0
  180.0850  179.3380  137.0340 C   0  0  1  0  0  3  0  0  0  0  0  0
  182.1850  179.4380  138.9030 C   0  0  2  0  0  3  0  0  0  0  0  0
  179.2520  175.0070  141.6360 O   0  0  0  0  0  0  0  0  0  0  0  0
  181.9130  177.0230  139.2650 C   0  0  2  0  0  3  0  0  0  0  0  0
  181.4330  179.1660  136.4950 N   0  0  0  0  0  2  0  0  0  0  0  0
  179.9380  180.6770  137.5900 N   0  0  0  0  0  2  0  0  0  0  0  0
  179.2710  176.2070  141.2550 C   0  0  0  0  0  0  0  0  0  0  0  0
  181.9100  178.5730  141.2470 C   0  0  0  0  0  0  0  0  0  0  0  0
  180.5130  175.7410  137.8160 C   0  0  0  0  0  0  0  0  0  0  0  0
  179.0700  179.1380  135.9290 C   0  0  0  0  0  1  0  0  0  0  0  0
  179.5640  176.5190  139.8940 N   0  0  0  0  0  2  0  0  0  0  0  0
  183.2660  178.6260  141.6090 C   0  0  0  0  0  3  0  0  0  0  0  0
  181.3070  178.8330  143.5880 C   0  0  0  0  0  3  0  0  0  0  0  0
  182.6570  178.8940  143.9340 C   0  0  0  0  0  3  0  0  0  0  0  0
  179.0230  177.2270  142.1730 O   0  0  0  0  0  0  0  0  0  0  0  0
  182.3690  177.2310  137.8160 C   0  0  2  0  0  3  0  0  0  0  0  0
  180.7640  175.9980  139.2530 C   0  0  2  0  0  3  0  0  0  0  0  0
  182.3790  178.7450  137.5470 C   0  0  2  0  0  3  0  0  0  0  0  0
  182.2740  175.4070  136.1290 C   0  0  0  0  0  1  0  0  0  0  0  0
  181.5270  178.4030  139.8030 C   0  0  1  0  0  3  0  0  0  0  0  0
  1 21  1  0  0  0  0
  3 17  2  0  0  0  0
  4 22  1  0  0  0  0
  5 27  1  1  0  0  0
  5 17  1  0  0  0  0
  5 24  1  0  0  0  0
  6 23  1  0  0  0  0
  6  1  1  0  0  0  0
  7  8  2  0  0  0  0
  8  2  2  0  0  0  0
  9 18  1  6  0  0  0
  9 14  1  0  0  0  0
 10  8  1  6  0  0  0
 10 28  1  0  0  0  0
 12 28  1  0  0  0  0
 13  9  1  0  0  0  0
 13 26  1  0  0  0  0
 14  8  1  0  0  0  0
 15 11  2  0  0  0  0
 15 23  1  0  0  0  0
 16 20  1  0  0  0  0
 16  1  2  0  0  0  0
 17 25  1  0  0  0  0
 19 15  1  0  0  0  0
 20  4  2  0  0  0  0
 21 22  2  0  0  0  0
 24 12  1  0  0  0  0
 25 12  1  0  0  0  0
 25 19  1  0  0  0  0
 26 24  1  0  0  0  0
 26 10  1  0  0  0  0
 28 16  1  0  0  0  0
M  END
>  <MODEL>
1

>  <REMARK>
 VINA RESULT:      -6.1      0.000      0.000
  Name = 
  0 active torsions:
  status: ('A' for Active; 'I' for Inactive)
                            x       y       z     vdW  Elec       q    Type
                         _______ _______ _______ _____ _____    ______ ____

>  <TORSDO>
F 0

$$$$
=
 OpenBabel11122411503D

 28 32  0  0  1  0  0  0  0  0999 V2000
  185.3430  175.6650  136.7320 C   0  0  0  0  0  0  0  0  0  0  0  0
  182.7480  175.5470  134.5940 O   0  0  0  0  0  0  0  0  0  0  0  0
  181.7650  179.3790  140.1720 O   0  0  0  0  0  0  0  0  0  0  0  0
  185.5500  173.0280  137.6660 C   0  0  0  0  0  3  0  0  0  0  0  0
  180.6400  177.3260  139.7570 C   0  0  1  0  0  3  0  0  0  0  0  0
  185.3050  177.0910  136.2710 C   0  0  0  0  0  2  0  0  0  0  0  0
  180.6380  174.3140  134.7400 O   0  0  0  0  0  0  0  0  0  0  0  0
  181.4500  175.4240  135.3420 S   0  0  0  0  0  0  0  0  0  0  0  0
  180.3170  177.4160  136.5550 C   0  0  1  0  0  3  0  0  0  0  0  0
  181.7530  175.0520  137.0690 C   0  0  2  0  0  3  0  0  0  0  0  0
  185.8680  178.6930  139.4150 O   0  0  0  0  0  0  0  0  0  0  0  0
  182.7010  176.1200  139.0670 C   0  0  2  0  0  3  0  0  0  0  0  0
  179.6240  176.4040  137.3510 N   0  0  0  0  0  2  0  0  0  0  0  0
  180.5650  176.9080  135.2110 N   0  0  0  0  0  2  0  0  0  0  0  0
  185.2220  178.3140  138.4030 C   0  0  0  0  0  0  0  0  0  0  0  0
  184.2460  175.0620  137.3860 C   0  0  0  0  0  0  0  0  0  0  0  0
  181.8310  178.2040  139.8440 C   0  0  0  0  0  0  0  0  0  0  0  0
  179.4650  178.6640  136.4720 C   0  0  0  0  0  1  0  0  0  0  0  0
  183.7970  178.2610  138.4450 N   0  0  0  0  0  2  0  0  0  0  0  0
  184.3650  173.7420  137.8520 C   0  0  0  0  0  3  0  0  0  0  0  0
  186.5290  174.9420  136.5570 C   0  0  0  0  0  3  0  0  0  0  0  0
  186.6310  173.6280  137.0170 C   0  0  0  0  0  3  0  0  0  0  0  0
  185.9070  177.9310  137.2500 O   0  0  0  0  0  0  0  0  0  0  0  0
  181.1900  175.9820  139.2840 C   0  0  2  0  0  3  0  0  0  0  0  0
  183.1110  177.5380  139.5070 C   0  0  2  0  0  3  0  0  0  0  0  0
  180.5810  175.4650  137.9700 C   0  0  2  0  0  3  0  0  0  0  0  0
  180.0090  177.1600  141.1260 C   0  0  0  0  0  1  0  0  0  0  0  0
  182.9610  175.8150  137.5890 C   0  0  1  0  0  3  0  0  0  0  0  0
  1 16  1  0  0  0  0
  2  8  2  0  0  0  0
  4 20  1  0  0  0  0
  5 17  1  0  0  0  0
  5 27  1  1  0  0  0
  6  1  1  0  0  0  0
  6 23  1  0  0  0  0
  7  8  2  0  0  0  0
  9 18  1  6  0  0  0
  9 13  1  0  0  0  0
 10  8  1  6  0  0  0
 10 28  1  0  0  0  0
 10 26  1  0  0  0  0
 12 24  1  0  0  0  0
 12 25  1  0  0  0  0
 13 26  1  0  0  0  0
 14  8  1  0  0  0  0
 14  9  1  0  0  0  0
 15 19  1  0  0  0  0
 15 11  2  0  0  0  0
 16 28  1  0  0  0  0
 16 20  2  0  0  0  0
 17  3  2  0  0  0  0
 19 25  1  0  0  0  0
 21  1  2  0  0  0  0
 21 22  1  0  0  0  0
 22  4  2  0  0  0  0
 23 15  1  0  0  0  0
 24  5  1  0  0  0  0
 25 17  1  0  0  0  0
 26 24  1  0  0  0  0
 28 12  1  0  0  0  0
M  END
>  <MODEL>
2

>  <REMARK>
 VINA RESULT:      -5.3      3.150      6.050
  Name = 
  0 active torsions:
  status: ('A' for Active; 'I' for Inactive)
                            x       y       z     vdW  Elec       q    Type
                         _______ _______ _______ _____ _____    ______ ____

>  <TORSDO>
F 0

$$$$
=
 OpenBabel11122411503D

 28 32  0  0  1  0  0  0  0  0999 V2000
  184.3520  177.4600  137.9330 C   0  0  0  0  0  0  0  0  0  0  0  0
  181.7090  178.9940  136.5250 O   0  0  0  0  0  0  0  0  0  0  0  0
  182.3310  179.8620  143.2790 O   0  0  0  0  0  0  0  0  0  0  0  0
  183.7990  174.7330  137.5800 C   0  0  0  0  0  3  0  0  0  0  0  0
  180.6040  178.5870  142.2580 C   0  0  1  0  0  3  0  0  0  0  0  0
  184.7240  178.8960  138.1490 C   0  0  0  0  0  2  0  0  0  0  0  0
  179.3370  178.3900  136.5490 O   0  0  0  0  0  0  0  0  0  0  0  0
  180.4900  178.8520  137.3920 S   0  0  0  0  0  0  0  0  0  0  0  0
  180.1100  180.2470  139.5440 C   0  0  1  0  0  3  0  0  0  0  0  0
  180.7790  177.6510  138.6900 C   0  0  2  0  0  3  0  0  0  0  0  0
  185.9630  178.6410  141.4900 O   0  0  0  0  0  0  0  0  0  0  0  0
  182.1420  177.3890  140.7170 C   0  0  2  0  0  3  0  0  0  0  0  0
  179.1940  179.1820  139.9500 N   0  0  0  0  0  2  0  0  0  0  0  0
  180.0980  180.3880  138.0930 N   0  0  0  0  0  2  0  0  0  0  0  0
  185.1650  178.9520  140.5670 C   0  0  0  0  0  0  0  0  0  0  0  0
  183.1690  176.9070  138.4710 C   0  0  0  0  0  0  0  0  0  0  0  0
  182.0100  179.0030  142.4720 C   0  0  0  0  0  0  0  0  0  0  0  0
  179.6800  181.5520  140.1790 C   0  0  0  0  0  1  0  0  0  0  0  0
  183.8000  179.2330  140.8690 N   0  0  0  0  0  2  0  0  0  0  0  0
  182.9070  175.5390  138.2900 C   0  0  0  0  0  3  0  0  0  0  0  0
  185.2430  176.6420  137.2290 C   0  0  0  0  0  3  0  0  0  0  0  0
  184.9660  175.2860  137.0490 C   0  0  0  0  0  3  0  0  0  0  0  0
  185.6200  179.0030  139.2490 O   0  0  0  0  0  0  0  0  0  0  0  0
  180.6800  177.5360  141.1530 C   0  0  2  0  0  3  0  0  0  0  0  0
  182.9970  178.2860  141.6310 C   0  0  2  0  0  3  0  0  0  0  0  0
  179.8540  177.8620  139.8970 C   0  0  2  0  0  3  0  0  0  0  0  0
  180.0450  177.9550  143.5190 C   0  0  0  0  0  1  0  0  0  0  0  0
  182.1950  177.7620  139.2330 C   0  0  1  0  0  3  0  0  0  0  0  0
  1  6  1  0  0  0  0
  1 16  1  0  0  0  0
  2  8  2  0  0  0  0
  4 20  1  0  0  0  0
  5 17  1  0  0  0  0
  5 27  1  1  0  0  0
  6 23  1  0  0  0  0
  7  8  2  0  0  0  0
  8 14  1  0  0  0  0
  9 13  1  0  0  0  0
  9 18  1  1  0  0  0
 10  8  1  6  0  0  0
 10 28  1  0  0  0  0
 10 26  1  0  0  0  0
 12 24  1  0  0  0  0
 12 25  1  0  0  0  0
 14  9  1  0  0  0  0
 15 19  1  0  0  0  0
 15 11  2  0  0  0  0
 16 28  1  0  0  0  0
 17  3  2  0  0  0  0
 19 25  1  0  0  0  0
 20 16  2  0  0  0  0
 21  1  2  0  0  0  0
 22 21  1  0  0  0  0
 22  4  2  0  0  0  0
 23 15  1  0  0  0  0
 24  5  1  0  0  0  0
 25 17  1  0  0  0  0
 26 13  1  0  0  0  0
 26 24  1  0  0  0  0
 28 12  1  0  0  0  0
M  END
>  <MODEL>
3

>  <REMARK>
 VINA RESULT:      -5.2      2.750      5.382
  Name = 
  0 active torsions:
  status: ('A' for Active; 'I' for Inactive)
                            x       y       z     vdW  Elec       q    Type
                         _______ _______ _______ _____ _____    ______ ____

>  <TORSDO>
F 0

$$$$
=
 OpenBabel11122411503D

 28 32  0  0  1  0  0  0  0  0999 V2000
  185.4610  175.1410  136.0240 C   0  0  0  0  0  0  0  0  0  0  0  0
  182.4640  175.6820  134.5940 O   0  0  0  0  0  0  0  0  0  0  0  0
  184.2890  180.2330  139.3600 O   0  0  0  0  0  0  0  0  0  0  0  0
  185.1090  172.7220  137.3990 C   0  0  0  0  0  3  0  0  0  0  0  0
  182.5260  178.6630  139.6300 C   0  0  1  0  0  3  0  0  0  0  0  0
  185.7300  176.4290  135.3060 C   0  0  0  0  0  2  0  0  0  0  0  0
  180.2080  175.2800  135.4560 O   0  0  0  0  0  0  0  0  0  0  0  0
  181.4530  176.1020  135.6230 S   0  0  0  0  0  0  0  0  0  0  0  0
  181.3640  178.4890  136.6330 C   0  0  1  0  0  3  0  0  0  0  0  0
  182.0980  175.8500  137.2760 C   0  0  2  0  0  3  0  0  0  0  0  0
  187.6070  178.0880  137.8530 O   0  0  0  0  0  0  0  0  0  0  0  0
  183.8440  176.7480  138.7520 C   0  0  2  0  0  3  0  0  0  0  0  0
  180.6480  177.8780  137.7520 N   0  0  0  0  0  2  0  0  0  0  0  0
  181.0600  177.7760  135.3980 N   0  0  0  0  0  2  0  0  0  0  0  0
  186.6210  177.8420  137.1100 C   0  0  0  0  0  0  0  0  0  0  0  0
  184.4610  175.0350  137.0160 C   0  0  0  0  0  0  0  0  0  0  0  0
  183.9010  179.0780  139.2680 C   0  0  0  0  0  0  0  0  0  0  0  0
  180.9440  179.9360  136.4930 C   0  0  0  0  0  1  0  0  0  0  0  0
  185.3190  178.2900  137.4810 N   0  0  0  0  0  2  0  0  0  0  0  0
  184.2980  173.8180  137.6990 C   0  0  0  0  0  3  0  0  0  0  0  0
  186.2720  174.0380  135.7360 C   0  0  0  0  0  3  0  0  0  0  0  0
  186.0950  172.8320  136.4160 C   0  0  0  0  0  3  0  0  0  0  0  0
  186.8070  177.1150  135.9340 O   0  0  0  0  0  0  0  0  0  0  0  0
  182.4860  177.1660  139.3260 C   0  0  2  0  0  3  0  0  0  0  0  0
  184.7710  177.9770  138.7940 C   0  0  2  0  0  3  0  0  0  0  0  0
  181.4070  176.7440  138.3150 C   0  0  2  0  0  3  0  0  0  0  0  0
  182.2820  178.8840  141.1120 C   0  0  0  0  0  1  0  0  0  0  0  0
  183.5750  176.2030  137.3470 C   0  0  1  0  0  3  0  0  0  0  0  0
  1 16  1  0  0  0  0
  2  8  2  0  0  0  0
  4 20  1  0  0  0  0
  5 27  1  1  0  0  0
  6 23  1  0  0  0  0
  6  1  1  0  0  0  0
  7  8  2  0  0  0  0
  9 18  1  6  0  0  0
  9 13  1  0  0  0  0
 10  8  1  6  0  0  0
 10 28  1  0  0  0  0
 10 26  1  0  0  0  0
 12 25  1  0  0  0  0
 12 24  1  0  0  0  0
 13 26  1  0  0  0  0
 14  8  1  0  0  0  0
 14  9  1  0  0  0  0
 15 19  1  0  0  0  0
 15 11  2  0  0  0  0
 16 28  1  0  0  0  0
 16 20  2  0  0  0  0
 17  3  2  0  0  0  0
 17  5  1  0  0  0  0
 19 25  1  0  0  0  0
 21  1  2  0  0  0  0
 21 22  1  0  0  0  0
 22  4  2  0  0  0  0
 23 15  1  0  0  0  0
 24  5  1  0  0  0  0
 25 17  1  0  0  0  0
 26 24  1  0  0  0  0
 28 12  1  0  0  0  0
M  END
>  <MODEL>
4

>  <REMARK>
 VINA RESULT:      -5.1      3.406      6.550
  Name = 
  0 active torsions:
  status: ('A' for Active; 'I' for Inactive)
                            x       y       z     vdW  Elec       q    Type
                         _______ _______ _______ _____ _____    ______ ____

>  <TORSDO>
F 0

$$$$
=
 OpenBabel11122411503D

 28 32  0  0  1  0  0  0  0  0999 V2000
  184.3040  176.0200  135.9180 C   0  0  0  0  0  0  0  0  0  0  0  0
  181.6280  177.9190  135.1750 O   0  0  0  0  0  0  0  0  0  0  0  0
  185.0920  179.8120  140.7590 O   0  0  0  0  0  0  0  0  0  0  0  0
  183.1900  173.5230  136.5420 C   0  0  0  0  0  3  0  0  0  0  0  0
  182.9060  178.8810  140.8050 C   0  0  1  0  0  3  0  0  0  0  0  0
  184.9760  177.3190  135.5860 C   0  0  0  0  0  2  0  0  0  0  0  0
  179.4070  177.9860  136.2010 O   0  0  0  0  0  0  0  0  0  0  0  0
  180.8650  178.2700  136.4200 S   0  0  0  0  0  0  0  0  0  0  0  0
  181.6450  180.0860  138.0990 C   0  0  1  0  0  3  0  0  0  0  0  0
  181.4440  177.2950  137.8080 C   0  0  2  0  0  3  0  0  0  0  0  0
  187.4050  177.3590  138.2060 O   0  0  0  0  0  0  0  0  0  0  0  0
  183.4470  177.0530  139.2090 C   0  0  2  0  0  3  0  0  0  0  0  0
  180.8040  179.3970  139.0770 N   0  0  0  0  0  2  0  0  0  0  0  0
  181.0670  179.9570  136.7670 N   0  0  0  0  0  2  0  0  0  0  0  0
  186.3680  177.6970  137.5770 C   0  0  0  0  0  0  0  0  0  0  0  0
  183.3670  175.9120  136.9690 C   0  0  0  0  0  0  0  0  0  0  0  0
  184.3260  178.9370  140.3850 C   0  0  0  0  0  0  0  0  0  0  0  0
  181.7470  181.5510  138.4630 C   0  0  0  0  0  1  0  0  0  0  0  0
  185.3160  178.3820  138.2540 N   0  0  0  0  0  2  0  0  0  0  0  0
  182.8200  174.6540  137.2730 C   0  0  0  0  0  3  0  0  0  0  0  0
  184.6730  174.8790  135.1960 C   0  0  0  0  0  3  0  0  0  0  0  0
  184.1150  173.6370  135.5030 C   0  0  0  0  0  3  0  0  0  0  0  0
  186.2460  177.3820  136.2240 O   0  0  0  0  0  0  0  0  0  0  0  0
  182.3400  177.6630  140.0770 C   0  0  2  0  0  3  0  0  0  0  0  0
  184.7420  177.8420  139.4800 C   0  0  2  0  0  3  0  0  0  0  0  0
  181.1450  177.9630  139.1570 C   0  0  2  0  0  3  0  0  0  0  0  0
  182.8100  178.6630  142.3040 C   0  0  0  0  0  1  0  0  0  0  0  0
  182.9540  177.1200  137.7620 C   0  0  1  0  0  3  0  0  0  0  0  0
  1 16  1  0  0  0  0
  2  8  2  0  0  0  0
  4 20  1  0  0  0  0
  5 27  1  1  0  0  0
  6  1  1  0  0  0  0
  6 23  1  0  0  0  0
  7  8  2  0  0  0  0
  8 14  1  0  0  0  0
  9 18  1  1  0  0  0
  9 13  1  0  0  0  0
 10  8  1  6  0  0  0
 10 26  1  0  0  0  0
 12 25  1  0  0  0  0
 12 24  1  0  0  0  0
 13 26  1  0  0  0  0
 14  9  1  0  0  0  0
 15 11  2  0  0  0  0
 15 19  1  0  0  0  0
 16 20  2  0  0  0  0
 16 28  1  0  0  0  0
 17  3  2  0  0  0  0
 17  5  1  0  0  0  0
 19 25  1  0  0  0  0
 21 22  1  0  0  0  0
 21  1  2  0  0  0  0
 22  4  2  0  0  0  0
 23 15  1  0  0  0  0
 24  5  1  0  0  0  0
 25 17  1  0  0  0  0
 26 24  1  0  0  0  0
 28 10  1  0  0  0  0
 28 12  1  0  0  0  0
M  END
>  <MODEL>
5

>  <REMARK>
 VINA RESULT:      -5.0      3.035      6.157
  Name = 
  0 active torsions:
  status: ('A' for Active; 'I' for Inactive)
                            x       y       z     vdW  Elec       q    Type
                         _______ _______ _______ _____ _____    ______ ____

>  <TORSDO>
F 0

$$$$
=
 OpenBabel11122411503D

 28 32  0  0  1  0  0  0  0  0999 V2000
  181.6550  178.1760  137.5900 C   0  0  0  0  0  0  0  0  0  0  0  0
  181.2620  174.8760  137.0700 O   0  0  0  0  0  0  0  0  0  0  0  0
  187.7200  176.9430  137.9560 O   0  0  0  0  0  0  0  0  0  0  0  0
  180.8280  179.3300  135.1720 C   0  0  0  0  0  3  0  0  0  0  0  0
  186.8530  176.1460  135.8920 C   0  0  1  0  0  3  0  0  0  0  0  0
  182.1010  177.6360  138.9170 C   0  0  0  0  0  2  0  0  0  0  0  0
  181.6830  173.5330  135.0670 O   0  0  0  0  0  0  0  0  0  0  0  0
  182.3260  174.3540  136.1460 S   0  0  0  0  0  0  0  0  0  0  0  0
  184.7670  173.9100  136.9000 C   0  0  1  0  0  3  0  0  0  0  0  0
  183.2210  175.7100  135.3890 C   0  0  2  0  0  3  0  0  0  0  0  0
  184.9300  179.7530  139.4420 O   0  0  0  0  0  0  0  0  0  0  0  0
  184.7750  177.5030  136.0250 C   0  0  2  0  0  3  0  0  0  0  0  0
  185.1170  174.0270  135.4850 N   0  0  0  0  0  2  0  0  0  0  0  0
  183.4270  173.3540  137.0380 N   0  0  0  0  0  2  0  0  0  0  0  0
  184.3050  178.6910  139.1830 C   0  0  0  0  0  0  0  0  0  0  0  0
  182.3070  177.8280  136.3870 C   0  0  0  0  0  0  0  0  0  0  0  0
  186.8330  176.9790  137.1170 C   0  0  0  0  0  0  0  0  0  0  0  0
  185.7610  173.0030  137.5940 C   0  0  0  0  0  1  0  0  0  0  0  0
  184.9620  177.6260  138.4990 N   0  0  0  0  0  2  0  0  0  0  0  0
  181.8840  178.4160  135.1830 C   0  0  0  0  0  3  0  0  0  0  0  0
  180.6030  179.0980  137.5680 C   0  0  0  0  0  3  0  0  0  0  0  0
  180.1870  179.6690  136.3650 C   0  0  0  0  0  3  0  0  0  0  0  0
  182.9660  178.5710  139.5520 O   0  0  0  0  0  0  0  0  0  0  0  0
  185.5510  176.4920  135.1720 C   0  0  2  0  0  3  0  0  0  0  0  0
  185.6520  177.8650  137.2380 C   0  0  2  0  0  3  0  0  0  0  0  0
  184.6210  175.2950  134.9160 C   0  0  2  0  0  3  0  0  0  0  0  0
  188.0310  176.5280  135.0160 C   0  0  0  0  0  1  0  0  0  0  0  0
  183.4410  176.8420  136.3810 C   0  0  1  0  0  3  0  0  0  0  0  0
  1  6  1  0  0  0  0
  4 20  2  0  0  0  0
  4 22  1  0  0  0  0
  5 27  1  6  0  0  0
  5 17  1  0  0  0  0
  6 23  1  0  0  0  0
  7  8  2  0  0  0  0
  8 14  1  0  0  0  0
  8  2  2  0  0  0  0
  9 14  1  0  0  0  0
  9 18  1  1  0  0  0
 10  8  1  1  0  0  0
 10 28  1  0  0  0  0
 12 28  1  0  0  0  0
 12 25  1  0  0  0  0
 13  9  1  0  0  0  0
 15 11  2  0  0  0  0
 15 23  1  0  0  0  0
 16  1  2  0  0  0  0
 17 25  1  0  0  0  0
 17  3  2  0  0  0  0
 19 15  1  0  0  0  0
 20 16  1  0  0  0  0
 21  1  1  0  0  0  0
 22 21  2  0  0  0  0
 24  5  1  0  0  0  0
 24 12  1  0  0  0  0
 25 19  1  0  0  0  0
 26 24  1  0  0  0  0
 26 10  1  0  0  0  0
 26 13  1  0  0  0  0
 28 16  1  0  0  0  0
M  END
>  <MODEL>
6

>  <REMARK>
 VINA RESULT:      -5.0      3.861      6.469
  Name = 
  0 active torsions:
  status: ('A' for Active; 'I' for Inactive)
                            x       y       z     vdW  Elec       q    Type
                         _______ _______ _______ _____ _____    ______ ____

>  <TORSDO>
F 0

$$$$
=
 OpenBabel11122411503D

 28 32  0  0  1  0  0  0  0  0999 V2000
  181.5630  178.1330  138.9320 C   0  0  0  0  0  0  0  0  0  0  0  0
  181.2030  174.9100  138.0350 O   0  0  0  0  0  0  0  0  0  0  0  0
  187.6440  177.2010  138.1710 O   0  0  0  0  0  0  0  0  0  0  0  0
  180.3150  179.5410  136.8520 C   0  0  0  0  0  3  0  0  0  0  0  0
  186.4810  176.6300  136.1790 C   0  0  1  0  0  3  0  0  0  0  0  0
  182.2360  177.4520  140.0860 C   0  0  0  0  0  2  0  0  0  0  0  0
  181.3370  173.8630  135.8260 O   0  0  0  0  0  0  0  0  0  0  0  0
  182.1200  174.5720  136.8930 S   0  0  0  0  0  0  0  0  0  0  0  0
  184.6640  174.1710  137.1880 C   0  0  1  0  0  3  0  0  0  0  0  0
  182.8320  176.0620  136.1970 C   0  0  2  0  0  3  0  0  0  0  0  0
  185.0400  179.6370  140.4450 O   0  0  0  0  0  0  0  0  0  0  0  0
  184.4070  177.8410  136.8200 C   0  0  2  0  0  3  0  0  0  0  0  0
  184.7760  174.4880  135.7650 N   0  0  0  0  0  2  0  0  0  0  0  0
  183.3840  173.5280  137.4560 N   0  0  0  0  0  2  0  0  0  0  0  0
  184.4180  178.5840  140.1450 C   0  0  0  0  0  0  0  0  0  0  0  0
  182.0210  177.9790  137.6050 C   0  0  0  0  0  0  0  0  0  0  0  0
  186.6320  177.2960  137.4940 C   0  0  0  0  0  0  0  0  0  0  0  0
  185.7880  173.2390  137.5870 C   0  0  0  0  0  1  0  0  0  0  0  0
  184.9900  177.6540  139.2270 N   0  0  0  0  0  2  0  0  0  0  0  0
  181.3890  178.6940  136.5730 C   0  0  0  0  0  3  0  0  0  0  0  0
  180.4900  178.9900  139.2010 C   0  0  0  0  0  3  0  0  0  0  0  0
  179.8650  179.6880  138.1660 C   0  0  0  0  0  3  0  0  0  0  0  0
  183.1610  178.3430  140.6990 O   0  0  0  0  0  0  0  0  0  0  0  0
  185.0680  176.9930  135.7270 C   0  0  2  0  0  3  0  0  0  0  0  0
  185.4570  178.0920  137.9180 C   0  0  2  0  0  3  0  0  0  0  0  0
  184.1500  175.7900  135.4580 C   0  0  2  0  0  3  0  0  0  0  0  0
  187.4870  177.1870  135.1900 C   0  0  0  0  0  1  0  0  0  0  0  0
  183.1720  177.0670  137.2870 C   0  0  1  0  0  3  0  0  0  0  0  0
  1 21  1  0  0  0  0
  1  6  1  0  0  0  0
  4 22  1  0  0  0  0
  5 27  1  6  0  0  0
  5 17  1  0  0  0  0
  6 23  1  0  0  0  0
  7  8  2  0  0  0  0
  8 14  1  0  0  0  0
  8  2  2  0  0  0  0
  9 14  1  0  0  0  0
  9 18  1  6  0  0  0
 10  8  1  1  0  0  0
 10 28  1  0  0  0  0
 12 28  1  0  0  0  0
 12 25  1  0  0  0  0
 13  9  1  0  0  0  0
 15 11  2  0  0  0  0
 15 23  1  0  0  0  0
 16  1  2  0  0  0  0
 17 25  1  0  0  0  0
 17  3  2  0  0  0  0
 19 15  1  0  0  0  0
 20  4  2  0  0  0  0
 20 16  1  0  0  0  0
 22 21  2  0  0  0  0
 24  5  1  0  0  0  0
 24 12  1  0  0  0  0
 25 19  1  0  0  0  0
 26 24  1  0  0  0  0
 26 13  1  0  0  0  0
 26 10  1  0  0  0  0
 28 16  1  0  0  0  0
M  END
>  <MODEL>
7

>  <REMARK>
 VINA RESULT:      -4.9      3.630      5.900
  Name = 
  0 active torsions:
  status: ('A' for Active; 'I' for Inactive)
                            x       y       z     vdW  Elec       q    Type
                         _______ _______ _______ _____ _____    ______ ____

>  <TORSDO>
F 0

$$$$
=
 OpenBabel11122411503D

 28 32  0  0  1  0  0  0  0  0999 V2000
  181.1170  179.0690  140.0710 C   0  0  0  0  0  0  0  0  0  0  0  0
  179.6860  176.1500  139.2030 O   0  0  0  0  0  0  0  0  0  0  0  0
  186.2900  176.7720  137.5430 O   0  0  0  0  0  0  0  0  0  0  0  0
  179.7700  180.9580  138.4970 C   0  0  0  0  0  3  0  0  0  0  0  0
  184.5210  176.7250  135.9560 C   0  0  1  0  0  3  0  0  0  0  0  0
  181.8720  178.1210  140.9550 C   0  0  0  0  0  2  0  0  0  0  0  0
  178.9330  175.3500  137.0150 O   0  0  0  0  0  0  0  0  0  0  0  0
  180.1350  175.7260  137.8330 S   0  0  0  0  0  0  0  0  0  0  0  0
  182.4630  174.6870  137.3610 C   0  0  1  0  0  3  0  0  0  0  0  0
  181.0000  177.0650  137.0140 C   0  0  2  0  0  3  0  0  0  0  0  0
  185.1430  179.5030  140.5610 O   0  0  0  0  0  0  0  0  0  0  0  0
  183.0980  178.3270  137.2150 C   0  0  2  0  0  3  0  0  0  0  0  0
  182.2630  175.1220  135.9790 N   0  0  0  0  0  2  0  0  0  0  0  0
  181.1800  174.3500  137.9670 N   0  0  0  0  0  2  0  0  0  0  0  0
  184.2070  178.6740  140.4170 C   0  0  0  0  0  0  0  0  0  0  0  0
  181.1400  178.9550  138.6640 C   0  0  0  0  0  0  0  0  0  0  0  0
  185.1950  177.1850  137.1930 C   0  0  0  0  0  0  0  0  0  0  0  0
  183.3640  173.4710  137.3820 C   0  0  0  0  0  1  0  0  0  0  0  0
  184.2410  177.7390  139.3400 N   0  0  0  0  0  2  0  0  0  0  0  0
  180.4640  179.9110  137.8870 C   0  0  0  0  0  3  0  0  0  0  0  0
  180.4240  180.1260  140.6710 C   0  0  0  0  0  3  0  0  0  0  0  0
  179.7500  181.0650  139.8890 C   0  0  0  0  0  3  0  0  0  0  0  0
  183.1310  178.6870  141.3040 O   0  0  0  0  0  0  0  0  0  0  0  0
  183.1880  177.4690  135.9470 C   0  0  2  0  0  3  0  0  0  0  0  0
  184.4340  178.1910  137.9690 C   0  0  2  0  0  3  0  0  0  0  0  0
  181.9460  176.5620  135.9140 C   0  0  2  0  0  3  0  0  0  0  0  0
  185.3320  177.1250  134.7370 C   0  0  0  0  0  1  0  0  0  0  0  0
  181.8770  177.8300  137.9930 C   0  0  1  0  0  3  0  0  0  0  0  0
  1 21  1  0  0  0  0
  1  6  1  0  0  0  0
  4 22  1  0  0  0  0
  5 27  1  6  0  0  0
  5 17  1  0  0  0  0
  6 23  1  0  0  0  0
  7  8  2  0  0  0  0
  8 14  1  0  0  0  0
  8  2  2  0  0  0  0
  9 18  1  6  0  0  0
  9 14  1  0  0  0  0
 10  8  1  1  0  0  0
 10 28  1  0  0  0  0
 12 25  1  0  0  0  0
 12 28  1  0  0  0  0
 13  9  1  0  0  0  0
 15 11  2  0  0  0  0
 15 23  1  0  0  0  0
 16  1  2  0  0  0  0
 17  3  2  0  0  0  0
 17 25  1  0  0  0  0
 19 15  1  0  0  0  0
 20  4  2  0  0  0  0
 20 16  1  0  0  0  0
 22 21  2  0  0  0  0
 24  5  1  0  0  0  0
 24 12  1  0  0  0  0
 25 19  1  0  0  0  0
 26 24  1  0  0  0  0
 26 13  1  0  0  0  0
 26 10  1  0  0  0  0
 28 16  1  0  0  0  0
M  END
>  <MODEL>
8

>  <REMARK>
 VINA RESULT:      -4.8      2.916      4.838
  Name = 
  0 active torsions:
  status: ('A' for Active; 'I' for Inactive)
                            x       y       z     vdW  Elec       q    Type
                         _______ _______ _______ _____ _____    ______ ____

>  <TORSDO>
F 0

$$$$
=
 OpenBabel11122411503D

 28 32  0  0  1  0  0  0  0  0999 V2000
  182.2680  178.1580  141.4050 C   0  0  0  0  0  0  0  0  0  0  0  0
  181.2610  175.0510  140.5950 O   0  0  0  0  0  0  0  0  0  0  0  0
  181.9290  179.3690  135.3340 O   0  0  0  0  0  0  0  0  0  0  0  0
  180.1410  179.1650  142.9300 C   0  0  0  0  0  3  0  0  0  0  0  0
  179.8430  178.5390  136.1130 C   0  0  1  0  0  3  0  0  0  0  0  0
  183.4490  177.6870  140.6100 C   0  0  0  0  0  2  0  0  0  0  0  0
  179.0410  174.2210  139.9810 O   0  0  0  0  0  0  0  0  0  0  0  0
  180.1810  175.0990  139.5510 S   0  0  0  0  0  0  0  0  0  0  0  0
  180.6500  175.5640  137.0440 C   0  0  1  0  0  3  0  0  0  0  0  0
  179.5790  176.7750  139.3470 C   0  0  2  0  0  3  0  0  0  0  0  0
  184.0710  180.6670  138.7420 O   0  0  0  0  0  0  0  0  0  0  0  0
  180.3620  178.9470  138.5100 C   0  0  2  0  0  3  0  0  0  0  0  0
  179.2480  175.9710  136.9620 N   0  0  0  0  0  2  0  0  0  0  0  0
  180.8070  174.5150  138.0440 N   0  0  0  0  0  2  0  0  0  0  0  0
  183.6980  179.4830  138.9510 C   0  0  0  0  0  0  0  0  0  0  0  0
  180.9740  178.2340  140.8430 C   0  0  0  0  0  0  0  0  0  0  0  0
  181.1830  179.1500  136.2760 C   0  0  0  0  0  0  0  0  0  0  0  0
  181.1050  175.0470  135.6960 C   0  0  0  0  0  1  0  0  0  0  0  0
  182.8000  178.8480  138.0420 N   0  0  0  0  0  2  0  0  0  0  0  0
  179.9190  178.7440  141.6180 C   0  0  0  0  0  3  0  0  0  0  0  0
  182.4800  178.5890  142.7190 C   0  0  0  0  0  3  0  0  0  0  0  0
  181.4220  179.0850  143.4810 C   0  0  0  0  0  3  0  0  0  0  0  0
  184.1520  178.8060  140.0820 O   0  0  0  0  0  0  0  0  0  0  0  0
  179.2980  178.4270  137.5360 C   0  0  2  0  0  3  0  0  0  0  0  0
  181.5410  179.4820  137.6740 C   0  0  2  0  0  3  0  0  0  0  0  0
  178.9310  176.9990  137.9730 C   0  0  2  0  0  3  0  0  0  0  0  0
  178.9450  179.4510  135.2990 C   0  0  0  0  0  1  0  0  0  0  0  0
  180.7170  177.7790  139.4330 C   0  0  1  0  0  3  0  0  0  0  0  0
  1 21  1  0  0  0  0
  3 17  2  0  0  0  0
  4 22  1  0  0  0  0
  5 27  1  6  0  0  0
  5 17  1  0  0  0  0
  5 24  1  0  0  0  0
  6  1  1  0  0  0  0
  8  7  2  0  0  0  0
  8  2  2  0  0  0  0
  9 18  1  6  0  0  0
  9 14  1  0  0  0  0
 10 28  1  0  0  0  0
 10  8  1  6  0  0  0
 11 15  2  0  0  0  0
 12 28  1  0  0  0  0
 13  9  1  0  0  0  0
 13 26  1  0  0  0  0
 14  8  1  0  0  0  0
 15 23  1  0  0  0  0
 16  1  2  0  0  0  0
 16 20  1  0  0  0  0
 17 25  1  0  0  0  0
 19 15  1  0  0  0  0
 20  4  2  0  0  0  0
 21 22  2  0  0  0  0
 23  6  1  0  0  0  0
 24 26  1  0  0  0  0
 24 12  1  0  0  0  0
 25 19  1  0  0  0  0
 25 12  1  0  0  0  0
 26 10  1  0  0  0  0
 28 16  1  0  0  0  0
M  END
>  <MODEL>
9

>  <REMARK>
 VINA RESULT:      -4.2      2.193      4.556
  Name = 
  0 active torsions:
  status: ('A' for Active; 'I' for Inactive)
                            x       y       z     vdW  Elec       q    Type
                         _______ _______ _______ _____ _____    ______ ____

>  <TORSDO>
F 0

$$$$
