=
 OpenBabel11122411373D

 37 42  0  0  1  0  0  0  0  0999 V2000
  187.1350  177.9940  143.3040 C   0  0  0  0  0  0  0  0  0  0  0  0
  183.1470  178.7950  142.4950 C   0  0  0  0  0  0  0  0  0  0  0  0
  181.6050  176.9940  140.0980 C   0  0  0  0  0  2  0  0  0  0  0  0
  184.8580  178.7180  144.1940 C   0  0  0  0  0  0  0  0  0  0  0  0
  183.1520  178.7230  141.1090 C   0  0  0  0  0  0  0  0  0  0  0  0
  183.9470  175.4560  137.6960 C   0  0  0  0  0  0  0  0  0  0  0  0
  184.4450  178.7560  142.8810 C   0  0  0  0  0  0  0  0  0  0  0  0
  181.9370  178.4790  140.2490 C   0  0  2  0  0  3  0  0  0  0  0  0
  183.8600  178.7710  145.1850 C   0  0  0  0  0  3  0  0  0  0  0  0
  184.6780  175.7810  136.5080 N   0  0  0  0  0  2  0  0  0  0  0  0
  185.2250  178.6210  141.7850 C   0  0  0  0  0  0  0  0  0  0  0  0
  186.9580  176.4870  143.3710 C   0  0  0  0  0  1  0  0  0  0  0  0
  180.6860  178.8590  143.0280 C   0  0  0  0  0  2  0  0  0  0  0  0
  182.4910  178.8240  144.8050 C   0  0  0  0  0  3  0  0  0  0  0  0
  186.7170  178.4940  141.8920 C   0  0  0  0  0  2  0  0  0  0  0  0
  183.5370  176.4950  138.5960 N   0  0  0  0  0  0  0  0  0  0  0  0
  182.8490  176.1340  139.8390 C   0  0  0  0  0  2  0  0  0  0  0  0
  182.1210  178.8300  143.4400 C   0  0  0  0  0  0  0  0  0  0  0  0
  184.4460  178.5800  140.6770 N   0  0  0  0  0  0  0  0  0  0  0  0
  186.3380  178.6540  144.4680 C   0  0  0  0  0  2  0  0  0  0  0  0
  180.6790  179.3260  140.5230 C   0  0  1  0  0  3  0  0  0  0  0  0
  188.6040  178.3010  143.5000 C   0  0  0  0  0  1  0  0  0  0  0  0
  183.9290  177.8770  138.3160 C   0  0  0  0  0  2  0  0  0  0  0  0
  183.6600  174.2520  137.9450 O   0  0  0  0  0  0  0  0  0  0  0  0
  184.9640  178.3990  139.3140 C   0  0  0  0  0  2  0  0  0  0  0  0
  180.4860  179.8990  141.9330 C   0  0  0  0  0  2  0  0  0  0  0  0
  181.1970  180.2680  138.2670 C   0  0  0  0  0  3  0  0  0  0  0  0
  180.5420  180.4040  139.4960 C   0  0  0  0  0  0  0  0  0  0  0  0
  179.7780  181.5520  139.7520 C   0  0  0  0  0  3  0  0  0  0  0  0
  178.9310  183.6600  139.0330 F   0  0  0  0  0  0  0  0  0  0  0  0
  180.3250  182.4120  137.5570 C   0  0  0  0  0  3  0  0  0  0  0  0
  179.6690  182.5530  138.7830 C   0  0  0  0  0  0  0  0  0  0  0  0
  181.0880  181.2700  137.2980 C   0  0  0  0  0  3  0  0  0  0  0  0
  186.3850  175.2720  134.8290 C   0  0  0  0  0  1  0  0  0  0  0  0
  185.1530  174.7730  135.5700 C   0  0  2  0  0  3  0  0  0  0  0  0
  183.6190  172.9310  134.7540 C   0  0  0  0  0  1  0  0  0  0  0  0
  184.0470  174.3830  134.5950 C   0  0  0  0  0  2  0  0  0  0  0  0
  1 12  1  0  0  0  0
  1 22  1  0  0  0  0
  1 20  1  0  0  0  0
  2  7  1  0  0  0  0
  2 18  1  0  0  0  0
  4 20  1  0  0  0  0
  4  9  2  0  0  0  0
  5  2  2  0  0  0  0
  6 24  2  0  0  0  0
  6 16  1  0  0  0  0
  7  4  1  0  0  0  0
  8  3  1  1  0  0  0
  8 21  1  0  0  0  0
  8  5  1  0  0  0  0
 10  6  1  0  0  0  0
 11 15  1  0  0  0  0
 11  7  2  0  0  0  0
 13 18  1  0  0  0  0
 14  9  1  0  0  0  0
 15  1  1  0  0  0  0
 16 17  1  0  0  0  0
 17  3  1  0  0  0  0
 18 14  2  0  0  0  0
 19  5  1  0  0  0  0
 19 11  1  0  0  0  0
 21 28  1  6  0  0  0
 21 26  1  0  0  0  0
 23 16  1  0  0  0  0
 23 25  1  0  0  0  0
 25 19  1  0  0  0  0
 26 13  1  0  0  0  0
 27 28  1  0  0  0  0
 28 29  2  0  0  0  0
 31 32  2  0  0  0  0
 32 30  1  0  0  0  0
 32 29  1  0  0  0  0
 33 31  1  0  0  0  0
 33 27  2  0  0  0  0
 35 34  1  6  0  0  0
 35 10  1  0  0  0  0
 37 36  1  0  0  0  0
 37 35  1  0  0  0  0
M  END
>  <MODEL>
1

>  <REMARK>
 VINA RESULT:      -7.8      0.000      0.000
  Name = 
  3 active torsions:
  status: ('A' for Active; 'I' for Inactive)
    1  A    between atoms: C_4  and  N_12
    2  A    between atoms: C_4  and  C_37
    3  A    between atoms: C_23  and  C_30
                            x       y       z     vdW  Elec       q    Type
                         _______ _______ _______ _____ _____    ______ ____

>  <TORSDO>
F 3

$$$$
=
 OpenBabel11122411373D

 37 42  0  0  1  0  0  0  0  0999 V2000
  187.3050  178.0620  143.1980 C   0  0  0  0  0  0  0  0  0  0  0  0
  183.2420  178.7960  142.8100 C   0  0  0  0  0  0  0  0  0  0  0  0
  181.5190  177.0840  140.4730 C   0  0  0  0  0  2  0  0  0  0  0  0
  185.1080  178.6760  144.3340 C   0  0  0  0  0  0  0  0  0  0  0  0
  183.1180  178.7970  141.4280 C   0  0  0  0  0  0  0  0  0  0  0  0
  183.6560  175.7370  137.7810 C   0  0  0  0  0  0  0  0  0  0  0  0
  184.5710  178.7720  143.0700 C   0  0  0  0  0  0  0  0  0  0  0  0
  181.8320  178.5670  140.6730 C   0  0  2  0  0  3  0  0  0  0  0  0
  184.2070  178.6500  145.4160 C   0  0  0  0  0  3  0  0  0  0  0  0
  184.2640  176.1440  136.5500 N   0  0  0  0  0  2  0  0  0  0  0  0
  185.2470  178.7160  141.9000 C   0  0  0  0  0  0  0  0  0  0  0  0
  187.1690  176.5490  143.1980 C   0  0  0  0  0  1  0  0  0  0  0  0
  180.8420  178.7660  143.5730 C   0  0  0  0  0  2  0  0  0  0  0  0
  182.8080  178.6860  145.1690 C   0  0  0  0  0  3  0  0  0  0  0  0
  186.7450  178.6230  141.8600 C   0  0  0  0  0  2  0  0  0  0  0  0
  183.3110  176.7160  138.7710 N   0  0  0  0  0  0  0  0  0  0  0  0
  182.7510  176.2720  140.0520 C   0  0  0  0  0  2  0  0  0  0  0  0
  182.3100  178.7550  143.8470 C   0  0  0  0  0  0  0  0  0  0  0  0
  184.3670  178.7120  140.8690 N   0  0  0  0  0  0  0  0  0  0  0  0
  186.6080  178.6380  144.4660 C   0  0  0  0  0  2  0  0  0  0  0  0
  180.5870  179.3640  141.1090 C   0  0  1  0  0  3  0  0  0  0  0  0
  188.7800  178.3970  143.2720 C   0  0  0  0  0  1  0  0  0  0  0  0
  183.6440  178.1210  138.5320 C   0  0  0  0  0  2  0  0  0  0  0  0
  183.4200  174.5150  137.9900 O   0  0  0  0  0  0  0  0  0  0  0  0
  184.7570  178.6180  139.4570 C   0  0  0  0  0  2  0  0  0  0  0  0
  180.5160  179.8570  142.5610 C   0  0  0  0  0  2  0  0  0  0  0  0
  179.2930  181.3900  140.4270 C   0  0  0  0  0  3  0  0  0  0  0  0
  180.3300  180.4900  140.1600 C   0  0  0  0  0  0  0  0  0  0  0  0
  181.1050  180.6480  139.0010 C   0  0  0  0  0  3  0  0  0  0  0  0
  181.5950  181.8510  137.0030 F   0  0  0  0  0  0  0  0  0  0  0  0
  179.8080  182.5990  138.3930 C   0  0  0  0  0  3  0  0  0  0  0  0
  180.8440  181.7010  138.1200 C   0  0  0  0  0  0  0  0  0  0  0  0
  179.0330  182.4440  139.5460 C   0  0  0  0  0  3  0  0  0  0  0  0
  185.8530  175.7440  134.7320 C   0  0  0  0  0  1  0  0  0  0  0  0
  184.6700  175.1990  135.5180 C   0  0  2  0  0  3  0  0  0  0  0  0
  182.9910  173.4550  134.7750 C   0  0  0  0  0  1  0  0  0  0  0  0
  183.4990  174.8780  134.5940 C   0  0  0  0  0  2  0  0  0  0  0  0
  1 12  1  0  0  0  0
  1 22  1  0  0  0  0
  1 20  1  0  0  0  0
  2  7  1  0  0  0  0
  2 18  1  0  0  0  0
  4 20  1  0  0  0  0
  4  9  2  0  0  0  0
  5  2  2  0  0  0  0
  6 24  2  0  0  0  0
  6 16  1  0  0  0  0
  7  4  1  0  0  0  0
  8  3  1  1  0  0  0
  8 21  1  0  0  0  0
  8  5  1  0  0  0  0
 10  6  1  0  0  0  0
 11  7  2  0  0  0  0
 13 18  1  0  0  0  0
 14  9  1  0  0  0  0
 15 11  1  0  0  0  0
 15  1  1  0  0  0  0
 16 17  1  0  0  0  0
 17  3  1  0  0  0  0
 18 14  2  0  0  0  0
 19  5  1  0  0  0  0
 19 11  1  0  0  0  0
 21 28  1  6  0  0  0
 21 26  1  0  0  0  0
 23 16  1  0  0  0  0
 23 25  1  0  0  0  0
 25 19  1  0  0  0  0
 26 13  1  0  0  0  0
 28 27  1  0  0  0  0
 29 28  2  0  0  0  0
 30 32  1  0  0  0  0
 31 33  1  0  0  0  0
 32 31  2  0  0  0  0
 32 29  1  0  0  0  0
 33 27  2  0  0  0  0
 35 34  1  6  0  0  0
 35 10  1  0  0  0  0
 37 36  1  0  0  0  0
 37 35  1  0  0  0  0
M  END
>  <MODEL>
2

>  <REMARK>
 VINA RESULT:      -7.7      0.815      1.138
  Name = 
  3 active torsions:
  status: ('A' for Active; 'I' for Inactive)
    1  A    between atoms: C_4  and  N_12
    2  A    between atoms: C_4  and  C_37
    3  A    between atoms: C_23  and  C_30
                            x       y       z     vdW  Elec       q    Type
                         _______ _______ _______ _____ _____    ______ ____

>  <TORSDO>
F 3

$$$$
=
 OpenBabel11122411373D

 37 42  0  0  1  0  0  0  0  0999 V2000
  186.4720  178.2400  143.5830 C   0  0  0  0  0  0  0  0  0  0  0  0
  182.6920  178.8530  141.9910 C   0  0  0  0  0  0  0  0  0  0  0  0
  181.6890  176.8900  139.4400 C   0  0  0  0  0  2  0  0  0  0  0  0
  184.0470  178.9160  143.9850 C   0  0  0  0  0  0  0  0  0  0  0  0
  182.9650  178.7190  140.6370 C   0  0  0  0  0  0  0  0  0  0  0  0
  184.4920  175.3360  137.6070 C   0  0  0  0  0  0  0  0  0  0  0  0
  183.8920  178.8800  142.6180 C   0  0  0  0  0  0  0  0  0  0  0  0
  181.9440  178.3920  139.5750 C   0  0  2  0  0  3  0  0  0  0  0  0
  182.8770  178.9750  144.7650 C   0  0  0  0  0  3  0  0  0  0  0  0
  185.4260  175.6360  136.5650 N   0  0  0  0  0  2  0  0  0  0  0  0
  184.8710  178.7260  141.6980 C   0  0  0  0  0  0  0  0  0  0  0  0
  186.3290  176.7320  143.6910 C   0  0  0  0  0  1  0  0  0  0  0  0
  180.1740  178.8480  142.0430 C   0  0  0  0  0  2  0  0  0  0  0  0
  181.6060  178.9600  144.1300 C   0  0  0  0  0  3  0  0  0  0  0  0
  186.3190  178.6600  142.0930 C   0  0  0  0  0  2  0  0  0  0  0  0
  183.8870  176.3980  138.3590 N   0  0  0  0  0  0  0  0  0  0  0  0
  182.9840  176.0670  139.4660 C   0  0  0  0  0  2  0  0  0  0  0  0
  181.5030  178.8910  142.7210 C   0  0  0  0  0  0  0  0  0  0  0  0
  184.3210  178.6070  140.4660 N   0  0  0  0  0  0  0  0  0  0  0  0
  185.4490  178.9210  144.5390 C   0  0  0  0  0  2  0  0  0  0  0  0
  180.6330  179.2020  139.5620 C   0  0  1  0  0  3  0  0  0  0  0  0
  187.8680  178.6110  144.0380 C   0  0  0  0  0  1  0  0  0  0  0  0
  184.2850  177.7810  138.0880 C   0  0  0  0  0  2  0  0  0  0  0  0
  184.1960  174.1350  137.8590 O   0  0  0  0  0  0  0  0  0  0  0  0
  185.0950  178.3850  139.2380 C   0  0  0  0  0  2  0  0  0  0  0  0
  180.1570  179.8300  140.8790 C   0  0  0  0  0  2  0  0  0  0  0  0
  180.2150  179.8840  137.1940 C   0  0  0  0  0  3  0  0  0  0  0  0
  180.6640  180.2270  138.4740 C   0  0  0  0  0  0  0  0  0  0  0  0
  181.1500  181.5210  138.7160 C   0  0  0  0  0  3  0  0  0  0  0  0
  181.6490  183.7110  137.9210 F   0  0  0  0  0  0  0  0  0  0  0  0
  180.7290  182.1160  136.4070 C   0  0  0  0  0  3  0  0  0  0  0  0
  181.1810  182.4630  137.6840 C   0  0  0  0  0  0  0  0  0  0  0  0
  180.2460  180.8270  136.1630 C   0  0  0  0  0  3  0  0  0  0  0  0
  187.0650  173.8200  136.6640 C   0  0  0  0  0  1  0  0  0  0  0  0
  186.1010  174.6060  135.7870 C   0  0  2  0  0  3  0  0  0  0  0  0
  187.0780  176.7120  134.7750 C   0  0  0  0  0  1  0  0  0  0  0  0
  186.8250  175.2220  134.5940 C   0  0  0  0  0  2  0  0  0  0  0  0
  1 12  1  0  0  0  0
  1 22  1  0  0  0  0
  1 20  1  0  0  0  0
  2  7  1  0  0  0  0
  2 18  1  0  0  0  0
  3 17  1  0  0  0  0
  4 20  1  0  0  0  0
  4  9  2  0  0  0  0
  5  2  2  0  0  0  0
  6 24  2  0  0  0  0
  6 16  1  0  0  0  0
  7  4  1  0  0  0  0
  8  3  1  1  0  0  0
  8  5  1  0  0  0  0
 10  6  1  0  0  0  0
 11 15  1  0  0  0  0
 11  7  2  0  0  0  0
 13 18  1  0  0  0  0
 14  9  1  0  0  0  0
 15  1  1  0  0  0  0
 16 17  1  0  0  0  0
 18 14  2  0  0  0  0
 19  5  1  0  0  0  0
 19 11  1  0  0  0  0
 21 28  1  6  0  0  0
 21  8  1  0  0  0  0
 21 26  1  0  0  0  0
 23 16  1  0  0  0  0
 23 25  1  0  0  0  0
 25 19  1  0  0  0  0
 26 13  1  0  0  0  0
 27 28  1  0  0  0  0
 28 29  2  0  0  0  0
 31 32  2  0  0  0  0
 32 30  1  0  0  0  0
 32 29  1  0  0  0  0
 33 31  1  0  0  0  0
 33 27  2  0  0  0  0
 35 10  1  0  0  0  0
 35 34  1  1  0  0  0
 37 36  1  0  0  0  0
 37 35  1  0  0  0  0
M  END
>  <MODEL>
3

>  <REMARK>
 VINA RESULT:      -7.0      1.139      1.456
  Name = 
  3 active torsions:
  status: ('A' for Active; 'I' for Inactive)
    1  A    between atoms: C_4  and  N_12
    2  A    between atoms: C_4  and  C_37
    3  A    between atoms: C_23  and  C_30
                            x       y       z     vdW  Elec       q    Type
                         _______ _______ _______ _____ _____    ______ ____

>  <TORSDO>
F 3

$$$$
=
 OpenBabel11122411373D

 37 42  0  0  1  0  0  0  0  0999 V2000
  180.6650  182.9730  137.4310 C   0  0  0  0  0  0  0  0  0  0  0  0
  180.7980  178.8590  136.9230 C   0  0  0  0  0  0  0  0  0  0  0  0
  181.0840  176.9130  139.6610 C   0  0  0  0  0  2  0  0  0  0  0  0
  179.9020  180.9400  136.0950 C   0  0  0  0  0  0  0  0  0  0  0  0
  181.7840  178.5240  137.8390 C   0  0  0  0  0  0  0  0  0  0  0  0
  182.4790  178.6950  142.5770 C   0  0  0  0  0  0  0  0  0  0  0  0
  180.8010  180.2110  136.8390 C   0  0  0  0  0  0  0  0  0  0  0  0
  181.9780  177.1550  138.4440 C   0  0  2  0  0  3  0  0  0  0  0  0
  178.9560  180.2200  135.3420 C   0  0  0  0  0  3  0  0  0  0  0  0
  183.7420  179.0790  143.1310 N   0  0  0  0  0  2  0  0  0  0  0  0
  181.7210  180.7010  137.7010 C   0  0  0  0  0  0  0  0  0  0  0  0
  179.6330  182.9370  138.5460 C   0  0  0  0  0  1  0  0  0  0  0  0
  179.8450  176.6120  136.3030 C   0  0  0  0  0  2  0  0  0  0  0  0
  178.9390  178.8000  135.4030 C   0  0  0  0  0  3  0  0  0  0  0  0
  181.9250  182.1780  137.8790 C   0  0  0  0  0  2  0  0  0  0  0  0
  182.3580  178.4430  141.1700 N   0  0  0  0  0  0  0  0  0  0  0  0
  181.0420  178.1160  140.6120 C   0  0  0  0  0  2  0  0  0  0  0  0
  179.8680  178.1020  136.2090 C   0  0  0  0  0  0  0  0  0  0  0  0
  182.3310  179.6760  138.3440 N   0  0  0  0  0  0  0  0  0  0  0  0
  180.0170  182.4420  136.1180 C   0  0  0  0  0  2  0  0  0  0  0  0
  181.9960  175.9430  137.4920 C   0  0  1  0  0  3  0  0  0  0  0  0
  181.0670  184.4160  137.2140 C   0  0  0  0  0  1  0  0  0  0  0  0
  183.5230  178.6430  140.3060 C   0  0  0  0  0  2  0  0  0  0  0  0
  181.4740  178.5740  143.3300 O   0  0  0  0  0  0  0  0  0  0  0  0
  183.3570  179.8500  139.3800 C   0  0  0  0  0  2  0  0  0  0  0  0
  181.2580  176.0640  136.1520 C   0  0  0  0  0  2  0  0  0  0  0  0
  184.2840  176.2620  136.5380 C   0  0  0  0  0  3  0  0  0  0  0  0
  183.3980  175.4710  137.2780 C   0  0  0  0  0  0  0  0  0  0  0  0
  183.8330  174.2410  137.7970 C   0  0  0  0  0  3  0  0  0  0  0  0
  185.5610  172.6260  138.0800 F   0  0  0  0  0  0  0  0  0  0  0  0
  186.0260  174.6070  136.8400 C   0  0  0  0  0  3  0  0  0  0  0  0
  185.1440  173.8120  137.5780 C   0  0  0  0  0  0  0  0  0  0  0  0
  185.5960  175.8320  136.3200 C   0  0  0  0  0  3  0  0  0  0  0  0
  184.9300  180.5130  144.7200 C   0  0  0  0  0  1  0  0  0  0  0  0
  183.9270  179.3820  144.5440 C   0  0  2  0  0  3  0  0  0  0  0  0
  185.6190  178.3750  146.1360 C   0  0  0  0  0  1  0  0  0  0  0  0
  184.3640  178.1370  145.3080 C   0  0  0  0  0  2  0  0  0  0  0  0
  1 15  1  0  0  0  0
  1 12  1  0  0  0  0
  2  5  2  0  0  0  0
  3 17  1  0  0  0  0
  4 20  1  0  0  0  0
  4  7  1  0  0  0  0
  5 19  1  0  0  0  0
  5  8  1  0  0  0  0
  6 10  1  0  0  0  0
  6 24  2  0  0  0  0
  7  2  1  0  0  0  0
  7 11  2  0  0  0  0
  8  3  1  1  0  0  0
  9 14  1  0  0  0  0
  9  4  2  0  0  0  0
 10 35  1  0  0  0  0
 11 15  1  0  0  0  0
 11 19  1  0  0  0  0
 14 18  2  0  0  0  0
 16  6  1  0  0  0  0
 17 16  1  0  0  0  0
 18 13  1  0  0  0  0
 18  2  1  0  0  0  0
 19 25  1  0  0  0  0
 20  1  1  0  0  0  0
 21 28  1  6  0  0  0
 21  8  1  0  0  0  0
 22  1  1  0  0  0  0
 23 16  1  0  0  0  0
 25 23  1  0  0  0  0
 26 13  1  0  0  0  0
 26 21  1  0  0  0  0
 27 28  1  0  0  0  0
 28 29  2  0  0  0  0
 31 32  2  0  0  0  0
 32 29  1  0  0  0  0
 32 30  1  0  0  0  0
 33 27  2  0  0  0  0
 33 31  1  0  0  0  0
 35 34  1  6  0  0  0
 35 37  1  0  0  0  0
 37 36  1  0  0  0  0
M  END
>  <MODEL>
4

>  <REMARK>
 VINA RESULT:      -5.8      3.236      8.113
  Name = 
  3 active torsions:
  status: ('A' for Active; 'I' for Inactive)
    1  A    between atoms: C_4  and  N_12
    2  A    between atoms: C_4  and  C_37
    3  A    between atoms: C_23  and  C_30
                            x       y       z     vdW  Elec       q    Type
                         _______ _______ _______ _____ _____    ______ ____

>  <TORSDO>
F 3

$$$$
=
 OpenBabel11122411373D

 37 42  0  0  1  0  0  0  0  0999 V2000
  188.8040  176.1770  136.2870 C   0  0  0  0  0  0  0  0  0  0  0  0
  185.8470  177.9600  138.5850 C   0  0  0  0  0  0  0  0  0  0  0  0
  182.9490  176.2990  139.0380 C   0  0  0  0  0  2  0  0  0  0  0  0
  188.2210  177.6850  138.2590 C   0  0  0  0  0  0  0  0  0  0  0  0
  184.7220  177.6450  137.8360 C   0  0  0  0  0  0  0  0  0  0  0  0
  182.3160  173.7390  136.4550 C   0  0  0  0  0  0  0  0  0  0  0  0
  186.9160  177.6100  137.8290 C   0  0  0  0  0  0  0  0  0  0  0  0
  183.3080  177.6220  138.3620 C   0  0  2  0  0  3  0  0  0  0  0  0
  188.4460  178.2030  139.5480 C   0  0  0  0  0  3  0  0  0  0  0  0
  181.7860  173.6190  135.1300 N   0  0  0  0  0  2  0  0  0  0  0  0
  186.4750  177.0590  136.6760 C   0  0  0  0  0  0  0  0  0  0  0  0
  188.7110  174.8250  136.9740 C   0  0  0  0  0  1  0  0  0  0  0  0
  184.8480  178.8390  140.7230 C   0  0  0  0  0  2  0  0  0  0  0  0
  187.3430  178.5890  140.3560 C   0  0  0  0  0  3  0  0  0  0  0  0
  187.4280  176.5190  135.6480 C   0  0  0  0  0  2  0  0  0  0  0  0
  182.8390  174.9950  136.9100 N   0  0  0  0  0  0  0  0  0  0  0  0
  183.4370  175.0790  138.2460 C   0  0  0  0  0  2  0  0  0  0  0  0
  186.0180  178.4630  139.8760 C   0  0  0  0  0  0  0  0  0  0  0  0
  185.1210  177.0540  136.6640 N   0  0  0  0  0  0  0  0  0  0  0  0
  189.3040  177.2380  137.3120 C   0  0  0  0  0  2  0  0  0  0  0  0
  182.8230  178.8360  139.1780 C   0  0  1  0  0  3  0  0  0  0  0  0
  189.8280  176.0670  135.1780 C   0  0  0  0  0  1  0  0  0  0  0  0
  182.8800  176.1280  135.9850 C   0  0  0  0  0  2  0  0  0  0  0  0
  182.3160  172.7370  137.2230 O   0  0  0  0  0  0  0  0  0  0  0  0
  184.3100  176.4910  135.5760 C   0  0  0  0  0  2  0  0  0  0  0  0
  183.8730  179.6810  139.9110 C   0  0  0  0  0  2  0  0  0  0  0  0
  181.0690  179.1170  137.4210 C   0  0  0  0  0  3  0  0  0  0  0  0
  181.9410  179.7070  138.3420 C   0  0  0  0  0  0  0  0  0  0  0  0
  181.9850  181.1040  138.4590 C   0  0  0  0  0  3  0  0  0  0  0  0
  181.2050  183.2500  137.7790 F   0  0  0  0  0  0  0  0  0  0  0  0
  180.2890  181.3080  136.7450 C   0  0  0  0  0  3  0  0  0  0  0  0
  181.1600  181.9020  137.6620 C   0  0  0  0  0  0  0  0  0  0  0  0
  180.2430  179.9160  136.6240 C   0  0  0  0  0  3  0  0  0  0  0  0
  180.0240  171.9350  135.3500 C   0  0  0  0  0  1  0  0  0  0  0  0
  181.2720  172.3670  134.5940 C   0  0  2  0  0  3  0  0  0  0  0  0
  181.7730  169.9180  134.9990 C   0  0  0  0  0  1  0  0  0  0  0  0
  182.3440  171.2820  134.6400 C   0  0  0  0  0  2  0  0  0  0  0  0
  1 12  1  0  0  0  0
  1 20  1  0  0  0  0
  2 18  1  0  0  0  0
  4  9  2  0  0  0  0
  5  8  1  0  0  0  0
  5  2  2  0  0  0  0
  6 16  1  0  0  0  0
  6 24  2  0  0  0  0
  7  4  1  0  0  0  0
  7  2  1  0  0  0  0
  8  3  1  1  0  0  0
  8 21  1  0  0  0  0
  9 14  1  0  0  0  0
 10  6  1  0  0  0  0
 11  7  2  0  0  0  0
 15  1  1  0  0  0  0
 15 11  1  0  0  0  0
 16 17  1  0  0  0  0
 17  3  1  0  0  0  0
 18 14  2  0  0  0  0
 18 13  1  0  0  0  0
 19 11  1  0  0  0  0
 19  5  1  0  0  0  0
 20  4  1  0  0  0  0
 21 28  1  6  0  0  0
 21 26  1  0  0  0  0
 22  1  1  0  0  0  0
 23 16  1  0  0  0  0
 25 23  1  0  0  0  0
 25 19  1  0  0  0  0
 26 13  1  0  0  0  0
 27 28  1  0  0  0  0
 28 29  2  0  0  0  0
 31 32  2  0  0  0  0
 32 30  1  0  0  0  0
 32 29  1  0  0  0  0
 33 31  1  0  0  0  0
 33 27  2  0  0  0  0
 35 37  1  0  0  0  0
 35 10  1  0  0  0  0
 35 34  1  1  0  0  0
 37 36  1  0  0  0  0
M  END
>  <MODEL>
5

>  <REMARK>
 VINA RESULT:      -5.7      2.642      4.709
  Name = 
  3 active torsions:
  status: ('A' for Active; 'I' for Inactive)
    1  A    between atoms: C_4  and  N_12
    2  A    between atoms: C_4  and  C_37
    3  A    between atoms: C_23  and  C_30
                            x       y       z     vdW  Elec       q    Type
                         _______ _______ _______ _____ _____    ______ ____

>  <TORSDO>
F 3

$$$$
=
 OpenBabel11122411373D

 37 42  0  0  1  0  0  0  0  0999 V2000
  183.0910  171.1210  135.9750 C   0  0  0  0  0  0  0  0  0  0  0  0
  180.8980  174.6080  136.4560 C   0  0  0  0  0  0  0  0  0  0  0  0
  182.3800  177.5470  135.7300 C   0  0  0  0  0  2  0  0  0  0  0  0
  180.8170  172.2690  135.8710 C   0  0  0  0  0  0  0  0  0  0  0  0
  181.8590  175.4340  137.0210 C   0  0  0  0  0  0  0  0  0  0  0  0
  186.0670  177.3800  135.8130 C   0  0  0  0  0  0  0  0  0  0  0  0
  181.4310  173.3630  136.4380 C   0  0  0  0  0  0  0  0  0  0  0  0
  181.8170  176.9420  137.0170 C   0  0  2  0  0  3  0  0  0  0  0  0
  179.5360  172.4630  135.3210 C   0  0  0  0  0  3  0  0  0  0  0  0
  187.1520  177.4490  136.7450 N   0  0  0  0  0  2  0  0  0  0  0  0
  182.6890  173.4170  136.9320 C   0  0  0  0  0  0  0  0  0  0  0  0
  183.6110  171.4790  134.5940 C   0  0  0  0  0  1  0  0  0  0  0  0
  179.0460  176.2240  135.9060 C   0  0  0  0  0  2  0  0  0  0  0  0
  178.9500  173.7570  135.3370 C   0  0  0  0  0  3  0  0  0  0  0  0
  183.5640  172.1990  136.9920 C   0  0  0  0  0  2  0  0  0  0  0  0
  184.7590  176.9950  136.2580 N   0  0  0  0  0  0  0  0  0  0  0  0
  183.6780  176.8660  135.2760 C   0  0  0  0  0  2  0  0  0  0  0  0
  179.6380  174.8540  135.9070 C   0  0  0  0  0  0  0  0  0  0  0  0
  182.9830  174.6920  137.2830 N   0  0  0  0  0  0  0  0  0  0  0  0
  181.5440  170.9500  135.9100 C   0  0  0  0  0  2  0  0  0  0  0  0
  180.5070  177.6280  137.4510 C   0  0  1  0  0  3  0  0  0  0  0  0
  183.7000  169.7940  136.3740 C   0  0  0  0  0  1  0  0  0  0  0  0
  184.5640  176.6140  137.6580 C   0  0  0  0  0  2  0  0  0  0  0  0
  186.2640  177.6660  134.6000 O   0  0  0  0  0  0  0  0  0  0  0  0
  184.2820  175.1190  137.8180 C   0  0  0  0  0  2  0  0  0  0  0  0
  179.1950  176.8500  137.2870 C   0  0  0  0  0  2  0  0  0  0  0  0
  179.4800  178.5340  139.5410 C   0  0  0  0  0  3  0  0  0  0  0  0
  180.6330  178.1570  138.8430 C   0  0  0  0  0  0  0  0  0  0  0  0
  181.8890  178.2930  139.4530 C   0  0  0  0  0  3  0  0  0  0  0  0
  183.2010  178.9270  141.3380 F   0  0  0  0  0  0  0  0  0  0  0  0
  180.8330  179.1720  141.4460 C   0  0  0  0  0  3  0  0  0  0  0  0
  181.9880  178.7990  140.7520 C   0  0  0  0  0  0  0  0  0  0  0  0
  179.5800  179.0390  140.8410 C   0  0  0  0  0  3  0  0  0  0  0  0
  189.4220  176.5850  136.4420 C   0  0  0  0  0  1  0  0  0  0  0  0
  188.5100  177.8000  136.3540 C   0  0  2  0  0  3  0  0  0  0  0  0
  188.9400  178.6440  138.7030 C   0  0  0  0  0  1  0  0  0  0  0  0
  189.0380  178.9440  137.2150 C   0  0  0  0  0  2  0  0  0  0  0  0
  1 22  1  0  0  0  0
  1 15  1  0  0  0  0
  2  5  2  0  0  0  0
  4 20  1  0  0  0  0
  4  7  1  0  0  0  0
  5 19  1  0  0  0  0
  6 16  1  0  0  0  0
  6 10  1  0  0  0  0
  7  2  1  0  0  0  0
  7 11  2  0  0  0  0
  8  3  1  6  0  0  0
  8  5  1  0  0  0  0
  8 21  1  0  0  0  0
  9 14  1  0  0  0  0
  9  4  2  0  0  0  0
 11 15  1  0  0  0  0
 11 19  1  0  0  0  0
 12  1  1  0  0  0  0
 13 18  1  0  0  0  0
 13 26  1  0  0  0  0
 14 18  2  0  0  0  0
 16 23  1  0  0  0  0
 17  3  1  0  0  0  0
 17 16  1  0  0  0  0
 18  2  1  0  0  0  0
 19 25  1  0  0  0  0
 20  1  1  0  0  0  0
 21 28  1  1  0  0  0
 23 25  1  0  0  0  0
 24  6  2  0  0  0  0
 26 21  1  0  0  0  0
 27 33  1  0  0  0  0
 28 29  1  0  0  0  0
 28 27  2  0  0  0  0
 29 32  2  0  0  0  0
 32 30  1  0  0  0  0
 32 31  1  0  0  0  0
 33 31  2  0  0  0  0
 35 34  1  1  0  0  0
 35 10  1  0  0  0  0
 35 37  1  0  0  0  0
 37 36  1  0  0  0  0
M  END
>  <MODEL>
6

>  <REMARK>
 VINA RESULT:      -5.5      3.408      7.149
  Name = 
  3 active torsions:
  status: ('A' for Active; 'I' for Inactive)
    1  A    between atoms: C_4  and  N_12
    2  A    between atoms: C_4  and  C_37
    3  A    between atoms: C_23  and  C_30
                            x       y       z     vdW  Elec       q    Type
                         _______ _______ _______ _____ _____    ______ ____

>  <TORSDO>
F 3

$$$$
=
 OpenBabel11122411373D

 37 42  0  0  1  0  0  0  0  0999 V2000
  183.6530  174.2770  136.2270 C   0  0  0  0  0  0  0  0  0  0  0  0
  181.8910  177.9010  137.2060 C   0  0  0  0  0  0  0  0  0  0  0  0
  183.6700  180.1090  139.0290 C   0  0  0  0  0  2  0  0  0  0  0  0
  182.0610  176.1510  135.5550 C   0  0  0  0  0  0  0  0  0  0  0  0
  182.3090  178.0370  138.5220 C   0  0  0  0  0  0  0  0  0  0  0  0
  186.4130  178.5450  140.9420 C   0  0  0  0  0  0  0  0  0  0  0  0
  182.2300  176.6450  136.8280 C   0  0  0  0  0  0  0  0  0  0  0  0
  182.3740  179.3390  139.2820 C   0  0  2  0  0  3  0  0  0  0  0  0
  181.4530  177.0000  134.6100 C   0  0  0  0  0  3  0  0  0  0  0  0
  186.6410  177.8560  142.1760 N   0  0  0  0  0  2  0  0  0  0  0  0
  182.8720  176.0380  137.8510 C   0  0  0  0  0  0  0  0  0  0  0  0
  184.9640  174.8880  135.7590 C   0  0  0  0  0  1  0  0  0  0  0  0
  180.9360  180.1760  136.7010 C   0  0  0  0  0  2  0  0  0  0  0  0
  181.0770  178.3180  134.9850 C   0  0  0  0  0  3  0  0  0  0  0  0
  183.4240  174.6480  137.7200 C   0  0  0  0  0  2  0  0  0  0  0  0
  185.1060  178.5490  140.3510 N   0  0  0  0  0  0  0  0  0  0  0  0
  184.9090  179.2040  139.0540 C   0  0  0  0  0  2  0  0  0  0  0  0
  181.3020  178.7850  136.3010 C   0  0  0  0  0  0  0  0  0  0  0  0
  182.9490  176.8860  138.9050 N   0  0  0  0  0  0  0  0  0  0  0  0
  182.5070  174.7390  135.2780 C   0  0  0  0  0  2  0  0  0  0  0  0
  181.1390  180.2600  139.2390 C   0  0  1  0  0  3  0  0  0  0  0  0
  183.7770  172.7720  136.1250 C   0  0  0  0  0  1  0  0  0  0  0  0
  184.0300  177.7900  140.9910 C   0  0  0  0  0  2  0  0  0  0  0  0
  187.3640  179.1540  140.3790 O   0  0  0  0  0  0  0  0  0  0  0  0
  183.6200  176.5640  140.1720 C   0  0  0  0  0  2  0  0  0  0  0  0
  180.1970  180.1520  138.0330 C   0  0  0  0  0  2  0  0  0  0  0  0
  179.6610  181.2710  140.9820 C   0  0  0  0  0  3  0  0  0  0  0  0
  180.3690  180.1580  140.5170 C   0  0  0  0  0  0  0  0  0  0  0  0
  180.3570  178.9670  141.2590 C   0  0  0  0  0  3  0  0  0  0  0  0
  179.6290  177.7430  143.1690 F   0  0  0  0  0  0  0  0  0  0  0  0
  178.9320  180.0080  142.9160 C   0  0  0  0  0  3  0  0  0  0  0  0
  179.6390  178.8940  142.4560 C   0  0  0  0  0  0  0  0  0  0  0  0
  178.9420  181.1970  142.1790 C   0  0  0  0  0  3  0  0  0  0  0  0
  188.7910  176.6860  142.1780 C   0  0  0  0  0  1  0  0  0  0  0  0
  187.9490  177.7840  142.8120 C   0  0  2  0  0  3  0  0  0  0  0  0
  186.3490  177.4930  144.7530 C   0  0  0  0  0  1  0  0  0  0  0  0
  187.8040  177.5650  144.3150 C   0  0  0  0  0  2  0  0  0  0  0  0
  1 15  1  0  0  0  0
  2  5  2  0  0  0  0
  3 17  1  0  0  0  0
  4  7  1  0  0  0  0
  5 19  1  0  0  0  0
  5  8  1  0  0  0  0
  6 10  1  0  0  0  0
  7  2  1  0  0  0  0
  7 11  2  0  0  0  0
  8  3  1  6  0  0  0
  9 14  1  0  0  0  0
  9  4  2  0  0  0  0
 10 35  1  0  0  0  0
 11 19  1  0  0  0  0
 12  1  1  0  0  0  0
 13 26  1  0  0  0  0
 14 18  2  0  0  0  0
 15 11  1  0  0  0  0
 16  6  1  0  0  0  0
 16 23  1  0  0  0  0
 17 16  1  0  0  0  0
 18 13  1  0  0  0  0
 18  2  1  0  0  0  0
 19 25  1  0  0  0  0
 20  4  1  0  0  0  0
 20  1  1  0  0  0  0
 21  8  1  0  0  0  0
 21 28  1  1  0  0  0
 22  1  1  0  0  0  0
 24  6  2  0  0  0  0
 25 23  1  0  0  0  0
 26 21  1  0  0  0  0
 27 33  1  0  0  0  0
 28 27  2  0  0  0  0
 28 29  1  0  0  0  0
 29 32  2  0  0  0  0
 32 31  1  0  0  0  0
 32 30  1  0  0  0  0
 33 31  2  0  0  0  0
 35 34  1  6  0  0  0
 35 37  1  0  0  0  0
 37 36  1  0  0  0  0
M  END
>  <MODEL>
7

>  <REMARK>
 VINA RESULT:      -5.3      2.351      6.687
  Name = 
  3 active torsions:
  status: ('A' for Active; 'I' for Inactive)
    1  A    between atoms: C_4  and  N_12
    2  A    between atoms: C_4  and  C_37
    3  A    between atoms: C_23  and  C_30
                            x       y       z     vdW  Elec       q    Type
                         _______ _______ _______ _____ _____    ______ ____

>  <TORSDO>
F 3

$$$$
=
 OpenBabel11122411373D

 37 42  0  0  1  0  0  0  0  0999 V2000
  181.2420  173.7980  135.9840 C   0  0  0  0  0  0  0  0  0  0  0  0
  182.4960  177.2430  137.9240 C   0  0  0  0  0  0  0  0  0  0  0  0
  185.5410  178.4840  137.1800 C   0  0  0  0  0  2  0  0  0  0  0  0
  180.6090  176.0370  137.0250 C   0  0  0  0  0  0  0  0  0  0  0  0
  183.8200  176.9190  138.1790 C   0  0  0  0  0  0  0  0  0  0  0  0
  187.8180  175.9770  135.7110 C   0  0  0  0  0  0  0  0  0  0  0  0
  181.9090  176.1080  137.4720 C   0  0  0  0  0  0  0  0  0  0  0  0
  184.9190  177.9160  138.4560 C   0  0  2  0  0  3  0  0  0  0  0  0
  179.8400  177.2150  137.0920 C   0  0  0  0  0  3  0  0  0  0  0  0
  188.7130  174.9340  136.1120 N   0  0  0  0  0  2  0  0  0  0  0  0
  182.8400  175.1290  137.4060 C   0  0  0  0  0  0  0  0  0  0  0  0
  181.6370  174.2740  134.5960 C   0  0  0  0  0  1  0  0  0  0  0  0
  182.4180  179.6990  138.4750 C   0  0  0  0  0  2  0  0  0  0  0  0
  180.4290  178.4150  137.5730 C   0  0  0  0  0  3  0  0  0  0  0  0
  182.5070  173.7600  136.8880 C   0  0  0  0  0  2  0  0  0  0  0  0
  186.7500  176.3820  136.5790 N   0  0  0  0  0  0  0  0  0  0  0  0
  185.8040  177.4050  136.1210 C   0  0  0  0  0  2  0  0  0  0  0  0
  181.7800  178.4390  137.9920 C   0  0  0  0  0  0  0  0  0  0  0  0
  184.0350  175.6120  137.8220 N   0  0  0  0  0  0  0  0  0  0  0  0
  180.1020  174.7080  136.5310 C   0  0  0  0  0  2  0  0  0  0  0  0
  184.6470  179.0150  139.5020 C   0  0  1  0  0  3  0  0  0  0  0  0
  180.7060  172.3880  135.8580 C   0  0  0  0  0  1  0  0  0  0  0  0
  186.5520  175.6740  137.8450 C   0  0  0  0  0  2  0  0  0  0  0  0
  187.9750  176.5430  134.5940 O   0  0  0  0  0  0  0  0  0  0  0  0
  185.2770  174.8280  137.8430 C   0  0  0  0  0  2  0  0  0  0  0  0
  183.1910  179.4260  139.7590 C   0  0  0  0  0  2  0  0  0  0  0  0
  184.5750  178.5340  141.9530 C   0  0  0  0  0  3  0  0  0  0  0  0
  185.3350  178.6900  140.7890 C   0  0  0  0  0  0  0  0  0  0  0  0
  186.7300  178.5520  140.8470 C   0  0  0  0  0  3  0  0  0  0  0  0
  188.7020  178.1240  142.1140 F   0  0  0  0  0  0  0  0  0  0  0  0
  186.5920  178.1010  143.2210 C   0  0  0  0  0  3  0  0  0  0  0  0
  187.3560  178.2580  142.0610 C   0  0  0  0  0  0  0  0  0  0  0  0
  185.2020  178.2390  143.1680 C   0  0  0  0  0  3  0  0  0  0  0  0
  189.4750  173.0660  134.7250 C   0  0  0  0  0  1  0  0  0  0  0  0
  189.7960  174.4520  135.2660 C   0  0  2  0  0  3  0  0  0  0  0  0
  191.0190  175.1930  137.3560 C   0  0  0  0  0  1  0  0  0  0  0  0
  191.1150  174.4490  136.0320 C   0  0  0  0  0  2  0  0  0  0  0  0
  1 20  1  0  0  0  0
  1 15  1  0  0  0  0
  2 18  1  0  0  0  0
  2  5  2  0  0  0  0
  4  9  2  0  0  0  0
  4  7  1  0  0  0  0
  5  8  1  0  0  0  0
  6 10  1  0  0  0  0
  6 16  1  0  0  0  0
  7  2  1  0  0  0  0
  8  3  1  6  0  0  0
  8 21  1  0  0  0  0
  9 14  1  0  0  0  0
 11  7  2  0  0  0  0
 11 19  1  0  0  0  0
 12  1  1  0  0  0  0
 13 26  1  0  0  0  0
 14 18  2  0  0  0  0
 15 11  1  0  0  0  0
 16 23  1  0  0  0  0
 17 16  1  0  0  0  0
 17  3  1  0  0  0  0
 18 13  1  0  0  0  0
 19 25  1  0  0  0  0
 19  5  1  0  0  0  0
 20  4  1  0  0  0  0
 21 26  1  0  0  0  0
 21 28  1  1  0  0  0
 22  1  1  0  0  0  0
 24  6  2  0  0  0  0
 25 23  1  0  0  0  0
 27 33  1  0  0  0  0
 28 29  1  0  0  0  0
 28 27  2  0  0  0  0
 29 32  2  0  0  0  0
 32 30  1  0  0  0  0
 32 31  1  0  0  0  0
 33 31  2  0  0  0  0
 35 34  1  1  0  0  0
 35 37  1  0  0  0  0
 35 10  1  0  0  0  0
 37 36  1  0  0  0  0
M  END
>  <MODEL>
8

>  <REMARK>
 VINA RESULT:      -5.0      3.263      6.989
  Name = 
  3 active torsions:
  status: ('A' for Active; 'I' for Inactive)
    1  A    between atoms: C_4  and  N_12
    2  A    between atoms: C_4  and  C_37
    3  A    between atoms: C_23  and  C_30
                            x       y       z     vdW  Elec       q    Type
                         _______ _______ _______ _____ _____    ______ ____

>  <TORSDO>
F 3

$$$$
=
 OpenBabel11122411373D

 37 42  0  0  1  0  0  0  0  0999 V2000
  179.9310  174.0410  136.1680 C   0  0  0  0  0  0  0  0  0  0  0  0
  181.6600  177.4580  137.7620 C   0  0  0  0  0  0  0  0  0  0  0  0
  184.8480  178.1770  136.9350 C   0  0  0  0  0  2  0  0  0  0  0  0
  179.6210  176.4430  136.9660 C   0  0  0  0  0  0  0  0  0  0  0  0
  182.9260  176.9800  138.0660 C   0  0  0  0  0  0  0  0  0  0  0  0
  186.7480  175.2380  135.7600 C   0  0  0  0  0  0  0  0  0  0  0  0
  180.9190  176.3760  137.4210 C   0  0  0  0  0  0  0  0  0  0  0  0
  184.1540  177.8370  138.2550 C   0  0  2  0  0  3  0  0  0  0  0  0
  179.0250  177.7170  136.9030 C   0  0  0  0  0  3  0  0  0  0  0  0
  187.4880  174.1270  136.2780 N   0  0  0  0  0  2  0  0  0  0  0  0
  181.7020  175.2750  137.4680 C   0  0  0  0  0  0  0  0  0  0  0  0
  180.3880  174.3120  134.7440 C   0  0  0  0  0  1  0  0  0  0  0  0
  181.9300  179.9440  138.0580 C   0  0  0  0  0  2  0  0  0  0  0  0
  179.7780  178.8660  137.2660 C   0  0  0  0  0  3  0  0  0  0  0  0
  181.1790  173.9200  137.0880 C   0  0  0  0  0  2  0  0  0  0  0  0
  185.7490  175.8760  136.5680 N   0  0  0  0  0  0  0  0  0  0  0  0
  184.9560  176.9680  135.9960 C   0  0  0  0  0  2  0  0  0  0  0  0
  181.1190  178.7430  137.6980 C   0  0  0  0  0  0  0  0  0  0  0  0
  182.9540  175.6260  137.8480 N   0  0  0  0  0  0  0  0  0  0  0  0
  178.9310  175.1530  136.6040 C   0  0  0  0  0  2  0  0  0  0  0  0
  184.0420  179.0650  139.1790 C   0  0  1  0  0  3  0  0  0  0  0  0
  179.2020  172.7150  136.1810 C   0  0  0  0  0  1  0  0  0  0  0  0
  185.4550  175.3370  137.8980 C   0  0  0  0  0  2  0  0  0  0  0  0
  186.9810  175.6580  134.5940 O   0  0  0  0  0  0  0  0  0  0  0  0
  184.0740  174.6820  137.9650 C   0  0  0  0  0  2  0  0  0  0  0  0
  182.6580  179.6990  139.3730 C   0  0  0  0  0  2  0  0  0  0  0  0
  186.0670  178.6310  140.5770 C   0  0  0  0  0  3  0  0  0  0  0  0
  184.6780  178.7810  140.5020 C   0  0  0  0  0  0  0  0  0  0  0  0
  183.9020  178.6510  141.6630 C   0  0  0  0  0  3  0  0  0  0  0  0
  183.7620  178.2520  144.0080 F   0  0  0  0  0  0  0  0  0  0  0  0
  185.9020  178.2290  142.9590 C   0  0  0  0  0  3  0  0  0  0  0  0
  184.5130  178.3760  142.8890 C   0  0  0  0  0  0  0  0  0  0  0  0
  186.6780  178.3570  141.8040 C   0  0  0  0  0  3  0  0  0  0  0  0
  187.9980  172.0190  135.1430 C   0  0  0  0  0  1  0  0  0  0  0  0
  188.4910  173.4130  135.5000 C   0  0  2  0  0  3  0  0  0  0  0  0
  190.0600  174.5930  137.1010 C   0  0  0  0  0  1  0  0  0  0  0  0
  189.8140  173.3500  136.2580 C   0  0  0  0  0  2  0  0  0  0  0  0
  1 22  1  0  0  0  0
  1 20  1  0  0  0  0
  1 15  1  0  0  0  0
  2  5  2  0  0  0  0
  4  7  1  0  0  0  0
  5  8  1  0  0  0  0
  6 10  1  0  0  0  0
  6 16  1  0  0  0  0
  7 11  2  0  0  0  0
  7  2  1  0  0  0  0
  8  3  1  6  0  0  0
  8 21  1  0  0  0  0
  9  4  2  0  0  0  0
  9 14  1  0  0  0  0
 11 19  1  0  0  0  0
 12  1  1  0  0  0  0
 13 26  1  0  0  0  0
 14 18  2  0  0  0  0
 15 11  1  0  0  0  0
 16 23  1  0  0  0  0
 17 16  1  0  0  0  0
 17  3  1  0  0  0  0
 18  2  1  0  0  0  0
 18 13  1  0  0  0  0
 19 25  1  0  0  0  0
 19  5  1  0  0  0  0
 20  4  1  0  0  0  0
 21 26  1  0  0  0  0
 21 28  1  1  0  0  0
 23 25  1  0  0  0  0
 24  6  2  0  0  0  0
 27 33  1  0  0  0  0
 28 27  2  0  0  0  0
 28 29  1  0  0  0  0
 29 32  2  0  0  0  0
 32 31  1  0  0  0  0
 32 30  1  0  0  0  0
 33 31  2  0  0  0  0
 35 34  1  1  0  0  0
 35 37  1  0  0  0  0
 35 10  1  0  0  0  0
 37 36  1  0  0  0  0
M  END
>  <MODEL>
9

>  <REMARK>
 VINA RESULT:      -4.9      3.013      6.765
  Name = 
  3 active torsions:
  status: ('A' for Active; 'I' for Inactive)
    1  A    between atoms: C_4  and  N_12
    2  A    between atoms: C_4  and  C_37
    3  A    between atoms: C_23  and  C_30
                            x       y       z     vdW  Elec       q    Type
                         _______ _______ _______ _____ _____    ______ ____

>  <TORSDO>
F 3

$$$$
