=
 OpenBabel11122411433D

 37 44  0  0  1  0  0  0  0  0999 V2000
  183.7680  178.0980  140.6990 C   0  0  1  0  0  0  0  0  0  0  0  0
  186.1670  178.8210  143.5340 C   0  0  1  0  0  3  0  0  0  0  0  0
  189.4480  178.4690  142.9910 O   0  0  0  0  0  0  0  0  0  0  0  0
  183.8590  179.4980  142.5320 C   0  0  2  0  0  3  0  0  0  0  0  0
  187.1280  177.9130  142.7750 C   0  0  2  0  0  3  0  0  0  0  0  0
  185.3820  179.5460  142.4260 C   0  0  2  0  0  3  0  0  0  0  0  0
  188.4530  177.6050  143.4750 C   0  0  2  0  0  3  0  0  0  0  0  0
  183.4550  179.6930  143.9830 C   0  0  0  0  0  2  0  0  0  0  0  0
  185.8810  179.0090  141.0830 C   0  0  2  0  0  3  0  0  0  0  0  0
  183.4260  179.1810  139.8720 O   0  0  0  0  0  1  0  0  0  0  0  0
  186.0780  177.7760  145.7580 N   0  0  0  0  0  2  0  0  0  0  0  0
  183.9520  178.5520  144.8740 C   0  0  0  0  0  2  0  0  0  0  0  0
  185.1600  177.8570  140.6820 O   0  0  0  0  0  0  0  0  0  0  0  0
  189.7980  176.5710  141.5610 O   0  0  0  0  0  0  0  0  0  0  0  0
  190.2640  177.8220  142.0230 C   0  0  1  0  0  3  0  0  0  0  0  0
  185.3340  177.9780  144.5180 C   0  0  1  0  0  3  0  0  0  0  0  0
  187.3080  178.6050  141.4340 C   0  0  2  0  0  3  0  0  0  0  0  0
  183.3190  178.2970  142.0260 O   0  0  0  0  0  0  0  0  0  0  0  0
  188.4010  177.6030  145.0100 C   0  0  1  0  0  3  0  0  0  0  0  0
  183.0770  176.8650  140.1550 C   0  0  0  0  0  1  0  0  0  0  0  0
  189.6060  177.6510  140.6740 C   0  0  2  0  0  3  0  0  0  0  0  0
  188.0800  177.7510  140.4090 C   0  0  2  0  0  3  0  0  0  0  0  0
  187.1800  176.8460  145.5350 C   0  0  0  0  0  2  0  0  0  0  0  0
  190.0170  177.3530  146.8980 C   0  0  0  0  0  3  0  0  0  0  0  0
  189.6590  177.0310  145.5850 C   0  0  0  0  0  0  0  0  0  0  0  0
  190.4860  176.1870  144.8280 C   0  0  0  0  0  3  0  0  0  0  0  0
  192.4770  174.8380  144.6320 O   0  0  0  0  0  1  0  0  0  0  0  0
  192.0140  175.9970  146.6970 C   0  0  0  0  0  3  0  0  0  0  0  0
  191.6610  175.6720  145.3840 C   0  0  0  0  0  0  0  0  0  0  0  0
  191.1920  176.8370  147.4540 C   0  0  0  0  0  3  0  0  0  0  0  0
  187.9070  178.3050  138.9810 C   0  0  1  0  0  3  0  0  0  0  0  0
  188.5840  177.5260  137.9040 N   0  0  0  0  0  0  0  0  0  0  0  0
  187.1390  177.3970  138.1340 C   0  0  2  0  0  3  0  0  0  0  0  0
  186.2440  178.3570  136.8840 S   0  0  0  0  0  0  0  0  0  0  0  0
  184.8360  177.2170  136.9260 C   0  0  0  0  0  1  0  0  0  0  0  0
  190.3740  175.9340  137.4960 C   0  0  0  0  0  1  0  0  0  0  0  0
  189.1610  176.2600  138.3430 C   0  0  0  0  0  2  0  0  0  0  0  0
  1 20  1  6  0  0  0
  1 18  1  0  0  0  0
  2 16  1  0  0  0  0
  3  7  1  0  0  0  0
  4  8  1  0  0  0  0
  5  7  1  0  0  0  0
  5  2  1  0  0  0  0
  6  4  1  0  0  0  0
  6  2  1  0  0  0  0
  7 19  1  0  0  0  0
  8 12  1  0  0  0  0
  9 17  1  0  0  0  0
  9  6  1  0  0  0  0
 10  1  1  0  0  0  0
 13  1  1  0  0  0  0
 13  9  1  0  0  0  0
 14 15  1  0  0  0  0
 15  3  1  0  0  0  0
 16 12  1  0  0  0  0
 16 11  1  0  0  0  0
 17  5  1  0  0  0  0
 18  4  1  0  0  0  0
 19 23  1  0  0  0  0
 19 25  1  0  0  0  0
 21 14  1  0  0  0  0
 21 15  1  0  0  0  0
 22 21  1  0  0  0  0
 22 17  1  0  0  0  0
 23 11  1  0  0  0  0
 24 30  1  0  0  0  0
 25 24  2  0  0  0  0
 26 29  2  0  0  0  0
 26 25  1  0  0  0  0
 27 29  1  0  0  0  0
 28 30  2  0  0  0  0
 29 28  1  0  0  0  0
 31 22  1  0  0  0  0
 32 33  1  0  0  0  0
 32 37  1  0  0  0  0
 32 31  1  0  0  0  0
 33 31  1  0  0  0  0
 34 35  1  0  0  0  0
 34 33  1  0  0  0  0
 36 37  1  0  0  0  0
M  END
>  <MODEL>
1

>  <REMARK>
 VINA RESULT:      -8.3      0.000      0.000
  Name = 
  4 active torsions:
  status: ('A' for Active; 'I' for Inactive)
    1  A    between atoms: C_1  and  C_27
    2  A    between atoms: N_4  and  C_37
    3  A    between atoms: S_8  and  C_12
    4  A    between atoms: C_23  and  C_30
                            x       y       z     vdW  Elec       q    Type
                         _______ _______ _______ _____ _____    ______ ____

>  <TORSDO>
F 4

$$$$
=
 OpenBabel11122411433D

 37 44  0  0  1  0  0  0  0  0999 V2000
  189.9130  176.3060  137.7030 C   0  0  1  0  0  0  0  0  0  0  0  0
  186.7360  178.3260  137.3280 C   0  0  1  0  0  3  0  0  0  0  0  0
  185.2570  179.5190  140.0800 O   0  0  0  0  0  0  0  0  0  0  0  0
  188.9850  177.7400  136.1510 C   0  0  2  0  0  3  0  0  0  0  0  0
  186.4630  177.9170  138.7700 C   0  0  2  0  0  3  0  0  0  0  0  0
  188.2650  178.4920  137.2680 C   0  0  2  0  0  3  0  0  0  0  0  0
  185.1070  178.3350  139.3410 C   0  0  2  0  0  3  0  0  0  0  0  0
  188.1720  177.8490  134.8730 C   0  0  0  0  0  2  0  0  0  0  0  0
  188.8210  178.1380  138.6490 C   0  0  2  0  0  3  0  0  0  0  0  0
  191.1220  177.0210  137.6610 O   0  0  0  0  0  1  0  0  0  0  0  0
  184.7110  177.5660  136.1580 N   0  0  0  0  0  2  0  0  0  0  0  0
  186.8100  177.1630  135.0010 C   0  0  0  0  0  2  0  0  0  0  0  0
  189.0900  176.7510  138.7620 O   0  0  0  0  0  0  0  0  0  0  0  0
  185.4590  177.8930  141.8360 O   0  0  0  0  0  0  0  0  0  0  0  0
  185.3170  179.2520  141.4750 C   0  0  1  0  0  3  0  0  0  0  0  0
  186.1270  177.2810  136.3740 C   0  0  1  0  0  3  0  0  0  0  0  0
  187.6400  178.4890  139.5450 C   0  0  2  0  0  3  0  0  0  0  0  0
  189.2200  176.3860  136.4730 O   0  0  0  0  0  0  0  0  0  0  0  0
  183.9690  178.4450  138.3170 C   0  0  1  0  0  3  0  0  0  0  0  0
  190.2460  174.8510  137.9550 C   0  0  0  0  0  1  0  0  0  0  0  0
  186.6320  178.6710  141.9370 C   0  0  2  0  0  3  0  0  0  0  0  0
  187.6900  178.0140  141.0110 C   0  0  2  0  0  3  0  0  0  0  0  0
  183.9480  177.2510  137.3610 C   0  0  0  0  0  2  0  0  0  0  0  0
  182.0620  177.4680  139.6020 C   0  0  0  0  0  3  0  0  0  0  0  0
  182.6460  178.5890  139.0030 C   0  0  0  0  0  0  0  0  0  0  0  0
  181.9800  179.8240  139.0460 C   0  0  0  0  0  3  0  0  0  0  0  0
  180.0860  181.1550  139.7250 O   0  0  0  0  0  1  0  0  0  0  0  0
  180.1630  178.8080  140.2820 C   0  0  0  0  0  3  0  0  0  0  0  0
  180.7420  179.9320  139.6850 C   0  0  0  0  0  0  0  0  0  0  0  0
  180.8230  177.5770  140.2420 C   0  0  0  0  0  3  0  0  0  0  0  0
  189.0700  178.2910  141.6380 C   0  0  1  0  0  3  0  0  0  0  0  0
  189.2900  177.7060  142.9920 N   0  0  0  0  0  0  0  0  0  0  0  0
  189.8530  177.0680  141.7950 C   0  0  2  0  0  3  0  0  0  0  0  0
  191.6170  177.4670  141.6760 S   0  0  0  0  0  0  0  0  0  0  0  0
  191.6580  178.0730  143.3840 C   0  0  0  0  0  1  0  0  0  0  0  0
  187.9290  177.0800  144.9050 C   0  0  0  0  0  1  0  0  0  0  0  0
  188.2280  176.8120  143.4450 C   0  0  0  0  0  2  0  0  0  0  0  0
  1 20  1  1  0  0  0
  1 13  1  0  0  0  0
  2  5  1  0  0  0  0
  3 15  1  0  0  0  0
  4 18  1  0  0  0  0
  4  6  1  0  0  0  0
  5  7  1  0  0  0  0
  5 17  1  0  0  0  0
  6  2  1  0  0  0  0
  6  9  1  0  0  0  0
  7  3  1  0  0  0  0
  8 12  1  0  0  0  0
  8  4  1  0  0  0  0
  9 13  1  0  0  0  0
  9 17  1  0  0  0  0
 10  1  1  0  0  0  0
 11 16  1  0  0  0  0
 11 23  1  0  0  0  0
 12 16  1  0  0  0  0
 14 21  1  0  0  0  0
 15 14  1  0  0  0  0
 15 21  1  0  0  0  0
 16  2  1  0  0  0  0
 17 22  1  0  0  0  0
 18  1  1  0  0  0  0
 19 25  1  0  0  0  0
 19  7  1  0  0  0  0
 22 31  1  0  0  0  0
 22 21  1  0  0  0  0
 23 19  1  0  0  0  0
 24 30  1  0  0  0  0
 25 26  1  0  0  0  0
 25 24  2  0  0  0  0
 26 29  2  0  0  0  0
 29 27  1  0  0  0  0
 29 28  1  0  0  0  0
 30 28  2  0  0  0  0
 31 33  1  0  0  0  0
 31 32  1  0  0  0  0
 32 37  1  0  0  0  0
 33 32  1  0  0  0  0
 34 33  1  0  0  0  0
 34 35  1  0  0  0  0
 37 36  1  0  0  0  0
M  END
>  <MODEL>
2

>  <REMARK>
 VINA RESULT:      -8.2      2.804      8.120
  Name = 
  4 active torsions:
  status: ('A' for Active; 'I' for Inactive)
    1  A    between atoms: C_1  and  C_27
    2  A    between atoms: N_4  and  C_37
    3  A    between atoms: S_8  and  C_12
    4  A    between atoms: C_23  and  C_30
                            x       y       z     vdW  Elec       q    Type
                         _______ _______ _______ _____ _____    ______ ____

>  <TORSDO>
F 4

$$$$
=
 OpenBabel11122411433D

 37 44  0  0  1  0  0  0  0  0999 V2000
  185.4530  177.1310  137.7170 C   0  0  1  0  0  0  0  0  0  0  0  0
  186.3830  178.5890  141.0820 C   0  0  1  0  0  3  0  0  0  0  0  0
  189.5770  178.4520  142.0650 O   0  0  0  0  0  0  0  0  0  0  0  0
  184.7350  178.8480  139.0810 C   0  0  2  0  0  3  0  0  0  0  0  0
  187.5820  177.6500  141.0080 C   0  0  2  0  0  3  0  0  0  0  0  0
  186.1530  179.0180  139.6220 C   0  0  2  0  0  3  0  0  0  0  0  0
  188.4740  177.6030  142.2500 C   0  0  2  0  0  3  0  0  0  0  0  0
  183.7400  179.2700  140.1490 C   0  0  0  0  0  2  0  0  0  0  0  0
  187.1870  178.2920  138.7600 C   0  0  2  0  0  3  0  0  0  0  0  0
  185.4990  178.0050  136.6180 O   0  0  0  0  0  1  0  0  0  0  0  0
  185.3430  177.9700  143.2230 N   0  0  0  0  0  2  0  0  0  0  0  0
  183.8070  178.3650  141.3820 C   0  0  0  0  0  2  0  0  0  0  0  0
  186.7160  177.0230  138.3410 O   0  0  0  0  0  0  0  0  0  0  0  0
  190.5200  176.3640  141.3460 O   0  0  0  0  0  0  0  0  0  0  0  0
  190.7340  177.7160  141.6910 C   0  0  1  0  0  3  0  0  0  0  0  0
  185.2090  177.8680  141.7720 C   0  0  1  0  0  3  0  0  0  0  0  0
  188.3220  178.0960  139.7570 C   0  0  2  0  0  3  0  0  0  0  0  0
  184.4730  177.5290  138.6550 O   0  0  0  0  0  0  0  0  0  0  0  0
  187.7620  177.8800  143.5820 C   0  0  1  0  0  3  0  0  0  0  0  0
  185.0720  175.7590  137.2000 C   0  0  0  0  0  1  0  0  0  0  0  0
  190.7270  177.2380  140.2580 C   0  0  2  0  0  3  0  0  0  0  0  0
  189.4660  177.1430  139.3580 C   0  0  2  0  0  3  0  0  0  0  0  0
  186.4370  177.1220  143.6850 C   0  0  0  0  0  2  0  0  0  0  0  0
  188.2100  177.8250  146.0390 C   0  0  0  0  0  3  0  0  0  0  0  0
  188.6480  177.5450  144.7410 C   0  0  0  0  0  0  0  0  0  0  0  0
  189.9120  176.9660  144.5450 C   0  0  0  0  0  3  0  0  0  0  0  0
  191.9750  176.0970  145.4450 O   0  0  0  0  0  1  0  0  0  0  0  0
  190.2820  176.9520  146.9380 C   0  0  0  0  0  3  0  0  0  0  0  0
  190.7260  176.6700  145.6420 C   0  0  0  0  0  0  0  0  0  0  0  0
  189.0250  177.5280  147.1370 C   0  0  0  0  0  3  0  0  0  0  0  0
  189.9280  177.4040  137.9100 C   0  0  1  0  0  3  0  0  0  0  0  0
  190.6650  176.2830  137.2590 N   0  0  0  0  0  0  0  0  0  0  0  0
  189.2490  176.5320  136.9570 C   0  0  2  0  0  3  0  0  0  0  0  0
  189.1160  177.3790  135.3600 S   0  0  0  0  0  0  0  0  0  0  0  0
  187.9020  176.1770  134.7530 C   0  0  0  0  0  1  0  0  0  0  0  0
  190.1300  173.9140  137.1850 C   0  0  0  0  0  1  0  0  0  0  0  0
  190.6850  175.0430  138.0290 C   0  0  0  0  0  2  0  0  0  0  0  0
  1 20  1  6  0  0  0
  1 13  1  0  0  0  0
  1 18  1  0  0  0  0
  2 16  1  0  0  0  0
  3  7  1  0  0  0  0
  4  6  1  0  0  0  0
  4  8  1  0  0  0  0
  5  2  1  0  0  0  0
  5  7  1  0  0  0  0
  6  2  1  0  0  0  0
  7 19  1  0  0  0  0
  8 12  1  0  0  0  0
  9  6  1  0  0  0  0
  9 17  1  0  0  0  0
 10  1  1  0  0  0  0
 11 23  1  0  0  0  0
 12 16  1  0  0  0  0
 13  9  1  0  0  0  0
 14 15  1  0  0  0  0
 15  3  1  0  0  0  0
 16 11  1  0  0  0  0
 17  5  1  0  0  0  0
 18  4  1  0  0  0  0
 19 23  1  0  0  0  0
 19 25  1  0  0  0  0
 21 14  1  0  0  0  0
 21 15  1  0  0  0  0
 22 17  1  0  0  0  0
 22 21  1  0  0  0  0
 24 30  1  0  0  0  0
 25 24  2  0  0  0  0
 26 25  1  0  0  0  0
 26 29  2  0  0  0  0
 27 29  1  0  0  0  0
 28 30  2  0  0  0  0
 29 28  1  0  0  0  0
 31 22  1  0  0  0  0
 32 31  1  0  0  0  0
 32 37  1  0  0  0  0
 33 32  1  0  0  0  0
 33 31  1  0  0  0  0
 34 33  1  0  0  0  0
 35 34  1  0  0  0  0
 36 37  1  0  0  0  0
M  END
>  <MODEL>
3

>  <REMARK>
 VINA RESULT:      -7.7      1.724      2.543
  Name = 
  4 active torsions:
  status: ('A' for Active; 'I' for Inactive)
    1  A    between atoms: C_1  and  C_27
    2  A    between atoms: N_4  and  C_37
    3  A    between atoms: S_8  and  C_12
    4  A    between atoms: C_23  and  C_30
                            x       y       z     vdW  Elec       q    Type
                         _______ _______ _______ _____ _____    ______ ____

>  <TORSDO>
F 4

$$$$
=
 OpenBabel11122411433D

 37 44  0  0  1  0  0  0  0  0999 V2000
  183.1200  177.1680  138.4830 C   0  0  1  0  0  0  0  0  0  0  0  0
  185.4950  178.8530  140.8980 C   0  0  1  0  0  3  0  0  0  0  0  0
  188.7620  178.8800  140.1840 O   0  0  0  0  0  0  0  0  0  0  0  0
  183.0650  178.9380  139.9620 C   0  0  2  0  0  3  0  0  0  0  0  0
  186.5560  177.9520  140.2770 C   0  0  2  0  0  3  0  0  0  0  0  0
  184.5540  179.1870  139.7270 C   0  0  2  0  0  3  0  0  0  0  0  0
  187.9430  178.0090  140.9190 C   0  0  2  0  0  3  0  0  0  0  0  0
  182.7000  179.3900  141.3660 C   0  0  0  0  0  2  0  0  0  0  0  0
  185.0730  178.4450  138.4940 C   0  0  2  0  0  3  0  0  0  0  0  0
  182.5710  177.9750  137.4740 O   0  0  0  0  0  1  0  0  0  0  0  0
  185.6770  178.3290  143.2940 N   0  0  0  0  0  2  0  0  0  0  0  0
  183.4150  178.5630  142.4370 C   0  0  0  0  0  2  0  0  0  0  0  0
  184.5310  177.1380  138.4070 O   0  0  0  0  0  0  0  0  0  0  0  0
  189.3510  176.7850  139.1690 O   0  0  0  0  0  0  0  0  0  0  0  0
  189.6280  178.1620  139.3140 C   0  0  1  0  0  3  0  0  0  0  0  0
  184.8550  178.1370  142.1030 C   0  0  1  0  0  3  0  0  0  0  0  0
  186.5600  178.3460  138.8090 C   0  0  2  0  0  3  0  0  0  0  0  0
  182.7050  177.5880  139.7680 O   0  0  0  0  0  0  0  0  0  0  0  0
  187.9610  178.3410  142.4180 C   0  0  1  0  0  3  0  0  0  0  0  0
  182.6160  175.7560  138.2710 C   0  0  0  0  0  1  0  0  0  0  0  0
  188.9460  177.5990  138.0900 C   0  0  2  0  0  3  0  0  0  0  0  0
  187.4140  177.4100  137.9320 C   0  0  2  0  0  3  0  0  0  0  0  0
  186.9040  177.5470  143.1870 C   0  0  0  0  0  2  0  0  0  0  0  0
  190.0710  179.1980  143.4450 C   0  0  0  0  0  3  0  0  0  0  0  0
  189.3200  178.1050  143.0000 C   0  0  0  0  0  0  0  0  0  0  0  0
  189.8540  176.8100  143.0980 C   0  0  0  0  0  3  0  0  0  0  0  0
  191.6530  175.3340  143.7340 O   0  0  0  0  0  1  0  0  0  0  0  0
  191.8750  177.7120  144.0810 C   0  0  0  0  0  3  0  0  0  0  0  0
  191.1280  176.6160  143.6380 C   0  0  0  0  0  0  0  0  0  0  0  0
  191.3470  179.0020  143.9850 C   0  0  0  0  0  3  0  0  0  0  0  0
  187.0900  177.5990  136.4360 C   0  0  1  0  0  3  0  0  0  0  0  0
  187.5820  176.5210  135.5310 N   0  0  0  0  0  0  0  0  0  0  0  0
  186.1730  176.5750  135.9440 C   0  0  2  0  0  3  0  0  0  0  0  0
  185.1780  177.2610  134.5940 S   0  0  0  0  0  0  0  0  0  0  0  0
  183.9160  175.9740  134.7860 C   0  0  0  0  0  1  0  0  0  0  0  0
  189.0710  174.6170  135.2810 C   0  0  0  0  0  1  0  0  0  0  0  0
  188.1440  175.3620  136.2180 C   0  0  0  0  0  2  0  0  0  0  0  0
  1 20  1  6  0  0  0
  1 18  1  0  0  0  0
  2 16  1  0  0  0  0
  3  7  1  0  0  0  0
  4  8  1  0  0  0  0
  5  2  1  0  0  0  0
  5  7  1  0  0  0  0
  6  4  1  0  0  0  0
  6  2  1  0  0  0  0
  7 19  1  0  0  0  0
  8 12  1  0  0  0  0
  9 17  1  0  0  0  0
  9  6  1  0  0  0  0
 10  1  1  0  0  0  0
 13  1  1  0  0  0  0
 13  9  1  0  0  0  0
 14 15  1  0  0  0  0
 15  3  1  0  0  0  0
 16 12  1  0  0  0  0
 16 11  1  0  0  0  0
 17  5  1  0  0  0  0
 18  4  1  0  0  0  0
 19 25  1  0  0  0  0
 19 23  1  0  0  0  0
 21 14  1  0  0  0  0
 21 15  1  0  0  0  0
 22 21  1  0  0  0  0
 22 17  1  0  0  0  0
 23 11  1  0  0  0  0
 24 30  1  0  0  0  0
 25 26  1  0  0  0  0
 25 24  2  0  0  0  0
 26 29  2  0  0  0  0
 29 27  1  0  0  0  0
 29 28  1  0  0  0  0
 30 28  2  0  0  0  0
 31 22  1  0  0  0  0
 32 33  1  0  0  0  0
 32 37  1  0  0  0  0
 32 31  1  0  0  0  0
 33 31  1  0  0  0  0
 34 35  1  0  0  0  0
 34 33  1  0  0  0  0
 36 37  1  0  0  0  0
M  END
>  <MODEL>
4

>  <REMARK>
 VINA RESULT:      -7.7      2.045      2.699
  Name = 
  4 active torsions:
  status: ('A' for Active; 'I' for Inactive)
    1  A    between atoms: C_1  and  C_27
    2  A    between atoms: N_4  and  C_37
    3  A    between atoms: S_8  and  C_12
    4  A    between atoms: C_23  and  C_30
                            x       y       z     vdW  Elec       q    Type
                         _______ _______ _______ _____ _____    ______ ____

>  <TORSDO>
F 4

$$$$
=
 OpenBabel11122411433D

 37 44  0  0  1  0  0  0  0  0999 V2000
  190.4430  176.0050  138.3450 C   0  0  1  0  0  0  0  0  0  0  0  0
  187.9660  178.5660  139.6180 C   0  0  1  0  0  3  0  0  0  0  0  0
  187.2400  178.6160  142.8820 O   0  0  0  0  0  0  0  0  0  0  0  0
  189.7880  178.1510  137.8030 C   0  0  2  0  0  3  0  0  0  0  0  0
  187.7630  177.5980  140.7770 C   0  0  2  0  0  3  0  0  0  0  0  0
  189.4580  178.4260  139.2690 C   0  0  2  0  0  3  0  0  0  0  0  0
  186.6660  177.9690  141.7770 C   0  0  2  0  0  3  0  0  0  0  0  0
  188.8930  179.0050  136.9220 C   0  0  0  0  0  2  0  0  0  0  0  0
  190.0500  177.3660  140.1990 C   0  0  2  0  0  3  0  0  0  0  0  0
  191.7920  176.3950  138.3170 O   0  0  0  0  0  1  0  0  0  0  0  0
  185.6810  178.8670  138.7590 N   0  0  0  0  0  2  0  0  0  0  0  0
  187.4160  178.6310  137.0740 C   0  0  0  0  0  2  0  0  0  0  0  0
  189.9180  176.0630  139.6560 O   0  0  0  0  0  0  0  0  0  0  0  0
  187.1750  176.3570  143.6960 O   0  0  0  0  0  0  0  0  0  0  0  0
  187.3890  177.7240  143.9790 C   0  0  1  0  0  3  0  0  0  0  0  0
  186.9690  178.2330  138.4910 C   0  0  1  0  0  3  0  0  0  0  0  0
  189.1390  177.4920  141.4140 C   0  0  2  0  0  3  0  0  0  0  0  0
  189.6580  176.7870  137.4660 O   0  0  0  0  0  0  0  0  0  0  0  0
  185.4920  178.7720  141.1960 C   0  0  1  0  0  3  0  0  0  0  0  0
  190.3670  174.5660  137.8800 C   0  0  0  0  0  1  0  0  0  0  0  0
  188.5260  176.7410  143.8280 C   0  0  2  0  0  3  0  0  0  0  0  0
  189.2270  176.3910  142.4890 C   0  0  2  0  0  3  0  0  0  0  0  0
  185.0110  178.1910  139.8660 C   0  0  0  0  0  2  0  0  0  0  0  0
  183.0480  178.8860  141.6970 C   0  0  0  0  0  3  0  0  0  0  0  0
  184.3610  178.8460  142.1740 C   0  0  0  0  0  0  0  0  0  0  0  0
  184.5980  178.8860  143.5570 C   0  0  0  0  0  3  0  0  0  0  0  0
  183.7640  179.0030  145.8180 O   0  0  0  0  0  1  0  0  0  0  0  0
  182.2150  179.0030  143.9680 C   0  0  0  0  0  3  0  0  0  0  0  0
  183.5260  178.9640  144.4510 C   0  0  0  0  0  0  0  0  0  0  0  0
  181.9750  178.9630  142.5920 C   0  0  0  0  0  3  0  0  0  0  0  0
  190.6940  176.0570  142.8250 C   0  0  1  0  0  3  0  0  0  0  0  0
  191.5440  177.2170  143.2170 N   0  0  0  0  0  0  0  0  0  0  0  0
  191.0020  176.3030  144.2310 C   0  0  2  0  0  3  0  0  0  0  0  0
  192.3030  175.1620  144.7680 S   0  0  0  0  0  0  0  0  0  0  0  0
  192.0810  175.6280  146.5060 C   0  0  0  0  0  1  0  0  0  0  0  0
  191.5790  179.3700  144.3430 C   0  0  0  0  0  1  0  0  0  0  0  0
  190.8160  178.4690  143.3940 C   0  0  0  0  0  2  0  0  0  0  0  0
  1 20  1  6  0  0  0
  1 13  1  0  0  0  0
  2  5  1  0  0  0  0
  3 15  1  0  0  0  0
  4  6  1  0  0  0  0
  5 17  1  0  0  0  0
  5  7  1  0  0  0  0
  6  2  1  0  0  0  0
  6  9  1  0  0  0  0
  7  3  1  0  0  0  0
  8 12  1  0  0  0  0
  8  4  1  0  0  0  0
  9 17  1  0  0  0  0
 10  1  1  0  0  0  0
 11 23  1  0  0  0  0
 12 16  1  0  0  0  0
 13  9  1  0  0  0  0
 14 21  1  0  0  0  0
 14 15  1  0  0  0  0
 16 11  1  0  0  0  0
 16  2  1  0  0  0  0
 17 22  1  0  0  0  0
 18  4  1  0  0  0  0
 18  1  1  0  0  0  0
 19  7  1  0  0  0  0
 19 25  1  0  0  0  0
 21 15  1  0  0  0  0
 22 31  1  0  0  0  0
 22 21  1  0  0  0  0
 23 19  1  0  0  0  0
 24 25  2  0  0  0  0
 24 30  1  0  0  0  0
 25 26  1  0  0  0  0
 26 29  2  0  0  0  0
 28 29  1  0  0  0  0
 29 27  1  0  0  0  0
 30 28  2  0  0  0  0
 31 32  1  0  0  0  0
 31 33  1  0  0  0  0
 32 37  1  0  0  0  0
 32 33  1  0  0  0  0
 33 34  1  0  0  0  0
 34 35  1  0  0  0  0
 37 36  1  0  0  0  0
M  END
>  <MODEL>
5

>  <REMARK>
 VINA RESULT:      -7.6      2.855      7.001
  Name = 
  4 active torsions:
  status: ('A' for Active; 'I' for Inactive)
    1  A    between atoms: C_1  and  C_27
    2  A    between atoms: N_4  and  C_37
    3  A    between atoms: S_8  and  C_12
    4  A    between atoms: C_23  and  C_30
                            x       y       z     vdW  Elec       q    Type
                         _______ _______ _______ _____ _____    ______ ____

>  <TORSDO>
F 4

$$$$
=
 OpenBabel11122411433D

 37 44  0  0  1  0  0  0  0  0999 V2000
  188.4210  175.8650  136.6250 C   0  0  1  0  0  0  0  0  0  0  0  0
  185.5060  178.1590  137.3720 C   0  0  1  0  0  3  0  0  0  0  0  0
  185.3260  179.6000  140.3840 O   0  0  0  0  0  0  0  0  0  0  0  0
  187.0580  177.3140  135.4560 C   0  0  2  0  0  3  0  0  0  0  0  0
  185.7990  177.8370  138.8320 C   0  0  2  0  0  3  0  0  0  0  0  0
  186.8940  178.1770  136.7060 C   0  0  2  0  0  3  0  0  0  0  0  0
  184.8130  178.4060  139.8550 C   0  0  2  0  0  3  0  0  0  0  0  0
  185.8140  177.4470  134.5940 C   0  0  0  0  0  2  0  0  0  0  0  0
  187.9240  177.8290  137.7820 C   0  0  2  0  0  3  0  0  0  0  0  0
  189.5610  176.4590  136.0600 O   0  0  0  0  0  1  0  0  0  0  0  0
  183.1350  177.5460  137.1470 N   0  0  0  0  0  2  0  0  0  0  0  0
  184.5690  176.8990  135.2950 C   0  0  0  0  0  2  0  0  0  0  0  0
  188.1180  176.4290  137.8850 O   0  0  0  0  0  0  0  0  0  0  0  0
  186.0920  178.0360  142.0380 O   0  0  0  0  0  0  0  0  0  0  0  0
  185.9150  179.3850  141.6600 C   0  0  1  0  0  3  0  0  0  0  0  0
  184.4970  177.1370  136.8130 C   0  0  1  0  0  3  0  0  0  0  0  0
  187.2230  178.3270  139.0400 C   0  0  2  0  0  3  0  0  0  0  0  0
  187.3040  175.9590  135.7620 O   0  0  0  0  0  0  0  0  0  0  0  0
  183.3730  178.5800  139.3520 C   0  0  1  0  0  3  0  0  0  0  0  0
  188.7220  174.3950  136.8360 C   0  0  0  0  0  1  0  0  0  0  0  0
  187.2610  178.7020  141.6140 C   0  0  2  0  0  3  0  0  0  0  0  0
  187.8160  177.9110  140.4000 C   0  0  2  0  0  3  0  0  0  0  0  0
  182.8910  177.3550  138.5730 C   0  0  0  0  0  2  0  0  0  0  0  0
  181.1950  179.4460  140.2170 C   0  0  0  0  0  3  0  0  0  0  0  0
  182.4430  178.8770  140.4870 C   0  0  0  0  0  0  0  0  0  0  0  0
  182.8080  178.6030  141.8150 C   0  0  0  0  0  3  0  0  0  0  0  0
  182.2910  178.6250  144.1710 O   0  0  0  0  0  1  0  0  0  0  0  0
  180.6800  179.4660  142.5840 C   0  0  0  0  0  3  0  0  0  0  0  0
  181.9270  178.8970  142.8600 C   0  0  0  0  0  0  0  0  0  0  0  0
  180.3130  179.7400  141.2630 C   0  0  0  0  0  3  0  0  0  0  0  0
  189.3480  178.0810  140.4150 C   0  0  1  0  0  3  0  0  0  0  0  0
  190.0570  177.4130  141.5440 N   0  0  0  0  0  0  0  0  0  0  0  0
  190.0390  176.8130  140.2030 C   0  0  2  0  0  3  0  0  0  0  0  0
  191.6260  177.1250  139.3840 S   0  0  0  0  0  0  0  0  0  0  0  0
  192.4370  177.5010  140.9610 C   0  0  0  0  0  1  0  0  0  0  0  0
  190.0830  175.6280  143.1920 C   0  0  0  0  0  1  0  0  0  0  0  0
  189.2130  176.5520  142.3660 C   0  0  0  0  0  2  0  0  0  0  0  0
  1 20  1  1  0  0  0
  1 13  1  0  0  0  0
  2  5  1  0  0  0  0
  3 15  1  0  0  0  0
  4 18  1  0  0  0  0
  4  6  1  0  0  0  0
  5 17  1  0  0  0  0
  5  7  1  0  0  0  0
  6  2  1  0  0  0  0
  6  9  1  0  0  0  0
  7  3  1  0  0  0  0
  8 12  1  0  0  0  0
  8  4  1  0  0  0  0
  9 13  1  0  0  0  0
  9 17  1  0  0  0  0
 10  1  1  0  0  0  0
 11 23  1  0  0  0  0
 12 16  1  0  0  0  0
 15 14  1  0  0  0  0
 16 11  1  0  0  0  0
 16  2  1  0  0  0  0
 17 22  1  0  0  0  0
 18  1  1  0  0  0  0
 19  7  1  0  0  0  0
 19 25  1  0  0  0  0
 21 15  1  0  0  0  0
 21 14  1  0  0  0  0
 22 31  1  0  0  0  0
 22 21  1  0  0  0  0
 23 19  1  0  0  0  0
 24 25  2  0  0  0  0
 24 30  1  0  0  0  0
 25 26  1  0  0  0  0
 26 29  2  0  0  0  0
 28 29  1  0  0  0  0
 29 27  1  0  0  0  0
 30 28  2  0  0  0  0
 31 32  1  0  0  0  0
 32 37  1  0  0  0  0
 33 31  1  0  0  0  0
 33 32  1  0  0  0  0
 34 33  1  0  0  0  0
 34 35  1  0  0  0  0
 37 36  1  0  0  0  0
M  END
>  <MODEL>
6

>  <REMARK>
 VINA RESULT:      -7.6      3.000      7.349
  Name = 
  4 active torsions:
  status: ('A' for Active; 'I' for Inactive)
    1  A    between atoms: C_1  and  C_27
    2  A    between atoms: N_4  and  C_37
    3  A    between atoms: S_8  and  C_12
    4  A    between atoms: C_23  and  C_30
                            x       y       z     vdW  Elec       q    Type
                         _______ _______ _______ _____ _____    ______ ____

>  <TORSDO>
F 4

$$$$
=
 OpenBabel11122411433D

 37 44  0  0  1  0  0  0  0  0999 V2000
  190.1480  178.2970  144.2300 C   0  0  1  0  0  0  0  0  0  0  0  0
  186.4360  177.5730  144.3170 C   0  0  1  0  0  3  0  0  0  0  0  0
  184.7630  177.4060  141.4260 O   0  0  0  0  0  0  0  0  0  0  0  0
  188.6800  177.1130  145.5590 C   0  0  2  0  0  3  0  0  0  0  0  0
  186.4070  178.2480  142.9510 C   0  0  2  0  0  3  0  0  0  0  0  0
  187.7910  176.8440  144.3460 C   0  0  2  0  0  3  0  0  0  0  0  0
  185.0230  178.4470  142.3300 C   0  0  2  0  0  3  0  0  0  0  0  0
  187.8190  177.1400  146.8100 C   0  0  0  0  0  2  0  0  0  0  0  0
  188.5070  177.1510  143.0300 C   0  0  2  0  0  3  0  0  0  0  0  0
  191.0050  177.1850  144.1630 O   0  0  0  0  0  1  0  0  0  0  0  0
  184.7770  178.8640  145.5930 N   0  0  0  0  0  2  0  0  0  0  0  0
  186.8140  178.2940  146.7890 C   0  0  0  0  0  2  0  0  0  0  0  0
  189.2740  178.3400  143.1200 O   0  0  0  0  0  0  0  0  0  0  0  0
  185.6400  179.0640  139.9260 O   0  0  0  0  0  0  0  0  0  0  0  0
  184.9890  177.8210  140.0850 C   0  0  1  0  0  3  0  0  0  0  0  0
  186.2070  178.6280  145.4160 C   0  0  1  0  0  3  0  0  0  0  0  0
  187.3270  177.3920  142.0970 C   0  0  2  0  0  3  0  0  0  0  0  0
  189.4120  178.3120  145.4370 O   0  0  0  0  0  0  0  0  0  0  0  0
  183.8740  178.6290  143.3320 C   0  0  1  0  0  3  0  0  0  0  0  0
  191.0060  179.5440  144.1930 C   0  0  0  0  0  1  0  0  0  0  0  0
  186.4470  177.9280  139.7080 C   0  0  2  0  0  3  0  0  0  0  0  0
  187.6240  178.0100  140.7160 C   0  0  2  0  0  3  0  0  0  0  0  0
  184.2460  179.6020  144.4520 C   0  0  0  0  0  2  0  0  0  0  0  0
  181.4910  179.3780  143.3970 C   0  0  0  0  0  3  0  0  0  0  0  0
  182.6280  179.0840  142.6370 C   0  0  0  0  0  0  0  0  0  0  0  0
  182.5800  179.2090  141.2400 C   0  0  0  0  0  3  0  0  0  0  0  0
  181.3580  179.7510  139.2310 O   0  0  0  0  0  1  0  0  0  0  0  0
  180.2690  179.9200  141.3770 C   0  0  0  0  0  3  0  0  0  0  0  0
  181.4020  179.6270  140.6130 C   0  0  0  0  0  0  0  0  0  0  0  0
  180.3130  179.7960  142.7690 C   0  0  0  0  0  3  0  0  0  0  0  0
  188.8350  177.3290  140.0500 C   0  0  1  0  0  3  0  0  0  0  0  0
  189.3180  177.9650  138.7900 N   0  0  0  0  0  0  0  0  0  0  0  0
  190.0180  178.1850  140.0630 C   0  0  2  0  0  3  0  0  0  0  0  0
  191.5060  177.1520  140.1160 S   0  0  0  0  0  0  0  0  0  0  0  0
  190.9590  176.1820  138.6850 C   0  0  0  0  0  1  0  0  0  0  0  0
  188.5480  179.3780  136.9690 C   0  0  0  0  0  1  0  0  0  0  0  0
  188.6800  179.2380  138.4720 C   0  0  0  0  0  2  0  0  0  0  0  0
  1 20  1  6  0  0  0
  1 18  1  0  0  0  0
  2  6  1  0  0  0  0
  2 16  1  0  0  0  0
  3  7  1  0  0  0  0
  4  8  1  0  0  0  0
  5  2  1  0  0  0  0
  6  4  1  0  0  0  0
  7  5  1  0  0  0  0
  7 19  1  0  0  0  0
  9 13  1  0  0  0  0
  9  6  1  0  0  0  0
 10  1  1  0  0  0  0
 12  8  1  0  0  0  0
 13  1  1  0  0  0  0
 14 15  1  0  0  0  0
 15  3  1  0  0  0  0
 16 11  1  0  0  0  0
 16 12  1  0  0  0  0
 17  5  1  0  0  0  0
 17  9  1  0  0  0  0
 18  4  1  0  0  0  0
 19 23  1  0  0  0  0
 21 14  1  0  0  0  0
 21 15  1  0  0  0  0
 21 22  1  0  0  0  0
 22 17  1  0  0  0  0
 23 11  1  0  0  0  0
 25 19  1  0  0  0  0
 25 24  2  0  0  0  0
 26 25  1  0  0  0  0
 27 29  1  0  0  0  0
 28 30  2  0  0  0  0
 29 26  2  0  0  0  0
 29 28  1  0  0  0  0
 30 24  1  0  0  0  0
 31 33  1  0  0  0  0
 31 22  1  0  0  0  0
 32 31  1  0  0  0  0
 32 33  1  0  0  0  0
 33 34  1  0  0  0  0
 35 34  1  0  0  0  0
 36 37  1  0  0  0  0
 37 32  1  0  0  0  0
M  END
>  <MODEL>
7

>  <REMARK>
 VINA RESULT:      -7.3      2.058      6.526
  Name = 
  4 active torsions:
  status: ('A' for Active; 'I' for Inactive)
    1  A    between atoms: C_1  and  C_27
    2  A    between atoms: N_4  and  C_37
    3  A    between atoms: S_8  and  C_12
    4  A    between atoms: C_23  and  C_30
                            x       y       z     vdW  Elec       q    Type
                         _______ _______ _______ _____ _____    ______ ____

>  <TORSDO>
F 4

$$$$
=
 OpenBabel11122411433D

 37 44  0  0  1  0  0  0  0  0999 V2000
  183.3630  177.3500  136.9870 C   0  0  1  0  0  0  0  0  0  0  0  0
  183.7540  179.1360  140.2990 C   0  0  1  0  0  3  0  0  0  0  0  0
  186.8080  179.3860  141.6390 O   0  0  0  0  0  0  0  0  0  0  0  0
  182.3380  179.0840  138.1120 C   0  0  2  0  0  3  0  0  0  0  0  0
  185.0320  178.3170  140.4390 C   0  0  2  0  0  3  0  0  0  0  0  0
  183.6610  179.4320  138.7910 C   0  0  2  0  0  3  0  0  0  0  0  0
  185.7710  178.4500  141.7710 C   0  0  2  0  0  3  0  0  0  0  0  0
  181.1900  179.4840  139.0240 C   0  0  0  0  0  2  0  0  0  0  0  0
  184.8510  178.7490  138.1140 C   0  0  2  0  0  3  0  0  0  0  0  0
  183.4610  178.1410  135.8300 O   0  0  0  0  0  1  0  0  0  0  0  0
  182.5270  178.5780  142.3560 N   0  0  0  0  0  2  0  0  0  0  0  0
  181.1900  178.6830  140.3290 C   0  0  0  0  0  2  0  0  0  0  0  0
  184.5480  177.4120  137.7540 O   0  0  0  0  0  0  0  0  0  0  0  0
  188.0120  177.3540  141.2080 O   0  0  0  0  0  0  0  0  0  0  0  0
  188.0630  178.7430  141.4590 C   0  0  1  0  0  3  0  0  0  0  0  0
  182.5750  178.3560  140.9130 C   0  0  1  0  0  3  0  0  0  0  0  0
  185.8720  178.7400  139.2450 C   0  0  2  0  0  3  0  0  0  0  0  0
  182.2470  177.7170  137.7740 O   0  0  0  0  0  0  0  0  0  0  0  0
  184.8840  178.7530  142.9870 C   0  0  1  0  0  3  0  0  0  0  0  0
  183.1700  175.9130  136.5490 C   0  0  0  0  0  1  0  0  0  0  0  0
  188.2680  178.1620  140.0800 C   0  0  2  0  0  3  0  0  0  0  0  0
  187.1360  177.8770  139.0570 C   0  0  2  0  0  3  0  0  0  0  0  0
  183.6300  177.8780  143.0070 C   0  0  0  0  0  2  0  0  0  0  0  0
  186.7110  177.6790  144.3110 C   0  0  0  0  0  3  0  0  0  0  0  0
  185.6530  178.5930  144.2620 C   0  0  0  0  0  0  0  0  0  0  0  0
  185.3250  179.3360  145.4070 C   0  0  0  0  0  3  0  0  0  0  0  0
  185.7250  179.9000  147.7180 O   0  0  0  0  0  1  0  0  0  0  0  0
  187.1090  178.2490  146.6310 C   0  0  0  0  0  3  0  0  0  0  0  0
  186.0520  179.1630  146.5880 C   0  0  0  0  0  0  0  0  0  0  0  0
  187.4380  177.5070  145.4930 C   0  0  0  0  0  3  0  0  0  0  0  0
  187.7410  178.0750  137.6520 C   0  0  1  0  0  3  0  0  0  0  0  0
  188.8720  177.1660  137.3070 N   0  0  0  0  0  0  0  0  0  0  0  0
  187.5180  176.9140  136.7950 C   0  0  2  0  0  3  0  0  0  0  0  0
  187.4180  177.4550  135.0680 S   0  0  0  0  0  0  0  0  0  0  0  0
  189.1800  177.1260  134.7980 C   0  0  0  0  0  1  0  0  0  0  0  0
  190.5510  175.6280  138.1530 C   0  0  0  0  0  1  0  0  0  0  0  0
  189.1210  176.1100  138.2820 C   0  0  0  0  0  2  0  0  0  0  0  0
  1 20  1  6  0  0  0
  1 13  1  0  0  0  0
  1 18  1  0  0  0  0
  2  5  1  0  0  0  0
  2 16  1  0  0  0  0
  3  7  1  0  0  0  0
  4  6  1  0  0  0  0
  4  8  1  0  0  0  0
  5  7  1  0  0  0  0
  6  2  1  0  0  0  0
  7 19  1  0  0  0  0
  8 12  1  0  0  0  0
  9  6  1  0  0  0  0
  9 17  1  0  0  0  0
 10  1  1  0  0  0  0
 11 23  1  0  0  0  0
 12 16  1  0  0  0  0
 13  9  1  0  0  0  0
 14 15  1  0  0  0  0
 15  3  1  0  0  0  0
 16 11  1  0  0  0  0
 17  5  1  0  0  0  0
 18  4  1  0  0  0  0
 19 23  1  0  0  0  0
 19 25  1  0  0  0  0
 21 14  1  0  0  0  0
 21 15  1  0  0  0  0
 22 17  1  0  0  0  0
 22 21  1  0  0  0  0
 24 30  1  0  0  0  0
 25 24  2  0  0  0  0
 25 26  1  0  0  0  0
 26 29  2  0  0  0  0
 29 28  1  0  0  0  0
 29 27  1  0  0  0  0
 30 28  2  0  0  0  0
 31 22  1  0  0  0  0
 32 31  1  0  0  0  0
 32 37  1  0  0  0  0
 33 32  1  0  0  0  0
 33 31  1  0  0  0  0
 34 33  1  0  0  0  0
 35 34  1  0  0  0  0
 36 37  1  0  0  0  0
M  END
>  <MODEL>
8

>  <REMARK>
 VINA RESULT:      -7.1      2.517      4.078
  Name = 
  4 active torsions:
  status: ('A' for Active; 'I' for Inactive)
    1  A    between atoms: C_1  and  C_27
    2  A    between atoms: N_4  and  C_37
    3  A    between atoms: S_8  and  C_12
    4  A    between atoms: C_23  and  C_30
                            x       y       z     vdW  Elec       q    Type
                         _______ _______ _______ _____ _____    ______ ____

>  <TORSDO>
F 4

$$$$
=
 OpenBabel11122411433D

 37 44  0  0  1  0  0  0  0  0999 V2000
  185.5020  179.2250  145.1110 C   0  0  1  0  0  0  0  0  0  0  0  0
  186.9100  177.4540  142.0790 C   0  0  1  0  0  3  0  0  0  0  0  0
  189.8390  175.8650  142.3620 O   0  0  0  0  0  0  0  0  0  0  0  0
  184.6830  178.1330  143.2510 C   0  0  2  0  0  3  0  0  0  0  0  0
  188.2560  177.6150  142.7750 C   0  0  2  0  0  3  0  0  0  0  0  0
  185.9150  177.2300  143.2320 C   0  0  2  0  0  3  0  0  0  0  0  0
  189.4810  177.1670  141.9770 C   0  0  2  0  0  3  0  0  0  0  0  0
  184.1600  178.2880  141.8330 C   0  0  0  0  0  2  0  0  0  0  0  0
  186.7040  177.3090  144.5410 C   0  0  2  0  0  3  0  0  0  0  0  0
  184.6550  178.4730  145.9420 O   0  0  0  0  0  1  0  0  0  0  0  0
  187.3040  178.5030  139.8890 N   0  0  0  0  0  2  0  0  0  0  0  0
  185.1640  179.0050  140.9270 C   0  0  0  0  0  2  0  0  0  0  0  0
  186.7850  178.6400  145.0210 O   0  0  0  0  0  0  0  0  0  0  0  0
  191.2790  177.1450  143.7960 O   0  0  0  0  0  0  0  0  0  0  0  0
  190.9300  175.8800  143.2740 C   0  0  1  0  0  3  0  0  0  0  0  0
  186.6460  178.6790  141.1810 C   0  0  1  0  0  3  0  0  0  0  0  0
  188.0870  176.8610  144.0840 C   0  0  2  0  0  3  0  0  0  0  0  0
  184.9460  179.3960  143.8220 O   0  0  0  0  0  0  0  0  0  0  0  0
  189.3540  177.2930  140.4520 C   0  0  1  0  0  3  0  0  0  0  0  0
  185.6610  180.5970  145.7330 C   0  0  0  0  0  1  0  0  0  0  0  0
  190.5600  176.3080  144.6740 C   0  0  2  0  0  3  0  0  0  0  0  0
  189.2620  177.0670  145.0590 C   0  0  2  0  0  3  0  0  0  0  0  0
  188.7490  178.6360  140.0420 C   0  0  0  0  0  2  0  0  0  0  0  0
  191.8440  177.5030  140.4470 C   0  0  0  0  0  3  0  0  0  0  0  0
  190.6810  177.0920  139.7880 C   0  0  0  0  0  0  0  0  0  0  0  0
  190.7750  176.5100  138.5140 C   0  0  0  0  0  3  0  0  0  0  0  0
  192.1150  175.7640  136.6510 O   0  0  0  0  0  1  0  0  0  0  0  0
  193.1840  176.7530  138.5750 C   0  0  0  0  0  3  0  0  0  0  0  0
  192.0250  176.3410  137.9100 C   0  0  0  0  0  0  0  0  0  0  0  0
  193.0940  177.3330  139.8430 C   0  0  0  0  0  3  0  0  0  0  0  0
  188.8870  176.6200  146.4860 C   0  0  1  0  0  3  0  0  0  0  0  0
  190.0320  176.4220  147.4200 N   0  0  0  0  0  0  0  0  0  0  0  0
  189.2120  177.6390  147.4800 C   0  0  2  0  0  3  0  0  0  0  0  0
  188.0520  177.5130  148.8670 S   0  0  0  0  0  0  0  0  0  0  0  0
  187.1640  179.0030  148.3410 C   0  0  0  0  0  1  0  0  0  0  0  0
  192.4240  176.0020  147.4960 C   0  0  0  0  0  1  0  0  0  0  0  0
  191.3240  176.8510  146.8930 C   0  0  0  0  0  2  0  0  0  0  0  0
  1 20  1  1  0  0  0
  1 10  1  0  0  0  0
  2  5  1  0  0  0  0
  2  6  1  0  0  0  0
  3 15  1  0  0  0  0
  4 18  1  0  0  0  0
  5 17  1  0  0  0  0
  6  4  1  0  0  0  0
  6  9  1  0  0  0  0
  7  3  1  0  0  0  0
  7  5  1  0  0  0  0
  8  4  1  0  0  0  0
  9 13  1  0  0  0  0
 11 23  1  0  0  0  0
 11 16  1  0  0  0  0
 12 16  1  0  0  0  0
 12  8  1  0  0  0  0
 13  1  1  0  0  0  0
 14 21  1  0  0  0  0
 15 14  1  0  0  0  0
 15 21  1  0  0  0  0
 16  2  1  0  0  0  0
 17  9  1  0  0  0  0
 17 22  1  0  0  0  0
 18  1  1  0  0  0  0
 19  7  1  0  0  0  0
 21 22  1  0  0  0  0
 22 31  1  0  0  0  0
 23 19  1  0  0  0  0
 25 24  2  0  0  0  0
 25 19  1  0  0  0  0
 26 25  1  0  0  0  0
 27 29  1  0  0  0  0
 28 30  2  0  0  0  0
 29 26  2  0  0  0  0
 29 28  1  0  0  0  0
 30 24  1  0  0  0  0
 31 32  1  0  0  0  0
 31 33  1  0  0  0  0
 32 33  1  0  0  0  0
 33 34  1  0  0  0  0
 35 34  1  0  0  0  0
 37 32  1  0  0  0  0
 37 36  1  0  0  0  0
M  END
>  <MODEL>
9

>  <REMARK>
 VINA RESULT:      -6.7      2.959      6.299
  Name = 
  4 active torsions:
  status: ('A' for Active; 'I' for Inactive)
    1  A    between atoms: C_1  and  C_27
    2  A    between atoms: N_4  and  C_37
    3  A    between atoms: S_8  and  C_12
    4  A    between atoms: C_23  and  C_30
                            x       y       z     vdW  Elec       q    Type
                         _______ _______ _______ _____ _____    ______ ____

>  <TORSDO>
F 4

$$$$
