=
 OpenBabel11122411563D

 28 32  0  0  1  0  0  0  0  0999 V2000
  181.3080  178.6790  142.1340 C   0  0  0  0  0  0  0  0  0  0  0  0
  180.4460  180.7260  139.3340 O   0  0  0  0  0  0  0  0  0  0  0  0
  180.0300  174.2380  137.7410 O   0  0  0  0  0  0  0  0  0  0  0  0
  184.0530  178.8670  142.6740 C   0  0  0  0  0  3  0  0  0  0  0  0
  181.7540  175.7370  137.1880 N   0  0  0  0  0  0  0  0  0  0  0  0
  179.8370  178.5530  141.8950 C   0  0  0  0  0  2  0  0  0  0  0  0
  182.6470  181.6710  138.7880 O   0  0  0  0  0  0  0  0  0  0  0  0
  181.6510  180.5990  138.4450 S   0  0  0  0  0  0  0  0  0  0  0  0
  180.9640  179.7310  136.0420 C   0  0  0  0  0  0  0  0  0  0  0  0
  182.4310  178.9980  138.6390 C   0  0  2  0  0  3  0  0  0  0  0  0
  178.9990  174.9880  141.7110 O   0  0  0  0  0  0  0  0  0  0  0  0
  182.0970  176.7000  139.3510 C   0  0  2  0  0  3  0  0  0  0  0  0
  181.0780  178.3420  136.5910 C   0  0  0  0  0  2  0  0  0  0  0  0
  181.1700  180.7690  136.7920 N   0  0  0  0  0  0  0  0  0  0  0  0
  179.3120  176.1360  141.3040 C   0  0  0  0  0  0  0  0  0  0  0  0
  182.2430  178.4840  141.0970 C   0  0  0  0  0  0  0  0  0  0  0  0
  180.8210  175.1590  138.0790 C   0  0  0  0  0  0  0  0  0  0  0  0
  180.5540  179.9130  134.6930 N   0  0  0  0  0  1  0  0  0  0  0  0
  179.5760  176.3480  139.8470 C   0  0  0  0  0  2  0  0  0  0  0  0
  183.6150  178.5730  141.3810 C   0  0  0  0  0  3  0  0  0  0  0  0
  181.7570  178.9680  143.4280 C   0  0  0  0  0  3  0  0  0  0  0  0
  183.1250  179.0650  143.6970 C   0  0  0  0  0  3  0  0  0  0  0  0
  179.3870  177.2130  142.2420 N   0  0  0  0  0  2  0  0  0  0  0  0
  182.5730  176.7130  137.8870 C   0  0  2  0  0  3  0  0  0  0  0  0
  180.9060  175.7100  139.4500 C   0  0  2  0  0  3  0  0  0  0  0  0
  182.3930  178.1500  137.3680 C   0  0  2  0  0  3  0  0  0  0  0  0
  182.0460  175.2310  135.8570 C   0  0  0  0  0  1  0  0  0  0  0  0
  181.7750  178.1470  139.7110 C   0  0  1  0  0  3  0  0  0  0  0  0
  1 21  1  0  0  0  0
  3 17  2  0  0  0  0
  4 22  1  0  0  0  0
  5 24  1  0  0  0  0
  5 17  1  0  0  0  0
  6  1  1  0  0  0  0
  6 23  1  0  0  0  0
  8  7  2  0  0  0  0
  8  2  2  0  0  0  0
  9 13  1  0  0  0  0
  9 14  2  0  0  0  0
 10  8  1  6  0  0  0
 10 28  1  0  0  0  0
 12 25  1  0  0  0  0
 12 28  1  0  0  0  0
 13 26  1  0  0  0  0
 14  8  1  0  0  0  0
 15 11  2  0  0  0  0
 15 23  1  0  0  0  0
 16 20  1  0  0  0  0
 16  1  2  0  0  0  0
 17 25  1  0  0  0  0
 18  9  1  0  0  0  0
 19 15  1  0  0  0  0
 20  4  2  0  0  0  0
 21 22  2  0  0  0  0
 24 12  1  0  0  0  0
 25 19  1  0  0  0  0
 26 24  1  0  0  0  0
 26 10  1  0  0  0  0
 27  5  1  0  0  0  0
 28 16  1  0  0  0  0
M  END
>  <MODEL>
1

>  <REMARK>
 VINA RESULT:      -6.8      0.000      0.000
  Name = 
  0 active torsions:
  status: ('A' for Active; 'I' for Inactive)
                            x       y       z     vdW  Elec       q    Type
                         _______ _______ _______ _____ _____    ______ ____

>  <TORSDO>
F 0

$$$$
=
 OpenBabel11122411563D

 28 32  0  0  1  0  0  0  0  0999 V2000
  180.5880  179.4640  141.9230 C   0  0  0  0  0  0  0  0  0  0  0  0
  180.4130  176.2090  140.4570 O   0  0  0  0  0  0  0  0  0  0  0  0
  186.7030  178.4970  140.3950 O   0  0  0  0  0  0  0  0  0  0  0  0
  179.3710  181.3560  140.2500 C   0  0  0  0  0  3  0  0  0  0  0  0
  185.1910  178.4270  138.5970 N   0  0  0  0  0  0  0  0  0  0  0  0
  181.2390  178.4920  142.8560 C   0  0  0  0  0  2  0  0  0  0  0  0
  179.2210  176.7310  138.3730 O   0  0  0  0  0  0  0  0  0  0  0  0
  180.5700  176.4950  138.9900 S   0  0  0  0  0  0  0  0  0  0  0  0
  182.6030  175.1390  137.9760 C   0  0  0  0  0  0  0  0  0  0  0  0
  181.5920  177.9430  138.7210 C   0  0  2  0  0  3  0  0  0  0  0  0
  184.5580  179.7800  143.7330 O   0  0  0  0  0  0  0  0  0  0  0  0
  183.2910  179.3820  139.6920 C   0  0  2  0  0  3  0  0  0  0  0  0
  183.4820  176.2720  138.4120 C   0  0  0  0  0  2  0  0  0  0  0  0
  181.3290  175.1470  138.2160 N   0  0  0  0  0  0  0  0  0  0  0  0
  183.6900  179.1200  143.1060 C   0  0  0  0  0  0  0  0  0  0  0  0
  180.9510  179.5350  140.5630 C   0  0  0  0  0  0  0  0  0  0  0  0
  185.5420  178.6860  139.9420 C   0  0  0  0  0  0  0  0  0  0  0  0
  183.1910  174.0040  137.3530 N   0  0  0  0  0  1  0  0  0  0  0  0
  184.1030  178.3180  141.9130 C   0  0  0  0  0  2  0  0  0  0  0  0
  180.3400  180.4910  139.7360 C   0  0  0  0  0  3  0  0  0  0  0  0
  179.6200  180.3370  142.4300 C   0  0  0  0  0  3  0  0  0  0  0  0
  179.0100  181.2780  141.5960 C   0  0  0  0  0  3  0  0  0  0  0  0
  182.3350  179.1370  143.5640 N   0  0  0  0  0  2  0  0  0  0  0  0
  183.8100  178.8130  138.3590 C   0  0  2  0  0  3  0  0  0  0  0  0
  184.4260  179.2420  140.7390 C   0  0  2  0  0  3  0  0  0  0  0  0
  182.8970  177.6320  137.9880 C   0  0  2  0  0  3  0  0  0  0  0  0
  186.1380  178.1010  137.5450 C   0  0  0  0  0  1  0  0  0  0  0  0
  182.0080  178.6220  140.0130 C   0  0  1  0  0  3  0  0  0  0  0  0
  1 21  1  0  0  0  0
  1  6  1  0  0  0  0
  4 22  1  0  0  0  0
  5 17  1  0  0  0  0
  6 23  1  0  0  0  0
  7  8  2  0  0  0  0
  8  2  2  0  0  0  0
  9 14  2  0  0  0  0
  9 13  1  0  0  0  0
 10  8  1  1  0  0  0
 10 28  1  0  0  0  0
 12 28  1  0  0  0  0
 12 25  1  0  0  0  0
 14  8  1  0  0  0  0
 15 23  1  0  0  0  0
 15 11  2  0  0  0  0
 16  1  2  0  0  0  0
 17  3  2  0  0  0  0
 17 25  1  0  0  0  0
 18  9  1  0  0  0  0
 19 15  1  0  0  0  0
 20  4  2  0  0  0  0
 20 16  1  0  0  0  0
 22 21  2  0  0  0  0
 24  5  1  0  0  0  0
 24 12  1  0  0  0  0
 25 19  1  0  0  0  0
 26 24  1  0  0  0  0
 26 13  1  0  0  0  0
 26 10  1  0  0  0  0
 27  5  1  0  0  0  0
 28 16  1  0  0  0  0
M  END
>  <MODEL>
2

>  <REMARK>
 VINA RESULT:      -6.7      2.772      4.725
  Name = 
  0 active torsions:
  status: ('A' for Active; 'I' for Inactive)
                            x       y       z     vdW  Elec       q    Type
                         _______ _______ _______ _____ _____    ______ ____

>  <TORSDO>
F 0

$$$$
=
 OpenBabel11122411563D

 28 32  0  0  1  0  0  0  0  0999 V2000
  181.7670  177.7570  136.3010 C   0  0  0  0  0  0  0  0  0  0  0  0
  184.4680  178.1610  138.6060 O   0  0  0  0  0  0  0  0  0  0  0  0
  179.1370  175.4970  141.6510 O   0  0  0  0  0  0  0  0  0  0  0  0
  180.7130  180.2540  135.5830 C   0  0  0  0  0  3  0  0  0  0  0  0
  179.8740  177.7250  141.7530 N   0  0  0  0  0  0  0  0  0  0  0  0
  182.3000  176.4020  136.6430 C   0  0  0  0  0  2  0  0  0  0  0  0
  184.5150  180.6100  138.8010 O   0  0  0  0  0  0  0  0  0  0  0  0
  184.0280  179.3360  139.4330 S   0  0  0  0  0  0  0  0  0  0  0  0
  183.9790  178.7150  142.0040 C   0  0  0  0  0  0  0  0  0  0  0  0
  182.2420  179.3990  139.5650 C   0  0  2  0  0  3  0  0  0  0  0  0
  179.4910  174.2840  137.6770 O   0  0  0  0  0  0  0  0  0  0  0  0
  180.1930  178.1040  139.4140 C   0  0  2  0  0  3  0  0  0  0  0  0
  182.5900  178.2030  141.7790 C   0  0  0  0  0  2  0  0  0  0  0  0
  184.6830  179.1980  141.0280 N   0  0  0  0  0  0  0  0  0  0  0  0
  180.4640  175.0720  137.7950 C   0  0  0  0  0  0  0  0  0  0  0  0
  181.4030  178.6800  137.3020 C   0  0  0  0  0  0  0  0  0  0  0  0
  179.5730  176.5250  141.0700 C   0  0  0  0  0  0  0  0  0  0  0  0
  184.5600  178.6030  143.2970 N   0  0  0  0  0  1  0  0  0  0  0  0
  180.8160  175.6010  139.1490 C   0  0  0  0  0  2  0  0  0  0  0  0
  180.8700  179.9250  136.9310 C   0  0  0  0  0  3  0  0  0  0  0  0
  181.6020  178.0940  134.9530 C   0  0  0  0  0  3  0  0  0  0  0  0
  181.0800  179.3400  134.5940 C   0  0  0  0  0  3  0  0  0  0  0  0
  181.2220  175.4240  136.6340 N   0  0  0  0  0  2  0  0  0  0  0  0
  180.2820  178.7500  140.8080 C   0  0  2  0  0  3  0  0  0  0  0  0
  179.7770  176.6220  139.6070 C   0  0  2  0  0  3  0  0  0  0  0  0
  181.7360  179.2170  140.9950 C   0  0  2  0  0  3  0  0  0  0  0  0
  179.5500  177.9850  143.1470 C   0  0  0  0  0  1  0  0  0  0  0  0
  181.5500  178.3200  138.7520 C   0  0  1  0  0  3  0  0  0  0  0  0
  1  6  1  0  0  0  0
  1 16  1  0  0  0  0
  2  8  2  0  0  0  0
  4 20  1  0  0  0  0
  5 27  1  0  0  0  0
  7  8  2  0  0  0  0
  8 14  1  0  0  0  0
  9 18  1  0  0  0  0
 10  8  1  1  0  0  0
 10 26  1  0  0  0  0
 11 15  2  0  0  0  0
 12 25  1  0  0  0  0
 12 24  1  0  0  0  0
 13  9  1  0  0  0  0
 14  9  2  0  0  0  0
 15 19  1  0  0  0  0
 16 28  1  0  0  0  0
 17  3  2  0  0  0  0
 17  5  1  0  0  0  0
 19 25  1  0  0  0  0
 20 16  2  0  0  0  0
 21  1  2  0  0  0  0
 22 21  1  0  0  0  0
 22  4  2  0  0  0  0
 23  6  1  0  0  0  0
 23 15  1  0  0  0  0
 24 26  1  0  0  0  0
 24  5  1  0  0  0  0
 25 17  1  0  0  0  0
 26 13  1  0  0  0  0
 28 12  1  0  0  0  0
 28 10  1  0  0  0  0
M  END
>  <MODEL>
3

>  <REMARK>
 VINA RESULT:      -6.1      2.016      5.400
  Name = 
  0 active torsions:
  status: ('A' for Active; 'I' for Inactive)
                            x       y       z     vdW  Elec       q    Type
                         _______ _______ _______ _____ _____    ______ ____

>  <TORSDO>
F 0

$$$$
=
 OpenBabel11122411563D

 28 32  0  0  1  0  0  0  0  0999 V2000
  184.5770  177.4470  138.0750 C   0  0  0  0  0  0  0  0  0  0  0  0
  182.2090  180.0660  137.5220 O   0  0  0  0  0  0  0  0  0  0  0  0
  183.5360  179.4130  144.0500 O   0  0  0  0  0  0  0  0  0  0  0  0
  183.4090  174.9490  137.5690 C   0  0  0  0  0  3  0  0  0  0  0  0
  181.6390  178.6470  142.8950 N   0  0  0  0  0  0  0  0  0  0  0  0
  185.2510  178.7550  138.3460 C   0  0  0  0  0  2  0  0  0  0  0  0
  180.2500  178.7490  136.8430 O   0  0  0  0  0  0  0  0  0  0  0  0
  180.9190  179.4530  137.9890 S   0  0  0  0  0  0  0  0  0  0  0  0
  179.7890  180.9420  139.8610 C   0  0  0  0  0  0  0  0  0  0  0  0
  181.2050  178.2730  139.3080 C   0  0  2  0  0  3  0  0  0  0  0  0
  186.8390  178.5730  141.6460 O   0  0  0  0  0  0  0  0  0  0  0  0
  182.7420  177.5860  141.0580 C   0  0  2  0  0  3  0  0  0  0  0  0
  180.6350  180.2060  140.8540 C   0  0  0  0  0  2  0  0  0  0  0  0
  179.8740  180.6930  138.5920 N   0  0  0  0  0  0  0  0  0  0  0  0
  185.9510  178.8180  140.7900 C   0  0  0  0  0  0  0  0  0  0  0  0
  183.3490  177.1120  138.6780 C   0  0  0  0  0  0  0  0  0  0  0  0
  183.0300  178.8410  143.0480 C   0  0  0  0  0  0  0  0  0  0  0  0
  178.9310  181.9810  140.3140 N   0  0  0  0  0  1  0  0  0  0  0  0
  184.6300  179.3550  141.2400 C   0  0  0  0  0  2  0  0  0  0  0  0
  182.7760  175.8550  138.4230 C   0  0  0  0  0  3  0  0  0  0  0  0
  185.2060  176.5310  137.2230 C   0  0  0  0  0  3  0  0  0  0  0  0
  184.6220  175.2870  136.9680 C   0  0  0  0  0  3  0  0  0  0  0  0
  186.2370  178.5990  139.4060 N   0  0  0  0  0  2  0  0  0  0  0  0
  181.3700  177.8940  141.6820 C   0  0  2  0  0  3  0  0  0  0  0  0
  183.8240  178.2620  141.9410 C   0  0  2  0  0  3  0  0  0  0  0  0
  180.5660  178.6840  140.6340 C   0  0  2  0  0  3  0  0  0  0  0  0
  180.6510  178.9040  143.9300 C   0  0  0  0  0  1  0  0  0  0  0  0
  182.6790  178.0750  139.6140 C   0  0  1  0  0  3  0  0  0  0  0  0
  1  6  1  0  0  0  0
  1 16  1  0  0  0  0
  2  8  2  0  0  0  0
  4 20  1  0  0  0  0
  5 17  1  0  0  0  0
  5 27  1  0  0  0  0
  6 23  1  0  0  0  0
  7  8  2  0  0  0  0
  8 14  1  0  0  0  0
  9 18  1  0  0  0  0
  9 13  1  0  0  0  0
 10  8  1  6  0  0  0
 10 28  1  0  0  0  0
 10 26  1  0  0  0  0
 12 24  1  0  0  0  0
 12 25  1  0  0  0  0
 14  9  2  0  0  0  0
 15 19  1  0  0  0  0
 15 11  2  0  0  0  0
 16 28  1  0  0  0  0
 17  3  2  0  0  0  0
 19 25  1  0  0  0  0
 20 16  2  0  0  0  0
 21  1  2  0  0  0  0
 22 21  1  0  0  0  0
 22  4  2  0  0  0  0
 23 15  1  0  0  0  0
 24  5  1  0  0  0  0
 25 17  1  0  0  0  0
 26 13  1  0  0  0  0
 26 24  1  0  0  0  0
 28 12  1  0  0  0  0
M  END
>  <MODEL>
4

>  <REMARK>
 VINA RESULT:      -5.5      2.759      5.635
  Name = 
  0 active torsions:
  status: ('A' for Active; 'I' for Inactive)
                            x       y       z     vdW  Elec       q    Type
                         _______ _______ _______ _____ _____    ______ ____

>  <TORSDO>
F 0

$$$$
=
 OpenBabel11122411563D

 28 32  0  0  1  0  0  0  0  0999 V2000
  182.6500  176.6410  137.2580 C   0  0  0  0  0  0  0  0  0  0  0  0
  184.6820  173.7860  137.9580 O   0  0  0  0  0  0  0  0  0  0  0  0
  188.4400  179.3040  137.4710 O   0  0  0  0  0  0  0  0  0  0  0  0
  181.6460  176.5100  134.6440 C   0  0  0  0  0  3  0  0  0  0  0  0
  188.1640  177.6170  135.8580 N   0  0  0  0  0  0  0  0  0  0  0  0
  183.1500  176.7530  138.6640 C   0  0  0  0  0  2  0  0  0  0  0  0
  184.5130  172.5930  135.8170 O   0  0  0  0  0  0  0  0  0  0  0  0
  185.3560  173.5250  136.6400 S   0  0  0  0  0  0  0  0  0  0  0  0
  187.9880  173.5230  136.9090 C   0  0  0  0  0  0  0  0  0  0  0  0
  185.5980  175.0480  135.7260 C   0  0  2  0  0  3  0  0  0  0  0  0
  184.6720  180.0620  139.0880 O   0  0  0  0  0  0  0  0  0  0  0  0
  185.7770  177.4640  135.9060 C   0  0  2  0  0  3  0  0  0  0  0  0
  187.9350  175.0090  136.7220 C   0  0  0  0  0  2  0  0  0  0  0  0
  186.9070  172.8090  136.9150 N   0  0  0  0  0  0  0  0  0  0  0  0
  184.6060  178.8290  138.8470 C   0  0  0  0  0  0  0  0  0  0  0  0
  183.5270  176.4070  136.1810 C   0  0  0  0  0  0  0  0  0  0  0  0
  187.6850  178.5220  136.8330 C   0  0  0  0  0  0  0  0  0  0  0  0
  189.2410  172.8990  137.1560 N   0  0  0  0  0  1  0  0  0  0  0  0
  185.8410  178.1020  138.4190 C   0  0  0  0  0  2  0  0  0  0  0  0
  183.0140  176.3500  134.8750 C   0  0  0  0  0  3  0  0  0  0  0  0
  181.2810  176.8040  137.0170 C   0  0  0  0  0  3  0  0  0  0  0  0
  180.7800  176.7360  135.7150 C   0  0  0  0  0  3  0  0  0  0  0  0
  183.3580  178.1510  139.0110 N   0  0  0  0  0  2  0  0  0  0  0  0
  187.0520  176.9090  135.2460 C   0  0  2  0  0  3  0  0  0  0  0  0
  186.2140  178.4870  136.9880 C   0  0  2  0  0  3  0  0  0  0  0  0
  187.0710  175.3930  135.5070 C   0  0  2  0  0  3  0  0  0  0  0  0
  189.5220  177.6030  135.3420 C   0  0  0  0  0  1  0  0  0  0  0  0
  185.0010  176.2570  136.4240 C   0  0  1  0  0  3  0  0  0  0  0  0
  1  6  1  0  0  0  0
  4 20  2  0  0  0  0
  4 22  1  0  0  0  0
  5 17  1  0  0  0  0
  6 23  1  0  0  0  0
  7  8  2  0  0  0  0
  8 14  1  0  0  0  0
  8  2  2  0  0  0  0
  9 14  2  0  0  0  0
  9 18  1  0  0  0  0
 10 28  1  0  0  0  0
 10  8  1  1  0  0  0
 12 28  1  0  0  0  0
 12 25  1  0  0  0  0
 13  9  1  0  0  0  0
 15 23  1  0  0  0  0
 15 11  2  0  0  0  0
 16 28  1  0  0  0  0
 16  1  2  0  0  0  0
 17 25  1  0  0  0  0
 17  3  2  0  0  0  0
 19 15  1  0  0  0  0
 20 16  1  0  0  0  0
 21  1  1  0  0  0  0
 22 21  2  0  0  0  0
 24 26  1  0  0  0  0
 24  5  1  0  0  0  0
 24 12  1  0  0  0  0
 25 19  1  0  0  0  0
 26 10  1  0  0  0  0
 26 13  1  0  0  0  0
 27  5  1  0  0  0  0
M  END
>  <MODEL>
5

>  <REMARK>
 VINA RESULT:      -5.4      4.681      7.467
  Name = 
  0 active torsions:
  status: ('A' for Active; 'I' for Inactive)
                            x       y       z     vdW  Elec       q    Type
                         _______ _______ _______ _____ _____    ______ ____

>  <TORSDO>
F 0

$$$$
=
 OpenBabel11122411563D

 28 32  0  0  1  0  0  0  0  0999 V2000
  190.0930  174.6860  136.3220 C   0  0  0  0  0  0  0  0  0  0  0  0
  188.6050  176.5730  138.9670 O   0  0  0  0  0  0  0  0  0  0  0  0
  183.9240  174.2970  134.7590 O   0  0  0  0  0  0  0  0  0  0  0  0
  191.5130  176.3760  134.5940 C   0  0  0  0  0  3  0  0  0  0  0  0
  184.7980  176.4750  134.8800 N   0  0  0  0  0  0  0  0  0  0  0  0
  189.3590  173.7400  137.2200 C   0  0  0  0  0  2  0  0  0  0  0  0
  189.3610  178.8340  138.3710 O   0  0  0  0  0  0  0  0  0  0  0  0
  188.2220  177.8570  138.2860 S   0  0  0  0  0  0  0  0  0  0  0  0
  185.6390  178.3470  138.5790 C   0  0  0  0  0  0  0  0  0  0  0  0
  187.8240  177.5790  136.5610 C   0  0  2  0  0  3  0  0  0  0  0  0
  187.1420  171.6750  135.1550 O   0  0  0  0  0  0  0  0  0  0  0  0
  187.1250  175.9230  134.9270 C   0  0  2  0  0  3  0  0  0  0  0  0
  185.4150  177.4990  137.3650 C   0  0  0  0  0  2  0  0  0  0  0  0
  186.8290  178.5290  139.0610 N   0  0  0  0  0  0  0  0  0  0  0  0
  187.4970  172.6330  135.8880 C   0  0  0  0  0  0  0  0  0  0  0  0
  189.4690  175.8340  135.7940 C   0  0  0  0  0  0  0  0  0  0  0  0
  184.9160  175.0660  134.8650 C   0  0  0  0  0  0  0  0  0  0  0  0
  184.5180  178.9020  139.2550 N   0  0  0  0  0  1  0  0  0  0  0  0
  186.5250  173.7320  136.1770 C   0  0  0  0  0  2  0  0  0  0  0  0
  190.1880  176.6700  134.9240 C   0  0  0  0  0  3  0  0  0  0  0  0
  191.4200  174.3970  135.9820 C   0  0  0  0  0  3  0  0  0  0  0  0
  192.1290  175.2410  135.1240 C   0  0  0  0  0  3  0  0  0  0  0  0
  188.8150  172.6350  136.4430 N   0  0  0  0  0  2  0  0  0  0  0  0
  186.1160  177.0850  134.9340 C   0  0  2  0  0  3  0  0  0  0  0  0
  186.3180  174.5990  134.9360 C   0  0  2  0  0  3  0  0  0  0  0  0
  186.3670  177.8920  136.2200 C   0  0  2  0  0  3  0  0  0  0  0  0
  183.5740  177.2040  134.5940 C   0  0  0  0  0  1  0  0  0  0  0  0
  188.0390  176.1390  136.1300 C   0  0  1  0  0  3  0  0  0  0  0  0
  1  6  1  0  0  0  0
  3 17  2  0  0  0  0
  4 20  2  0  0  0  0
  4 22  1  0  0  0  0
  5 24  1  0  0  0  0
  8  7  2  0  0  0  0
  8  2  2  0  0  0  0
  8 14  1  0  0  0  0
  9 14  2  0  0  0  0
  9 18  1  0  0  0  0
 10  8  1  1  0  0  0
 11 15  2  0  0  0  0
 12 24  1  0  0  0  0
 12 25  1  0  0  0  0
 12 28  1  0  0  0  0
 13  9  1  0  0  0  0
 15 19  1  0  0  0  0
 15 23  1  0  0  0  0
 16 28  1  0  0  0  0
 16  1  2  0  0  0  0
 17  5  1  0  0  0  0
 17 25  1  0  0  0  0
 20 16  1  0  0  0  0
 21  1  1  0  0  0  0
 22 21  2  0  0  0  0
 23  6  1  0  0  0  0
 24 26  1  0  0  0  0
 25 19  1  0  0  0  0
 26 10  1  0  0  0  0
 26 13  1  0  0  0  0
 27  5  1  0  0  0  0
 28 10  1  0  0  0  0
M  END
>  <MODEL>
6

>  <REMARK>
 VINA RESULT:      -5.0      6.401      8.375
  Name = 
  0 active torsions:
  status: ('A' for Active; 'I' for Inactive)
                            x       y       z     vdW  Elec       q    Type
                         _______ _______ _______ _____ _____    ______ ____

>  <TORSDO>
F 0

$$$$
=
 OpenBabel11122411563D

 28 32  0  0  1  0  0  0  0  0999 V2000
  182.7410  180.1260  138.8450 C   0  0  0  0  0  0  0  0  0  0  0  0
  181.3000  178.0420  141.3650 O   0  0  0  0  0  0  0  0  0  0  0  0
  183.4300  174.3700  136.1900 O   0  0  0  0  0  0  0  0  0  0  0  0
  180.7520  181.6410  137.5750 C   0  0  0  0  0  3  0  0  0  0  0  0
  181.2190  174.9950  136.6840 N   0  0  0  0  0  0  0  0  0  0  0  0
  183.8400  179.3500  139.4980 C   0  0  0  0  0  2  0  0  0  0  0  0
  178.9330  178.6610  141.1450 O   0  0  0  0  0  0  0  0  0  0  0  0
  179.9800  177.6530  140.7620 S   0  0  0  0  0  0  0  0  0  0  0  0
  179.7330  175.0220  140.6440 C   0  0  0  0  0  0  0  0  0  0  0  0
  180.0840  177.5760  138.9740 C   0  0  2  0  0  3  0  0  0  0  0  0
  185.8180  177.7200  136.8750 O   0  0  0  0  0  0  0  0  0  0  0  0
  181.5870  177.3240  137.0830 C   0  0  2  0  0  3  0  0  0  0  0  0
  180.4480  175.0870  139.3290 C   0  0  0  0  0  2  0  0  0  0  0  0
  179.5160  176.0920  141.3440 N   0  0  0  0  0  0  0  0  0  0  0  0
  184.9270  177.8530  137.7540 C   0  0  0  0  0  0  0  0  0  0  0  0
  181.5920  179.4900  138.3350 C   0  0  0  0  0  0  0  0  0  0  0  0
  182.6020  175.2510  136.5460 C   0  0  0  0  0  0  0  0  0  0  0  0
  179.3510  173.7550  141.1650 N   0  0  0  0  0  1  0  0  0  0  0  0
  183.9500  176.7420  137.9780 C   0  0  0  0  0  2  0  0  0  0  0  0
  180.6050  180.2570  137.6940 C   0  0  0  0  0  3  0  0  0  0  0  0
  182.8820  181.5130  138.7160 C   0  0  0  0  0  3  0  0  0  0  0  0
  181.8890  182.2690  138.0860 C   0  0  0  0  0  3  0  0  0  0  0  0
  184.8860  179.0540  138.5300 N   0  0  0  0  0  2  0  0  0  0  0  0
  180.5170  176.2190  137.0310 C   0  0  2  0  0  3  0  0  0  0  0  0
  182.9630  176.6610  136.8140 C   0  0  2  0  0  3  0  0  0  0  0  0
  179.8500  176.1730  138.4160 C   0  0  2  0  0  3  0  0  0  0  0  0
  180.5610  173.7700  136.2620 C   0  0  0  0  0  1  0  0  0  0  0  0
  181.4420  178.0000  138.4430 C   0  0  1  0  0  3  0  0  0  0  0  0
  1  6  1  0  0  0  0
  3 17  2  0  0  0  0
  4 20  2  0  0  0  0
  4 22  1  0  0  0  0
  5 24  1  0  0  0  0
  8  7  2  0  0  0  0
  8 14  1  0  0  0  0
  8  2  2  0  0  0  0
  9 18  1  0  0  0  0
  9 14  2  0  0  0  0
 10  8  1  1  0  0  0
 11 15  2  0  0  0  0
 12 28  1  0  0  0  0
 13  9  1  0  0  0  0
 15 19  1  0  0  0  0
 15 23  1  0  0  0  0
 16 28  1  0  0  0  0
 16  1  2  0  0  0  0
 17  5  1  0  0  0  0
 17 25  1  0  0  0  0
 20 16  1  0  0  0  0
 21  1  1  0  0  0  0
 22 21  2  0  0  0  0
 23  6  1  0  0  0  0
 24 12  1  0  0  0  0
 24 26  1  0  0  0  0
 25 12  1  0  0  0  0
 25 19  1  0  0  0  0
 26 10  1  0  0  0  0
 26 13  1  0  0  0  0
 27  5  1  0  0  0  0
 28 10  1  0  0  0  0
M  END
>  <MODEL>
7

>  <REMARK>
 VINA RESULT:      -5.0      2.858      5.002
  Name = 
  0 active torsions:
  status: ('A' for Active; 'I' for Inactive)
                            x       y       z     vdW  Elec       q    Type
                         _______ _______ _______ _____ _____    ______ ____

>  <TORSDO>
F 0

$$$$
=
 OpenBabel11122411563D

 28 32  0  0  1  0  0  0  0  0999 V2000
  181.0280  178.9260  139.9680 C   0  0  0  0  0  0  0  0  0  0  0  0
  180.5900  175.3960  139.6200 O   0  0  0  0  0  0  0  0  0  0  0  0
  186.6340  177.2600  137.4290 O   0  0  0  0  0  0  0  0  0  0  0  0
  179.4080  180.2970  138.1360 C   0  0  0  0  0  3  0  0  0  0  0  0
  184.7450  176.7350  136.1350 N   0  0  0  0  0  0  0  0  0  0  0  0
  181.9020  178.2420  140.9720 C   0  0  0  0  0  2  0  0  0  0  0  0
  178.9310  175.3360  137.8100 O   0  0  0  0  0  0  0  0  0  0  0  0
  180.3920  175.2290  138.1400 S   0  0  0  0  0  0  0  0  0  0  0  0
  182.1630  173.5380  137.1360 C   0  0  0  0  0  0  0  0  0  0  0  0
  181.2880  176.4820  137.2240 C   0  0  2  0  0  3  0  0  0  0  0  0
  185.3030  179.5710  140.6350 O   0  0  0  0  0  0  0  0  0  0  0  0
  183.1320  178.0610  137.3020 C   0  0  2  0  0  3  0  0  0  0  0  0
  183.0910  174.7050  136.9990 C   0  0  0  0  0  2  0  0  0  0  0  0
  180.9810  173.6770  137.6500 N   0  0  0  0  0  0  0  0  0  0  0  0
  184.3280  178.7980  140.4500 C   0  0  0  0  0  0  0  0  0  0  0  0
  181.0590  178.5760  138.6040 C   0  0  0  0  0  0  0  0  0  0  0  0
  185.3960  177.3620  137.2220 C   0  0  0  0  0  0  0  0  0  0  0  0
  182.6150  172.2430  136.7610 N   0  0  0  0  0  1  0  0  0  0  0  0
  184.4680  177.6620  139.4890 C   0  0  0  0  0  2  0  0  0  0  0  0
  180.2490  179.2740  137.6940 C   0  0  0  0  0  3  0  0  0  0  0  0
  180.1850  179.9560  140.4020 C   0  0  0  0  0  3  0  0  0  0  0  0
  179.3740  180.6370  139.4890 C   0  0  0  0  0  3  0  0  0  0  0  0
  183.1180  179.0140  141.1830 N   0  0  0  0  0  2  0  0  0  0  0  0
  183.3380  177.1000  136.1180 C   0  0  2  0  0  3  0  0  0  0  0  0
  184.4850  178.1810  138.0520 C   0  0  2  0  0  3  0  0  0  0  0  0
  182.3920  175.9070  136.3360 C   0  0  2  0  0  3  0  0  0  0  0  0
  185.4270  176.0680  135.0380 C   0  0  0  0  0  1  0  0  0  0  0  0
  181.9790  177.4910  138.1230 C   0  0  1  0  0  3  0  0  0  0  0  0
  1 21  1  0  0  0  0
  1  6  1  0  0  0  0
  4 22  1  0  0  0  0
  5 17  1  0  0  0  0
  6 23  1  0  0  0  0
  7  8  2  0  0  0  0
  8  2  2  0  0  0  0
  9 14  2  0  0  0  0
 10 28  1  0  0  0  0
 10  8  1  1  0  0  0
 12 25  1  0  0  0  0
 12 28  1  0  0  0  0
 13  9  1  0  0  0  0
 14  8  1  0  0  0  0
 15 11  2  0  0  0  0
 15 23  1  0  0  0  0
 16  1  2  0  0  0  0
 17  3  2  0  0  0  0
 17 25  1  0  0  0  0
 18  9  1  0  0  0  0
 19 15  1  0  0  0  0
 20  4  2  0  0  0  0
 20 16  1  0  0  0  0
 22 21  2  0  0  0  0
 24  5  1  0  0  0  0
 24 26  1  0  0  0  0
 24 12  1  0  0  0  0
 25 19  1  0  0  0  0
 26 13  1  0  0  0  0
 26 10  1  0  0  0  0
 27  5  1  0  0  0  0
 28 16  1  0  0  0  0
M  END
>  <MODEL>
8

>  <REMARK>
 VINA RESULT:      -4.8      2.879      5.063
  Name = 
  0 active torsions:
  status: ('A' for Active; 'I' for Inactive)
                            x       y       z     vdW  Elec       q    Type
                         _______ _______ _______ _____ _____    ______ ____

>  <TORSDO>
F 0

$$$$
=
 OpenBabel11122411563D

 28 32  0  0  1  0  0  0  0  0999 V2000
  183.8570  176.2200  136.3390 C   0  0  0  0  0  0  0  0  0  0  0  0
  181.4630  178.8560  136.0320 O   0  0  0  0  0  0  0  0  0  0  0  0
  184.9280  179.4570  141.7270 O   0  0  0  0  0  0  0  0  0  0  0  0
  182.5660  173.7780  136.8170 C   0  0  0  0  0  3  0  0  0  0  0  0
  182.7440  178.6300  141.4640 N   0  0  0  0  0  0  0  0  0  0  0  0
  184.5930  177.4960  136.0740 C   0  0  0  0  0  2  0  0  0  0  0  0
  179.3790  177.5940  136.3490 O   0  0  0  0  0  0  0  0  0  0  0  0
  180.4030  178.4610  137.0230 S   0  0  0  0  0  0  0  0  0  0  0  0
  179.9900  180.3940  138.7810 C   0  0  0  0  0  0  0  0  0  0  0  0
  181.1120  177.5600  138.4000 C   0  0  2  0  0  3  0  0  0  0  0  0
  187.2070  177.8680  138.6180 O   0  0  0  0  0  0  0  0  0  0  0  0
  183.1480  177.1240  139.6510 C   0  0  2  0  0  3  0  0  0  0  0  0
  181.1180  179.8120  139.5770 C   0  0  0  0  0  2  0  0  0  0  0  0
  179.6360  179.8820  137.6440 N   0  0  0  0  0  0  0  0  0  0  0  0
  186.0830  178.0040  138.0710 C   0  0  0  0  0  0  0  0  0  0  0  0
  182.9040  176.1200  137.3730 C   0  0  0  0  0  0  0  0  0  0  0  0
  184.1060  178.7350  141.1020 C   0  0  0  0  0  0  0  0  0  0  0  0
  179.3450  181.5720  139.2490 N   0  0  0  0  0  1  0  0  0  0  0  0
  184.9990  178.7300  138.8010 C   0  0  0  0  0  2  0  0  0  0  0  0
  182.2690  174.8900  137.6080 C   0  0  0  0  0  3  0  0  0  0  0  0
  184.1510  175.0990  135.5540 C   0  0  0  0  0  3  0  0  0  0  0  0
  183.5050  173.8820  135.7900 C   0  0  0  0  0  3  0  0  0  0  0  0
  185.8790  177.4800  136.7560 N   0  0  0  0  0  2  0  0  0  0  0  0
  182.0720  177.6680  140.6080 C   0  0  2  0  0  3  0  0  0  0  0  0
  184.4700  177.8760  139.9530 C   0  0  2  0  0  3  0  0  0  0  0  0
  180.9660  178.2870  139.7360 C   0  0  2  0  0  3  0  0  0  0  0  0
  182.1700  179.1760  142.6830 C   0  0  0  0  0  1  0  0  0  0  0  0
  182.6000  177.3080  138.2380 C   0  0  1  0  0  3  0  0  0  0  0  0
  1 16  1  0  0  0  0
  2  8  2  0  0  0  0
  4 20  1  0  0  0  0
  5 27  1  0  0  0  0
  6  1  1  0  0  0  0
  6 23  1  0  0  0  0
  7  8  2  0  0  0  0
  8 14  1  0  0  0  0
  9 18  1  0  0  0  0
  9 13  1  0  0  0  0
 10  8  1  6  0  0  0
 10 26  1  0  0  0  0
 12 25  1  0  0  0  0
 12 24  1  0  0  0  0
 13 26  1  0  0  0  0
 14  9  2  0  0  0  0
 15 11  2  0  0  0  0
 15 19  1  0  0  0  0
 16 20  2  0  0  0  0
 16 28  1  0  0  0  0
 17  5  1  0  0  0  0
 17  3  2  0  0  0  0
 19 25  1  0  0  0  0
 21 22  1  0  0  0  0
 21  1  2  0  0  0  0
 22  4  2  0  0  0  0
 23 15  1  0  0  0  0
 24  5  1  0  0  0  0
 25 17  1  0  0  0  0
 26 24  1  0  0  0  0
 28 10  1  0  0  0  0
 28 12  1  0  0  0  0
M  END
>  <MODEL>
9

>  <REMARK>
 VINA RESULT:      -4.7      2.723      5.914
  Name = 
  0 active torsions:
  status: ('A' for Active; 'I' for Inactive)
                            x       y       z     vdW  Elec       q    Type
                         _______ _______ _______ _____ _____    ______ ____

>  <TORSDO>
F 0

$$$$
