=
 OpenBabel11122410533D

 32 38  0  0  1  0  0  0  0  0999 V2000
  192.0560  176.7440  145.8050 O   0  0  0  0  0  0  0  0  0  0  0  0
  189.6500  177.2720  141.2510 C   0  0  2  0  0  3  0  0  0  0  0  0
  185.0490  178.5650  142.0740 C   0  0  0  0  0  3  0  0  0  0  0  0
  184.7800  178.5500  140.7030 C   0  0  0  0  0  3  0  0  0  0  0  0
  190.1000  176.4750  138.8980 C   0  0  0  0  0  0  0  0  0  0  0  0
  189.9370  176.6090  137.4070 C   0  0  1  0  0  3  0  0  0  0  0  0
  191.3410  177.4900  143.0980 C   0  0  1  0  0  3  0  0  0  0  0  0
  188.9980  178.0660  143.4290 O   0  0  0  0  0  0  0  0  0  0  0  0
  188.5320  177.3050  135.6860 C   0  0  2  0  0  3  0  0  0  0  0  0
  190.5230  178.5280  145.2460 C   0  0  0  0  0  2  0  0  0  0  0  0
  186.3670  178.4670  142.5290 C   0  0  0  0  0  3  0  0  0  0  0  0
  188.8500  178.3120  142.0520 C   0  0  2  0  0  3  0  0  0  0  0  0
  187.4180  178.3330  141.6120 C   0  0  0  0  0  0  0  0  0  0  0  0
  188.3240  178.2310  139.2730 C   0  0  2  0  0  3  0  0  0  0  0  0
  188.8570  175.8360  135.4550 C   0  0  0  0  0  2  0  0  0  0  0  0
  191.0960  175.9320  145.1690 C   0  0  2  0  0  3  0  0  0  0  0  0
  190.3200  178.4440  143.7400 C   0  0  1  0  0  3  0  0  0  0  0  0
  189.4390  175.3440  136.7540 C   0  0  0  0  0  2  0  0  0  0  0  0
  191.1800  176.0670  143.6410 C   0  0  0  0  0  2  0  0  0  0  0  0
  190.7120  177.1640  145.9160 C   0  0  1  0  0  0  0  0  0  0  0  0
  185.8270  178.4330  139.7860 C   0  0  0  0  0  3  0  0  0  0  0  0
  187.1530  178.3100  140.2330 C   0  0  0  0  0  0  0  0  0  0  0  0
  187.8900  177.7910  137.8740 C   0  0  0  0  0  2  0  0  0  0  0  0
  191.1320  177.4880  141.5790 C   0  0  0  0  0  2  0  0  0  0  0  0
  190.8850  175.5960  139.3470 O   0  0  0  0  0  0  0  0  0  0  0  0
  189.1670  178.1480  134.5970 C   0  0  0  0  0  1  0  0  0  0  0  0
  189.3780  177.3400  139.8000 N   0  0  0  0  0  0  0  0  0  0  0  0
  189.0530  177.7070  136.9920 N   0  0  1  0  0  0  0  0  0  0  0  0
  190.1810  176.9570  147.3300 C   0  0  0  0  0  2  0  0  0  0  0  0
  188.7910  177.4900  147.4930 C   0  0  0  0  0  0  0  0  0  0  0  0
  188.4610  178.3420  148.6690 C   0  0  0  0  0  1  0  0  0  0  0  0
  187.9230  177.2080  146.6840 O   0  0  0  0  0  0  0  0  0  0  0  0
  1 20  1  0  0  0  0
  2 24  1  6  0  0  0
  2 12  1  0  0  0  0
  3 11  1  0  0  0  0
  4  3  2  0  0  0  0
  5 25  2  0  0  0  0
  5 27  1  0  0  0  0
  6 18  1  1  0  0  0
  6  5  1  0  0  0  0
  7 24  1  6  0  0  0
  7 19  1  0  0  0  0
  7 17  1  0  0  0  0
  8 17  1  0  0  0  0
  9 26  1  6  0  0  0
  9 28  1  0  0  0  0
 10 20  1  0  0  0  0
 12 13  1  6  0  0  0
 12  8  1  0  0  0  0
 13 11  2  0  0  0  0
 14 23  1  6  0  0  0
 14 27  1  0  0  0  0
 14 22  1  0  0  0  0
 15  9  1  0  0  0  0
 15 18  1  0  0  0  0
 16 19  1  6  0  0  0
 16  1  1  0  0  0  0
 16 20  1  0  0  0  0
 17 10  1  1  0  0  0
 20 29  1  1  0  0  0
 21 22  2  0  0  0  0
 21  4  1  0  0  0  0
 22 13  1  0  0  0  0
 27  2  1  0  0  0  0
 28  6  1  0  0  0  0
 28 23  1  1  0  0  0
 29 30  1  0  0  0  0
 30 31  1  0  0  0  0
 32 30  2  0  0  0  0
M  END
>  <MODEL>
1

>  <REMARK>
 VINA RESULT:      -9.1      0.000      0.000
  Name = 
  2 active torsions:
  status: ('A' for Active; 'I' for Inactive)
    1  A    between atoms: C_20  and  C_29
    2  A    between atoms: C_29  and  C_30
                            x       y       z     vdW  Elec       q    Type
                         _______ _______ _______ _____ _____    ______ ____

>  <TORSDO>
F 2

$$$$
=
 OpenBabel11122410533D

 32 38  0  0  1  0  0  0  0  0999 V2000
  192.0840  176.6210  143.2720 O   0  0  0  0  0  0  0  0  0  0  0  0
  187.2670  178.0980  142.0770 C   0  0  2  0  0  3  0  0  0  0  0  0
  184.6190  178.1680  146.1390 C   0  0  0  0  0  3  0  0  0  0  0  0
  183.4830  178.5370  145.4140 C   0  0  0  0  0  3  0  0  0  0  0  0
  185.9100  178.1870  139.9500 C   0  0  0  0  0  0  0  0  0  0  0  0
  184.7810  178.7520  139.1290 C   0  0  1  0  0  3  0  0  0  0  0  0
  189.7750  178.0360  142.2410 C   0  0  1  0  0  3  0  0  0  0  0  0
  188.3590  178.0230  144.2220 O   0  0  0  0  0  0  0  0  0  0  0  0
  182.6460  179.6780  139.1850 C   0  0  2  0  0  3  0  0  0  0  0  0
  190.7470  178.1660  144.5640 C   0  0  0  0  0  2  0  0  0  0  0  0
  185.8750  178.1830  145.5250 C   0  0  0  0  0  3  0  0  0  0  0  0
  187.3290  178.6600  143.5070 C   0  0  2  0  0  3  0  0  0  0  0  0
  185.9940  178.5470  144.1780 C   0  0  0  0  0  0  0  0  0  0  0  0
  185.0360  179.3650  142.0060 C   0  0  2  0  0  3  0  0  0  0  0  0
  182.5950  178.4480  138.2910 C   0  0  0  0  0  2  0  0  0  0  0  0
  190.8840  175.8860  143.2030 C   0  0  2  0  0  3  0  0  0  0  0  0
  189.5600  178.5260  143.6820 C   0  0  1  0  0  3  0  0  0  0  0  0
  183.8640  177.6890  138.5790 C   0  0  0  0  0  2  0  0  0  0  0  0
  189.9080  176.5110  142.1930 C   0  0  0  0  0  2  0  0  0  0  0  0
  191.2250  176.7220  144.3890 C   0  0  1  0  0  0  0  0  0  0  0  0
  183.6010  178.9170  144.0750 C   0  0  0  0  0  3  0  0  0  0  0  0
  184.8550  178.9120  143.4420 C   0  0  0  0  0  0  0  0  0  0  0  0
  183.7250  179.3160  141.2200 C   0  0  0  0  0  2  0  0  0  0  0  0
  188.5820  178.4750  141.3830 C   0  0  0  0  0  2  0  0  0  0  0  0
  186.7090  177.3770  139.4070 O   0  0  0  0  0  0  0  0  0  0  0  0
  182.4300  180.9260  138.3520 C   0  0  0  0  0  1  0  0  0  0  0  0
  186.0820  178.5690  141.3310 N   0  0  0  0  0  0  0  0  0  0  0  0
  183.9520  179.7370  139.8390 N   0  0  1  0  0  0  0  0  0  0  0  0
  191.7930  175.9810  145.5940 C   0  0  0  0  0  2  0  0  0  0  0  0
  191.2800  176.5330  146.8870 C   0  0  0  0  0  0  0  0  0  0  0  0
  189.8120  176.5880  147.1350 C   0  0  0  0  0  1  0  0  0  0  0  0
  192.0530  176.9640  147.7260 O   0  0  0  0  0  0  0  0  0  0  0  0
  1 20  1  0  0  0  0
  2 24  1  6  0  0  0
  2 12  1  0  0  0  0
  4  3  2  0  0  0  0
  5 27  1  0  0  0  0
  6 18  1  1  0  0  0
  6 28  1  0  0  0  0
  6  5  1  0  0  0  0
  7 24  1  6  0  0  0
  7 17  1  0  0  0  0
  9 26  1  6  0  0  0
  9 28  1  0  0  0  0
 11  3  1  0  0  0  0
 12 13  1  1  0  0  0
 12  8  1  0  0  0  0
 13 11  2  0  0  0  0
 14 23  1  6  0  0  0
 14 22  1  0  0  0  0
 15 18  1  0  0  0  0
 15  9  1  0  0  0  0
 16 19  1  6  0  0  0
 16  1  1  0  0  0  0
 16 20  1  0  0  0  0
 17  8  1  0  0  0  0
 17 10  1  1  0  0  0
 19  7  1  0  0  0  0
 20 10  1  0  0  0  0
 20 29  1  1  0  0  0
 21  4  1  0  0  0  0
 22 21  2  0  0  0  0
 22 13  1  0  0  0  0
 25  5  2  0  0  0  0
 27 14  1  0  0  0  0
 27  2  1  0  0  0  0
 28 23  1  1  0  0  0
 29 30  1  0  0  0  0
 30 31  1  0  0  0  0
 30 32  2  0  0  0  0
M  END
>  <MODEL>
2

>  <REMARK>
 VINA RESULT:      -8.2      2.927      4.232
  Name = 
  2 active torsions:
  status: ('A' for Active; 'I' for Inactive)
    1  A    between atoms: C_20  and  C_29
    2  A    between atoms: C_29  and  C_30
                            x       y       z     vdW  Elec       q    Type
                         _______ _______ _______ _____ _____    ______ ____

>  <TORSDO>
F 2

$$$$
=
 OpenBabel11122410533D

 32 38  0  0  1  0  0  0  0  0999 V2000
  193.0860  174.5520  136.0240 O   0  0  0  0  0  0  0  0  0  0  0  0
  189.0190  176.7410  138.3650 C   0  0  2  0  0  3  0  0  0  0  0  0
  189.8020  176.7300  143.1510 C   0  0  0  0  0  3  0  0  0  0  0  0
  188.5510  177.3120  143.3760 C   0  0  0  0  0  3  0  0  0  0  0  0
  186.6300  177.2180  137.7040 C   0  0  0  0  0  0  0  0  0  0  0  0
  185.3530  178.0030  137.8500 C   0  0  1  0  0  3  0  0  0  0  0  0
  190.9470  176.3460  136.8010 C   0  0  1  0  0  3  0  0  0  0  0  0
  191.2290  176.3100  139.2190 O   0  0  0  0  0  0  0  0  0  0  0  0
  183.9840  179.1810  139.3200 C   0  0  2  0  0  3  0  0  0  0  0  0
  193.2210  176.1140  137.8640 C   0  0  0  0  0  2  0  0  0  0  0  0
  190.3110  176.6480  141.8530 C   0  0  0  0  0  3  0  0  0  0  0  0
  190.1060  177.1420  139.3770 C   0  0  2  0  0  3  0  0  0  0  0  0
  189.5610  177.1310  140.7720 C   0  0  0  0  0  0  0  0  0  0  0  0
  187.5510  178.2810  139.8020 C   0  0  2  0  0  3  0  0  0  0  0  0
  183.1530  178.0650  138.7040 C   0  0  0  0  0  2  0  0  0  0  0  0
  192.0450  173.9860  136.7870 C   0  0  2  0  0  3  0  0  0  0  0  0
  191.8280  176.7100  138.0070 C   0  0  1  0  0  3  0  0  0  0  0  0
  184.1460  177.1260  138.0710 C   0  0  0  0  0  2  0  0  0  0  0  0
  190.7640  174.8300  136.6900 C   0  0  0  0  0  2  0  0  0  0  0  0
  193.2190  174.6460  137.4260 C   0  0  1  0  0  0  0  0  0  0  0  0
  187.8080  177.8090  142.3020 C   0  0  0  0  0  3  0  0  0  0  0  0
  188.3010  177.7110  140.9900 C   0  0  0  0  0  0  0  0  0  0  0  0
  186.0650  178.4790  140.1030 C   0  0  0  0  0  2  0  0  0  0  0  0
  189.5780  177.0180  136.9640 C   0  0  0  0  0  2  0  0  0  0  0  0
  186.7200  176.3730  136.7730 O   0  0  0  0  0  0  0  0  0  0  0  0
  183.4750  180.5250  138.8370 C   0  0  0  0  0  1  0  0  0  0  0  0
  187.7360  177.4320  138.6070 N   0  0  0  0  0  0  0  0  0  0  0  0
  185.3810  179.0070  138.9240 N   0  0  1  0  0  0  0  0  0  0  0  0
  194.3140  173.7210  137.9430 C   0  0  0  0  0  2  0  0  0  0  0  0
  195.6190  174.4330  138.1140 C   0  0  0  0  0  0  0  0  0  0  0  0
  196.2730  174.4670  139.4520 C   0  0  0  0  0  1  0  0  0  0  0  0
  196.1370  175.0090  137.1710 O   0  0  0  0  0  0  0  0  0  0  0  0
  1 16  1  0  0  0  0
  1 20  1  0  0  0  0
  2 24  1  6  0  0  0
  2 27  1  0  0  0  0
  2 12  1  0  0  0  0
  3  4  1  0  0  0  0
  5  6  1  0  0  0  0
  5 27  1  0  0  0  0
  6 18  1  1  0  0  0
  6 28  1  0  0  0  0
  7 19  1  1  0  0  0
  7 24  1  0  0  0  0
  7 17  1  0  0  0  0
  9 26  1  6  0  0  0
 11  3  2  0  0  0  0
 12  8  1  1  0  0  0
 12 13  1  0  0  0  0
 13 22  2  0  0  0  0
 13 11  1  0  0  0  0
 14 23  1  1  0  0  0
 14 22  1  0  0  0  0
 15  9  1  0  0  0  0
 16 19  1  6  0  0  0
 16 20  1  0  0  0  0
 17 10  1  6  0  0  0
 17  8  1  0  0  0  0
 18 15  1  0  0  0  0
 20 10  1  0  0  0  0
 20 29  1  1  0  0  0
 21  4  2  0  0  0  0
 22 21  1  0  0  0  0
 25  5  2  0  0  0  0
 27 14  1  0  0  0  0
 28  9  1  0  0  0  0
 28 23  1  1  0  0  0
 29 30  1  0  0  0  0
 30 31  1  0  0  0  0
 32 30  2  0  0  0  0
M  END
>  <MODEL>
3

>  <REMARK>
 VINA RESULT:      -7.9      2.990      6.773
  Name = 
  2 active torsions:
  status: ('A' for Active; 'I' for Inactive)
    1  A    between atoms: C_20  and  C_29
    2  A    between atoms: C_29  and  C_30
                            x       y       z     vdW  Elec       q    Type
                         _______ _______ _______ _____ _____    ______ ____

>  <TORSDO>
F 2

$$$$
=
 OpenBabel11122410533D

 32 38  0  0  1  0  0  0  0  0999 V2000
  188.6240  177.1120  135.9160 O   0  0  0  0  0  0  0  0  0  0  0  0
  185.2800  178.0310  139.7610 C   0  0  2  0  0  3  0  0  0  0  0  0
  187.6140  177.5560  143.9850 C   0  0  0  0  0  3  0  0  0  0  0  0
  186.4340  177.8160  144.6870 C   0  0  0  0  0  3  0  0  0  0  0  0
  182.7640  178.0590  139.9610 C   0  0  0  0  0  0  0  0  0  0  0  0
  181.5000  178.5200  140.6390 C   0  0  1  0  0  3  0  0  0  0  0  0
  186.6080  178.2770  137.6400 C   0  0  1  0  0  3  0  0  0  0  0  0
  187.6870  177.9830  139.8030 O   0  0  0  0  0  0  0  0  0  0  0  0
  180.5310  179.1650  142.6540 C   0  0  2  0  0  3  0  0  0  0  0  0
  189.1120  178.4070  137.8980 C   0  0  0  0  0  2  0  0  0  0  0  0
  187.6640  177.7600  142.6040 C   0  0  0  0  0  3  0  0  0  0  0  0
  186.5620  178.5210  140.4540 C   0  0  2  0  0  3  0  0  0  0  0  0
  186.5270  178.2070  141.9180 C   0  0  0  0  0  0  0  0  0  0  0  0
  184.1480  179.0090  141.8470 C   0  0  2  0  0  3  0  0  0  0  0  0
  179.7350  177.9860  142.1130 C   0  0  0  0  0  2  0  0  0  0  0  0
  188.0070  176.2360  136.8310 C   0  0  2  0  0  3  0  0  0  0  0  0
  187.7710  178.6610  138.5700 C   0  0  1  0  0  3  0  0  0  0  0  0
  180.5970  177.3790  141.0380 C   0  0  0  0  0  2  0  0  0  0  0  0
  186.6490  176.7860  137.2950 C   0  0  0  0  0  2  0  0  0  0  0  0
  189.2030  177.0460  137.2020 C   0  0  1  0  0  0  0  0  0  0  0  0
  185.3040  178.2770  144.0090 C   0  0  0  0  0  3  0  0  0  0  0  0
  185.3360  178.4630  142.6170 C   0  0  0  0  0  0  0  0  0  0  0  0
  182.8380  178.8360  142.6170 C   0  0  0  0  0  2  0  0  0  0  0  0
  185.2830  178.6060  138.3390 C   0  0  0  0  0  2  0  0  0  0  0  0
  182.6730  177.3850  138.9000 O   0  0  0  0  0  0  0  0  0  0  0  0
  179.6770  180.4180  142.6220 C   0  0  0  0  0  1  0  0  0  0  0  0
  184.0570  178.3870  140.5100 N   0  0  0  0  0  0  0  0  0  0  0  0
  181.7220  179.3540  141.8280 N   0  0  1  0  0  0  0  0  0  0  0  0
  190.5440  176.3210  137.1710 C   0  0  0  0  0  2  0  0  0  0  0  0
  191.2070  176.3070  138.5130 C   0  0  0  0  0  0  0  0  0  0  0  0
  192.6560  176.6330  138.6230 C   0  0  0  0  0  1  0  0  0  0  0  0
  190.5760  176.0040  139.5120 O   0  0  0  0  0  0  0  0  0  0  0  0
  1 16  1  0  0  0  0
  1 20  1  0  0  0  0
  2 24  1  6  0  0  0
  2 12  1  0  0  0  0
  2 27  1  0  0  0  0
  3  4  1  0  0  0  0
  5 27  1  0  0  0  0
  5  6  1  0  0  0  0
  6 18  1  1  0  0  0
  6 28  1  0  0  0  0
  7 19  1  1  0  0  0
  7 24  1  0  0  0  0
  7 17  1  0  0  0  0
  9 26  1  6  0  0  0
 11  3  2  0  0  0  0
 12  8  1  6  0  0  0
 12 13  1  0  0  0  0
 13 11  1  0  0  0  0
 13 22  2  0  0  0  0
 14 23  1  1  0  0  0
 14 22  1  0  0  0  0
 15  9  1  0  0  0  0
 16 20  1  0  0  0  0
 16 19  1  1  0  0  0
 17 10  1  6  0  0  0
 17  8  1  0  0  0  0
 18 15  1  0  0  0  0
 20 29  1  1  0  0  0
 20 10  1  0  0  0  0
 21  4  2  0  0  0  0
 22 21  1  0  0  0  0
 25  5  2  0  0  0  0
 27 14  1  0  0  0  0
 28 23  1  1  0  0  0
 28  9  1  0  0  0  0
 29 30  1  0  0  0  0
 30 31  1  0  0  0  0
 30 32  2  0  0  0  0
M  END
>  <MODEL>
4

>  <REMARK>
 VINA RESULT:      -7.9      3.320      7.706
  Name = 
  2 active torsions:
  status: ('A' for Active; 'I' for Inactive)
    1  A    between atoms: C_20  and  C_29
    2  A    between atoms: C_29  and  C_30
                            x       y       z     vdW  Elec       q    Type
                         _______ _______ _______ _____ _____    ______ ____

>  <TORSDO>
F 2

$$$$
=
 OpenBabel11122410533D

 32 38  0  0  1  0  0  0  0  0999 V2000
  187.7520  178.0120  144.9790 O   0  0  0  0  0  0  0  0  0  0  0  0
  183.8300  178.5820  141.6470 C   0  0  2  0  0  3  0  0  0  0  0  0
  179.6600  178.3450  144.1130 C   0  0  0  0  0  3  0  0  0  0  0  0
  178.9310  178.4830  142.9290 C   0  0  0  0  0  3  0  0  0  0  0  0
  183.5720  178.3520  139.1460 C   0  0  0  0  0  0  0  0  0  0  0  0
  182.8650  178.6810  137.8580 C   0  0  1  0  0  3  0  0  0  0  0  0
  185.9790  178.9640  142.8940 C   0  0  1  0  0  3  0  0  0  0  0  0
  183.8420  178.7800  144.0470 O   0  0  0  0  0  0  0  0  0  0  0  0
  180.8260  179.2230  136.8740 C   0  0  2  0  0  3  0  0  0  0  0  0
  185.7770  179.3490  145.3780 C   0  0  0  0  0  2  0  0  0  0  0  0
  181.0420  178.5540  144.1100 C   0  0  0  0  0  3  0  0  0  0  0  0
  183.1650  179.2000  142.8880 C   0  0  2  0  0  3  0  0  0  0  0  0
  181.7010  178.8820  142.9180 C   0  0  0  0  0  0  0  0  0  0  0  0
  181.7150  179.4370  140.4690 C   0  0  2  0  0  3  0  0  0  0  0  0
  181.3530  177.9690  136.1910 C   0  0  0  0  0  2  0  0  0  0  0  0
  186.8250  177.0770  144.4760 C   0  0  2  0  0  3  0  0  0  0  0  0
  185.0750  179.4630  144.0330 C   0  0  1  0  0  3  0  0  0  0  0  0
  182.4490  177.4540  137.0860 C   0  0  0  0  0  2  0  0  0  0  0  0
  186.3290  177.4840  143.0790 C   0  0  0  0  0  2  0  0  0  0  0  0
  186.4790  178.0040  145.5910 C   0  0  1  0  0  0  0  0  0  0  0  0
  179.5820  178.8260  141.7420 C   0  0  0  0  0  3  0  0  0  0  0  0
  180.9740  179.0160  141.7240 C   0  0  0  0  0  0  0  0  0  0  0  0
  180.9170  179.1310  139.2020 C   0  0  0  0  0  2  0  0  0  0  0  0
  185.2490  179.1550  141.5590 C   0  0  0  0  0  2  0  0  0  0  0  0
  184.6330  177.6730  139.1000 O   0  0  0  0  0  0  0  0  0  0  0  0
  180.8360  180.3820  135.8960 C   0  0  0  0  0  1  0  0  0  0  0  0
  183.0520  178.8110  140.4120 N   0  0  0  0  0  0  0  0  0  0  0  0
  181.6790  179.5330  138.0210 N   0  0  1  0  0  0  0  0  0  0  0  0
  186.5420  177.4200  146.9980 C   0  0  0  0  0  2  0  0  0  0  0  0
  187.8230  177.7630  147.6920 C   0  0  0  0  0  0  0  0  0  0  0  0
  189.0130  176.8840  147.5230 C   0  0  0  0  0  1  0  0  0  0  0  0
  187.8900  178.7420  148.4170 O   0  0  0  0  0  0  0  0  0  0  0  0
  1 20  1  0  0  0  0
  2 24  1  6  0  0  0
  2 12  1  0  0  0  0
  4  3  2  0  0  0  0
  5 27  1  0  0  0  0
  6 18  1  1  0  0  0
  6 28  1  0  0  0  0
  6  5  1  0  0  0  0
  7 24  1  6  0  0  0
  7 19  1  0  0  0  0
  7 17  1  0  0  0  0
  9 26  1  6  0  0  0
  9 28  1  0  0  0  0
 10 20  1  0  0  0  0
 11  3  1  0  0  0  0
 12 13  1  1  0  0  0
 12  8  1  0  0  0  0
 13 11  2  0  0  0  0
 14 23  1  6  0  0  0
 14 22  1  0  0  0  0
 15  9  1  0  0  0  0
 15 18  1  0  0  0  0
 16 19  1  6  0  0  0
 16  1  1  0  0  0  0
 16 20  1  0  0  0  0
 17  8  1  0  0  0  0
 17 10  1  1  0  0  0
 20 29  1  1  0  0  0
 21  4  1  0  0  0  0
 22 21  2  0  0  0  0
 22 13  1  0  0  0  0
 25  5  2  0  0  0  0
 27 14  1  0  0  0  0
 27  2  1  0  0  0  0
 28 23  1  1  0  0  0
 29 30  1  0  0  0  0
 30 32  2  0  0  0  0
 31 30  1  0  0  0  0
M  END
>  <MODEL>
5

>  <REMARK>
 VINA RESULT:      -7.5      4.379      5.989
  Name = 
  2 active torsions:
  status: ('A' for Active; 'I' for Inactive)
    1  A    between atoms: C_20  and  C_29
    2  A    between atoms: C_29  and  C_30
                            x       y       z     vdW  Elec       q    Type
                         _______ _______ _______ _____ _____    ______ ____

>  <TORSDO>
F 2

$$$$
=
 OpenBabel11122410533D

 32 38  0  0  1  0  0  0  0  0999 V2000
  190.2120  176.4330  136.6090 O   0  0  0  0  0  0  0  0  0  0  0  0
  186.0610  177.8060  139.3820 C   0  0  2  0  0  3  0  0  0  0  0  0
  187.2140  177.6160  144.0880 C   0  0  0  0  0  3  0  0  0  0  0  0
  185.9120  177.9790  144.4410 C   0  0  0  0  0  3  0  0  0  0  0  0
  183.5820  177.9440  138.9240 C   0  0  0  0  0  0  0  0  0  0  0  0
  182.2160  178.5080  139.2160 C   0  0  1  0  0  3  0  0  0  0  0  0
  187.8950  177.8170  137.6630 C   0  0  1  0  0  3  0  0  0  0  0  0
  188.3710  177.6730  140.0460 O   0  0  0  0  0  0  0  0  0  0  0  0
  180.8060  179.3610  140.8600 C   0  0  2  0  0  3  0  0  0  0  0  0
  190.2550  177.8780  138.5470 C   0  0  0  0  0  2  0  0  0  0  0  0
  187.6250  177.6970  142.7550 C   0  0  0  0  0  3  0  0  0  0  0  0
  187.1510  178.3070  140.3430 C   0  0  2  0  0  3  0  0  0  0  0  0
  186.7280  178.1230  141.7670 C   0  0  0  0  0  0  0  0  0  0  0  0
  184.4950  179.0030  141.0270 C   0  0  2  0  0  3  0  0  0  0  0  0
  180.1070  178.1700  140.2220 C   0  0  0  0  0  2  0  0  0  0  0  0
  189.3340  175.6640  137.3970 C   0  0  2  0  0  3  0  0  0  0  0  0
  188.8040  178.2380  138.8290 C   0  0  1  0  0  3  0  0  0  0  0  0
  181.1780  177.4400  139.4540 C   0  0  0  0  0  2  0  0  0  0  0  0
  187.9360  176.3010  137.4520 C   0  0  0  0  0  2  0  0  0  0  0  0
  190.4410  176.4580  138.0020 C   0  0  1  0  0  0  0  0  0  0  0  0
  185.0190  178.4200  143.4610 C   0  0  0  0  0  3  0  0  0  0  0  0
  185.4150  178.4830  142.1150 C   0  0  0  0  0  0  0  0  0  0  0  0
  183.0250  178.9460  141.4430 C   0  0  0  0  0  2  0  0  0  0  0  0
  186.4580  178.2540  137.9700 C   0  0  0  0  0  2  0  0  0  0  0  0
  183.7240  177.1830  137.9290 O   0  0  0  0  0  0  0  0  0  0  0  0
  180.0630  180.6370  140.5150 C   0  0  0  0  0  1  0  0  0  0  0  0
  184.7110  178.2700  139.7620 N   0  0  0  0  0  0  0  0  0  0  0  0
  182.1770  179.4330  140.3570 N   0  0  1  0  0  0  0  0  0  0  0  0
  191.7010  175.6850  138.3720 C   0  0  0  0  0  2  0  0  0  0  0  0
  192.9460  176.4570  138.0640 C   0  0  0  0  0  0  0  0  0  0  0  0
  193.5470  176.3780  136.7040 C   0  0  0  0  0  1  0  0  0  0  0  0
  193.4860  177.1280  138.9280 O   0  0  0  0  0  0  0  0  0  0  0  0
  1 16  1  0  0  0  0
  1 20  1  0  0  0  0
  2 24  1  6  0  0  0
  2 27  1  0  0  0  0
  2 12  1  0  0  0  0
  3  4  1  0  0  0  0
  5  6  1  0  0  0  0
  5 27  1  0  0  0  0
  6 18  1  1  0  0  0
  6 28  1  0  0  0  0
  7 19  1  1  0  0  0
  7 24  1  0  0  0  0
  7 17  1  0  0  0  0
  9 26  1  6  0  0  0
 11  3  2  0  0  0  0
 12  8  1  1  0  0  0
 12 13  1  0  0  0  0
 13 22  2  0  0  0  0
 13 11  1  0  0  0  0
 14 23  1  1  0  0  0
 14 22  1  0  0  0  0
 15  9  1  0  0  0  0
 16 19  1  1  0  0  0
 16 20  1  0  0  0  0
 17 10  1  6  0  0  0
 17  8  1  0  0  0  0
 18 15  1  0  0  0  0
 20 29  1  1  0  0  0
 20 10  1  0  0  0  0
 21  4  2  0  0  0  0
 22 21  1  0  0  0  0
 25  5  2  0  0  0  0
 27 14  1  0  0  0  0
 28  9  1  0  0  0  0
 28 23  1  1  0  0  0
 30 29  1  0  0  0  0
 30 32  2  0  0  0  0
 31 30  1  0  0  0  0
M  END
>  <MODEL>
6

>  <REMARK>
 VINA RESULT:      -7.4      3.306      7.198
  Name = 
  2 active torsions:
  status: ('A' for Active; 'I' for Inactive)
    1  A    between atoms: C_20  and  C_29
    2  A    between atoms: C_29  and  C_30
                            x       y       z     vdW  Elec       q    Type
                         _______ _______ _______ _____ _____    ______ ____

>  <TORSDO>
F 2

$$$$
=
 OpenBabel11122410533D

 32 38  0  0  1  0  0  0  0  0999 V2000
  181.1780  178.7930  140.1220 O   0  0  0  0  0  0  0  0  0  0  0  0
  186.2390  178.1960  141.0370 C   0  0  2  0  0  3  0  0  0  0  0  0
  188.4080  176.8570  136.9120 C   0  0  0  0  0  3  0  0  0  0  0  0
  189.6390  176.7670  137.5660 C   0  0  0  0  0  3  0  0  0  0  0  0
  187.6450  177.8620  143.1070 C   0  0  0  0  0  0  0  0  0  0  0  0
  188.9570  177.9600  143.8390 C   0  0  1  0  0  3  0  0  0  0  0  0
  183.9270  179.1800  140.9500 C   0  0  1  0  0  3  0  0  0  0  0  0
  185.0790  178.4320  138.9400 O   0  0  0  0  0  0  0  0  0  0  0  0
  191.2760  177.8980  143.6360 C   0  0  2  0  0  3  0  0  0  0  0  0
  182.9490  179.5370  138.6540 C   0  0  0  0  0  2  0  0  0  0  0  0
  187.3140  177.4400  137.5570 C   0  0  0  0  0  3  0  0  0  0  0  0
  186.3240  178.6280  139.5630 C   0  0  2  0  0  3  0  0  0  0  0  0
  187.4450  177.9180  138.8680 C   0  0  0  0  0  0  0  0  0  0  0  0
  188.7950  178.4130  140.9260 C   0  0  2  0  0  3  0  0  0  0  0  0
  190.8690  176.8280  144.6390 C   0  0  0  0  0  2  0  0  0  0  0  0
  181.9660  177.6300  140.2250 C   0  0  2  0  0  3  0  0  0  0  0  0
  184.2320  179.4300  139.4650 C   0  0  1  0  0  3  0  0  0  0  0  0
  189.3840  176.6520  144.4580 C   0  0  0  0  0  2  0  0  0  0  0  0
  183.1760  177.8590  141.1440 C   0  0  0  0  0  2  0  0  0  0  0  0
  181.9260  178.4440  138.9760 C   0  0  1  0  0  0  0  0  0  0  0  0
  189.7770  177.2570  138.8670 C   0  0  0  0  0  3  0  0  0  0  0  0
  188.6780  177.8240  139.5340 C   0  0  0  0  0  0  0  0  0  0  0  0
  190.0150  177.8760  141.6760 C   0  0  0  0  0  2  0  0  0  0  0  0
  185.2470  179.1390  141.7290 C   0  0  0  0  0  2  0  0  0  0  0  0
  186.6190  177.5030  143.7440 O   0  0  0  0  0  0  0  0  0  0  0  0
  192.0440  178.9980  144.3440 C   0  0  0  0  0  1  0  0  0  0  0  0
  187.5590  178.1800  141.7010 N   0  0  0  0  0  0  0  0  0  0  0  0
  190.0720  178.4520  143.0170 N   0  0  1  0  0  0  0  0  0  0  0  0
  181.0260  177.9240  137.8610 C   0  0  0  0  0  2  0  0  0  0  0  0
  181.7750  177.7160  136.5830 C   0  0  0  0  0  0  0  0  0  0  0  0
  182.8210  176.6590  136.5040 C   0  0  0  0  0  1  0  0  0  0  0  0
  181.5550  178.4250  135.6150 O   0  0  0  0  0  0  0  0  0  0  0  0
  1 16  1  0  0  0  0
  2 27  1  0  0  0  0
  2 24  1  1  0  0  0
  3 11  2  0  0  0  0
  3  4  1  0  0  0  0
  4 21  2  0  0  0  0
  5 25  2  0  0  0  0
  5  6  1  0  0  0  0
  6 18  1  6  0  0  0
  7 19  1  6  0  0  0
  7 24  1  0  0  0  0
  8 17  1  0  0  0  0
  8 12  1  0  0  0  0
  9 26  1  1  0  0  0
  9 15  1  0  0  0  0
 10 20  1  0  0  0  0
 11 13  1  0  0  0  0
 12 13  1  6  0  0  0
 12  2  1  0  0  0  0
 13 22  2  0  0  0  0
 14 23  1  1  0  0  0
 14 27  1  0  0  0  0
 16 19  1  1  0  0  0
 17 10  1  6  0  0  0
 17  7  1  0  0  0  0
 18 15  1  0  0  0  0
 20 29  1  6  0  0  0
 20  1  1  0  0  0  0
 20 16  1  0  0  0  0
 21 22  1  0  0  0  0
 22 14  1  0  0  0  0
 27  5  1  0  0  0  0
 28 23  1  6  0  0  0
 28  9  1  0  0  0  0
 28  6  1  0  0  0  0
 30 29  1  0  0  0  0
 31 30  1  0  0  0  0
 32 30  2  0  0  0  0
M  END
>  <MODEL>
7

>  <REMARK>
 VINA RESULT:      -7.3      3.414      8.123
  Name = 
  2 active torsions:
  status: ('A' for Active; 'I' for Inactive)
    1  A    between atoms: C_20  and  C_29
    2  A    between atoms: C_29  and  C_30
                            x       y       z     vdW  Elec       q    Type
                         _______ _______ _______ _____ _____    ______ ____

>  <TORSDO>
F 2

$$$$
=
 OpenBabel11122410533D

 32 38  0  0  1  0  0  0  0  0999 V2000
  184.8810  178.8200  146.5880 O   0  0  0  0  0  0  0  0  0  0  0  0
  187.1890  178.0880  142.0120 C   0  0  2  0  0  3  0  0  0  0  0  0
  191.9600  177.6210  142.7440 C   0  0  0  0  0  3  0  0  0  0  0  0
  192.1780  177.5030  141.3690 C   0  0  0  0  0  3  0  0  0  0  0  0
  186.5420  178.5020  139.6070 C   0  0  0  0  0  0  0  0  0  0  0  0
  186.6750  178.2060  138.1360 C   0  0  1  0  0  3  0  0  0  0  0  0
  185.6150  177.8530  143.9580 C   0  0  1  0  0  3  0  0  0  0  0  0
  188.0280  177.6850  144.2320 O   0  0  0  0  0  0  0  0  0  0  0  0
  188.1140  177.5180  136.4410 C   0  0  2  0  0  3  0  0  0  0  0  0
  186.6550  177.2320  146.1680 C   0  0  0  0  0  2  0  0  0  0  0  0
  190.6590  177.5760  143.2510 C   0  0  0  0  0  3  0  0  0  0  0  0
  188.1680  177.2910  142.8890 C   0  0  2  0  0  3  0  0  0  0  0  0
  189.5700  177.4320  142.3810 C   0  0  0  0  0  0  0  0  0  0  0  0
  188.5830  177.0970  140.0970 C   0  0  2  0  0  3  0  0  0  0  0  0
  187.5560  178.8790  136.0510 C   0  0  0  0  0  2  0  0  0  0  0  0
  185.6800  179.6800  145.8100 C   0  0  2  0  0  3  0  0  0  0  0  0
  186.7930  177.1540  144.6550 C   0  0  1  0  0  3  0  0  0  0  0  0
  186.9480  179.4390  137.3100 C   0  0  0  0  0  2  0  0  0  0  0  0
  185.5680  179.3410  144.3150 C   0  0  0  0  0  2  0  0  0  0  0  0
  186.2770  178.6260  146.6790 C   0  0  1  0  0  0  0  0  0  0  0  0
  191.0960  177.3420  140.5000 C   0  0  0  0  0  3  0  0  0  0  0  0
  189.7820  177.3190  140.9970 C   0  0  0  0  0  0  0  0  0  0  0  0
  188.8960  177.4160  138.6350 C   0  0  0  0  0  2  0  0  0  0  0  0
  185.7700  177.6940  142.4400 C   0  0  0  0  0  2  0  0  0  0  0  0
  185.6450  179.3010  139.9870 O   0  0  0  0  0  0  0  0  0  0  0  0
  187.5840  176.4570  135.4960 C   0  0  0  0  0  1  0  0  0  0  0  0
  187.4200  177.8780  140.5670 N   0  0  0  0  0  0  0  0  0  0  0  0
  187.7060  177.2110  137.8110 N   0  0  1  0  0  0  0  0  0  0  0  0
  186.8150  179.0890  148.0280 C   0  0  0  0  0  2  0  0  0  0  0  0
  187.8570  178.1590  148.5670 C   0  0  0  0  0  0  0  0  0  0  0  0
  189.2650  178.2730  148.0940 C   0  0  0  0  0  1  0  0  0  0  0  0
  187.5550  177.2920  149.3700 O   0  0  0  0  0  0  0  0  0  0  0  0
  1 20  1  0  0  0  0
  2 24  1  1  0  0  0
  2 12  1  0  0  0  0
  3 11  1  0  0  0  0
  4  3  2  0  0  0  0
  5 25  2  0  0  0  0
  5 27  1  0  0  0  0
  6 18  1  6  0  0  0
  6  5  1  0  0  0  0
  7 24  1  6  0  0  0
  7 19  1  0  0  0  0
  7 17  1  0  0  0  0
  8 17  1  0  0  0  0
  9 26  1  6  0  0  0
  9 28  1  0  0  0  0
 10 20  1  0  0  0  0
 12 13  1  6  0  0  0
 12  8  1  0  0  0  0
 13 11  2  0  0  0  0
 14 23  1  6  0  0  0
 14 27  1  0  0  0  0
 14 22  1  0  0  0  0
 15  9  1  0  0  0  0
 15 18  1  0  0  0  0
 16 19  1  6  0  0  0
 16  1  1  0  0  0  0
 16 20  1  0  0  0  0
 17 10  1  1  0  0  0
 20 29  1  1  0  0  0
 21 22  2  0  0  0  0
 21  4  1  0  0  0  0
 22 13  1  0  0  0  0
 27  2  1  0  0  0  0
 28  6  1  0  0  0  0
 28 23  1  1  0  0  0
 29 30  1  0  0  0  0
 30 32  2  0  0  0  0
 31 30  1  0  0  0  0
M  END
>  <MODEL>
8

>  <REMARK>
 VINA RESULT:      -7.1      2.038      4.307
  Name = 
  2 active torsions:
  status: ('A' for Active; 'I' for Inactive)
    1  A    between atoms: C_20  and  C_29
    2  A    between atoms: C_29  and  C_30
                            x       y       z     vdW  Elec       q    Type
                         _______ _______ _______ _____ _____    ______ ____

>  <TORSDO>
F 2

$$$$
=
 OpenBabel11122410533D

 32 38  0  0  1  0  0  0  0  0999 V2000
  190.4200  176.7600  137.5340 O   0  0  0  0  0  0  0  0  0  0  0  0
  189.0900  177.3340  142.5050 C   0  0  2  0  0  3  0  0  0  0  0  0
  192.3300  174.9950  145.2520 C   0  0  0  0  0  3  0  0  0  0  0  0
  191.6250  175.3370  146.4080 C   0  0  0  0  0  3  0  0  0  0  0  0
  186.9700  177.9750  143.7170 C   0  0  0  0  0  0  0  0  0  0  0  0
  186.2560  178.5310  144.9200 C   0  0  1  0  0  3  0  0  0  0  0  0
  189.6470  177.8450  140.1070 C   0  0  1  0  0  3  0  0  0  0  0  0
  191.1860  176.6310  141.5510 O   0  0  0  0  0  0  0  0  0  0  0  0
  186.3020  178.7710  147.2350 C   0  0  2  0  0  3  0  0  0  0  0  0
  191.9640  177.2130  139.3390 C   0  0  0  0  0  2  0  0  0  0  0  0
  191.9980  175.5870  144.0300 C   0  0  0  0  0  3  0  0  0  0  0  0
  190.6130  177.2290  142.6880 C   0  0  2  0  0  3  0  0  0  0  0  0
  190.9450  176.5080  143.9580 C   0  0  0  0  0  0  0  0  0  0  0  0
  189.1390  177.9010  145.0080 C   0  0  2  0  0  3  0  0  0  0  0  0
  185.0020  178.0710  146.8670 C   0  0  0  0  0  2  0  0  0  0  0  0
  189.8620  175.8470  138.4510 C   0  0  2  0  0  3  0  0  0  0  0  0
  191.1040  177.6020  140.5320 C   0  0  1  0  0  3  0  0  0  0  0  0
  185.1830  177.6090  145.4450 C   0  0  0  0  0  2  0  0  0  0  0  0
  189.0270  176.5740  139.5180 C   0  0  0  0  0  2  0  0  0  0  0  0
  191.3210  176.1540  138.4380 C   0  0  1  0  0  0  0  0  0  0  0  0
  190.5850  176.2680  146.3430 C   0  0  0  0  0  3  0  0  0  0  0  0
  190.2270  176.8510  145.1160 C   0  0  0  0  0  0  0  0  0  0  0  0
  188.1840  177.8620  146.2020 C   0  0  0  0  0  2  0  0  0  0  0  0
  188.8390  178.2900  141.3320 C   0  0  0  0  0  2  0  0  0  0  0  0
  186.2990  177.7040  142.6840 O   0  0  0  0  0  0  0  0  0  0  0  0
  186.0030  180.1560  147.7760 C   0  0  0  0  0  1  0  0  0  0  0  0
  188.3970  177.7620  143.7380 N   0  0  0  0  0  0  0  0  0  0  0  0
  187.1410  178.8740  146.0420 N   0  0  1  0  0  0  0  0  0  0  0  0
  192.2160  175.1410  137.7350 C   0  0  0  0  0  2  0  0  0  0  0  0
  193.5960  175.6740  137.5040 C   0  0  0  0  0  0  0  0  0  0  0  0
  193.9070  176.3920  136.2370 C   0  0  0  0  0  1  0  0  0  0  0  0
  194.4730  175.5000  138.3340 O   0  0  0  0  0  0  0  0  0  0  0  0
  1 20  1  0  0  0  0
  1 16  1  0  0  0  0
  2 24  1  6  0  0  0
  2 12  1  0  0  0  0
  2 27  1  0  0  0  0
  3  4  1  0  0  0  0
  5 27  1  0  0  0  0
  5  6  1  0  0  0  0
  6 18  1  1  0  0  0
  6 28  1  0  0  0  0
  7 19  1  1  0  0  0
  7 17  1  0  0  0  0
  7 24  1  0  0  0  0
  9 26  1  6  0  0  0
 11  3  2  0  0  0  0
 12  8  1  6  0  0  0
 12 13  1  0  0  0  0
 13 11  1  0  0  0  0
 13 22  2  0  0  0  0
 14 22  1  0  0  0  0
 14 23  1  1  0  0  0
 15  9  1  0  0  0  0
 16 19  1  1  0  0  0
 17 10  1  6  0  0  0
 17  8  1  0  0  0  0
 18 15  1  0  0  0  0
 20 29  1  6  0  0  0
 20 16  1  0  0  0  0
 20 10  1  0  0  0  0
 21  4  2  0  0  0  0
 22 21  1  0  0  0  0
 25  5  2  0  0  0  0
 27 14  1  0  0  0  0
 28 23  1  1  0  0  0
 28  9  1  0  0  0  0
 30 29  1  0  0  0  0
 30 32  2  0  0  0  0
 31 30  1  0  0  0  0
M  END
>  <MODEL>
9

>  <REMARK>
 VINA RESULT:      -6.7      2.691      8.054
  Name = 
  2 active torsions:
  status: ('A' for Active; 'I' for Inactive)
    1  A    between atoms: C_20  and  C_29
    2  A    between atoms: C_29  and  C_30
                            x       y       z     vdW  Elec       q    Type
                         _______ _______ _______ _____ _____    ______ ____

>  <TORSDO>
F 2

$$$$
