=
 OpenBabel11122411323D

 37 44  0  0  1  0  0  0  0  0999 V2000
  187.2540  177.4640  139.7140 C   0  0  0  0  0  2  0  0  0  0  0  0
  190.2670  177.2490  143.0980 C   0  0  0  0  0  0  0  0  0  0  0  0
  186.2520  178.0990  144.3290 C   0  0  0  0  0  0  0  0  0  0  0  0
  187.4350  177.9080  138.3300 N   0  0  0  0  0  0  0  0  0  0  0  0
  183.6260  178.4090  141.5380 O   0  0  0  0  0  0  0  0  0  0  0  0
  188.6140  177.7960  145.0820 C   0  0  0  0  0  0  0  0  0  0  0  0
  185.7630  178.5600  142.9690 C   0  0  0  0  0  0  0  0  0  0  0  0
  185.0590  177.8320  138.1160 C   0  0  0  0  0  0  0  0  0  0  0  0
  187.5690  177.8790  144.0590 C   0  0  0  0  0  0  0  0  0  0  0  0
  184.2530  178.8560  142.7430 C   0  0  2  0  0  3  0  0  0  0  0  0
  188.2600  177.5240  146.4570 C   0  0  0  0  0  3  0  0  0  0  0  0
  186.3060  178.4190  137.5880 C   0  0  0  0  0  2  0  0  0  0  0  0
  187.7950  177.8610  142.7160 C   0  0  0  0  0  0  0  0  0  0  0  0
  190.0760  175.8260  142.8500 C   0  0  0  0  0  1  0  0  0  0  0  0
  184.4010  178.2960  146.2580 C   0  0  0  0  0  2  0  0  0  0  0  0
  186.8900  177.8370  146.8020 C   0  0  0  0  0  3  0  0  0  0  0  0
  189.2350  177.9710  142.2350 C   0  0  0  0  0  2  0  0  0  0  0  0
  184.4380  178.6840  139.1180 C   0  0  1  0  0  3  0  0  0  0  0  0
  184.4350  177.9600  140.4760 C   0  0  1  0  0  3  0  0  0  0  0  0
  185.8820  178.1280  145.8170 C   0  0  0  0  0  0  0  0  0  0  0  0
  186.7110  178.2150  141.9540 N   0  0  0  0  0  0  0  0  0  0  0  0
  190.0510  177.7420  144.6220 C   0  0  0  0  0  2  0  0  0  0  0  0
  183.3060  178.5120  143.8790 C   0  0  1  0  0  3  0  0  0  0  0  0
  191.6400  177.3730  142.5620 C   0  0  0  0  0  1  0  0  0  0  0  0
  185.4070  179.0940  140.1430 C   0  0  1  0  0  3  0  0  0  0  0  0
  184.4490  176.8330  137.7610 O   0  0  0  0  0  0  0  0  0  0  0  0
  186.7830  178.6300  140.5560 C   0  0  2  0  0  3  0  0  0  0  0  0
  183.6670  179.0900  145.1750 C   0  0  0  0  0  2  0  0  0  0  0  0
  189.6730  178.1750  138.5130 O   0  0  0  0  0  0  0  0  0  0  0  0
  188.6310  178.2180  137.8010 C   0  0  0  0  0  3  0  0  0  0  0  0
  180.8650  178.2630  144.2840 C   0  0  0  0  0  3  0  0  0  0  0  0
  181.8960  178.8640  143.5760 C   0  0  0  0  0  0  0  0  0  0  0  0
  181.5420  179.5170  142.3620 C   0  0  0  0  0  3  0  0  0  0  0  0
  179.7240  180.6610  140.6290 Cl  0  0  0  0  0  0  0  0  0  0  0  0
  179.2040  179.2150  142.8790 C   0  0  0  0  0  3  0  0  0  0  0  0
  180.2040  179.7160  142.0460 C   0  0  0  0  0  0  0  0  0  0  0  0
  179.5710  178.4470  143.9520 N   0  0  0  0  0  0  0  0  0  0  0  0
  1 27  1  0  0  0  0
  2 22  1  0  0  0  0
  3 20  1  0  0  0  0
  4  1  1  0  0  0  0
  6 11  2  0  0  0  0
  7  3  2  0  0  0  0
  9  3  1  0  0  0  0
  9  6  1  0  0  0  0
 10  5  1  6  0  0  0
 10  7  1  0  0  0  0
 10 23  1  0  0  0  0
 11 16  1  0  0  0  0
 12  8  1  0  0  0  0
 12  4  1  0  0  0  0
 13  9  2  0  0  0  0
 14  2  1  0  0  0  0
 17 13  1  0  0  0  0
 17  2  1  0  0  0  0
 18  8  1  6  0  0  0
 18 25  1  0  0  0  0
 18 19  1  0  0  0  0
 19  5  1  1  0  0  0
 20 15  1  0  0  0  0
 20 16  2  0  0  0  0
 21 13  1  0  0  0  0
 21  7  1  0  0  0  0
 22  6  1  0  0  0  0
 23 32  1  6  0  0  0
 23 28  1  0  0  0  0
 24  2  1  0  0  0  0
 25 19  1  0  0  0  0
 25 27  1  0  0  0  0
 26  8  2  0  0  0  0
 27 21  1  0  0  0  0
 28 15  1  0  0  0  0
 30  4  1  0  0  0  0
 30 29  2  0  0  0  0
 32 31  2  0  0  0  0
 33 32  1  0  0  0  0
 34 36  1  0  0  0  0
 35 37  2  0  0  0  0
 36 33  2  0  0  0  0
 36 35  1  0  0  0  0
 37 31  1  0  0  0  0
M  END
>  <MODEL>
1

>  <REMARK>
 VINA RESULT:     -11.9      0.000      0.000
  Name = 
  1 active torsions:
  status: ('A' for Active; 'I' for Inactive)
    1  A    between atoms: C_23  and  C_30
                            x       y       z     vdW  Elec       q    Type
                         _______ _______ _______ _____ _____    ______ ____

>  <TORSDO>
F 1

$$$$
=
 OpenBabel11122411323D

 37 44  0  0  1  0  0  0  0  0999 V2000
  189.6350  176.6220  139.0300 C   0  0  0  0  0  2  0  0  0  0  0  0
  190.4230  176.7950  143.4940 C   0  0  0  0  0  0  0  0  0  0  0  0
  186.4910  178.0300  142.3220 C   0  0  0  0  0  0  0  0  0  0  0  0
  190.5560  176.8300  137.9110 N   0  0  0  0  0  0  0  0  0  0  0  0
  185.7380  178.0250  138.5520 O   0  0  0  0  0  0  0  0  0  0  0  0
  188.0700  177.7330  144.2350 C   0  0  0  0  0  0  0  0  0  0  0  0
  186.8340  178.2940  140.8680 C   0  0  0  0  0  0  0  0  0  0  0  0
  188.6420  176.8410  136.4860 C   0  0  0  0  0  0  0  0  0  0  0  0
  187.7200  177.7050  142.8130 C   0  0  0  0  0  0  0  0  0  0  0  0
  185.7070  178.6250  139.8500 C   0  0  2  0  0  3  0  0  0  0  0  0
  187.0280  177.7000  145.2360 C   0  0  0  0  0  3  0  0  0  0  0  0
  190.0450  177.2740  136.6350 C   0  0  0  0  0  2  0  0  0  0  0  0
  188.6000  177.4620  141.8020 C   0  0  0  0  0  0  0  0  0  0  0  0
  190.2100  175.3620  143.3390 C   0  0  0  0  0  1  0  0  0  0  0  0
  183.9540  178.6240  142.9500 C   0  0  0  0  0  2  0  0  0  0  0  0
  185.7280  178.1330  144.7710 C   0  0  0  0  0  3  0  0  0  0  0  0
  190.0830  177.4210  142.1440 C   0  0  0  0  0  2  0  0  0  0  0  0
  187.7070  177.8720  136.9110 C   0  0  1  0  0  3  0  0  0  0  0  0
  186.9140  177.3730  138.1330 C   0  0  1  0  0  3  0  0  0  0  0  0
  185.4160  178.3140  143.3780 C   0  0  0  0  0  0  0  0  0  0  0  0
  188.1170  177.7440  140.5500 N   0  0  0  0  0  0  0  0  0  0  0  0
  189.5190  177.5340  144.6110 C   0  0  0  0  0  2  0  0  0  0  0  0
  184.2760  178.5150  140.3450 C   0  0  1  0  0  3  0  0  0  0  0  0
  191.8790  176.7630  143.7520 C   0  0  0  0  0  1  0  0  0  0  0  0
  188.0530  178.3890  138.2410 C   0  0  1  0  0  3  0  0  0  0  0  0
  188.1810  175.8300  135.9740 O   0  0  0  0  0  0  0  0  0  0  0  0
  188.9490  177.9290  139.3650 C   0  0  2  0  0  3  0  0  0  0  0  0
  183.9890  179.2720  141.5650 C   0  0  0  0  0  2  0  0  0  0  0  0
  192.3940  177.0110  139.2160 O   0  0  0  0  0  0  0  0  0  0  0  0
  191.8820  176.9920  138.0620 C   0  0  0  0  0  3  0  0  0  0  0  0
  183.0860  180.2190  138.9800 C   0  0  0  0  0  3  0  0  0  0  0  0
  183.2800  178.8850  139.3080 C   0  0  0  0  0  0  0  0  0  0  0  0
  182.2720  177.9710  138.8910 C   0  0  0  0  0  3  0  0  0  0  0  0
  180.1010  177.2450  137.3500 Cl  0  0  0  0  0  0  0  0  0  0  0  0
  181.2190  179.7170  137.6010 C   0  0  0  0  0  3  0  0  0  0  0  0
  181.2770  178.3880  138.0160 C   0  0  0  0  0  0  0  0  0  0  0  0
  182.1010  180.6120  138.1470 N   0  0  0  0  0  0  0  0  0  0  0  0
  1 27  1  0  0  0  0
  2 24  1  0  0  0  0
  2 22  1  0  0  0  0
  3  9  1  0  0  0  0
  3 20  1  0  0  0  0
  4 30  1  0  0  0  0
  4  1  1  0  0  0  0
  6 22  1  0  0  0  0
  6 11  2  0  0  0  0
  7  3  2  0  0  0  0
  8 12  1  0  0  0  0
  9  6  1  0  0  0  0
 10  5  1  6  0  0  0
 10 23  1  0  0  0  0
 10  7  1  0  0  0  0
 12  4  1  0  0  0  0
 13 17  1  0  0  0  0
 13  9  2  0  0  0  0
 14  2  1  0  0  0  0
 15 20  1  0  0  0  0
 16 11  1  0  0  0  0
 17  2  1  0  0  0  0
 18  8  1  1  0  0  0
 18 19  1  0  0  0  0
 18 25  1  0  0  0  0
 19 25  1  0  0  0  0
 19  5  1  6  0  0  0
 20 16  2  0  0  0  0
 21  7  1  0  0  0  0
 21 13  1  0  0  0  0
 23 32  1  6  0  0  0
 23 28  1  0  0  0  0
 25 27  1  0  0  0  0
 26  8  2  0  0  0  0
 27 21  1  0  0  0  0
 28 15  1  0  0  0  0
 30 29  2  0  0  0  0
 31 32  1  0  0  0  0
 33 32  2  0  0  0  0
 34 36  1  0  0  0  0
 35 36  2  0  0  0  0
 35 37  1  0  0  0  0
 36 33  1  0  0  0  0
 37 31  2  0  0  0  0
M  END
>  <MODEL>
2

>  <REMARK>
 VINA RESULT:     -10.7      2.313      3.392
  Name = 
  1 active torsions:
  status: ('A' for Active; 'I' for Inactive)
    1  A    between atoms: C_23  and  C_30
                            x       y       z     vdW  Elec       q    Type
                         _______ _______ _______ _____ _____    ______ ____

>  <TORSDO>
F 1

$$$$
=
 OpenBabel11122411323D

 37 44  0  0  1  0  0  0  0  0999 V2000
  189.0080  177.9140  140.9690 C   0  0  0  0  0  2  0  0  0  0  0  0
  184.6450  178.5900  142.0080 C   0  0  0  0  0  0  0  0  0  0  0  0
  187.1860  177.8180  145.3700 C   0  0  0  0  0  0  0  0  0  0  0  0
  189.6000  177.3110  139.7720 N   0  0  0  0  0  0  0  0  0  0  0  0
  190.8890  177.1250  144.6050 O   0  0  0  0  0  0  0  0  0  0  0  0
  184.8440  178.2530  144.6190 C   0  0  0  0  0  0  0  0  0  0  0  0
  188.3140  177.1880  144.5760 C   0  0  0  0  0  0  0  0  0  0  0  0
  191.6820  177.3150  140.9400 C   0  0  0  0  0  0  0  0  0  0  0  0
  186.2720  178.0280  144.3820 C   0  0  0  0  0  0  0  0  0  0  0  0
  189.6580  176.8380  145.2750 C   0  0  2  0  0  3  0  0  0  0  0  0
  184.3860  178.6820  145.9210 C   0  0  0  0  0  3  0  0  0  0  0  0
  190.9030  176.6930  139.8510 C   0  0  0  0  0  2  0  0  0  0  0  0
  186.8420  177.8900  143.1530 C   0  0  0  0  0  0  0  0  0  0  0  0
  185.0600  179.9700  141.7880 C   0  0  0  0  0  1  0  0  0  0  0  0
  187.6080  177.8180  148.0170 C   0  0  0  0  0  2  0  0  0  0  0  0
  185.2920  178.3860  147.0090 C   0  0  0  0  0  3  0  0  0  0  0  0
  185.9190  177.7510  141.9510 C   0  0  0  0  0  2  0  0  0  0  0  0
  191.5580  176.5780  142.1880 C   0  0  1  0  0  3  0  0  0  0  0  0
  190.8580  177.4590  143.2370 C   0  0  1  0  0  3  0  0  0  0  0  0
  186.6510  177.9600  146.8010 C   0  0  0  0  0  0  0  0  0  0  0  0
  188.1330  177.4270  143.1760 N   0  0  0  0  0  0  0  0  0  0  0  0
  183.9250  178.2790  143.4210 C   0  0  0  0  0  2  0  0  0  0  0  0
  189.8280  177.2970  146.7120 C   0  0  1  0  0  3  0  0  0  0  0  0
  183.8060  178.4290  140.8010 C   0  0  0  0  0  1  0  0  0  0  0  0
  190.1500  176.3120  142.5120 C   0  0  1  0  0  3  0  0  0  0  0  0
  192.4670  178.2530  140.9080 O   0  0  0  0  0  0  0  0  0  0  0  0
  188.8250  176.8480  142.0280 C   0  0  2  0  0  3  0  0  0  0  0  0
  188.7540  176.8860  147.6180 C   0  0  0  0  0  2  0  0  0  0  0  0
  187.6330  177.1100  138.6750 O   0  0  0  0  0  0  0  0  0  0  0  0
  188.8870  176.9630  138.6880 C   0  0  0  0  0  3  0  0  0  0  0  0
  191.6980  175.6730  146.9290 C   0  0  0  0  0  3  0  0  0  0  0  0
  191.1290  176.8840  147.2950 C   0  0  0  0  0  0  0  0  0  0  0  0
  191.6430  177.5020  148.4690 C   0  0  0  0  0  3  0  0  0  0  0  0
  193.5550  177.8420  150.4300 Cl  0  0  0  0  0  0  0  0  0  0  0  0
  193.4130  175.8650  148.5600 C   0  0  0  0  0  3  0  0  0  0  0  0
  192.7960  177.0090  149.0650 C   0  0  0  0  0  0  0  0  0  0  0  0
  192.8050  175.1940  147.5320 N   0  0  0  0  0  0  0  0  0  0  0  0
  1 27  1  0  0  0  0
  2 22  1  0  0  0  0
  3 20  1  0  0  0  0
  4 12  1  0  0  0  0
  4  1  1  0  0  0  0
  5 10  1  0  0  0  0
  6 11  2  0  0  0  0
  7  3  2  0  0  0  0
  9  6  1  0  0  0  0
  9  3  1  0  0  0  0
 10  7  1  6  0  0  0
 10 23  1  0  0  0  0
 11 16  1  0  0  0  0
 12  8  1  0  0  0  0
 13 21  1  0  0  0  0
 13  9  2  0  0  0  0
 14  2  1  0  0  0  0
 17  2  1  0  0  0  0
 17 13  1  0  0  0  0
 18  8  1  6  0  0  0
 18 25  1  0  0  0  0
 18 19  1  0  0  0  0
 19  5  1  1  0  0  0
 20 16  2  0  0  0  0
 20 15  1  0  0  0  0
 21  7  1  0  0  0  0
 22  6  1  0  0  0  0
 23 32  1  1  0  0  0
 23 28  1  0  0  0  0
 24  2  1  0  0  0  0
 25 19  1  0  0  0  0
 26  8  2  0  0  0  0
 27 25  1  0  0  0  0
 27 21  1  0  0  0  0
 28 15  1  0  0  0  0
 29 30  2  0  0  0  0
 30  4  1  0  0  0  0
 31 32  2  0  0  0  0
 31 37  1  0  0  0  0
 32 33  1  0  0  0  0
 33 36  2  0  0  0  0
 35 36  1  0  0  0  0
 36 34  1  0  0  0  0
 37 35  2  0  0  0  0
M  END
>  <MODEL>
3

>  <REMARK>
 VINA RESULT:     -10.6      3.951      7.576
  Name = 
  1 active torsions:
  status: ('A' for Active; 'I' for Inactive)
    1  A    between atoms: C_23  and  C_30
                            x       y       z     vdW  Elec       q    Type
                         _______ _______ _______ _____ _____    ______ ____

>  <TORSDO>
F 1

$$$$
=
 OpenBabel11122411323D

 37 44  0  0  1  0  0  0  0  0999 V2000
  189.1600  176.6710  138.8770 C   0  0  0  0  0  2  0  0  0  0  0  0
  190.2750  176.8900  143.2680 C   0  0  0  0  0  0  0  0  0  0  0  0
  186.2590  178.0900  142.3790 C   0  0  0  0  0  0  0  0  0  0  0  0
  189.9950  176.8740  137.6900 N   0  0  0  0  0  0  0  0  0  0  0  0
  185.2290  178.0450  138.6750 O   0  0  0  0  0  0  0  0  0  0  0  0
  187.9770  177.8210  144.1730 C   0  0  0  0  0  0  0  0  0  0  0  0
  186.4910  178.3420  140.9020 C   0  0  0  0  0  0  0  0  0  0  0  0
  187.9800  176.8600  136.4110 C   0  0  0  0  0  0  0  0  0  0  0  0
  187.5220  177.7770  142.7810 C   0  0  0  0  0  0  0  0  0  0  0  0
  185.2900  178.6570  139.9670 C   0  0  2  0  0  3  0  0  0  0  0  0
  187.0120  177.7910  145.2490 C   0  0  0  0  0  3  0  0  0  0  0  0
  189.3880  177.3020  136.4510 C   0  0  0  0  0  2  0  0  0  0  0  0
  188.3270  177.5300  141.7100 C   0  0  0  0  0  0  0  0  0  0  0  0
  190.0600  175.4540  143.1420 C   0  0  0  0  0  1  0  0  0  0  0  0
  183.7710  178.6740  143.1880 C   0  0  0  0  0  2  0  0  0  0  0  0
  185.6780  178.2110  144.8770 C   0  0  0  0  0  3  0  0  0  0  0  0
  189.8310  177.5020  141.9410 C   0  0  0  0  0  2  0  0  0  0  0  0
  187.0720  177.8890  136.8950 C   0  0  1  0  0  3  0  0  0  0  0  0
  186.3760  177.3960  138.1760 C   0  0  1  0  0  3  0  0  0  0  0  0
  185.2630  178.3770  143.5090 C   0  0  0  0  0  0  0  0  0  0  0  0
  187.7510  177.7980  140.4950 N   0  0  0  0  0  0  0  0  0  0  0  0
  189.4510  177.6340  144.4420 C   0  0  0  0  0  2  0  0  0  0  0  0
  183.9000  178.5430  140.5680 C   0  0  1  0  0  3  0  0  0  0  0  0
  191.7460  176.8700  143.4180 C   0  0  0  0  0  1  0  0  0  0  0  0
  187.5120  178.4210  138.1900 C   0  0  1  0  0  3  0  0  0  0  0  0
  187.4890  175.8410  135.9430 O   0  0  0  0  0  0  0  0  0  0  0  0
  188.4920  177.9760  139.2490 C   0  0  2  0  0  3  0  0  0  0  0  0
  183.6990  179.3090  141.7980 C   0  0  0  0  0  2  0  0  0  0  0  0
  191.9230  177.0780  138.8540 O   0  0  0  0  0  0  0  0  0  0  0  0
  191.3270  177.0450  137.7420 C   0  0  0  0  0  3  0  0  0  0  0  0
  182.1870  177.8980  138.8850 C   0  0  0  0  0  3  0  0  0  0  0  0
  182.8280  178.8970  139.6030 C   0  0  0  0  0  0  0  0  0  0  0  0
  182.6740  180.2270  139.1240 C   0  0  0  0  0  3  0  0  0  0  0  0
  181.4130  182.1640  137.6150 Cl  0  0  0  0  0  0  0  0  0  0  0  0
  181.0200  179.4690  137.5400 C   0  0  0  0  0  3  0  0  0  0  0  0
  181.7480  180.5030  138.1260 C   0  0  0  0  0  0  0  0  0  0  0  0
  181.3070  178.1790  137.9020 N   0  0  0  0  0  0  0  0  0  0  0  0
  1 27  1  0  0  0  0
  2 24  1  0  0  0  0
  2 22  1  0  0  0  0
  3  9  1  0  0  0  0
  3 20  1  0  0  0  0
  4 30  1  0  0  0  0
  4  1  1  0  0  0  0
  6 22  1  0  0  0  0
  6 11  2  0  0  0  0
  7  3  2  0  0  0  0
  8 12  1  0  0  0  0
  9  6  1  0  0  0  0
 10  5  1  6  0  0  0
 10 23  1  0  0  0  0
 10  7  1  0  0  0  0
 12  4  1  0  0  0  0
 13 17  1  0  0  0  0
 13  9  2  0  0  0  0
 14  2  1  0  0  0  0
 15 20  1  0  0  0  0
 16 11  1  0  0  0  0
 17  2  1  0  0  0  0
 18  8  1  1  0  0  0
 18 19  1  0  0  0  0
 18 25  1  0  0  0  0
 19 25  1  0  0  0  0
 19  5  1  6  0  0  0
 20 16  2  0  0  0  0
 21  7  1  0  0  0  0
 21 13  1  0  0  0  0
 23 32  1  6  0  0  0
 23 28  1  0  0  0  0
 25 27  1  0  0  0  0
 26  8  2  0  0  0  0
 27 21  1  0  0  0  0
 28 15  1  0  0  0  0
 30 29  2  0  0  0  0
 31 32  1  0  0  0  0
 33 32  2  0  0  0  0
 34 36  1  0  0  0  0
 35 37  1  0  0  0  0
 35 36  2  0  0  0  0
 36 33  1  0  0  0  0
 37 31  2  0  0  0  0
M  END
>  <MODEL>
4

>  <REMARK>
 VINA RESULT:     -10.5      2.107      3.080
  Name = 
  1 active torsions:
  status: ('A' for Active; 'I' for Inactive)
    1  A    between atoms: C_23  and  C_30
                            x       y       z     vdW  Elec       q    Type
                         _______ _______ _______ _____ _____    ______ ____

>  <TORSDO>
F 1

$$$$
=
 OpenBabel11122411323D

 37 44  0  0  1  0  0  0  0  0999 V2000
  183.8790  179.2260  142.3130 C   0  0  0  0  0  2  0  0  0  0  0  0
  185.7880  178.2960  146.3210 C   0  0  0  0  0  0  0  0  0  0  0  0
  188.3830  177.8090  142.9460 C   0  0  0  0  0  0  0  0  0  0  0  0
  182.4900  179.0560  141.8780 N   0  0  0  0  0  0  0  0  0  0  0  0
  186.8470  178.4680  139.4850 O   0  0  0  0  0  0  0  0  0  0  0  0
  188.1720  177.6000  145.4270 C   0  0  0  0  0  0  0  0  0  0  0  0
  187.2800  177.7140  141.9100 C   0  0  0  0  0  0  0  0  0  0  0  0
  183.2470  179.5210  139.6630 C   0  0  0  0  0  0  0  0  0  0  0  0
  187.6460  177.8840  144.0900 C   0  0  0  0  0  0  0  0  0  0  0  0
  187.6340  177.6960  140.3960 C   0  0  2  0  0  3  0  0  0  0  0  0
  189.5970  177.6330  145.6640 C   0  0  0  0  0  3  0  0  0  0  0  0
  182.1950  178.8790  140.4750 C   0  0  0  0  0  2  0  0  0  0  0  0
  186.3380  178.1450  143.8100 C   0  0  0  0  0  0  0  0  0  0  0  0
  185.8280  179.7530  146.3630 C   0  0  0  0  0  1  0  0  0  0  0  0
  190.8420  177.4920  141.9280 C   0  0  0  0  0  2  0  0  0  0  0  0
  190.4120  177.4590  144.4810 C   0  0  0  0  0  3  0  0  0  0  0  0
  185.3160  177.9270  144.9160 C   0  0  0  0  0  2  0  0  0  0  0  0
  184.2900  178.5810  139.2820 C   0  0  1  0  0  3  0  0  0  0  0  0
  185.6210  179.0030  139.9290 C   0  0  1  0  0  3  0  0  0  0  0  0
  189.8780  177.5280  143.1470 C   0  0  0  0  0  0  0  0  0  0  0  0
  186.0290  178.1180  142.4750 N   0  0  0  0  0  0  0  0  0  0  0  0
  187.1920  177.5370  146.5740 C   0  0  0  0  0  2  0  0  0  0  0  0
  189.0870  177.9330  140.0240 C   0  0  1  0  0  3  0  0  0  0  0  0
  184.7410  178.0860  147.3430 C   0  0  0  0  0  1  0  0  0  0  0  0
  184.7820  177.8320  140.4450 C   0  0  1  0  0  3  0  0  0  0  0  0
  183.2990  180.6500  139.1950 O   0  0  0  0  0  0  0  0  0  0  0  0
  184.6740  177.9940  141.9420 C   0  0  2  0  0  3  0  0  0  0  0  0
  190.0430  177.0540  140.6990 C   0  0  0  0  0  2  0  0  0  0  0  0
  181.7350  178.4310  143.9160 O   0  0  0  0  0  0  0  0  0  0  0  0
  181.4950  178.6900  142.7040 C   0  0  0  0  0  3  0  0  0  0  0  0
  189.0560  178.9640  137.7620 C   0  0  0  0  0  3  0  0  0  0  0  0
  189.3220  177.8610  138.5600 C   0  0  0  0  0  0  0  0  0  0  0  0
  189.4690  176.6120  137.8950 C   0  0  0  0  0  3  0  0  0  0  0  0
  189.9010  175.0590  135.6550 Cl  0  0  0  0  0  0  0  0  0  0  0  0
  189.4310  177.7400  135.7620 C   0  0  0  0  0  3  0  0  0  0  0  0
  189.5580  176.5700  136.5090 C   0  0  0  0  0  0  0  0  0  0  0  0
  189.1230  178.9040  136.4160 N   0  0  0  0  0  0  0  0  0  0  0  0
  2 14  1  0  0  0  0
  2 22  1  0  0  0  0
  2 24  1  0  0  0  0
  3 20  1  0  0  0  0
  3  9  1  0  0  0  0
  4  1  1  0  0  0  0
  4 30  1  0  0  0  0
  6 11  2  0  0  0  0
  6 22  1  0  0  0  0
  7 21  1  0  0  0  0
  7  3  2  0  0  0  0
  8 12  1  0  0  0  0
  9  6  1  0  0  0  0
 10  5  1  6  0  0  0
 10  7  1  0  0  0  0
 12  4  1  0  0  0  0
 13  9  2  0  0  0  0
 13 17  1  0  0  0  0
 15 20  1  0  0  0  0
 16 11  1  0  0  0  0
 17  2  1  0  0  0  0
 18  8  1  1  0  0  0
 18 19  1  0  0  0  0
 18 25  1  0  0  0  0
 19  5  1  6  0  0  0
 19 25  1  0  0  0  0
 20 16  2  0  0  0  0
 21 13  1  0  0  0  0
 23 32  1  6  0  0  0
 23 10  1  0  0  0  0
 23 28  1  0  0  0  0
 25 27  1  0  0  0  0
 26  8  2  0  0  0  0
 27  1  1  0  0  0  0
 27 21  1  0  0  0  0
 28 15  1  0  0  0  0
 30 29  2  0  0  0  0
 31 32  1  0  0  0  0
 33 32  2  0  0  0  0
 34 36  1  0  0  0  0
 35 37  1  0  0  0  0
 35 36  2  0  0  0  0
 36 33  1  0  0  0  0
 37 31  2  0  0  0  0
M  END
>  <MODEL>
5

>  <REMARK>
 VINA RESULT:     -10.1      2.627      6.608
  Name = 
  1 active torsions:
  status: ('A' for Active; 'I' for Inactive)
    1  A    between atoms: C_23  and  C_30
                            x       y       z     vdW  Elec       q    Type
                         _______ _______ _______ _____ _____    ______ ____

>  <TORSDO>
F 1

$$$$
=
 OpenBabel11122411323D

 37 44  0  0  1  0  0  0  0  0999 V2000
  188.5720  178.0310  140.1360 C   0  0  0  0  0  2  0  0  0  0  0  0
  184.0920  178.6990  139.8950 C   0  0  0  0  0  0  0  0  0  0  0  0
  185.6340  178.3270  143.8750 C   0  0  0  0  0  0  0  0  0  0  0  0
  189.4630  177.3280  139.2100 N   0  0  0  0  0  0  0  0  0  0  0  0
  189.4050  177.6550  144.2040 O   0  0  0  0  0  0  0  0  0  0  0  0
  183.5810  178.6280  142.4840 C   0  0  0  0  0  0  0  0  0  0  0  0
  186.9320  177.6500  143.4800 C   0  0  0  0  0  0  0  0  0  0  0  0
  191.1540  177.5000  140.8850 C   0  0  0  0  0  0  0  0  0  0  0  0
  185.0200  178.4160  142.6630 C   0  0  0  0  0  0  0  0  0  0  0  0
  188.0390  177.4050  144.5450 C   0  0  2  0  0  3  0  0  0  0  0  0
  182.7910  179.1720  143.5650 C   0  0  0  0  0  3  0  0  0  0  0  0
  190.6950  176.7530  139.6970 C   0  0  0  0  0  2  0  0  0  0  0  0
  185.8990  178.1710  141.6520 C   0  0  0  0  0  0  0  0  0  0  0  0
  184.5560  180.0600  139.6540 C   0  0  0  0  0  1  0  0  0  0  0  0
  185.3290  178.6010  146.5240 C   0  0  0  0  0  2  0  0  0  0  0  0
  183.3720  179.0080  144.8800 C   0  0  0  0  0  3  0  0  0  0  0  0
  185.3330  177.8900  140.2670 C   0  0  0  0  0  2  0  0  0  0  0  0
  190.6970  176.8870  142.1230 C   0  0  1  0  0  3  0  0  0  0  0  0
  189.7430  177.8510  142.8510 C   0  0  1  0  0  3  0  0  0  0  0  0
  184.7350  178.5980  145.0880 C   0  0  0  0  0  0  0  0  0  0  0  0
  187.1350  177.7450  142.0670 N   0  0  0  0  0  0  0  0  0  0  0  0
  183.0180  178.5120  141.0880 C   0  0  0  0  0  2  0  0  0  0  0  0
  187.8170  178.0080  145.9210 C   0  0  1  0  0  3  0  0  0  0  0  0
  183.6080  178.3980  138.5310 C   0  0  0  0  0  1  0  0  0  0  0  0
  189.2540  176.6200  142.0840 C   0  0  1  0  0  3  0  0  0  0  0  0
  191.9210  178.4490  140.9690 O   0  0  0  0  0  0  0  0  0  0  0  0
  188.1080  177.0720  141.2110 C   0  0  2  0  0  3  0  0  0  0  0  0
  186.5380  177.6630  146.5430 C   0  0  0  0  0  2  0  0  0  0  0  0
  187.8620  176.9700  137.6530 O   0  0  0  0  0  0  0  0  0  0  0  0
  189.0660  176.8560  138.0150 C   0  0  0  0  0  3  0  0  0  0  0  0
  189.0550  178.4260  148.0370 C   0  0  0  0  0  3  0  0  0  0  0  0
  188.9130  177.6880  146.8700 C   0  0  0  0  0  0  0  0  0  0  0  0
  190.0280  176.9000  146.4730 C   0  0  0  0  0  3  0  0  0  0  0  0
  192.4310  175.6280  146.9490 Cl  0  0  0  0  0  0  0  0  0  0  0  0
  191.1180  177.3790  148.5720 C   0  0  0  0  0  3  0  0  0  0  0  0
  191.0990  176.7260  147.3400 C   0  0  0  0  0  0  0  0  0  0  0  0
  190.1110  178.2630  148.8590 N   0  0  0  0  0  0  0  0  0  0  0  0
  1 27  1  0  0  0  0
  2 17  1  0  0  0  0
  2 22  1  0  0  0  0
  3 20  1  0  0  0  0
  4 12  1  0  0  0  0
  4  1  1  0  0  0  0
  5 10  1  0  0  0  0
  6  9  1  0  0  0  0
  6 11  2  0  0  0  0
  7  3  2  0  0  0  0
  8 26  2  0  0  0  0
  9  3  1  0  0  0  0
 10  7  1  6  0  0  0
 10 23  1  0  0  0  0
 11 16  1  0  0  0  0
 12  8  1  0  0  0  0
 13 21  1  0  0  0  0
 13  9  2  0  0  0  0
 14  2  1  0  0  0  0
 15 28  1  0  0  0  0
 16 20  2  0  0  0  0
 17 13  1  0  0  0  0
 18  8  1  6  0  0  0
 18 19  1  0  0  0  0
 19  5  1  1  0  0  0
 20 15  1  0  0  0  0
 21  7  1  0  0  0  0
 22  6  1  0  0  0  0
 23 28  1  0  0  0  0
 23 32  1  1  0  0  0
 24  2  1  0  0  0  0
 25 18  1  0  0  0  0
 25 19  1  0  0  0  0
 27 21  1  0  0  0  0
 27 25  1  0  0  0  0
 29 30  2  0  0  0  0
 30  4  1  0  0  0  0
 31 37  1  0  0  0  0
 32 31  2  0  0  0  0
 33 32  1  0  0  0  0
 33 36  2  0  0  0  0
 34 36  1  0  0  0  0
 35 37  2  0  0  0  0
 36 35  1  0  0  0  0
M  END
>  <MODEL>
6

>  <REMARK>
 VINA RESULT:      -9.7      3.346      6.749
  Name = 
  1 active torsions:
  status: ('A' for Active; 'I' for Inactive)
    1  A    between atoms: C_23  and  C_30
                            x       y       z     vdW  Elec       q    Type
                         _______ _______ _______ _____ _____    ______ ____

>  <TORSDO>
F 1

$$$$
=
 OpenBabel11122411323D

 37 44  0  0  1  0  0  0  0  0999 V2000
  188.2420  178.3150  145.8800 C   0  0  0  0  0  2  0  0  0  0  0  0
  190.8730  177.3410  142.3150 C   0  0  0  0  0  0  0  0  0  0  0  0
  186.7720  178.1270  141.3520 C   0  0  0  0  0  0  0  0  0  0  0  0
  188.3270  177.8350  147.2610 N   0  0  0  0  0  0  0  0  0  0  0  0
  184.4220  178.8630  144.3030 O   0  0  0  0  0  0  0  0  0  0  0  0
  189.0110  177.4840  140.4490 C   0  0  0  0  0  0  0  0  0  0  0  0
  186.2330  177.8920  142.7490 C   0  0  0  0  0  0  0  0  0  0  0  0
  186.1880  178.8320  147.6170 C   0  0  0  0  0  0  0  0  0  0  0  0
  188.0860  177.8140  141.5350 C   0  0  0  0  0  0  0  0  0  0  0  0
  184.7450  178.2080  143.0740 C   0  0  2  0  0  3  0  0  0  0  0  0
  188.7020  177.8750  139.0920 C   0  0  0  0  0  3  0  0  0  0  0  0
  187.1390  177.8040  148.0830 C   0  0  0  0  0  2  0  0  0  0  0  0
  188.3890  177.7420  142.8610 C   0  0  0  0  0  0  0  0  0  0  0  0
  191.2680  178.7260  142.5390 C   0  0  0  0  0  1  0  0  0  0  0  0
  184.8690  178.6690  139.5440 C   0  0  0  0  0  2  0  0  0  0  0  0
  187.2990  178.1210  138.8390 C   0  0  0  0  0  3  0  0  0  0  0  0
  189.7000  177.0780  143.2570 C   0  0  0  0  0  2  0  0  0  0  0  0
  185.2200  178.2900  146.6760 C   0  0  1  0  0  3  0  0  0  0  0  0
  185.4100  178.9600  145.3030 C   0  0  1  0  0  3  0  0  0  0  0  0
  186.3240  178.2450  139.8900 C   0  0  0  0  0  0  0  0  0  0  0  0
  187.3050  177.8380  143.6960 N   0  0  0  0  0  0  0  0  0  0  0  0
  190.3830  176.9720  140.8200 C   0  0  0  0  0  2  0  0  0  0  0  0
  183.9340  178.8950  141.9890 C   0  0  1  0  0  3  0  0  0  0  0  0
  192.1200  176.6900  142.7700 C   0  0  0  0  0  1  0  0  0  0  0  0
  185.8830  177.5360  145.6050 C   0  0  1  0  0  3  0  0  0  0  0  0
  186.0390  179.9890  147.9840 O   0  0  0  0  0  0  0  0  0  0  0  0
  187.3010  177.4260  145.0970 C   0  0  2  0  0  3  0  0  0  0  0  0
  183.9560  178.2240  140.6890 C   0  0  0  0  0  2  0  0  0  0  0  0
  190.2660  176.7150  146.9490 O   0  0  0  0  0  0  0  0  0  0  0  0
  189.3400  177.0820  147.7240 C   0  0  0  0  0  3  0  0  0  0  0  0
  182.0810  178.7120  143.6370 C   0  0  0  0  0  3  0  0  0  0  0  0
  182.5220  179.1210  142.3870 C   0  0  0  0  0  0  0  0  0  0  0  0
  181.5190  179.4120  141.4200 C   0  0  0  0  0  3  0  0  0  0  0  0
  178.9310  180.0050  140.6690 Cl  0  0  0  0  0  0  0  0  0  0  0  0
  179.8180  179.2120  143.1200 C   0  0  0  0  0  3  0  0  0  0  0  0
  180.1870  179.4890  141.8040 C   0  0  0  0  0  0  0  0  0  0  0  0
  180.7810  178.7710  143.9890 N   0  0  0  0  0  0  0  0  0  0  0  0
  1  4  1  0  0  0  0
  2 14  1  0  0  0  0
  2 24  1  0  0  0  0
  2 17  1  0  0  0  0
  3  9  1  0  0  0  0
  3  7  2  0  0  0  0
  4 30  1  0  0  0  0
  4 12  1  0  0  0  0
  6 22  1  0  0  0  0
  6  9  1  0  0  0  0
  7 21  1  0  0  0  0
  8 26  2  0  0  0  0
  8 12  1  0  0  0  0
  9 13  2  0  0  0  0
 10  7  1  6  0  0  0
 10  5  1  0  0  0  0
 11  6  2  0  0  0  0
 13 17  1  0  0  0  0
 13 21  1  0  0  0  0
 15 20  1  0  0  0  0
 15 28  1  0  0  0  0
 16 11  1  0  0  0  0
 16 20  2  0  0  0  0
 18  8  1  1  0  0  0
 19  5  1  6  0  0  0
 19 25  1  0  0  0  0
 19 18  1  0  0  0  0
 20  3  1  0  0  0  0
 21 27  1  0  0  0  0
 22  2  1  0  0  0  0
 23 32  1  1  0  0  0
 23 10  1  0  0  0  0
 25 18  1  0  0  0  0
 27 25  1  0  0  0  0
 27  1  1  0  0  0  0
 28 23  1  0  0  0  0
 29 30  2  0  0  0  0
 31 37  1  0  0  0  0
 32 31  2  0  0  0  0
 33 36  2  0  0  0  0
 33 32  1  0  0  0  0
 34 36  1  0  0  0  0
 35 37  2  0  0  0  0
 36 35  1  0  0  0  0
M  END
>  <MODEL>
7

>  <REMARK>
 VINA RESULT:      -9.7      2.349      5.366
  Name = 
  1 active torsions:
  status: ('A' for Active; 'I' for Inactive)
    1  A    between atoms: C_23  and  C_30
                            x       y       z     vdW  Elec       q    Type
                         _______ _______ _______ _____ _____    ______ ____

>  <TORSDO>
F 1

$$$$
=
 OpenBabel11122411323D

 37 44  0  0  1  0  0  0  0  0999 V2000
  189.2970  176.7530  145.0540 C   0  0  0  0  0  2  0  0  0  0  0  0
  185.1800  178.5640  145.6370 C   0  0  0  0  0  0  0  0  0  0  0  0
  186.4190  178.2160  141.5500 C   0  0  0  0  0  0  0  0  0  0  0  0
  190.4840  176.8360  145.9090 N   0  0  0  0  0  0  0  0  0  0  0  0
  189.9350  176.7900  140.9340 O   0  0  0  0  0  0  0  0  0  0  0  0
  184.6190  178.9990  143.0950 C   0  0  0  0  0  0  0  0  0  0  0  0
  187.9000  178.0820  141.8440 C   0  0  0  0  0  0  0  0  0  0  0  0
  191.7090  175.8580  144.1100 C   0  0  0  0  0  0  0  0  0  0  0  0
  185.9330  178.4190  142.8070 C   0  0  0  0  0  0  0  0  0  0  0  0
  188.8950  177.7420  140.6980 C   0  0  2  0  0  3  0  0  0  0  0  0
  183.5920  179.0030  142.0780 C   0  0  0  0  0  3  0  0  0  0  0  0
  191.7980  176.6860  145.3280 C   0  0  0  0  0  2  0  0  0  0  0  0
  186.8710  178.1180  143.7470 C   0  0  0  0  0  0  0  0  0  0  0  0
  184.8600  177.1570  145.8430 C   0  0  0  0  0  1  0  0  0  0  0  0
  185.8440  178.2530  138.9330 C   0  0  0  0  0  2  0  0  0  0  0  0
  184.0830  178.8850  140.7220 C   0  0  0  0  0  3  0  0  0  0  0  0
  186.6330  178.6020  145.1710 C   0  0  0  0  0  2  0  0  0  0  0  0
  191.5710  176.6690  142.9100 C   0  0  1  0  0  3  0  0  0  0  0  0
  190.2040  176.3900  142.2580 C   0  0  1  0  0  3  0  0  0  0  0  0
  185.4380  178.5150  140.4100 C   0  0  0  0  0  0  0  0  0  0  0  0
  188.1130  177.8380  143.2390 N   0  0  0  0  0  0  0  0  0  0  0  0
  184.2960  179.3410  144.5300 C   0  0  0  0  0  2  0  0  0  0  0  0
  188.2960  177.4050  139.3440 C   0  0  1  0  0  3  0  0  0  0  0  0
  185.0220  179.0210  147.0350 C   0  0  0  0  0  1  0  0  0  0  0  0
  190.4990  177.6610  143.0590 C   0  0  1  0  0  3  0  0  0  0  0  0
  191.8440  174.6500  143.9690 O   0  0  0  0  0  0  0  0  0  0  0  0
  189.3480  177.8540  144.0170 C   0  0  2  0  0  3  0  0  0  0  0  0
  187.3620  178.4030  138.8210 C   0  0  0  0  0  2  0  0  0  0  0  0
  189.4280  177.9290  147.5830 O   0  0  0  0  0  0  0  0  0  0  0  0
  190.4790  177.3980  147.1300 C   0  0  0  0  0  3  0  0  0  0  0  0
  189.2130  177.6940  137.0500 C   0  0  0  0  0  3  0  0  0  0  0  0
  189.3290  177.1310  138.3130 C   0  0  0  0  0  0  0  0  0  0  0  0
  190.2360  176.0420  138.4470 C   0  0  0  0  0  3  0  0  0  0  0  0
  192.3520  174.4900  137.5930 Cl  0  0  0  0  0  0  0  0  0  0  0  0
  191.0410  176.4350  136.2060 C   0  0  0  0  0  3  0  0  0  0  0  0
  191.1040  175.7310  137.4080 C   0  0  0  0  0  0  0  0  0  0  0  0
  190.0480  177.3650  136.0440 N   0  0  0  0  0  0  0  0  0  0  0  0
  1  4  1  0  0  0  0
  2 14  1  0  0  0  0
  2 24  1  0  0  0  0
  3  7  2  0  0  0  0
  3  9  1  0  0  0  0
  4 30  1  0  0  0  0
  6 22  1  0  0  0  0
  7 21  1  0  0  0  0
  8 12  1  0  0  0  0
  9  6  1  0  0  0  0
  9 13  2  0  0  0  0
 10  5  1  1  0  0  0
 10  7  1  0  0  0  0
 11  6  2  0  0  0  0
 12  4  1  0  0  0  0
 13 17  1  0  0  0  0
 15 20  1  0  0  0  0
 16 11  1  0  0  0  0
 17  2  1  0  0  0  0
 18 25  1  0  0  0  0
 18  8  1  1  0  0  0
 19  5  1  6  0  0  0
 19 18  1  0  0  0  0
 19 25  1  0  0  0  0
 20 16  2  0  0  0  0
 20  3  1  0  0  0  0
 21 13  1  0  0  0  0
 21 27  1  0  0  0  0
 22  2  1  0  0  0  0
 23 32  1  6  0  0  0
 23 10  1  0  0  0  0
 25 27  1  0  0  0  0
 26  8  2  0  0  0  0
 27  1  1  0  0  0  0
 28 15  1  0  0  0  0
 28 23  1  0  0  0  0
 30 29  2  0  0  0  0
 31 32  1  0  0  0  0
 32 33  2  0  0  0  0
 35 36  2  0  0  0  0
 36 34  1  0  0  0  0
 36 33  1  0  0  0  0
 37 35  1  0  0  0  0
 37 31  2  0  0  0  0
M  END
>  <MODEL>
8

>  <REMARK>
 VINA RESULT:      -9.7      3.575      7.943
  Name = 
  1 active torsions:
  status: ('A' for Active; 'I' for Inactive)
    1  A    between atoms: C_23  and  C_30
                            x       y       z     vdW  Elec       q    Type
                         _______ _______ _______ _____ _____    ______ ____

>  <TORSDO>
F 1

$$$$
=
 OpenBabel11122411323D

 37 44  0  0  1  0  0  0  0  0999 V2000
  188.0560  177.1200  139.3080 C   0  0  0  0  0  2  0  0  0  0  0  0
  187.9450  177.7430  143.8000 C   0  0  0  0  0  0  0  0  0  0  0  0
  184.2370  178.5100  141.7940 C   0  0  0  0  0  0  0  0  0  0  0  0
  189.1610  177.3160  138.3660 N   0  0  0  0  0  0  0  0  0  0  0  0
  184.2360  178.1160  137.9700 O   0  0  0  0  0  0  0  0  0  0  0  0
  185.4300  178.5210  143.9890 C   0  0  0  0  0  0  0  0  0  0  0  0
  184.8360  178.6790  140.4120 C   0  0  0  0  0  0  0  0  0  0  0  0
  187.5650  177.0300  136.6140 C   0  0  0  0  0  0  0  0  0  0  0  0
  185.3670  178.3410  142.5370 C   0  0  0  0  0  0  0  0  0  0  0  0
  183.9080  178.8180  139.1720 C   0  0  2  0  0  3  0  0  0  0  0  0
  184.2180  178.4780  144.7760 C   0  0  0  0  0  3  0  0  0  0  0  0
  188.8770  177.6010  136.9780 C   0  0  0  0  0  2  0  0  0  0  0  0
  186.4420  178.0940  141.7390 C   0  0  0  0  0  0  0  0  0  0  0  0
  187.8720  176.2880  143.7530 C   0  0  0  0  0  1  0  0  0  0  0  0
  181.5900  178.9200  141.8740 C   0  0  0  0  0  2  0  0  0  0  0  0
  183.0060  178.7500  144.0350 C   0  0  0  0  0  3  0  0  0  0  0  0
  187.8290  178.2190  142.3540 C   0  0  0  0  0  2  0  0  0  0  0  0
  186.4920  178.0040  136.7510 C   0  0  1  0  0  3  0  0  0  0  0  0
  185.5150  177.5400  137.8460 C   0  0  1  0  0  3  0  0  0  0  0  0
  182.9590  178.7830  142.5970 C   0  0  0  0  0  0  0  0  0  0  0  0
  186.1930  178.2240  140.3960 N   0  0  0  0  0  0  0  0  0  0  0  0
  186.7890  178.4880  144.6470 C   0  0  0  0  0  2  0  0  0  0  0  0
  182.4200  178.6200  139.4000 C   0  0  1  0  0  3  0  0  0  0  0  0
  189.3210  177.8660  144.3280 C   0  0  0  0  0  1  0  0  0  0  0  0
  186.5340  178.6620  138.0620 C   0  0  1  0  0  3  0  0  0  0  0  0
  187.2880  175.9420  136.1300 O   0  0  0  0  0  0  0  0  0  0  0  0
  187.2250  178.3820  139.3750 C   0  0  2  0  0  3  0  0  0  0  0  0
  181.8460  179.4480  140.4610 C   0  0  0  0  0  2  0  0  0  0  0  0
  190.6900  177.7740  139.9670 O   0  0  0  0  0  0  0  0  0  0  0  0
  190.4160  177.6100  138.7460 C   0  0  0  0  0  3  0  0  0  0  0  0
  181.2910  177.7110  137.3790 C   0  0  0  0  0  3  0  0  0  0  0  0
  181.6210  178.8080  138.1620 C   0  0  0  0  0  0  0  0  0  0  0  0
  181.4830  180.0890  137.5590 C   0  0  0  0  0  3  0  0  0  0  0  0
  180.5070  181.8000  135.6260 Cl  0  0  0  0  0  0  0  0  0  0  0  0
  180.3940  179.0780  135.6570 C   0  0  0  0  0  3  0  0  0  0  0  0
  180.8400  180.2130  136.3330 C   0  0  0  0  0  0  0  0  0  0  0  0
  180.6880  177.8470  136.1800 N   0  0  0  0  0  0  0  0  0  0  0  0
  1 27  1  0  0  0  0
  2 24  1  0  0  0  0
  2 22  1  0  0  0  0
  3  9  1  0  0  0  0
  3 20  1  0  0  0  0
  4 30  1  0  0  0  0
  4  1  1  0  0  0  0
  6 22  1  0  0  0  0
  6 11  2  0  0  0  0
  7  3  2  0  0  0  0
  8 12  1  0  0  0  0
  9  6  1  0  0  0  0
 10  5  1  6  0  0  0
 10 23  1  0  0  0  0
 10  7  1  0  0  0  0
 12  4  1  0  0  0  0
 13 17  1  0  0  0  0
 13  9  2  0  0  0  0
 14  2  1  0  0  0  0
 15 20  1  0  0  0  0
 16 11  1  0  0  0  0
 17  2  1  0  0  0  0
 18  8  1  1  0  0  0
 18 19  1  0  0  0  0
 18 25  1  0  0  0  0
 19  5  1  6  0  0  0
 19 25  1  0  0  0  0
 20 16  2  0  0  0  0
 21  7  1  0  0  0  0
 21 13  1  0  0  0  0
 23 32  1  6  0  0  0
 23 28  1  0  0  0  0
 25 27  1  0  0  0  0
 26  8  2  0  0  0  0
 27 21  1  0  0  0  0
 28 15  1  0  0  0  0
 30 29  2  0  0  0  0
 31 32  1  0  0  0  0
 33 32  2  0  0  0  0
 34 36  1  0  0  0  0
 35 37  1  0  0  0  0
 35 36  2  0  0  0  0
 36 33  1  0  0  0  0
 37 31  2  0  0  0  0
M  END
>  <MODEL>
9

>  <REMARK>
 VINA RESULT:      -9.5      2.442      3.970
  Name = 
  1 active torsions:
  status: ('A' for Active; 'I' for Inactive)
    1  A    between atoms: C_23  and  C_30
                            x       y       z     vdW  Elec       q    Type
                         _______ _______ _______ _____ _____    ______ ____

>  <TORSDO>
F 1

$$$$
