=
 OpenBabel11122410213D

 30 35  0  0  1  0  0  0  0  0999 V2000
  185.9620  178.2830  141.9880 C   0  0  0  0  0  0  0  0  0  0  0  0
  183.5500  178.9080  142.3520 C   0  0  0  0  0  0  0  0  0  0  0  0
  186.5400  177.7700  146.1180 N   0  0  0  0  0  0  0  0  0  0  0  0
  187.2230  177.9070  142.5460 C   0  0  0  0  0  0  0  0  0  0  0  0
  185.8610  178.4090  140.5970 C   0  0  0  0  0  3  0  0  0  0  0  0
  189.2850  177.6530  139.4610 O   0  0  0  0  0  1  0  0  0  0  0  0
  190.2220  178.3930  143.2700 C   0  0  1  0  0  3  0  0  0  0  0  0
  188.1930  177.8500  140.3050 C   0  0  0  0  0  0  0  0  0  0  0  0
  189.6370  178.2620  144.6830 C   0  0  2  0  0  3  0  0  0  0  0  0
  187.7790  177.3990  146.1560 C   0  0  0  0  0  0  0  0  0  0  0  0
  186.9500  178.1880  139.7600 C   0  0  0  0  0  0  0  0  0  0  0  0
  188.3460  177.7120  141.6950 C   0  0  0  0  0  0  0  0  0  0  0  0
  182.4930  179.1270  143.2410 C   0  0  0  0  0  3  0  0  0  0  0  0
  190.7190  177.8380  145.5630 N   0  0  0  0  0  2  0  0  0  0  0  0
  191.7190  178.2870  143.4400 C   0  0  0  0  0  2  0  0  0  0  0  0
  183.2950  179.0810  140.9960 O   0  0  0  0  0  1  0  0  0  0  0  0
  186.2280  177.9970  144.7540 C   0  0  0  0  0  0  0  0  0  0  0  0
  182.6730  178.9750  144.6140 C   0  0  0  0  0  3  0  0  0  0  0  0
  184.8320  178.5250  142.8380 C   0  0  0  0  0  0  0  0  0  0  0  0
  187.3030  177.7640  143.9410 C   0  0  0  0  0  0  0  0  0  0  0  0
  188.4360  177.0060  147.4330 C   0  0  0  0  0  1  0  0  0  0  0  0
  188.4400  177.3120  144.8010 C   0  0  1  0  0  3  0  0  0  0  0  0
  191.9410  178.3100  144.9330 C   0  0  0  0  0  2  0  0  0  0  0  0
  189.8930  175.9220  142.5760 C   0  0  0  0  0  1  0  0  0  0  0  0
  183.9150  178.6000  145.1150 C   0  0  0  0  0  3  0  0  0  0  0  0
  184.9890  178.3770  144.2470 C   0  0  0  0  0  0  0  0  0  0  0  0
  189.7240  177.3930  142.2130 C   0  0  2  0  0  3  0  0  0  0  0  0
  186.7760  178.3560  138.2840 C   0  0  0  0  0  2  0  0  0  0  0  0
  185.5240  176.6290  137.2040 O   0  0  0  0  0  1  0  0  0  0  0  0
  185.4080  177.8670  137.8380 C   0  0  0  0  0  2  0  0  0  0  0  0
  1  4  1  0  0  0  0
  1 19  1  0  0  0  0
  2 19  2  0  0  0  0
  2 13  1  0  0  0  0
  3 10  2  0  0  0  0
  4 20  1  0  0  0  0
  5  1  2  0  0  0  0
  6  8  1  0  0  0  0
  7 15  1  1  0  0  0
  7  9  1  0  0  0  0
  8 12  1  0  0  0  0
  9 22  1  0  0  0  0
  9 14  1  1  0  0  0
 10 21  1  0  0  0  0
 11  8  2  0  0  0  0
 11  5  1  0  0  0  0
 12 27  1  0  0  0  0
 12  4  2  0  0  0  0
 13 18  2  0  0  0  0
 15 23  1  0  0  0  0
 16  2  1  0  0  0  0
 17  3  1  0  0  0  0
 18 25  1  0  0  0  0
 19 26  1  0  0  0  0
 20 17  2  0  0  0  0
 22 20  1  6  0  0  0
 22 10  1  0  0  0  0
 23 14  1  0  0  0  0
 26 17  1  0  0  0  0
 26 25  2  0  0  0  0
 27 24  1  1  0  0  0
 27  7  1  0  0  0  0
 28 11  1  0  0  0  0
 29 30  1  0  0  0  0
 30 28  1  0  0  0  0
M  END
>  <MODEL>
1

>  <REMARK>
 VINA RESULT:     -10.0      0.000      0.000
  Name = 
  2 active torsions:
  status: ('A' for Active; 'I' for Inactive)
    1  A    between atoms: C_11  and  C_28
    2  A    between atoms: C_28  and  C_30
                            x       y       z     vdW  Elec       q    Type
                         _______ _______ _______ _____ _____    ______ ____

>  <TORSDO>
F 2

$$$$
=
 OpenBabel11122410213D

 30 35  0  0  1  0  0  0  0  0999 V2000
  186.6650  178.2540  142.2520 C   0  0  0  0  0  0  0  0  0  0  0  0
  187.7620  177.9410  144.4960 C   0  0  0  0  0  0  0  0  0  0  0  0
  182.9000  178.7060  144.0620 N   0  0  0  0  0  0  0  0  0  0  0  0
  185.4700  178.4690  141.4970 C   0  0  0  0  0  0  0  0  0  0  0  0
  187.8770  178.1370  141.5610 C   0  0  0  0  0  3  0  0  0  0  0  0
  186.8380  178.4480  138.0380 O   0  0  0  0  0  1  0  0  0  0  0  0
  183.2220  177.6110  139.5060 C   0  0  1  0  0  3  0  0  0  0  0  0
  186.7690  178.3950  139.4290 C   0  0  0  0  0  0  0  0  0  0  0  0
  182.3770  177.8200  140.7700 C   0  0  2  0  0  3  0  0  0  0  0  0
  182.1470  178.9180  143.0310 C   0  0  0  0  0  0  0  0  0  0  0  0
  187.9400  178.2140  140.1730 C   0  0  0  0  0  0  0  0  0  0  0  0
  185.5280  178.5170  140.0760 C   0  0  0  0  0  0  0  0  0  0  0  0
  187.6380  177.8620  145.8870 C   0  0  0  0  0  3  0  0  0  0  0  0
  181.0140  178.1080  140.3390 N   0  0  0  0  0  2  0  0  0  0  0  0
  182.2340  177.5270  138.3670 C   0  0  0  0  0  2  0  0  0  0  0  0
  189.0350  177.7960  143.9570 O   0  0  0  0  0  1  0  0  0  0  0  0
  184.2150  178.5150  143.5690 C   0  0  0  0  0  0  0  0  0  0  0  0
  186.3940  177.9950  146.5010 C   0  0  0  0  0  3  0  0  0  0  0  0
  186.6150  178.1610  143.6830 C   0  0  0  0  0  0  0  0  0  0  0  0
  184.2650  178.6060  142.2050 C   0  0  0  0  0  0  0  0  0  0  0  0
  180.6980  179.2290  143.1740 C   0  0  0  0  0  1  0  0  0  0  0  0
  182.8870  178.9150  141.7140 C   0  0  1  0  0  3  0  0  0  0  0  0
  180.8790  177.4820  139.0330 C   0  0  0  0  0  2  0  0  0  0  0  0
  183.8100  180.1010  139.1190 C   0  0  0  0  0  1  0  0  0  0  0  0
  185.2580  178.2110  145.7290 C   0  0  0  0  0  3  0  0  0  0  0  0
  185.3560  178.2930  144.3360 C   0  0  0  0  0  0  0  0  0  0  0  0
  184.3050  178.6620  139.2080 C   0  0  2  0  0  3  0  0  0  0  0  0
  189.2660  178.0640  139.4980 C   0  0  0  0  0  2  0  0  0  0  0  0
  190.5800  176.0670  139.5090 O   0  0  0  0  0  1  0  0  0  0  0  0
  190.1830  177.1500  140.2950 C   0  0  0  0  0  2  0  0  0  0  0  0
  1 19  1  0  0  0  0
  2 13  1  0  0  0  0
  4 20  1  0  0  0  0
  4  1  2  0  0  0  0
  5  1  1  0  0  0  0
  6  8  1  0  0  0  0
  7 15  1  6  0  0  0
  7  9  1  0  0  0  0
  8 12  2  0  0  0  0
  8 11  1  0  0  0  0
  9 14  1  6  0  0  0
  9 22  1  0  0  0  0
 10 21  1  0  0  0  0
 10  3  2  0  0  0  0
 11  5  2  0  0  0  0
 12  4  1  0  0  0  0
 13 18  2  0  0  0  0
 15 23  1  0  0  0  0
 16  2  1  0  0  0  0
 17  3  1  0  0  0  0
 17 26  1  0  0  0  0
 19 26  1  0  0  0  0
 19  2  2  0  0  0  0
 20 17  2  0  0  0  0
 22 20  1  1  0  0  0
 22 10  1  0  0  0  0
 23 14  1  0  0  0  0
 25 18  1  0  0  0  0
 26 25  2  0  0  0  0
 27 24  1  1  0  0  0
 27  7  1  0  0  0  0
 27 12  1  0  0  0  0
 28 11  1  0  0  0  0
 28 30  1  0  0  0  0
 29 30  1  0  0  0  0
M  END
>  <MODEL>
2

>  <REMARK>
 VINA RESULT:      -9.6      2.508      5.972
  Name = 
  2 active torsions:
  status: ('A' for Active; 'I' for Inactive)
    1  A    between atoms: C_11  and  C_28
    2  A    between atoms: C_28  and  C_30
                            x       y       z     vdW  Elec       q    Type
                         _______ _______ _______ _____ _____    ______ ____

>  <TORSDO>
F 2

$$$$
=
 OpenBabel11122410213D

 30 35  0  0  1  0  0  0  0  0999 V2000
  187.2320  178.1210  140.5170 C   0  0  0  0  0  0  0  0  0  0  0  0
  184.9880  178.8920  139.6780 C   0  0  0  0  0  0  0  0  0  0  0  0
  185.7760  177.8940  144.4520 N   0  0  0  0  0  0  0  0  0  0  0  0
  188.0530  177.7260  141.6180 C   0  0  0  0  0  0  0  0  0  0  0  0
  187.8020  178.1460  139.2380 C   0  0  0  0  0  3  0  0  0  0  0  0
  191.2870  177.1350  139.8790 O   0  0  0  0  0  1  0  0  0  0  0  0
  190.3980  178.1140  143.6450 C   0  0  1  0  0  3  0  0  0  0  0  0
  189.9490  177.4500  140.1010 C   0  0  0  0  0  0  0  0  0  0  0  0
  189.2130  178.1200  144.6210 C   0  0  2  0  0  3  0  0  0  0  0  0
  186.8210  177.4650  145.0840 C   0  0  0  0  0  0  0  0  0  0  0  0
  189.1340  177.8080  139.0220 C   0  0  0  0  0  0  0  0  0  0  0  0
  189.4240  177.4110  141.4040 C   0  0  0  0  0  0  0  0  0  0  0  0
  183.6600  179.2300  139.9550 C   0  0  0  0  0  3  0  0  0  0  0  0
  189.7230  177.7100  145.9240 N   0  0  0  0  0  2  0  0  0  0  0  0
  191.6300  177.9470  144.5030 C   0  0  0  0  0  2  0  0  0  0  0  0
  185.4080  178.9740  138.3550 O   0  0  0  0  0  1  0  0  0  0  0  0
  186.1550  178.0330  143.0930 C   0  0  0  0  0  0  0  0  0  0  0  0
  183.1660  179.1740  141.2560 C   0  0  0  0  0  3  0  0  0  0  0  0
  185.8600  178.4830  140.7250 C   0  0  0  0  0  0  0  0  0  0  0  0
  187.4630  177.6850  142.8920 C   0  0  0  0  0  0  0  0  0  0  0  0
  186.7740  177.1380  146.5360 C   0  0  0  0  0  1  0  0  0  0  0  0
  188.0280  177.2430  144.2040 C   0  0  1  0  0  3  0  0  0  0  0  0
  191.1310  178.0710  145.9230 C   0  0  0  0  0  2  0  0  0  0  0  0
  190.2340  175.6170  142.9870 C   0  0  0  0  0  1  0  0  0  0  0  0
  183.9970  178.7770  142.2980 C   0  0  0  0  0  3  0  0  0  0  0  0
  185.3300  178.4350  142.0470 C   0  0  0  0  0  0  0  0  0  0  0  0
  190.3720  177.0630  142.5220 C   0  0  2  0  0  3  0  0  0  0  0  0
  189.6820  177.8710  137.6320 C   0  0  0  0  0  2  0  0  0  0  0  0
  188.2070  177.9440  135.7510 O   0  0  0  0  0  1  0  0  0  0  0  0
  188.8020  178.7310  136.7380 C   0  0  0  0  0  2  0  0  0  0  0  0
  1 19  2  0  0  0  0
  1  4  1  0  0  0  0
  2 13  2  0  0  0  0
  2 19  1  0  0  0  0
  3 10  2  0  0  0  0
  4 20  2  0  0  0  0
  5  1  1  0  0  0  0
  6  8  1  0  0  0  0
  7 15  1  1  0  0  0
  7  9  1  0  0  0  0
  8 12  2  0  0  0  0
  9 14  1  1  0  0  0
 10 21  1  0  0  0  0
 11  5  2  0  0  0  0
 11  8  1  0  0  0  0
 12  4  1  0  0  0  0
 12 27  1  0  0  0  0
 13 18  1  0  0  0  0
 15 23  1  0  0  0  0
 16  2  1  0  0  0  0
 17  3  1  0  0  0  0
 18 25  2  0  0  0  0
 19 26  1  0  0  0  0
 20 17  1  0  0  0  0
 22 20  1  6  0  0  0
 22  9  1  0  0  0  0
 22 10  1  0  0  0  0
 23 14  1  0  0  0  0
 26 25  1  0  0  0  0
 26 17  2  0  0  0  0
 27 24  1  1  0  0  0
 27  7  1  0  0  0  0
 28 11  1  0  0  0  0
 29 30  1  0  0  0  0
 30 28  1  0  0  0  0
M  END
>  <MODEL>
3

>  <REMARK>
 VINA RESULT:      -9.1      1.514      2.169
  Name = 
  2 active torsions:
  status: ('A' for Active; 'I' for Inactive)
    1  A    between atoms: C_11  and  C_28
    2  A    between atoms: C_28  and  C_30
                            x       y       z     vdW  Elec       q    Type
                         _______ _______ _______ _____ _____    ______ ____

>  <TORSDO>
F 2

$$$$
=
 OpenBabel11122410213D

 30 35  0  0  1  0  0  0  0  0999 V2000
  187.8790  177.7420  142.9960 C   0  0  0  0  0  0  0  0  0  0  0  0
  186.7460  177.9080  145.2380 C   0  0  0  0  0  0  0  0  0  0  0  0
  184.3940  179.0480  141.0450 N   0  0  0  0  0  0  0  0  0  0  0  0
  187.7990  177.8800  141.5750 C   0  0  0  0  0  0  0  0  0  0  0  0
  189.0910  177.3200  143.5570 C   0  0  0  0  0  3  0  0  0  0  0  0
  191.2250  176.8140  140.5950 O   0  0  0  0  0  1  0  0  0  0  0  0
  187.7380  176.7770  138.6530 C   0  0  1  0  0  3  0  0  0  0  0  0
  190.1170  177.1320  141.3770 C   0  0  0  0  0  0  0  0  0  0  0  0
  186.3360  177.3980  138.7210 C   0  0  2  0  0  3  0  0  0  0  0  0
  184.7850  179.0630  139.8110 C   0  0  0  0  0  0  0  0  0  0  0  0
  190.2000  177.0270  142.7690 C   0  0  0  0  0  0  0  0  0  0  0  0
  188.9220  177.5500  140.7660 C   0  0  0  0  0  0  0  0  0  0  0  0
  185.5980  178.2070  145.9770 C   0  0  0  0  0  3  0  0  0  0  0  0
  185.9310  177.7060  137.3550 N   0  0  0  0  0  2  0  0  0  0  0  0
  187.9910  176.5060  137.1890 C   0  0  0  0  0  2  0  0  0  0  0  0
  187.8720  177.4940  145.9400 O   0  0  0  0  0  1  0  0  0  0  0  0
  185.4970  178.5960  141.8130 C   0  0  0  0  0  0  0  0  0  0  0  0
  184.4310  178.6280  145.3440 C   0  0  0  0  0  3  0  0  0  0  0  0
  186.7400  178.0300  143.8200 C   0  0  0  0  0  0  0  0  0  0  0  0
  186.5840  178.3240  141.0280 C   0  0  0  0  0  0  0  0  0  0  0  0
  183.9000  179.5540  138.7190 C   0  0  0  0  0  1  0  0  0  0  0  0
  186.2210  178.6390  139.6120 C   0  0  1  0  0  3  0  0  0  0  0  0
  186.6700  176.7810  136.5110 C   0  0  0  0  0  2  0  0  0  0  0  0
  189.0560  179.0040  138.7060 C   0  0  0  0  0  1  0  0  0  0  0  0
  184.3990  178.7560  143.9600 C   0  0  0  0  0  3  0  0  0  0  0  0
  185.5340  178.4610  143.1970 C   0  0  0  0  0  0  0  0  0  0  0  0
  188.8920  177.5930  139.2610 C   0  0  2  0  0  3  0  0  0  0  0  0
  191.4580  176.5660  143.4330 C   0  0  0  0  0  2  0  0  0  0  0  0
  191.6860  176.3810  145.8060 O   0  0  0  0  0  1  0  0  0  0  0  0
  191.6780  177.2940  144.7500 C   0  0  0  0  0  2  0  0  0  0  0  0
  1  5  1  0  0  0  0
  1 19  1  0  0  0  0
  2 16  1  0  0  0  0
  2 13  1  0  0  0  0
  3 17  1  0  0  0  0
  4  1  2  0  0  0  0
  6  8  1  0  0  0  0
  7 15  1  6  0  0  0
  7  9  1  0  0  0  0
  7 27  1  0  0  0  0
  8 11  1  0  0  0  0
  9 14  1  6  0  0  0
  9 22  1  0  0  0  0
 10  3  2  0  0  0  0
 11 28  1  0  0  0  0
 11  5  2  0  0  0  0
 12  8  2  0  0  0  0
 12  4  1  0  0  0  0
 17 26  1  0  0  0  0
 18 13  2  0  0  0  0
 19  2  2  0  0  0  0
 20  4  1  0  0  0  0
 20 17  2  0  0  0  0
 21 10  1  0  0  0  0
 22 10  1  1  0  0  0
 22 20  1  0  0  0  0
 23 15  1  0  0  0  0
 23 14  1  0  0  0  0
 25 18  1  0  0  0  0
 26 19  1  0  0  0  0
 26 25  2  0  0  0  0
 27 24  1  1  0  0  0
 27 12  1  0  0  0  0
 28 30  1  0  0  0  0
 30 29  1  0  0  0  0
M  END
>  <MODEL>
4

>  <REMARK>
 VINA RESULT:      -8.8      2.899      5.793
  Name = 
  2 active torsions:
  status: ('A' for Active; 'I' for Inactive)
    1  A    between atoms: C_11  and  C_28
    2  A    between atoms: C_28  and  C_30
                            x       y       z     vdW  Elec       q    Type
                         _______ _______ _______ _____ _____    ______ ____

>  <TORSDO>
F 2

$$$$
=
 OpenBabel11122410213D

 30 35  0  0  1  0  0  0  0  0999 V2000
  186.4140  178.3350  141.9980 C   0  0  0  0  0  0  0  0  0  0  0  0
  184.9780  178.6070  139.9480 C   0  0  0  0  0  0  0  0  0  0  0  0
  189.8230  177.6950  139.6260 N   0  0  0  0  0  0  0  0  0  0  0  0
  187.7030  178.0770  142.5590 C   0  0  0  0  0  0  0  0  0  0  0  0
  185.3410  178.5580  142.8700 C   0  0  0  0  0  3  0  0  0  0  0  0
  186.8990  178.1850  146.1890 O   0  0  0  0  0  1  0  0  0  0  0  0
  189.7810  176.3490  144.1260 C   0  0  1  0  0  3  0  0  0  0  0  0
  186.7540  178.2410  144.8050 C   0  0  0  0  0  0  0  0  0  0  0  0
  190.4640  176.3860  142.7520 C   0  0  2  0  0  3  0  0  0  0  0  0
  190.7370  177.5520  140.5310 C   0  0  0  0  0  0  0  0  0  0  0  0
  185.5000  178.5230  144.2520 C   0  0  0  0  0  0  0  0  0  0  0  0
  187.8610  178.0090  143.9710 C   0  0  0  0  0  0  0  0  0  0  0  0
  184.8750  178.6200  138.5540 C   0  0  0  0  0  3  0  0  0  0  0  0
  191.8890  176.1700  142.9700 N   0  0  0  0  0  2  0  0  0  0  0  0
  190.8290  175.8410  145.0870 C   0  0  0  0  0  2  0  0  0  0  0  0
  183.8180  178.8390  140.6800 O   0  0  0  0  0  1  0  0  0  0  0  0
  188.6010  177.9000  140.3160 C   0  0  0  0  0  0  0  0  0  0  0  0
  185.9930  178.3960  137.7540 C   0  0  0  0  0  3  0  0  0  0  0  0
  186.2320  178.3630  140.5750 C   0  0  0  0  0  0  0  0  0  0  0  0
  188.7740  177.8760  141.6730 C   0  0  0  0  0  0  0  0  0  0  0  0
  192.1720  177.3830  140.1690 C   0  0  0  0  0  1  0  0  0  0  0  0
  190.2290  177.6690  141.9480 C   0  0  1  0  0  3  0  0  0  0  0  0
  191.9840  175.4170  144.2100 C   0  0  0  0  0  2  0  0  0  0  0  0
  190.1280  178.8470  144.7040 C   0  0  0  0  0  1  0  0  0  0  0  0
  187.2300  178.1550  138.3420 C   0  0  0  0  0  3  0  0  0  0  0  0
  187.3590  178.1360  139.7340 C   0  0  0  0  0  0  0  0  0  0  0  0
  189.1680  177.6640  144.6370 C   0  0  2  0  0  3  0  0  0  0  0  0
  184.3080  178.7540  145.1250 C   0  0  0  0  0  2  0  0  0  0  0  0
  182.0820  178.6340  144.2600 O   0  0  0  0  0  1  0  0  0  0  0  0
  183.2010  179.4620  144.3600 C   0  0  0  0  0  2  0  0  0  0  0  0
  1  4  1  0  0  0  0
  1  5  2  0  0  0  0
  2 19  1  0  0  0  0
  2 16  1  0  0  0  0
  3 17  1  0  0  0  0
  3 10  2  0  0  0  0
  4 12  2  0  0  0  0
  5 11  1  0  0  0  0
  7 27  1  0  0  0  0
  7 15  1  1  0  0  0
  8  6  1  0  0  0  0
  9 14  1  1  0  0  0
  9  7  1  0  0  0  0
 11  8  2  0  0  0  0
 11 28  1  0  0  0  0
 12 27  1  0  0  0  0
 12  8  1  0  0  0  0
 13  2  2  0  0  0  0
 14 23  1  0  0  0  0
 17 20  2  0  0  0  0
 18 25  2  0  0  0  0
 18 13  1  0  0  0  0
 19  1  1  0  0  0  0
 20 22  1  0  0  0  0
 20  4  1  0  0  0  0
 21 10  1  0  0  0  0
 22 10  1  6  0  0  0
 22  9  1  0  0  0  0
 23 15  1  0  0  0  0
 25 26  1  0  0  0  0
 26 17  1  0  0  0  0
 26 19  2  0  0  0  0
 27 24  1  6  0  0  0
 29 30  1  0  0  0  0
 30 28  1  0  0  0  0
M  END
>  <MODEL>
5

>  <REMARK>
 VINA RESULT:      -8.6      2.163      4.923
  Name = 
  2 active torsions:
  status: ('A' for Active; 'I' for Inactive)
    1  A    between atoms: C_11  and  C_28
    2  A    between atoms: C_28  and  C_30
                            x       y       z     vdW  Elec       q    Type
                         _______ _______ _______ _____ _____    ______ ____

>  <TORSDO>
F 2

$$$$
=
 OpenBabel11122410213D

 30 35  0  0  1  0  0  0  0  0999 V2000
  186.5580  178.0720  144.8870 C   0  0  0  0  0  0  0  0  0  0  0  0
  184.0980  178.4690  145.2460 C   0  0  0  0  0  0  0  0  0  0  0  0
  186.1530  178.7650  140.7620 N   0  0  0  0  0  0  0  0  0  0  0  0
  187.6620  177.9900  143.9820 C   0  0  0  0  0  0  0  0  0  0  0  0
  186.7950  177.8460  146.2480 C   0  0  0  0  0  3  0  0  0  0  0  0
  190.4020  177.0950  146.3310 O   0  0  0  0  0  1  0  0  0  0  0  0
  189.8980  176.4660  142.4220 C   0  0  1  0  0  3  0  0  0  0  0  0
  189.1410  177.4270  145.8430 C   0  0  0  0  0  0  0  0  0  0  0  0
  189.0560  176.9650  141.2390 C   0  0  2  0  0  3  0  0  0  0  0  0
  187.3760  178.6310  140.3620 C   0  0  0  0  0  0  0  0  0  0  0  0
  188.0640  177.5370  146.7290 C   0  0  0  0  0  0  0  0  0  0  0  0
  188.9530  177.6440  144.4680 C   0  0  0  0  0  0  0  0  0  0  0  0
  182.8450  178.7730  144.7050 C   0  0  0  0  0  3  0  0  0  0  0  0
  189.9350  177.0310  140.0780 N   0  0  0  0  0  2  0  0  0  0  0  0
  191.2040  176.0040  141.8230 C   0  0  0  0  0  2  0  0  0  0  0  0
  184.1710  178.2630  146.6190 O   0  0  0  0  0  1  0  0  0  0  0  0
  186.1580  178.5300  142.1600 C   0  0  0  0  0  0  0  0  0  0  0  0
  182.6920  178.9910  143.3370 C   0  0  0  0  0  3  0  0  0  0  0  0
  185.2420  178.3780  144.4040 C   0  0  0  0  0  0  0  0  0  0  0  0
  187.4120  178.2410  142.6220 C   0  0  0  0  0  0  0  0  0  0  0  0
  187.7640  178.8750  138.9450 C   0  0  0  0  0  1  0  0  0  0  0  0
  188.3560  178.3100  141.4650 C   0  0  1  0  0  3  0  0  0  0  0  0
  190.9860  176.0590  140.3300 C   0  0  0  0  0  2  0  0  0  0  0  0
  190.7870  178.7830  143.1570 C   0  0  0  0  0  1  0  0  0  0  0  0
  183.7940  178.9090  142.4930 C   0  0  0  0  0  3  0  0  0  0  0  0
  185.0580  178.6050  143.0090 C   0  0  0  0  0  0  0  0  0  0  0  0
  190.1480  177.4610  143.5680 C   0  0  2  0  0  3  0  0  0  0  0  0
  188.2440  177.2920  148.1940 C   0  0  0  0  0  2  0  0  0  0  0  0
  190.0510  178.6270  149.0120 O   0  0  0  0  0  1  0  0  0  0  0  0
  188.6600  178.5650  148.9130 C   0  0  0  0  0  2  0  0  0  0  0  0
  1  5  1  0  0  0  0
  2 16  1  0  0  0  0
  3 17  1  0  0  0  0
  4 12  1  0  0  0  0
  4  1  2  0  0  0  0
  5 11  2  0  0  0  0
  7 15  1  6  0  0  0
  7 27  1  0  0  0  0
  8  6  1  0  0  0  0
  8 11  1  0  0  0  0
  9 14  1  6  0  0  0
  9 22  1  0  0  0  0
  9  7  1  0  0  0  0
 10  3  2  0  0  0  0
 11 28  1  0  0  0  0
 12  8  2  0  0  0  0
 13  2  1  0  0  0  0
 14 23  1  0  0  0  0
 17 20  2  0  0  0  0
 17 26  1  0  0  0  0
 18 13  2  0  0  0  0
 19  1  1  0  0  0  0
 19  2  2  0  0  0  0
 20  4  1  0  0  0  0
 21 10  1  0  0  0  0
 22 10  1  6  0  0  0
 22 20  1  0  0  0  0
 23 15  1  0  0  0  0
 25 26  2  0  0  0  0
 25 18  1  0  0  0  0
 26 19  1  0  0  0  0
 27 24  1  6  0  0  0
 27 12  1  0  0  0  0
 28 30  1  0  0  0  0
 30 29  1  0  0  0  0
M  END
>  <MODEL>
6

>  <REMARK>
 VINA RESULT:      -8.5      2.953      5.471
  Name = 
  2 active torsions:
  status: ('A' for Active; 'I' for Inactive)
    1  A    between atoms: C_11  and  C_28
    2  A    between atoms: C_28  and  C_30
                            x       y       z     vdW  Elec       q    Type
                         _______ _______ _______ _____ _____    ______ ____

>  <TORSDO>
F 2

$$$$
=
 OpenBabel11122410213D

 30 35  0  0  1  0  0  0  0  0999 V2000
  189.5550  177.0830  143.5370 C   0  0  0  0  0  0  0  0  0  0  0  0
  191.4110  176.0980  144.9240 C   0  0  0  0  0  0  0  0  0  0  0  0
  187.4060  178.1170  146.9970 N   0  0  0  0  0  0  0  0  0  0  0  0
  188.2790  177.7240  143.4860 C   0  0  0  0  0  0  0  0  0  0  0  0
  190.2050  176.7970  142.3310 C   0  0  0  0  0  3  0  0  0  0  0  0
  187.8040  178.0010  139.8070 O   0  0  0  0  0  1  0  0  0  0  0  0
  185.2230  177.8350  142.8470 C   0  0  1  0  0  3  0  0  0  0  0  0
  188.3750  177.7120  141.0440 C   0  0  0  0  0  0  0  0  0  0  0  0
  185.1720  178.0120  144.3710 C   0  0  2  0  0  3  0  0  0  0  0  0
  186.3670  178.6960  146.4860 C   0  0  0  0  0  0  0  0  0  0  0  0
  189.6380  177.1110  141.1000 C   0  0  0  0  0  0  0  0  0  0  0  0
  187.6820  178.0180  142.2280 C   0  0  0  0  0  0  0  0  0  0  0  0
  191.9290  175.7980  146.1880 C   0  0  0  0  0  3  0  0  0  0  0  0
  183.9280  178.7040  144.6870 N   0  0  0  0  0  2  0  0  0  0  0  0
  183.8480  178.2110  142.3490 C   0  0  0  0  0  2  0  0  0  0  0  0
  192.1740  175.7440  143.8170 O   0  0  0  0  0  1  0  0  0  0  0  0
  188.2110  177.6980  145.9080 C   0  0  0  0  0  0  0  0  0  0  0  0
  191.2220  176.1210  147.3440 C   0  0  0  0  0  3  0  0  0  0  0  0
  190.1490  176.7430  144.7980 C   0  0  0  0  0  0  0  0  0  0  0  0
  187.6480  178.0240  144.7050 C   0  0  0  0  0  0  0  0  0  0  0  0
  185.3260  179.3260  147.3430 C   0  0  0  0  0  1  0  0  0  0  0  0
  186.3700  178.7510  144.9770 C   0  0  1  0  0  3  0  0  0  0  0  0
  183.0180  178.3830  143.5990 C   0  0  0  0  0  2  0  0  0  0  0  0
  186.2980  180.1280  142.3130 C   0  0  0  0  0  1  0  0  0  0  0  0
  189.9860  176.7520  147.2490 C   0  0  0  0  0  3  0  0  0  0  0  0
  189.4460  177.0620  145.9960 C   0  0  0  0  0  0  0  0  0  0  0  0
  186.3080  178.6200  142.0900 C   0  0  2  0  0  3  0  0  0  0  0  0
  190.3800  176.7630  139.8490 C   0  0  0  0  0  2  0  0  0  0  0  0
  192.5420  176.7530  138.8270 O   0  0  0  0  0  1  0  0  0  0  0  0
  191.8230  177.2350  139.9230 C   0  0  0  0  0  2  0  0  0  0  0  0
  1 19  1  0  0  0  0
  2 13  1  0  0  0  0
  4  1  1  0  0  0  0
  4 20  1  0  0  0  0
  5  1  2  0  0  0  0
  6  8  1  0  0  0  0
  7 15  1  6  0  0  0
  7  9  1  0  0  0  0
  8 11  2  0  0  0  0
  8 12  1  0  0  0  0
  9 14  1  6  0  0  0
  9 22  1  0  0  0  0
 10  3  2  0  0  0  0
 10 21  1  0  0  0  0
 11  5  1  0  0  0  0
 12  4  2  0  0  0  0
 13 18  2  0  0  0  0
 15 23  1  0  0  0  0
 16  2  1  0  0  0  0
 17 26  1  0  0  0  0
 17  3  1  0  0  0  0
 19  2  2  0  0  0  0
 19 26  1  0  0  0  0
 20 17  2  0  0  0  0
 22 20  1  6  0  0  0
 22 10  1  0  0  0  0
 23 14  1  0  0  0  0
 25 18  1  0  0  0  0
 26 25  2  0  0  0  0
 27 12  1  0  0  0  0
 27 24  1  1  0  0  0
 27  7  1  0  0  0  0
 28 30  1  0  0  0  0
 28 11  1  0  0  0  0
 29 30  1  0  0  0  0
M  END
>  <MODEL>
7

>  <REMARK>
 VINA RESULT:      -8.4      2.052      5.669
  Name = 
  2 active torsions:
  status: ('A' for Active; 'I' for Inactive)
    1  A    between atoms: C_11  and  C_28
    2  A    between atoms: C_28  and  C_30
                            x       y       z     vdW  Elec       q    Type
                         _______ _______ _______ _____ _____    ______ ____

>  <TORSDO>
F 2

$$$$
=
 OpenBabel11122410213D

 30 35  0  0  1  0  0  0  0  0999 V2000
  187.6200  178.0250  141.9150 C   0  0  0  0  0  0  0  0  0  0  0  0
  186.7940  178.1630  144.2890 C   0  0  0  0  0  0  0  0  0  0  0  0
  183.7830  178.8950  140.4410 N   0  0  0  0  0  0  0  0  0  0  0  0
  187.3330  178.0980  140.5170 C   0  0  0  0  0  0  0  0  0  0  0  0
  188.9350  177.7500  142.3110 C   0  0  0  0  0  3  0  0  0  0  0  0
  190.6850  177.3460  139.0930 O   0  0  0  0  0  1  0  0  0  0  0  0
  186.9890  176.8820  137.6600 C   0  0  1  0  0  3  0  0  0  0  0  0
  189.6670  177.5810  140.0140 C   0  0  0  0  0  0  0  0  0  0  0  0
  185.5510  177.3590  137.9090 C   0  0  2  0  0  3  0  0  0  0  0  0
  183.9970  178.9010  139.1650 C   0  0  0  0  0  0  0  0  0  0  0  0
  189.9510  177.5390  141.3830 C   0  0  0  0  0  0  0  0  0  0  0  0
  188.3630  177.8520  139.5670 C   0  0  0  0  0  0  0  0  0  0  0  0
  185.7320  178.3730  145.1750 C   0  0  0  0  0  3  0  0  0  0  0  0
  184.9330  177.5720  136.6060 N   0  0  0  0  0  2  0  0  0  0  0  0
  187.0660  176.5800  136.1830 C   0  0  0  0  0  2  0  0  0  0  0  0
  188.0430  177.8920  144.8370 O   0  0  0  0  0  1  0  0  0  0  0  0
  185.0220  178.5870  141.0570 C   0  0  0  0  0  0  0  0  0  0  0  0
  184.4510  178.6480  144.7020 C   0  0  0  0  0  3  0  0  0  0  0  0
  186.5810  178.2280  142.8830 C   0  0  0  0  0  0  0  0  0  0  0  0
  186.0140  178.3950  140.1350 C   0  0  0  0  0  0  0  0  0  0  0  0
  182.9240  179.2560  138.1950 C   0  0  0  0  0  1  0  0  0  0  0  0
  185.4290  178.6170  138.7770 C   0  0  1  0  0  3  0  0  0  0  0  0
  185.6430  176.6930  135.6900 C   0  0  0  0  0  2  0  0  0  0  0  0
  188.0590  179.2300  137.4730 C   0  0  0  0  0  1  0  0  0  0  0  0
  184.2170  178.7180  143.3330 C   0  0  0  0  0  3  0  0  0  0  0  0
  185.2620  178.5100  142.4260 C   0  0  0  0  0  0  0  0  0  0  0  0
  188.1230  177.8330  138.0800 C   0  0  2  0  0  3  0  0  0  0  0  0
  191.3300  177.2350  141.8750 C   0  0  0  0  0  2  0  0  0  0  0  0
  191.8120  178.1210  144.0440 O   0  0  0  0  0  1  0  0  0  0  0  0
  191.3320  176.9920  143.3760 C   0  0  0  0  0  2  0  0  0  0  0  0
  1  5  1  0  0  0  0
  1 19  1  0  0  0  0
  2 16  1  0  0  0  0
  2 13  1  0  0  0  0
  3 17  1  0  0  0  0
  4  1  2  0  0  0  0
  6  8  1  0  0  0  0
  7 15  1  6  0  0  0
  7  9  1  0  0  0  0
  7 27  1  0  0  0  0
  8 11  1  0  0  0  0
  9 14  1  6  0  0  0
  9 22  1  0  0  0  0
 10  3  2  0  0  0  0
 11 28  1  0  0  0  0
 11  5  2  0  0  0  0
 12  8  2  0  0  0  0
 12  4  1  0  0  0  0
 17 26  1  0  0  0  0
 18 13  2  0  0  0  0
 19  2  2  0  0  0  0
 20  4  1  0  0  0  0
 20 17  2  0  0  0  0
 21 10  1  0  0  0  0
 22 10  1  1  0  0  0
 22 20  1  0  0  0  0
 23 15  1  0  0  0  0
 23 14  1  0  0  0  0
 25 18  1  0  0  0  0
 26 19  1  0  0  0  0
 26 25  2  0  0  0  0
 27 24  1  1  0  0  0
 27 12  1  0  0  0  0
 28 30  1  0  0  0  0
 30 29  1  0  0  0  0
M  END
>  <MODEL>
8

>  <REMARK>
 VINA RESULT:      -8.2      2.871      6.070
  Name = 
  2 active torsions:
  status: ('A' for Active; 'I' for Inactive)
    1  A    between atoms: C_11  and  C_28
    2  A    between atoms: C_28  and  C_30
                            x       y       z     vdW  Elec       q    Type
                         _______ _______ _______ _____ _____    ______ ____

>  <TORSDO>
F 2

$$$$
=
 OpenBabel11122410213D

 30 35  0  0  1  0  0  0  0  0999 V2000
  185.6490  178.3290  143.5790 C   0  0  0  0  0  0  0  0  0  0  0  0
  183.2510  178.6590  142.8890 C   0  0  0  0  0  0  0  0  0  0  0  0
  186.9260  178.6280  139.5870 N   0  0  0  0  0  0  0  0  0  0  0  0
  187.0230  178.2090  143.2010 C   0  0  0  0  0  0  0  0  0  0  0  0
  185.3230  178.2370  144.9370 C   0  0  0  0  0  3  0  0  0  0  0  0
  188.5960  177.6400  146.5220 O   0  0  0  0  0  1  0  0  0  0  0  0
  189.6960  176.6390  142.8180 C   0  0  1  0  0  3  0  0  0  0  0  0
  187.6340  177.8760  145.5420 C   0  0  0  0  0  0  0  0  0  0  0  0
  189.3960  176.9940  141.3540 C   0  0  2  0  0  3  0  0  0  0  0  0
  188.2080  178.5070  139.7210 C   0  0  0  0  0  0  0  0  0  0  0  0
  186.2930  178.0240  145.9120 C   0  0  0  0  0  0  0  0  0  0  0  0
  188.0120  177.9600  144.1910 C   0  0  0  0  0  0  0  0  0  0  0  0
  182.3180  178.8630  141.8670 C   0  0  0  0  0  3  0  0  0  0  0  0
  190.6660  176.9890  140.6380 N   0  0  0  0  0  2  0  0  0  0  0  0
  191.1330  176.1760  142.8370 C   0  0  0  0  0  2  0  0  0  0  0  0
  182.7700  178.5820  144.1910 O   0  0  0  0  0  1  0  0  0  0  0  0
  186.3720  178.5210  140.8870 C   0  0  0  0  0  0  0  0  0  0  0  0
  182.7240  178.9500  140.5370 C   0  0  0  0  0  3  0  0  0  0  0  0
  184.6360  178.5380  142.5850 C   0  0  0  0  0  0  0  0  0  0  0  0
  187.3370  178.3250  141.8360 C   0  0  0  0  0  0  0  0  0  0  0  0
  189.1290  178.6360  138.5590 C   0  0  0  0  0  1  0  0  0  0  0  0
  188.6650  178.3250  141.1490 C   0  0  1  0  0  3  0  0  0  0  0  0
  191.5300  176.0860  141.3830 C   0  0  0  0  0  2  0  0  0  0  0  0
  190.2170  179.0460  143.6120 C   0  0  0  0  0  1  0  0  0  0  0  0
  184.0720  178.8350  140.2140 C   0  0  0  0  0  3  0  0  0  0  0  0
  185.0240  178.6300  141.2170 C   0  0  0  0  0  0  0  0  0  0  0  0
  189.4670  177.7430  143.8640 C   0  0  2  0  0  3  0  0  0  0  0  0
  185.8730  177.9200  147.3430 C   0  0  0  0  0  2  0  0  0  0  0  0
  186.0550  180.2750  147.7160 O   0  0  0  0  0  1  0  0  0  0  0  0
  186.4930  179.0310  148.1750 C   0  0  0  0  0  2  0  0  0  0  0  0
  1  5  2  0  0  0  0
  2 16  1  0  0  0  0
  3 10  2  0  0  0  0
  3 17  1  0  0  0  0
  4  1  1  0  0  0  0
  4 12  2  0  0  0  0
  5 11  1  0  0  0  0
  7 15  1  6  0  0  0
  7 27  1  0  0  0  0
  8 11  2  0  0  0  0
  8  6  1  0  0  0  0
  9 14  1  6  0  0  0
  9  7  1  0  0  0  0
 11 28  1  0  0  0  0
 12  8  1  0  0  0  0
 13  2  2  0  0  0  0
 14 23  1  0  0  0  0
 17 26  1  0  0  0  0
 17 20  2  0  0  0  0
 18 13  1  0  0  0  0
 19  2  1  0  0  0  0
 19  1  1  0  0  0  0
 20  4  1  0  0  0  0
 21 10  1  0  0  0  0
 22 10  1  6  0  0  0
 22  9  1  0  0  0  0
 22 20  1  0  0  0  0
 23 15  1  0  0  0  0
 25 18  2  0  0  0  0
 25 26  1  0  0  0  0
 26 19  2  0  0  0  0
 27 24  1  6  0  0  0
 27 12  1  0  0  0  0
 28 30  1  0  0  0  0
 29 30  1  0  0  0  0
M  END
>  <MODEL>
9

>  <REMARK>
 VINA RESULT:      -8.0      2.797      5.182
  Name = 
  2 active torsions:
  status: ('A' for Active; 'I' for Inactive)
    1  A    between atoms: C_11  and  C_28
    2  A    between atoms: C_28  and  C_30
                            x       y       z     vdW  Elec       q    Type
                         _______ _______ _______ _____ _____    ______ ____

>  <TORSDO>
F 2

$$$$
