=
 OpenBabel11122411563D

 28 32  0  0  1  0  0  0  0  0999 V2000
  189.4190  178.0580  138.0440 C   0  0  0  0  0  0  0  0  0  0  0  0
  192.4530  175.9740  134.5940 F   0  0  0  0  0  0  0  0  0  0  0  0
  186.8150  174.4190  137.2270 O   0  0  0  0  0  0  0  0  0  0  0  0
  189.9910  176.7720  140.4630 C   0  0  0  0  0  3  0  0  0  0  0  0
  189.0220  173.5230  136.8430 C   0  0  2  0  0  3  0  0  0  0  0  0
  189.0990  178.6570  136.8250 O   0  0  0  0  0  0  0  0  0  0  0  0
  194.0190  176.7530  136.1730 C   0  0  0  0  0  1  0  0  0  0  0  0
  193.0540  175.6460  135.7990 C   0  0  1  0  0  0  0  0  0  0  0  0
  192.8530  173.2280  135.5090 C   0  0  1  0  0  3  0  0  0  0  0  0
  192.0080  175.4820  136.9320 C   0  0  2  0  0  3  0  0  0  0  0  0
  186.4580  177.2780  137.5440 O   0  0  0  0  0  1  0  0  0  0  0  0
  189.8460  175.6370  135.8780 C   0  0  1  0  0  3  0  0  0  0  0  0
  192.2170  173.0810  136.7550 O   0  0  0  0  0  0  0  0  0  0  0  0
  193.8420  174.3670  135.6030 C   0  0  0  0  0  2  0  0  0  0  0  0
  186.8910  177.7580  136.3060 C   0  0  2  0  0  3  0  0  0  0  0  0
  190.2850  176.9550  138.0540 C   0  0  0  0  0  0  0  0  0  0  0  0
  187.9950  174.5870  136.8190 C   0  0  0  0  0  0  0  0  0  0  0  0
  193.5900  171.9500  135.1670 C   0  0  0  0  0  1  0  0  0  0  0  0
  187.5520  176.6540  135.4690 C   0  0  0  0  0  2  0  0  0  0  0  0
  190.5560  176.3080  139.2720 C   0  0  0  0  0  3  0  0  0  0  0  0
  188.8500  178.5180  139.2400 C   0  0  0  0  0  3  0  0  0  0  0  0
  189.1400  177.8780  140.4470 C   0  0  0  0  0  3  0  0  0  0  0  0
  187.7650  179.0030  136.4760 C   0  0  0  0  0  2  0  0  0  0  0  0
  190.2060  174.1600  136.1160 C   0  0  1  0  0  3  0  0  0  0  0  0
  188.4480  175.8060  136.2550 N   0  0  0  0  0  0  0  0  0  0  0  0
  191.3800  174.1480  136.9870 N   0  0  2  0  0  0  0  0  0  0  0  0
  188.5760  172.4170  136.1190 O   0  0  0  0  0  1  0  0  0  0  0  0
  190.8430  176.4460  136.7360 C   0  0  1  0  0  3  0  0  0  0  0  0
  1 16  2  0  0  0  0
  1 21  1  0  0  0  0
  2  8  1  0  0  0  0
  5 27  1  6  0  0  0
  6  1  1  0  0  0  0
  8  7  1  1  0  0  0
  8 10  1  0  0  0  0
  9 18  1  1  0  0  0
  9 14  1  0  0  0  0
  9 13  1  0  0  0  0
 10 26  1  0  0  0  0
 12 24  1  0  0  0  0
 12 25  1  0  0  0  0
 12 28  1  0  0  0  0
 13 26  1  0  0  0  0
 14  8  1  0  0  0  0
 15 23  1  0  0  0  0
 15 11  1  0  0  0  0
 16 20  1  0  0  0  0
 17  5  1  0  0  0  0
 17  3  2  0  0  0  0
 19 25  1  0  0  0  0
 19 15  1  0  0  0  0
 20  4  2  0  0  0  0
 21 22  2  0  0  0  0
 22  4  1  0  0  0  0
 23  6  1  0  0  0  0
 24  5  1  0  0  0  0
 24 26  1  0  0  0  0
 25 17  1  0  0  0  0
 28 10  1  0  0  0  0
 28 16  1  0  0  0  0
M  END
>  <MODEL>
1

>  <REMARK>
 VINA RESULT:      -6.1      0.000      0.000
  Name = 
  0 active torsions:
  status: ('A' for Active; 'I' for Inactive)
                            x       y       z     vdW  Elec       q    Type
                         _______ _______ _______ _____ _____    ______ ____

>  <TORSDO>
F 0

$$$$
=
 OpenBabel11122411563D

 28 32  0  0  1  0  0  0  0  0999 V2000
  181.0330  179.2260  137.8070 C   0  0  0  0  0  0  0  0  0  0  0  0
  185.4210  176.8330  138.4950 F   0  0  0  0  0  0  0  0  0  0  0  0
  180.6700  178.8110  142.3230 O   0  0  0  0  0  0  0  0  0  0  0  0
  181.5230  181.9250  138.3650 C   0  0  0  0  0  3  0  0  0  0  0  0
  183.0610  178.9840  142.0500 C   0  0  2  0  0  3  0  0  0  0  0  0
  180.7820  177.8720  137.5850 O   0  0  0  0  0  0  0  0  0  0  0  0
  186.0200  178.4350  136.8740 C   0  0  0  0  0  1  0  0  0  0  0  0
  185.7920  178.1600  138.3470 C   0  0  1  0  0  0  0  0  0  0  0  0
  186.7970  178.3700  140.5640 C   0  0  1  0  0  3  0  0  0  0  0  0
  184.6970  179.1220  138.8770 C   0  0  2  0  0  3  0  0  0  0  0  0
  178.9790  178.4430  139.9970 O   0  0  0  0  0  1  0  0  0  0  0  0
  183.0320  177.7290  139.9270 C   0  0  1  0  0  3  0  0  0  0  0  0
  186.0170  179.5020  140.8650 O   0  0  0  0  0  0  0  0  0  0  0  0
  187.0980  178.3720  139.0830 C   0  0  0  0  0  2  0  0  0  0  0  0
  179.4310  177.2160  139.5080 C   0  0  2  0  0  3  0  0  0  0  0  0
  182.2770  179.6110  138.3310 C   0  0  0  0  0  0  0  0  0  0  0  0
  181.7010  178.5680  141.6420 C   0  0  0  0  0  0  0  0  0  0  0  0
  188.0940  178.4330  141.3410 C   0  0  0  0  0  1  0  0  0  0  0  0
  180.7050  176.7520  140.2270 C   0  0  0  0  0  2  0  0  0  0  0  0
  182.5070  180.9670  138.6200 C   0  0  0  0  0  3  0  0  0  0  0  0
  180.0450  180.1900  137.5580 C   0  0  0  0  0  3  0  0  0  0  0  0
  180.2920  181.5370  137.8320 C   0  0  0  0  0  3  0  0  0  0  0  0
  179.5670  177.2500  137.9840 C   0  0  0  0  0  2  0  0  0  0  0  0
  183.9590  178.3340  140.9970 C   0  0  1  0  0  3  0  0  0  0  0  0
  181.6680  177.8350  140.4300 N   0  0  0  0  0  0  0  0  0  0  0  0
  184.7570  179.3620  140.3310 N   0  0  2  0  0  0  0  0  0  0  0  0
  183.3610  178.4540  143.3050 O   0  0  0  0  0  1  0  0  0  0  0  0
  183.3060  178.5400  138.6420 C   0  0  1  0  0  3  0  0  0  0  0  0
  1 16  1  0  0  0  0
  4 20  1  0  0  0  0
  5 27  1  1  0  0  0
  6  1  1  0  0  0  0
  6 23  1  0  0  0  0
  8  7  1  6  0  0  0
  8  2  1  0  0  0  0
  8 10  1  0  0  0  0
  8 14  1  0  0  0  0
  9 13  1  0  0  0  0
  9 18  1  1  0  0  0
 10 26  1  0  0  0  0
 12 25  1  0  0  0  0
 12 24  1  0  0  0  0
 14  9  1  0  0  0  0
 15 11  1  0  0  0  0
 15 19  1  0  0  0  0
 16 20  2  0  0  0  0
 16 28  1  0  0  0  0
 17  5  1  0  0  0  0
 17  3  2  0  0  0  0
 19 25  1  0  0  0  0
 21  1  2  0  0  0  0
 21 22  1  0  0  0  0
 22  4  2  0  0  0  0
 23 15  1  0  0  0  0
 24  5  1  0  0  0  0
 25 17  1  0  0  0  0
 26 13  1  0  0  0  0
 26 24  1  0  0  0  0
 28 10  1  0  0  0  0
 28 12  1  0  0  0  0
M  END
>  <MODEL>
2

>  <REMARK>
 VINA RESULT:      -5.9      6.088      8.916
  Name = 
  0 active torsions:
  status: ('A' for Active; 'I' for Inactive)
                            x       y       z     vdW  Elec       q    Type
                         _______ _______ _______ _____ _____    ______ ____

>  <TORSDO>
F 0

$$$$
=
 OpenBabel11122411563D

 28 32  0  0  1  0  0  0  0  0999 V2000
  179.4690  177.5080  138.9400 C   0  0  0  0  0  0  0  0  0  0  0  0
  181.2210  180.2930  142.7650 F   0  0  0  0  0  0  0  0  0  0  0  0
  183.5500  178.3480  137.1140 O   0  0  0  0  0  0  0  0  0  0  0  0
  180.4750  174.9260  139.3330 C   0  0  0  0  0  3  0  0  0  0  0  0
  184.0740  178.3350  139.4690 C   0  0  2  0  0  3  0  0  0  0  0  0
  179.0170  178.8090  138.7190 O   0  0  0  0  0  0  0  0  0  0  0  0
  180.0810  178.5870  143.9230 C   0  0  0  0  0  1  0  0  0  0  0  0
  181.3600  178.9900  143.2180 C   0  0  1  0  0  0  0  0  0  0  0  0
  183.7900  179.0850  143.4560 C   0  0  1  0  0  3  0  0  0  0  0  0
  181.6270  178.0050  142.0510 C   0  0  2  0  0  3  0  0  0  0  0  0
  180.7800  178.3450  136.2560 O   0  0  0  0  0  1  0  0  0  0  0  0
  181.9170  179.3620  140.0790 C   0  0  1  0  0  3  0  0  0  0  0  0
  183.9620  177.9320  142.6680 O   0  0  0  0  0  0  0  0  0  0  0  0
  182.4930  178.9570  144.2220 C   0  0  0  0  0  2  0  0  0  0  0  0
  180.3160  179.5490  136.7910 C   0  0  2  0  0  3  0  0  0  0  0  0
  180.4030  177.2760  139.9610 C   0  0  0  0  0  0  0  0  0  0  0  0
  183.2080  178.6000  138.3000 C   0  0  0  0  0  0  0  0  0  0  0  0
  184.9410  179.2020  144.4330 C   0  0  0  0  0  1  0  0  0  0  0  0
  181.3420  180.1810  137.7430 C   0  0  0  0  0  2  0  0  0  0  0  0
  180.9120  175.9780  140.1410 C   0  0  0  0  0  3  0  0  0  0  0  0
  179.0370  176.4500  138.1270 C   0  0  0  0  0  3  0  0  0  0  0  0
  179.5360  175.1610  138.3270 C   0  0  0  0  0  3  0  0  0  0  0  0
  178.9310  179.3720  137.4160 C   0  0  0  0  0  2  0  0  0  0  0  0
  183.2910  178.9430  140.6320 C   0  0  1  0  0  3  0  0  0  0  0  0
  181.9690  179.2030  138.6320 N   0  0  0  0  0  0  0  0  0  0  0  0
  183.0420  177.9190  141.6450 N   0  0  2  0  0  0  0  0  0  0  0  0
  185.2850  179.0110  139.3240 O   0  0  0  0  0  1  0  0  0  0  0  0
  180.8930  178.4500  140.7890 C   0  0  1  0  0  3  0  0  0  0  0  0
  1 16  1  0  0  0  0
  2  8  1  0  0  0  0
  3 17  2  0  0  0  0
  4 20  1  0  0  0  0
  5 27  1  6  0  0  0
  5 24  1  0  0  0  0
  6  1  1  0  0  0  0
  8  7  1  1  0  0  0
  8 14  1  0  0  0  0
  9 14  1  0  0  0  0
  9 18  1  1  0  0  0
 10  8  1  0  0  0  0
 11 15  1  0  0  0  0
 12 24  1  0  0  0  0
 12 28  1  0  0  0  0
 13  9  1  0  0  0  0
 15 23  1  0  0  0  0
 15 19  1  0  0  0  0
 16 20  2  0  0  0  0
 16 28  1  0  0  0  0
 17 25  1  0  0  0  0
 17  5  1  0  0  0  0
 19 25  1  0  0  0  0
 21 22  1  0  0  0  0
 21  1  2  0  0  0  0
 22  4  2  0  0  0  0
 23  6  1  0  0  0  0
 24 26  1  0  0  0  0
 25 12  1  0  0  0  0
 26 10  1  0  0  0  0
 26 13  1  0  0  0  0
 28 10  1  0  0  0  0
M  END
>  <MODEL>
3

>  <REMARK>
 VINA RESULT:      -5.2      8.051     10.574
  Name = 
  0 active torsions:
  status: ('A' for Active; 'I' for Inactive)
                            x       y       z     vdW  Elec       q    Type
                         _______ _______ _______ _____ _____    ______ ____

>  <TORSDO>
F 0

$$$$
=
 OpenBabel11122411563D

 28 32  0  0  1  0  0  0  0  0999 V2000
  179.9230  179.2490  137.1100 C   0  0  0  0  0  0  0  0  0  0  0  0
  181.3050  174.6700  138.7150 F   0  0  0  0  0  0  0  0  0  0  0  0
  183.8770  180.5420  138.9500 O   0  0  0  0  0  0  0  0  0  0  0  0
  181.2360  179.6480  134.6710 C   0  0  0  0  0  3  0  0  0  0  0  0
  184.3890  178.2910  138.2490 C   0  0  2  0  0  3  0  0  0  0  0  0
  179.3150  179.0670  138.3530 O   0  0  0  0  0  0  0  0  0  0  0  0
  180.3780  174.1590  136.6100 C   0  0  0  0  0  1  0  0  0  0  0  0
  181.6010  174.6460  137.3610 C   0  0  1  0  0  0  0  0  0  0  0  0
  184.0000  174.2860  137.6530 C   0  0  1  0  0  3  0  0  0  0  0  0
  181.9910  176.0520  136.8360 C   0  0  2  0  0  3  0  0  0  0  0  0
  181.1310  181.4730  138.9030 O   0  0  0  0  0  1  0  0  0  0  0  0
  182.1210  177.4800  138.7740 C   0  0  1  0  0  3  0  0  0  0  0  0
  184.3150  175.3900  136.8390 O   0  0  0  0  0  0  0  0  0  0  0  0
  182.7260  173.6560  137.1400 C   0  0  0  0  0  2  0  0  0  0  0  0
  180.5210  180.6060  139.8120 C   0  0  2  0  0  3  0  0  0  0  0  0
  180.8740  178.3140  136.6740 C   0  0  0  0  0  0  0  0  0  0  0  0
  183.5010  179.3530  138.7710 C   0  0  0  0  0  0  0  0  0  0  0  0
  185.1240  173.2750  137.5850 C   0  0  0  0  0  1  0  0  0  0  0  0
  181.4580  179.4620  140.2210 C   0  0  0  0  0  2  0  0  0  0  0  0
  181.5370  178.5320  135.4540 C   0  0  0  0  0  3  0  0  0  0  0  0
  179.6260  180.3720  136.3230 C   0  0  0  0  0  3  0  0  0  0  0  0
  180.2780  180.5670  135.1040 C   0  0  0  0  0  3  0  0  0  0  0  0
  179.1650  180.1290  139.2870 C   0  0  0  0  0  2  0  0  0  0  0  0
  183.5330  177.0300  138.3620 C   0  0  1  0  0  3  0  0  0  0  0  0
  182.1970  178.9010  139.0900 N   0  0  0  0  0  0  0  0  0  0  0  0
  183.4080  176.4030  137.0470 N   0  0  2  0  0  0  0  0  0  0  0  0
  185.5090  178.1640  139.0710 O   0  0  0  0  0  1  0  0  0  0  0  0
  181.2130  177.1380  137.5720 C   0  0  1  0  0  3  0  0  0  0  0  0
  1  6  1  0  0  0  0
  4 22  2  0  0  0  0
  4 20  1  0  0  0  0
  5 24  1  0  0  0  0
  5 17  1  0  0  0  0
  5 27  1  1  0  0  0
  6 23  1  0  0  0  0
  8  7  1  6  0  0  0
  8  2  1  0  0  0  0
  9 18  1  6  0  0  0
 10 26  1  0  0  0  0
 10  8  1  0  0  0  0
 10 28  1  0  0  0  0
 11 15  1  0  0  0  0
 12 25  1  0  0  0  0
 13 26  1  0  0  0  0
 13  9  1  0  0  0  0
 14  8  1  0  0  0  0
 14  9  1  0  0  0  0
 15 19  1  0  0  0  0
 16  1  1  0  0  0  0
 16 28  1  0  0  0  0
 17  3  2  0  0  0  0
 17 25  1  0  0  0  0
 20 16  2  0  0  0  0
 21  1  2  0  0  0  0
 22 21  1  0  0  0  0
 23 15  1  0  0  0  0
 24 12  1  0  0  0  0
 25 19  1  0  0  0  0
 26 24  1  0  0  0  0
 28 12  1  0  0  0  0
M  END
>  <MODEL>
4

>  <REMARK>
 VINA RESULT:      -5.2      6.466      9.342
  Name = 
  0 active torsions:
  status: ('A' for Active; 'I' for Inactive)
                            x       y       z     vdW  Elec       q    Type
                         _______ _______ _______ _____ _____    ______ ____

>  <TORSDO>
F 0

$$$$
=
 OpenBabel11122411563D

 28 32  0  0  1  0  0  0  0  0999 V2000
  181.8610  175.9330  136.3010 C   0  0  0  0  0  0  0  0  0  0  0  0
  186.6890  175.2360  137.5890 F   0  0  0  0  0  0  0  0  0  0  0  0
  181.9400  179.0340  139.6290 O   0  0  0  0  0  0  0  0  0  0  0  0
  181.8220  178.1540  134.5990 C   0  0  0  0  0  3  0  0  0  0  0  0
  184.2140  179.1310  138.8310 C   0  0  2  0  0  3  0  0  0  0  0  0
  181.8790  174.8610  137.1940 O   0  0  0  0  0  0  0  0  0  0  0  0
  186.8160  175.1090  135.2390 C   0  0  0  0  0  1  0  0  0  0  0  0
  186.7640  176.0210  136.4490 C   0  0  1  0  0  0  0  0  0  0  0  0
  187.8710  177.9070  137.5380 C   0  0  1  0  0  3  0  0  0  0  0  0
  185.5380  176.9610  136.3210 C   0  0  2  0  0  3  0  0  0  0  0  0
  180.1880  176.9070  138.7250 O   0  0  0  0  0  1  0  0  0  0  0  0
  184.2830  176.7110  138.3650 C   0  0  1  0  0  3  0  0  0  0  0  0
  186.8990  178.8110  137.0710 O   0  0  0  0  0  0  0  0  0  0  0  0
  188.0510  176.8170  136.5060 C   0  0  0  0  0  2  0  0  0  0  0  0
  180.8450  175.7730  139.2070 C   0  0  2  0  0  3  0  0  0  0  0  0
  183.0340  176.6770  136.1070 C   0  0  0  0  0  0  0  0  0  0  0  0
  182.9430  178.4440  139.1480 C   0  0  0  0  0  0  0  0  0  0  0  0
  189.1830  178.6370  137.7320 C   0  0  0  0  0  1  0  0  0  0  0  0
  182.2390  176.1140  139.7520 C   0  0  0  0  0  2  0  0  0  0  0  0
  183.0000  177.7990  135.2600 C   0  0  0  0  0  3  0  0  0  0  0  0
  180.6780  176.2960  135.6400 C   0  0  0  0  0  3  0  0  0  0  0  0
  180.6610  177.4010  134.7870 C   0  0  0  0  0  3  0  0  0  0  0  0
  180.8540  174.6590  138.1590 C   0  0  0  0  0  2  0  0  0  0  0  0
  185.1440  177.9850  138.4330 C   0  0  1  0  0  3  0  0  0  0  0  0
  182.9700  177.0490  138.8970 N   0  0  0  0  0  0  0  0  0  0  0  0
  185.6580  178.2180  137.0840 N   0  0  2  0  0  0  0  0  0  0  0  0
  184.7130  179.7530  139.9750 O   0  0  0  0  0  1  0  0  0  0  0  0
  184.2840  176.2930  136.8780 C   0  0  1  0  0  3  0  0  0  0  0  0
  1  6  1  0  0  0  0
  4 22  2  0  0  0  0
  4 20  1  0  0  0  0
  5 17  1  0  0  0  0
  5 27  1  1  0  0  0
  6 23  1  0  0  0  0
  8  7  1  6  0  0  0
  8 14  1  0  0  0  0
  8  2  1  0  0  0  0
  9 18  1  6  0  0  0
 10  8  1  0  0  0  0
 10 28  1  0  0  0  0
 10 26  1  0  0  0  0
 11 15  1  0  0  0  0
 12 24  1  0  0  0  0
 12 25  1  0  0  0  0
 13 26  1  0  0  0  0
 13  9  1  0  0  0  0
 14  9  1  0  0  0  0
 15 19  1  0  0  0  0
 16  1  1  0  0  0  0
 16 28  1  0  0  0  0
 17  3  2  0  0  0  0
 20 16  2  0  0  0  0
 21  1  2  0  0  0  0
 22 21  1  0  0  0  0
 23 15  1  0  0  0  0
 24  5  1  0  0  0  0
 25 17  1  0  0  0  0
 25 19  1  0  0  0  0
 26 24  1  0  0  0  0
 28 12  1  0  0  0  0
M  END
>  <MODEL>
5

>  <REMARK>
 VINA RESULT:      -5.1      4.604      7.608
  Name = 
  0 active torsions:
  status: ('A' for Active; 'I' for Inactive)
                            x       y       z     vdW  Elec       q    Type
                         _______ _______ _______ _____ _____    ______ ____

>  <TORSDO>
F 0

$$$$
=
 OpenBabel11122411563D

 28 32  0  0  1  0  0  0  0  0999 V2000
  180.7600  177.7170  137.9400 C   0  0  0  0  0  0  0  0  0  0  0  0
  183.9490  173.8830  137.1710 F   0  0  0  0  0  0  0  0  0  0  0  0
  184.4920  179.8760  139.3910 O   0  0  0  0  0  0  0  0  0  0  0  0
  180.9920  179.3830  135.7040 C   0  0  0  0  0  3  0  0  0  0  0  0
  185.4140  178.3990  137.7210 C   0  0  2  0  0  3  0  0  0  0  0  0
  180.6900  176.9120  139.0780 O   0  0  0  0  0  0  0  0  0  0  0  0
  182.5800  173.7350  135.2590 C   0  0  0  0  0  1  0  0  0  0  0  0
  183.7680  174.4180  135.9050 C   0  0  1  0  0  0  0  0  0  0  0  0
  186.1120  175.0180  135.5700 C   0  0  1  0  0  3  0  0  0  0  0  0
  183.5040  175.9450  135.9630 C   0  0  2  0  0  3  0  0  0  0  0  0
  181.7430  179.5410  140.2490 O   0  0  0  0  0  1  0  0  0  0  0  0
  183.8210  176.5960  138.2620 C   0  0  1  0  0  3  0  0  0  0  0  0
  185.7790  176.3490  135.2570 O   0  0  0  0  0  0  0  0  0  0  0  0
  185.0030  174.1160  135.0830 C   0  0  0  0  0  2  0  0  0  0  0  0
  181.7720  178.2580  140.8010 C   0  0  2  0  0  3  0  0  0  0  0  0
  181.7520  177.4570  136.9830 C   0  0  0  0  0  0  0  0  0  0  0  0
  184.4680  178.7650  138.7980 C   0  0  0  0  0  0  0  0  0  0  0  0
  187.4050  174.6480  134.8740 C   0  0  0  0  0  1  0  0  0  0  0  0
  183.0980  177.5440  140.5070 C   0  0  0  0  0  2  0  0  0  0  0  0
  181.8680  178.3080  135.8700 C   0  0  0  0  0  3  0  0  0  0  0  0
  179.8860  178.8000  137.7730 C   0  0  0  0  0  3  0  0  0  0  0  0
  179.9990  179.6280  136.6540 C   0  0  0  0  0  3  0  0  0  0  0  0
  180.5390  177.4550  140.3840 C   0  0  0  0  0  2  0  0  0  0  0  0
  185.0810  176.9320  137.4450 C   0  0  1  0  0  3  0  0  0  0  0  0
  183.5530  177.7350  139.1300 N   0  0  0  0  0  0  0  0  0  0  0  0
  184.7260  176.7670  136.0370 N   0  0  2  0  0  0  0  0  0  0  0  0
  186.7240  178.4950  138.1900 O   0  0  0  0  0  1  0  0  0  0  0  0
  182.7190  176.3110  137.2190 C   0  0  1  0  0  3  0  0  0  0  0  0
  1  6  1  0  0  0  0
  4 20  2  0  0  0  0
  4 22  1  0  0  0  0
  5 27  1  1  0  0  0
  5 17  1  0  0  0  0
  6 23  1  0  0  0  0
  8  7  1  6  0  0  0
  8 10  1  0  0  0  0
  8  2  1  0  0  0  0
  9 18  1  6  0  0  0
 10 26  1  0  0  0  0
 10 28  1  0  0  0  0
 11 15  1  0  0  0  0
 12 25  1  0  0  0  0
 13  9  1  0  0  0  0
 13 26  1  0  0  0  0
 14  9  1  0  0  0  0
 14  8  1  0  0  0  0
 16 28  1  0  0  0  0
 16  1  2  0  0  0  0
 17 25  1  0  0  0  0
 17  3  2  0  0  0  0
 19 15  1  0  0  0  0
 20 16  1  0  0  0  0
 21  1  1  0  0  0  0
 22 21  2  0  0  0  0
 23 15  1  0  0  0  0
 24  5  1  0  0  0  0
 24 12  1  0  0  0  0
 25 19  1  0  0  0  0
 26 24  1  0  0  0  0
 28 12  1  0  0  0  0
M  END
>  <MODEL>
6

>  <REMARK>
 VINA RESULT:      -5.1      5.148      8.044
  Name = 
  0 active torsions:
  status: ('A' for Active; 'I' for Inactive)
                            x       y       z     vdW  Elec       q    Type
                         _______ _______ _______ _____ _____    ______ ____

>  <TORSDO>
F 0

$$$$
=
 OpenBabel11122411563D

 28 32  0  0  1  0  0  0  0  0999 V2000
  182.6680  177.4210  136.4510 C   0  0  0  0  0  0  0  0  0  0  0  0
  184.2870  177.2370  141.2260 F   0  0  0  0  0  0  0  0  0  0  0  0
  178.9510  175.4300  138.1580 O   0  0  0  0  0  0  0  0  0  0  0  0
  181.0400  179.6900  136.2670 C   0  0  0  0  0  3  0  0  0  0  0  0
  179.6840  176.7610  140.0320 C   0  0  2  0  0  3  0  0  0  0  0  0
  183.4350  176.2600  136.5620 O   0  0  0  0  0  0  0  0  0  0  0  0
  185.0480  179.3660  140.5630 C   0  0  0  0  0  1  0  0  0  0  0  0
  183.8750  178.5510  141.0700 C   0  0  1  0  0  0  0  0  0  0  0  0
  182.1440  178.4590  142.7910 C   0  0  1  0  0  3  0  0  0  0  0  0
  182.7050  178.6670  140.0590 C   0  0  2  0  0  3  0  0  0  0  0  0
  180.6830  175.1120  135.8550 O   0  0  0  0  0  1  0  0  0  0  0  0
  182.0670  176.4090  139.5080 C   0  0  1  0  0  3  0  0  0  0  0  0
  181.1630  178.9350  141.9010 O   0  0  0  0  0  0  0  0  0  0  0  0
  183.4700  179.0850  142.4280 C   0  0  0  0  0  2  0  0  0  0  0  0
  181.7870  174.4670  136.4160 C   0  0  2  0  0  3  0  0  0  0  0  0
  182.3460  178.1380  137.6130 C   0  0  0  0  0  0  0  0  0  0  0  0
  179.8950  175.9270  138.8290 C   0  0  0  0  0  0  0  0  0  0  0  0
  181.7720  178.8520  144.2050 C   0  0  0  0  0  1  0  0  0  0  0  0
  181.7080  174.4340  137.9480 C   0  0  0  0  0  2  0  0  0  0  0  0
  181.5170  179.2690  137.5110 C   0  0  0  0  0  3  0  0  0  0  0  0
  182.1830  177.8440  135.2050 C   0  0  0  0  0  3  0  0  0  0  0  0
  181.3750  178.9790  135.1140 C   0  0  0  0  0  3  0  0  0  0  0  0
  183.0950  175.0580  135.8840 C   0  0  0  0  0  2  0  0  0  0  0  0
  181.1010  176.9820  140.5600 C   0  0  1  0  0  3  0  0  0  0  0  0
  181.2600  175.7040  138.5200 N   0  0  0  0  0  0  0  0  0  0  0  0
  181.3740  178.4160  140.6440 N   0  0  2  0  0  0  0  0  0  0  0  0
  178.9450  176.0500  140.9780 O   0  0  0  0  0  1  0  0  0  0  0  0
  182.8400  177.6250  138.9530 C   0  0  1  0  0  3  0  0  0  0  0  0
  1  6  1  0  0  0  0
  1 16  1  0  0  0  0
  3 17  2  0  0  0  0
  4 20  1  0  0  0  0
  5 24  1  0  0  0  0
  5 27  1  1  0  0  0
  8  7  1  6  0  0  0
  8  2  1  0  0  0  0
  8 14  1  0  0  0  0
  9 18  1  1  0  0  0
 10 26  1  0  0  0  0
 10  8  1  0  0  0  0
 11 15  1  0  0  0  0
 12 24  1  0  0  0  0
 13  9  1  0  0  0  0
 14  9  1  0  0  0  0
 15 19  1  0  0  0  0
 16 28  1  0  0  0  0
 17  5  1  0  0  0  0
 19 25  1  0  0  0  0
 20 16  2  0  0  0  0
 21  1  2  0  0  0  0
 22 21  1  0  0  0  0
 22  4  2  0  0  0  0
 23 15  1  0  0  0  0
 23  6  1  0  0  0  0
 24 26  1  0  0  0  0
 25 17  1  0  0  0  0
 25 12  1  0  0  0  0
 26 13  1  0  0  0  0
 28 12  1  0  0  0  0
 28 10  1  0  0  0  0
M  END
>  <MODEL>
7

>  <REMARK>
 VINA RESULT:      -4.8      7.427      9.907
  Name = 
  0 active torsions:
  status: ('A' for Active; 'I' for Inactive)
                            x       y       z     vdW  Elec       q    Type
                         _______ _______ _______ _____ _____    ______ ____

>  <TORSDO>
F 0

$$$$
=
 OpenBabel11122411563D

 28 32  0  0  1  0  0  0  0  0999 V2000
  180.3320  174.7940  137.5340 C   0  0  0  0  0  0  0  0  0  0  0  0
  184.7230  172.3530  138.0020 F   0  0  0  0  0  0  0  0  0  0  0  0
  182.9470  178.5110  137.7410 O   0  0  0  0  0  0  0  0  0  0  0  0
  180.0880  175.4450  134.8230 C   0  0  0  0  0  3  0  0  0  0  0  0
  184.4360  176.9370  136.6810 C   0  0  2  0  0  3  0  0  0  0  0  0
  180.4860  174.5170  138.8930 O   0  0  0  0  0  0  0  0  0  0  0  0
  183.6180  171.0130  136.4100 C   0  0  0  0  0  1  0  0  0  0  0  0
  184.4410  172.2630  136.6480 C   0  0  1  0  0  0  0  0  0  0  0  0
  186.4300  173.4760  135.9140 C   0  0  1  0  0  3  0  0  0  0  0  0
  183.6440  173.4950  136.1470 C   0  0  2  0  0  3  0  0  0  0  0  0
  180.4540  177.5810  138.8920 O   0  0  0  0  0  1  0  0  0  0  0  0
  183.5660  175.0410  137.9950 C   0  0  1  0  0  3  0  0  0  0  0  0
  185.6620  174.3750  135.1510 O   0  0  0  0  0  0  0  0  0  0  0  0
  185.7500  172.1270  135.8990 C   0  0  0  0  0  2  0  0  0  0  0  0
  180.9060  176.7060  139.8830 C   0  0  2  0  0  3  0  0  0  0  0  0
  181.4080  174.5570  136.6650 C   0  0  0  0  0  0  0  0  0  0  0  0
  183.3580  177.3270  137.6160 C   0  0  0  0  0  0  0  0  0  0  0  0
  187.8090  173.3500  135.3020 C   0  0  0  0  0  1  0  0  0  0  0  0
  182.4160  176.4520  139.7690 C   0  0  0  0  0  2  0  0  0  0  0  0
  181.2790  174.9000  135.3080 C   0  0  0  0  0  3  0  0  0  0  0  0
  179.1400  175.3460  137.0450 C   0  0  0  0  0  3  0  0  0  0  0  0
  179.0170  175.6660  135.6910 C   0  0  0  0  0  3  0  0  0  0  0  0
  180.0710  175.4250  139.9050 C   0  0  0  0  0  2  0  0  0  0  0  0
  184.6690  175.4620  137.0080 C   0  0  1  0  0  3  0  0  0  0  0  0
  182.8550  176.2510  138.3880 N   0  0  0  0  0  0  0  0  0  0  0  0
  184.4830  174.6580  135.8010 N   0  0  2  0  0  0  0  0  0  0  0  0
  185.5940  177.6610  136.9660 O   0  0  0  0  0  1  0  0  0  0  0  0
  182.7050  174.0100  137.2340 C   0  0  1  0  0  3  0  0  0  0  0  0
  1  6  1  0  0  0  0
  4 20  2  0  0  0  0
  4 22  1  0  0  0  0
  5 27  1  1  0  0  0
  5 24  1  0  0  0  0
  5 17  1  0  0  0  0
  6 23  1  0  0  0  0
  8  7  1  6  0  0  0
  8  2  1  0  0  0  0
  9 18  1  6  0  0  0
 10  8  1  0  0  0  0
 10 28  1  0  0  0  0
 11 15  1  0  0  0  0
 12 25  1  0  0  0  0
 13 26  1  0  0  0  0
 13  9  1  0  0  0  0
 14  9  1  0  0  0  0
 14  8  1  0  0  0  0
 15 23  1  0  0  0  0
 16 28  1  0  0  0  0
 16  1  2  0  0  0  0
 17  3  2  0  0  0  0
 17 25  1  0  0  0  0
 19 15  1  0  0  0  0
 20 16  1  0  0  0  0
 21  1  1  0  0  0  0
 22 21  2  0  0  0  0
 24 12  1  0  0  0  0
 25 19  1  0  0  0  0
 26 10  1  0  0  0  0
 26 24  1  0  0  0  0
 28 12  1  0  0  0  0
M  END
>  <MODEL>
8

>  <REMARK>
 VINA RESULT:      -4.7      5.612      8.268
  Name = 
  0 active torsions:
  status: ('A' for Active; 'I' for Inactive)
                            x       y       z     vdW  Elec       q    Type
                         _______ _______ _______ _____ _____    ______ ____

>  <TORSDO>
F 0

$$$$
=
 OpenBabel11122411563D

 28 32  0  0  1  0  0  0  0  0999 V2000
  182.3970  177.9410  138.2580 C   0  0  0  0  0  0  0  0  0  0  0  0
  184.5560  173.3850  138.0900 F   0  0  0  0  0  0  0  0  0  0  0  0
  186.5610  179.4060  137.1580 O   0  0  0  0  0  0  0  0  0  0  0  0
  181.7590  178.5990  135.6140 C   0  0  0  0  0  3  0  0  0  0  0  0
  186.5090  177.2520  136.0730 C   0  0  2  0  0  3  0  0  0  0  0  0
  182.7680  177.6330  139.5680 O   0  0  0  0  0  0  0  0  0  0  0  0
  182.4730  172.9450  137.0790 C   0  0  0  0  0  1  0  0  0  0  0  0
  183.8810  173.4720  136.8820 C   0  0  1  0  0  0  0  0  0  0  0  0
  185.8750  173.2770  135.4860 C   0  0  1  0  0  3  0  0  0  0  0  0
  183.8070  174.9350  136.3740 C   0  0  2  0  0  3  0  0  0  0  0  0
  184.4610  180.1280  139.0220 O   0  0  0  0  0  1  0  0  0  0  0  0
  185.1690  176.2380  137.8770 C   0  0  1  0  0  3  0  0  0  0  0  0
  185.5580  174.4520  134.7800 O   0  0  0  0  0  0  0  0  0  0  0  0
  184.5890  172.5880  135.8780 C   0  0  0  0  0  2  0  0  0  0  0  0
  184.6170  179.1590  140.0160 C   0  0  2  0  0  3  0  0  0  0  0  0
  182.8330  177.1130  137.2140 C   0  0  0  0  0  0  0  0  0  0  0  0
  186.1770  178.2060  137.1520 C   0  0  0  0  0  0  0  0  0  0  0  0
  186.6850  172.3600  134.5940 C   0  0  0  0  0  1  0  0  0  0  0  0
  185.6050  178.0640  139.5900 C   0  0  0  0  0  2  0  0  0  0  0  0
  182.5180  177.4590  135.8890 C   0  0  0  0  0  3  0  0  0  0  0  0
  181.6390  179.0880  137.9790 C   0  0  0  0  0  3  0  0  0  0  0  0
  181.3170  179.4130  136.6590 C   0  0  0  0  0  3  0  0  0  0  0  0
  183.2610  178.6160  140.4690 C   0  0  0  0  0  2  0  0  0  0  0  0
  185.9590  175.9240  136.5940 C   0  0  1  0  0  3  0  0  0  0  0  0
  185.4170  177.6370  138.2040 N   0  0  0  0  0  0  0  0  0  0  0  0
  185.0020  175.3780  135.6330 N   0  0  2  0  0  0  0  0  0  0  0  0
  187.8940  177.1560  135.9360 O   0  0  0  0  0  1  0  0  0  0  0  0
  183.6970  175.9090  137.5430 C   0  0  1  0  0  3  0  0  0  0  0  0
  1  6  1  0  0  0  0
  4 20  2  0  0  0  0
  4 22  1  0  0  0  0
  5 27  1  1  0  0  0
  5 24  1  0  0  0  0
  5 17  1  0  0  0  0
  6 23  1  0  0  0  0
  8  7  1  1  0  0  0
  8  2  1  0  0  0  0
  9 18  1  6  0  0  0
  9 14  1  0  0  0  0
 10  8  1  0  0  0  0
 10 28  1  0  0  0  0
 11 15  1  0  0  0  0
 12 25  1  0  0  0  0
 13  9  1  0  0  0  0
 13 26  1  0  0  0  0
 14  8  1  0  0  0  0
 15 23  1  0  0  0  0
 16 28  1  0  0  0  0
 16  1  2  0  0  0  0
 17  3  2  0  0  0  0
 17 25  1  0  0  0  0
 19 15  1  0  0  0  0
 20 16  1  0  0  0  0
 21  1  1  0  0  0  0
 22 21  2  0  0  0  0
 24 12  1  0  0  0  0
 25 19  1  0  0  0  0
 26 10  1  0  0  0  0
 26 24  1  0  0  0  0
 28 12  1  0  0  0  0
M  END
>  <MODEL>
9

>  <REMARK>
 VINA RESULT:      -4.5      4.869      7.125
  Name = 
  0 active torsions:
  status: ('A' for Active; 'I' for Inactive)
                            x       y       z     vdW  Elec       q    Type
                         _______ _______ _______ _____ _____    ______ ____

>  <TORSDO>
F 0

$$$$
