=
 OpenBabel11122411183D

 31 35  0  0  1  0  0  0  0  0999 V2000
  193.4350  175.3090  135.7420 C   0  0  0  0  0  0  0  0  0  0  0  0
  190.0960  176.7530  136.8500 C   0  0  2  0  0  3  0  0  0  0  0  0
  189.0770  175.6240  136.7500 C   0  0  0  0  0  0  0  0  0  0  0  0
  188.4090  173.4370  135.9150 C   0  0  0  0  0  0  0  0  0  0  0  0
  191.5220  176.2550  136.9020 C   0  0  0  0  0  0  0  0  0  0  0  0
  194.1280  175.2180  136.9510 C   0  0  0  0  0  3  0  0  0  0  0  0
  189.3620  174.4530  136.0300 C   0  0  0  0  0  3  0  0  0  0  0  0
  190.1790  177.0170  139.3560 C   0  0  2  0  0  3  0  0  0  0  0  0
  194.0190  174.8920  134.5940 F   0  0  0  0  0  0  0  0  0  0  0  0
  187.4570  176.9750  138.0230 N   0  0  0  0  0  2  0  0  0  0  0  0
  188.7330  172.1980  135.1620 C   0  0  0  0  0  1  0  0  0  0  0  0
  191.6830  176.7430  139.3990 C   0  0  0  0  0  2  0  0  0  0  0  0
  189.8050  177.6990  138.0320 C   0  0  2  0  0  3  0  0  0  0  0  0
  192.1390  175.8270  135.7180 C   0  0  0  0  0  3  0  0  0  0  0  0
  187.1540  173.5870  136.5080 C   0  0  0  0  0  3  0  0  0  0  0  0
  192.2280  176.1650  138.1230 C   0  0  0  0  0  0  0  0  0  0  0  0
  193.5290  175.6530  138.1350 C   0  0  0  0  0  3  0  0  0  0  0  0
  188.3380  178.1370  138.0040 C   0  0  0  0  0  2  0  0  0  0  0  0
  187.7920  175.7810  137.3130 C   0  0  0  0  0  0  0  0  0  0  0  0
  186.8460  174.7570  137.2040 C   0  0  0  0  0  3  0  0  0  0  0  0
  190.1680  176.1960  142.0860 O   0  0  0  0  0  0  0  0  0  0  0  0
  189.8350  177.3870  141.8330 C   0  0  0  0  0  0  0  0  0  0  0  0
  189.8110  177.8590  140.4860 N   0  0  0  0  0  2  0  0  0  0  0  0
  190.5110  177.4720  145.5580 C   0  0  1  0  0  3  0  0  0  0  0  0
  190.6660  179.0020  143.5740 C   0  0  0  0  0  2  0  0  0  0  0  0
  187.4820  176.9980  143.4290 O   0  0  0  0  0  1  0  0  0  0  0  0
  191.2920  176.5220  146.4400 C   0  0  0  0  0  1  0  0  0  0  0  0
  191.4340  178.0450  144.4860 C   0  0  0  0  0  2  0  0  0  0  0  0
  188.5550  177.6740  144.0130 C   0  0  2  0  0  3  0  0  0  0  0  0
  189.4450  178.3230  142.9410 C   0  0  2  0  0  3  0  0  0  0  0  0
  189.3480  176.7270  144.9120 C   0  0  0  0  0  2  0  0  0  0  0  0
  1  6  1  0  0  0  0
  2  3  1  1  0  0  0
  2  5  1  0  0  0  0
  2 13  1  0  0  0  0
  3 19  1  0  0  0  0
  4  7  1  0  0  0  0
  4 15  2  0  0  0  0
  5 16  2  0  0  0  0
  6 17  2  0  0  0  0
  7  3  2  0  0  0  0
  8 12  1  0  0  0  0
  8 23  1  1  0  0  0
  9  1  1  0  0  0  0
 11  4  1  0  0  0  0
 13 18  1  1  0  0  0
 13  8  1  0  0  0  0
 14  1  2  0  0  0  0
 14  5  1  0  0  0  0
 15 20  1  0  0  0  0
 16 17  1  0  0  0  0
 16 12  1  0  0  0  0
 18 10  1  0  0  0  0
 19 10  1  0  0  0  0
 20 19  2  0  0  0  0
 22 21  2  0  0  0  0
 23 22  1  0  0  0  0
 24 27  1  1  0  0  0
 25 28  1  0  0  0  0
 28 24  1  0  0  0  0
 29 26  1  6  0  0  0
 29 31  1  0  0  0  0
 30 22  1  6  0  0  0
 30 25  1  0  0  0  0
 30 29  1  0  0  0  0
 31 24  1  0  0  0  0
M  END
>  <MODEL>
1

>  <REMARK>
 VINA RESULT:      -8.2      0.000      0.000
  Name = 
  2 active torsions:
  status: ('A' for Active; 'I' for Inactive)
    1  A    between atoms: C_5  and  C_30
    2  A    between atoms: C_10  and  N_16
                            x       y       z     vdW  Elec       q    Type
                         _______ _______ _______ _____ _____    ______ ____

>  <TORSDO>
F 2

$$$$
=
 OpenBabel11122411183D

 31 35  0  0  1  0  0  0  0  0999 V2000
  190.0410  175.8820  142.8730 C   0  0  0  0  0  0  0  0  0  0  0  0
  186.6340  177.0320  144.1090 C   0  0  2  0  0  3  0  0  0  0  0  0
  186.8680  177.7530  145.4310 C   0  0  0  0  0  0  0  0  0  0  0  0
  188.2790  178.2590  147.3490 C   0  0  0  0  0  0  0  0  0  0  0  0
  187.8830  176.9260  143.2660 C   0  0  0  0  0  0  0  0  0  0  0  0
  190.2740  176.7550  141.8070 C   0  0  0  0  0  3  0  0  0  0  0  0
  188.0850  177.6220  146.1210 C   0  0  0  0  0  3  0  0  0  0  0  0
  185.9330  178.9920  142.6860 C   0  0  2  0  0  3  0  0  0  0  0  0
  190.9710  174.9550  143.2040 F   0  0  0  0  0  0  0  0  0  0  0  0
  184.5650  178.6240  145.3650 N   0  0  0  0  0  2  0  0  0  0  0  0
  189.5780  178.1220  148.0580 C   0  0  0  0  0  1  0  0  0  0  0  0
  187.0660  178.7530  141.6860 C   0  0  0  0  0  2  0  0  0  0  0  0
  185.4800  177.6590  143.2990 C   0  0  2  0  0  3  0  0  0  0  0  0
  188.8500  175.9670  143.5970 C   0  0  0  0  0  3  0  0  0  0  0  0
  187.2550  179.0240  147.9090 C   0  0  0  0  0  3  0  0  0  0  0  0
  188.1200  177.8050  142.1840 C   0  0  0  0  0  0  0  0  0  0  0  0
  189.3120  177.7060  141.4600 C   0  0  0  0  0  3  0  0  0  0  0  0
  184.2440  177.8240  144.1880 C   0  0  0  0  0  2  0  0  0  0  0  0
  185.8270  178.4970  146.0240 C   0  0  0  0  0  0  0  0  0  0  0  0
  186.0300  179.1420  147.2480 C   0  0  0  0  0  3  0  0  0  0  0  0
  184.1620  177.7350  140.8390 O   0  0  0  0  0  0  0  0  0  0  0  0
  183.9660  178.9540  141.0970 C   0  0  0  0  0  0  0  0  0  0  0  0
  184.8220  179.6450  142.0070 N   0  0  0  0  0  2  0  0  0  0  0  0
  181.5300  178.1310  138.3170 C   0  0  1  0  0  3  0  0  0  0  0  0
  181.4870  179.0130  140.6670 C   0  0  0  0  0  2  0  0  0  0  0  0
  184.3330  180.5580  138.7460 O   0  0  0  0  0  1  0  0  0  0  0  0
  181.3850  176.8850  137.4710 C   0  0  0  0  0  1  0  0  0  0  0  0
  181.3370  177.7720  139.7880 C   0  0  0  0  0  2  0  0  0  0  0  0
  183.0730  179.9930  138.9530 C   0  0  2  0  0  3  0  0  0  0  0  0
  182.8390  179.7030  140.4450 C   0  0  2  0  0  3  0  0  0  0  0  0
  182.9120  178.7370  138.0990 C   0  0  0  0  0  2  0  0  0  0  0  0
  1  9  1  0  0  0  0
  1 14  1  0  0  0  0
  2  5  1  6  0  0  0
  2  3  1  0  0  0  0
  3 19  2  0  0  0  0
  3  7  1  0  0  0  0
  4 15  1  0  0  0  0
  4 11  1  0  0  0  0
  5 14  2  0  0  0  0
  6  1  2  0  0  0  0
  7  4  2  0  0  0  0
  8 23  1  6  0  0  0
  8 13  1  0  0  0  0
 10 19  1  0  0  0  0
 12 16  1  0  0  0  0
 12  8  1  0  0  0  0
 13  2  1  0  0  0  0
 13 18  1  1  0  0  0
 16  5  1  0  0  0  0
 17  6  1  0  0  0  0
 17 16  2  0  0  0  0
 18 10  1  0  0  0  0
 19 20  1  0  0  0  0
 20 15  2  0  0  0  0
 21 22  2  0  0  0  0
 22 23  1  0  0  0  0
 24 27  1  6  0  0  0
 24 28  1  0  0  0  0
 28 25  1  0  0  0  0
 29 26  1  1  0  0  0
 29 30  1  0  0  0  0
 30 25  1  0  0  0  0
 30 22  1  6  0  0  0
 31 24  1  0  0  0  0
 31 29  1  0  0  0  0
M  END
>  <MODEL>
2

>  <REMARK>
 VINA RESULT:      -8.0      5.033      8.955
  Name = 
  2 active torsions:
  status: ('A' for Active; 'I' for Inactive)
    1  A    between atoms: C_5  and  C_30
    2  A    between atoms: C_10  and  N_16
                            x       y       z     vdW  Elec       q    Type
                         _______ _______ _______ _____ _____    ______ ____

>  <TORSDO>
F 2

$$$$
=
 OpenBabel11122411183D

 31 35  0  0  1  0  0  0  0  0999 V2000
  191.3270  176.5750  145.0350 C   0  0  0  0  0  0  0  0  0  0  0  0
  187.7330  176.9550  143.8540 C   0  0  2  0  0  3  0  0  0  0  0  0
  187.0030  177.7570  144.9260 C   0  0  0  0  0  0  0  0  0  0  0  0
  186.8690  178.6400  147.1900 C   0  0  0  0  0  0  0  0  0  0  0  0
  189.2350  177.1100  143.9240 C   0  0  0  0  0  0  0  0  0  0  0  0
  192.0090  177.4400  144.1760 C   0  0  0  0  0  3  0  0  0  0  0  0
  187.5600  177.9330  146.2030 C   0  0  0  0  0  3  0  0  0  0  0  0
  187.7230  178.6510  141.9880 C   0  0  2  0  0  3  0  0  0  0  0  0
  192.0050  175.8990  145.9920 F   0  0  0  0  0  0  0  0  0  0  0  0
  185.1010  178.0730  143.3930 N   0  0  0  0  0  2  0  0  0  0  0  0
  187.4790  178.8300  148.5310 C   0  0  0  0  0  1  0  0  0  0  0  0
  189.2500  178.6430  141.8870 C   0  0  0  0  0  2  0  0  0  0  0  0
  187.2170  177.2730  142.4360 C   0  0  2  0  0  3  0  0  0  0  0  0
  189.9470  176.4100  144.9080 C   0  0  0  0  0  3  0  0  0  0  0  0
  185.6060  179.1700  146.9160 C   0  0  0  0  0  3  0  0  0  0  0  0
  189.9280  177.9810  143.0540 C   0  0  0  0  0  0  0  0  0  0  0  0
  191.3120  178.1330  143.1840 C   0  0  0  0  0  3  0  0  0  0  0  0
  185.6890  177.1810  142.4010 C   0  0  0  0  0  2  0  0  0  0  0  0
  185.7110  178.2630  144.6720 C   0  0  0  0  0  0  0  0  0  0  0  0
  185.0280  178.9800  145.6590 C   0  0  0  0  0  3  0  0  0  0  0  0
  188.2570  177.3080  139.5300 O   0  0  0  0  0  0  0  0  0  0  0  0
  187.4600  178.2870  139.5000 C   0  0  0  0  0  0  0  0  0  0  0  0
  187.1580  179.0070  140.6950 N   0  0  0  0  0  2  0  0  0  0  0  0
  187.1460  176.7040  136.0740 C   0  0  1  0  0  3  0  0  0  0  0  0
  185.6780  177.7930  137.7950 C   0  0  0  0  0  2  0  0  0  0  0  0
  188.9150  179.6850  137.4590 O   0  0  0  0  0  1  0  0  0  0  0  0
  187.6500  175.3760  135.5520 C   0  0  0  0  0  1  0  0  0  0  0  0
  186.1940  176.4640  137.2420 C   0  0  0  0  0  2  0  0  0  0  0  0
  187.8340  178.8980  137.0580 C   0  0  2  0  0  3  0  0  0  0  0  0
  186.8280  178.7180  138.2080 C   0  0  2  0  0  3  0  0  0  0  0  0
  188.3290  177.5550  136.5230 C   0  0  0  0  0  2  0  0  0  0  0  0
  1  9  1  0  0  0  0
  2  5  1  6  0  0  0
  2  3  1  0  0  0  0
  3  7  1  0  0  0  0
  4 11  1  0  0  0  0
  5 14  2  0  0  0  0
  6  1  2  0  0  0  0
  7  4  2  0  0  0  0
  8 23  1  6  0  0  0
  8 13  1  0  0  0  0
 10 19  1  0  0  0  0
 12  8  1  0  0  0  0
 12 16  1  0  0  0  0
 13 18  1  1  0  0  0
 13  2  1  0  0  0  0
 14  1  1  0  0  0  0
 15  4  1  0  0  0  0
 16 17  2  0  0  0  0
 16  5  1  0  0  0  0
 17  6  1  0  0  0  0
 18 10  1  0  0  0  0
 19  3  2  0  0  0  0
 19 20  1  0  0  0  0
 20 15  2  0  0  0  0
 22 21  2  0  0  0  0
 22 23  1  0  0  0  0
 24 27  1  1  0  0  0
 24 31  1  0  0  0  0
 24 28  1  0  0  0  0
 25 30  1  0  0  0  0
 28 25  1  0  0  0  0
 29 26  1  1  0  0  0
 29 30  1  0  0  0  0
 30 22  1  1  0  0  0
 31 29  1  0  0  0  0
M  END
>  <MODEL>
3

>  <REMARK>
 VINA RESULT:      -7.3      3.656      8.345
  Name = 
  2 active torsions:
  status: ('A' for Active; 'I' for Inactive)
    1  A    between atoms: C_5  and  C_30
    2  A    between atoms: C_10  and  N_16
                            x       y       z     vdW  Elec       q    Type
                         _______ _______ _______ _____ _____    ______ ____

>  <TORSDO>
F 2

$$$$
=
 OpenBabel11122411183D

 31 35  0  0  1  0  0  0  0  0999 V2000
  179.6770  178.8700  142.0490 C   0  0  0  0  0  0  0  0  0  0  0  0
  183.1070  179.1430  140.4310 C   0  0  2  0  0  3  0  0  0  0  0  0
  184.1290  178.8210  141.5150 C   0  0  0  0  0  0  0  0  0  0  0  0
  184.7170  178.5500  143.8610 C   0  0  0  0  0  0  0  0  0  0  0  0
  181.7220  178.6370  140.7590 C   0  0  0  0  0  0  0  0  0  0  0  0
  179.1860  177.6880  141.4930 C   0  0  0  0  0  3  0  0  0  0  0  0
  183.7660  178.8130  142.8720 C   0  0  0  0  0  3  0  0  0  0  0  0
  183.4130  177.1190  138.9580 C   0  0  2  0  0  3  0  0  0  0  0  0
  178.9310  179.5580  142.9450 F   0  0  0  0  0  0  0  0  0  0  0  0
  185.8910  178.6470  139.8020 N   0  0  0  0  0  2  0  0  0  0  0  0
  184.3120  178.5300  145.2910 C   0  0  0  0  0  1  0  0  0  0  0  0
  181.9430  176.7190  139.0930 C   0  0  0  0  0  2  0  0  0  0  0  0
  183.5550  178.6450  139.0410 C   0  0  2  0  0  3  0  0  0  0  0  0
  180.9380  179.3440  141.6820 C   0  0  0  0  0  3  0  0  0  0  0  0
  186.0450  178.3060  143.5080 C   0  0  0  0  0  3  0  0  0  0  0  0
  181.2200  177.4410  140.1950 C   0  0  0  0  0  0  0  0  0  0  0  0
  179.9520  176.9820  140.5620 C   0  0  0  0  0  3  0  0  0  0  0  0
  184.9870  179.1080  138.7550 C   0  0  0  0  0  2  0  0  0  0  0  0
  185.4810  178.6120  141.1710 C   0  0  0  0  0  0  0  0  0  0  0  0
  186.4270  178.3380  142.1640 C   0  0  0  0  0  3  0  0  0  0  0  0
  183.8110  174.3750  138.2970 O   0  0  0  0  0  0  0  0  0  0  0  0
  184.0990  175.2340  137.4190 C   0  0  0  0  0  0  0  0  0  0  0  0
  183.9320  176.6260  137.6900 N   0  0  0  0  0  2  0  0  0  0  0  0
  184.2640  171.9250  135.5840 C   0  0  1  0  0  3  0  0  0  0  0  0
  183.5270  174.2870  135.1590 C   0  0  0  0  0  2  0  0  0  0  0  0
  186.7740  174.2580  137.0650 O   0  0  0  0  0  1  0  0  0  0  0  0
  183.7930  170.5470  135.9940 C   0  0  0  0  0  1  0  0  0  0  0  0
  183.0760  172.8830  135.5610 C   0  0  0  0  0  2  0  0  0  0  0  0
  185.7990  173.8100  136.1710 C   0  0  2  0  0  3  0  0  0  0  0  0
  184.6350  174.8110  136.0810 C   0  0  2  0  0  3  0  0  0  0  0  0
  185.3190  172.4160  136.5700 C   0  0  0  0  0  2  0  0  0  0  0  0
  1  9  1  0  0  0  0
  2  5  1  1  0  0  0
  2  3  1  0  0  0  0
  3  7  1  0  0  0  0
  4 11  1  0  0  0  0
  5 14  2  0  0  0  0
  6  1  2  0  0  0  0
  7  4  2  0  0  0  0
  8 23  1  6  0  0  0
  8 13  1  0  0  0  0
  8 12  1  0  0  0  0
 10 19  1  0  0  0  0
 12 16  1  0  0  0  0
 13 18  1  1  0  0  0
 13  2  1  0  0  0  0
 14  1  1  0  0  0  0
 15  4  1  0  0  0  0
 16 17  2  0  0  0  0
 16  5  1  0  0  0  0
 17  6  1  0  0  0  0
 18 10  1  0  0  0  0
 19  3  2  0  0  0  0
 19 20  1  0  0  0  0
 20 15  2  0  0  0  0
 22 23  1  0  0  0  0
 22 21  2  0  0  0  0
 24 27  1  1  0  0  0
 24 31  1  0  0  0  0
 25 28  1  0  0  0  0
 25 30  1  0  0  0  0
 28 24  1  0  0  0  0
 29 31  1  0  0  0  0
 29 26  1  1  0  0  0
 30 29  1  0  0  0  0
 30 22  1  1  0  0  0
M  END
>  <MODEL>
4

>  <REMARK>
 VINA RESULT:      -7.2      6.114     10.500
  Name = 
  2 active torsions:
  status: ('A' for Active; 'I' for Inactive)
    1  A    between atoms: C_5  and  C_30
    2  A    between atoms: C_10  and  N_16
                            x       y       z     vdW  Elec       q    Type
                         _______ _______ _______ _____ _____    ______ ____

>  <TORSDO>
F 2

$$$$
=
 OpenBabel11122411183D

 31 35  0  0  1  0  0  0  0  0999 V2000
  193.0960  173.9880  135.6070 C   0  0  0  0  0  0  0  0  0  0  0  0
  189.7850  175.7370  136.2620 C   0  0  2  0  0  3  0  0  0  0  0  0
  188.7330  174.6440  136.4040 C   0  0  0  0  0  0  0  0  0  0  0  0
  188.0130  172.3400  136.0880 C   0  0  0  0  0  0  0  0  0  0  0  0
  191.1930  175.2290  136.4650 C   0  0  0  0  0  0  0  0  0  0  0  0
  193.7650  174.1650  136.8200 C   0  0  0  0  0  3  0  0  0  0  0  0
  188.9950  173.3290  135.9860 C   0  0  0  0  0  3  0  0  0  0  0  0
  189.8300  176.5810  138.6380 C   0  0  2  0  0  3  0  0  0  0  0  0
  193.6880  173.2990  134.6030 F   0  0  0  0  0  0  0  0  0  0  0  0
  187.1330  176.2970  137.2850 N   0  0  0  0  0  2  0  0  0  0  0  0
  188.3120  170.9500  135.6550 C   0  0  0  0  0  1  0  0  0  0  0  0
  191.3240  176.2850  138.7820 C   0  0  0  0  0  2  0  0  0  0  0  0
  189.5010  176.9420  137.1830 C   0  0  2  0  0  3  0  0  0  0  0  0
  191.8180  174.5190  135.4300 C   0  0  0  0  0  3  0  0  0  0  0  0
  186.7520  172.6560  136.5980 C   0  0  0  0  0  3  0  0  0  0  0  0
  191.8740  175.4110  137.6910 C   0  0  0  0  0  0  0  0  0  0  0  0
  193.1580  174.8820  137.8540 C   0  0  0  0  0  3  0  0  0  0  0  0
  188.0490  177.3990  137.0160 C   0  0  0  0  0  2  0  0  0  0  0  0
  187.4440  174.9610  136.8820 C   0  0  0  0  0  0  0  0  0  0  0  0
  186.4680  173.9650  136.9930 C   0  0  0  0  0  3  0  0  0  0  0  0
  189.2820  176.3200  141.4230 O   0  0  0  0  0  0  0  0  0  0  0  0
  189.2130  177.4760  140.9210 C   0  0  0  0  0  0  0  0  0  0  0  0
  189.4680  177.6730  139.5300 N   0  0  0  0  0  2  0  0  0  0  0  0
  187.4180  177.8780  144.2310 C   0  0  1  0  0  3  0  0  0  0  0  0
  189.5510  178.6210  143.1350 C   0  0  0  0  0  2  0  0  0  0  0  0
  186.6920  178.8260  140.6950 O   0  0  0  0  0  1  0  0  0  0  0  0
  186.8050  176.8440  145.1510 C   0  0  0  0  0  1  0  0  0  0  0  0
  188.9090  177.5950  144.0700 C   0  0  0  0  0  2  0  0  0  0  0  0
  187.3350  178.8610  141.9330 C   0  0  2  0  0  3  0  0  0  0  0  0
  188.8510  178.6590  141.7710 C   0  0  2  0  0  3  0  0  0  0  0  0
  186.7220  177.8270  142.8750 C   0  0  0  0  0  2  0  0  0  0  0  0
  1  6  1  0  0  0  0
  2  3  1  1  0  0  0
  2  5  1  0  0  0  0
  2 13  1  0  0  0  0
  3 19  1  0  0  0  0
  4 15  2  0  0  0  0
  5 16  2  0  0  0  0
  6 17  2  0  0  0  0
  7  4  1  0  0  0  0
  7  3  2  0  0  0  0
  8 12  1  0  0  0  0
  8 23  1  1  0  0  0
  9  1  1  0  0  0  0
 11  4  1  0  0  0  0
 13 18  1  1  0  0  0
 13  8  1  0  0  0  0
 14  1  2  0  0  0  0
 14  5  1  0  0  0  0
 15 20  1  0  0  0  0
 16 17  1  0  0  0  0
 16 12  1  0  0  0  0
 18 10  1  0  0  0  0
 19 20  2  0  0  0  0
 19 10  1  0  0  0  0
 22 21  2  0  0  0  0
 23 22  1  0  0  0  0
 24 27  1  1  0  0  0
 25 28  1  0  0  0  0
 28 24  1  0  0  0  0
 29 26  1  6  0  0  0
 29 31  1  0  0  0  0
 30 22  1  1  0  0  0
 30 29  1  0  0  0  0
 30 25  1  0  0  0  0
 31 24  1  0  0  0  0
M  END
>  <MODEL>
5

>  <REMARK>
 VINA RESULT:      -7.0      1.390      1.837
  Name = 
  2 active torsions:
  status: ('A' for Active; 'I' for Inactive)
    1  A    between atoms: C_5  and  C_30
    2  A    between atoms: C_10  and  N_16
                            x       y       z     vdW  Elec       q    Type
                         _______ _______ _______ _____ _____    ______ ____

>  <TORSDO>
F 2

$$$$
=
 OpenBabel11122411183D

 31 35  0  0  1  0  0  0  0  0999 V2000
  183.4730  178.7990  144.2100 C   0  0  0  0  0  0  0  0  0  0  0  0
  182.6060  177.8780  140.6240 C   0  0  2  0  0  3  0  0  0  0  0  0
  181.5030  178.8320  140.1820 C   0  0  0  0  0  0  0  0  0  0  0  0
  179.7540  180.4410  140.7080 C   0  0  0  0  0  0  0  0  0  0  0  0
  183.3800  178.3860  141.8180 C   0  0  0  0  0  0  0  0  0  0  0  0
  184.7190  179.4110  144.0600 C   0  0  0  0  0  3  0  0  0  0  0  0
  180.7870  179.5940  141.1190 C   0  0  0  0  0  3  0  0  0  0  0  0
  184.4820  178.7020  139.1550 C   0  0  2  0  0  3  0  0  0  0  0  0
  182.9090  178.7040  145.4370 F   0  0  0  0  0  0  0  0  0  0  0  0
  181.8120  178.1080  137.8480 N   0  0  0  0  0  2  0  0  0  0  0  0
  179.0170  181.2530  141.7110 C   0  0  0  0  0  1  0  0  0  0  0  0
  185.3760  179.0070  140.3580 C   0  0  0  0  0  2  0  0  0  0  0  0
  183.5610  177.5150  139.4680 C   0  0  2  0  0  3  0  0  0  0  0  0
  182.8080  178.2870  143.0940 C   0  0  0  0  0  3  0  0  0  0  0  0
  179.4150  180.5260  139.3560 C   0  0  0  0  0  3  0  0  0  0  0  0
  184.6440  179.0030  141.6700 C   0  0  0  0  0  0  0  0  0  0  0  0
  185.3050  179.5040  142.7960 C   0  0  0  0  0  3  0  0  0  0  0  0
  182.7560  177.0700  138.2440 C   0  0  0  0  0  2  0  0  0  0  0  0
  181.1270  178.8960  138.8230 C   0  0  0  0  0  0  0  0  0  0  0  0
  180.1010  179.7540  138.4160 C   0  0  0  0  0  3  0  0  0  0  0  0
  187.2960  178.2530  139.2240 O   0  0  0  0  0  0  0  0  0  0  0  0
  186.7220  178.1860  138.1020 C   0  0  0  0  0  0  0  0  0  0  0  0
  185.3160  178.4100  137.9970 N   0  0  0  0  0  2  0  0  0  0  0  0
  189.8880  176.2280  137.4060 C   0  0  1  0  0  3  0  0  0  0  0  0
  187.5340  176.3830  136.5460 C   0  0  0  0  0  2  0  0  0  0  0  0
  188.9060  179.8250  137.2190 O   0  0  0  0  0  1  0  0  0  0  0  0
  190.8050  175.4740  138.3430 C   0  0  0  0  0  1  0  0  0  0  0  0
  188.4850  175.6310  137.4780 C   0  0  0  0  0  2  0  0  0  0  0  0
  188.9280  178.4740  136.8670 C   0  0  2  0  0  3  0  0  0  0  0  0
  187.5070  177.8850  136.8580 C   0  0  2  0  0  3  0  0  0  0  0  0
  189.8560  177.7000  137.8020 C   0  0  0  0  0  2  0  0  0  0  0  0
  1  9  1  0  0  0  0
  2  3  1  6  0  0  0
  2  5  1  0  0  0  0
  3  7  1  0  0  0  0
  4  7  2  0  0  0  0
  4 11  1  0  0  0  0
  5 14  1  0  0  0  0
  6  1  1  0  0  0  0
  8 23  1  6  0  0  0
  8 13  1  0  0  0  0
  8 12  1  0  0  0  0
 10 18  1  0  0  0  0
 10 19  1  0  0  0  0
 12 16  1  0  0  0  0
 13 18  1  6  0  0  0
 13  2  1  0  0  0  0
 14  1  2  0  0  0  0
 15  4  1  0  0  0  0
 16  5  2  0  0  0  0
 16 17  1  0  0  0  0
 17  6  2  0  0  0  0
 19  3  2  0  0  0  0
 20 19  1  0  0  0  0
 20 15  2  0  0  0  0
 22 21  2  0  0  0  0
 23 22  1  0  0  0  0
 24 28  1  0  0  0  0
 24 31  1  0  0  0  0
 24 27  1  1  0  0  0
 25 30  1  0  0  0  0
 25 28  1  0  0  0  0
 29 26  1  1  0  0  0
 29 31  1  0  0  0  0
 30 29  1  0  0  0  0
 30 22  1  1  0  0  0
M  END
>  <MODEL>
6

>  <REMARK>
 VINA RESULT:      -6.9      6.111      9.203
  Name = 
  2 active torsions:
  status: ('A' for Active; 'I' for Inactive)
    1  A    between atoms: C_5  and  C_30
    2  A    between atoms: C_10  and  N_16
                            x       y       z     vdW  Elec       q    Type
                         _______ _______ _______ _____ _____    ______ ____

>  <TORSDO>
F 2

$$$$
=
 OpenBabel11122411183D

 31 35  0  0  1  0  0  0  0  0999 V2000
  190.6710  176.7340  146.3200 C   0  0  0  0  0  0  0  0  0  0  0  0
  187.9010  177.0240  143.7310 C   0  0  2  0  0  3  0  0  0  0  0  0
  186.8280  177.9210  144.3370 C   0  0  0  0  0  0  0  0  0  0  0  0
  185.8090  179.0030  146.2650 C   0  0  0  0  0  0  0  0  0  0  0  0
  189.2450  177.1770  144.4040 C   0  0  0  0  0  0  0  0  0  0  0  0
  191.6810  177.5160  145.7540 C   0  0  0  0  0  3  0  0  0  0  0  0
  186.8160  178.2070  145.7120 C   0  0  0  0  0  3  0  0  0  0  0  0
  188.7300  178.5460  141.9000 C   0  0  2  0  0  3  0  0  0  0  0  0
  190.8660  176.1430  147.5220 F   0  0  0  0  0  0  0  0  0  0  0  0
  185.7400  178.1080  142.1340 N   0  0  0  0  0  2  0  0  0  0  0  0
  185.8200  179.3090  147.7190 C   0  0  0  0  0  1  0  0  0  0  0  0
  190.1610  178.5230  142.4410 C   0  0  0  0  0  2  0  0  0  0  0  0
  188.0280  177.2160  142.2060 C   0  0  2  0  0  3  0  0  0  0  0  0
  189.4600  176.5640  145.6460 C   0  0  0  0  0  3  0  0  0  0  0  0
  184.7940  179.5110  145.4510 C   0  0  0  0  0  3  0  0  0  0  0  0
  190.2710  177.9640  143.8320 C   0  0  0  0  0  0  0  0  0  0  0  0
  191.4830  178.1210  144.5110 C   0  0  0  0  0  3  0  0  0  0  0  0
  186.6480  177.1280  141.5490 C   0  0  0  0  0  2  0  0  0  0  0  0
  185.7770  178.4080  143.5310 C   0  0  0  0  0  0  0  0  0  0  0  0
  184.7780  179.2130  144.0870 C   0  0  0  0  0  3  0  0  0  0  0  0
  190.0750  176.9180  139.9850 O   0  0  0  0  0  0  0  0  0  0  0  0
  189.4500  177.9270  139.5570 C   0  0  0  0  0  0  0  0  0  0  0  0
  188.7630  178.7890  140.4650 N   0  0  0  0  0  2  0  0  0  0  0  0
  187.7530  176.3650  136.5530 C   0  0  1  0  0  3  0  0  0  0  0  0
  188.0230  178.6280  137.6060 C   0  0  0  0  0  2  0  0  0  0  0  0
  191.2870  176.7530  137.6910 O   0  0  0  0  0  1  0  0  0  0  0  0
  186.8460  175.1580  136.4520 C   0  0  0  0  0  1  0  0  0  0  0  0
  187.1200  177.4010  137.4780 C   0  0  0  0  0  2  0  0  0  0  0  0
  190.0370  177.1450  137.2080 C   0  0  2  0  0  3  0  0  0  0  0  0
  189.4280  178.2480  138.0900 C   0  0  2  0  0  3  0  0  0  0  0  0
  189.1120  175.9340  137.0940 C   0  0  0  0  0  2  0  0  0  0  0  0
  1  9  1  0  0  0  0
  2  3  1  1  0  0  0
  2  5  1  0  0  0  0
  3  7  1  0  0  0  0
  4 11  1  0  0  0  0
  5 14  1  0  0  0  0
  6  1  1  0  0  0  0
  7  4  2  0  0  0  0
  8 23  1  6  0  0  0
  8 13  1  0  0  0  0
  8 12  1  0  0  0  0
 10 19  1  0  0  0  0
 12 16  1  0  0  0  0
 13 18  1  6  0  0  0
 13  2  1  0  0  0  0
 14  1  2  0  0  0  0
 15  4  1  0  0  0  0
 16  5  2  0  0  0  0
 16 17  1  0  0  0  0
 17  6  2  0  0  0  0
 18 10  1  0  0  0  0
 19 20  1  0  0  0  0
 19  3  2  0  0  0  0
 20 15  2  0  0  0  0
 22 21  2  0  0  0  0
 22 23  1  0  0  0  0
 24 27  1  1  0  0  0
 24 31  1  0  0  0  0
 24 28  1  0  0  0  0
 25 30  1  0  0  0  0
 28 25  1  0  0  0  0
 29 26  1  1  0  0  0
 29 30  1  0  0  0  0
 30 22  1  1  0  0  0
 31 29  1  0  0  0  0
M  END
>  <MODEL>
7

>  <REMARK>
 VINA RESULT:      -6.8      3.340      8.204
  Name = 
  2 active torsions:
  status: ('A' for Active; 'I' for Inactive)
    1  A    between atoms: C_5  and  C_30
    2  A    between atoms: C_10  and  N_16
                            x       y       z     vdW  Elec       q    Type
                         _______ _______ _______ _____ _____    ______ ____

>  <TORSDO>
F 2

$$$$
=
 OpenBabel11122411183D

 31 35  0  0  1  0  0  0  0  0999 V2000
  191.8780  177.3560  140.4770 C   0  0  0  0  0  0  0  0  0  0  0  0
  189.4270  177.9250  137.6260 C   0  0  2  0  0  3  0  0  0  0  0  0
  189.3470  176.6160  136.8500 C   0  0  0  0  0  0  0  0  0  0  0  0
  190.2470  174.4240  136.2890 C   0  0  0  0  0  0  0  0  0  0  0  0
  189.9710  177.7480  139.0240 C   0  0  0  0  0  0  0  0  0  0  0  0
  191.0290  177.3050  141.5840 C   0  0  0  0  0  3  0  0  0  0  0  0
  190.3090  175.6080  137.0300 C   0  0  0  0  0  3  0  0  0  0  0  0
  187.1090  177.9650  138.6150 C   0  0  2  0  0  3  0  0  0  0  0  0
  193.2120  177.1870  140.6380 F   0  0  0  0  0  0  0  0  0  0  0  0
  187.3720  177.4540  135.6390 N   0  0  0  0  0  2  0  0  0  0  0  0
  191.2640  173.3620  136.5030 C   0  0  0  0  0  1  0  0  0  0  0  0
  187.6510  178.0220  140.0450 C   0  0  0  0  0  2  0  0  0  0  0  0
  188.0770  178.6690  137.6540 C   0  0  2  0  0  3  0  0  0  0  0  0
  191.3510  177.5790  139.2030 C   0  0  0  0  0  3  0  0  0  0  0  0
  189.2300  174.2390  135.3510 C   0  0  0  0  0  3  0  0  0  0  0  0
  189.1150  177.7000  140.1480 C   0  0  0  0  0  0  0  0  0  0  0  0
  189.6540  177.4860  141.4200 C   0  0  0  0  0  3  0  0  0  0  0  0
  187.5060  178.7770  136.2370 C   0  0  0  0  0  2  0  0  0  0  0  0
  188.3470  176.4340  135.8720 C   0  0  0  0  0  0  0  0  0  0  0  0
  188.2820  175.2430  135.1420 C   0  0  0  0  0  3  0  0  0  0  0  0
  184.6810  176.6660  137.8780 O   0  0  0  0  0  0  0  0  0  0  0  0
  184.6160  177.8840  138.2010 C   0  0  0  0  0  0  0  0  0  0  0  0
  185.7970  178.5950  138.5720 N   0  0  0  0  0  2  0  0  0  0  0  0
  181.1010  176.9670  139.2740 C   0  0  1  0  0  3  0  0  0  0  0  0
  182.7540  178.8280  139.6050 C   0  0  0  0  0  2  0  0  0  0  0  0
  182.7680  177.6950  136.0140 O   0  0  0  0  0  1  0  0  0  0  0  0
  180.5560  175.6880  139.8720 C   0  0  0  0  0  1  0  0  0  0  0  0
  182.1780  177.5390  140.1920 C   0  0  0  0  0  2  0  0  0  0  0  0
  182.2440  177.9560  137.2820 C   0  0  2  0  0  3  0  0  0  0  0  0
  183.3010  178.6090  138.1890 C   0  0  2  0  0  3  0  0  0  0  0  0
  181.6840  176.6750  137.8960 C   0  0  0  0  0  2  0  0  0  0  0  0
  1  9  1  0  0  0  0
  1  6  1  0  0  0  0
  2  3  1  1  0  0  0
  2 13  1  0  0  0  0
  2  5  1  0  0  0  0
  3  7  1  0  0  0  0
  4 11  1  0  0  0  0
  4  7  2  0  0  0  0
  5 14  1  0  0  0  0
  5 16  2  0  0  0  0
  8 23  1  1  0  0  0
  8 12  1  0  0  0  0
 10 19  1  0  0  0  0
 10 18  1  0  0  0  0
 12 16  1  0  0  0  0
 13 18  1  6  0  0  0
 13  8  1  0  0  0  0
 14  1  2  0  0  0  0
 15  4  1  0  0  0  0
 16 17  1  0  0  0  0
 17  6  2  0  0  0  0
 19  3  2  0  0  0  0
 20 15  2  0  0  0  0
 20 19  1  0  0  0  0
 21 22  2  0  0  0  0
 22 23  1  0  0  0  0
 24 27  1  1  0  0  0
 24 28  1  0  0  0  0
 25 28  1  0  0  0  0
 29 26  1  6  0  0  0
 29 31  1  0  0  0  0
 29 30  1  0  0  0  0
 30 22  1  1  0  0  0
 30 25  1  0  0  0  0
 31 24  1  0  0  0  0
M  END
>  <MODEL>
8

>  <REMARK>
 VINA RESULT:      -6.7      3.878      6.136
  Name = 
  2 active torsions:
  status: ('A' for Active; 'I' for Inactive)
    1  A    between atoms: C_5  and  C_30
    2  A    between atoms: C_10  and  N_16
                            x       y       z     vdW  Elec       q    Type
                         _______ _______ _______ _____ _____    ______ ____

>  <TORSDO>
F 2

$$$$
=
 OpenBabel11122411183D

 31 35  0  0  1  0  0  0  0  0999 V2000
  184.8480  178.6590  138.9320 C   0  0  0  0  0  0  0  0  0  0  0  0
  188.6090  178.1090  139.0090 C   0  0  2  0  0  3  0  0  0  0  0  0
  188.9280  177.4490  140.3450 C   0  0  0  0  0  0  0  0  0  0  0  0
  188.3030  176.8650  142.6240 C   0  0  0  0  0  0  0  0  0  0  0  0
  187.1560  177.9730  138.6160 C   0  0  0  0  0  0  0  0  0  0  0  0
  184.4310  177.6940  138.0120 C   0  0  0  0  0  3  0  0  0  0  0  0
  187.9900  177.4430  141.3910 C   0  0  0  0  0  3  0  0  0  0  0  0
  189.1260  176.1860  137.4620 C   0  0  2  0  0  3  0  0  0  0  0  0
  183.9350  179.4570  139.5350 F   0  0  0  0  0  0  0  0  0  0  0  0
  191.1980  176.9260  139.5460 N   0  0  0  0  0  2  0  0  0  0  0  0
  187.2940  176.8550  143.7150 C   0  0  0  0  0  1  0  0  0  0  0  0
  187.7100  176.1890  136.8820 C   0  0  0  0  0  2  0  0  0  0  0  0
  189.5300  177.6070  137.8770 C   0  0  2  0  0  3  0  0  0  0  0  0
  186.2040  178.7990  139.2300 C   0  0  0  0  0  3  0  0  0  0  0  0
  189.5620  176.2980  142.8320 C   0  0  0  0  0  3  0  0  0  0  0  0
  186.7320  177.0000  137.6830 C   0  0  0  0  0  0  0  0  0  0  0  0
  185.3720  176.8750  137.3840 C   0  0  0  0  0  3  0  0  0  0  0  0
  190.9940  177.6850  138.3180 C   0  0  0  0  0  2  0  0  0  0  0  0
  190.2090  176.9070  140.5780 C   0  0  0  0  0  0  0  0  0  0  0  0
  190.5130  176.3200  141.8100 C   0  0  0  0  0  3  0  0  0  0  0  0
  190.4010  173.6390  137.5810 O   0  0  0  0  0  0  0  0  0  0  0  0
  190.6510  174.3710  136.5840 C   0  0  0  0  0  0  0  0  0  0  0  0
  190.0520  175.6610  136.4680 N   0  0  0  0  0  2  0  0  0  0  0  0
  194.4230  174.1710  136.3020 C   0  0  1  0  0  3  0  0  0  0  0  0
  192.4210  172.6950  135.9600 C   0  0  0  0  0  2  0  0  0  0  0  0
  191.7440  176.1440  134.6100 O   0  0  0  0  0  1  0  0  0  0  0  0
  195.5060  174.5620  137.2830 C   0  0  0  0  0  1  0  0  0  0  0  0
  193.5320  173.1010  136.9280 C   0  0  0  0  0  2  0  0  0  0  0  0
  192.4940  175.0180  134.9540 C   0  0  2  0  0  3  0  0  0  0  0  0
  191.5910  173.9040  135.5100 C   0  0  2  0  0  3  0  0  0  0  0  0
  193.5960  175.4000  135.9400 C   0  0  0  0  0  2  0  0  0  0  0  0
  1 14  1  0  0  0  0
  1  9  1  0  0  0  0
  2  5  1  6  0  0  0
  2  3  1  0  0  0  0
  3 19  2  0  0  0  0
  3  7  1  0  0  0  0
  4 15  1  0  0  0  0
  4 11  1  0  0  0  0
  5 14  2  0  0  0  0
  6  1  2  0  0  0  0
  7  4  2  0  0  0  0
  8 23  1  6  0  0  0
  8 13  1  0  0  0  0
 10 19  1  0  0  0  0
 12  8  1  0  0  0  0
 12 16  1  0  0  0  0
 13 18  1  1  0  0  0
 13  2  1  0  0  0  0
 16  5  1  0  0  0  0
 17 16  2  0  0  0  0
 17  6  1  0  0  0  0
 18 10  1  0  0  0  0
 19 20  1  0  0  0  0
 20 15  2  0  0  0  0
 22 21  2  0  0  0  0
 23 22  1  0  0  0  0
 24 28  1  0  0  0  0
 24 27  1  1  0  0  0
 25 28  1  0  0  0  0
 29 26  1  1  0  0  0
 29 30  1  0  0  0  0
 29 31  1  0  0  0  0
 30 25  1  0  0  0  0
 30 22  1  1  0  0  0
 31 24  1  0  0  0  0
M  END
>  <MODEL>
9

>  <REMARK>
 VINA RESULT:      -6.5      3.367      7.562
  Name = 
  2 active torsions:
  status: ('A' for Active; 'I' for Inactive)
    1  A    between atoms: C_5  and  C_30
    2  A    between atoms: C_10  and  N_16
                            x       y       z     vdW  Elec       q    Type
                         _______ _______ _______ _____ _____    ______ ____

>  <TORSDO>
F 2

$$$$
