=
 OpenBabel11122410323D

 30 35  0  0  1  0  0  0  0  0999 V2000
  186.7260  178.0110  142.0200 C   0  0  2  0  0  3  0  0  0  0  0  0
  184.3350  178.8340  141.9590 C   0  0  0  0  0  0  0  0  0  0  0  0
  186.4770  177.8110  146.2610 N   0  0  0  0  0  2  0  0  0  0  0  0
  187.6970  177.0940  142.8240 C   0  0  1  0  0  3  0  0  0  0  0  0
  187.3420  179.2300  141.7190 O   0  0  0  0  0  1  0  0  0  0  0  0
  190.6960  176.6770  144.1780 C   0  0  0  0  0  0  0  0  0  0  0  0
  189.9850  177.6110  145.1030 C   0  0  2  0  0  3  0  0  0  0  0  0
  187.8440  177.5230  146.5370 C   0  0  0  0  0  0  0  0  0  0  0  0
  189.1270  177.1040  142.2030 C   0  0  1  0  0  3  0  0  0  0  0  0
  183.1450  179.2040  142.5930 C   0  0  0  0  0  3  0  0  0  0  0  0
  190.8800  177.5140  146.2990 C   0  0  0  0  0  3  0  0  0  0  0  0
  191.7550  176.1650  144.7070 N   0  0  0  0  0  0  0  0  0  0  0  0
  184.4530  179.0050  140.5840 O   0  0  0  0  0  1  0  0  0  0  0  0
  186.3020  177.4180  144.8750 C   0  0  2  0  0  3  0  0  0  0  0  0
  183.0010  179.0440  143.9720 C   0  0  0  0  0  3  0  0  0  0  0  0
  185.3990  178.3000  142.7080 C   0  0  0  0  0  0  0  0  0  0  0  0
  187.6700  177.6000  144.2650 C   0  0  1  0  0  3  0  0  0  0  0  0
  188.3280  177.6020  147.6960 O   0  0  0  0  0  0  0  0  0  0  0  0
  188.5910  177.0410  145.3310 C   0  0  1  0  0  3  0  0  0  0  0  0
  191.8810  176.6950  146.0170 C   0  0  0  0  0  3  0  0  0  0  0  0
  189.6190  174.8850  143.0470 O   0  0  0  0  0  1  0  0  0  0  0  0
  184.0470  178.5120  144.7260 C   0  0  0  0  0  3  0  0  0  0  0  0
  185.2550  178.1640  144.1110 C   0  0  0  0  0  0  0  0  0  0  0  0
  190.1510  176.1660  142.8770 C   0  0  2  0  0  3  0  0  0  0  0  0
  189.9260  178.0940  139.9360 C   0  0  0  0  0  2  0  0  0  0  0  0
  189.1160  177.0230  140.6540 C   0  0  1  0  0  3  0  0  0  0  0  0
  190.5080  176.7090  140.1210 C   0  0  1  0  0  3  0  0  0  0  0  0
  190.3830  175.9590  138.8850 N   0  0  0  0  0  2  0  0  0  0  0  0
  192.5920  176.3440  137.9690 C   0  0  0  0  0  1  0  0  0  0  0  0
  191.1210  176.6930  137.8730 C   0  0  0  0  0  2  0  0  0  0  0  0
  1  5  1  1  0  0  0
  1 16  1  0  0  0  0
  1  4  1  0  0  0  0
  2 10  2  0  0  0  0
  2 16  1  0  0  0  0
  3  8  1  0  0  0  0
  4 17  1  0  0  0  0
  6 12  2  0  0  0  0
  6  7  1  0  0  0  0
  7 19  1  0  0  0  0
  7 11  1  0  0  0  0
  8 18  2  0  0  0  0
  9  4  1  0  0  0  0
  9 24  1  0  0  0  0
 10 15  1  0  0  0  0
 12 20  1  0  0  0  0
 13  2  1  0  0  0  0
 14  3  1  0  0  0  0
 15 22  2  0  0  0  0
 16 23  2  0  0  0  0
 17 14  1  0  0  0  0
 17 19  1  0  0  0  0
 19  8  1  0  0  0  0
 20 11  2  0  0  0  0
 23 22  1  0  0  0  0
 23 14  1  0  0  0  0
 24 21  1  0  0  0  0
 24  6  1  0  0  0  0
 25 27  1  0  0  0  0
 25 26  1  0  0  0  0
 26  9  1  0  0  0  0
 27 26  1  0  0  0  0
 28 27  1  0  0  0  0
 30 29  1  0  0  0  0
 30 28  1  0  0  0  0
M  END
>  <MODEL>
1

>  <REMARK>
 VINA RESULT:      -9.7      0.000      0.000
  Name = 
  3 active torsions:
  status: ('A' for Active; 'I' for Inactive)
    1  A    between atoms: C_8  and  C_12
    2  A    between atoms: C_11  and  N_28
    3  A    between atoms: N_28  and  C_30
                            x       y       z     vdW  Elec       q    Type
                         _______ _______ _______ _____ _____    ______ ____

>  <TORSDO>
F 3

$$$$
=
 OpenBabel11122410323D

 30 35  0  0  1  0  0  0  0  0999 V2000
  186.3200  178.1340  142.1050 C   0  0  2  0  0  3  0  0  0  0  0  0
  183.9060  178.8750  142.2440 C   0  0  0  0  0  0  0  0  0  0  0  0
  186.4040  177.8440  146.3480 N   0  0  0  0  0  2  0  0  0  0  0  0
  187.3800  177.2360  142.8130 C   0  0  1  0  0  3  0  0  0  0  0  0
  186.8710  179.3790  141.7850 O   0  0  0  0  0  1  0  0  0  0  0  0
  190.4860  176.8970  143.9270 C   0  0  0  0  0  0  0  0  0  0  0  0
  189.8180  177.7880  144.9230 C   0  0  2  0  0  3  0  0  0  0  0  0
  187.7960  177.5990  146.5130 C   0  0  0  0  0  0  0  0  0  0  0  0
  188.7570  177.3070  142.0860 C   0  0  1  0  0  3  0  0  0  0  0  0
  182.7560  179.1920  142.9740 C   0  0  0  0  0  3  0  0  0  0  0  0
  190.8040  177.6990  146.0450 C   0  0  0  0  0  3  0  0  0  0  0  0
  191.5980  176.4120  144.3620 N   0  0  0  0  0  0  0  0  0  0  0  0
  183.9130  179.0760  140.8680 O   0  0  0  0  0  1  0  0  0  0  0  0
  186.1360  177.4720  144.9710 C   0  0  2  0  0  3  0  0  0  0  0  0
  182.7240  179.0000  144.3560 C   0  0  0  0  0  3  0  0  0  0  0  0
  185.0410  178.3630  142.8980 C   0  0  0  0  0  0  0  0  0  0  0  0
  187.4460  177.7130  144.2620 C   0  0  1  0  0  3  0  0  0  0  0  0
  188.3640  177.6710  147.6340 O   0  0  0  0  0  0  0  0  0  0  0  0
  188.4640  177.1650  145.2440 C   0  0  1  0  0  3  0  0  0  0  0  0
  191.8070  176.9200  145.6700 C   0  0  0  0  0  3  0  0  0  0  0  0
  189.3850  175.0900  142.8420 O   0  0  0  0  0  1  0  0  0  0  0  0
  183.8410  178.4900  145.0170 C   0  0  0  0  0  3  0  0  0  0  0  0
  185.0100  178.1950  144.3040 C   0  0  0  0  0  0  0  0  0  0  0  0
  189.8600  176.3920  142.6600 C   0  0  2  0  0  3  0  0  0  0  0  0
  189.3110  178.3910  139.7890 C   0  0  0  0  0  2  0  0  0  0  0  0
  188.6310  177.2550  140.5410 C   0  0  1  0  0  3  0  0  0  0  0  0
  189.9930  177.0440  139.8950 C   0  0  1  0  0  3  0  0  0  0  0  0
  189.8210  176.3120  138.6550 N   0  0  0  0  0  2  0  0  0  0  0  0
  188.0280  175.6460  137.1680 C   0  0  0  0  0  1  0  0  0  0  0  0
  188.5430  176.7220  138.1010 C   0  0  0  0  0  2  0  0  0  0  0  0
  1  5  1  1  0  0  0
  1  4  1  0  0  0  0
  1 16  1  0  0  0  0
  2 16  2  0  0  0  0
  2 10  1  0  0  0  0
  3  8  1  0  0  0  0
  4 17  1  0  0  0  0
  6 12  2  0  0  0  0
  6  7  1  0  0  0  0
  7 19  1  0  0  0  0
  7 11  1  0  0  0  0
  8 18  2  0  0  0  0
  9 24  1  0  0  0  0
  9  4  1  0  0  0  0
 10 15  2  0  0  0  0
 12 20  1  0  0  0  0
 13  2  1  0  0  0  0
 14  3  1  0  0  0  0
 15 22  1  0  0  0  0
 16 23  1  0  0  0  0
 17 14  1  0  0  0  0
 17 19  1  0  0  0  0
 19  8  1  0  0  0  0
 20 11  2  0  0  0  0
 23 14  1  0  0  0  0
 23 22  2  0  0  0  0
 24 21  1  0  0  0  0
 24  6  1  0  0  0  0
 25 27  1  0  0  0  0
 25 26  1  0  0  0  0
 26  9  1  0  0  0  0
 27 26  1  0  0  0  0
 28 27  1  0  0  0  0
 29 30  1  0  0  0  0
 30 28  1  0  0  0  0
M  END
>  <MODEL>
2

>  <REMARK>
 VINA RESULT:      -9.6      0.878      1.063
  Name = 
  3 active torsions:
  status: ('A' for Active; 'I' for Inactive)
    1  A    between atoms: C_8  and  C_12
    2  A    between atoms: C_11  and  N_28
    3  A    between atoms: N_28  and  C_30
                            x       y       z     vdW  Elec       q    Type
                         _______ _______ _______ _____ _____    ______ ____

>  <TORSDO>
F 3

$$$$
=
 OpenBabel11122410323D

 30 35  0  0  1  0  0  0  0  0999 V2000
  186.7610  178.1720  144.9950 C   0  0  2  0  0  3  0  0  0  0  0  0
  184.2900  178.6030  145.3160 C   0  0  0  0  0  0  0  0  0  0  0  0
  186.2360  178.6850  140.8050 N   0  0  0  0  0  2  0  0  0  0  0  0
  187.9730  178.5470  144.0890 C   0  0  1  0  0  3  0  0  0  0  0  0
  186.7340  176.7930  145.2280 O   0  0  0  0  0  1  0  0  0  0  0  0
  190.6530  177.5340  142.4150 C   0  0  0  0  0  0  0  0  0  0  0  0
  189.4930  177.1070  141.5740 C   0  0  2  0  0  3  0  0  0  0  0  0
  187.5370  178.2910  140.3820 C   0  0  0  0  0  0  0  0  0  0  0  0
  189.2710  177.8160  144.5510 C   0  0  1  0  0  3  0  0  0  0  0  0
  183.0150  178.8860  144.8170 C   0  0  0  0  0  3  0  0  0  0  0  0
  190.2030  176.8220  140.2890 C   0  0  0  0  0  3  0  0  0  0  0  0
  191.7710  177.4970  141.7740 N   0  0  0  0  0  0  0  0  0  0  0  0
  184.4410  178.3260  146.6700 O   0  0  0  0  0  1  0  0  0  0  0  0
  186.4070  179.0420  142.2020 C   0  0  2  0  0  3  0  0  0  0  0  0
  182.8360  179.1660  143.4610 C   0  0  0  0  0  3  0  0  0  0  0  0
  185.4030  178.5950  144.4550 C   0  0  0  0  0  0  0  0  0  0  0  0
  187.5660  178.1910  142.6600 C   0  0  1  0  0  3  0  0  0  0  0  0
  187.8080  178.0490  139.1770 O   0  0  0  0  0  0  0  0  0  0  0  0
  188.5360  178.2910  141.4990 C   0  0  1  0  0  3  0  0  0  0  0  0
  191.4980  177.0410  140.4590 C   0  0  0  0  0  3  0  0  0  0  0  0
  190.6950  179.5620  143.6540 O   0  0  0  0  0  1  0  0  0  0  0  0
  183.9310  179.1660  142.5970 C   0  0  0  0  0  3  0  0  0  0  0  0
  185.2090  178.8560  143.0760 C   0  0  0  0  0  0  0  0  0  0  0  0
  190.5520  178.1770  143.7670 C   0  0  2  0  0  3  0  0  0  0  0  0
  189.0870  176.5100  146.7900 C   0  0  0  0  0  2  0  0  0  0  0  0
  189.4500  177.8130  146.0910 C   0  0  1  0  0  3  0  0  0  0  0  0
  190.5380  176.8320  146.5060 C   0  0  1  0  0  3  0  0  0  0  0  0
  191.1750  177.3160  147.7150 N   0  0  0  0  0  2  0  0  0  0  0  0
  192.4020  175.3950  146.8950 C   0  0  0  0  0  1  0  0  0  0  0  0
  192.2320  176.3740  148.0380 C   0  0  0  0  0  2  0  0  0  0  0  0
  1  5  1  6  0  0  0
  2 13  1  0  0  0  0
  3 14  1  0  0  0  0
  4  9  1  0  0  0  0
  4  1  1  0  0  0  0
  6 24  1  0  0  0  0
  7  6  1  0  0  0  0
  8  3  1  0  0  0  0
  8 19  1  0  0  0  0
  9 26  1  0  0  0  0
 10  2  1  0  0  0  0
 11 20  2  0  0  0  0
 11  7  1  0  0  0  0
 12  6  2  0  0  0  0
 14 17  1  0  0  0  0
 14 23  1  0  0  0  0
 15 10  2  0  0  0  0
 16  1  1  0  0  0  0
 16  2  2  0  0  0  0
 17  4  1  0  0  0  0
 18  8  2  0  0  0  0
 19  7  1  0  0  0  0
 19 17  1  0  0  0  0
 20 12  1  0  0  0  0
 21 24  1  0  0  0  0
 22 23  2  0  0  0  0
 22 15  1  0  0  0  0
 23 16  1  0  0  0  0
 24  9  1  0  0  0  0
 26 27  1  0  0  0  0
 26 25  1  0  0  0  0
 27 25  1  0  0  0  0
 27 28  1  0  0  0  0
 28 30  1  0  0  0  0
 29 30  1  0  0  0  0
M  END
>  <MODEL>
3

>  <REMARK>
 VINA RESULT:      -9.0      2.109      5.109
  Name = 
  3 active torsions:
  status: ('A' for Active; 'I' for Inactive)
    1  A    between atoms: C_8  and  C_12
    2  A    between atoms: C_11  and  N_28
    3  A    between atoms: N_28  and  C_30
                            x       y       z     vdW  Elec       q    Type
                         _______ _______ _______ _____ _____    ______ ____

>  <TORSDO>
F 3

$$$$
=
 OpenBabel11122410323D

 30 35  0  0  1  0  0  0  0  0999 V2000
  188.3680  177.6380  144.2830 C   0  0  2  0  0  3  0  0  0  0  0  0
  189.2810  177.3250  146.6200 C   0  0  0  0  0  0  0  0  0  0  0  0
  184.6040  178.6800  145.9670 N   0  0  0  0  0  2  0  0  0  0  0  0
  187.3400  178.4710  143.4590 C   0  0  1  0  0  3  0  0  0  0  0  0
  188.2840  176.2840  143.9410 O   0  0  0  0  0  1  0  0  0  0  0  0
  184.9650  178.5140  141.1440 C   0  0  0  0  0  0  0  0  0  0  0  0
  184.3070  177.9370  142.3550 C   0  0  2  0  0  3  0  0  0  0  0  0
  183.8440  178.7300  144.7650 C   0  0  0  0  0  0  0  0  0  0  0  0
  187.3470  178.0520  141.9570 C   0  0  1  0  0  3  0  0  0  0  0  0
  189.1330  177.3320  148.0110 C   0  0  0  0  0  3  0  0  0  0  0  0
  182.8720  178.0730  141.9540 C   0  0  0  0  0  3  0  0  0  0  0  0
  184.1160  178.8890  140.2490 N   0  0  0  0  0  0  0  0  0  0  0  0
  190.4770  176.8770  146.0690 O   0  0  0  0  0  1  0  0  0  0  0  0
  185.9790  178.8320  145.5270 C   0  0  2  0  0  3  0  0  0  0  0  0
  187.9430  177.7750  148.5900 C   0  0  0  0  0  3  0  0  0  0  0  0
  188.2300  177.7620  145.7940 C   0  0  0  0  0  0  0  0  0  0  0  0
  185.9840  178.2630  144.1300 C   0  0  1  0  0  3  0  0  0  0  0  0
  182.5860  178.7740  144.7650 O   0  0  0  0  0  0  0  0  0  0  0  0
  184.7010  178.8130  143.5390 C   0  0  1  0  0  3  0  0  0  0  0  0
  182.8160  178.6010  140.7410 C   0  0  0  0  0  3  0  0  0  0  0  0
  186.5950  180.2430  141.2380 O   0  0  0  0  0  1  0  0  0  0  0  0
  186.8940  178.2150  147.7820 C   0  0  0  0  0  3  0  0  0  0  0  0
  187.0170  178.1860  146.3880 C   0  0  0  0  0  0  0  0  0  0  0  0
  186.4190  178.8710  141.0350 C   0  0  2  0  0  3  0  0  0  0  0  0
  189.0960  176.4240  140.9340 C   0  0  0  0  0  2  0  0  0  0  0  0
  188.7760  177.8400  141.3930 C   0  0  1  0  0  3  0  0  0  0  0  0
  188.7240  177.4800  139.9150 C   0  0  1  0  0  3  0  0  0  0  0  0
  189.9230  177.9730  139.2650 N   0  0  0  0  0  2  0  0  0  0  0  0
  188.9510  179.0090  137.3030 C   0  0  0  0  0  1  0  0  0  0  0  0
  189.7190  177.8180  137.8360 C   0  0  0  0  0  2  0  0  0  0  0  0
  1  5  1  1  0  0  0
  1 16  1  0  0  0  0
  2 10  1  0  0  0  0
  4 17  1  0  0  0  0
  4  1  1  0  0  0  0
  6  7  1  0  0  0  0
  7 19  1  0  0  0  0
  8  3  1  0  0  0  0
  9  4  1  0  0  0  0
 10 15  2  0  0  0  0
 11  7  1  0  0  0  0
 12 20  1  0  0  0  0
 12  6  2  0  0  0  0
 13  2  1  0  0  0  0
 14  3  1  0  0  0  0
 14 23  1  0  0  0  0
 16 23  1  0  0  0  0
 16  2  2  0  0  0  0
 17 14  1  0  0  0  0
 18  8  2  0  0  0  0
 19 17  1  0  0  0  0
 19  8  1  0  0  0  0
 20 11  2  0  0  0  0
 22 15  1  0  0  0  0
 23 22  2  0  0  0  0
 24  6  1  0  0  0  0
 24 21  1  0  0  0  0
 24  9  1  0  0  0  0
 25 26  1  0  0  0  0
 26  9  1  0  0  0  0
 27 25  1  0  0  0  0
 27 26  1  0  0  0  0
 28 27  1  0  0  0  0
 29 30  1  0  0  0  0
 30 28  1  0  0  0  0
M  END
>  <MODEL>
4

>  <REMARK>
 VINA RESULT:      -8.3      2.103      5.401
  Name = 
  3 active torsions:
  status: ('A' for Active; 'I' for Inactive)
    1  A    between atoms: C_8  and  C_12
    2  A    between atoms: C_11  and  N_28
    3  A    between atoms: N_28  and  C_30
                            x       y       z     vdW  Elec       q    Type
                         _______ _______ _______ _____ _____    ______ ____

>  <TORSDO>
F 3

$$$$
=
 OpenBabel11122410323D

 30 35  0  0  1  0  0  0  0  0999 V2000
  189.5190  177.1110  143.3530 C   0  0  2  0  0  3  0  0  0  0  0  0
  191.2520  176.3420  145.0270 C   0  0  0  0  0  0  0  0  0  0  0  0
  186.9160  178.0490  146.5840 N   0  0  0  0  0  2  0  0  0  0  0  0
  188.3580  178.1320  143.1580 C   0  0  1  0  0  3  0  0  0  0  0  0
  189.1380  175.8450  142.8960 O   0  0  0  0  0  1  0  0  0  0  0  0
  185.2750  178.7130  142.0790 C   0  0  0  0  0  0  0  0  0  0  0  0
  185.0970  177.9690  143.3630 C   0  0  2  0  0  3  0  0  0  0  0  0
  185.7470  178.3510  145.8290 C   0  0  0  0  0  0  0  0  0  0  0  0
  187.7060  177.9840  141.7500 C   0  0  1  0  0  3  0  0  0  0  0  0
  191.6800  176.1130  146.3380 C   0  0  0  0  0  3  0  0  0  0  0  0
  183.6510  178.2530  143.6220 C   0  0  0  0  0  3  0  0  0  0  0  0
  184.1900  179.2860  141.6820 N   0  0  0  0  0  0  0  0  0  0  0  0
  192.0580  175.9330  143.9700 O   0  0  0  0  0  1  0  0  0  0  0  0
  188.0030  178.1990  145.6340 C   0  0  2  0  0  3  0  0  0  0  0  0
  190.8900  176.5130  147.4170 C   0  0  0  0  0  3  0  0  0  0  0  0
  190.0200  176.9750  144.7840 C   0  0  0  0  0  0  0  0  0  0  0  0
  187.3730  177.8850  144.2990 C   0  0  1  0  0  3  0  0  0  0  0  0
  184.6120  178.4640  146.3620 O   0  0  0  0  0  0  0  0  0  0  0  0
  186.0390  178.6000  144.3810 C   0  0  1  0  0  3  0  0  0  0  0  0
  183.1760  178.9890  142.6290 C   0  0  0  0  0  3  0  0  0  0  0  0
  187.0040  180.3050  141.7190 O   0  0  0  0  0  1  0  0  0  0  0  0
  189.6670  177.1450  147.1910 C   0  0  0  0  0  3  0  0  0  0  0  0
  189.2120  177.3550  145.8840 C   0  0  0  0  0  0  0  0  0  0  0  0
  186.5930  179.0030  141.4220 C   0  0  2  0  0  3  0  0  0  0  0  0
  188.3790  176.7720  139.5510 C   0  0  0  0  0  2  0  0  0  0  0  0
  188.7470  177.7960  140.6160 C   0  0  1  0  0  3  0  0  0  0  0  0
  188.1760  178.2470  139.2790 C   0  0  1  0  0  3  0  0  0  0  0  0
  189.2560  178.7410  138.4460 N   0  0  0  0  0  2  0  0  0  0  0  0
  187.5460  178.6970  136.7300 C   0  0  0  0  0  1  0  0  0  0  0  0
  188.9670  178.3140  137.0880 C   0  0  0  0  0  2  0  0  0  0  0  0
  1  5  1  1  0  0  0
  1 16  1  0  0  0  0
  2 10  1  0  0  0  0
  4  1  1  0  0  0  0
  4 17  1  0  0  0  0
  6  7  1  0  0  0  0
  7 11  1  0  0  0  0
  7 19  1  0  0  0  0
  8 18  2  0  0  0  0
  8  3  1  0  0  0  0
  9  4  1  0  0  0  0
 10 15  2  0  0  0  0
 12  6  2  0  0  0  0
 12 20  1  0  0  0  0
 13  2  1  0  0  0  0
 14 23  1  0  0  0  0
 14  3  1  0  0  0  0
 16  2  2  0  0  0  0
 16 23  1  0  0  0  0
 17 19  1  0  0  0  0
 17 14  1  0  0  0  0
 19  8  1  0  0  0  0
 20 11  2  0  0  0  0
 22 15  1  0  0  0  0
 23 22  2  0  0  0  0
 24 21  1  0  0  0  0
 24  9  1  0  0  0  0
 24  6  1  0  0  0  0
 25 26  1  0  0  0  0
 26  9  1  0  0  0  0
 27 25  1  0  0  0  0
 27 26  1  0  0  0  0
 28 27  1  0  0  0  0
 29 30  1  0  0  0  0
 30 28  1  0  0  0  0
M  END
>  <MODEL>
5

>  <REMARK>
 VINA RESULT:      -8.2      1.998      5.448
  Name = 
  3 active torsions:
  status: ('A' for Active; 'I' for Inactive)
    1  A    between atoms: C_8  and  C_12
    2  A    between atoms: C_11  and  N_28
    3  A    between atoms: N_28  and  C_30
                            x       y       z     vdW  Elec       q    Type
                         _______ _______ _______ _____ _____    ______ ____

>  <TORSDO>
F 3

$$$$
=
 OpenBabel11122410323D

 30 35  0  0  1  0  0  0  0  0999 V2000
  187.8270  177.2270  143.6850 C   0  0  2  0  0  3  0  0  0  0  0  0
  185.7360  177.9610  144.9020 C   0  0  0  0  0  0  0  0  0  0  0  0
  186.3030  179.0050  140.1340 N   0  0  0  0  0  2  0  0  0  0  0  0
  188.7930  177.6340  142.5300 C   0  0  1  0  0  3  0  0  0  0  0  0
  187.5190  175.8650  143.6060 O   0  0  0  0  0  1  0  0  0  0  0  0
  190.5530  176.7040  139.8770 C   0  0  0  0  0  0  0  0  0  0  0  0
  189.1370  176.7420  139.4010 C   0  0  2  0  0  3  0  0  0  0  0  0
  187.2910  178.5340  139.2240 C   0  0  0  0  0  0  0  0  0  0  0  0
  189.9390  176.5910  142.3580 C   0  0  1  0  0  3  0  0  0  0  0  0
  184.4870  178.5890  144.9330 C   0  0  0  0  0  3  0  0  0  0  0  0
  189.3640  176.7220  137.9230 C   0  0  0  0  0  3  0  0  0  0  0  0
  191.4010  176.6640  138.9060 N   0  0  0  0  0  0  0  0  0  0  0  0
  186.1830  177.2850  146.0310 O   0  0  0  0  0  1  0  0  0  0  0  0
  186.9410  178.9100  141.4340 C   0  0  2  0  0  3  0  0  0  0  0  0
  184.0140  179.2740  143.8130 C   0  0  0  0  0  3  0  0  0  0  0  0
  186.5250  178.0120  143.7380 C   0  0  0  0  0  0  0  0  0  0  0  0
  187.9280  177.7800  141.2800 C   0  0  1  0  0  3  0  0  0  0  0  0
  187.1460  178.6060  137.9760 O   0  0  0  0  0  0  0  0  0  0  0  0
  188.5270  178.0420  139.9120 C   0  0  1  0  0  3  0  0  0  0  0  0
  190.6670  176.6580  137.6920 C   0  0  0  0  0  3  0  0  0  0  0  0
  191.4500  178.2530  141.4420 O   0  0  0  0  0  1  0  0  0  0  0  0
  184.7880  179.3350  142.6530 C   0  0  0  0  0  3  0  0  0  0  0  0
  186.0270  178.6870  142.5970 C   0  0  0  0  0  0  0  0  0  0  0  0
  190.9990  176.9380  141.2900 C   0  0  2  0  0  3  0  0  0  0  0  0
  192.0540  176.0750  143.7790 C   0  0  0  0  0  2  0  0  0  0  0  0
  190.5330  176.1150  143.7090 C   0  0  1  0  0  3  0  0  0  0  0  0
  191.3030  177.2400  144.3870 C   0  0  1  0  0  3  0  0  0  0  0  0
  191.2210  177.0690  145.8250 N   0  0  0  0  0  2  0  0  0  0  0  0
  189.3980  176.8170  147.4000 C   0  0  0  0  0  1  0  0  0  0  0  0
  189.9450  177.6230  146.2410 C   0  0  0  0  0  2  0  0  0  0  0  0
  1  5  1  6  0  0  0
  1 16  1  0  0  0  0
  2 10  1  0  0  0  0
  2 13  1  0  0  0  0
  3 14  1  0  0  0  0
  4  1  1  0  0  0  0
  6 24  1  0  0  0  0
  7  6  1  0  0  0  0
  7 19  1  0  0  0  0
  8 19  1  0  0  0  0
  8  3  1  0  0  0  0
  9  4  1  0  0  0  0
  9 26  1  0  0  0  0
 11  7  1  0  0  0  0
 12  6  2  0  0  0  0
 14 23  1  0  0  0  0
 15 10  2  0  0  0  0
 16  2  2  0  0  0  0
 17 14  1  0  0  0  0
 17  4  1  0  0  0  0
 18  8  2  0  0  0  0
 19 17  1  0  0  0  0
 20 11  2  0  0  0  0
 20 12  1  0  0  0  0
 22 15  1  0  0  0  0
 23 22  2  0  0  0  0
 23 16  1  0  0  0  0
 24 21  1  0  0  0  0
 24  9  1  0  0  0  0
 25 27  1  0  0  0  0
 26 25  1  0  0  0  0
 26 27  1  0  0  0  0
 27 28  1  0  0  0  0
 28 30  1  0  0  0  0
 30 29  1  0  0  0  0
M  END
>  <MODEL>
6

>  <REMARK>
 VINA RESULT:      -8.0      1.918      5.358
  Name = 
  3 active torsions:
  status: ('A' for Active; 'I' for Inactive)
    1  A    between atoms: C_8  and  C_12
    2  A    between atoms: C_11  and  N_28
    3  A    between atoms: N_28  and  C_30
                            x       y       z     vdW  Elec       q    Type
                         _______ _______ _______ _____ _____    ______ ____

>  <TORSDO>
F 3

$$$$
=
 OpenBabel11122410323D

 30 35  0  0  1  0  0  0  0  0999 V2000
  188.1080  177.3790  142.9790 C   0  0  2  0  0  3  0  0  0  0  0  0
  187.1900  177.6120  145.3240 C   0  0  0  0  0  0  0  0  0  0  0  0
  184.5570  179.1800  141.4830 N   0  0  0  0  0  2  0  0  0  0  0  0
  188.1000  178.0570  141.5750 C   0  0  1  0  0  3  0  0  0  0  0  0
  187.9310  175.9970  142.8540 O   0  0  0  0  0  1  0  0  0  0  0  0
  187.8780  177.7080  138.2840 C   0  0  0  0  0  0  0  0  0  0  0  0
  186.4790  177.5360  138.7820 C   0  0  2  0  0  3  0  0  0  0  0  0
  184.7910  178.9800  140.0930 C   0  0  0  0  0  0  0  0  0  0  0  0
  188.9660  177.2560  140.5560 C   0  0  1  0  0  3  0  0  0  0  0  0
  186.1900  178.0020  146.2210 C   0  0  0  0  0  3  0  0  0  0  0  0
  185.7310  177.6950  137.4960 C   0  0  0  0  0  3  0  0  0  0  0  0
  187.9310  177.9100  137.0120 N   0  0  0  0  0  0  0  0  0  0  0  0
  188.2990  176.9240  145.8020 O   0  0  0  0  0  1  0  0  0  0  0  0
  185.8740  179.0800  142.0850 C   0  0  2  0  0  3  0  0  0  0  0  0
  185.0660  178.6920  145.7660 C   0  0  0  0  0  3  0  0  0  0  0  0
  187.0680  177.9110  143.9540 C   0  0  0  0  0  0  0  0  0  0  0  0
  186.6340  178.1620  141.1590 C   0  0  1  0  0  3  0  0  0  0  0  0
  183.8910  179.1400  139.2280 O   0  0  0  0  0  0  0  0  0  0  0  0
  186.2210  178.6540  139.7860 C   0  0  1  0  0  3  0  0  0  0  0  0
  186.6010  177.8870  136.5160 C   0  0  0  0  0  3  0  0  0  0  0  0
  189.4270  179.2380  139.2370 O   0  0  0  0  0  1  0  0  0  0  0  0
  184.9340  178.9990  144.4110 C   0  0  0  0  0  3  0  0  0  0  0  0
  185.9120  178.5900  143.4970 C   0  0  0  0  0  0  0  0  0  0  0  0
  189.0900  177.8850  139.1510 C   0  0  2  0  0  3  0  0  0  0  0  0
  191.5510  177.5030  140.6600 C   0  0  0  0  0  2  0  0  0  0  0  0
  190.3120  176.7690  141.1540 C   0  0  1  0  0  3  0  0  0  0  0  0
  190.9500  177.8600  142.0030 C   0  0  1  0  0  3  0  0  0  0  0  0
  191.7240  177.2410  143.0620 N   0  0  0  0  0  2  0  0  0  0  0  0
  191.0350  179.3790  143.9690 C   0  0  0  0  0  1  0  0  0  0  0  0
  191.3900  177.9430  144.2890 C   0  0  0  0  0  2  0  0  0  0  0  0
  1  5  1  6  0  0  0
  1 16  1  0  0  0  0
  2 13  1  0  0  0  0
  2 10  1  0  0  0  0
  3 14  1  0  0  0  0
  4  1  1  0  0  0  0
  6  7  1  0  0  0  0
  6 24  1  0  0  0  0
  7 19  1  0  0  0  0
  8  3  1  0  0  0  0
  9 26  1  0  0  0  0
  9  4  1  0  0  0  0
 11  7  1  0  0  0  0
 12  6  2  0  0  0  0
 14 23  1  0  0  0  0
 15 10  2  0  0  0  0
 16  2  2  0  0  0  0
 17  4  1  0  0  0  0
 17 14  1  0  0  0  0
 18  8  2  0  0  0  0
 19  8  1  0  0  0  0
 19 17  1  0  0  0  0
 20 12  1  0  0  0  0
 20 11  2  0  0  0  0
 22 15  1  0  0  0  0
 23 16  1  0  0  0  0
 23 22  2  0  0  0  0
 24 21  1  0  0  0  0
 24  9  1  0  0  0  0
 25 26  1  0  0  0  0
 25 27  1  0  0  0  0
 26 27  1  0  0  0  0
 27 28  1  0  0  0  0
 28 30  1  0  0  0  0
 29 30  1  0  0  0  0
M  END
>  <MODEL>
7

>  <REMARK>
 VINA RESULT:      -7.9      2.354      5.573
  Name = 
  3 active torsions:
  status: ('A' for Active; 'I' for Inactive)
    1  A    between atoms: C_8  and  C_12
    2  A    between atoms: C_11  and  N_28
    3  A    between atoms: N_28  and  C_30
                            x       y       z     vdW  Elec       q    Type
                         _______ _______ _______ _____ _____    ______ ____

>  <TORSDO>
F 3

$$$$
=
 OpenBabel11122410323D

 30 35  0  0  1  0  0  0  0  0999 V2000
  186.4850  178.2920  142.9210 C   0  0  2  0  0  3  0  0  0  0  0  0
  187.0020  178.3250  145.3960 C   0  0  0  0  0  0  0  0  0  0  0  0
  182.3420  178.5390  143.8530 N   0  0  0  0  0  2  0  0  0  0  0  0
  185.4700  178.8220  141.8640 C   0  0  1  0  0  3  0  0  0  0  0  0
  186.7580  176.9380  142.7000 O   0  0  0  0  0  1  0  0  0  0  0  0
  183.6040  178.1930  139.1940 C   0  0  0  0  0  0  0  0  0  0  0  0
  182.8760  177.5490  140.3290 C   0  0  2  0  0  3  0  0  0  0  0  0
  181.8210  178.3470  142.5430 C   0  0  0  0  0  0  0  0  0  0  0  0
  185.8400  178.3330  140.4300 C   0  0  1  0  0  3  0  0  0  0  0  0
  186.6040  178.3760  146.7360 C   0  0  0  0  0  3  0  0  0  0  0  0
  181.5430  177.3310  139.6850 C   0  0  0  0  0  3  0  0  0  0  0  0
  182.8720  178.3140  138.1390 N   0  0  0  0  0  0  0  0  0  0  0  0
  188.3460  178.1330  145.0950 O   0  0  0  0  0  1  0  0  0  0  0  0
  183.7090  178.9770  143.6340 C   0  0  2  0  0  3  0  0  0  0  0  0
  185.2620  178.5670  147.0660 C   0  0  0  0  0  3  0  0  0  0  0  0
  186.0500  178.4650  144.3690 C   0  0  0  0  0  0  0  0  0  0  0  0
  184.0910  178.3470  142.3170 C   0  0  1  0  0  3  0  0  0  0  0  0
  180.6050  178.1030  142.3300 O   0  0  0  0  0  0  0  0  0  0  0  0
  182.8490  178.5560  141.4730 C   0  0  1  0  0  3  0  0  0  0  0  0
  181.5970  177.7650  138.4350 C   0  0  0  0  0  3  0  0  0  0  0  0
  184.7780  180.2510  139.3920 O   0  0  0  0  0  1  0  0  0  0  0  0
  184.3080  178.7100  146.0570 C   0  0  0  0  0  3  0  0  0  0  0  0
  184.6870  178.6330  144.7120 C   0  0  0  0  0  0  0  0  0  0  0  0
  184.9410  178.8660  139.2930 C   0  0  2  0  0  3  0  0  0  0  0  0
  188.0070  177.1350  139.6400 C   0  0  0  0  0  2  0  0  0  0  0  0
  187.3590  178.4220  140.1320 C   0  0  1  0  0  3  0  0  0  0  0  0
  187.6310  178.2160  138.6480 C   0  0  1  0  0  3  0  0  0  0  0  0
  188.8140  178.9680  138.2750 N   0  0  0  0  0  2  0  0  0  0  0  0
  187.6960  178.3970  136.2040 C   0  0  0  0  0  1  0  0  0  0  0  0
  189.0170  178.7510  136.8540 C   0  0  0  0  0  2  0  0  0  0  0  0
  1  5  1  6  0  0  0
  1 16  1  0  0  0  0
  2 10  1  0  0  0  0
  4 17  1  0  0  0  0
  4  1  1  0  0  0  0
  6 24  1  0  0  0  0
  6  7  1  0  0  0  0
  7 19  1  0  0  0  0
  8  3  1  0  0  0  0
  9  4  1  0  0  0  0
 10 15  2  0  0  0  0
 11  7  1  0  0  0  0
 12 20  1  0  0  0  0
 12  6  2  0  0  0  0
 13  2  1  0  0  0  0
 14  3  1  0  0  0  0
 14 23  1  0  0  0  0
 16 23  1  0  0  0  0
 16  2  2  0  0  0  0
 17 14  1  0  0  0  0
 18  8  2  0  0  0  0
 19 17  1  0  0  0  0
 19  8  1  0  0  0  0
 20 11  2  0  0  0  0
 22 15  1  0  0  0  0
 23 22  2  0  0  0  0
 24 21  1  0  0  0  0
 24  9  1  0  0  0  0
 25 26  1  0  0  0  0
 26  9  1  0  0  0  0
 27 25  1  0  0  0  0
 27 26  1  0  0  0  0
 28 27  1  0  0  0  0
 29 30  1  0  0  0  0
 30 28  1  0  0  0  0
M  END
>  <MODEL>
8

>  <REMARK>
 VINA RESULT:      -7.6      3.048      6.171
  Name = 
  3 active torsions:
  status: ('A' for Active; 'I' for Inactive)
    1  A    between atoms: C_8  and  C_12
    2  A    between atoms: C_11  and  N_28
    3  A    between atoms: N_28  and  C_30
                            x       y       z     vdW  Elec       q    Type
                         _______ _______ _______ _____ _____    ______ ____

>  <TORSDO>
F 3

$$$$
=
 OpenBabel11122410323D

 30 35  0  0  1  0  0  0  0  0999 V2000
  189.8210  177.7460  143.2350 C   0  0  2  0  0  3  0  0  0  0  0  0
  191.3690  177.5030  141.2500 C   0  0  0  0  0  0  0  0  0  0  0  0
  186.5620  178.2330  140.5460 N   0  0  0  0  0  2  0  0  0  0  0  0
  188.3620  177.4630  143.7060 C   0  0  1  0  0  3  0  0  0  0  0  0
  190.2150  179.0340  143.6130 O   0  0  0  0  0  1  0  0  0  0  0  0
  185.6580  178.5510  145.2900 C   0  0  0  0  0  0  0  0  0  0  0  0
  185.6470  179.2670  143.9790 C   0  0  2  0  0  3  0  0  0  0  0  0
  185.5580  178.5790  141.4950 C   0  0  0  0  0  0  0  0  0  0  0  0
  188.1400  177.9400  145.1740 C   0  0  1  0  0  3  0  0  0  0  0  0
  191.6080  177.4660  139.8730 C   0  0  0  0  0  3  0  0  0  0  0  0
  184.2340  179.7590  143.9700 C   0  0  0  0  0  3  0  0  0  0  0  0
  184.5250  178.6170  145.9020 N   0  0  0  0  0  0  0  0  0  0  0  0
  192.4480  177.4550  142.1260 O   0  0  0  0  0  1  0  0  0  0  0  0
  187.5790  177.5590  141.3320 C   0  0  2  0  0  3  0  0  0  0  0  0
  190.5430  177.5140  138.9720 C   0  0  0  0  0  3  0  0  0  0  0  0
  190.0530  177.5910  141.7390 C   0  0  0  0  0  0  0  0  0  0  0  0
  187.4460  178.1660  142.7070 C   0  0  1  0  0  3  0  0  0  0  0  0
  184.4440  179.0550  141.1530 O   0  0  0  0  0  0  0  0  0  0  0  0
  185.9430  178.2320  142.9010 C   0  0  1  0  0  3  0  0  0  0  0  0
  183.6430  179.3800  145.0940 C   0  0  0  0  0  3  0  0  0  0  0  0
  186.3900  176.3040  145.5480 O   0  0  0  0  0  1  0  0  0  0  0  0
  189.2320  177.5980  139.4430 C   0  0  0  0  0  3  0  0  0  0  0  0
  188.9790  177.6640  140.8180 C   0  0  0  0  0  0  0  0  0  0  0  0
  186.7480  177.6360  145.7680 C   0  0  2  0  0  3  0  0  0  0  0  0
  189.2580  178.1920  147.5070 C   0  0  0  0  0  2  0  0  0  0  0  0
  189.3220  177.5820  146.1130 C   0  0  1  0  0  3  0  0  0  0  0  0
  188.8390  176.7530  147.2950 C   0  0  1  0  0  3  0  0  0  0  0  0
  189.9070  175.8670  147.7190 N   0  0  0  0  0  2  0  0  0  0  0  0
  192.3180  175.6290  147.7160 C   0  0  0  0  0  1  0  0  0  0  0  0
  191.1370  176.3960  147.1570 C   0  0  0  0  0  2  0  0  0  0  0  0
  1  5  1  6  0  0  0
  1  4  1  0  0  0  0
  2 16  1  0  0  0  0
  2 13  1  0  0  0  0
  3 14  1  0  0  0  0
  3  8  1  0  0  0  0
  4  9  1  0  0  0  0
  6 24  1  0  0  0  0
  6 12  2  0  0  0  0
  7  6  1  0  0  0  0
  8 19  1  0  0  0  0
  9 24  1  0  0  0  0
  9 26  1  0  0  0  0
 10  2  2  0  0  0  0
 11  7  1  0  0  0  0
 11 20  2  0  0  0  0
 14 17  1  0  0  0  0
 15 22  2  0  0  0  0
 15 10  1  0  0  0  0
 16  1  1  0  0  0  0
 17 19  1  0  0  0  0
 17  4  1  0  0  0  0
 18  8  2  0  0  0  0
 19  7  1  0  0  0  0
 20 12  1  0  0  0  0
 21 24  1  0  0  0  0
 22 23  1  0  0  0  0
 23 14  1  0  0  0  0
 23 16  2  0  0  0  0
 26 27  1  0  0  0  0
 26 25  1  0  0  0  0
 27 25  1  0  0  0  0
 27 28  1  0  0  0  0
 30 29  1  0  0  0  0
 30 28  1  0  0  0  0
M  END
>  <MODEL>
9

>  <REMARK>
 VINA RESULT:      -7.5      1.956      6.500
  Name = 
  3 active torsions:
  status: ('A' for Active; 'I' for Inactive)
    1  A    between atoms: C_8  and  C_12
    2  A    between atoms: C_11  and  N_28
    3  A    between atoms: N_28  and  C_30
                            x       y       z     vdW  Elec       q    Type
                         _______ _______ _______ _____ _____    ______ ____

>  <TORSDO>
F 3

$$$$
