=
 OpenBabel11122412123D

 34 41  0  0  1  0  0  0  0  0999 V2000
  184.0020  178.6290  144.0720 C   0  0  0  0  0  0  0  0  0  0  0  0
  181.6570  179.1770  143.1730 C   0  0  0  0  0  3  0  0  0  0  0  0
  190.0670  178.0840  143.1640 C   0  0  0  0  0  0  0  0  0  0  0  0
  186.2620  178.0510  144.7390 C   0  0  0  0  0  0  0  0  0  0  0  0
  187.8760  177.4870  143.0090 C   0  0  0  0  0  0  0  0  0  0  0  0
  189.7880  175.7160  142.8430 C   0  0  0  0  0  1  0  0  0  0  0  0
  189.9790  177.8590  141.6870 O   0  0  0  0  0  0  0  0  0  0  0  0
  189.7750  178.4350  145.5160 C   0  0  0  0  0  2  0  0  0  0  0  0
  183.3900  178.6290  141.6640 C   0  0  0  0  0  0  0  0  0  0  0  0
  183.7820  180.0490  139.0940 C   0  0  0  0  0  2  0  0  0  0  0  0
  186.9220  177.6830  142.0580 N   0  0  0  0  0  0  0  0  0  0  0  0
  188.6210  177.3950  145.4540 C   0  0  0  0  0  2  0  0  0  0  0  0
  184.6390  178.2590  141.2980 C   0  0  0  0  0  0  0  0  0  0  0  0
  181.0780  179.1650  141.7510 C   0  0  0  0  0  3  0  0  0  0  0  0
  187.5670  177.6630  144.3880 C   0  0  0  0  0  0  0  0  0  0  0  0
  190.4470  178.6970  144.2330 N   0  0  0  0  0  0  0  0  0  0  0  0
  182.4520  180.0910  139.8560 C   0  0  2  0  0  3  0  0  0  0  0  0
  185.3050  178.2460  143.7260 C   0  0  0  0  0  0  0  0  0  0  0  0
  189.2710  177.1210  142.5990 C   0  0  2  0  0  0  0  0  0  0  0  0
  185.6520  178.0520  142.3730 C   0  0  0  0  0  0  0  0  0  0  0  0
  184.5720  178.6280  146.3740 C   0  0  0  0  0  3  0  0  0  0  0  0
  184.1940  178.6210  138.7580 C   0  0  0  0  0  2  0  0  0  0  0  0
  185.8840  178.2450  146.0750 C   0  0  0  0  0  3  0  0  0  0  0  0
  185.0570  178.0050  139.8620 C   0  0  0  0  0  2  0  0  0  0  0  0
  182.2270  178.8760  140.7720 C   0  0  1  0  0  3  0  0  0  0  0  0
  183.6640  178.8110  145.3770 N   0  0  0  0  0  0  0  0  0  0  0  0
  183.0490  178.8170  143.0230 N   0  0  0  0  0  0  0  0  0  0  0  0
  181.3980  180.1880  138.9430 O   0  0  0  0  0  0  0  0  0  0  0  0
  181.5550  181.4430  138.3430 C   0  0  0  0  0  2  0  0  0  0  0  0
  180.8050  183.1320  135.3660 N   0  0  0  0  0  2  0  0  0  0  0  0
  180.8060  180.8400  136.0340 C   0  0  0  0  0  2  0  0  0  0  0  0
  180.5080  181.6660  137.2590 C   0  0  2  0  0  3  0  0  0  0  0  0
  180.5680  181.7810  134.8800 C   0  0  0  0  0  2  0  0  0  0  0  0
  180.4940  183.1100  136.7890 C   0  0  0  0  0  2  0  0  0  0  0  0
  1 26  1  0  0  0  0
  3 16  2  0  0  0  0
  4 23  2  0  0  0  0
  5 15  2  0  0  0  0
  7 19  1  0  0  0  0
  7  3  1  0  0  0  0
  9 27  1  0  0  0  0
 10 17  1  0  0  0  0
 11 20  2  0  0  0  0
 11  5  1  0  0  0  0
 12  8  1  0  0  0  0
 13  9  2  0  0  0  0
 13 20  1  0  0  0  0
 14  2  2  0  0  0  0
 15  4  1  0  0  0  0
 15 12  1  0  0  0  0
 16  8  1  0  0  0  0
 17 28  1  6  0  0  0
 17 25  1  0  0  0  0
 18  1  2  0  0  0  0
 18  4  1  0  0  0  0
 19  6  1  1  0  0  0
 19  5  1  0  0  0  0
 19  3  1  0  0  0  0
 20 18  1  0  0  0  0
 22 10  1  0  0  0  0
 22 24  1  0  0  0  0
 23 21  1  0  0  0  0
 24 13  1  0  0  0  0
 25  9  1  0  0  0  0
 25 14  1  1  0  0  0
 26 21  2  0  0  0  0
 27  2  1  0  0  0  0
 27  1  1  0  0  0  0
 29 28  1  0  0  0  0
 30 34  1  0  0  0  0
 31 32  1  0  0  0  0
 32 29  1  1  0  0  0
 33 30  1  0  0  0  0
 33 31  1  0  0  0  0
 34 32  1  0  0  0  0
M  END
>  <MODEL>
1

>  <REMARK>
 VINA RESULT:      -9.5      0.000      0.000
  Name = 
  3 active torsions:
  status: ('A' for Active; 'I' for Inactive)
    1  A    between atoms: C_17  and  O_28
    2  A    between atoms: O_28  and  C_29
    3  A    between atoms: C_29  and  C_32
                            x       y       z     vdW  Elec       q    Type
                         _______ _______ _______ _____ _____    ______ ____

>  <TORSDO>
F 3

$$$$
=
 OpenBabel11122412123D

 34 41  0  0  1  0  0  0  0  0999 V2000
  182.2050  178.6820  143.6270 C   0  0  0  0  0  0  0  0  0  0  0  0
  183.7670  178.8970  145.6560 C   0  0  0  0  0  3  0  0  0  0  0  0
  181.3180  177.2300  137.7110 C   0  0  0  0  0  0  0  0  0  0  0  0
  180.8850  178.5190  141.5970 C   0  0  0  0  0  0  0  0  0  0  0  0
  182.0420  178.4960  139.4580 C   0  0  0  0  0  0  0  0  0  0  0  0
  181.5300  179.5540  137.1270 C   0  0  0  0  0  1  0  0  0  0  0  0
  182.7390  177.4390  137.2890 O   0  0  0  0  0  0  0  0  0  0  0  0
  179.1770  177.0440  138.7690 C   0  0  0  0  0  2  0  0  0  0  0  0
  184.6800  178.8250  143.4790 C   0  0  0  0  0  0  0  0  0  0  0  0
  187.1320  177.2970  142.8210 C   0  0  0  0  0  2  0  0  0  0  0  0
  183.2360  178.5950  140.1050 N   0  0  0  0  0  0  0  0  0  0  0  0
  179.4860  178.3980  139.4680 C   0  0  0  0  0  2  0  0  0  0  0  0
  184.6500  178.7660  142.1280 C   0  0  0  0  0  0  0  0  0  0  0  0
  185.2900  179.0620  145.7620 C   0  0  0  0  0  3  0  0  0  0  0  0
  180.8240  178.4590  140.1950 C   0  0  0  0  0  0  0  0  0  0  0  0
  180.2330  176.5520  137.8700 N   0  0  0  0  0  0  0  0  0  0  0  0
  186.7810  177.7030  144.2590 C   0  0  2  0  0  3  0  0  0  0  0  0
  182.1380  178.6190  142.2280 C   0  0  0  0  0  0  0  0  0  0  0  0
  182.0130  178.3850  137.9630 C   0  0  2  0  0  0  0  0  0  0  0  0
  183.3200  178.6610  141.4600 C   0  0  0  0  0  0  0  0  0  0  0  0
  179.8410  178.5520  143.7820 C   0  0  0  0  0  3  0  0  0  0  0  0
  187.2320  178.5100  141.9040 C   0  0  0  0  0  2  0  0  0  0  0  0
  179.7280  178.4860  142.3900 C   0  0  0  0  0  3  0  0  0  0  0  0
  185.8860  178.8400  141.2520 C   0  0  0  0  0  2  0  0  0  0  0  0
  185.8800  178.9450  144.3480 C   0  0  1  0  0  3  0  0  0  0  0  0
  181.0650  178.6480  144.3700 N   0  0  0  0  0  0  0  0  0  0  0  0
  183.4910  178.7880  144.2420 N   0  0  0  0  0  0  0  0  0  0  0  0
  187.9600  177.9280  144.9760 O   0  0  0  0  0  0  0  0  0  0  0  0
  188.7450  176.7930  144.7460 C   0  0  0  0  0  2  0  0  0  0  0  0
  191.7040  177.2870  142.9360 N   0  0  0  0  0  2  0  0  0  0  0  0
  190.4830  178.5790  144.5290 C   0  0  0  0  0  2  0  0  0  0  0  0
  190.2300  177.1260  144.8370 C   0  0  2  0  0  3  0  0  0  0  0  0
  191.6940  178.5650  143.6300 C   0  0  0  0  0  2  0  0  0  0  0  0
  191.0390  176.3410  143.8210 C   0  0  0  0  0  2  0  0  0  0  0  0
  1 27  1  0  0  0  0
  1 26  1  0  0  0  0
  2 14  2  0  0  0  0
  3 16  2  0  0  0  0
  3 19  1  0  0  0  0
  4 18  1  0  0  0  0
  4 23  2  0  0  0  0
  5 11  1  0  0  0  0
  5 15  2  0  0  0  0
  7  3  1  0  0  0  0
  7 19  1  0  0  0  0
  8 12  1  0  0  0  0
  9 27  1  0  0  0  0
  9 25  1  0  0  0  0
 10 17  1  0  0  0  0
 11 20  2  0  0  0  0
 12 15  1  0  0  0  0
 13  9  2  0  0  0  0
 15  4  1  0  0  0  0
 16  8  1  0  0  0  0
 17 25  1  0  0  0  0
 17 28  1  1  0  0  0
 18  1  2  0  0  0  0
 19  6  1  6  0  0  0
 19  5  1  0  0  0  0
 20 13  1  0  0  0  0
 20 18  1  0  0  0  0
 21 26  2  0  0  0  0
 22 10  1  0  0  0  0
 23 21  1  0  0  0  0
 24 22  1  0  0  0  0
 24 13  1  0  0  0  0
 25 14  1  1  0  0  0
 27  2  1  0  0  0  0
 29 28  1  0  0  0  0
 30 33  1  0  0  0  0
 30 34  1  0  0  0  0
 31 32  1  0  0  0  0
 32 29  1  6  0  0  0
 33 31  1  0  0  0  0
 34 32  1  0  0  0  0
M  END
>  <MODEL>
2

>  <REMARK>
 VINA RESULT:      -9.2      2.307      8.448
  Name = 
  3 active torsions:
  status: ('A' for Active; 'I' for Inactive)
    1  A    between atoms: C_17  and  O_28
    2  A    between atoms: O_28  and  C_29
    3  A    between atoms: C_29  and  C_32
                            x       y       z     vdW  Elec       q    Type
                         _______ _______ _______ _____ _____    ______ ____

>  <TORSDO>
F 3

$$$$
=
 OpenBabel11122412123D

 34 41  0  0  1  0  0  0  0  0999 V2000
  188.4310  177.0900  138.1760 C   0  0  0  0  0  0  0  0  0  0  0  0
  186.9480  178.2840  139.9020 C   0  0  0  0  0  3  0  0  0  0  0  0
  193.4050  173.7160  136.8450 C   0  0  0  0  0  0  0  0  0  0  0  0
  189.9850  176.0010  136.6630 C   0  0  0  0  0  0  0  0  0  0  0  0
  192.2570  175.5930  137.4280 C   0  0  0  0  0  0  0  0  0  0  0  0
  194.5930  175.7270  136.2700 C   0  0  0  0  0  1  0  0  0  0  0  0
  194.1860  174.1140  138.0580 O   0  0  0  0  0  0  0  0  0  0  0  0
  191.8630  173.3660  135.0450 C   0  0  0  0  0  2  0  0  0  0  0  0
  189.1870  177.7610  140.4450 C   0  0  0  0  0  0  0  0  0  0  0  0
  189.9900  176.7290  143.1040 C   0  0  0  0  0  2  0  0  0  0  0  0
  191.9550  176.1660  138.6250 N   0  0  0  0  0  0  0  0  0  0  0  0
  191.6230  174.9010  135.0470 C   0  0  0  0  0  2  0  0  0  0  0  0
  190.4320  177.2820  140.2230 C   0  0  0  0  0  0  0  0  0  0  0  0
  187.2470  178.8290  141.3060 C   0  0  0  0  0  3  0  0  0  0  0  0
  191.2710  175.4980  136.4040 C   0  0  0  0  0  0  0  0  0  0  0  0
  192.8280  172.8840  136.0460 N   0  0  0  0  0  0  0  0  0  0  0  0
  188.6620  177.4640  142.8780 C   0  0  2  0  0  3  0  0  0  0  0  0
  189.7120  176.5840  137.9140 C   0  0  0  0  0  0  0  0  0  0  0  0
  193.6240  175.0220  137.1990 C   0  0  2  0  0  0  0  0  0  0  0  0
  190.7200  176.6650  138.8960 C   0  0  0  0  0  0  0  0  0  0  0  0
  187.6980  176.4600  136.0100 C   0  0  0  0  0  3  0  0  0  0  0  0
  191.1820  177.5860  142.6990 C   0  0  0  0  0  2  0  0  0  0  0  0
  188.9620  175.9430  135.7050 C   0  0  0  0  0  3  0  0  0  0  0  0
  191.5620  177.3720  141.2310 C   0  0  0  0  0  2  0  0  0  0  0  0
  188.6830  178.4230  141.6770 C   0  0  1  0  0  3  0  0  0  0  0  0
  187.4580  177.0190  137.2270 N   0  0  0  0  0  0  0  0  0  0  0  0
  188.1820  177.6810  139.4540 N   0  0  0  0  0  0  0  0  0  0  0  0
  188.3230  178.1720  144.0350 O   0  0  0  0  0  0  0  0  0  0  0  0
  188.0250  177.1890  144.9850 C   0  0  0  0  0  2  0  0  0  0  0  0
  185.7250  179.2630  146.6230 N   0  0  0  0  0  2  0  0  0  0  0  0
  185.7540  178.1300  144.5220 C   0  0  0  0  0  2  0  0  0  0  0  0
  186.5900  177.3230  145.4820 C   0  0  2  0  0  3  0  0  0  0  0  0
  184.9540  179.0520  145.4070 C   0  0  0  0  0  2  0  0  0  0  0  0
  186.5270  178.0610  146.8060 C   0  0  0  0  0  2  0  0  0  0  0  0
  1 27  1  0  0  0  0
  2 14  2  0  0  0  0
  3 19  1  0  0  0  0
  3  7  1  0  0  0  0
  4 18  1  0  0  0  0
  5 11  2  0  0  0  0
  8 12  1  0  0  0  0
  8 16  1  0  0  0  0
  9 25  1  0  0  0  0
 11 20  1  0  0  0  0
 12 15  1  0  0  0  0
 13  9  2  0  0  0  0
 13 24  1  0  0  0  0
 15  4  2  0  0  0  0
 15  5  1  0  0  0  0
 16  3  2  0  0  0  0
 17 10  1  0  0  0  0
 17 28  1  1  0  0  0
 18  1  1  0  0  0  0
 18 20  2  0  0  0  0
 19  6  1  6  0  0  0
 19  5  1  0  0  0  0
 19  7  1  0  0  0  0
 20 13  1  0  0  0  0
 21 26  1  0  0  0  0
 22 10  1  0  0  0  0
 23 21  2  0  0  0  0
 23  4  1  0  0  0  0
 24 22  1  0  0  0  0
 25 14  1  6  0  0  0
 25 17  1  0  0  0  0
 26  1  2  0  0  0  0
 27  2  1  0  0  0  0
 27  9  1  0  0  0  0
 28 29  1  0  0  0  0
 30 34  1  0  0  0  0
 31 33  1  0  0  0  0
 31 32  1  0  0  0  0
 32 29  1  6  0  0  0
 32 34  1  0  0  0  0
 33 30  1  0  0  0  0
M  END
>  <MODEL>
3

>  <REMARK>
 VINA RESULT:      -9.0      4.835      8.879
  Name = 
  3 active torsions:
  status: ('A' for Active; 'I' for Inactive)
    1  A    between atoms: C_17  and  O_28
    2  A    between atoms: O_28  and  C_29
    3  A    between atoms: C_29  and  C_32
                            x       y       z     vdW  Elec       q    Type
                         _______ _______ _______ _____ _____    ______ ____

>  <TORSDO>
F 3

$$$$
=
 OpenBabel11122412123D

 34 41  0  0  1  0  0  0  0  0999 V2000
  182.2650  178.6290  143.6610 C   0  0  0  0  0  0  0  0  0  0  0  0
  183.7210  178.9540  145.7530 C   0  0  0  0  0  3  0  0  0  0  0  0
  181.6750  176.8340  137.8010 C   0  0  0  0  0  0  0  0  0  0  0  0
  181.0510  178.3530  141.5780 C   0  0  0  0  0  0  0  0  0  0  0  0
  182.3170  178.1970  139.5070 C   0  0  0  0  0  0  0  0  0  0  0  0
  181.9350  179.1190  137.0940 C   0  0  0  0  0  1  0  0  0  0  0  0
  183.1170  177.0100  137.4430 O   0  0  0  0  0  0  0  0  0  0  0  0
  179.4800  176.7220  138.7550 C   0  0  0  0  0  2  0  0  0  0  0  0
  184.7460  178.7500  143.6340 C   0  0  0  0  0  0  0  0  0  0  0  0
  187.2150  177.1730  143.1960 C   0  0  0  0  0  2  0  0  0  0  0  0
  183.4760  178.3280  140.2090 N   0  0  0  0  0  0  0  0  0  0  0  0
  179.7630  178.1130  139.3890 C   0  0  0  0  0  2  0  0  0  0  0  0
  184.7850  178.6110  142.2890 C   0  0  0  0  0  0  0  0  0  0  0  0
  185.2380  179.1180  145.9280 C   0  0  0  0  0  3  0  0  0  0  0  0
  181.0620  178.2100  140.1800 C   0  0  0  0  0  0  0  0  0  0  0  0
  180.5770  176.1720  137.9440 N   0  0  0  0  0  0  0  0  0  0  0  0
  186.7940  177.6640  144.5880 C   0  0  2  0  0  3  0  0  0  0  0  0
  182.2700  178.4830  142.2670 C   0  0  0  0  0  0  0  0  0  0  0  0
  182.3640  177.9980  138.0220 C   0  0  2  0  0  0  0  0  0  0  0  0
  183.4910  178.4730  141.5600 C   0  0  0  0  0  0  0  0  0  0  0  0
  179.8950  178.5200  143.7000 C   0  0  0  0  0  3  0  0  0  0  0  0
  187.3730  178.3280  142.2160 C   0  0  0  0  0  2  0  0  0  0  0  0
  179.8550  178.3720  142.3090 C   0  0  0  0  0  3  0  0  0  0  0  0
  186.0660  178.6260  141.4760 C   0  0  0  0  0  2  0  0  0  0  0  0
  185.9000  178.9140  144.5560 C   0  0  1  0  0  3  0  0  0  0  0  0
  181.0880  178.6440  144.3430 N   0  0  0  0  0  0  0  0  0  0  0  0
  183.5180  178.7630  144.3350 N   0  0  0  0  0  0  0  0  0  0  0  0
  187.9350  177.9250  145.3510 O   0  0  0  0  0  0  0  0  0  0  0  0
  188.9240  177.0890  144.8200 C   0  0  0  0  0  2  0  0  0  0  0  0
  191.1310  176.0670  147.3430 N   0  0  0  0  0  2  0  0  0  0  0  0
  191.3180  176.3810  144.9840 C   0  0  0  0  0  2  0  0  0  0  0  0
  190.2720  177.3430  145.4850 C   0  0  2  0  0  3  0  0  0  0  0  0
  192.0560  175.9490  146.2260 C   0  0  0  0  0  2  0  0  0  0  0  0
  190.2000  177.1290  146.9860 C   0  0  0  0  0  2  0  0  0  0  0  0
  1 27  1  0  0  0  0
  1 26  1  0  0  0  0
  2 14  2  0  0  0  0
  3 16  2  0  0  0  0
  3 19  1  0  0  0  0
  4 18  1  0  0  0  0
  4 23  2  0  0  0  0
  5 15  2  0  0  0  0
  5 11  1  0  0  0  0
  7  3  1  0  0  0  0
  7 19  1  0  0  0  0
  8 12  1  0  0  0  0
  9 27  1  0  0  0  0
  9 25  1  0  0  0  0
 10 17  1  0  0  0  0
 11 20  2  0  0  0  0
 12 15  1  0  0  0  0
 13  9  2  0  0  0  0
 15  4  1  0  0  0  0
 16  8  1  0  0  0  0
 17 28  1  1  0  0  0
 18  1  2  0  0  0  0
 19  6  1  6  0  0  0
 19  5  1  0  0  0  0
 20 18  1  0  0  0  0
 20 13  1  0  0  0  0
 21 26  2  0  0  0  0
 22 10  1  0  0  0  0
 23 21  1  0  0  0  0
 24 22  1  0  0  0  0
 24 13  1  0  0  0  0
 25 17  1  0  0  0  0
 25 14  1  1  0  0  0
 27  2  1  0  0  0  0
 29 28  1  0  0  0  0
 31 32  1  0  0  0  0
 31 33  1  0  0  0  0
 32 29  1  6  0  0  0
 32 34  1  0  0  0  0
 33 30  1  0  0  0  0
 34 30  1  0  0  0  0
M  END
>  <MODEL>
4

>  <REMARK>
 VINA RESULT:      -8.8      2.557      8.808
  Name = 
  3 active torsions:
  status: ('A' for Active; 'I' for Inactive)
    1  A    between atoms: C_17  and  O_28
    2  A    between atoms: O_28  and  C_29
    3  A    between atoms: C_29  and  C_32
                            x       y       z     vdW  Elec       q    Type
                         _______ _______ _______ _____ _____    ______ ____

>  <TORSDO>
F 3

$$$$
=
 OpenBabel11122412123D

 34 41  0  0  1  0  0  0  0  0999 V2000
  186.0370  178.4070  142.6510 C   0  0  0  0  0  0  0  0  0  0  0  0
  188.5010  178.1320  141.9730 C   0  0  0  0  0  3  0  0  0  0  0  0
  180.0530  178.1130  141.2350 C   0  0  0  0  0  0  0  0  0  0  0  0
  183.6730  178.7130  143.1040 C   0  0  0  0  0  0  0  0  0  0  0  0
  182.1560  178.9850  141.2230 C   0  0  0  0  0  0  0  0  0  0  0  0
  180.0560  180.4810  140.8110 C   0  0  0  0  0  1  0  0  0  0  0  0
  180.2390  178.2850  139.7590 O   0  0  0  0  0  0  0  0  0  0  0  0
  180.1830  177.9050  143.6180 C   0  0  0  0  0  2  0  0  0  0  0  0
  186.8490  178.3830  140.3030 C   0  0  0  0  0  0  0  0  0  0  0  0
  186.8630  176.8150  137.7900 C   0  0  0  0  0  2  0  0  0  0  0  0
  183.2050  178.8750  140.3630 N   0  0  0  0  0  0  0  0  0  0  0  0
  181.1970  179.0840  143.5930 C   0  0  0  0  0  2  0  0  0  0  0  0
  185.5990  178.5700  139.8200 C   0  0  0  0  0  0  0  0  0  0  0  0
  189.1940  178.1590  140.6040 C   0  0  0  0  0  3  0  0  0  0  0  0
  182.3650  178.9100  142.6290 C   0  0  0  0  0  0  0  0  0  0  0  0
  179.6630  177.5030  142.3010 N   0  0  0  0  0  0  0  0  0  0  0  0
  188.1170  176.9810  138.6580 C   0  0  2  0  0  3  0  0  0  0  0  0
  184.7300  178.6010  142.1830 C   0  0  0  0  0  0  0  0  0  0  0  0
  180.7660  179.1470  140.6840 C   0  0  2  0  0  0  0  0  0  0  0  0
  184.4800  178.6890  140.7980 C   0  0  0  0  0  0  0  0  0  0  0  0
  185.2760  178.4330  144.8970 C   0  0  0  0  0  3  0  0  0  0  0  0
  186.3040  178.1610  137.3460 C   0  0  0  0  0  2  0  0  0  0  0  0
  183.9570  178.6270  144.4740 C   0  0  0  0  0  3  0  0  0  0  0  0
  185.2770  178.7050  138.3440 C   0  0  0  0  0  2  0  0  0  0  0  0
  188.1060  178.2530  139.5220 C   0  0  1  0  0  3  0  0  0  0  0  0
  186.2820  178.3270  143.9870 N   0  0  0  0  0  0  0  0  0  0  0  0
  187.0930  178.3010  141.6930 N   0  0  0  0  0  0  0  0  0  0  0  0
  189.2490  176.9830  137.8380 O   0  0  0  0  0  0  0  0  0  0  0  0
  189.5270  175.6320  137.6020 C   0  0  0  0  0  2  0  0  0  0  0  0
  192.8410  175.5380  136.4690 N   0  0  0  0  0  2  0  0  0  0  0  0
  191.7400  176.5360  138.3380 C   0  0  0  0  0  2  0  0  0  0  0  0
  190.9670  175.2960  137.9680 C   0  0  2  0  0  3  0  0  0  0  0  0
  193.0670  176.3720  137.6400 C   0  0  0  0  0  2  0  0  0  0  0  0
  191.7100  174.6800  136.7960 C   0  0  0  0  0  2  0  0  0  0  0  0
  1 26  1  0  0  0  0
  3 16  2  0  0  0  0
  4 23  2  0  0  0  0
  5 15  2  0  0  0  0
  7 19  1  0  0  0  0
  7  3  1  0  0  0  0
  9 27  1  0  0  0  0
 10 17  1  0  0  0  0
 11 20  2  0  0  0  0
 11  5  1  0  0  0  0
 12  8  1  0  0  0  0
 13  9  2  0  0  0  0
 13 20  1  0  0  0  0
 14  2  2  0  0  0  0
 15  4  1  0  0  0  0
 15 12  1  0  0  0  0
 16  8  1  0  0  0  0
 17 28  1  6  0  0  0
 17 25  1  0  0  0  0
 18  1  2  0  0  0  0
 18  4  1  0  0  0  0
 19  6  1  1  0  0  0
 19  5  1  0  0  0  0
 19  3  1  0  0  0  0
 20 18  1  0  0  0  0
 22 10  1  0  0  0  0
 22 24  1  0  0  0  0
 23 21  1  0  0  0  0
 24 13  1  0  0  0  0
 25  9  1  0  0  0  0
 25 14  1  1  0  0  0
 26 21  2  0  0  0  0
 27  2  1  0  0  0  0
 27  1  1  0  0  0  0
 29 28  1  0  0  0  0
 30 34  1  0  0  0  0
 30 33  1  0  0  0  0
 32 29  1  6  0  0  0
 32 31  1  0  0  0  0
 33 31  1  0  0  0  0
 34 32  1  0  0  0  0
M  END
>  <MODEL>
5

>  <REMARK>
 VINA RESULT:      -8.4      3.170      7.924
  Name = 
  3 active torsions:
  status: ('A' for Active; 'I' for Inactive)
    1  A    between atoms: C_17  and  O_28
    2  A    between atoms: O_28  and  C_29
    3  A    between atoms: C_29  and  C_32
                            x       y       z     vdW  Elec       q    Type
                         _______ _______ _______ _____ _____    ______ ____

>  <TORSDO>
F 3

$$$$
=
 OpenBabel11122412123D

 34 41  0  0  1  0  0  0  0  0999 V2000
  189.5330  176.4530  137.1990 C   0  0  0  0  0  0  0  0  0  0  0  0
  187.7560  177.5910  138.6680 C   0  0  0  0  0  3  0  0  0  0  0  0
  194.9310  173.5440  136.6510 C   0  0  0  0  0  0  0  0  0  0  0  0
  191.3450  175.4400  135.9430 C   0  0  0  0  0  0  0  0  0  0  0  0
  193.5470  175.3230  136.9690 C   0  0  0  0  0  0  0  0  0  0  0  0
  195.9730  175.6290  136.0560 C   0  0  0  0  0  1  0  0  0  0  0  0
  195.5290  174.0990  137.9060 O   0  0  0  0  0  0  0  0  0  0  0  0
  193.6410  172.9200  134.7310 C   0  0  0  0  0  2  0  0  0  0  0  0
  189.9610  177.3430  139.4790 C   0  0  0  0  0  0  0  0  0  0  0  0
  190.5600  176.5720  142.2770 C   0  0  0  0  0  2  0  0  0  0  0  0
  193.0590  175.9360  138.0820 N   0  0  0  0  0  0  0  0  0  0  0  0
  193.2540  174.4190  134.5940 C   0  0  0  0  0  2  0  0  0  0  0  0
  191.2650  176.9840  139.4250 C   0  0  0  0  0  0  0  0  0  0  0  0
  187.8430  178.2520  140.0500 C   0  0  0  0  0  3  0  0  0  0  0  0
  192.6950  175.0610  135.8580 C   0  0  0  0  0  0  0  0  0  0  0  0
  194.5310  172.6080  135.8610 N   0  0  0  0  0  0  0  0  0  0  0  0
  189.1990  177.1470  141.8590 C   0  0  2  0  0  3  0  0  0  0  0  0
  190.8780  176.0690  137.1110 C   0  0  0  0  0  0  0  0  0  0  0  0
  194.9810  174.8860  136.9290 C   0  0  2  0  0  0  0  0  0  0  0  0
  191.7580  176.3180  138.1850 C   0  0  0  0  0  0  0  0  0  0  0  0
  189.1120  175.6130  135.0220 C   0  0  0  0  0  3  0  0  0  0  0  0
  191.7000  177.5230  141.9360 C   0  0  0  0  0  2  0  0  0  0  0  0
  190.4460  175.2130  134.8910 C   0  0  0  0  0  3  0  0  0  0  0  0
  192.2610  177.2570  140.5360 C   0  0  0  0  0  2  0  0  0  0  0  0
  189.2610  178.0250  140.5980 C   0  0  1  0  0  3  0  0  0  0  0  0
  188.6840  176.2190  136.1630 N   0  0  0  0  0  0  0  0  0  0  0  0
  189.0860  177.0940  138.3970 N   0  0  0  0  0  0  0  0  0  0  0  0
  188.6660  177.8870  142.9180 O   0  0  0  0  0  0  0  0  0  0  0  0
  188.6630  177.0080  144.0080 C   0  0  0  0  0  2  0  0  0  0  0  0
  188.3990  176.9610  147.5010 N   0  0  0  0  0  2  0  0  0  0  0  0
  190.2180  177.1320  145.9640 C   0  0  0  0  0  2  0  0  0  0  0  0
  189.0080  177.7380  145.3010 C   0  0  2  0  0  3  0  0  0  0  0  0
  189.8480  177.0630  147.4250 C   0  0  0  0  0  2  0  0  0  0  0  0
  187.8830  177.6310  146.3150 C   0  0  0  0  0  2  0  0  0  0  0  0
  1 27  1  0  0  0  0
  2 14  2  0  0  0  0
  3 19  1  0  0  0  0
  3  7  1  0  0  0  0
  4 18  1  0  0  0  0
  5 11  2  0  0  0  0
  8 16  1  0  0  0  0
  9 25  1  0  0  0  0
 11 20  1  0  0  0  0
 12  8  1  0  0  0  0
 12 15  1  0  0  0  0
 13  9  2  0  0  0  0
 13 24  1  0  0  0  0
 15  4  2  0  0  0  0
 15  5  1  0  0  0  0
 16  3  2  0  0  0  0
 17 10  1  0  0  0  0
 17 28  1  1  0  0  0
 18  1  1  0  0  0  0
 18 20  2  0  0  0  0
 19  6  1  6  0  0  0
 19  5  1  0  0  0  0
 19  7  1  0  0  0  0
 20 13  1  0  0  0  0
 21 26  1  0  0  0  0
 22 10  1  0  0  0  0
 23 21  2  0  0  0  0
 23  4  1  0  0  0  0
 24 22  1  0  0  0  0
 25 14  1  6  0  0  0
 25 17  1  0  0  0  0
 26  1  2  0  0  0  0
 27  2  1  0  0  0  0
 27  9  1  0  0  0  0
 28 29  1  0  0  0  0
 31 33  1  0  0  0  0
 32 29  1  6  0  0  0
 32 31  1  0  0  0  0
 32 34  1  0  0  0  0
 33 30  1  0  0  0  0
 34 30  1  0  0  0  0
M  END
>  <MODEL>
6

>  <REMARK>
 VINA RESULT:      -8.4      5.762     10.160
  Name = 
  3 active torsions:
  status: ('A' for Active; 'I' for Inactive)
    1  A    between atoms: C_17  and  O_28
    2  A    between atoms: O_28  and  C_29
    3  A    between atoms: C_29  and  C_32
                            x       y       z     vdW  Elec       q    Type
                         _______ _______ _______ _____ _____    ______ ____

>  <TORSDO>
F 3

$$$$
=
 OpenBabel11122412123D

 34 41  0  0  1  0  0  0  0  0999 V2000
  188.1810  177.8210  142.2510 C   0  0  0  0  0  0  0  0  0  0  0  0
  190.6980  177.2980  142.2230 C   0  0  0  0  0  3  0  0  0  0  0  0
  182.7800  178.1910  139.3200 C   0  0  0  0  0  0  0  0  0  0  0  0
  185.8230  178.3690  142.0890 C   0  0  0  0  0  0  0  0  0  0  0  0
  184.8870  178.8340  139.8930 C   0  0  0  0  0  0  0  0  0  0  0  0
  183.1260  180.5520  139.0180 C   0  0  0  0  0  1  0  0  0  0  0  0
  183.3620  178.3670  137.9530 O   0  0  0  0  0  0  0  0  0  0  0  0
  182.2590  177.9290  141.6440 C   0  0  0  0  0  2  0  0  0  0  0  0
  189.5750  177.7530  140.1950 C   0  0  0  0  0  0  0  0  0  0  0  0
  190.0930  176.2360  137.7030 C   0  0  0  0  0  2  0  0  0  0  0  0
  186.1090  178.6280  139.3300 N   0  0  0  0  0  0  0  0  0  0  0  0
  183.3550  178.9930  141.9350 C   0  0  0  0  0  2  0  0  0  0  0  0
  188.5200  178.0800  139.4130 C   0  0  0  0  0  0  0  0  0  0  0  0
  191.7250  177.2740  141.0820 C   0  0  0  0  0  3  0  0  0  0  0  0
  184.7120  178.7130  141.3010 C   0  0  0  0  0  0  0  0  0  0  0  0
  182.0660  177.6070  140.2210 N   0  0  0  0  0  0  0  0  0  0  0  0
  191.0860  176.2520  138.8730 C   0  0  2  0  0  3  0  0  0  0  0  0
  187.0690  178.1610  141.4690 C   0  0  0  0  0  0  0  0  0  0  0  0
  183.7100  179.1530  139.0200 C   0  0  2  0  0  0  0  0  0  0  0  0
  187.2000  178.3000  140.0720 C   0  0  0  0  0  0  0  0  0  0  0  0
  186.8640  177.8880  144.2220 C   0  0  0  0  0  3  0  0  0  0  0  0
  189.8050  177.6410  137.1910 C   0  0  0  0  0  2  0  0  0  0  0  0
  185.7280  178.2290  143.4810 C   0  0  0  0  0  3  0  0  0  0  0  0
  188.6120  178.2740  137.9110 C   0  0  0  0  0  2  0  0  0  0  0  0
  190.9740  177.5030  139.7610 C   0  0  1  0  0  3  0  0  0  0  0  0
  188.0580  177.6920  143.5990 N   0  0  0  0  0  0  0  0  0  0  0  0
  189.4360  177.6200  141.5950 N   0  0  0  0  0  0  0  0  0  0  0  0
  192.3880  176.1480  138.3760 O   0  0  0  0  0  0  0  0  0  0  0  0
  192.3850  174.9870  137.5950 C   0  0  0  0  0  2  0  0  0  0  0  0
  195.3070  173.4140  138.7190 N   0  0  0  0  0  2  0  0  0  0  0  0
  193.8620  173.1130  136.8430 C   0  0  0  0  0  2  0  0  0  0  0  0
  193.8040  174.5690  137.2280 C   0  0  2  0  0  3  0  0  0  0  0  0
  195.0940  172.5910  137.5380 C   0  0  0  0  0  2  0  0  0  0  0  0
  194.7500  174.7230  138.4040 C   0  0  0  0  0  2  0  0  0  0  0  0
  1 26  1  0  0  0  0
  3 16  2  0  0  0  0
  4 23  2  0  0  0  0
  5 15  2  0  0  0  0
  7 19  1  0  0  0  0
  7  3  1  0  0  0  0
  8 12  1  0  0  0  0
  9 27  1  0  0  0  0
 10 17  1  0  0  0  0
 11  5  1  0  0  0  0
 11 20  2  0  0  0  0
 13 20  1  0  0  0  0
 13  9  2  0  0  0  0
 14  2  2  0  0  0  0
 15 12  1  0  0  0  0
 15  4  1  0  0  0  0
 16  8  1  0  0  0  0
 17 28  1  6  0  0  0
 17 25  1  0  0  0  0
 18  4  1  0  0  0  0
 18  1  2  0  0  0  0
 19  6  1  6  0  0  0
 19  3  1  0  0  0  0
 19  5  1  0  0  0  0
 20 18  1  0  0  0  0
 22 10  1  0  0  0  0
 22 24  1  0  0  0  0
 23 21  1  0  0  0  0
 24 13  1  0  0  0  0
 25  9  1  0  0  0  0
 25 14  1  1  0  0  0
 26 21  2  0  0  0  0
 27  2  1  0  0  0  0
 27  1  1  0  0  0  0
 29 28  1  0  0  0  0
 31 32  1  0  0  0  0
 31 33  1  0  0  0  0
 32 29  1  1  0  0  0
 32 34  1  0  0  0  0
 33 30  1  0  0  0  0
 34 30  1  0  0  0  0
M  END
>  <MODEL>
7

>  <REMARK>
 VINA RESULT:      -8.2      3.978      9.118
  Name = 
  3 active torsions:
  status: ('A' for Active; 'I' for Inactive)
    1  A    between atoms: C_17  and  O_28
    2  A    between atoms: O_28  and  C_29
    3  A    between atoms: C_29  and  C_32
                            x       y       z     vdW  Elec       q    Type
                         _______ _______ _______ _____ _____    ______ ____

>  <TORSDO>
F 3

$$$$
=
 OpenBabel11122412123D

 34 41  0  0  1  0  0  0  0  0999 V2000
  183.3790  178.3430  140.5290 C   0  0  0  0  0  0  0  0  0  0  0  0
  183.4900  178.9490  143.0250 C   0  0  0  0  0  3  0  0  0  0  0  0
  186.0340  176.0230  135.4830 C   0  0  0  0  0  0  0  0  0  0  0  0
  183.4680  177.8060  138.1650 C   0  0  0  0  0  0  0  0  0  0  0  0
  185.6460  177.5680  137.1090 C   0  0  0  0  0  0  0  0  0  0  0  0
  186.5940  178.2530  134.7750 C   0  0  0  0  0  1  0  0  0  0  0  0
  187.4420  176.2720  135.9250 O   0  0  0  0  0  0  0  0  0  0  0  0
  183.6710  175.8340  135.1380 C   0  0  0  0  0  2  0  0  0  0  0  0
  185.4900  178.6410  141.8060 C   0  0  0  0  0  0  0  0  0  0  0  0
  187.8380  177.2150  142.9160 C   0  0  0  0  0  2  0  0  0  0  0  0
  186.2500  177.8410  138.2970 N   0  0  0  0  0  0  0  0  0  0  0  0
  183.5500  177.2900  135.6680 C   0  0  0  0  0  2  0  0  0  0  0  0
  186.2430  178.3920  140.7090 C   0  0  0  0  0  0  0  0  0  0  0  0
  184.6770  179.2360  143.9560 C   0  0  0  0  0  3  0  0  0  0  0  0
  184.2250  177.5470  137.0100 C   0  0  0  0  0  0  0  0  0  0  0  0
  185.0400  175.2980  135.0950 N   0  0  0  0  0  0  0  0  0  0  0  0
  186.7320  177.7900  143.8100 C   0  0  2  0  0  3  0  0  0  0  0  0
  184.1300  178.0820  139.3750 C   0  0  0  0  0  0  0  0  0  0  0  0
  186.4810  177.2480  135.9050 C   0  0  2  0  0  0  0  0  0  0  0  0
  185.5390  178.1000  139.4270 C   0  0  0  0  0  0  0  0  0  0  0  0
  181.3560  178.0670  139.3220 C   0  0  0  0  0  3  0  0  0  0  0  0
  188.4750  178.2920  142.0470 C   0  0  0  0  0  2  0  0  0  0  0  0
  182.0660  177.8010  138.1460 C   0  0  0  0  0  3  0  0  0  0  0  0
  187.7590  178.4320  140.7000 C   0  0  0  0  0  2  0  0  0  0  0  0
  185.9720  178.9660  143.1730 C   0  0  1  0  0  3  0  0  0  0  0  0
  182.0200  178.3310  140.4810 N   0  0  0  0  0  0  0  0  0  0  0  0
  184.0780  178.6250  141.7450 N   0  0  0  0  0  0  0  0  0  0  0  0
  187.2860  178.1970  145.0270 O   0  0  0  0  0  0  0  0  0  0  0  0
  188.1130  177.1380  145.4190 C   0  0  0  0  0  2  0  0  0  0  0  0
  190.9340  176.3530  147.3430 N   0  0  0  0  0  2  0  0  0  0  0  0
  190.5980  177.1800  145.1290 C   0  0  0  0  0  2  0  0  0  0  0  0
  189.4380  177.6530  145.9680 C   0  0  2  0  0  3  0  0  0  0  0  0
  191.6370  176.7530  146.1350 C   0  0  0  0  0  2  0  0  0  0  0  0
  189.7010  177.1280  147.3680 C   0  0  0  0  0  2  0  0  0  0  0  0
  1 27  1  0  0  0  0
  2 14  2  0  0  0  0
  3 19  1  0  0  0  0
  3  7  1  0  0  0  0
  4 18  1  0  0  0  0
  5 11  1  0  0  0  0
  8 12  1  0  0  0  0
  9 25  1  0  0  0  0
 10 17  1  0  0  0  0
 11 20  2  0  0  0  0
 12 15  1  0  0  0  0
 13  9  2  0  0  0  0
 15  5  2  0  0  0  0
 15  4  1  0  0  0  0
 16  8  1  0  0  0  0
 16  3  2  0  0  0  0
 17 28  1  1  0  0  0
 18 20  1  0  0  0  0
 18  1  2  0  0  0  0
 19  6  1  6  0  0  0
 19  7  1  0  0  0  0
 19  5  1  0  0  0  0
 20 13  1  0  0  0  0
 21 26  2  0  0  0  0
 22 10  1  0  0  0  0
 23  4  2  0  0  0  0
 23 21  1  0  0  0  0
 24 13  1  0  0  0  0
 24 22  1  0  0  0  0
 25 17  1  0  0  0  0
 25 14  1  1  0  0  0
 26  1  1  0  0  0  0
 27  9  1  0  0  0  0
 27  2  1  0  0  0  0
 28 29  1  0  0  0  0
 30 34  1  0  0  0  0
 31 32  1  0  0  0  0
 31 33  1  0  0  0  0
 32 29  1  6  0  0  0
 32 34  1  0  0  0  0
 33 30  1  0  0  0  0
M  END
>  <MODEL>
8

>  <REMARK>
 VINA RESULT:      -8.1      3.128      8.658
  Name = 
  3 active torsions:
  status: ('A' for Active; 'I' for Inactive)
    1  A    between atoms: C_17  and  O_28
    2  A    between atoms: O_28  and  C_29
    3  A    between atoms: C_29  and  C_32
                            x       y       z     vdW  Elec       q    Type
                         _______ _______ _______ _____ _____    ______ ____

>  <TORSDO>
F 3

$$$$
=
 OpenBabel11122412123D

 34 41  0  0  1  0  0  0  0  0999 V2000
  181.5240  178.0830  141.4810 C   0  0  0  0  0  0  0  0  0  0  0  0
  182.0640  179.0030  143.8190 C   0  0  0  0  0  3  0  0  0  0  0  0
  183.3520  175.3690  136.2670 C   0  0  0  0  0  0  0  0  0  0  0  0
  181.1970  177.2630  139.2210 C   0  0  0  0  0  0  0  0  0  0  0  0
  183.1360  177.0690  137.7640 C   0  0  0  0  0  0  0  0  0  0  0  0
  183.5280  177.5300  135.2240 C   0  0  0  0  0  1  0  0  0  0  0  0
  184.7870  175.7830  136.3760 O   0  0  0  0  0  0  0  0  0  0  0  0
  181.0000  174.9500  136.4450 C   0  0  0  0  0  2  0  0  0  0  0  0
  183.8030  178.7050  142.2490 C   0  0  0  0  0  0  0  0  0  0  0  0
  186.4590  177.6210  142.9900 C   0  0  0  0  0  2  0  0  0  0  0  0
  183.9320  177.5360  138.7650 N   0  0  0  0  0  0  0  0  0  0  0  0
  180.8360  176.4470  136.8310 C   0  0  0  0  0  2  0  0  0  0  0  0
  184.3450  178.3820  141.0520 C   0  0  0  0  0  0  0  0  0  0  0  0
  183.3740  179.4970  144.4470 C   0  0  0  0  0  3  0  0  0  0  0  0
  181.7340  176.9230  137.9670 C   0  0  0  0  0  0  0  0  0  0  0  0
  182.3820  174.5240  136.1740 N   0  0  0  0  0  0  0  0  0  0  0  0
  185.4980  178.2130  144.0290 C   0  0  2  0  0  3  0  0  0  0  0  0
  182.0540  177.7400  140.2300 C   0  0  0  0  0  0  0  0  0  0  0  0
  183.7450  176.6690  136.4540 C   0  0  2  0  0  0  0  0  0  0  0  0
  183.4360  177.8770  139.9840 C   0  0  0  0  0  0  0  0  0  0  0  0
  179.3420  177.4990  140.7580 C   0  0  0  0  0  3  0  0  0  0  0  0
  186.7970  178.6280  141.8980 C   0  0  0  0  0  2  0  0  0  0  0  0
  179.8280  177.1440  139.4950 C   0  0  0  0  0  3  0  0  0  0  0  0
  185.8180  178.5410  140.7230 C   0  0  0  0  0  2  0  0  0  0  0  0
  184.5100  179.2360  143.4440 C   0  0  1  0  0  3  0  0  0  0  0  0
  180.1900  177.9570  141.7190 N   0  0  0  0  0  0  0  0  0  0  0  0
  182.4160  178.5690  142.4870 N   0  0  0  0  0  0  0  0  0  0  0  0
  186.2370  178.8120  145.0530 O   0  0  0  0  0  0  0  0  0  0  0  0
  186.7180  177.7460  145.8220 C   0  0  0  0  0  2  0  0  0  0  0  0
  189.5900  176.4360  147.3430 N   0  0  0  0  0  2  0  0  0  0  0  0
  189.1900  177.8210  145.4410 C   0  0  0  0  0  2  0  0  0  0  0  0
  188.0780  178.0760  146.4260 C   0  0  2  0  0  3  0  0  0  0  0  0
  190.2560  177.1280  146.2510 C   0  0  0  0  0  2  0  0  0  0  0  0
  188.3810  177.1970  147.6260 C   0  0  0  0  0  2  0  0  0  0  0  0
  1 26  1  0  0  0  0
  1 27  1  0  0  0  0
  2 14  2  0  0  0  0
  3  7  1  0  0  0  0
  3 19  1  0  0  0  0
  4 23  2  0  0  0  0
  4 18  1  0  0  0  0
  5 15  2  0  0  0  0
  5 11  1  0  0  0  0
  7 19  1  0  0  0  0
  8 12  1  0  0  0  0
  9 27  1  0  0  0  0
  9 25  1  0  0  0  0
 10 17  1  0  0  0  0
 11 20  2  0  0  0  0
 12 15  1  0  0  0  0
 13  9  2  0  0  0  0
 15  4  1  0  0  0  0
 16  3  2  0  0  0  0
 16  8  1  0  0  0  0
 17 28  1  1  0  0  0
 18  1  2  0  0  0  0
 19  6  1  6  0  0  0
 19  5  1  0  0  0  0
 20 18  1  0  0  0  0
 20 13  1  0  0  0  0
 21 26  2  0  0  0  0
 22 10  1  0  0  0  0
 23 21  1  0  0  0  0
 24 13  1  0  0  0  0
 24 22  1  0  0  0  0
 25 17  1  0  0  0  0
 25 14  1  1  0  0  0
 27  2  1  0  0  0  0
 28 29  1  0  0  0  0
 30 34  1  0  0  0  0
 31 33  1  0  0  0  0
 31 32  1  0  0  0  0
 32 29  1  6  0  0  0
 32 34  1  0  0  0  0
 33 30  1  0  0  0  0
M  END
>  <MODEL>
9

>  <REMARK>
 VINA RESULT:      -8.1      3.219      8.592
  Name = 
  3 active torsions:
  status: ('A' for Active; 'I' for Inactive)
    1  A    between atoms: C_17  and  O_28
    2  A    between atoms: O_28  and  C_29
    3  A    between atoms: C_29  and  C_32
                            x       y       z     vdW  Elec       q    Type
                         _______ _______ _______ _____ _____    ______ ____

>  <TORSDO>
F 3

$$$$
