=
 OpenBabel11122411133D

 31 35  0  0  1  0  0  0  0  0999 V2000
  191.3350  176.4890  144.6690 C   0  0  0  0  0  0  0  0  0  0  0  0
  187.6610  177.0070  143.8090 C   0  0  2  0  0  3  0  0  0  0  0  0
  187.0350  177.8010  144.9400 C   0  0  0  0  0  0  0  0  0  0  0  0
  186.9790  178.4320  147.2890 C   0  0  0  0  0  0  0  0  0  0  0  0
  189.1680  177.1070  143.7680 C   0  0  0  0  0  0  0  0  0  0  0  0
  191.9660  177.2780  143.7040 C   0  0  0  0  0  3  0  0  0  0  0  0
  187.5940  177.7670  146.2260 C   0  0  0  0  0  3  0  0  0  0  0  0
  187.6410  178.6310  141.8490 C   0  0  2  0  0  3  0  0  0  0  0  0
  192.0750  175.8100  145.5780 F   0  0  0  0  0  0  0  0  0  0  0  0
  185.1730  178.5450  143.3920 C   0  0  0  0  0  2  0  0  0  0  0  0
  187.5530  178.4020  148.5520 O   0  0  0  0  0  1  0  0  0  0  0  0
  189.0650  178.5520  141.8060 O   0  0  0  0  0  0  0  0  0  0  0  0
  187.0380  177.3450  142.4400 C   0  0  2  0  0  3  0  0  0  0  0  0
  189.9410  176.4010  144.6990 C   0  0  0  0  0  3  0  0  0  0  0  0
  185.7840  179.1230  147.0810 C   0  0  0  0  0  3  0  0  0  0  0  0
  189.8080  177.8900  142.7860 C   0  0  0  0  0  0  0  0  0  0  0  0
  191.2040  177.9740  142.7620 C   0  0  0  0  0  3  0  0  0  0  0  0
  185.5760  177.4200  142.5420 N   0  0  0  0  0  2  0  0  0  0  0  0
  185.8060  178.4680  144.7480 C   0  0  0  0  0  0  0  0  0  0  0  0
  185.2010  179.1430  145.8130 C   0  0  0  0  0  3  0  0  0  0  0  0
  188.4570  177.2230  139.5130 O   0  0  0  0  0  0  0  0  0  0  0  0
  187.5710  178.1120  139.3790 C   0  0  0  0  0  0  0  0  0  0  0  0
  187.1230  178.8600  140.5090 N   0  0  0  0  0  2  0  0  0  0  0  0
  187.7810  176.4810  136.0250 C   0  0  1  0  0  3  0  0  0  0  0  0
  186.1060  177.2460  137.5330 C   0  0  0  0  0  2  0  0  0  0  0  0
  188.9190  179.7310  137.4500 O   0  0  0  0  0  1  0  0  0  0  0  0
  188.5320  175.2660  135.5230 C   0  0  0  0  0  1  0  0  0  0  0  0
  186.9290  176.0970  137.1480 N   0  0  0  0  0  2  0  0  0  0  0  0
  188.0250  178.7740  136.9660 C   0  0  2  0  0  3  0  0  0  0  0  0
  186.9780  178.4040  138.0300 C   0  0  2  0  0  3  0  0  0  0  0  0
  188.7810  177.5460  136.4680 C   0  0  0  0  0  2  0  0  0  0  0  0
  1 14  1  0  0  0  0
  1  9  1  0  0  0  0
  2  5  1  6  0  0  0
  2  3  1  0  0  0  0
  3  7  1  0  0  0  0
  4 11  1  0  0  0  0
  5 14  2  0  0  0  0
  6  1  2  0  0  0  0
  7  4  2  0  0  0  0
  8 23  1  6  0  0  0
  8 13  1  0  0  0  0
 10 19  1  0  0  0  0
 12  8  1  0  0  0  0
 12 16  1  0  0  0  0
 13 18  1  1  0  0  0
 13  2  1  0  0  0  0
 15  4  1  0  0  0  0
 16  5  1  0  0  0  0
 17 16  2  0  0  0  0
 17  6  1  0  0  0  0
 18 10  1  0  0  0  0
 19  3  2  0  0  0  0
 19 20  1  0  0  0  0
 20 15  2  0  0  0  0
 22 21  2  0  0  0  0
 22 23  1  0  0  0  0
 24 27  1  1  0  0  0
 24 31  1  0  0  0  0
 24 28  1  0  0  0  0
 25 30  1  0  0  0  0
 28 25  1  0  0  0  0
 29 26  1  1  0  0  0
 29 30  1  0  0  0  0
 30 22  1  1  0  0  0
 31 29  1  0  0  0  0
M  END
>  <MODEL>
1

>  <REMARK>
 VINA RESULT:      -9.7      0.000      0.000
  Name = 
  2 active torsions:
  status: ('A' for Active; 'I' for Inactive)
    1  A    between atoms: C_5  and  C_30
    2  A    between atoms: C_10  and  N_16
                            x       y       z     vdW  Elec       q    Type
                         _______ _______ _______ _____ _____    ______ ____

>  <TORSDO>
F 2

$$$$
=
 OpenBabel11122411133D

 31 35  0  0  1  0  0  0  0  0999 V2000
  189.9020  176.0890  142.5880 C   0  0  0  0  0  0  0  0  0  0  0  0
  186.5870  177.1450  144.1370 C   0  0  2  0  0  3  0  0  0  0  0  0
  186.8940  177.8000  145.4700 C   0  0  0  0  0  0  0  0  0  0  0  0
  188.3290  178.0270  147.4230 C   0  0  0  0  0  0  0  0  0  0  0  0
  187.7780  177.0840  143.2090 C   0  0  0  0  0  0  0  0  0  0  0  0
  189.9930  176.9550  141.4950 C   0  0  0  0  0  3  0  0  0  0  0  0
  188.0770  177.4880  146.1590 C   0  0  0  0  0  3  0  0  0  0  0  0
  185.7430  179.0690  142.7000 C   0  0  2  0  0  3  0  0  0  0  0  0
  190.8870  175.1890  142.8210 F   0  0  0  0  0  0  0  0  0  0  0  0
  184.6620  178.9940  145.4020 C   0  0  0  0  0  2  0  0  0  0  0  0
  189.5100  177.7220  148.0850 O   0  0  0  0  0  1  0  0  0  0  0  0
  186.8330  178.8420  141.8070 O   0  0  0  0  0  0  0  0  0  0  0  0
  185.3640  177.7760  143.4420 C   0  0  2  0  0  3  0  0  0  0  0  0
  188.7970  176.1510  143.4400 C   0  0  0  0  0  3  0  0  0  0  0  0
  187.3910  178.8710  148.0210 C   0  0  0  0  0  3  0  0  0  0  0  0
  187.8650  177.9470  142.0980 C   0  0  0  0  0  0  0  0  0  0  0  0
  188.9740  177.8800  141.2480 C   0  0  0  0  0  3  0  0  0  0  0  0
  184.2770  177.9920  144.4040 N   0  0  0  0  0  2  0  0  0  0  0  0
  185.9340  178.6210  146.1000 C   0  0  0  0  0  0  0  0  0  0  0  0
  186.1980  179.1680  147.3600 C   0  0  0  0  0  3  0  0  0  0  0  0
  184.0840  177.5170  140.9830 O   0  0  0  0  0  0  0  0  0  0  0  0
  183.8040  178.7410  141.1170 C   0  0  0  0  0  0  0  0  0  0  0  0
  184.5990  179.5750  141.9570 N   0  0  0  0  0  2  0  0  0  0  0  0
  181.7560  177.7170  138.1650 C   0  0  1  0  0  3  0  0  0  0  0  0
  181.4150  178.4100  140.4170 C   0  0  0  0  0  2  0  0  0  0  0  0
  184.1400  180.4890  138.8830 O   0  0  0  0  0  1  0  0  0  0  0  0
  181.8250  176.5230  137.2370 C   0  0  0  0  0  1  0  0  0  0  0  0
  181.6210  177.2520  139.5440 N   0  0  0  0  0  2  0  0  0  0  0  0
  182.9540  179.7560  138.9460 C   0  0  2  0  0  3  0  0  0  0  0  0
  182.6330  179.3400  140.3910 C   0  0  2  0  0  3  0  0  0  0  0  0
  183.0270  178.5480  138.0150 C   0  0  0  0  0  2  0  0  0  0  0  0
  1  9  1  0  0  0  0
  1 14  1  0  0  0  0
  2  5  1  6  0  0  0
  2  3  1  0  0  0  0
  3 19  2  0  0  0  0
  3  7  1  0  0  0  0
  4 15  1  0  0  0  0
  4 11  1  0  0  0  0
  5 14  2  0  0  0  0
  6  1  2  0  0  0  0
  7  4  2  0  0  0  0
  8 23  1  6  0  0  0
  8 13  1  0  0  0  0
 10 19  1  0  0  0  0
 12 16  1  0  0  0  0
 12  8  1  0  0  0  0
 13  2  1  0  0  0  0
 13 18  1  1  0  0  0
 16  5  1  0  0  0  0
 17  6  1  0  0  0  0
 17 16  2  0  0  0  0
 18 10  1  0  0  0  0
 19 20  1  0  0  0  0
 20 15  2  0  0  0  0
 21 22  2  0  0  0  0
 22 23  1  0  0  0  0
 24 27  1  6  0  0  0
 24 28  1  0  0  0  0
 28 25  1  0  0  0  0
 29 26  1  1  0  0  0
 29 30  1  0  0  0  0
 30 25  1  0  0  0  0
 30 22  1  6  0  0  0
 31 24  1  0  0  0  0
 31 29  1  0  0  0  0
M  END
>  <MODEL>
2

>  <REMARK>
 VINA RESULT:      -9.5      3.003      3.623
  Name = 
  2 active torsions:
  status: ('A' for Active; 'I' for Inactive)
    1  A    between atoms: C_5  and  C_30
    2  A    between atoms: C_10  and  N_16
                            x       y       z     vdW  Elec       q    Type
                         _______ _______ _______ _____ _____    ______ ____

>  <TORSDO>
F 2

$$$$
=
 OpenBabel11122411133D

 31 35  0  0  1  0  0  0  0  0999 V2000
  190.0390  176.0170  142.7120 C   0  0  0  0  0  0  0  0  0  0  0  0
  186.4910  177.1720  143.4760 C   0  0  2  0  0  3  0  0  0  0  0  0
  186.5180  177.8720  144.8210 C   0  0  0  0  0  0  0  0  0  0  0  0
  187.5040  178.1520  147.0290 C   0  0  0  0  0  0  0  0  0  0  0  0
  187.8510  177.0620  142.8290 C   0  0  0  0  0  0  0  0  0  0  0  0
  190.3800  176.8410  141.6370 C   0  0  0  0  0  3  0  0  0  0  0  0
  187.5180  177.5700  145.7590 C   0  0  0  0  0  3  0  0  0  0  0  0
  186.0150  179.0530  141.8280 C   0  0  2  0  0  3  0  0  0  0  0  0
  190.9320  175.1130  143.1820 F   0  0  0  0  0  0  0  0  0  0  0  0
  184.3780  179.0920  144.2350 C   0  0  0  0  0  2  0  0  0  0  0  0
  188.5080  177.8550  147.9390 O   0  0  0  0  0  1  0  0  0  0  0  0
  187.2660  178.7800  141.1990 O   0  0  0  0  0  0  0  0  0  0  0  0
  185.4590  177.7930  142.5130 C   0  0  2  0  0  3  0  0  0  0  0  0
  188.7780  176.1250  143.3040 C   0  0  0  0  0  3  0  0  0  0  0  0
  186.4770  179.0290  147.3820 C   0  0  0  0  0  3  0  0  0  0  0  0
  188.1930  177.8820  141.7340 C   0  0  0  0  0  0  0  0  0  0  0  0
  189.4580  177.7690  141.1460 C   0  0  0  0  0  3  0  0  0  0  0  0
  184.1960  178.0590  143.2110 N   0  0  0  0  0  2  0  0  0  0  0  0
  185.4620  178.7280  145.2020 C   0  0  0  0  0  0  0  0  0  0  0  0
  185.4610  179.3170  146.4710 C   0  0  0  0  0  3  0  0  0  0  0  0
  185.4610  177.8160  139.3240 O   0  0  0  0  0  0  0  0  0  0  0  0
  184.8330  178.8740  139.6040 C   0  0  0  0  0  0  0  0  0  0  0  0
  185.0680  179.5470  140.8400 N   0  0  0  0  0  2  0  0  0  0  0  0
  181.1510  178.4680  139.1140 C   0  0  1  0  0  3  0  0  0  0  0  0
  182.7330  180.2290  139.3670 C   0  0  0  0  0  2  0  0  0  0  0  0
  184.1860  177.5760  137.1440 O   0  0  0  0  0  1  0  0  0  0  0  0
  180.1110  177.6300  139.8250 C   0  0  0  0  0  1  0  0  0  0  0  0
  181.8290  179.3260  140.0840 N   0  0  0  0  0  2  0  0  0  0  0  0
  183.2060  178.3940  137.7090 C   0  0  2  0  0  3  0  0  0  0  0  0
  183.8310  179.4450  138.6410 C   0  0  2  0  0  3  0  0  0  0  0  0
  182.1610  177.5490  138.4320 C   0  0  0  0  0  2  0  0  0  0  0  0
  1  9  1  0  0  0  0
  1 14  1  0  0  0  0
  2  5  1  6  0  0  0
  2  3  1  0  0  0  0
  3 19  2  0  0  0  0
  3  7  1  0  0  0  0
  4 15  1  0  0  0  0
  4 11  1  0  0  0  0
  5 14  2  0  0  0  0
  6  1  2  0  0  0  0
  7  4  2  0  0  0  0
  8 23  1  6  0  0  0
  8 13  1  0  0  0  0
 10 19  1  0  0  0  0
 12 16  1  0  0  0  0
 12  8  1  0  0  0  0
 13 18  1  1  0  0  0
 13  2  1  0  0  0  0
 16  5  1  0  0  0  0
 17  6  1  0  0  0  0
 17 16  2  0  0  0  0
 18 10  1  0  0  0  0
 19 20  1  0  0  0  0
 20 15  2  0  0  0  0
 21 22  2  0  0  0  0
 22 23  1  0  0  0  0
 24 27  1  1  0  0  0
 24 28  1  0  0  0  0
 25 28  1  0  0  0  0
 29 26  1  1  0  0  0
 29 31  1  0  0  0  0
 29 30  1  0  0  0  0
 30 25  1  0  0  0  0
 30 22  1  1  0  0  0
 31 24  1  0  0  0  0
M  END
>  <MODEL>
3

>  <REMARK>
 VINA RESULT:      -9.3      2.750      3.629
  Name = 
  2 active torsions:
  status: ('A' for Active; 'I' for Inactive)
    1  A    between atoms: C_5  and  C_30
    2  A    between atoms: C_10  and  N_16
                            x       y       z     vdW  Elec       q    Type
                         _______ _______ _______ _____ _____    ______ ____

>  <TORSDO>
F 2

$$$$
=
 OpenBabel11122411133D

 31 35  0  0  1  0  0  0  0  0999 V2000
  190.4450  176.8700  146.0520 C   0  0  0  0  0  0  0  0  0  0  0  0
  187.6890  177.2050  143.4450 C   0  0  2  0  0  3  0  0  0  0  0  0
  186.6130  178.1010  144.0300 C   0  0  0  0  0  0  0  0  0  0  0  0
  185.4290  178.9780  145.9670 C   0  0  0  0  0  0  0  0  0  0  0  0
  189.0230  177.3360  144.1410 C   0  0  0  0  0  0  0  0  0  0  0  0
  191.4940  177.5650  145.4470 C   0  0  0  0  0  3  0  0  0  0  0  0
  186.4660  178.2180  145.4210 C   0  0  0  0  0  3  0  0  0  0  0  0
  188.6880  178.6090  141.5710 C   0  0  2  0  0  3  0  0  0  0  0  0
  190.6200  176.3100  147.2730 F   0  0  0  0  0  0  0  0  0  0  0  0
  185.7800  178.6300  141.6980 C   0  0  0  0  0  2  0  0  0  0  0  0
  185.3060  179.0980  147.3440 O   0  0  0  0  0  1  0  0  0  0  0  0
  189.9450  178.5600  142.2430 O   0  0  0  0  0  0  0  0  0  0  0  0
  187.8320  177.3800  141.9200 C   0  0  2  0  0  3  0  0  0  0  0  0
  189.2150  176.7530  145.4010 C   0  0  0  0  0  3  0  0  0  0  0  0
  184.5140  179.6150  145.1260 C   0  0  0  0  0  3  0  0  0  0  0  0
  190.0880  178.0250  143.5260 C   0  0  0  0  0  0  0  0  0  0  0  0
  191.3180  178.1380  144.1840 C   0  0  0  0  0  3  0  0  0  0  0  0
  186.5120  177.4310  141.2800 N   0  0  0  0  0  2  0  0  0  0  0  0
  185.6600  178.7140  143.1890 C   0  0  0  0  0  0  0  0  0  0  0  0
  184.6310  179.4840  143.7410 C   0  0  0  0  0  3  0  0  0  0  0  0
  190.1810  176.7280  140.0420 O   0  0  0  0  0  0  0  0  0  0  0  0
  189.6580  177.6980  139.4260 C   0  0  0  0  0  0  0  0  0  0  0  0
  188.9040  178.6800  140.1340 N   0  0  0  0  0  2  0  0  0  0  0  0
  187.3160  177.6790  136.5160 C   0  0  1  0  0  3  0  0  0  0  0  0
  189.0550  179.0460  137.3960 C   0  0  0  0  0  2  0  0  0  0  0  0
  190.0370  175.4370  137.7220 O   0  0  0  0  0  1  0  0  0  0  0  0
  185.8160  177.5020  136.4100 C   0  0  0  0  0  1  0  0  0  0  0  0
  187.6120  178.7960  137.4110 N   0  0  0  0  0  2  0  0  0  0  0  0
  189.4530  176.5720  137.1550 C   0  0  2  0  0  3  0  0  0  0  0  0
  189.8270  177.8400  137.9400 C   0  0  2  0  0  3  0  0  0  0  0  0
  187.9400  176.3960  137.0570 C   0  0  0  0  0  2  0  0  0  0  0  0
  1  9  1  0  0  0  0
  2  3  1  1  0  0  0
  2  5  1  0  0  0  0
  3  7  1  0  0  0  0
  4 11  1  0  0  0  0
  5 14  1  0  0  0  0
  6  1  1  0  0  0  0
  7  4  2  0  0  0  0
  8 23  1  6  0  0  0
  8 13  1  0  0  0  0
  8 12  1  0  0  0  0
 10 19  1  0  0  0  0
 12 16  1  0  0  0  0
 13 18  1  6  0  0  0
 13  2  1  0  0  0  0
 14  1  2  0  0  0  0
 15  4  1  0  0  0  0
 16  5  2  0  0  0  0
 16 17  1  0  0  0  0
 17  6  2  0  0  0  0
 18 10  1  0  0  0  0
 19 20  1  0  0  0  0
 19  3  2  0  0  0  0
 20 15  2  0  0  0  0
 22 21  2  0  0  0  0
 22 23  1  0  0  0  0
 24 27  1  1  0  0  0
 24 31  1  0  0  0  0
 24 28  1  0  0  0  0
 25 28  1  0  0  0  0
 25 30  1  0  0  0  0
 29 26  1  1  0  0  0
 29 30  1  0  0  0  0
 30 22  1  1  0  0  0
 31 29  1  0  0  0  0
M  END
>  <MODEL>
4

>  <REMARK>
 VINA RESULT:      -8.9      1.638      2.092
  Name = 
  2 active torsions:
  status: ('A' for Active; 'I' for Inactive)
    1  A    between atoms: C_5  and  C_30
    2  A    between atoms: C_10  and  N_16
                            x       y       z     vdW  Elec       q    Type
                         _______ _______ _______ _____ _____    ______ ____

>  <TORSDO>
F 2

$$$$
=
 OpenBabel11122411133D

 31 35  0  0  1  0  0  0  0  0999 V2000
  189.1070  177.7610  144.4010 C   0  0  0  0  0  0  0  0  0  0  0  0
  187.1440  178.9270  141.3520 C   0  0  2  0  0  3  0  0  0  0  0  0
  187.6010  178.0940  140.1690 C   0  0  0  0  0  0  0  0  0  0  0  0
  189.3300  176.8000  139.0490 C   0  0  0  0  0  0  0  0  0  0  0  0
  187.4750  178.3040  142.6880 C   0  0  0  0  0  0  0  0  0  0  0  0
  188.1080  177.1570  145.1670 C   0  0  0  0  0  3  0  0  0  0  0  0
  188.8730  177.5010  140.1670 C   0  0  0  0  0  3  0  0  0  0  0  0
  184.7510  178.1550  141.7450 C   0  0  2  0  0  3  0  0  0  0  0  0
  190.3830  177.7890  144.8530 F   0  0  0  0  0  0  0  0  0  0  0  0
  185.4420  178.6260  138.9570 C   0  0  0  0  0  2  0  0  0  0  0  0
  190.5840  176.2060  139.0680 O   0  0  0  0  0  1  0  0  0  0  0  0
  185.1350  177.7190  143.0480 O   0  0  0  0  0  0  0  0  0  0  0  0
  185.6520  179.3040  141.2630 C   0  0  2  0  0  3  0  0  0  0  0  0
  188.7920  178.3360  143.1670 C   0  0  0  0  0  3  0  0  0  0  0  0
  188.5260  176.6990  137.9120 C   0  0  0  0  0  3  0  0  0  0  0  0
  186.4660  177.7070  143.4710 C   0  0  0  0  0  0  0  0  0  0  0  0
  186.7890  177.1340  144.7060 C   0  0  0  0  0  3  0  0  0  0  0  0
  185.3090  179.7380  139.9030 N   0  0  0  0  0  2  0  0  0  0  0  0
  186.8120  178.0220  139.0010 C   0  0  0  0  0  0  0  0  0  0  0  0
  187.2700  177.3070  137.8890 C   0  0  0  0  0  3  0  0  0  0  0  0
  182.6570  176.9810  140.2120 O   0  0  0  0  0  0  0  0  0  0  0  0
  182.3560  177.9430  140.9720 C   0  0  0  0  0  0  0  0  0  0  0  0
  183.3590  178.5800  141.7620 N   0  0  0  0  0  2  0  0  0  0  0  0
  179.2270  177.2380  139.0580 C   0  0  1  0  0  3  0  0  0  0  0  0
  179.9570  177.2930  141.3230 C   0  0  0  0  0  2  0  0  0  0  0  0
  181.4490  180.2000  139.4740 O   0  0  0  0  0  1  0  0  0  0  0  0
  178.9310  176.3390  137.8760 C   0  0  0  0  0  1  0  0  0  0  0  0
  179.8050  176.4430  140.1400 N   0  0  0  0  0  2  0  0  0  0  0  0
  180.4960  179.2400  139.8210 C   0  0  2  0  0  3  0  0  0  0  0  0
  180.9400  178.4370  141.0540 C   0  0  2  0  0  3  0  0  0  0  0  0
  180.2040  178.3290  138.6310 C   0  0  0  0  0  2  0  0  0  0  0  0
  1  9  1  0  0  0  0
  1  6  1  0  0  0  0
  2  3  1  6  0  0  0
  2  5  1  0  0  0  0
  4 11  1  0  0  0  0
  4  7  2  0  0  0  0
  5 14  1  0  0  0  0
  5 16  2  0  0  0  0
  7  3  1  0  0  0  0
  8 23  1  1  0  0  0
  8 12  1  0  0  0  0
 10 19  1  0  0  0  0
 10 18  1  0  0  0  0
 12 16  1  0  0  0  0
 13 18  1  6  0  0  0
 13  2  1  0  0  0  0
 13  8  1  0  0  0  0
 14  1  2  0  0  0  0
 15  4  1  0  0  0  0
 16 17  1  0  0  0  0
 17  6  2  0  0  0  0
 19  3  2  0  0  0  0
 20 15  2  0  0  0  0
 20 19  1  0  0  0  0
 21 22  2  0  0  0  0
 22 23  1  0  0  0  0
 24 27  1  6  0  0  0
 24 28  1  0  0  0  0
 28 25  1  0  0  0  0
 29 26  1  6  0  0  0
 29 30  1  0  0  0  0
 30 22  1  6  0  0  0
 30 25  1  0  0  0  0
 31 24  1  0  0  0  0
 31 29  1  0  0  0  0
M  END
>  <MODEL>
5

>  <REMARK>
 VINA RESULT:      -7.8      3.813      6.279
  Name = 
  2 active torsions:
  status: ('A' for Active; 'I' for Inactive)
    1  A    between atoms: C_5  and  C_30
    2  A    between atoms: C_10  and  N_16
                            x       y       z     vdW  Elec       q    Type
                         _______ _______ _______ _____ _____    ______ ____

>  <TORSDO>
F 2

$$$$
=
 OpenBabel11122411133D

 31 35  0  0  1  0  0  0  0  0999 V2000
  184.0840  178.6470  144.1860 C   0  0  0  0  0  0  0  0  0  0  0  0
  182.8200  178.0870  140.6380 C   0  0  2  0  0  3  0  0  0  0  0  0
  181.6000  178.9670  140.4430 C   0  0  0  0  0  0  0  0  0  0  0  0
  179.6670  180.1210  141.3700 C   0  0  0  0  0  0  0  0  0  0  0  0
  183.6910  178.5150  141.7950 C   0  0  0  0  0  0  0  0  0  0  0  0
  185.2970  179.2990  143.9560 C   0  0  0  0  0  3  0  0  0  0  0  0
  180.8360  179.3760  141.5470 C   0  0  0  0  0  3  0  0  0  0  0  0
  184.5690  179.1370  139.1160 C   0  0  2  0  0  3  0  0  0  0  0  0
  183.6810  178.3970  145.4550 F   0  0  0  0  0  0  0  0  0  0  0  0
  181.9230  178.8670  137.9330 C   0  0  0  0  0  2  0  0  0  0  0  0
  178.9310  180.5310  142.4720 O   0  0  0  0  0  1  0  0  0  0  0  0
  185.3820  179.3770  140.2630 O   0  0  0  0  0  0  0  0  0  0  0  0
  183.6420  177.9310  139.3430 C   0  0  2  0  0  3  0  0  0  0  0  0
  183.2850  178.2530  143.1100 C   0  0  0  0  0  3  0  0  0  0  0  0
  179.2390  180.4500  140.0820 C   0  0  0  0  0  3  0  0  0  0  0  0
  184.9230  179.1610  141.5650 C   0  0  0  0  0  0  0  0  0  0  0  0
  185.7180  179.5530  142.6470 C   0  0  0  0  0  3  0  0  0  0  0  0
  182.7590  177.6920  138.1960 N   0  0  0  0  0  2  0  0  0  0  0  0
  181.1370  179.2690  139.1440 C   0  0  0  0  0  0  0  0  0  0  0  0
  179.9730  180.0260  138.9730 C   0  0  0  0  0  3  0  0  0  0  0  0
  187.1550  177.9470  139.1820 O   0  0  0  0  0  0  0  0  0  0  0  0
  186.7030  178.2990  138.0570 C   0  0  0  0  0  0  0  0  0  0  0  0
  185.4170  178.9080  137.9550 N   0  0  0  0  0  2  0  0  0  0  0  0
  189.6300  176.1550  137.1680 C   0  0  1  0  0  3  0  0  0  0  0  0
  187.4520  176.6340  136.3340 C   0  0  0  0  0  2  0  0  0  0  0  0
  189.0550  179.8220  137.5030 O   0  0  0  0  0  1  0  0  0  0  0  0
  190.4590  175.1720  137.9680 C   0  0  0  0  0  1  0  0  0  0  0  0
  188.2240  175.7610  137.2220 N   0  0  0  0  0  2  0  0  0  0  0  0
  188.9740  178.5460  136.9400 C   0  0  2  0  0  3  0  0  0  0  0  0
  187.5120  178.0900  136.8090 C   0  0  2  0  0  3  0  0  0  0  0  0
  189.8030  177.5550  137.7510 C   0  0  0  0  0  2  0  0  0  0  0  0
  1  9  1  0  0  0  0
  2  3  1  6  0  0  0
  2  5  1  0  0  0  0
  3  7  1  0  0  0  0
  4  7  2  0  0  0  0
  4 11  1  0  0  0  0
  5 14  1  0  0  0  0
  6  1  1  0  0  0  0
  8 23  1  6  0  0  0
  8 13  1  0  0  0  0
  8 12  1  0  0  0  0
 10 18  1  0  0  0  0
 10 19  1  0  0  0  0
 12 16  1  0  0  0  0
 13 18  1  6  0  0  0
 13  2  1  0  0  0  0
 14  1  2  0  0  0  0
 15  4  1  0  0  0  0
 16  5  2  0  0  0  0
 16 17  1  0  0  0  0
 17  6  2  0  0  0  0
 19  3  2  0  0  0  0
 20 19  1  0  0  0  0
 20 15  2  0  0  0  0
 22 21  2  0  0  0  0
 23 22  1  0  0  0  0
 24 28  1  0  0  0  0
 24 31  1  0  0  0  0
 24 27  1  1  0  0  0
 25 30  1  0  0  0  0
 25 28  1  0  0  0  0
 29 26  1  1  0  0  0
 29 31  1  0  0  0  0
 30 29  1  0  0  0  0
 30 22  1  1  0  0  0
M  END
>  <MODEL>
6

>  <REMARK>
 VINA RESULT:      -7.7      4.131      5.894
  Name = 
  2 active torsions:
  status: ('A' for Active; 'I' for Inactive)
    1  A    between atoms: C_5  and  C_30
    2  A    between atoms: C_10  and  N_16
                            x       y       z     vdW  Elec       q    Type
                         _______ _______ _______ _____ _____    ______ ____

>  <TORSDO>
F 2

$$$$
=
 OpenBabel11122411133D

 31 35  0  0  1  0  0  0  0  0999 V2000
  179.8500  179.1140  143.3990 C   0  0  0  0  0  0  0  0  0  0  0  0
  183.3850  179.3780  142.0070 C   0  0  2  0  0  3  0  0  0  0  0  0
  184.3280  178.7940  143.0410 C   0  0  0  0  0  0  0  0  0  0  0  0
  184.8590  178.2990  145.3640 C   0  0  0  0  0  0  0  0  0  0  0  0
  181.9490  178.9480  142.1920 C   0  0  0  0  0  0  0  0  0  0  0  0
  179.2810  178.1630  142.5500 C   0  0  0  0  0  3  0  0  0  0  0  0
  183.9650  178.7630  144.3960 C   0  0  0  0  0  3  0  0  0  0  0  0
  183.4900  177.7100  140.0870 C   0  0  2  0  0  3  0  0  0  0  0  0
  179.1140  179.6550  144.3990 F   0  0  0  0  0  0  0  0  0  0  0  0
  186.0690  178.4080  141.2420 C   0  0  0  0  0  2  0  0  0  0  0  0
  184.4800  178.2600  146.6980 O   0  0  0  0  0  1  0  0  0  0  0  0
  182.0930  177.4720  140.2550 O   0  0  0  0  0  0  0  0  0  0  0  0
  183.8660  179.1230  140.5640 C   0  0  2  0  0  3  0  0  0  0  0  0
  181.1790  179.5080  143.2190 C   0  0  0  0  0  3  0  0  0  0  0  0
  186.1360  177.8780  144.9890 C   0  0  0  0  0  3  0  0  0  0  0  0
  181.3680  177.9980  141.3270 C   0  0  0  0  0  0  0  0  0  0  0  0
  180.0370  177.6090  141.5120 C   0  0  0  0  0  3  0  0  0  0  0  0
  185.3070  179.3760  140.4480 N   0  0  0  0  0  2  0  0  0  0  0  0
  185.6360  178.4060  142.6770 C   0  0  0  0  0  0  0  0  0  0  0  0
  186.5220  177.9300  143.6480 C   0  0  0  0  0  3  0  0  0  0  0  0
  183.3810  175.2530  138.6520 O   0  0  0  0  0  0  0  0  0  0  0  0
  183.7650  176.2790  138.0250 C   0  0  0  0  0  0  0  0  0  0  0  0
  183.8490  177.5400  138.6870 N   0  0  0  0  0  2  0  0  0  0  0  0
  184.6840  173.4770  135.7310 C   0  0  1  0  0  3  0  0  0  0  0  0
  183.1680  175.3120  135.7860 C   0  0  0  0  0  2  0  0  0  0  0  0
  186.4850  176.4090  137.1620 O   0  0  0  0  0  1  0  0  0  0  0  0
  184.8270  171.9850  135.9450 C   0  0  0  0  0  1  0  0  0  0  0  0
  183.3420  173.8980  136.1270 N   0  0  0  0  0  2  0  0  0  0  0  0
  185.5900  175.7140  136.3460 C   0  0  2  0  0  3  0  0  0  0  0  0
  184.1460  176.1900  136.5750 C   0  0  2  0  0  3  0  0  0  0  0  0
  185.7290  174.2100  136.5670 C   0  0  0  0  0  2  0  0  0  0  0  0
  1  9  1  0  0  0  0
  2  5  1  6  0  0  0
  2  3  1  0  0  0  0
  3  7  1  0  0  0  0
  4 11  1  0  0  0  0
  5 14  2  0  0  0  0
  6  1  2  0  0  0  0
  7  4  2  0  0  0  0
  8 23  1  6  0  0  0
  8 12  1  0  0  0  0
  8 13  1  0  0  0  0
 10 19  1  0  0  0  0
 12 16  1  0  0  0  0
 13 18  1  1  0  0  0
 13  2  1  0  0  0  0
 14  1  1  0  0  0  0
 15  4  1  0  0  0  0
 16 17  2  0  0  0  0
 16  5  1  0  0  0  0
 17  6  1  0  0  0  0
 18 10  1  0  0  0  0
 19  3  2  0  0  0  0
 19 20  1  0  0  0  0
 20 15  2  0  0  0  0
 22 21  2  0  0  0  0
 22 23  1  0  0  0  0
 24 27  1  1  0  0  0
 24 28  1  0  0  0  0
 24 31  1  0  0  0  0
 25 28  1  0  0  0  0
 25 30  1  0  0  0  0
 29 31  1  0  0  0  0
 29 30  1  0  0  0  0
 29 26  1  1  0  0  0
 30 22  1  1  0  0  0
M  END
>  <MODEL>
7

>  <REMARK>
 VINA RESULT:      -7.7      4.334      6.338
  Name = 
  2 active torsions:
  status: ('A' for Active; 'I' for Inactive)
    1  A    between atoms: C_5  and  C_30
    2  A    between atoms: C_10  and  N_16
                            x       y       z     vdW  Elec       q    Type
                         _______ _______ _______ _____ _____    ______ ____

>  <TORSDO>
F 2

$$$$
=
 OpenBabel11122411133D

 31 35  0  0  1  0  0  0  0  0999 V2000
  185.0200  178.4230  138.7240 C   0  0  0  0  0  0  0  0  0  0  0  0
  188.7240  178.1770  139.5770 C   0  0  2  0  0  3  0  0  0  0  0  0
  188.8380  177.4880  140.9240 C   0  0  0  0  0  0  0  0  0  0  0  0
  187.8980  176.9670  143.1070 C   0  0  0  0  0  0  0  0  0  0  0  0
  187.3950  177.9490  138.8970 C   0  0  0  0  0  0  0  0  0  0  0  0
  184.9190  177.5430  137.6440 C   0  0  0  0  0  3  0  0  0  0  0  0
  187.7720  177.5310  141.8350 C   0  0  0  0  0  3  0  0  0  0  0  0
  189.6890  176.4760  137.9470 C   0  0  2  0  0  3  0  0  0  0  0  0
  183.9210  179.0770  139.1690 F   0  0  0  0  0  0  0  0  0  0  0  0
  191.2270  176.8350  140.3930 C   0  0  0  0  0  2  0  0  0  0  0  0
  186.8300  177.0040  143.9920 O   0  0  0  0  0  1  0  0  0  0  0  0
  188.4250  176.4340  137.2870 O   0  0  0  0  0  0  0  0  0  0  0  0
  189.9000  177.8320  138.6410 C   0  0  2  0  0  3  0  0  0  0  0  0
  186.2540  178.6280  139.3460 C   0  0  0  0  0  3  0  0  0  0  0  0
  189.1010  176.3690  143.4880 C   0  0  0  0  0  3  0  0  0  0  0  0
  187.2920  177.0730  137.7970 C   0  0  0  0  0  0  0  0  0  0  0  0
  186.0540  176.8730  137.1780 C   0  0  0  0  0  3  0  0  0  0  0  0
  191.1730  177.8840  139.3700 N   0  0  0  0  0  2  0  0  0  0  0  0
  190.0630  176.9180  141.3330 C   0  0  0  0  0  0  0  0  0  0  0  0
  190.1790  176.3440  142.6030 C   0  0  0  0  0  3  0  0  0  0  0  0
  191.4420  174.2320  137.9690 O   0  0  0  0  0  0  0  0  0  0  0  0
  191.5930  175.0820  137.0480 C   0  0  0  0  0  0  0  0  0  0  0  0
  190.7520  176.2330  136.9840 N   0  0  0  0  0  2  0  0  0  0  0  0
  194.7460  173.0880  136.8620 C   0  0  1  0  0  3  0  0  0  0  0  0
  192.7790  173.4380  135.5670 C   0  0  0  0  0  2  0  0  0  0  0  0
  193.9300  176.7220  136.9770 O   0  0  0  0  0  1  0  0  0  0  0  0
  195.4300  172.1620  137.8440 C   0  0  0  0  0  1  0  0  0  0  0  0
  193.3830  172.6190  136.6210 N   0  0  0  0  0  2  0  0  0  0  0  0
  194.0370  175.4370  136.4400 C   0  0  2  0  0  3  0  0  0  0  0  0
  192.6620  174.9010  136.0080 C   0  0  2  0  0  3  0  0  0  0  0  0
  194.7190  174.5020  137.4340 C   0  0  0  0  0  2  0  0  0  0  0  0
  1  9  1  0  0  0  0
  1 14  1  0  0  0  0
  2  5  1  6  0  0  0
  2  3  1  0  0  0  0
  3 19  2  0  0  0  0
  3  7  1  0  0  0  0
  4 15  1  0  0  0  0
  4 11  1  0  0  0  0
  5 14  2  0  0  0  0
  6  1  2  0  0  0  0
  7  4  2  0  0  0  0
  8 23  1  6  0  0  0
  8 13  1  0  0  0  0
 10 19  1  0  0  0  0
 12 16  1  0  0  0  0
 12  8  1  0  0  0  0
 13 18  1  1  0  0  0
 13  2  1  0  0  0  0
 16  5  1  0  0  0  0
 17  6  1  0  0  0  0
 17 16  2  0  0  0  0
 18 10  1  0  0  0  0
 19 20  1  0  0  0  0
 20 15  2  0  0  0  0
 22 21  2  0  0  0  0
 23 22  1  0  0  0  0
 24 31  1  0  0  0  0
 24 27  1  1  0  0  0
 25 30  1  0  0  0  0
 25 28  1  0  0  0  0
 28 24  1  0  0  0  0
 29 26  1  1  0  0  0
 29 31  1  0  0  0  0
 30 29  1  0  0  0  0
 30 22  1  1  0  0  0
M  END
>  <MODEL>
8

>  <REMARK>
 VINA RESULT:      -7.7      4.210      6.528
  Name = 
  2 active torsions:
  status: ('A' for Active; 'I' for Inactive)
    1  A    between atoms: C_5  and  C_30
    2  A    between atoms: C_10  and  N_16
                            x       y       z     vdW  Elec       q    Type
                         _______ _______ _______ _____ _____    ______ ____

>  <TORSDO>
F 2

$$$$
=
 OpenBabel11122411133D

 31 35  0  0  1  0  0  0  0  0999 V2000
  188.5020  178.0010  144.2020 C   0  0  0  0  0  0  0  0  0  0  0  0
  186.7580  179.0010  140.9670 C   0  0  2  0  0  3  0  0  0  0  0  0
  187.3080  178.1210  139.8610 C   0  0  0  0  0  0  0  0  0  0  0  0
  189.1270  176.7970  138.9310 C   0  0  0  0  0  0  0  0  0  0  0  0
  186.9960  178.4450  142.3510 C   0  0  0  0  0  0  0  0  0  0  0  0
  187.4540  177.4200  144.9210 C   0  0  0  0  0  3  0  0  0  0  0  0
  188.5820  177.5440  139.9790 C   0  0  0  0  0  3  0  0  0  0  0  0
  184.3490  178.2180  141.2190 C   0  0  2  0  0  3  0  0  0  0  0  0
  189.7410  178.0650  144.7450 F   0  0  0  0  0  0  0  0  0  0  0  0
  185.2400  178.5700  138.4700 C   0  0  0  0  0  2  0  0  0  0  0  0
  190.3810  176.2210  139.0690 O   0  0  0  0  0  1  0  0  0  0  0  0
  184.6400  177.8480  142.5650 O   0  0  0  0  0  0  0  0  0  0  0  0
  185.2730  179.3550  140.7510 C   0  0  2  0  0  3  0  0  0  0  0  0
  188.2730  178.5140  142.9230 C   0  0  0  0  0  3  0  0  0  0  0  0
  188.4100  176.6350  137.7450 C   0  0  0  0  0  3  0  0  0  0  0  0
  185.9370  177.8710  143.0850 C   0  0  0  0  0  0  0  0  0  0  0  0
  186.1730  177.3590  144.3650 C   0  0  0  0  0  3  0  0  0  0  0  0
  185.0280  179.7220  139.3510 N   0  0  0  0  0  2  0  0  0  0  0  0
  186.6090  177.9850  138.6420 C   0  0  0  0  0  0  0  0  0  0  0  0
  187.1540  177.2260  137.6020 C   0  0  0  0  0  3  0  0  0  0  0  0
  182.4090  177.0140  139.5170 O   0  0  0  0  0  0  0  0  0  0  0  0
  182.0330  177.9740  140.2450 C   0  0  0  0  0  0  0  0  0  0  0  0
  182.9570  178.6270  141.1140 N   0  0  0  0  0  2  0  0  0  0  0  0
  179.5280  178.9580  142.8350 C   0  0  1  0  0  3  0  0  0  0  0  0
  180.4600  179.8410  140.8310 C   0  0  0  0  0  2  0  0  0  0  0  0
  179.8250  176.1680  140.3830 O   0  0  0  0  0  1  0  0  0  0  0  0
  179.5830  179.0010  144.3480 C   0  0  0  0  0  1  0  0  0  0  0  0
  180.6070  179.7770  142.2870 N   0  0  0  0  0  2  0  0  0  0  0  0
  179.6130  177.4700  140.8400 C   0  0  2  0  0  3  0  0  0  0  0  0
  180.6090  178.4520  140.2020 C   0  0  2  0  0  3  0  0  0  0  0  0
  179.6760  177.5140  142.3640 C   0  0  0  0  0  2  0  0  0  0  0  0
  1  9  1  0  0  0  0
  1  6  1  0  0  0  0
  2  3  1  6  0  0  0
  2  5  1  0  0  0  0
  3  7  1  0  0  0  0
  4 11  1  0  0  0  0
  4  7  2  0  0  0  0
  5 14  1  0  0  0  0
  5 16  2  0  0  0  0
  8 23  1  1  0  0  0
  8 12  1  0  0  0  0
 10 19  1  0  0  0  0
 10 18  1  0  0  0  0
 12 16  1  0  0  0  0
 13 18  1  6  0  0  0
 13  2  1  0  0  0  0
 13  8  1  0  0  0  0
 14  1  2  0  0  0  0
 15  4  1  0  0  0  0
 16 17  1  0  0  0  0
 17  6  2  0  0  0  0
 19  3  2  0  0  0  0
 20 15  2  0  0  0  0
 20 19  1  0  0  0  0
 21 22  2  0  0  0  0
 22 23  1  0  0  0  0
 24 27  1  1  0  0  0
 25 28  1  0  0  0  0
 28 24  1  0  0  0  0
 29 26  1  6  0  0  0
 29 31  1  0  0  0  0
 30 22  1  1  0  0  0
 30 25  1  0  0  0  0
 30 29  1  0  0  0  0
 31 24  1  0  0  0  0
M  END
>  <MODEL>
9

>  <REMARK>
 VINA RESULT:      -7.6      3.806      7.007
  Name = 
  2 active torsions:
  status: ('A' for Active; 'I' for Inactive)
    1  A    between atoms: C_5  and  C_30
    2  A    between atoms: C_10  and  N_16
                            x       y       z     vdW  Elec       q    Type
                         _______ _______ _______ _____ _____    ______ ____

>  <TORSDO>
F 2

$$$$
