=
 OpenBabel11122410403D

 32 37  0  0  1  0  0  0  0  0999 V2000
  190.5640  176.6220  140.2640 O   0  0  0  0  0  0  0  0  0  0  0  0
  185.8190  178.3240  141.1030 N   0  0  0  0  0  0  0  0  0  0  0  0
  184.6990  178.5230  145.8890 C   0  0  0  0  0  3  0  0  0  0  0  0
  183.4300  179.0030  145.5660 C   0  0  0  0  0  3  0  0  0  0  0  0
  184.0720  178.7460  139.3450 C   0  0  1  0  0  3  0  0  0  0  0  0
  182.5720  178.7320  139.0230 C   0  0  1  0  0  3  0  0  0  0  0  0
  188.1140  178.2570  140.2970 C   0  0  0  0  0  0  0  0  0  0  0  0
  187.5990  178.6740  142.7450 C   0  0  0  0  0  2  0  0  0  0  0  0
  180.7880  177.3910  139.6860 C   0  0  0  0  0  0  0  0  0  0  0  0
  189.1420  176.9700  142.0320 O   0  0  0  0  0  0  0  0  0  0  0  0
  185.5980  178.2000  144.8740 C   0  0  0  0  0  3  0  0  0  0  0  0
  186.2590  177.9930  142.4660 C   0  0  1  0  0  3  0  0  0  0  0  0
  185.2470  178.3570  143.5230 C   0  0  0  0  0  0  0  0  0  0  0  0
  183.5080  178.9640  141.7620 C   0  0  2  0  0  3  0  0  0  0  0  0
  180.9500  177.0540  138.2590 C   0  0  0  0  0  2  0  0  0  0  0  0
  190.4930  177.8260  139.5500 C   0  0  0  0  0  2  0  0  0  0  0  0
  188.6420  178.2410  141.7180 C   0  0  1  0  0  3  0  0  0  0  0  0
  182.2580  177.7530  137.8880 C   0  0  0  0  0  2  0  0  0  0  0  0
  189.0490  178.1120  139.1290 C   0  0  0  0  0  2  0  0  0  0  0  0
  190.4830  176.9840  141.6180 C   0  0  1  0  0  3  0  0  0  0  0  0
  183.0580  179.1390  144.2280 C   0  0  0  0  0  3  0  0  0  0  0  0
  183.9430  178.7860  143.1950 C   0  0  0  0  0  0  0  0  0  0  0  0
  182.0640  178.4900  141.5640 C   0  0  0  0  0  2  0  0  0  0  0  0
  186.8010  178.2750  140.0490 C   0  0  0  0  0  3  0  0  0  0  0  0
  184.5520  180.0490  139.1880 O   0  0  0  0  0  1  0  0  0  0  0  0
  179.9130  176.8740  140.4310 O   0  0  0  0  0  0  0  0  0  0  0  0
  184.3930  178.2200  140.7590 C   0  0  2  0  0  3  0  0  0  0  0  0
  181.7310  178.3360  140.1470 N   0  0  0  0  0  0  0  0  0  0  0  0
  191.2810  176.0050  142.4640 C   0  0  0  0  0  2  0  0  0  0  0  0
  191.5760  176.5900  143.8020 C   0  0  0  0  0  0  0  0  0  0  0  0
  191.6880  177.9650  143.9500 O   0  0  0  0  0  0  0  0  0  0  0  0
  191.6930  175.8390  144.8050 O   0  0  0  0  0  1  0  0  0  0  0  0
  1 20  1  0  0  0  0
  2 12  1  0  0  0  0
  4  3  1  0  0  0  0
  5 25  1  1  0  0  0
  5 27  1  0  0  0  0
  6 18  1  6  0  0  0
  6  5  1  0  0  0  0
  6 28  1  0  0  0  0
  7 17  1  0  0  0  0
  9 28  1  0  0  0  0
  9 26  2  0  0  0  0
 11  3  2  0  0  0  0
 12  8  1  1  0  0  0
 12 13  1  0  0  0  0
 13 11  1  0  0  0  0
 14 23  1  1  0  0  0
 14 22  1  0  0  0  0
 15  9  1  0  0  0  0
 16  1  1  0  0  0  0
 17 10  1  0  0  0  0
 17  8  1  1  0  0  0
 18 15  1  0  0  0  0
 19 16  1  0  0  0  0
 19  7  1  0  0  0  0
 20 10  1  0  0  0  0
 20 29  1  1  0  0  0
 21  4  2  0  0  0  0
 22 13  2  0  0  0  0
 22 21  1  0  0  0  0
 24  7  2  0  0  0  0
 24  2  1  0  0  0  0
 27  2  1  1  0  0  0
 27 14  1  0  0  0  0
 28 23  1  0  0  0  0
 29 30  1  0  0  0  0
 30 31  2  0  0  0  0
 30 32  1  0  0  0  0
M  END
>  <MODEL>
1

>  <REMARK>
 VINA RESULT:      -8.8      0.000      0.000
  Name = 
  2 active torsions:
  status: ('A' for Active; 'I' for Inactive)
    1  A    between atoms: C_20  and  C_29
    2  A    between atoms: C_29  and  C_30
                            x       y       z     vdW  Elec       q    Type
                         _______ _______ _______ _____ _____    ______ ____

>  <TORSDO>
F 2

$$$$
=
 OpenBabel11122410403D

 32 37  0  0  1  0  0  0  0  0999 V2000
  189.3240  176.8460  144.8130 O   0  0  0  0  0  0  0  0  0  0  0  0
  190.4400  176.9970  139.8270 N   0  0  0  0  0  0  0  0  0  0  0  0
  186.5690  178.2460  137.0590 C   0  0  0  0  0  3  0  0  0  0  0  0
  187.3610  178.1420  135.9160 C   0  0  0  0  0  3  0  0  0  0  0  0
  192.5950  176.2430  138.7760 C   0  0  1  0  0  3  0  0  0  0  0  0
  193.2470  175.6220  137.5340 C   0  0  1  0  0  3  0  0  0  0  0  0
  190.5540  177.4750  142.2100 C   0  0  0  0  0  0  0  0  0  0  0  0
  188.6850  178.4140  140.7760 C   0  0  0  0  0  2  0  0  0  0  0  0
  192.5730  174.0210  135.9830 C   0  0  0  0  0  0  0  0  0  0  0  0
  188.2540  177.2080  142.8140 O   0  0  0  0  0  0  0  0  0  0  0  0
  187.1140  177.9560  138.3100 C   0  0  0  0  0  3  0  0  0  0  0  0
  188.9940  177.2670  139.8150 C   0  0  1  0  0  3  0  0  0  0  0  0
  188.4570  177.5670  138.4380 C   0  0  0  0  0  0  0  0  0  0  0  0
  190.6860  176.9790  137.3520 C   0  0  2  0  0  3  0  0  0  0  0  0
  193.6600  173.3430  136.7150 C   0  0  0  0  0  2  0  0  0  0  0  0
  190.4510  177.6760  144.7310 C   0  0  0  0  0  2  0  0  0  0  0  0
  189.1610  178.0730  142.1860 C   0  0  1  0  0  3  0  0  0  0  0  0
  193.9400  174.2990  137.8750 C   0  0  0  0  0  2  0  0  0  0  0  0
  191.2950  177.3100  143.5070 C   0  0  0  0  0  2  0  0  0  0  0  0
  188.2910  177.5520  144.1740 C   0  0  1  0  0  3  0  0  0  0  0  0
  188.6900  177.7300  136.0250 C   0  0  0  0  0  3  0  0  0  0  0  0
  189.2420  177.4040  137.2760 C   0  0  0  0  0  0  0  0  0  0  0  0
  191.0330  176.0050  136.2210 C   0  0  0  0  0  2  0  0  0  0  0  0
  191.1070  176.9680  141.1050 C   0  0  0  0  0  3  0  0  0  0  0  0
  193.1310  177.5180  138.9730 O   0  0  0  0  0  1  0  0  0  0  0  0
  191.9280  173.4890  135.0400 O   0  0  0  0  0  0  0  0  0  0  0  0
  191.0570  176.3140  138.6810 C   0  0  2  0  0  3  0  0  0  0  0  0
  192.3060  175.3240  136.4600 N   0  0  0  0  0  0  0  0  0  0  0  0
  186.9570  177.2100  144.8160 C   0  0  0  0  0  2  0  0  0  0  0  0
  186.6590  178.1480  145.9340 C   0  0  0  0  0  0  0  0  0  0  0  0
  185.7560  179.1850  145.7500 O   0  0  0  0  0  0  0  0  0  0  0  0
  187.2010  177.9810  147.0580 O   0  0  0  0  0  1  0  0  0  0  0  0
  2 24  1  0  0  0  0
  3 11  1  0  0  0  0
  4 21  1  0  0  0  0
  4  3  2  0  0  0  0
  5 25  1  6  0  0  0
  6 18  1  1  0  0  0
  6  5  1  0  0  0  0
  7 19  1  0  0  0  0
  9 28  1  0  0  0  0
  9 15  1  0  0  0  0
 10 20  1  0  0  0  0
 11 13  2  0  0  0  0
 12  2  1  0  0  0  0
 12  8  1  1  0  0  0
 13 12  1  0  0  0  0
 14 23  1  6  0  0  0
 14 27  1  0  0  0  0
 15 18  1  0  0  0  0
 16  1  1  0  0  0  0
 17  8  1  6  0  0  0
 17  7  1  0  0  0  0
 17 10  1  0  0  0  0
 19 16  1  0  0  0  0
 20  1  1  0  0  0  0
 20 29  1  1  0  0  0
 21 22  2  0  0  0  0
 22 14  1  0  0  0  0
 22 13  1  0  0  0  0
 23 28  1  0  0  0  0
 24  7  2  0  0  0  0
 26  9  2  0  0  0  0
 27  5  1  0  0  0  0
 27  2  1  1  0  0  0
 28  6  1  0  0  0  0
 29 30  1  0  0  0  0
 30 32  1  0  0  0  0
 31 30  2  0  0  0  0
M  END
>  <MODEL>
2

>  <REMARK>
 VINA RESULT:      -8.8      3.977      8.037
  Name = 
  2 active torsions:
  status: ('A' for Active; 'I' for Inactive)
    1  A    between atoms: C_20  and  C_29
    2  A    between atoms: C_29  and  C_30
                            x       y       z     vdW  Elec       q    Type
                         _______ _______ _______ _____ _____    ______ ____

>  <TORSDO>
F 2

$$$$
=
 OpenBabel11122410403D

 32 37  0  0  1  0  0  0  0  0999 V2000
  189.7070  176.9460  136.9740 O   0  0  0  0  0  0  0  0  0  0  0  0
  185.8890  178.4910  140.0010 N   0  0  0  0  0  0  0  0  0  0  0  0
  186.8960  177.8810  144.7780 C   0  0  0  0  0  3  0  0  0  0  0  0
  185.6480  178.4110  145.1020 C   0  0  0  0  0  3  0  0  0  0  0  0
  183.6030  179.2060  139.2410 C   0  0  1  0  0  3  0  0  0  0  0  0
  182.1090  179.2490  139.5900 C   0  0  1  0  0  3  0  0  0  0  0  0
  187.6230  178.5570  138.2960 C   0  0  0  0  0  0  0  0  0  0  0  0
  188.2140  178.5560  140.7620 C   0  0  0  0  0  2  0  0  0  0  0  0
  180.6740  177.8180  140.7360 C   0  0  0  0  0  0  0  0  0  0  0  0
  189.1870  176.9940  139.2100 O   0  0  0  0  0  0  0  0  0  0  0  0
  187.2610  177.7320  143.4400 C   0  0  0  0  0  3  0  0  0  0  0  0
  186.8350  177.9330  140.9800 C   0  0  1  0  0  3  0  0  0  0  0  0
  186.3890  178.1160  142.4080 C   0  0  0  0  0  0  0  0  0  0  0  0
  184.1210  179.0140  141.6700 C   0  0  2  0  0  3  0  0  0  0  0  0
  180.1970  177.7260  139.3430 C   0  0  0  0  0  2  0  0  0  0  0  0
  189.4310  178.2540  136.5510 C   0  0  0  0  0  2  0  0  0  0  0  0
  188.6960  178.3010  139.3360 C   0  0  1  0  0  3  0  0  0  0  0  0
  181.2770  178.4760  138.5610 C   0  0  0  0  0  2  0  0  0  0  0  0
  187.9690  178.6090  136.8340 C   0  0  0  0  0  2  0  0  0  0  0  0
  190.2280  177.0750  138.2720 C   0  0  1  0  0  3  0  0  0  0  0  0
  184.7600  178.7710  144.0880 C   0  0  0  0  0  3  0  0  0  0  0  0
  185.1020  178.5960  142.7360 C   0  0  0  0  0  0  0  0  0  0  0  0
  182.6960  178.5830  142.0350 C   0  0  0  0  0  2  0  0  0  0  0  0
  186.3320  178.6180  138.6350 C   0  0  0  0  0  3  0  0  0  0  0  0
  184.0670  180.5160  139.0940 O   0  0  0  0  0  1  0  0  0  0  0  0
  180.1560  177.1850  141.6940 O   0  0  0  0  0  0  0  0  0  0  0  0
  184.4470  178.4490  140.2850 C   0  0  2  0  0  3  0  0  0  0  0  0
  181.7900  178.6700  140.8900 N   0  0  0  0  0  0  0  0  0  0  0  0
  191.2320  175.9660  138.5380 C   0  0  0  0  0  2  0  0  0  0  0  0
  192.5920  176.3720  138.0860 C   0  0  0  0  0  0  0  0  0  0  0  0
  193.5440  176.7680  139.0150 O   0  0  0  0  0  1  0  0  0  0  0  0
  192.8890  176.3250  136.8640 O   0  0  0  0  0  0  0  0  0  0  0  0
  1 20  1  0  0  0  0
  2 12  1  0  0  0  0
  3  4  1  0  0  0  0
  5 25  1  1  0  0  0
  5  6  1  0  0  0  0
  5 27  1  0  0  0  0
  6 18  1  6  0  0  0
  6 28  1  0  0  0  0
  7 24  2  0  0  0  0
  7 17  1  0  0  0  0
  9 28  1  0  0  0  0
  9 26  2  0  0  0  0
 10 17  1  0  0  0  0
 11  3  2  0  0  0  0
 12  8  1  1  0  0  0
 12 13  1  0  0  0  0
 13 22  2  0  0  0  0
 13 11  1  0  0  0  0
 14 23  1  1  0  0  0
 14 22  1  0  0  0  0
 15  9  1  0  0  0  0
 16 19  1  0  0  0  0
 16  1  1  0  0  0  0
 17  8  1  1  0  0  0
 18 15  1  0  0  0  0
 19  7  1  0  0  0  0
 20 29  1  1  0  0  0
 20 10  1  0  0  0  0
 21  4  2  0  0  0  0
 22 21  1  0  0  0  0
 24  2  1  0  0  0  0
 27  2  1  6  0  0  0
 27 14  1  0  0  0  0
 28 23  1  0  0  0  0
 30 29  1  0  0  0  0
 30 31  1  0  0  0  0
 32 30  2  0  0  0  0
M  END
>  <MODEL>
3

>  <REMARK>
 VINA RESULT:      -8.5      2.170      2.776
  Name = 
  2 active torsions:
  status: ('A' for Active; 'I' for Inactive)
    1  A    between atoms: C_20  and  C_29
    2  A    between atoms: C_29  and  C_30
                            x       y       z     vdW  Elec       q    Type
                         _______ _______ _______ _____ _____    ______ ____

>  <TORSDO>
F 2

$$$$
=
 OpenBabel11122410403D

 32 37  0  0  1  0  0  0  0  0999 V2000
  190.6450  176.3100  146.4440 O   0  0  0  0  0  0  0  0  0  0  0  0
  189.3530  177.2600  141.5910 N   0  0  0  0  0  0  0  0  0  0  0  0
  184.7700  178.9960  141.1590 C   0  0  0  0  0  3  0  0  0  0  0  0
  184.9350  179.0700  139.7760 C   0  0  0  0  0  3  0  0  0  0  0  0
  190.7070  176.6590  139.5610 C   0  0  1  0  0  3  0  0  0  0  0  0
  190.6580  176.2400  138.0860 C   0  0  1  0  0  3  0  0  0  0  0  0
  190.5910  177.3400  143.6840 C   0  0  0  0  0  0  0  0  0  0  0  0
  188.3630  178.5260  143.4360 C   0  0  0  0  0  2  0  0  0  0  0  0
  189.2070  174.9240  136.8260 C   0  0  0  0  0  0  0  0  0  0  0  0
  188.8130  177.0090  145.2500 O   0  0  0  0  0  0  0  0  0  0  0  0
  185.8010  178.4990  141.9560 C   0  0  0  0  0  3  0  0  0  0  0  0
  188.0930  177.5470  142.2940 C   0  0  1  0  0  3  0  0  0  0  0  0
  187.0130  178.0750  141.3850 C   0  0  0  0  0  0  0  0  0  0  0  0
  188.4310  177.6430  139.3130 C   0  0  2  0  0  3  0  0  0  0  0  0
  190.4450  174.1200  136.8620 C   0  0  0  0  0  2  0  0  0  0  0  0
  191.6770  177.1270  145.9600 C   0  0  0  0  0  2  0  0  0  0  0  0
  189.4020  177.9520  144.3970 C   0  0  1  0  0  3  0  0  0  0  0  0
  191.3100  174.8690  137.8770 C   0  0  0  0  0  2  0  0  0  0  0  0
  191.8280  176.9550  144.4470 C   0  0  0  0  0  2  0  0  0  0  0  0
  189.5010  177.1250  146.4680 C   0  0  1  0  0  3  0  0  0  0  0  0
  186.1230  178.6280  139.1930 C   0  0  0  0  0  3  0  0  0  0  0  0
  187.1570  178.0940  139.9810 C   0  0  0  0  0  0  0  0  0  0  0  0
  188.1320  176.8620  138.0290 C   0  0  0  0  0  2  0  0  0  0  0  0
  190.5270  177.0130  142.3900 C   0  0  0  0  0  3  0  0  0  0  0  0
  191.3850  177.8770  139.6590 O   0  0  0  0  0  1  0  0  0  0  0  0
  188.1570  174.5620  136.2310 O   0  0  0  0  0  0  0  0  0  0  0  0
  189.3110  176.7650  140.2070 C   0  0  2  0  0  3  0  0  0  0  0  0
  189.3060  176.1340  137.5470 N   0  0  0  0  0  0  0  0  0  0  0  0
  188.5870  176.7000  147.6050 C   0  0  0  0  0  2  0  0  0  0  0  0
  187.8780  177.8800  148.1740 C   0  0  0  0  0  0  0  0  0  0  0  0
  186.7190  178.3510  147.5720 O   0  0  0  0  0  0  0  0  0  0  0  0
  188.3100  178.4310  149.2200 O   0  0  0  0  0  1  0  0  0  0  0  0
  1 20  1  0  0  0  0
  2 12  1  0  0  0  0
  2 24  1  0  0  0  0
  3 11  1  0  0  0  0
  4  3  2  0  0  0  0
  5 25  1  6  0  0  0
  5 27  1  0  0  0  0
  6 18  1  1  0  0  0
  6  5  1  0  0  0  0
  7 17  1  0  0  0  0
  7 19  1  0  0  0  0
  9 15  1  0  0  0  0
  9 28  1  0  0  0  0
 10 20  1  0  0  0  0
 12  8  1  1  0  0  0
 13 11  2  0  0  0  0
 13 12  1  0  0  0  0
 14 23  1  6  0  0  0
 14 22  1  0  0  0  0
 14 27  1  0  0  0  0
 15 18  1  0  0  0  0
 16  1  1  0  0  0  0
 17  8  1  6  0  0  0
 17 10  1  0  0  0  0
 19 16  1  0  0  0  0
 20 29  1  1  0  0  0
 21  4  1  0  0  0  0
 21 22  2  0  0  0  0
 22 13  1  0  0  0  0
 24  7  2  0  0  0  0
 26  9  2  0  0  0  0
 27  2  1  1  0  0  0
 28 23  1  0  0  0  0
 28  6  1  0  0  0  0
 29 30  1  0  0  0  0
 30 32  1  0  0  0  0
 31 30  2  0  0  0  0
M  END
>  <MODEL>
4

>  <REMARK>
 VINA RESULT:      -8.0      3.490      6.159
  Name = 
  2 active torsions:
  status: ('A' for Active; 'I' for Inactive)
    1  A    between atoms: C_20  and  C_29
    2  A    between atoms: C_29  and  C_30
                            x       y       z     vdW  Elec       q    Type
                         _______ _______ _______ _____ _____    ______ ____

>  <TORSDO>
F 2

$$$$
=
 OpenBabel11122410403D

 32 37  0  0  1  0  0  0  0  0999 V2000
  188.7180  177.1300  144.2970 O   0  0  0  0  0  0  0  0  0  0  0  0
  184.6260  178.3770  141.4990 N   0  0  0  0  0  0  0  0  0  0  0  0
  180.6040  179.0890  144.2410 C   0  0  0  0  0  3  0  0  0  0  0  0
  179.8760  179.3740  143.0870 C   0  0  0  0  0  3  0  0  0  0  0  0
  184.4950  178.3550  138.9890 C   0  0  1  0  0  3  0  0  0  0  0  0
  183.5900  178.1270  137.7710 C   0  0  1  0  0  3  0  0  0  0  0  0
  186.8740  178.4640  142.4250 C   0  0  0  0  0  0  0  0  0  0  0  0
  184.8620  179.1460  143.8090 C   0  0  0  0  0  2  0  0  0  0  0  0
  181.8110  176.6920  137.3250 C   0  0  0  0  0  0  0  0  0  0  0  0
  186.4810  177.5490  144.6000 O   0  0  0  0  0  0  0  0  0  0  0  0
  181.9500  178.7370  144.1430 C   0  0  0  0  0  3  0  0  0  0  0  0
  184.0450  178.2850  142.8470 C   0  0  1  0  0  3  0  0  0  0  0  0
  182.5890  178.6700  142.8940 C   0  0  0  0  0  0  0  0  0  0  0  0
  182.4660  178.8310  140.3540 C   0  0  2  0  0  3  0  0  0  0  0  0
  182.8810  176.1860  136.4420 C   0  0  0  0  0  2  0  0  0  0  0  0
  189.1450  178.2110  143.5130 C   0  0  0  0  0  2  0  0  0  0  0  0
  186.3230  178.7010  143.8170 C   0  0  1  0  0  3  0  0  0  0  0  0
  184.1070  176.9740  136.9050 C   0  0  0  0  0  2  0  0  0  0  0  0
  188.3490  178.2700  142.2070 C   0  0  0  0  0  2  0  0  0  0  0  0
  187.7570  177.6600  145.1740 C   0  0  1  0  0  3  0  0  0  0  0  0
  180.4890  179.2850  141.8370 C   0  0  0  0  0  3  0  0  0  0  0  0
  181.8360  178.8990  141.7220 C   0  0  0  0  0  0  0  0  0  0  0  0
  181.5180  178.1730  139.3450 C   0  0  0  0  0  2  0  0  0  0  0  0
  186.0600  178.2980  141.3790 C   0  0  0  0  0  3  0  0  0  0  0  0
  184.9640  179.6710  138.9580 O   0  0  0  0  0  1  0  0  0  0  0  0
  180.6600  176.1840  137.3880 O   0  0  0  0  0  0  0  0  0  0  0  0
  183.7910  178.0650  140.3300 C   0  0  2  0  0  3  0  0  0  0  0  0
  182.2120  177.7920  138.1150 N   0  0  0  0  0  0  0  0  0  0  0  0
  187.7850  176.9020  146.4900 C   0  0  0  0  0  2  0  0  0  0  0  0
  188.9480  177.3290  147.3160 C   0  0  0  0  0  0  0  0  0  0  0  0
  188.8080  178.3640  148.2310 O   0  0  0  0  0  1  0  0  0  0  0  0
  190.0500  176.7320  147.2080 O   0  0  0  0  0  0  0  0  0  0  0  0
  1 20  1  0  0  0  0
  2 12  1  0  0  0  0
  4  3  2  0  0  0  0
  5 25  1  1  0  0  0
  5 27  1  0  0  0  0
  6 18  1  1  0  0  0
  6 28  1  0  0  0  0
  6  5  1  0  0  0  0
  7 17  1  0  0  0  0
  9 26  2  0  0  0  0
  9 28  1  0  0  0  0
 10 20  1  0  0  0  0
 11  3  1  0  0  0  0
 12 13  1  0  0  0  0
 12  8  1  1  0  0  0
 13 11  2  0  0  0  0
 14 23  1  6  0  0  0
 14 22  1  0  0  0  0
 15 18  1  0  0  0  0
 15  9  1  0  0  0  0
 16  1  1  0  0  0  0
 17  8  1  6  0  0  0
 17 10  1  0  0  0  0
 19  7  1  0  0  0  0
 19 16  1  0  0  0  0
 20 29  1  1  0  0  0
 21  4  1  0  0  0  0
 22 21  2  0  0  0  0
 22 13  1  0  0  0  0
 24  2  1  0  0  0  0
 24  7  2  0  0  0  0
 27 14  1  0  0  0  0
 27  2  1  1  0  0  0
 28 23  1  0  0  0  0
 29 30  1  0  0  0  0
 30 31  1  0  0  0  0
 32 30  2  0  0  0  0
M  END
>  <MODEL>
5

>  <REMARK>
 VINA RESULT:      -7.9      2.167      3.202
  Name = 
  2 active torsions:
  status: ('A' for Active; 'I' for Inactive)
    1  A    between atoms: C_20  and  C_29
    2  A    between atoms: C_29  and  C_30
                            x       y       z     vdW  Elec       q    Type
                         _______ _______ _______ _____ _____    ______ ____

>  <TORSDO>
F 2

$$$$
=
 OpenBabel11122410403D

 32 37  0  0  1  0  0  0  0  0999 V2000
  183.0810  178.2680  143.6300 O   0  0  0  0  0  0  0  0  0  0  0  0
  188.1730  177.8180  143.5820 N   0  0  0  0  0  0  0  0  0  0  0  0
  189.9740  177.1980  139.0460 C   0  0  0  0  0  3  0  0  0  0  0  0
  191.2630  177.1400  139.5730 C   0  0  0  0  0  3  0  0  0  0  0  0
  189.6530  177.6150  145.6020 C   0  0  1  0  0  3  0  0  0  0  0  0
  190.9460  177.0130  146.1680 C   0  0  1  0  0  3  0  0  0  0  0  0
  185.9640  178.7520  143.9970 C   0  0  0  0  0  0  0  0  0  0  0  0
  186.9650  178.7460  141.6660 C   0  0  0  0  0  2  0  0  0  0  0  0
  192.0900  175.0160  145.8140 C   0  0  0  0  0  0  0  0  0  0  0  0
  184.7660  177.8770  142.1210 O   0  0  0  0  0  0  0  0  0  0  0  0
  188.8810  177.3440  139.9000 C   0  0  0  0  0  3  0  0  0  0  0  0
  187.8430  177.5990  142.1650 C   0  0  1  0  0  3  0  0  0  0  0  0
  189.0600  177.4410  141.2890 C   0  0  0  0  0  0  0  0  0  0  0  0
  190.6110  177.4090  143.3110 C   0  0  2  0  0  3  0  0  0  0  0  0
  191.5920  174.8770  147.1970 C   0  0  0  0  0  2  0  0  0  0  0  0
  183.5390  179.3860  144.3420 C   0  0  0  0  0  2  0  0  0  0  0  0
  185.6950  178.8520  142.5080 C   0  0  1  0  0  3  0  0  0  0  0  0
  190.6530  176.0750  147.3430 C   0  0  0  0  0  2  0  0  0  0  0  0
  184.8910  179.0860  144.9940 C   0  0  0  0  0  2  0  0  0  0  0  0
  183.5060  178.4670  142.3060 C   0  0  1  0  0  3  0  0  0  0  0  0
  191.4550  177.2080  140.9530 C   0  0  0  0  0  3  0  0  0  0  0  0
  190.3600  177.3220  141.8270 C   0  0  0  0  0  0  0  0  0  0  0  0
  191.6810  176.4030  143.7480 C   0  0  0  0  0  2  0  0  0  0  0  0
  187.1130  178.2500  144.4590 C   0  0  0  0  0  3  0  0  0  0  0  0
  189.7390  179.0080  145.6730 O   0  0  0  0  0  1  0  0  0  0  0  0
  192.7720  174.1350  145.2270 O   0  0  0  0  0  0  0  0  0  0  0  0
  189.3580  177.1660  144.1570 C   0  0  2  0  0  3  0  0  0  0  0  0
  191.7040  176.2270  145.2000 N   0  0  0  0  0  0  0  0  0  0  0  0
  182.5110  177.8410  141.3440 C   0  0  0  0  0  2  0  0  0  0  0  0
  181.5380  178.8610  140.8620 C   0  0  0  0  0  0  0  0  0  0  0  0
  180.5920  179.3850  141.7320 O   0  0  0  0  0  1  0  0  0  0  0  0
  181.5940  179.2730  139.6740 O   0  0  0  0  0  0  0  0  0  0  0  0
  1 16  1  0  0  0  0
  2 24  1  0  0  0  0
  3  4  2  0  0  0  0
  3 11  1  0  0  0  0
  4 21  1  0  0  0  0
  5 25  1  6  0  0  0
  5  6  1  0  0  0  0
  6 18  1  1  0  0  0
  7 24  2  0  0  0  0
  7 19  1  0  0  0  0
  9 15  1  0  0  0  0
 10 20  1  0  0  0  0
 10 17  1  0  0  0  0
 11 13  2  0  0  0  0
 12  8  1  6  0  0  0
 12  2  1  0  0  0  0
 13 22  1  0  0  0  0
 13 12  1  0  0  0  0
 14 23  1  1  0  0  0
 14 27  1  0  0  0  0
 15 18  1  0  0  0  0
 16 19  1  0  0  0  0
 17  8  1  6  0  0  0
 17  7  1  0  0  0  0
 20 29  1  6  0  0  0
 20  1  1  0  0  0  0
 21 22  2  0  0  0  0
 22 14  1  0  0  0  0
 23 28  1  0  0  0  0
 26  9  2  0  0  0  0
 27  2  1  6  0  0  0
 27  5  1  0  0  0  0
 28  9  1  0  0  0  0
 28  6  1  0  0  0  0
 30 29  1  0  0  0  0
 30 31  1  0  0  0  0
 32 30  2  0  0  0  0
M  END
>  <MODEL>
6

>  <REMARK>
 VINA RESULT:      -7.8      2.556      8.801
  Name = 
  2 active torsions:
  status: ('A' for Active; 'I' for Inactive)
    1  A    between atoms: C_20  and  C_29
    2  A    between atoms: C_29  and  C_30
                            x       y       z     vdW  Elec       q    Type
                         _______ _______ _______ _____ _____    ______ ____

>  <TORSDO>
F 2

$$$$
=
 OpenBabel11122410403D

 32 37  0  0  1  0  0  0  0  0999 V2000
  191.0440  176.8350  145.1780 O   0  0  0  0  0  0  0  0  0  0  0  0
  187.9810  178.0560  141.2720 N   0  0  0  0  0  0  0  0  0  0  0  0
  183.3100  178.7180  142.6670 C   0  0  0  0  0  3  0  0  0  0  0  0
  182.9620  179.0000  141.3470 C   0  0  0  0  0  3  0  0  0  0  0  0
  188.6180  178.0440  138.8410 C   0  0  1  0  0  3  0  0  0  0  0  0
  188.1270  177.8130  137.4060 C   0  0  1  0  0  3  0  0  0  0  0  0
  189.8420  178.1600  142.8370 C   0  0  0  0  0  0  0  0  0  0  0  0
  187.4970  178.8170  143.5470 C   0  0  0  0  0  2  0  0  0  0  0  0
  186.5830  176.3630  136.4390 C   0  0  0  0  0  0  0  0  0  0  0  0
  188.8170  177.2320  144.7890 O   0  0  0  0  0  0  0  0  0  0  0  0
  184.6260  178.3790  142.9810 C   0  0  0  0  0  3  0  0  0  0  0  0
  187.0200  177.9520  142.3810 C   0  0  1  0  0  3  0  0  0  0  0  0
  185.6130  178.3240  141.9840 C   0  0  0  0  0  0  0  0  0  0  0  0
  186.2650  178.4950  139.5270 C   0  0  2  0  0  3  0  0  0  0  0  0
  187.8750  175.8710  135.9220 C   0  0  0  0  0  2  0  0  0  0  0  0
  191.6780  177.9240  144.5620 C   0  0  0  0  0  2  0  0  0  0  0  0
  188.8910  178.3850  143.9960 C   0  0  1  0  0  3  0  0  0  0  0  0
  188.8950  176.6690  136.7360 C   0  0  0  0  0  2  0  0  0  0  0  0
  191.3150  177.9820  143.0760 C   0  0  0  0  0  2  0  0  0  0  0  0
  189.8570  177.3520  145.7230 C   0  0  1  0  0  3  0  0  0  0  0  0
  183.9270  178.9230  140.3410 C   0  0  0  0  0  3  0  0  0  0  0  0
  185.2490  178.5510  140.6390 C   0  0  0  0  0  0  0  0  0  0  0  0
  185.6750  177.8320  138.2770 C   0  0  0  0  0  2  0  0  0  0  0  0
  189.3850  177.9910  141.5930 C   0  0  0  0  0  3  0  0  0  0  0  0
  189.0600  179.3650  138.9560 O   0  0  0  0  0  1  0  0  0  0  0  0
  185.4720  175.8440  136.1490 O   0  0  0  0  0  0  0  0  0  0  0  0
  187.5430  177.7410  139.9040 C   0  0  2  0  0  3  0  0  0  0  0  0
  186.7140  177.4630  137.3150 N   0  0  0  0  0  0  0  0  0  0  0  0
  189.4920  176.5880  146.9840 C   0  0  0  0  0  2  0  0  0  0  0  0
  188.6530  177.4310  147.8820 C   0  0  0  0  0  0  0  0  0  0  0  0
  189.2530  178.2290  148.8470 O   0  0  0  0  0  1  0  0  0  0  0  0
  187.4030  177.4460  147.7440 O   0  0  0  0  0  0  0  0  0  0  0  0
  1 20  1  0  0  0  0
  2 24  1  0  0  0  0
  2 12  1  0  0  0  0
  3 11  1  0  0  0  0
  4  3  2  0  0  0  0
  5 25  1  6  0  0  0
  5 27  1  0  0  0  0
  6 18  1  1  0  0  0
  6  5  1  0  0  0  0
  7 19  1  0  0  0  0
  7 17  1  0  0  0  0
  9 28  1  0  0  0  0
 10 20  1  0  0  0  0
 12  8  1  1  0  0  0
 13 12  1  0  0  0  0
 13 11  2  0  0  0  0
 14 23  1  6  0  0  0
 14 27  1  0  0  0  0
 14 22  1  0  0  0  0
 15  9  1  0  0  0  0
 15 18  1  0  0  0  0
 16  1  1  0  0  0  0
 17  8  1  6  0  0  0
 17 10  1  0  0  0  0
 19 16  1  0  0  0  0
 20 29  1  1  0  0  0
 21 22  2  0  0  0  0
 21  4  1  0  0  0  0
 22 13  1  0  0  0  0
 24  7  2  0  0  0  0
 26  9  2  0  0  0  0
 27  2  1  1  0  0  0
 28  6  1  0  0  0  0
 28 23  1  0  0  0  0
 29 30  1  0  0  0  0
 30 31  1  0  0  0  0
 32 30  2  0  0  0  0
M  END
>  <MODEL>
7

>  <REMARK>
 VINA RESULT:      -7.7      2.714      4.517
  Name = 
  2 active torsions:
  status: ('A' for Active; 'I' for Inactive)
    1  A    between atoms: C_20  and  C_29
    2  A    between atoms: C_29  and  C_30
                            x       y       z     vdW  Elec       q    Type
                         _______ _______ _______ _____ _____    ______ ____

>  <TORSDO>
F 2

$$$$
=
 OpenBabel11122410403D

 32 37  0  0  1  0  0  0  0  0999 V2000
  191.8930  174.0200  135.7210 O   0  0  0  0  0  0  0  0  0  0  0  0
  189.2760  177.1970  138.7510 N   0  0  0  0  0  0  0  0  0  0  0  0
  191.2480  177.5820  143.2420 C   0  0  0  0  0  3  0  0  0  0  0  0
  190.2400  178.4760  143.6010 C   0  0  0  0  0  3  0  0  0  0  0  0
  187.0580  178.2520  138.2160 C   0  0  1  0  0  3  0  0  0  0  0  0
  185.7280  178.7590  138.7870 C   0  0  1  0  0  3  0  0  0  0  0  0
  190.5350  176.3860  136.8330 C   0  0  0  0  0  0  0  0  0  0  0  0
  191.6810  176.8610  139.0450 C   0  0  0  0  0  2  0  0  0  0  0  0
  184.3560  178.0780  140.5400 C   0  0  0  0  0  0  0  0  0  0  0  0
  191.9370  174.7630  137.8920 O   0  0  0  0  0  0  0  0  0  0  0  0
  191.2490  177.0120  141.9690 C   0  0  0  0  0  3  0  0  0  0  0  0
  190.3000  176.6850  139.6740 C   0  0  1  0  0  3  0  0  0  0  0  0
  190.2490  177.3300  141.0360 C   0  0  0  0  0  0  0  0  0  0  0  0
  188.0900  178.5570  140.4630 C   0  0  2  0  0  3  0  0  0  0  0  0
  183.5530  177.7600  139.3430 C   0  0  0  0  0  2  0  0  0  0  0  0
  191.7840  175.2030  134.9770 C   0  0  0  0  0  2  0  0  0  0  0  0
  191.7530  176.1390  137.7010 C   0  0  1  0  0  3  0  0  0  0  0  0
  184.5420  177.9880  138.1980 C   0  0  0  0  0  2  0  0  0  0  0  0
  190.5280  175.9770  135.3870 C   0  0  0  0  0  2  0  0  0  0  0  0
  192.7210  174.3370  136.8100 C   0  0  1  0  0  3  0  0  0  0  0  0
  189.2240  178.7800  142.6940 C   0  0  0  0  0  3  0  0  0  0  0  0
  189.1950  178.1880  141.4190 C   0  0  0  0  0  0  0  0  0  0  0  0
  186.7370  178.6080  141.1800 C   0  0  0  0  0  2  0  0  0  0  0  0
  189.3990  176.8570  137.3550 C   0  0  0  0  0  3  0  0  0  0  0  0
  187.7200  179.3200  137.6030 O   0  0  0  0  0  1  0  0  0  0  0  0
  183.9660  177.8600  141.7180 O   0  0  0  0  0  0  0  0  0  0  0  0
  187.9620  177.5950  139.2780 C   0  0  2  0  0  3  0  0  0  0  0  0
  185.6200  178.6290  140.2360 N   0  0  0  0  0  0  0  0  0  0  0  0
  193.5250  173.1140  137.2210 C   0  0  0  0  0  2  0  0  0  0  0  0
  194.7490  173.5200  137.9660 C   0  0  0  0  0  0  0  0  0  0  0  0
  195.4460  172.5850  138.7190 O   0  0  0  0  0  1  0  0  0  0  0  0
  195.1720  174.7020  137.8860 O   0  0  0  0  0  0  0  0  0  0  0  0
  1 20  1  0  0  0  0
  2 12  1  0  0  0  0
  3  4  1  0  0  0  0
  5 25  1  1  0  0  0
  5  6  1  0  0  0  0
  5 27  1  0  0  0  0
  6 18  1  6  0  0  0
  6 28  1  0  0  0  0
  7 24  2  0  0  0  0
  7 17  1  0  0  0  0
  9 26  2  0  0  0  0
 11  3  2  0  0  0  0
 12  8  1  6  0  0  0
 12 13  1  0  0  0  0
 13 22  2  0  0  0  0
 13 11  1  0  0  0  0
 14 23  1  1  0  0  0
 14 22  1  0  0  0  0
 15  9  1  0  0  0  0
 16 19  1  0  0  0  0
 16  1  1  0  0  0  0
 17 10  1  0  0  0  0
 17  8  1  1  0  0  0
 18 15  1  0  0  0  0
 19  7  1  0  0  0  0
 20 29  1  1  0  0  0
 20 10  1  0  0  0  0
 21  4  2  0  0  0  0
 22 21  1  0  0  0  0
 24  2  1  0  0  0  0
 27  2  1  6  0  0  0
 27 14  1  0  0  0  0
 28  9  1  0  0  0  0
 28 23  1  0  0  0  0
 29 30  1  0  0  0  0
 30 31  1  0  0  0  0
 32 30  2  0  0  0  0
M  END
>  <MODEL>
8

>  <REMARK>
 VINA RESULT:      -7.3      3.338      5.359
  Name = 
  2 active torsions:
  status: ('A' for Active; 'I' for Inactive)
    1  A    between atoms: C_20  and  C_29
    2  A    between atoms: C_29  and  C_30
                            x       y       z     vdW  Elec       q    Type
                         _______ _______ _______ _____ _____    ______ ____

>  <TORSDO>
F 2

$$$$
=
 OpenBabel11122410403D

 32 37  0  0  1  0  0  0  0  0999 V2000
  189.1320  175.6960  136.8140 O   0  0  0  0  0  0  0  0  0  0  0  0
  188.2720  177.7170  141.4290 N   0  0  0  0  0  0  0  0  0  0  0  0
  191.6080  176.3130  144.7610 C   0  0  0  0  0  3  0  0  0  0  0  0
  190.9560  177.0790  145.7270 C   0  0  0  0  0  3  0  0  0  0  0  0
  186.2430  179.0380  142.1050 C   0  0  1  0  0  3  0  0  0  0  0  0
  185.2860  179.3890  143.2520 C   0  0  1  0  0  3  0  0  0  0  0  0
  188.6760  177.5790  139.0340 C   0  0  0  0  0  0  0  0  0  0  0  0
  190.5360  177.1400  140.7010 C   0  0  0  0  0  2  0  0  0  0  0  0
  184.4410  178.2080  145.0720 C   0  0  0  0  0  0  0  0  0  0  0  0
  190.0060  175.5930  138.9340 O   0  0  0  0  0  0  0  0  0  0  0  0
  191.0950  176.2460  143.4660 C   0  0  0  0  0  3  0  0  0  0  0  0
  189.4200  176.8390  141.7010 C   0  0  1  0  0  3  0  0  0  0  0  0
  189.9290  176.9470  143.1150 C   0  0  0  0  0  0  0  0  0  0  0  0
  187.9760  178.4360  143.7910 C   0  0  2  0  0  3  0  0  0  0  0  0
  183.2540  178.4010  144.2160 C   0  0  0  0  0  2  0  0  0  0  0  0
  189.0190  177.0730  136.5780 C   0  0  0  0  0  2  0  0  0  0  0  0
  190.0370  176.9540  139.2700 C   0  0  1  0  0  3  0  0  0  0  0  0
  183.8510  178.9640  142.9250 C   0  0  0  0  0  2  0  0  0  0  0  0
  188.1310  177.7250  137.6400 C   0  0  0  0  0  2  0  0  0  0  0  0
  190.3090  175.5400  137.5650 C   0  0  1  0  0  3  0  0  0  0  0  0
  189.7820  177.7580  145.4010 C   0  0  0  0  0  3  0  0  0  0  0  0
  189.2360  177.6730  144.1080 C   0  0  0  0  0  0  0  0  0  0  0  0
  186.9570  178.3120  144.9300 C   0  0  0  0  0  2  0  0  0  0  0  0
  187.8770  177.9010  140.0550 C   0  0  0  0  0  3  0  0  0  0  0  0
  186.8650  180.2090  141.6660 O   0  0  0  0  0  1  0  0  0  0  0  0
  184.4140  177.6030  146.1760 O   0  0  0  0  0  0  0  0  0  0  0  0
  187.2960  177.9820  142.4970 C   0  0  2  0  0  3  0  0  0  0  0  0
  185.6230  178.7480  144.5180 N   0  0  0  0  0  0  0  0  0  0  0  0
  190.9530  174.2020  137.2440 C   0  0  0  0  0  2  0  0  0  0  0  0
  192.4370  174.3310  137.2080 C   0  0  0  0  0  0  0  0  0  0  0  0
  193.0370  175.5430  137.5230 O   0  0  0  0  0  1  0  0  0  0  0  0
  193.1490  173.3340  136.9230 O   0  0  0  0  0  0  0  0  0  0  0  0
  1 20  1  0  0  0  0
  2 12  1  0  0  0  0
  3  4  1  0  0  0  0
  5 25  1  1  0  0  0
  5 27  1  0  0  0  0
  5  6  1  0  0  0  0
  6 18  1  6  0  0  0
  6 28  1  0  0  0  0
  7 17  1  0  0  0  0
  7 24  2  0  0  0  0
  9 26  2  0  0  0  0
 10 17  1  0  0  0  0
 11  3  2  0  0  0  0
 12  8  1  6  0  0  0
 12 13  1  0  0  0  0
 13 11  1  0  0  0  0
 13 22  2  0  0  0  0
 14 22  1  0  0  0  0
 14 23  1  1  0  0  0
 15  9  1  0  0  0  0
 16  1  1  0  0  0  0
 16 19  1  0  0  0  0
 17  8  1  1  0  0  0
 18 15  1  0  0  0  0
 19  7  1  0  0  0  0
 20 29  1  1  0  0  0
 20 10  1  0  0  0  0
 21  4  2  0  0  0  0
 22 21  1  0  0  0  0
 24  2  1  0  0  0  0
 27  2  1  6  0  0  0
 27 14  1  0  0  0  0
 28 23  1  0  0  0  0
 28  9  1  0  0  0  0
 30 29  1  0  0  0  0
 30 31  1  0  0  0  0
 32 30  2  0  0  0  0
M  END
>  <MODEL>
9

>  <REMARK>
 VINA RESULT:      -7.0      3.237      5.255
  Name = 
  2 active torsions:
  status: ('A' for Active; 'I' for Inactive)
    1  A    between atoms: C_20  and  C_29
    2  A    between atoms: C_29  and  C_30
                            x       y       z     vdW  Elec       q    Type
                         _______ _______ _______ _____ _____    ______ ____

>  <TORSDO>
F 2

$$$$
