=
 OpenBabel11122410403D

 32 37  0  0  1  0  0  0  0  0999 V2000
  187.8340  176.5650  143.5400 C   0  0  0  0  0  2  0  0  0  0  0  0
  190.9730  177.3810  139.1330 C   0  0  1  0  0  3  0  0  0  0  0  0
  187.5710  175.1850  137.7290 C   0  0  0  0  0  3  0  0  0  0  0  0
  187.6120  175.1210  136.2290 C   0  0  0  0  0  2  0  0  0  0  0  0
  193.1190  176.0960  138.6950 C   0  0  1  0  0  3  0  0  0  0  0  0
  194.0220  175.4450  137.6430 C   0  0  1  0  0  3  0  0  0  0  0  0
  190.0610  177.1710  141.1770 C   0  0  1  0  0  3  0  0  0  0  0  0
  188.8920  178.7190  139.5920 C   0  0  0  0  0  2  0  0  0  0  0  0
  193.5920  173.3800  136.7750 C   0  0  0  0  0  0  0  0  0  0  0  0
  188.0320  178.5070  141.9360 C   0  0  0  0  0  2  0  0  0  0  0  0
  188.2000  176.1260  138.3430 N   0  0  0  0  0  0  0  0  0  0  0  0
  189.7500  178.0640  138.5010 C   0  0  2  0  0  3  0  0  0  0  0  0
  188.9460  177.1190  137.5930 C   0  0  1  0  0  3  0  0  0  0  0  0
  191.0670  175.7560  137.1780 C   0  0  1  0  0  3  0  0  0  0  0  0
  194.6650  173.2600  137.6810 N   0  0  0  0  0  0  0  0  0  0  0  0
  188.7260  175.6280  142.7340 C   0  0  0  0  0  2  0  0  0  0  0  0
  188.7000  177.7780  140.7820 C   0  0  2  0  0  3  0  0  0  0  0  0
  194.9610  174.5000  138.2740 N   0  0  0  0  0  0  0  0  0  0  0  0
  190.0570  176.3100  142.4460 C   0  0  0  0  0  2  0  0  0  0  0  0
  187.0830  177.5560  142.6520 C   0  0  2  0  0  3  0  0  0  0  0  0
  189.0350  175.3890  135.7150 C   0  0  0  0  0  2  0  0  0  0  0  0
  189.8380  176.4290  136.5360 C   0  0  1  0  0  3  0  0  0  0  0  0
  191.9590  175.1510  136.0880 C   0  0  0  0  0  2  0  0  0  0  0  0
  190.5780  176.4330  140.0980 O   0  0  0  0  0  0  0  0  0  0  0  0
  193.9300  177.1280  139.4650 C   0  0  0  0  0  1  0  0  0  0  0  0
  192.9460  172.2240  136.0940 C   0  0  0  0  0  1  0  0  0  0  0  0
  191.8680  176.7530  138.0570 C   0  0  1  0  0  3  0  0  0  0  0  0
  193.1960  174.6240  136.7230 C   0  0  0  0  0  0  0  0  0  0  0  0
  186.1530  178.3300  143.4590 N   0  0  0  0  0  2  0  0  0  0  0  0
  184.7660  178.4440  143.1410 C   0  0  0  0  0  0  0  0  0  0  0  0
  184.2930  177.8870  142.1140 O   0  0  0  0  0  0  0  0  0  0  0  0
  183.8710  179.2330  144.0270 C   0  0  0  0  0  1  0  0  0  0  0  0
  2 24  1  1  0  0  0
  3 11  2  0  0  0  0
  4  3  1  0  0  0  0
  5 25  1  6  0  0  0
  6 28  1  6  0  0  0
  6 18  1  0  0  0  0
  6  5  1  0  0  0  0
  7 19  1  1  0  0  0
  9 15  1  0  0  0  0
 10 20  1  0  0  0  0
 12  2  1  0  0  0  0
 12  8  1  1  0  0  0
 13 11  1  1  0  0  0
 13 12  1  0  0  0  0
 14 23  1  6  0  0  0
 14 27  1  0  0  0  0
 15 18  2  0  0  0  0
 16  1  1  0  0  0  0
 17  8  1  6  0  0  0
 17  7  1  0  0  0  0
 17 10  1  0  0  0  0
 19 16  1  0  0  0  0
 20 29  1  1  0  0  0
 20  1  1  0  0  0  0
 21  4  1  0  0  0  0
 22 21  1  1  0  0  0
 22 14  1  0  0  0  0
 22 13  1  0  0  0  0
 23 28  1  0  0  0  0
 24  7  1  0  0  0  0
 26  9  1  0  0  0  0
 27  5  1  0  0  0  0
 27  2  1  0  0  0  0
 28  9  2  0  0  0  0
 30 29  1  0  0  0  0
 30 32  1  0  0  0  0
 31 30  2  0  0  0  0
M  END
>  <MODEL>
1

>  <REMARK>
 VINA RESULT:      -7.0      0.000      0.000
  Name = 
  1 active torsions:
  status: ('A' for Active; 'I' for Inactive)
    1  A    between atoms: C_20  and  N_29
                            x       y       z     vdW  Elec       q    Type
                         _______ _______ _______ _____ _____    ______ ____

>  <TORSDO>
F 1

$$$$
=
 OpenBabel11122410403D

 32 37  0  0  1  0  0  0  0  0999 V2000
  188.3810  177.8290  140.2490 C   0  0  0  0  0  2  0  0  0  0  0  0
  191.2390  175.9980  135.9560 C   0  0  1  0  0  3  0  0  0  0  0  0
  188.3880  172.9210  136.8350 C   0  0  0  0  0  3  0  0  0  0  0  0
  188.4310  171.8850  135.7490 C   0  0  0  0  0  2  0  0  0  0  0  0
  193.6100  175.1090  136.1400 C   0  0  1  0  0  3  0  0  0  0  0  0
  194.6260  174.0780  135.6400 C   0  0  1  0  0  3  0  0  0  0  0  0
  190.4070  177.0560  137.7570 C   0  0  1  0  0  3  0  0  0  0  0  0
  188.9200  176.9510  135.7450 C   0  0  0  0  0  2  0  0  0  0  0  0
  194.6500  171.9240  136.3910 C   0  0  0  0  0  0  0  0  0  0  0  0
  188.1420  178.2150  137.7630 C   0  0  0  0  0  2  0  0  0  0  0  0
  188.8010  174.1170  136.5910 N   0  0  0  0  0  0  0  0  0  0  0  0
  189.8920  175.8840  135.2240 C   0  0  2  0  0  3  0  0  0  0  0  0
  189.3070  174.4630  135.2770 C   0  0  1  0  0  3  0  0  0  0  0  0
  191.6720  173.5280  135.5310 C   0  0  1  0  0  3  0  0  0  0  0  0
  195.7300  172.6080  136.9860 N   0  0  0  0  0  0  0  0  0  0  0  0
  189.4500  176.7510  140.1190 C   0  0  0  0  0  2  0  0  0  0  0  0
  188.9440  177.0230  137.2720 C   0  0  2  0  0  3  0  0  0  0  0  0
  195.7530  173.9550  136.5830 N   0  0  0  0  0  0  0  0  0  0  0  0
  190.5990  177.2690  139.2640 C   0  0  0  0  0  2  0  0  0  0  0  0
  187.4260  177.8450  139.0550 C   0  0  2  0  0  3  0  0  0  0  0  0
  189.7590  171.9660  134.9790 C   0  0  0  0  0  2  0  0  0  0  0  0
  190.3220  173.3980  134.8000 C   0  0  1  0  0  3  0  0  0  0  0  0
  192.6670  172.5030  134.9750 C   0  0  0  0  0  2  0  0  0  0  0  0
  191.0660  175.8830  137.3500 O   0  0  0  0  0  0  0  0  0  0  0  0
  194.1820  176.5020  135.9270 C   0  0  0  0  0  1  0  0  0  0  0  0
  194.2670  170.5250  136.7250 C   0  0  0  0  0  1  0  0  0  0  0  0
  192.2420  174.9670  135.4250 C   0  0  1  0  0  3  0  0  0  0  0  0
  193.9930  172.7360  135.6060 C   0  0  0  0  0  0  0  0  0  0  0  0
  186.3560  178.7990  139.2970 N   0  0  0  0  0  2  0  0  0  0  0  0
  185.0150  178.5820  138.8540 C   0  0  0  0  0  0  0  0  0  0  0  0
  184.7120  177.5460  138.2040 O   0  0  0  0  0  0  0  0  0  0  0  0
  183.9690  179.5910  139.1600 C   0  0  0  0  0  1  0  0  0  0  0  0
  2 24  1  1  0  0  0
  4  3  1  0  0  0  0
  5 25  1  6  0  0  0
  6 28  1  1  0  0  0
  6  5  1  0  0  0  0
  6 18  1  0  0  0  0
  7 19  1  1  0  0  0
  9 26  1  0  0  0  0
  9 15  1  0  0  0  0
 10 20  1  0  0  0  0
 11  3  2  0  0  0  0
 12 13  1  0  0  0  0
 12  8  1  1  0  0  0
 12  2  1  0  0  0  0
 13 11  1  1  0  0  0
 14 23  1  6  0  0  0
 16  1  1  0  0  0  0
 17  8  1  6  0  0  0
 17  7  1  0  0  0  0
 17 10  1  0  0  0  0
 18 15  2  0  0  0  0
 19 16  1  0  0  0  0
 20 29  1  1  0  0  0
 20  1  1  0  0  0  0
 21  4  1  0  0  0  0
 22 21  1  1  0  0  0
 22 13  1  0  0  0  0
 22 14  1  0  0  0  0
 23 28  1  0  0  0  0
 24  7  1  0  0  0  0
 27 14  1  0  0  0  0
 27  2  1  0  0  0  0
 27  5  1  0  0  0  0
 28  9  2  0  0  0  0
 30 32  1  0  0  0  0
 30 29  1  0  0  0  0
 31 30  2  0  0  0  0
M  END
>  <MODEL>
2

>  <REMARK>
 VINA RESULT:      -6.1      2.389      3.326
  Name = 
  1 active torsions:
  status: ('A' for Active; 'I' for Inactive)
    1  A    between atoms: C_20  and  N_29
                            x       y       z     vdW  Elec       q    Type
                         _______ _______ _______ _____ _____    ______ ____

>  <TORSDO>
F 1

$$$$
=
 OpenBabel11122410403D

 32 37  0  0  1  0  0  0  0  0999 V2000
  183.3410  178.7060  142.6900 C   0  0  0  0  0  2  0  0  0  0  0  0
  185.4480  178.1940  137.6660 C   0  0  1  0  0  3  0  0  0  0  0  0
  183.2980  174.5570  138.3860 C   0  0  0  0  0  3  0  0  0  0  0  0
  183.2520  173.7530  137.1180 C   0  0  0  0  0  2  0  0  0  0  0  0
  187.9030  177.7190  137.2280 C   0  0  1  0  0  3  0  0  0  0  0  0
  188.9220  176.9880  136.3490 C   0  0  1  0  0  3  0  0  0  0  0  0
  184.8790  178.7540  139.7680 C   0  0  1  0  0  3  0  0  0  0  0  0
  183.0280  178.7450  138.0810 C   0  0  0  0  0  2  0  0  0  0  0  0
  189.4010  174.7740  136.6180 C   0  0  0  0  0  0  0  0  0  0  0  0
  182.5290  179.4760  140.4250 C   0  0  0  0  0  2  0  0  0  0  0  0
  183.4820  175.8300  138.3250 N   0  0  0  0  0  0  0  0  0  0  0  0
  184.0050  177.9750  137.1820 C   0  0  2  0  0  3  0  0  0  0  0  0
  183.6450  176.4870  137.0430 C   0  0  1  0  0  3  0  0  0  0  0  0
  186.1160  175.9530  136.6650 C   0  0  1  0  0  3  0  0  0  0  0  0
  190.4770  175.5220  137.1370 N   0  0  0  0  0  0  0  0  0  0  0  0
  184.4960  177.8730  142.1480 C   0  0  0  0  0  2  0  0  0  0  0  0
  183.3650  178.5500  139.5600 C   0  0  2  0  0  3  0  0  0  0  0  0
  190.2280  176.9010  137.0260 N   0  0  0  0  0  0  0  0  0  0  0  0
  185.3550  178.7280  141.2250 C   0  0  0  0  0  2  0  0  0  0  0  0
  182.1620  178.7630  141.7190 C   0  0  2  0  0  3  0  0  0  0  0  0
  184.3620  174.2010  136.1540 C   0  0  0  0  0  2  0  0  0  0  0  0
  184.6720  175.7190  136.1790 C   0  0  1  0  0  3  0  0  0  0  0  0
  187.1020  175.2350  135.7360 C   0  0  0  0  0  2  0  0  0  0  0  0
  185.5910  177.8060  139.0130 O   0  0  0  0  0  0  0  0  0  0  0  0
  188.2200  179.2070  137.2100 C   0  0  0  0  0  1  0  0  0  0  0  0
  189.2930  173.2920  136.7170 C   0  0  0  0  0  1  0  0  0  0  0  0
  186.4470  177.4670  136.7590 C   0  0  1  0  0  3  0  0  0  0  0  0
  188.4860  175.5830  136.1520 C   0  0  0  0  0  0  0  0  0  0  0  0
  181.0460  179.4560  142.3440 N   0  0  0  0  0  2  0  0  0  0  0  0
  180.0270  178.7730  143.0760 C   0  0  0  0  0  0  0  0  0  0  0  0
  180.0460  177.5180  143.1880 O   0  0  0  0  0  0  0  0  0  0  0  0
  178.9310  179.5510  143.7080 C   0  0  0  0  0  1  0  0  0  0  0  0
  2 24  1  1  0  0  0
  4  3  1  0  0  0  0
  5 25  1  6  0  0  0
  6 28  1  1  0  0  0
  6 18  1  0  0  0  0
  6  5  1  0  0  0  0
  7 19  1  1  0  0  0
  9 26  1  0  0  0  0
  9 15  1  0  0  0  0
 10 20  1  0  0  0  0
 11  3  2  0  0  0  0
 12  2  1  0  0  0  0
 12  8  1  1  0  0  0
 13 12  1  0  0  0  0
 13 11  1  1  0  0  0
 14 23  1  6  0  0  0
 14 27  1  0  0  0  0
 16  1  1  0  0  0  0
 17  8  1  6  0  0  0
 17  7  1  0  0  0  0
 17 10  1  0  0  0  0
 18 15  2  0  0  0  0
 19 16  1  0  0  0  0
 20 29  1  1  0  0  0
 20  1  1  0  0  0  0
 21  4  1  0  0  0  0
 22 21  1  1  0  0  0
 22 14  1  0  0  0  0
 22 13  1  0  0  0  0
 23 28  1  0  0  0  0
 24  7  1  0  0  0  0
 27  5  1  0  0  0  0
 27  2  1  0  0  0  0
 28  9  2  0  0  0  0
 29 30  1  0  0  0  0
 30 31  2  0  0  0  0
 30 32  1  0  0  0  0
M  END
>  <MODEL>
3

>  <REMARK>
 VINA RESULT:      -5.7      3.606      5.200
  Name = 
  1 active torsions:
  status: ('A' for Active; 'I' for Inactive)
    1  A    between atoms: C_20  and  N_29
                            x       y       z     vdW  Elec       q    Type
                         _______ _______ _______ _____ _____    ______ ____

>  <TORSDO>
F 1

$$$$
=
 OpenBabel11122410403D

 32 37  0  0  1  0  0  0  0  0999 V2000
  191.4490  173.3430  136.3600 C   0  0  0  0  0  2  0  0  0  0  0  0
  187.7110  177.3390  136.3570 C   0  0  1  0  0  3  0  0  0  0  0  0
  188.9290  176.9090  140.4430 C   0  0  0  0  0  3  0  0  0  0  0  0
  188.3270  178.0200  141.2560 C   0  0  0  0  0  2  0  0  0  0  0  0
  185.2200  176.9140  136.1080 C   0  0  1  0  0  3  0  0  0  0  0  0
  183.8080  177.3310  136.5320 C   0  0  1  0  0  3  0  0  0  0  0  0
  189.0840  175.6100  135.9360 C   0  0  1  0  0  3  0  0  0  0  0  0
  190.1820  177.7830  136.5220 C   0  0  0  0  0  2  0  0  0  0  0  0
  182.8790  176.6600  138.5050 C   0  0  0  0  0  0  0  0  0  0  0  0
  191.6200  175.8240  135.9130 C   0  0  0  0  0  2  0  0  0  0  0  0
  189.0810  177.0600  139.1730 N   0  0  0  0  0  0  0  0  0  0  0  0
  188.7910  178.2260  136.9960 C   0  0  2  0  0  3  0  0  0  0  0  0
  188.6730  178.2930  138.5280 C   0  0  1  0  0  3  0  0  0  0  0  0
  186.1740  177.8010  138.3300 C   0  0  1  0  0  3  0  0  0  0  0  0
  182.2820  175.9200  137.4650 N   0  0  0  0  0  0  0  0  0  0  0  0
  190.0020  173.3870  136.8340 C   0  0  0  0  0  2  0  0  0  0  0  0
  190.3260  176.2610  136.5760 C   0  0  2  0  0  3  0  0  0  0  0  0
  182.8350  176.2690  136.2200 N   0  0  0  0  0  0  0  0  0  0  0  0
  189.1410  174.0840  135.7880 C   0  0  0  0  0  2  0  0  0  0  0  0
  192.2000  174.6370  136.6710 C   0  0  2  0  0  3  0  0  0  0  0  0
  187.1180  178.6270  140.5270 C   0  0  0  0  0  2  0  0  0  0  0  0
  187.2500  178.6870  138.9850 C   0  0  1  0  0  3  0  0  0  0  0  0
  184.7780  178.2750  138.7530 C   0  0  0  0  0  2  0  0  0  0  0  0
  187.9340  175.9800  136.6540 O   0  0  0  0  0  0  0  0  0  0  0  0
  185.3230  177.0090  134.5940 C   0  0  0  0  0  1  0  0  0  0  0  0
  182.6160  176.4240  139.9520 C   0  0  0  0  0  1  0  0  0  0  0  0
  186.3080  177.7880  136.7840 C   0  0  1  0  0  3  0  0  0  0  0  0
  183.7610  177.4860  138.0080 C   0  0  0  0  0  0  0  0  0  0  0  0
  193.6030  174.4870  136.3170 N   0  0  0  0  0  2  0  0  0  0  0  0
  194.6630  174.9580  137.1500 C   0  0  0  0  0  0  0  0  0  0  0  0
  194.4140  175.5550  138.2320 O   0  0  0  0  0  0  0  0  0  0  0  0
  196.0730  174.7460  136.7350 C   0  0  0  0  0  1  0  0  0  0  0  0
  1 20  1  0  0  0  0
  1 16  1  0  0  0  0
  2 24  1  1  0  0  0
  2 27  1  0  0  0  0
  2 12  1  0  0  0  0
  3  4  1  0  0  0  0
  5 25  1  6  0  0  0
  5  6  1  0  0  0  0
  5 27  1  0  0  0  0
  6 18  1  1  0  0  0
  6 28  1  0  0  0  0
  7 19  1  1  0  0  0
  7 17  1  0  0  0  0
  7 24  1  0  0  0  0
  8 17  1  0  0  0  0
  9 26  1  0  0  0  0
 10 20  1  0  0  0  0
 11  3  2  0  0  0  0
 12  8  1  1  0  0  0
 12 13  1  0  0  0  0
 13 22  1  0  0  0  0
 13 11  1  1  0  0  0
 14 23  1  6  0  0  0
 14 22  1  0  0  0  0
 15  9  1  0  0  0  0
 17 10  1  6  0  0  0
 18 15  2  0  0  0  0
 19 16  1  0  0  0  0
 20 29  1  6  0  0  0
 21  4  1  0  0  0  0
 22 21  1  1  0  0  0
 27 14  1  0  0  0  0
 28  9  2  0  0  0  0
 28 23  1  0  0  0  0
 29 30  1  0  0  0  0
 30 31  2  0  0  0  0
 32 30  1  0  0  0  0
M  END
>  <MODEL>
4

>  <REMARK>
 VINA RESULT:      -5.7      2.993      8.306
  Name = 
  1 active torsions:
  status: ('A' for Active; 'I' for Inactive)
    1  A    between atoms: C_20  and  N_29
                            x       y       z     vdW  Elec       q    Type
                         _______ _______ _______ _____ _____    ______ ____

>  <TORSDO>
F 1

$$$$
=
 OpenBabel11122410403D

 32 37  0  0  1  0  0  0  0  0999 V2000
  191.1640  175.6300  144.2110 C   0  0  0  0  0  2  0  0  0  0  0  0
  188.5670  178.6070  140.4250 C   0  0  1  0  0  3  0  0  0  0  0  0
  185.5640  177.5030  143.2770 C   0  0  0  0  0  3  0  0  0  0  0  0
  184.2910  178.2340  142.9590 C   0  0  0  0  0  2  0  0  0  0  0  0
  187.9870  177.7230  138.1170 C   0  0  1  0  0  3  0  0  0  0  0  0
  186.9640  177.7110  136.9770 C   0  0  1  0  0  3  0  0  0  0  0  0
  189.9700  177.3640  141.6670 C   0  0  1  0  0  3  0  0  0  0  0  0
  189.2060  179.5240  142.6790 C   0  0  0  0  0  2  0  0  0  0  0  0
  185.0890  176.4110  137.0320 C   0  0  0  0  0  0  0  0  0  0  0  0
  190.8690  178.1230  143.9230 C   0  0  0  0  0  2  0  0  0  0  0  0
  186.6890  177.9770  142.8680 N   0  0  0  0  0  0  0  0  0  0  0  0
  188.1390  179.5310  141.5760 C   0  0  2  0  0  3  0  0  0  0  0  0
  186.7310  179.2090  142.1030 C   0  0  1  0  0  3  0  0  0  0  0  0
  186.1240  178.2470  139.8150 C   0  0  1  0  0  3  0  0  0  0  0  0
  186.0040  175.8250  136.1340 N   0  0  0  0  0  0  0  0  0  0  0  0
  190.1960  175.2460  143.0990 C   0  0  0  0  0  2  0  0  0  0  0  0
  189.6730  178.1010  142.9880 C   0  0  2  0  0  3  0  0  0  0  0  0
  187.1970  176.5670  136.0770 N   0  0  0  0  0  0  0  0  0  0  0  0
  190.5830  175.9660  141.8130 C   0  0  0  0  0  2  0  0  0  0  0  0
  190.7790  176.9460  144.8860 C   0  0  2  0  0  3  0  0  0  0  0  0
  184.2970  178.7190  141.5010 C   0  0  0  0  0  2  0  0  0  0  0  0
  185.6810  179.1670  140.9690 C   0  0  1  0  0  3  0  0  0  0  0  0
  185.0900  178.2950  138.6830 C   0  0  0  0  0  2  0  0  0  0  0  0
  188.8000  177.2970  140.8910 O   0  0  0  0  0  0  0  0  0  0  0  0
  189.3260  178.1900  137.5670 C   0  0  0  0  0  1  0  0  0  0  0  0
  183.7940  175.7900  137.4240 C   0  0  0  0  0  1  0  0  0  0  0  0
  187.5340  178.6270  139.2910 C   0  0  1  0  0  3  0  0  0  0  0  0
  185.6040  177.5020  137.5360 C   0  0  0  0  0  0  0  0  0  0  0  0
  191.6560  177.1910  146.0200 N   0  0  0  0  0  2  0  0  0  0  0  0
  191.3460  176.7530  147.3430 C   0  0  0  0  0  0  0  0  0  0  0  0
  190.2670  176.1480  147.5850 O   0  0  0  0  0  0  0  0  0  0  0  0
  192.3030  177.0170  148.4480 C   0  0  0  0  0  1  0  0  0  0  0  0
  1 20  1  0  0  0  0
  2 24  1  1  0  0  0
  2 12  1  0  0  0  0
  4  3  1  0  0  0  0
  5 25  1  6  0  0  0
  5 27  1  0  0  0  0
  6 18  1  6  0  0  0
  6 28  1  0  0  0  0
  6  5  1  0  0  0  0
  7 19  1  1  0  0  0
  7 17  1  0  0  0  0
  9 26  1  0  0  0  0
  9 28  2  0  0  0  0
 10 20  1  0  0  0  0
 11  3  2  0  0  0  0
 12 13  1  0  0  0  0
 12  8  1  1  0  0  0
 13 11  1  6  0  0  0
 14 23  1  6  0  0  0
 14 22  1  0  0  0  0
 15  9  1  0  0  0  0
 16  1  1  0  0  0  0
 17  8  1  6  0  0  0
 17 10  1  0  0  0  0
 18 15  2  0  0  0  0
 19 16  1  0  0  0  0
 20 29  1  1  0  0  0
 21  4  1  0  0  0  0
 22 21  1  1  0  0  0
 22 13  1  0  0  0  0
 24  7  1  0  0  0  0
 27 14  1  0  0  0  0
 27  2  1  0  0  0  0
 28 23  1  0  0  0  0
 29 30  1  0  0  0  0
 30 31  2  0  0  0  0
 30 32  1  0  0  0  0
M  END
>  <MODEL>
5

>  <REMARK>
 VINA RESULT:      -4.7      3.745      6.290
  Name = 
  1 active torsions:
  status: ('A' for Active; 'I' for Inactive)
    1  A    between atoms: C_20  and  N_29
                            x       y       z     vdW  Elec       q    Type
                         _______ _______ _______ _____ _____    ______ ____

>  <TORSDO>
F 1

$$$$
=
 OpenBabel11122410403D

 32 37  0  0  1  0  0  0  0  0999 V2000
  180.9120  175.8080  138.5600 C   0  0  0  0  0  2  0  0  0  0  0  0
  184.9580  178.8640  140.6180 C   0  0  1  0  0  3  0  0  0  0  0  0
  186.7260  176.6180  137.4250 C   0  0  0  0  0  3  0  0  0  0  0  0
  188.1230  177.1160  137.1880 C   0  0  0  0  0  2  0  0  0  0  0  0
  186.1040  178.3520  142.8240 C   0  0  1  0  0  3  0  0  0  0  0  0
  187.4220  178.3520  143.6050 C   0  0  1  0  0  3  0  0  0  0  0  0
  183.0760  177.7220  140.1610 C   0  0  1  0  0  3  0  0  0  0  0  0
  183.7760  179.4320  138.4700 C   0  0  0  0  0  2  0  0  0  0  0  0
  188.9830  176.7050  143.3670 C   0  0  0  0  0  0  0  0  0  0  0  0
  181.6280  178.1910  138.1210 C   0  0  0  0  0  2  0  0  0  0  0  0
  185.8640  177.3880  137.9940 N   0  0  0  0  0  0  0  0  0  0  0  0
  185.1260  179.4330  139.2000 C   0  0  2  0  0  3  0  0  0  0  0  0
  186.2370  178.7270  138.4060 C   0  0  1  0  0  3  0  0  0  0  0  0
  187.3930  178.1310  140.6060 C   0  0  1  0  0  3  0  0  0  0  0  0
  188.3240  176.5110  144.5990 N   0  0  0  0  0  0  0  0  0  0  0  0
  182.1170  175.4580  139.4240 C   0  0  0  0  0  2  0  0  0  0  0  0
  183.0420  178.1050  138.6680 C   0  0  2  0  0  3  0  0  0  0  0  0
  187.3260  177.4830  144.7920 N   0  0  0  0  0  0  0  0  0  0  0  0
  182.2590  176.4820  140.5440 C   0  0  0  0  0  2  0  0  0  0  0  0
  181.2460  176.8550  137.4980 C   0  0  2  0  0  3  0  0  0  0  0  0
  188.6440  177.8690  138.4220 C   0  0  0  0  0  2  0  0  0  0  0  0
  187.5740  178.6920  139.1820 C   0  0  1  0  0  3  0  0  0  0  0  0
  188.7260  178.1840  141.3620 C   0  0  0  0  0  2  0  0  0  0  0  0
  184.4090  177.5670  140.5780 O   0  0  0  0  0  0  0  0  0  0  0  0
  185.0860  179.1880  143.5840 C   0  0  0  0  0  1  0  0  0  0  0  0
  189.9890  175.7630  142.8050 C   0  0  0  0  0  1  0  0  0  0  0  0
  186.2860  178.8920  141.3830 C   0  0  1  0  0  3  0  0  0  0  0  0
  188.4930  177.7580  142.7670 C   0  0  0  0  0  0  0  0  0  0  0  0
  180.0990  177.0490  136.6240 N   0  0  0  0  0  2  0  0  0  0  0  0
  180.1510  177.8670  135.4540 C   0  0  0  0  0  0  0  0  0  0  0  0
  181.2070  178.4820  135.1450 O   0  0  0  0  0  0  0  0  0  0  0  0
  178.9460  177.9970  134.5960 C   0  0  0  0  0  1  0  0  0  0  0  0
  1 16  1  0  0  0  0
  2 24  1  6  0  0  0
  2 27  1  0  0  0  0
  3 11  2  0  0  0  0
  4  3  1  0  0  0  0
  4 21  1  0  0  0  0
  5 25  1  1  0  0  0
  5  6  1  0  0  0  0
  6 28  1  6  0  0  0
  6 18  1  0  0  0  0
  7 19  1  6  0  0  0
  7 24  1  0  0  0  0
  8 17  1  0  0  0  0
  9 15  1  0  0  0  0
 12  8  1  6  0  0  0
 12  2  1  0  0  0  0
 13 11  1  1  0  0  0
 13 22  1  0  0  0  0
 13 12  1  0  0  0  0
 14 23  1  1  0  0  0
 14 27  1  0  0  0  0
 15 18  2  0  0  0  0
 16 19  1  0  0  0  0
 17 10  1  1  0  0  0
 17  7  1  0  0  0  0
 20 29  1  6  0  0  0
 20 10  1  0  0  0  0
 20  1  1  0  0  0  0
 22 21  1  6  0  0  0
 22 14  1  0  0  0  0
 23 28  1  0  0  0  0
 26  9  1  0  0  0  0
 27  5  1  0  0  0  0
 28  9  2  0  0  0  0
 30 29  1  0  0  0  0
 31 30  2  0  0  0  0
 32 30  1  0  0  0  0
M  END
>  <MODEL>
6

>  <REMARK>
 VINA RESULT:      -4.7      4.247      7.344
  Name = 
  1 active torsions:
  status: ('A' for Active; 'I' for Inactive)
    1  A    between atoms: C_20  and  N_29
                            x       y       z     vdW  Elec       q    Type
                         _______ _______ _______ _____ _____    ______ ____

>  <TORSDO>
F 1

$$$$
=
 OpenBabel11122410403D

 32 37  0  0  1  0  0  0  0  0999 V2000
  188.3930  173.7920  136.3210 C   0  0  0  0  0  2  0  0  0  0  0  0
  183.2460  175.5650  135.7700 C   0  0  1  0  0  3  0  0  0  0  0  0
  185.0230  178.1030  138.7300 C   0  0  0  0  0  3  0  0  0  0  0  0
  184.0760  179.2240  139.0510 C   0  0  0  0  0  2  0  0  0  0  0  0
  181.2410  174.3340  136.7230 C   0  0  1  0  0  3  0  0  0  0  0  0
  179.8650  174.4600  137.3850 C   0  0  1  0  0  3  0  0  0  0  0  0
  185.2070  174.4660  135.7690 C   0  0  1  0  0  3  0  0  0  0  0  0
  185.2140  176.7540  134.7490 C   0  0  0  0  0  2  0  0  0  0  0  0
  179.6160  174.8780  139.6140 C   0  0  0  0  0  0  0  0  0  0  0  0
  187.3170  175.3920  134.6890 C   0  0  0  0  0  2  0  0  0  0  0  0
  184.9260  177.4900  137.6020 N   0  0  0  0  0  0  0  0  0  0  0  0
  183.8510  176.9360  135.4290 C   0  0  2  0  0  3  0  0  0  0  0  0
  183.9080  177.8770  136.6440 C   0  0  1  0  0  3  0  0  0  0  0  0
  181.9330  176.6240  137.6730 C   0  0  1  0  0  3  0  0  0  0  0  0
  179.3140  173.5200  139.3860 N   0  0  0  0  0  0  0  0  0  0  0  0
  187.1680  173.6650  137.2190 C   0  0  0  0  0  2  0  0  0  0  0  0
  186.0640  175.7160  135.4840 C   0  0  2  0  0  3  0  0  0  0  0  0
  179.4770  173.1920  138.0280 N   0  0  0  0  0  0  0  0  0  0  0  0
  185.9580  173.2760  136.3800 C   0  0  0  0  0  2  0  0  0  0  0  0
  188.4770  175.1610  135.6470 C   0  0  2  0  0  3  0  0  0  0  0  0
  182.6430  178.8540  138.6370 C   0  0  0  0  0  2  0  0  0  0  0  0
  182.5370  178.0040  137.3460 C   0  0  1  0  0  3  0  0  0  0  0  0
  180.5440  176.7970  138.3000 C   0  0  0  0  0  2  0  0  0  0  0  0
  184.1180  174.8180  136.5860 O   0  0  0  0  0  0  0  0  0  0  0  0
  181.0960  173.5170  135.4480 C   0  0  0  0  0  1  0  0  0  0  0  0
  179.6790  175.5000  140.9660 C   0  0  0  0  0  1  0  0  0  0  0  0
  181.8630  175.7190  136.4150 C   0  0  1  0  0  3  0  0  0  0  0  0
  179.9350  175.4540  138.4850 C   0  0  0  0  0  0  0  0  0  0  0  0
  189.7290  175.2700  134.9140 N   0  0  0  0  0  2  0  0  0  0  0  0
  190.8970  175.8760  135.4680 C   0  0  0  0  0  0  0  0  0  0  0  0
  190.8780  176.3700  136.6270 O   0  0  0  0  0  0  0  0  0  0  0  0
  192.1480  175.9280  134.6680 C   0  0  0  0  0  1  0  0  0  0  0  0
  1 16  1  0  0  0  0
  2 27  1  0  0  0  0
  2 24  1  1  0  0  0
  3  4  1  0  0  0  0
  5 25  1  6  0  0  0
  5  6  1  0  0  0  0
  6 18  1  1  0  0  0
  6 28  1  0  0  0  0
  7 19  1  1  0  0  0
  7 24  1  0  0  0  0
  8 17  1  0  0  0  0
  9 26  1  0  0  0  0
 10 20  1  0  0  0  0
 11  3  2  0  0  0  0
 12  8  1  1  0  0  0
 12  2  1  0  0  0  0
 12 13  1  0  0  0  0
 13 22  1  0  0  0  0
 13 11  1  1  0  0  0
 14 23  1  6  0  0  0
 15  9  1  0  0  0  0
 17 10  1  6  0  0  0
 17  7  1  0  0  0  0
 18 15  2  0  0  0  0
 19 16  1  0  0  0  0
 20 29  1  6  0  0  0
 20  1  1  0  0  0  0
 21  4  1  0  0  0  0
 22 14  1  0  0  0  0
 22 21  1  1  0  0  0
 23 28  1  0  0  0  0
 27  5  1  0  0  0  0
 27 14  1  0  0  0  0
 28  9  2  0  0  0  0
 29 30  1  0  0  0  0
 30 31  2  0  0  0  0
 32 30  1  0  0  0  0
M  END
>  <MODEL>
7

>  <REMARK>
 VINA RESULT:      -4.4      5.139      9.990
  Name = 
  1 active torsions:
  status: ('A' for Active; 'I' for Inactive)
    1  A    between atoms: C_20  and  N_29
                            x       y       z     vdW  Elec       q    Type
                         _______ _______ _______ _____ _____    ______ ____

>  <TORSDO>
F 1

$$$$
=
 OpenBabel11122410403D

 32 37  0  0  1  0  0  0  0  0999 V2000
  186.3910  178.2690  141.9640 C   0  0  0  0  0  2  0  0  0  0  0  0
  181.3970  179.6900  140.2360 C   0  0  1  0  0  3  0  0  0  0  0  0
  181.4050  175.4050  140.3260 C   0  0  0  0  0  3  0  0  0  0  0  0
  180.0120  174.9040  140.0730 C   0  0  0  0  0  2  0  0  0  0  0  0
  180.9260  180.5410  137.8920 C   0  0  1  0  0  3  0  0  0  0  0  0
  179.9470  180.5530  136.7130 C   0  0  1  0  0  3  0  0  0  0  0  0
  183.5540  179.5440  140.8510 C   0  0  1  0  0  3  0  0  0  0  0  0
  181.8600  178.9240  142.5880 C   0  0  0  0  0  2  0  0  0  0  0  0
  179.8190  178.8370  135.2160 C   0  0  0  0  0  0  0  0  0  0  0  0
  184.2880  178.9180  143.2060 C   0  0  0  0  0  2  0  0  0  0  0  0
  181.5810  176.5980  140.7790 N   0  0  0  0  0  0  0  0  0  0  0  0
  180.8550  178.8850  141.4290 C   0  0  2  0  0  3  0  0  0  0  0  0
  180.4420  177.4560  141.0420 C   0  0  1  0  0  3  0  0  0  0  0  0
  180.0180  178.2550  138.6520 C   0  0  1  0  0  3  0  0  0  0  0  0
  180.4850  179.9130  134.5940 N   0  0  0  0  0  0  0  0  0  0  0  0
  185.7280  178.2030  140.5940 C   0  0  0  0  0  2  0  0  0  0  0  0
  183.2850  178.6710  142.0930 C   0  0  2  0  0  3  0  0  0  0  0  0
  180.6210  180.9960  135.4790 N   0  0  0  0  0  0  0  0  0  0  0  0
  184.9920  179.5080  140.3170 C   0  0  0  0  0  2  0  0  0  0  0  0
  185.4250  177.9110  143.0930 C   0  0  2  0  0  3  0  0  0  0  0  0
  179.1670  175.9870  139.3850 C   0  0  0  0  0  2  0  0  0  0  0  0
  179.4720  177.4370  139.8380 C   0  0  1  0  0  3  0  0  0  0  0  0
  178.9930  178.2700  137.5110 C   0  0  0  0  0  2  0  0  0  0  0  0
  182.6540  179.2000  139.8280 O   0  0  0  0  0  0  0  0  0  0  0  0
  181.1830  181.9760  138.3270 C   0  0  0  0  0  1  0  0  0  0  0  0
  179.6460  177.4950  134.5940 C   0  0  0  0  0  1  0  0  0  0  0  0
  180.3910  179.7000  139.0780 C   0  0  1  0  0  3  0  0  0  0  0  0
  179.4910  179.1680  136.4360 C   0  0  0  0  0  0  0  0  0  0  0  0
  186.1440  177.8630  144.3570 N   0  0  0  0  0  2  0  0  0  0  0  0
  187.3630  177.1360  144.5220 C   0  0  0  0  0  0  0  0  0  0  0  0
  187.8550  176.4790  143.5660 O   0  0  0  0  0  0  0  0  0  0  0  0
  188.0550  177.1530  145.8360 C   0  0  0  0  0  1  0  0  0  0  0  0
  1 20  1  0  0  0  0
  2 24  1  6  0  0  0
  2 12  1  0  0  0  0
  3 11  2  0  0  0  0
  4  3  1  0  0  0  0
  5 25  1  1  0  0  0
  5 27  1  0  0  0  0
  6 18  1  6  0  0  0
  6  5  1  0  0  0  0
  7 19  1  6  0  0  0
  7 17  1  0  0  0  0
  9 28  2  0  0  0  0
 12  8  1  1  0  0  0
 13 11  1  6  0  0  0
 13 12  1  0  0  0  0
 14 23  1  6  0  0  0
 14 27  1  0  0  0  0
 14 22  1  0  0  0  0
 15  9  1  0  0  0  0
 15 18  2  0  0  0  0
 16  1  1  0  0  0  0
 17  8  1  1  0  0  0
 17 10  1  0  0  0  0
 19 16  1  0  0  0  0
 20 10  1  0  0  0  0
 20 29  1  1  0  0  0
 21  4  1  0  0  0  0
 22 21  1  6  0  0  0
 22 13  1  0  0  0  0
 24  7  1  0  0  0  0
 26  9  1  0  0  0  0
 27  2  1  0  0  0  0
 28  6  1  0  0  0  0
 28 23  1  0  0  0  0
 29 30  1  0  0  0  0
 30 32  1  0  0  0  0
 31 30  2  0  0  0  0
M  END
>  <MODEL>
8

>  <REMARK>
 VINA RESULT:      -4.2      6.283      9.999
  Name = 
  1 active torsions:
  status: ('A' for Active; 'I' for Inactive)
    1  A    between atoms: C_20  and  N_29
                            x       y       z     vdW  Elec       q    Type
                         _______ _______ _______ _____ _____    ______ ____

>  <TORSDO>
F 1

$$$$
=
 OpenBabel11122410403D

 32 37  0  0  1  0  0  0  0  0999 V2000
  182.1790  179.3660  140.2900 C   0  0  0  0  0  2  0  0  0  0  0  0
  184.7140  177.1610  135.9710 C   0  0  1  0  0  3  0  0  0  0  0  0
  182.1610  174.0780  137.5020 C   0  0  0  0  0  3  0  0  0  0  0  0
  182.1630  172.9180  136.5480 C   0  0  0  0  0  2  0  0  0  0  0  0
  187.1420  176.4230  136.0100 C   0  0  1  0  0  3  0  0  0  0  0  0
  188.1680  175.3910  135.5320 C   0  0  1  0  0  3  0  0  0  0  0  0
  183.9960  178.3920  137.7100 C   0  0  1  0  0  3  0  0  0  0  0  0
  182.3290  177.9620  135.8910 C   0  0  0  0  0  2  0  0  0  0  0  0
  188.4010  173.3510  136.5270 C   0  0  0  0  0  0  0  0  0  0  0  0
  181.6740  179.4270  137.8150 C   0  0  0  0  0  2  0  0  0  0  0  0
  182.4720  175.2530  137.0760 N   0  0  0  0  0  0  0  0  0  0  0  0
  183.3120  176.8890  135.4030 C   0  0  2  0  0  3  0  0  0  0  0  0
  182.8250  175.4580  135.6850 C   0  0  1  0  0  3  0  0  0  0  0  0
  185.2570  174.6820  135.7990 C   0  0  1  0  0  3  0  0  0  0  0  0
  189.4880  174.1580  136.9200 N   0  0  0  0  0  0  0  0  0  0  0  0
  183.2960  178.3360  140.1790 C   0  0  0  0  0  2  0  0  0  0  0  0
  182.4980  178.2250  137.3880 C   0  0  2  0  0  3  0  0  0  0  0  0
  189.3860  175.4430  136.3600 N   0  0  0  0  0  0  0  0  0  0  0  0
  184.3210  178.8010  139.1520 C   0  0  0  0  0  2  0  0  0  0  0  0
  181.1130  179.1850  139.2100 C   0  0  2  0  0  3  0  0  0  0  0  0
  183.4010  172.9690  135.6400 C   0  0  0  0  0  2  0  0  0  0  0  0
  183.8530  174.3950  135.2340 C   0  0  1  0  0  3  0  0  0  0  0  0
  186.2560  173.6480  135.2670 C   0  0  0  0  0  2  0  0  0  0  0  0
  184.6850  177.2120  137.3790 O   0  0  0  0  0  0  0  0  0  0  0  0
  187.6020  177.8060  135.5740 C   0  0  0  0  0  1  0  0  0  0  0  0
  188.1410  171.9860  137.0640 C   0  0  0  0  0  1  0  0  0  0  0  0
  185.7230  176.1240  135.4640 C   0  0  1  0  0  3  0  0  0  0  0  0
  187.6200  174.0250  135.7250 C   0  0  0  0  0  0  0  0  0  0  0  0
  180.0140  180.1060  139.4480 N   0  0  0  0  0  2  0  0  0  0  0  0
  180.1050  181.5040  139.1680 C   0  0  0  0  0  0  0  0  0  0  0  0
  181.1720  182.0020  138.7190 O   0  0  0  0  0  0  0  0  0  0  0  0
  178.9310  182.3810  139.4130 C   0  0  0  0  0  1  0  0  0  0  0  0
  2 24  1  1  0  0  0
  4  3  1  0  0  0  0
  5 25  1  6  0  0  0
  6 28  1  1  0  0  0
  6  5  1  0  0  0  0
  6 18  1  0  0  0  0
  7 19  1  1  0  0  0
  9 15  1  0  0  0  0
  9 26  1  0  0  0  0
 10 20  1  0  0  0  0
 11  3  2  0  0  0  0
 12 13  1  0  0  0  0
 12  8  1  1  0  0  0
 12  2  1  0  0  0  0
 13 11  1  1  0  0  0
 14 23  1  6  0  0  0
 16  1  1  0  0  0  0
 17  8  1  6  0  0  0
 17  7  1  0  0  0  0
 17 10  1  0  0  0  0
 18 15  2  0  0  0  0
 19 16  1  0  0  0  0
 20 29  1  1  0  0  0
 20  1  1  0  0  0  0
 21  4  1  0  0  0  0
 22 21  1  1  0  0  0
 22 13  1  0  0  0  0
 22 14  1  0  0  0  0
 23 28  1  0  0  0  0
 24  7  1  0  0  0  0
 27 14  1  0  0  0  0
 27  2  1  0  0  0  0
 27  5  1  0  0  0  0
 28  9  2  0  0  0  0
 30 32  1  0  0  0  0
 30 29  1  0  0  0  0
 31 30  2  0  0  0  0
M  END
>  <MODEL>
9

>  <REMARK>
 VINA RESULT:      -4.1      4.871      6.561
  Name = 
  1 active torsions:
  status: ('A' for Active; 'I' for Inactive)
    1  A    between atoms: C_20  and  N_29
                            x       y       z     vdW  Elec       q    Type
                         _______ _______ _______ _____ _____    ______ ____

>  <TORSDO>
F 1

$$$$
