=
 OpenBabel11122410223D

 30 35  0  0  1  0  0  0  0  0999 V2000
  185.4060  178.1690  142.3540 C   0  0  0  0  0  0  0  0  0  0  0  0
  186.2330  178.2770  144.7110 C   0  0  0  0  0  0  0  0  0  0  0  0
  181.3870  178.9820  143.5300 C   0  0  0  0  0  2  0  0  0  0  0  0
  184.3180  178.2660  141.4570 C   0  0  0  0  0  0  0  0  0  0  0  0
  186.7500  177.7840  141.8040 C   0  0  0  0  0  2  0  0  0  0  0  0
  186.2140  178.9110  138.3690 O   0  0  0  0  0  0  0  0  0  0  0  0
  182.6830  176.5400  139.7400 C   0  0  1  0  0  3  0  0  0  0  0  0
  185.9550  178.5690  139.5550 C   0  0  0  0  0  0  0  0  0  0  0  0
  181.5130  177.2650  140.4020 C   0  0  2  0  0  3  0  0  0  0  0  0
  180.7870  178.9450  142.1100 C   0  0  1  0  0  3  0  0  0  0  0  0
  187.0160  178.4150  140.5100 N   0  0  0  0  0  0  0  0  0  0  0  0
  184.5220  178.3900  139.9690 C   0  0  1  0  0  3  0  0  0  0  0  0
  185.9650  178.4940  146.0650 C   0  0  0  0  0  3  0  0  0  0  0  0
  180.5170  177.5460  139.3030 C   0  0  0  0  0  2  0  0  0  0  0  0
  181.9970  175.6810  138.6900 C   0  0  0  0  0  2  0  0  0  0  0  0
  187.5140  178.0080  144.3560 F   0  0  0  0  0  0  0  0  0  0  0  0
  182.8280  178.7050  143.2930 C   0  0  0  0  0  0  0  0  0  0  0  0
  184.6720  178.7870  146.4980 C   0  0  0  0  0  3  0  0  0  0  0  0
  185.1890  178.3540  143.7550 C   0  0  0  0  0  0  0  0  0  0  0  0
  183.0400  178.4660  141.9710 C   0  0  0  0  0  0  0  0  0  0  0  0
  180.3930  180.3480  141.6870 C   0  0  0  0  0  1  0  0  0  0  0  0
  181.8360  178.4380  141.2200 N   0  0  0  0  0  0  0  0  0  0  0  0
  180.6790  176.3760  138.3440 C   0  0  0  0  0  2  0  0  0  0  0  0
  183.2110  178.1480  137.9880 O   0  0  0  0  0  1  0  0  0  0  0  0
  183.6290  178.8650  145.5790 C   0  0  0  0  0  3  0  0  0  0  0  0
  183.8730  178.6510  144.2170 C   0  0  0  0  0  0  0  0  0  0  0  0
  183.7470  177.4300  139.0610 C   0  0  2  0  0  3  0  0  0  0  0  0
  188.3850  178.7500  140.1170 C   0  0  0  0  0  2  0  0  0  0  0  0
  189.3970  177.0930  139.0680 C   0  0  0  0  0  1  0  0  0  0  0  0
  189.2530  177.6750  140.3260 O   0  0  0  0  0  0  0  0  0  0  0  0
  1 19  1  0  0  0  0
  2 13  1  0  0  0  0
  4 20  1  0  0  0  0
  4  1  2  0  0  0  0
  5  1  1  0  0  0  0
  6  8  2  0  0  0  0
  7 15  1  6  0  0  0
  7  9  1  0  0  0  0
  8 11  1  0  0  0  0
  9 14  1  6  0  0  0
  9 22  1  0  0  0  0
 10 21  1  6  0  0  0
 10  3  1  0  0  0  0
 11  5  1  0  0  0  0
 12  8  1  1  0  0  0
 12  4  1  0  0  0  0
 13 18  2  0  0  0  0
 16  2  1  0  0  0  0
 17  3  1  0  0  0  0
 17 26  1  0  0  0  0
 19 26  1  0  0  0  0
 19  2  2  0  0  0  0
 20 17  2  0  0  0  0
 22 20  1  0  0  0  0
 22 10  1  0  0  0  0
 23 15  1  0  0  0  0
 23 14  1  0  0  0  0
 25 18  1  0  0  0  0
 26 25  2  0  0  0  0
 27 24  1  6  0  0  0
 27  7  1  0  0  0  0
 27 12  1  0  0  0  0
 28 30  1  0  0  0  0
 28 11  1  0  0  0  0
 29 30  1  0  0  0  0
M  END
>  <MODEL>
1

>  <REMARK>
 VINA RESULT:      -8.2      0.000      0.000
  Name = 
  2 active torsions:
  status: ('A' for Active; 'I' for Inactive)
    1  A    between atoms: N_11  and  C_28
    2  A    between atoms: C_28  and  O_30
                            x       y       z     vdW  Elec       q    Type
                         _______ _______ _______ _____ _____    ______ ____

>  <TORSDO>
F 2

$$$$
=
 OpenBabel11122410223D

 30 35  0  0  1  0  0  0  0  0999 V2000
  189.0400  177.3930  139.7380 C   0  0  0  0  0  0  0  0  0  0  0  0
  190.7340  176.6740  138.0470 C   0  0  0  0  0  0  0  0  0  0  0  0
  192.0050  177.9310  142.7560 C   0  0  0  0  0  2  0  0  0  0  0  0
  188.7650  177.8290  141.0540 C   0  0  0  0  0  0  0  0  0  0  0  0
  187.8800  177.1590  138.8100 C   0  0  0  0  0  2  0  0  0  0  0  0
  185.4900  179.3910  140.4400 O   0  0  0  0  0  0  0  0  0  0  0  0
  187.5040  176.8440  143.5110 C   0  0  1  0  0  3  0  0  0  0  0  0
  186.5190  178.6830  140.2700 C   0  0  0  0  0  0  0  0  0  0  0  0
  188.7800  177.3550  144.1780 C   0  0  2  0  0  3  0  0  0  0  0  0
  191.0350  178.3960  143.8620 C   0  0  1  0  0  3  0  0  0  0  0  0
  186.8380  178.1750  138.9660 N   0  0  0  0  0  0  0  0  0  0  0  0
  187.4380  178.4340  141.4320 C   0  0  1  0  0  3  0  0  0  0  0  0
  192.0720  176.4360  137.7180 C   0  0  0  0  0  3  0  0  0  0  0  0
  188.3470  178.0270  145.4580 C   0  0  0  0  0  2  0  0  0  0  0  0
  186.6540  176.4160  144.6960 C   0  0  0  0  0  2  0  0  0  0  0  0
  189.8040  176.4860  137.0780 F   0  0  0  0  0  0  0  0  0  0  0  0
  191.1040  177.6900  141.5990 C   0  0  0  0  0  0  0  0  0  0  0  0
  193.0810  176.6200  138.6620 C   0  0  0  0  0  3  0  0  0  0  0  0
  190.3850  177.1080  139.3500 C   0  0  0  0  0  0  0  0  0  0  0  0
  189.8120  177.8980  141.9690 C   0  0  0  0  0  0  0  0  0  0  0  0
  191.2420  179.8740  144.1330 C   0  0  0  0  0  1  0  0  0  0  0  0
  189.6780  178.1720  143.3550 N   0  0  0  0  0  0  0  0  0  0  0  0
  187.1220  177.2390  145.8970 C   0  0  0  0  0  2  0  0  0  0  0  0
  186.2350  178.9230  143.4360 O   0  0  0  0  0  1  0  0  0  0  0  0
  192.7640  177.0440  139.9500 C   0  0  0  0  0  3  0  0  0  0  0  0
  191.4320  177.2880  140.3030 C   0  0  0  0  0  0  0  0  0  0  0  0
  186.7200  177.8670  142.6600 C   0  0  2  0  0  3  0  0  0  0  0  0
  186.0090  178.5650  137.8250 C   0  0  0  0  0  2  0  0  0  0  0  0
  184.1710  177.3550  137.6520 C   0  0  0  0  0  1  0  0  0  0  0  0
  185.4780  177.4480  137.1750 O   0  0  0  0  0  0  0  0  0  0  0  0
  1  4  1  0  0  0  0
  2 19  1  0  0  0  0
  3 10  1  0  0  0  0
  4 12  1  0  0  0  0
  4 20  2  0  0  0  0
  5 11  1  0  0  0  0
  5  1  1  0  0  0  0
  7  9  1  0  0  0  0
  7 15  1  1  0  0  0
  8  6  2  0  0  0  0
  9 14  1  1  0  0  0
 10 21  1  6  0  0  0
 11  8  1  0  0  0  0
 12  8  1  6  0  0  0
 12 27  1  0  0  0  0
 13  2  2  0  0  0  0
 13 18  1  0  0  0  0
 14 23  1  0  0  0  0
 15 23  1  0  0  0  0
 16  2  1  0  0  0  0
 17 20  1  0  0  0  0
 17  3  1  0  0  0  0
 18 25  2  0  0  0  0
 19  1  2  0  0  0  0
 19 26  1  0  0  0  0
 20 22  1  0  0  0  0
 22 10  1  0  0  0  0
 22  9  1  0  0  0  0
 25 26  1  0  0  0  0
 26 17  2  0  0  0  0
 27 24  1  1  0  0  0
 27  7  1  0  0  0  0
 28 11  1  0  0  0  0
 30 29  1  0  0  0  0
 30 28  1  0  0  0  0
M  END
>  <MODEL>
2

>  <REMARK>
 VINA RESULT:      -7.9      3.554      7.541
  Name = 
  2 active torsions:
  status: ('A' for Active; 'I' for Inactive)
    1  A    between atoms: N_11  and  C_28
    2  A    between atoms: C_28  and  O_30
                            x       y       z     vdW  Elec       q    Type
                         _______ _______ _______ _____ _____    ______ ____

>  <TORSDO>
F 2

$$$$
=
 OpenBabel11122410223D

 30 35  0  0  1  0  0  0  0  0999 V2000
  188.5370  177.5550  141.3950 C   0  0  0  0  0  0  0  0  0  0  0  0
  186.7200  178.1090  143.0200 C   0  0  0  0  0  0  0  0  0  0  0  0
  186.0800  178.5020  138.0400 C   0  0  0  0  0  2  0  0  0  0  0  0
  188.9600  177.4660  140.0490 C   0  0  0  0  0  0  0  0  0  0  0  0
  189.4840  177.0980  142.4690 C   0  0  0  0  0  2  0  0  0  0  0  0
  192.5960  177.5650  140.6120 O   0  0  0  0  0  0  0  0  0  0  0  0
  189.6230  175.4260  138.0500 C   0  0  1  0  0  3  0  0  0  0  0  0
  191.3620  177.4430  140.8380 C   0  0  0  0  0  0  0  0  0  0  0  0
  188.6970  176.2410  137.1490 C   0  0  2  0  0  3  0  0  0  0  0  0
  187.1420  178.1940  136.9640 C   0  0  1  0  0  3  0  0  0  0  0  0
  190.8660  177.4850  142.1850 N   0  0  0  0  0  0  0  0  0  0  0  0
  190.4130  177.3180  139.6800 C   0  0  1  0  0  3  0  0  0  0  0  0
  185.4200  178.5660  143.2530 C   0  0  0  0  0  3  0  0  0  0  0  0
  189.3680  176.2980  135.7980 C   0  0  0  0  0  2  0  0  0  0  0  0
  190.1800  174.3780  137.1010 C   0  0  0  0  0  2  0  0  0  0  0  0
  187.4840  177.8010  144.0990 F   0  0  0  0  0  0  0  0  0  0  0  0
  186.7950  178.2110  139.3100 C   0  0  0  0  0  0  0  0  0  0  0  0
  184.5850  178.9120  142.1910 C   0  0  0  0  0  3  0  0  0  0  0  0
  187.2100  177.9900  141.6950 C   0  0  0  0  0  0  0  0  0  0  0  0
  188.0410  177.7360  139.0390 C   0  0  0  0  0  0  0  0  0  0  0  0
  187.6080  179.4880  136.3240 C   0  0  0  0  0  1  0  0  0  0  0  0
  188.2650  177.5490  137.6500 N   0  0  0  0  0  0  0  0  0  0  0  0
  190.1100  174.9740  135.6940 C   0  0  0  0  0  2  0  0  0  0  0  0
  191.6830  176.6940  137.7550 O   0  0  0  0  0  1  0  0  0  0  0  0
  185.0420  178.8010  140.8810 C   0  0  0  0  0  3  0  0  0  0  0  0
  186.3390  178.3450  140.6220 C   0  0  0  0  0  0  0  0  0  0  0  0
  190.7900  176.1950  138.7080 C   0  0  2  0  0  3  0  0  0  0  0  0
  191.7980  177.7650  143.2790 C   0  0  0  0  0  2  0  0  0  0  0  0
  191.5680  177.0570  145.3560 C   0  0  0  0  0  1  0  0  0  0  0  0
  191.1180  178.0350  144.4690 O   0  0  0  0  0  0  0  0  0  0  0  0
  1 19  1  0  0  0  0
  1  5  1  0  0  0  0
  2 13  1  0  0  0  0
  2 16  1  0  0  0  0
  3 17  1  0  0  0  0
  4  1  2  0  0  0  0
  6  8  2  0  0  0  0
  7 15  1  6  0  0  0
  7 27  1  0  0  0  0
  8 11  1  0  0  0  0
  9 14  1  6  0  0  0
  9 22  1  0  0  0  0
  9  7  1  0  0  0  0
 10 21  1  1  0  0  0
 10 22  1  0  0  0  0
 10  3  1  0  0  0  0
 11  5  1  0  0  0  0
 11 28  1  0  0  0  0
 12  4  1  1  0  0  0
 12  8  1  0  0  0  0
 17 26  1  0  0  0  0
 18 13  2  0  0  0  0
 19  2  2  0  0  0  0
 20 17  2  0  0  0  0
 20  4  1  0  0  0  0
 22 20  1  0  0  0  0
 23 14  1  0  0  0  0
 23 15  1  0  0  0  0
 25 18  1  0  0  0  0
 26 25  2  0  0  0  0
 26 19  1  0  0  0  0
 27 24  1  6  0  0  0
 27 12  1  0  0  0  0
 28 30  1  0  0  0  0
 30 29  1  0  0  0  0
M  END
>  <MODEL>
3

>  <REMARK>
 VINA RESULT:      -7.6      3.629      6.248
  Name = 
  2 active torsions:
  status: ('A' for Active; 'I' for Inactive)
    1  A    between atoms: N_11  and  C_28
    2  A    between atoms: C_28  and  O_30
                            x       y       z     vdW  Elec       q    Type
                         _______ _______ _______ _____ _____    ______ ____

>  <TORSDO>
F 2

$$$$
=
 OpenBabel11122410223D

 30 35  0  0  1  0  0  0  0  0999 V2000
  188.1620  177.3950  142.8780 C   0  0  0  0  0  0  0  0  0  0  0  0
  189.5690  176.5850  144.7790 C   0  0  0  0  0  0  0  0  0  0  0  0
  185.1910  178.9680  145.5020 C   0  0  0  0  0  2  0  0  0  0  0  0
  186.9880  178.0530  142.4470 C   0  0  0  0  0  0  0  0  0  0  0  0
  189.0720  176.8090  141.8350 C   0  0  0  0  0  2  0  0  0  0  0  0
  188.0880  178.9700  139.0570 O   0  0  0  0  0  0  0  0  0  0  0  0
  184.4400  177.4350  141.1330 C   0  0  1  0  0  3  0  0  0  0  0  0
  188.0490  178.3960  140.1780 C   0  0  0  0  0  0  0  0  0  0  0  0
  183.8380  178.2500  142.2760 C   0  0  2  0  0  3  0  0  0  0  0  0
  184.2630  179.5110  144.3970 C   0  0  1  0  0  3  0  0  0  0  0  0
  189.1940  177.6760  140.6620 N   0  0  0  0  0  0  0  0  0  0  0  0
  186.8170  178.5290  141.0280 C   0  0  1  0  0  3  0  0  0  0  0  0
  189.7720  176.4760  146.1570 C   0  0  0  0  0  3  0  0  0  0  0  0
  182.7590  179.1070  141.6610 C   0  0  0  0  0  2  0  0  0  0  0  0
  183.2330  177.1480  140.2540 C   0  0  0  0  0  2  0  0  0  0  0  0
  190.5190  176.0690  143.9590 F   0  0  0  0  0  0  0  0  0  0  0  0
  186.3110  178.3650  144.7340 C   0  0  0  0  0  0  0  0  0  0  0  0
  188.8420  176.9960  147.0570 C   0  0  0  0  0  3  0  0  0  0  0  0
  188.4110  177.2290  144.2750 C   0  0  0  0  0  0  0  0  0  0  0  0
  186.0590  178.4600  143.4010 C   0  0  0  0  0  0  0  0  0  0  0  0
  184.3110  181.0270  144.3910 C   0  0  0  0  0  1  0  0  0  0  0  0
  184.7740  178.9960  143.1230 N   0  0  0  0  0  0  0  0  0  0  0  0
  182.2190  178.2630  140.5160 C   0  0  0  0  0  2  0  0  0  0  0  0
  185.0290  179.2500  139.6170 O   0  0  0  0  0  1  0  0  0  0  0  0
  187.6950  177.6300  146.5870 C   0  0  0  0  0  3  0  0  0  0  0  0
  187.4700  177.7510  145.2110 C   0  0  0  0  0  0  0  0  0  0  0  0
  185.5320  178.1350  140.2930 C   0  0  2  0  0  3  0  0  0  0  0  0
  190.4320  177.6980  139.8820 C   0  0  0  0  0  2  0  0  0  0  0  0
  190.4710  176.3160  138.1610 C   0  0  0  0  0  1  0  0  0  0  0  0
  190.8210  176.4090  139.5080 O   0  0  0  0  0  0  0  0  0  0  0  0
  1 19  1  0  0  0  0
  2 13  1  0  0  0  0
  4  1  2  0  0  0  0
  4 20  1  0  0  0  0
  5  1  1  0  0  0  0
  6  8  2  0  0  0  0
  7 15  1  6  0  0  0
  7  9  1  0  0  0  0
  8 11  1  0  0  0  0
  9 14  1  6  0  0  0
  9 22  1  0  0  0  0
 10 21  1  6  0  0  0
 10  3  1  0  0  0  0
 11  5  1  0  0  0  0
 12  8  1  6  0  0  0
 12  4  1  0  0  0  0
 13 18  2  0  0  0  0
 15 23  1  0  0  0  0
 16  2  1  0  0  0  0
 17 26  1  0  0  0  0
 17  3  1  0  0  0  0
 19  2  2  0  0  0  0
 19 26  1  0  0  0  0
 20 17  2  0  0  0  0
 22 20  1  0  0  0  0
 22 10  1  0  0  0  0
 23 14  1  0  0  0  0
 25 18  1  0  0  0  0
 26 25  2  0  0  0  0
 27 24  1  1  0  0  0
 27 12  1  0  0  0  0
 27  7  1  0  0  0  0
 28 11  1  0  0  0  0
 29 30  1  0  0  0  0
 30 28  1  0  0  0  0
M  END
>  <MODEL>
4

>  <REMARK>
 VINA RESULT:      -7.0      2.068      3.283
  Name = 
  2 active torsions:
  status: ('A' for Active; 'I' for Inactive)
    1  A    between atoms: N_11  and  C_28
    2  A    between atoms: C_28  and  O_30
                            x       y       z     vdW  Elec       q    Type
                         _______ _______ _______ _____ _____    ______ ____

>  <TORSDO>
F 2

$$$$
=
 OpenBabel11122410223D

 30 35  0  0  1  0  0  0  0  0999 V2000
  185.7560  178.6640  140.3360 C   0  0  0  0  0  0  0  0  0  0  0  0
  188.2300  178.4470  140.0570 C   0  0  0  0  0  0  0  0  0  0  0  0
  184.9950  177.1910  136.4070 C   0  0  0  0  0  2  0  0  0  0  0  0
  184.4650  178.5030  139.7830 C   0  0  0  0  0  0  0  0  0  0  0  0
  185.8720  179.2840  141.7010 C   0  0  0  0  0  2  0  0  0  0  0  0
  182.5340  178.4270  142.9150 O   0  0  0  0  0  0  0  0  0  0  0  0
  182.2410  180.1420  138.7980 C   0  0  1  0  0  3  0  0  0  0  0  0
  183.4870  178.6140  142.1110 C   0  0  0  0  0  0  0  0  0  0  0  0
  182.2930  179.2010  137.5960 C   0  0  2  0  0  3  0  0  0  0  0  0
  183.4570  177.2800  136.4900 C   0  0  1  0  0  3  0  0  0  0  0  0
  184.8180  178.8220  142.6060 N   0  0  0  0  0  0  0  0  0  0  0  0
  183.2230  178.5520  140.6330 C   0  0  1  0  0  3  0  0  0  0  0  0
  189.3170  178.0670  139.2650 C   0  0  0  0  0  3  0  0  0  0  0  0
  180.8590  178.8900  137.2420 C   0  0  0  0  0  2  0  0  0  0  0  0
  181.0160  180.9930  138.5060 C   0  0  0  0  0  2  0  0  0  0  0  0
  188.4910  178.9240  141.2990 F   0  0  0  0  0  0  0  0  0  0  0  0
  185.4320  177.6870  137.7380 C   0  0  0  0  0  0  0  0  0  0  0  0
  189.1210  177.5560  137.9820 C   0  0  0  0  0  3  0  0  0  0  0  0
  186.9070  178.3180  139.5640 C   0  0  0  0  0  0  0  0  0  0  0  0
  184.3500  178.0790  138.4620 C   0  0  0  0  0  0  0  0  0  0  0  0
  182.8700  175.8830  136.5600 C   0  0  0  0  0  1  0  0  0  0  0  0
  183.1420  178.0110  137.7210 N   0  0  0  0  0  0  0  0  0  0  0  0
  180.1020  180.1580  137.6080 C   0  0  0  0  0  2  0  0  0  0  0  0
  180.8700  178.7970  140.2980 O   0  0  0  0  0  1  0  0  0  0  0  0
  187.8310  177.4230  137.4750 C   0  0  0  0  0  3  0  0  0  0  0  0
  186.7270  177.7970  138.2490 C   0  0  0  0  0  0  0  0  0  0  0  0
  182.0870  179.4770  140.1840 C   0  0  2  0  0  3  0  0  0  0  0  0
  185.0690  178.7210  144.0440 C   0  0  0  0  0  2  0  0  0  0  0  0
  186.3660  177.9770  145.6680 C   0  0  0  0  0  1  0  0  0  0  0  0
  186.0600  177.7760  144.3230 O   0  0  0  0  0  0  0  0  0  0  0  0
  1  5  1  0  0  0  0
  2 16  1  0  0  0  0
  3 10  1  0  0  0  0
  3 17  1  0  0  0  0
  4  1  1  0  0  0  0
  5 11  1  0  0  0  0
  7 15  1  6  0  0  0
  7 27  1  0  0  0  0
  8 11  1  0  0  0  0
  8  6  2  0  0  0  0
  9 14  1  1  0  0  0
  9 22  1  0  0  0  0
  9  7  1  0  0  0  0
 10 21  1  1  0  0  0
 10 22  1  0  0  0  0
 11 28  1  0  0  0  0
 12  4  1  6  0  0  0
 12  8  1  0  0  0  0
 13  2  2  0  0  0  0
 14 23  1  0  0  0  0
 17 26  2  0  0  0  0
 17 20  1  0  0  0  0
 18 13  1  0  0  0  0
 19  2  1  0  0  0  0
 19  1  2  0  0  0  0
 20  4  2  0  0  0  0
 22 20  1  0  0  0  0
 23 15  1  0  0  0  0
 25 18  2  0  0  0  0
 25 26  1  0  0  0  0
 26 19  1  0  0  0  0
 27 24  1  6  0  0  0
 27 12  1  0  0  0  0
 28 30  1  0  0  0  0
 30 29  1  0  0  0  0
M  END
>  <MODEL>
5

>  <REMARK>
 VINA RESULT:      -6.7      2.512      5.285
  Name = 
  2 active torsions:
  status: ('A' for Active; 'I' for Inactive)
    1  A    between atoms: N_11  and  C_28
    2  A    between atoms: C_28  and  O_30
                            x       y       z     vdW  Elec       q    Type
                         _______ _______ _______ _____ _____    ______ ____

>  <TORSDO>
F 2

$$$$
=
 OpenBabel11122410223D

 30 35  0  0  1  0  0  0  0  0999 V2000
  187.2490  178.2220  140.3420 C   0  0  0  0  0  0  0  0  0  0  0  0
  185.0790  179.0010  139.3780 C   0  0  0  0  0  0  0  0  0  0  0  0
  185.7020  178.2370  144.3170 C   0  0  0  0  0  2  0  0  0  0  0  0
  187.9930  177.8560  141.4870 C   0  0  0  0  0  0  0  0  0  0  0  0
  187.9570  178.2590  139.0170 C   0  0  0  0  0  2  0  0  0  0  0  0
  190.6290  175.9000  139.8220 O   0  0  0  0  0  0  0  0  0  0  0  0
  190.1970  178.8700  143.1340 C   0  0  1  0  0  3  0  0  0  0  0  0
  189.6720  176.7030  139.9890 C   0  0  0  0  0  0  0  0  0  0  0  0
  189.2590  178.5540  144.2970 C   0  0  2  0  0  3  0  0  0  0  0  0
  186.9950  177.7490  145.0010 C   0  0  1  0  0  3  0  0  0  0  0  0
  188.8970  177.1480  138.8650 N   0  0  0  0  0  0  0  0  0  0  0  0
  189.3120  177.1360  141.3820 C   0  0  1  0  0  3  0  0  0  0  0  0
  183.7430  179.3610  139.5720 C   0  0  0  0  0  3  0  0  0  0  0  0
  190.1160  177.9320  145.3720 C   0  0  0  0  0  2  0  0  0  0  0  0
  191.4780  179.2870  143.8390 C   0  0  0  0  0  2  0  0  0  0  0  0
  185.5570  179.0130  138.1080 F   0  0  0  0  0  0  0  0  0  0  0  0
  186.0820  178.2920  142.8810 C   0  0  0  0  0  0  0  0  0  0  0  0
  183.1820  179.3590  140.8480 C   0  0  0  0  0  3  0  0  0  0  0  0
  185.8860  178.6270  140.4810 C   0  0  0  0  0  0  0  0  0  0  0  0
  187.3950  177.9700  142.7390 C   0  0  0  0  0  0  0  0  0  0  0  0
  186.8050  176.3270  145.4930 C   0  0  0  0  0  1  0  0  0  0  0  0
  188.0510  177.7840  143.9850 N   0  0  0  0  0  0  0  0  0  0  0  0
  191.4680  178.6100  145.2100 C   0  0  0  0  0  2  0  0  0  0  0  0
  191.1750  176.6630  142.8000 O   0  0  0  0  0  1  0  0  0  0  0  0
  183.9550  178.9970  141.9490 C   0  0  0  0  0  3  0  0  0  0  0  0
  185.2950  178.6340  141.7790 C   0  0  0  0  0  0  0  0  0  0  0  0
  190.5000  177.7080  142.1620 C   0  0  2  0  0  3  0  0  0  0  0  0
  189.1730  176.5860  137.5420 C   0  0  0  0  0  2  0  0  0  0  0  0
  189.0610  177.4840  135.5290 C   0  0  0  0  0  1  0  0  0  0  0  0
  189.7980  177.5200  136.7120 O   0  0  0  0  0  0  0  0  0  0  0  0
  1 19  2  0  0  0  0
  1  4  1  0  0  0  0
  2 13  2  0  0  0  0
  2 19  1  0  0  0  0
  3 10  1  0  0  0  0
  4 20  2  0  0  0  0
  5  1  1  0  0  0  0
  6  8  2  0  0  0  0
  7 15  1  1  0  0  0
  7  9  1  0  0  0  0
  9 14  1  1  0  0  0
 10 21  1  6  0  0  0
 11  5  1  0  0  0  0
 11  8  1  0  0  0  0
 12  8  1  6  0  0  0
 12  4  1  0  0  0  0
 12 27  1  0  0  0  0
 13 18  1  0  0  0  0
 15 23  1  0  0  0  0
 16  2  1  0  0  0  0
 17  3  1  0  0  0  0
 18 25  2  0  0  0  0
 19 26  1  0  0  0  0
 20 17  1  0  0  0  0
 20 22  1  0  0  0  0
 22  9  1  0  0  0  0
 22 10  1  0  0  0  0
 23 14  1  0  0  0  0
 26 25  1  0  0  0  0
 26 17  2  0  0  0  0
 27 24  1  1  0  0  0
 27  7  1  0  0  0  0
 28 11  1  0  0  0  0
 29 30  1  0  0  0  0
 30 28  1  0  0  0  0
M  END
>  <MODEL>
6

>  <REMARK>
 VINA RESULT:      -6.7      3.133      6.529
  Name = 
  2 active torsions:
  status: ('A' for Active; 'I' for Inactive)
    1  A    between atoms: N_11  and  C_28
    2  A    between atoms: C_28  and  O_30
                            x       y       z     vdW  Elec       q    Type
                         _______ _______ _______ _____ _____    ______ ____

>  <TORSDO>
F 2

$$$$
=
 OpenBabel11122410223D

 30 35  0  0  1  0  0  0  0  0999 V2000
  185.8600  178.1830  141.8240 C   0  0  0  0  0  0  0  0  0  0  0  0
  185.3120  178.3030  144.2600 C   0  0  0  0  0  0  0  0  0  0  0  0
  181.8870  179.2380  140.6870 C   0  0  0  0  0  2  0  0  0  0  0  0
  185.4240  178.3160  140.4860 C   0  0  0  0  0  0  0  0  0  0  0  0
  187.2660  177.7120  142.0700 C   0  0  0  0  0  2  0  0  0  0  0  0
  188.7050  178.7840  138.8870 O   0  0  0  0  0  0  0  0  0  0  0  0
  184.8550  176.6390  138.1490 C   0  0  1  0  0  3  0  0  0  0  0  0
  187.8360  178.4850  139.7490 C   0  0  0  0  0  0  0  0  0  0  0  0
  183.5570  177.4420  138.0910 C   0  0  2  0  0  3  0  0  0  0  0  0
  182.1330  179.1990  139.1650 C   0  0  1  0  0  3  0  0  0  0  0  0
  188.2150  178.2970  141.1210 N   0  0  0  0  0  0  0  0  0  0  0  0
  186.3950  178.3930  139.3360 C   0  0  1  0  0  3  0  0  0  0  0  0
  184.3780  178.5660  145.2650 C   0  0  0  0  0  3  0  0  0  0  0  0
  183.3160  177.7490  136.6330 C   0  0  0  0  0  2  0  0  0  0  0  0
  184.7840  175.7940  136.8870 C   0  0  0  0  0  2  0  0  0  0  0  0
  186.5670  177.9570  144.6390 F   0  0  0  0  0  0  0  0  0  0  0  0
  183.2140  178.8790  141.2510 C   0  0  0  0  0  0  0  0  0  0  0  0
  183.0720  178.9380  144.9460 C   0  0  0  0  0  3  0  0  0  0  0  0
  184.9430  178.4120  142.8960 C   0  0  0  0  0  0  0  0  0  0  0  0
  184.0820  178.5970  140.2430 C   0  0  0  0  0  0  0  0  0  0  0  0
  182.1060  180.6100  138.6090 C   0  0  0  0  0  1  0  0  0  0  0  0
  183.4630  178.6150  138.9660 N   0  0  0  0  0  0  0  0  0  0  0  0
  183.8940  176.5500  135.8980 C   0  0  0  0  0  2  0  0  0  0  0  0
  186.3260  178.1750  136.9590 O   0  0  0  0  0  1  0  0  0  0  0  0
  182.6850  179.0500  143.6140 C   0  0  0  0  0  3  0  0  0  0  0  0
  183.6020  178.7910  142.5890 C   0  0  0  0  0  0  0  0  0  0  0  0
  186.1660  177.4550  138.1470 C   0  0  2  0  0  3  0  0  0  0  0  0
  189.6010  178.5490  141.5200 C   0  0  0  0  0  2  0  0  0  0  0  0
  191.1990  177.8430  142.8680 C   0  0  0  0  0  1  0  0  0  0  0  0
  189.8360  178.1350  142.8330 O   0  0  0  0  0  0  0  0  0  0  0  0
  1  5  1  0  0  0  0
  1 19  1  0  0  0  0
  2 16  1  0  0  0  0
  2 13  1  0  0  0  0
  3 17  1  0  0  0  0
  4  1  2  0  0  0  0
  6  8  2  0  0  0  0
  7 15  1  6  0  0  0
  8 11  1  0  0  0  0
  9 14  1  6  0  0  0
  9  7  1  0  0  0  0
  9 22  1  0  0  0  0
 10 21  1  1  0  0  0
 10  3  1  0  0  0  0
 11 28  1  0  0  0  0
 11  5  1  0  0  0  0
 12  8  1  1  0  0  0
 12  4  1  0  0  0  0
 17 26  1  0  0  0  0
 18 13  2  0  0  0  0
 19  2  2  0  0  0  0
 20  4  1  0  0  0  0
 20 17  2  0  0  0  0
 22 10  1  0  0  0  0
 22 20  1  0  0  0  0
 23 14  1  0  0  0  0
 23 15  1  0  0  0  0
 25 18  1  0  0  0  0
 26 19  1  0  0  0  0
 26 25  2  0  0  0  0
 27 24  1  6  0  0  0
 27  7  1  0  0  0  0
 27 12  1  0  0  0  0
 28 30  1  0  0  0  0
 30 29  1  0  0  0  0
M  END
>  <MODEL>
7

>  <REMARK>
 VINA RESULT:      -6.7      1.861      2.518
  Name = 
  2 active torsions:
  status: ('A' for Active; 'I' for Inactive)
    1  A    between atoms: N_11  and  C_28
    2  A    between atoms: C_28  and  O_30
                            x       y       z     vdW  Elec       q    Type
                         _______ _______ _______ _____ _____    ______ ____

>  <TORSDO>
F 2

$$$$
=
 OpenBabel11122410223D

 30 35  0  0  1  0  0  0  0  0999 V2000
  188.0220  178.1390  140.5010 C   0  0  0  0  0  0  0  0  0  0  0  0
  189.1260  178.4320  138.2770 C   0  0  0  0  0  0  0  0  0  0  0  0
  184.1190  178.2410  138.7850 C   0  0  0  0  0  2  0  0  0  0  0  0
  186.8240  178.0140  141.2410 C   0  0  0  0  0  0  0  0  0  0  0  0
  189.3220  178.1790  141.2540 C   0  0  0  0  0  2  0  0  0  0  0  0
  188.2060  176.4110  144.2510 O   0  0  0  0  0  0  0  0  0  0  0  0
  185.2160  179.5460  143.1550 C   0  0  1  0  0  3  0  0  0  0  0  0
  188.1490  177.0450  143.1630 C   0  0  0  0  0  0  0  0  0  0  0  0
  184.0580  179.1770  142.2300 C   0  0  2  0  0  3  0  0  0  0  0  0
  183.3500  178.0530  140.1080 C   0  0  1  0  0  3  0  0  0  0  0  0
  189.3350  177.2420  142.3780 N   0  0  0  0  0  0  0  0  0  0  0  0
  186.8170  177.5320  142.6680 C   0  0  1  0  0  3  0  0  0  0  0  0
  189.0100  178.5670  136.8910 C   0  0  0  0  0  3  0  0  0  0  0  0
  182.9000  178.8160  143.1290 C   0  0  0  0  0  2  0  0  0  0  0  0
  184.5150  180.2450  144.3090 C   0  0  0  0  0  2  0  0  0  0  0  0
  190.3750  178.4130  138.8070 F   0  0  0  0  0  0  0  0  0  0  0  0
  185.5410  178.2310  139.2180 C   0  0  0  0  0  0  0  0  0  0  0  0
  187.7580  178.5810  136.2790 C   0  0  0  0  0  3  0  0  0  0  0  0
  187.9670  178.3070  139.0830 C   0  0  0  0  0  0  0  0  0  0  0  0
  185.6090  178.1340  140.5730 C   0  0  0  0  0  0  0  0  0  0  0  0
  182.7270  176.6700  140.1430 C   0  0  0  0  0  1  0  0  0  0  0  0
  184.3310  178.1810  141.1900 N   0  0  0  0  0  0  0  0  0  0  0  0
  183.0850  179.7040  144.3510 C   0  0  0  0  0  2  0  0  0  0  0  0
  185.3010  177.5260  144.5140 O   0  0  0  0  0  1  0  0  0  0  0  0
  186.6040  178.4630  137.0490 C   0  0  0  0  0  3  0  0  0  0  0  0
  186.6940  178.3280  138.4380 C   0  0  0  0  0  0  0  0  0  0  0  0
  186.0590  178.3730  143.7000 C   0  0  2  0  0  3  0  0  0  0  0  0
  190.5870  176.6190  142.8100 C   0  0  0  0  0  2  0  0  0  0  0  0
  191.6360  178.0680  144.1030 C   0  0  0  0  0  1  0  0  0  0  0  0
  191.6390  177.5390  142.8130 O   0  0  0  0  0  0  0  0  0  0  0  0
  1  4  1  0  0  0  0
  1  5  1  0  0  0  0
  2 16  1  0  0  0  0
  2 19  1  0  0  0  0
  3 17  1  0  0  0  0
  3 10  1  0  0  0  0
  5 11  1  0  0  0  0
  7 27  1  0  0  0  0
  7 15  1  1  0  0  0
  8  6  2  0  0  0  0
  9 14  1  1  0  0  0
  9  7  1  0  0  0  0
 10 21  1  6  0  0  0
 10 22  1  0  0  0  0
 11 28  1  0  0  0  0
 11  8  1  0  0  0  0
 12  4  1  6  0  0  0
 12  8  1  0  0  0  0
 12 27  1  0  0  0  0
 13  2  2  0  0  0  0
 14 23  1  0  0  0  0
 15 23  1  0  0  0  0
 17 20  1  0  0  0  0
 18 13  1  0  0  0  0
 18 25  2  0  0  0  0
 19  1  2  0  0  0  0
 20 22  1  0  0  0  0
 20  4  2  0  0  0  0
 22  9  1  0  0  0  0
 25 26  1  0  0  0  0
 26 19  1  0  0  0  0
 26 17  2  0  0  0  0
 27 24  1  6  0  0  0
 28 30  1  0  0  0  0
 30 29  1  0  0  0  0
M  END
>  <MODEL>
8

>  <REMARK>
 VINA RESULT:      -6.6      2.717      5.695
  Name = 
  2 active torsions:
  status: ('A' for Active; 'I' for Inactive)
    1  A    between atoms: N_11  and  C_28
    2  A    between atoms: C_28  and  O_30
                            x       y       z     vdW  Elec       q    Type
                         _______ _______ _______ _____ _____    ______ ____

>  <TORSDO>
F 2

$$$$
=
 OpenBabel11122410223D

 30 35  0  0  1  0  0  0  0  0999 V2000
  184.5550  178.2750  141.1500 C   0  0  0  0  0  0  0  0  0  0  0  0
  183.6600  178.5860  143.4630 C   0  0  0  0  0  0  0  0  0  0  0  0
  180.7410  178.9820  139.3780 C   0  0  0  0  0  2  0  0  0  0  0  0
  184.3090  178.2590  139.7590 C   0  0  0  0  0  0  0  0  0  0  0  0
  185.9320  177.9150  141.6330 C   0  0  0  0  0  2  0  0  0  0  0  0
  187.7600  178.7740  138.5880 O   0  0  0  0  0  0  0  0  0  0  0  0
  184.1580  176.3430  137.5440 C   0  0  1  0  0  3  0  0  0  0  0  0
  186.7920  178.5040  139.3480 C   0  0  0  0  0  0  0  0  0  0  0  0
  182.8450  177.0580  137.2290 C   0  0  2  0  0  3  0  0  0  0  0  0
  181.2030  178.8190  137.9160 C   0  0  1  0  0  3  0  0  0  0  0  0
  186.9790  178.4660  140.7710 N   0  0  0  0  0  0  0  0  0  0  0  0
  185.4290  178.2880  138.7520 C   0  0  1  0  0  3  0  0  0  0  0  0
  182.5810  178.8840  144.3000 C   0  0  0  0  0  3  0  0  0  0  0  0
  182.8010  177.2160  135.7280 C   0  0  0  0  0  2  0  0  0  0  0  0
  184.3060  175.3830  136.3740 C   0  0  0  0  0  2  0  0  0  0  0  0
  184.8640  178.3520  144.0450 F   0  0  0  0  0  0  0  0  0  0  0  0
  181.9890  178.7560  140.1530 C   0  0  0  0  0  0  0  0  0  0  0  0
  181.3190  179.1470  143.7690 C   0  0  0  0  0  3  0  0  0  0  0  0
  183.4850  178.5470  142.0580 C   0  0  0  0  0  0  0  0  0  0  0  0
  183.0040  178.4350  139.3070 C   0  0  0  0  0  0  0  0  0  0  0  0
  181.1910  180.1680  137.2240 C   0  0  0  0  0  1  0  0  0  0  0  0
  182.5730  178.2990  137.9610 N   0  0  0  0  0  0  0  0  0  0  0  0
  183.5330  175.9900  135.2030 C   0  0  0  0  0  2  0  0  0  0  0  0
  185.7110  177.8480  136.4210 O   0  0  0  0  0  1  0  0  0  0  0  0
  181.1210  179.1120  142.3910 C   0  0  0  0  0  3  0  0  0  0  0  0
  182.1860  178.8150  141.5330 C   0  0  0  0  0  0  0  0  0  0  0  0
  185.4170  177.2330  137.6410 C   0  0  2  0  0  3  0  0  0  0  0  0
  188.2800  178.8350  141.3290 C   0  0  0  0  0  2  0  0  0  0  0  0
  189.6880  177.1360  141.3170 C   0  0  0  0  0  1  0  0  0  0  0  0
  188.7940  177.8190  142.1390 O   0  0  0  0  0  0  0  0  0  0  0  0
  1  5  1  0  0  0  0
  1 19  1  0  0  0  0
  2 16  1  0  0  0  0
  2 13  1  0  0  0  0
  3 17  1  0  0  0  0
  4  1  2  0  0  0  0
  6  8  2  0  0  0  0
  7 15  1  6  0  0  0
  7 27  1  0  0  0  0
  8 11  1  0  0  0  0
  9 14  1  6  0  0  0
  9  7  1  0  0  0  0
  9 22  1  0  0  0  0
 10 21  1  1  0  0  0
 10 22  1  0  0  0  0
 10  3  1  0  0  0  0
 11 28  1  0  0  0  0
 11  5  1  0  0  0  0
 12  8  1  1  0  0  0
 12  4  1  0  0  0  0
 17 26  1  0  0  0  0
 18 13  2  0  0  0  0
 19  2  2  0  0  0  0
 20  4  1  0  0  0  0
 20 17  2  0  0  0  0
 22 20  1  0  0  0  0
 23 14  1  0  0  0  0
 23 15  1  0  0  0  0
 25 18  1  0  0  0  0
 26 19  1  0  0  0  0
 26 25  2  0  0  0  0
 27 24  1  6  0  0  0
 27 12  1  0  0  0  0
 28 30  1  0  0  0  0
 29 30  1  0  0  0  0
M  END
>  <MODEL>
9

>  <REMARK>
 VINA RESULT:      -6.5      1.951      2.986
  Name = 
  2 active torsions:
  status: ('A' for Active; 'I' for Inactive)
    1  A    between atoms: N_11  and  C_28
    2  A    between atoms: C_28  and  O_30
                            x       y       z     vdW  Elec       q    Type
                         _______ _______ _______ _____ _____    ______ ____

>  <TORSDO>
F 2

$$$$
