=
 OpenBabel11122411173D

 31 35  0  0  1  0  0  0  0  0999 V2000
  190.1220  175.8930  142.8530 C   0  0  0  0  0  0  0  0  0  0  0  0
  186.7390  177.0730  144.1380 C   0  0  2  0  0  3  0  0  0  0  0  0
  187.0070  177.7880  145.4570 C   0  0  0  0  0  0  0  0  0  0  0  0
  188.4260  178.1210  147.4100 C   0  0  0  0  0  0  0  0  0  0  0  0
  187.9680  176.9410  143.2660 C   0  0  0  0  0  0  0  0  0  0  0  0
  190.3100  176.7080  141.7370 C   0  0  0  0  0  3  0  0  0  0  0  0
  188.1970  177.5400  146.1620 C   0  0  0  0  0  3  0  0  0  0  0  0
  185.9930  178.9660  142.6410 C   0  0  2  0  0  3  0  0  0  0  0  0
  191.0710  174.9930  143.2040 F   0  0  0  0  0  0  0  0  0  0  0  0
  184.7210  178.9190  145.3780 C   0  0  0  0  0  2  0  0  0  0  0  0
  189.5860  177.8820  148.0660 F   0  0  0  0  0  0  0  0  0  0  0  0
  187.0760  178.6600  141.6080 C   0  0  0  0  0  2  0  0  0  0  0  0
  185.5590  177.6770  143.3560 C   0  0  2  0  0  3  0  0  0  0  0  0
  188.9550  176.0070  143.6120 C   0  0  0  0  0  3  0  0  0  0  0  0
  187.4570  178.9430  147.9850 C   0  0  0  0  0  3  0  0  0  0  0  0
  188.1590  177.7590  142.1290 C   0  0  0  0  0  0  0  0  0  0  0  0
  189.3270  177.6290  141.3710 C   0  0  0  0  0  3  0  0  0  0  0  0
  184.3730  177.9020  144.2950 C   0  0  0  0  0  2  0  0  0  0  0  0
  186.0130  178.5940  146.0670 C   0  0  0  0  0  0  0  0  0  0  0  0
  186.2560  179.1790  147.3130 C   0  0  0  0  0  3  0  0  0  0  0  0
  184.1480  177.6190  140.9360 O   0  0  0  0  0  0  0  0  0  0  0  0
  183.9630  178.8500  141.1370 C   0  0  0  0  0  0  0  0  0  0  0  0
  184.8560  179.5860  141.9750 N   0  0  0  0  0  2  0  0  0  0  0  0
  181.5470  177.9700  138.3560 C   0  0  1  0  0  3  0  0  0  0  0  0
  181.4830  178.8380  140.7110 C   0  0  0  0  0  2  0  0  0  0  0  0
  184.2810  180.4730  138.7940 O   0  0  0  0  0  1  0  0  0  0  0  0
  181.4460  176.8230  137.5700 O   0  0  0  0  0  1  0  0  0  0  0  0
  181.3660  177.5970  139.8250 C   0  0  0  0  0  2  0  0  0  0  0  0
  183.0380  179.8710  138.9990 C   0  0  2  0  0  3  0  0  0  0  0  0
  182.8130  179.5680  140.4900 C   0  0  2  0  0  3  0  0  0  0  0  0
  182.9120  178.6150  138.1390 C   0  0  0  0  0  2  0  0  0  0  0  0
  1  9  1  0  0  0  0
  1 14  1  0  0  0  0
  2  5  1  6  0  0  0
  2  3  1  0  0  0  0
  3 19  2  0  0  0  0
  3  7  1  0  0  0  0
  4 15  1  0  0  0  0
  4 11  1  0  0  0  0
  5 14  2  0  0  0  0
  6  1  2  0  0  0  0
  7  4  2  0  0  0  0
  8 23  1  6  0  0  0
  8 13  1  0  0  0  0
 10 19  1  0  0  0  0
 12 16  1  0  0  0  0
 12  8  1  0  0  0  0
 13  2  1  0  0  0  0
 13 18  1  1  0  0  0
 16  5  1  0  0  0  0
 17  6  1  0  0  0  0
 17 16  2  0  0  0  0
 18 10  1  0  0  0  0
 19 20  1  0  0  0  0
 20 15  2  0  0  0  0
 21 22  2  0  0  0  0
 22 23  1  0  0  0  0
 24 27  1  6  0  0  0
 24 28  1  0  0  0  0
 28 25  1  0  0  0  0
 29 26  1  1  0  0  0
 29 30  1  0  0  0  0
 30 25  1  0  0  0  0
 30 22  1  6  0  0  0
 31 24  1  0  0  0  0
 31 29  1  0  0  0  0
M  END
>  <MODEL>
1

>  <REMARK>
 VINA RESULT:      -9.9      0.000      0.000
  Name = 
  2 active torsions:
  status: ('A' for Active; 'I' for Inactive)
    1  A    between atoms: C_5  and  C_30
    2  A    between atoms: C_10  and  N_16
                            x       y       z     vdW  Elec       q    Type
                         _______ _______ _______ _____ _____    ______ ____

>  <TORSDO>
F 2

$$$$
=
 OpenBabel11122411173D

 31 35  0  0  1  0  0  0  0  0999 V2000
  191.3850  176.9260  145.3380 C   0  0  0  0  0  0  0  0  0  0  0  0
  187.8190  177.0910  144.0190 C   0  0  2  0  0  3  0  0  0  0  0  0
  187.0220  177.8970  145.0380 C   0  0  0  0  0  0  0  0  0  0  0  0
  186.7470  178.7020  147.3210 C   0  0  0  0  0  0  0  0  0  0  0  0
  189.3130  177.3010  144.1230 C   0  0  0  0  0  0  0  0  0  0  0  0
  192.0720  177.7220  144.4210 C   0  0  0  0  0  3  0  0  0  0  0  0
  187.4990  178.0380  146.3510 C   0  0  0  0  0  3  0  0  0  0  0  0
  187.8370  178.6250  142.0120 C   0  0  2  0  0  3  0  0  0  0  0  0
  192.0480  176.3610  146.3760 F   0  0  0  0  0  0  0  0  0  0  0  0
  185.1510  178.2940  143.3480 C   0  0  0  0  0  2  0  0  0  0  0  0
  187.2320  178.8410  148.5770 F   0  0  0  0  0  0  0  0  0  0  0  0
  189.3630  178.6190  141.9430 C   0  0  0  0  0  2  0  0  0  0  0  0
  187.3250  177.2900  142.5750 C   0  0  2  0  0  3  0  0  0  0  0  0
  190.0130  176.7130  145.1870 C   0  0  0  0  0  3  0  0  0  0  0  0
  185.4920  179.2180  146.9970 C   0  0  0  0  0  3  0  0  0  0  0  0
  190.0150  178.0990  143.1920 C   0  0  0  0  0  0  0  0  0  0  0  0
  191.3910  178.2970  143.3460 C   0  0  0  0  0  3  0  0  0  0  0  0
  185.8000  177.1840  142.5280 C   0  0  0  0  0  2  0  0  0  0  0  0
  185.7300  178.3910  144.7290 C   0  0  0  0  0  0  0  0  0  0  0  0
  184.9870  179.0640  145.7040 C   0  0  0  0  0  3  0  0  0  0  0  0
  188.6060  177.2160  139.6560 O   0  0  0  0  0  0  0  0  0  0  0  0
  187.7210  178.1080  139.5400 C   0  0  0  0  0  0  0  0  0  0  0  0
  187.2970  178.8570  140.6800 N   0  0  0  0  0  2  0  0  0  0  0  0
  188.0050  176.5340  136.1060 C   0  0  1  0  0  3  0  0  0  0  0  0
  186.2160  177.2680  137.7070 C   0  0  0  0  0  2  0  0  0  0  0  0
  188.9970  179.8030  137.6090 O   0  0  0  0  0  1  0  0  0  0  0  0
  188.7510  175.4420  135.6670 O   0  0  0  0  0  1  0  0  0  0  0  0
  187.0410  176.0840  137.1990 C   0  0  0  0  0  2  0  0  0  0  0  0
  188.1400  178.8110  137.1310 C   0  0  2  0  0  3  0  0  0  0  0  0
  187.1100  178.4100  138.2010 C   0  0  2  0  0  3  0  0  0  0  0  0
  188.9460  177.6090  136.6410 C   0  0  0  0  0  2  0  0  0  0  0  0
  1  9  1  0  0  0  0
  2  5  1  6  0  0  0
  2  3  1  0  0  0  0
  3  7  1  0  0  0  0
  4 11  1  0  0  0  0
  5 14  2  0  0  0  0
  6  1  2  0  0  0  0
  7  4  2  0  0  0  0
  8 23  1  6  0  0  0
  8 13  1  0  0  0  0
 10 19  1  0  0  0  0
 12  8  1  0  0  0  0
 12 16  1  0  0  0  0
 13 18  1  1  0  0  0
 13  2  1  0  0  0  0
 14  1  1  0  0  0  0
 15  4  1  0  0  0  0
 16 17  2  0  0  0  0
 16  5  1  0  0  0  0
 17  6  1  0  0  0  0
 18 10  1  0  0  0  0
 19  3  2  0  0  0  0
 19 20  1  0  0  0  0
 20 15  2  0  0  0  0
 22 21  2  0  0  0  0
 22 23  1  0  0  0  0
 24 27  1  1  0  0  0
 24 31  1  0  0  0  0
 24 28  1  0  0  0  0
 25 30  1  0  0  0  0
 28 25  1  0  0  0  0
 29 26  1  1  0  0  0
 29 30  1  0  0  0  0
 30 22  1  1  0  0  0
 31 29  1  0  0  0  0
M  END
>  <MODEL>
2

>  <REMARK>
 VINA RESULT:      -9.5      3.099      3.807
  Name = 
  2 active torsions:
  status: ('A' for Active; 'I' for Inactive)
    1  A    between atoms: C_5  and  C_30
    2  A    between atoms: C_10  and  N_16
                            x       y       z     vdW  Elec       q    Type
                         _______ _______ _______ _____ _____    ______ ____

>  <TORSDO>
F 2

$$$$
=
 OpenBabel11122411173D

 31 35  0  0  1  0  0  0  0  0999 V2000
  186.6160  178.1660  147.1570 C   0  0  0  0  0  0  0  0  0  0  0  0
  189.7030  178.2560  144.9320 C   0  0  2  0  0  3  0  0  0  0  0  0
  190.5410  177.0410  145.3130 C   0  0  0  0  0  0  0  0  0  0  0  0
  191.1620  175.3560  146.9590 C   0  0  0  0  0  0  0  0  0  0  0  0
  188.2570  178.1470  145.3640 C   0  0  0  0  0  0  0  0  0  0  0  0
  185.6050  177.8730  146.2410 C   0  0  0  0  0  3  0  0  0  0  0  0
  190.3510  176.4180  146.5570 C   0  0  0  0  0  3  0  0  0  0  0  0
  188.9510  177.6790  142.5910 C   0  0  2  0  0  3  0  0  0  0  0  0
  186.3200  178.3130  148.4700 F   0  0  0  0  0  0  0  0  0  0  0  0
  191.8800  177.2120  143.1470 C   0  0  0  0  0  2  0  0  0  0  0  0
  190.9520  174.7590  148.1560 F   0  0  0  0  0  0  0  0  0  0  0  0
  187.4770  177.8400  142.9570 C   0  0  0  0  0  2  0  0  0  0  0  0
  189.8170  178.6220  143.4410 C   0  0  2  0  0  3  0  0  0  0  0  0
  187.9350  178.3060  146.7190 C   0  0  0  0  0  3  0  0  0  0  0  0
  192.1940  174.9140  146.1310 C   0  0  0  0  0  3  0  0  0  0  0  0
  187.2290  177.8590  144.4380 C   0  0  0  0  0  0  0  0  0  0  0  0
  185.9100  177.7310  144.8860 C   0  0  0  0  0  3  0  0  0  0  0  0
  191.2850  178.6100  143.0130 C   0  0  0  0  0  2  0  0  0  0  0  0
  191.6160  176.6100  144.4950 C   0  0  0  0  0  0  0  0  0  0  0  0
  192.4170  175.5390  144.9020 C   0  0  0  0  0  3  0  0  0  0  0  0
  190.2790  175.9860  140.7210 O   0  0  0  0  0  0  0  0  0  0  0  0
  189.7980  177.0690  140.2880 C   0  0  0  0  0  0  0  0  0  0  0  0
  189.1270  177.9660  141.1740 N   0  0  0  0  0  2  0  0  0  0  0  0
  187.4930  176.8500  137.2890 C   0  0  1  0  0  3  0  0  0  0  0  0
  188.9500  178.5450  138.4340 C   0  0  0  0  0  2  0  0  0  0  0  0
  190.6920  175.2110  138.2950 O   0  0  0  0  0  1  0  0  0  0  0  0
  186.1900  176.3690  137.1790 O   0  0  0  0  0  1  0  0  0  0  0  0
  187.5260  178.0040  138.2870 C   0  0  0  0  0  2  0  0  0  0  0  0
  189.8450  176.2400  137.8830 C   0  0  2  0  0  3  0  0  0  0  0  0
  189.9350  177.4420  138.8390 C   0  0  2  0  0  3  0  0  0  0  0  0
  188.4130  175.7250  137.7540 C   0  0  0  0  0  2  0  0  0  0  0  0
  1  9  1  0  0  0  0
  2  3  1  6  0  0  0
  2  5  1  0  0  0  0
  3  7  1  0  0  0  0
  4 11  1  0  0  0  0
  5 14  2  0  0  0  0
  6  1  2  0  0  0  0
  7  4  2  0  0  0  0
  8 23  1  6  0  0  0
  8 12  1  0  0  0  0
  8 13  1  0  0  0  0
 10 19  1  0  0  0  0
 12 16  1  0  0  0  0
 13 18  1  6  0  0  0
 13  2  1  0  0  0  0
 14  1  1  0  0  0  0
 15  4  1  0  0  0  0
 16 17  2  0  0  0  0
 16  5  1  0  0  0  0
 17  6  1  0  0  0  0
 18 10  1  0  0  0  0
 19 20  1  0  0  0  0
 19  3  2  0  0  0  0
 20 15  2  0  0  0  0
 22 21  2  0  0  0  0
 22 23  1  0  0  0  0
 24 27  1  1  0  0  0
 24 31  1  0  0  0  0
 24 28  1  0  0  0  0
 25 30  1  0  0  0  0
 28 25  1  0  0  0  0
 29 26  1  1  0  0  0
 29 30  1  0  0  0  0
 30 22  1  1  0  0  0
 31 29  1  0  0  0  0
M  END
>  <MODEL>
3

>  <REMARK>
 VINA RESULT:      -8.5      3.435      5.727
  Name = 
  2 active torsions:
  status: ('A' for Active; 'I' for Inactive)
    1  A    between atoms: C_5  and  C_30
    2  A    between atoms: C_10  and  N_16
                            x       y       z     vdW  Elec       q    Type
                         _______ _______ _______ _____ _____    ______ ____

>  <TORSDO>
F 2

$$$$
=
 OpenBabel11122411173D

 31 35  0  0  1  0  0  0  0  0999 V2000
  193.4550  175.3920  135.7560 C   0  0  0  0  0  0  0  0  0  0  0  0
  190.1570  176.9100  136.8960 C   0  0  2  0  0  3  0  0  0  0  0  0
  189.0920  175.8450  136.6640 C   0  0  0  0  0  0  0  0  0  0  0  0
  188.3400  173.8570  135.4730 C   0  0  0  0  0  0  0  0  0  0  0  0
  191.5630  176.3550  136.9400 C   0  0  0  0  0  0  0  0  0  0  0  0
  194.1370  175.2360  136.9630 C   0  0  0  0  0  3  0  0  0  0  0  0
  189.3310  174.7970  135.7610 C   0  0  0  0  0  3  0  0  0  0  0  0
  190.2350  177.0550  139.4170 C   0  0  2  0  0  3  0  0  0  0  0  0
  194.0320  174.9990  134.5950 F   0  0  0  0  0  0  0  0  0  0  0  0
  187.4650  177.0480  138.2190 C   0  0  0  0  0  2  0  0  0  0  0  0
  188.5960  172.8450  134.6100 F   0  0  0  0  0  0  0  0  0  0  0  0
  191.7340  176.7610  139.4500 C   0  0  0  0  0  2  0  0  0  0  0  0
  189.8660  177.7950  138.1220 C   0  0  2  0  0  3  0  0  0  0  0  0
  192.1760  175.9520  135.7440 C   0  0  0  0  0  3  0  0  0  0  0  0
  187.0830  173.9640  136.0680 C   0  0  0  0  0  3  0  0  0  0  0  0
  192.2610  176.2030  138.1590 C   0  0  0  0  0  0  0  0  0  0  0  0
  193.5460  175.6500  138.1580 C   0  0  0  0  0  3  0  0  0  0  0  0
  188.4040  178.2440  138.1040 C   0  0  0  0  0  2  0  0  0  0  0  0
  187.8000  175.9670  137.2350 C   0  0  0  0  0  0  0  0  0  0  0  0
  186.8160  175.0150  136.9480 C   0  0  0  0  0  3  0  0  0  0  0  0
  190.0800  176.0890  142.0950 O   0  0  0  0  0  0  0  0  0  0  0  0
  189.8250  177.3090  141.8990 C   0  0  0  0  0  0  0  0  0  0  0  0
  189.8770  177.8550  140.5800 N   0  0  0  0  0  2  0  0  0  0  0  0
  190.9930  177.6180  145.4890 C   0  0  1  0  0  3  0  0  0  0  0  0
  190.6170  179.0900  143.4900 C   0  0  0  0  0  2  0  0  0  0  0  0
  187.8160  176.5970  143.8180 O   0  0  0  0  0  1  0  0  0  0  0  0
  191.9520  176.8960  146.1970 O   0  0  0  0  0  1  0  0  0  0  0  0
  191.6520  178.2970  144.2910 C   0  0  0  0  0  2  0  0  0  0  0  0
  188.8340  177.4530  144.2380 C   0  0  2  0  0  3  0  0  0  0  0  0
  189.4480  178.2050  143.0440 C   0  0  2  0  0  3  0  0  0  0  0  0
  189.8900  176.6750  145.0200 C   0  0  0  0  0  2  0  0  0  0  0  0
  1  6  1  0  0  0  0
  2  3  1  1  0  0  0
  2  5  1  0  0  0  0
  2 13  1  0  0  0  0
  3 19  1  0  0  0  0
  4  7  1  0  0  0  0
  4 15  2  0  0  0  0
  5 16  2  0  0  0  0
  6 17  2  0  0  0  0
  7  3  2  0  0  0  0
  8 12  1  0  0  0  0
  8 23  1  1  0  0  0
  9  1  1  0  0  0  0
 11  4  1  0  0  0  0
 13 18  1  1  0  0  0
 13  8  1  0  0  0  0
 14  1  2  0  0  0  0
 14  5  1  0  0  0  0
 15 20  1  0  0  0  0
 16 12  1  0  0  0  0
 17 16  1  0  0  0  0
 18 10  1  0  0  0  0
 19 10  1  0  0  0  0
 20 19  2  0  0  0  0
 22 21  2  0  0  0  0
 23 22  1  0  0  0  0
 24 27  1  6  0  0  0
 25 28  1  0  0  0  0
 28 24  1  0  0  0  0
 29 26  1  6  0  0  0
 29 31  1  0  0  0  0
 30 22  1  6  0  0  0
 30 25  1  0  0  0  0
 30 29  1  0  0  0  0
 31 24  1  0  0  0  0
M  END
>  <MODEL>
4

>  <REMARK>
 VINA RESULT:      -8.3      5.275      9.047
  Name = 
  2 active torsions:
  status: ('A' for Active; 'I' for Inactive)
    1  A    between atoms: C_5  and  C_30
    2  A    between atoms: C_10  and  N_16
                            x       y       z     vdW  Elec       q    Type
                         _______ _______ _______ _____ _____    ______ ____

>  <TORSDO>
F 2

$$$$
=
 OpenBabel11122411173D

 31 35  0  0  1  0  0  0  0  0999 V2000
  183.6110  178.8590  144.5160 C   0  0  0  0  0  0  0  0  0  0  0  0
  182.6130  178.1060  140.9210 C   0  0  2  0  0  3  0  0  0  0  0  0
  181.5080  179.0940  140.5670 C   0  0  0  0  0  0  0  0  0  0  0  0
  179.7080  180.5710  141.2850 C   0  0  0  0  0  0  0  0  0  0  0  0
  183.4410  178.5320  142.1130 C   0  0  0  0  0  0  0  0  0  0  0  0
  184.8930  179.3870  144.3580 C   0  0  0  0  0  3  0  0  0  0  0  0
  180.7770  179.7260  141.5860 C   0  0  0  0  0  3  0  0  0  0  0  0
  184.5140  178.8720  139.4440 C   0  0  2  0  0  3  0  0  0  0  0  0
  183.0640  178.7640  145.7510 F   0  0  0  0  0  0  0  0  0  0  0  0
  181.8340  178.6560  138.0740 C   0  0  0  0  0  2  0  0  0  0  0  0
  179.0260  181.1820  142.2820 F   0  0  0  0  0  0  0  0  0  0  0  0
  185.4540  179.0440  140.6360 C   0  0  0  0  0  2  0  0  0  0  0  0
  183.5060  177.7460  139.7190 C   0  0  2  0  0  3  0  0  0  0  0  0
  182.8900  178.4300  143.3990 C   0  0  0  0  0  3  0  0  0  0  0  0
  179.3380  180.7800  139.9560 C   0  0  0  0  0  3  0  0  0  0  0  0
  184.7440  179.0600  141.9590 C   0  0  0  0  0  0  0  0  0  0  0  0
  185.4600  179.4760  143.0850 C   0  0  0  0  0  3  0  0  0  0  0  0
  182.6360  177.4320  138.5010 C   0  0  0  0  0  2  0  0  0  0  0  0
  181.1000  179.2830  139.2230 C   0  0  0  0  0  0  0  0  0  0  0  0
  180.0340  180.1390  138.9300 C   0  0  0  0  0  3  0  0  0  0  0  0
  187.3020  178.2780  139.4150 O   0  0  0  0  0  0  0  0  0  0  0  0
  186.6940  178.2760  138.3100 C   0  0  0  0  0  0  0  0  0  0  0  0
  185.2980  178.5730  138.2540 N   0  0  0  0  0  2  0  0  0  0  0  0
  189.6610  176.0900  137.4330 C   0  0  1  0  0  3  0  0  0  0  0  0
  187.3150  176.5000  136.6380 C   0  0  0  0  0  2  0  0  0  0  0  0
  188.9990  179.7630  137.4700 O   0  0  0  0  0  1  0  0  0  0  0  0
  190.4570  175.2750  138.2370 O   0  0  0  0  0  1  0  0  0  0  0  0
  188.2130  175.6140  137.5050 C   0  0  0  0  0  2  0  0  0  0  0  0
  188.8950  178.4380  137.0440 C   0  0  2  0  0  3  0  0  0  0  0  0
  187.4280  177.9770  137.0330 C   0  0  2  0  0  3  0  0  0  0  0  0
  189.7670  177.5340  137.9130 C   0  0  0  0  0  2  0  0  0  0  0  0
  1  9  1  0  0  0  0
  2  3  1  6  0  0  0
  2  5  1  0  0  0  0
  3  7  1  0  0  0  0
  4  7  2  0  0  0  0
  4 11  1  0  0  0  0
  5 14  1  0  0  0  0
  6  1  1  0  0  0  0
  8 23  1  6  0  0  0
  8 13  1  0  0  0  0
  8 12  1  0  0  0  0
 10 18  1  0  0  0  0
 10 19  1  0  0  0  0
 12 16  1  0  0  0  0
 13 18  1  6  0  0  0
 13  2  1  0  0  0  0
 14  1  2  0  0  0  0
 15  4  1  0  0  0  0
 16  5  2  0  0  0  0
 16 17  1  0  0  0  0
 17  6  2  0  0  0  0
 19  3  2  0  0  0  0
 20 19  1  0  0  0  0
 20 15  2  0  0  0  0
 22 21  2  0  0  0  0
 23 22  1  0  0  0  0
 24 28  1  0  0  0  0
 24 31  1  0  0  0  0
 24 27  1  1  0  0  0
 25 30  1  0  0  0  0
 25 28  1  0  0  0  0
 29 26  1  1  0  0  0
 29 31  1  0  0  0  0
 30 29  1  0  0  0  0
 30 22  1  1  0  0  0
M  END
>  <MODEL>
5

>  <REMARK>
 VINA RESULT:      -8.1      3.967      7.252
  Name = 
  2 active torsions:
  status: ('A' for Active; 'I' for Inactive)
    1  A    between atoms: C_5  and  C_30
    2  A    between atoms: C_10  and  N_16
                            x       y       z     vdW  Elec       q    Type
                         _______ _______ _______ _____ _____    ______ ____

>  <TORSDO>
F 2

$$$$
=
 OpenBabel11122411173D

 31 35  0  0  1  0  0  0  0  0999 V2000
  187.1270  178.5000  146.9880 C   0  0  0  0  0  0  0  0  0  0  0  0
  189.7750  177.9970  144.3000 C   0  0  2  0  0  3  0  0  0  0  0  0
  190.6620  176.8550  144.7810 C   0  0  0  0  0  0  0  0  0  0  0  0
  191.5560  175.5250  146.6160 C   0  0  0  0  0  0  0  0  0  0  0  0
  188.4270  178.0400  144.9860 C   0  0  0  0  0  0  0  0  0  0  0  0
  185.9700  178.0640  146.3420 C   0  0  0  0  0  3  0  0  0  0  0  0
  190.6910  176.5130  146.1420 C   0  0  0  0  0  3  0  0  0  0  0  0
  188.6200  176.9770  142.2980 C   0  0  2  0  0  3  0  0  0  0  0  0
  187.0670  178.9280  148.2710 F   0  0  0  0  0  0  0  0  0  0  0  0
  191.6000  176.5150  142.4310 C   0  0  0  0  0  2  0  0  0  0  0  0
  191.5580  175.1990  147.9300 F   0  0  0  0  0  0  0  0  0  0  0  0
  187.2340  177.2710  142.8690 C   0  0  0  0  0  2  0  0  0  0  0  0
  189.6260  178.0400  142.7680 C   0  0  2  0  0  3  0  0  0  0  0  0
  188.3490  178.4910  146.3110 C   0  0  0  0  0  3  0  0  0  0  0  0
  192.4240  174.8780  145.7360 C   0  0  0  0  0  3  0  0  0  0  0  0
  187.2510  177.6080  144.3320 C   0  0  0  0  0  0  0  0  0  0  0  0
  186.0300  177.6300  145.0160 C   0  0  0  0  0  3  0  0  0  0  0  0
  190.9960  177.8780  142.1080 C   0  0  0  0  0  2  0  0  0  0  0  0
  191.5740  176.2190  143.9020 C   0  0  0  0  0  0  0  0  0  0  0  0
  192.4310  175.2240  144.3840 C   0  0  0  0  0  3  0  0  0  0  0  0
  187.3230  178.9390  140.6860 O   0  0  0  0  0  0  0  0  0  0  0  0
  187.8850  177.9760  140.0950 C   0  0  0  0  0  0  0  0  0  0  0  0
  188.5460  176.9550  140.8440 N   0  0  0  0  0  2  0  0  0  0  0  0
  190.1320  176.3330  137.5260 C   0  0  1  0  0  3  0  0  0  0  0  0
  187.6940  176.4310  138.1180 C   0  0  0  0  0  2  0  0  0  0  0  0
  189.2410  179.8510  138.4000 O   0  0  0  0  0  1  0  0  0  0  0  0
  191.3060  175.5980  137.6840 O   0  0  0  0  0  1  0  0  0  0  0  0
  188.9940  175.6380  138.2670 C   0  0  0  0  0  2  0  0  0  0  0  0
  189.0560  178.5570  137.9120 C   0  0  2  0  0  3  0  0  0  0  0  0
  187.8560  177.8780  138.5960 C   0  0  2  0  0  3  0  0  0  0  0  0
  190.3370  177.7420  138.0750 C   0  0  0  0  0  2  0  0  0  0  0  0
  1  9  1  0  0  0  0
  2  3  1  6  0  0  0
  2  5  1  0  0  0  0
  3  7  1  0  0  0  0
  4 11  1  0  0  0  0
  5 14  1  0  0  0  0
  6  1  1  0  0  0  0
  7  4  2  0  0  0  0
  8 23  1  6  0  0  0
  8 13  1  0  0  0  0
  8 12  1  0  0  0  0
 10 19  1  0  0  0  0
 12 16  1  0  0  0  0
 13 18  1  6  0  0  0
 13  2  1  0  0  0  0
 14  1  2  0  0  0  0
 15  4  1  0  0  0  0
 16  5  2  0  0  0  0
 16 17  1  0  0  0  0
 17  6  2  0  0  0  0
 18 10  1  0  0  0  0
 19 20  1  0  0  0  0
 19  3  2  0  0  0  0
 20 15  2  0  0  0  0
 22 21  2  0  0  0  0
 22 23  1  0  0  0  0
 24 27  1  1  0  0  0
 24 31  1  0  0  0  0
 24 28  1  0  0  0  0
 25 28  1  0  0  0  0
 25 30  1  0  0  0  0
 29 31  1  0  0  0  0
 29 26  1  1  0  0  0
 29 30  1  0  0  0  0
 30 22  1  1  0  0  0
M  END
>  <MODEL>
6

>  <REMARK>
 VINA RESULT:      -7.8      3.515      5.754
  Name = 
  2 active torsions:
  status: ('A' for Active; 'I' for Inactive)
    1  A    between atoms: C_5  and  C_30
    2  A    between atoms: C_10  and  N_16
                            x       y       z     vdW  Elec       q    Type
                         _______ _______ _______ _____ _____    ______ ____

>  <TORSDO>
F 2

$$$$
=
 OpenBabel11122411173D

 31 35  0  0  1  0  0  0  0  0999 V2000
  184.6730  178.8180  139.2380 C   0  0  0  0  0  0  0  0  0  0  0  0
  188.4150  178.1820  139.5180 C   0  0  2  0  0  3  0  0  0  0  0  0
  188.6300  177.4620  140.8440 C   0  0  0  0  0  0  0  0  0  0  0  0
  187.8690  176.9590  143.1030 C   0  0  0  0  0  0  0  0  0  0  0  0
  186.9890  178.1120  139.0200 C   0  0  0  0  0  0  0  0  0  0  0  0
  184.3090  177.9620  138.1990 C   0  0  0  0  0  3  0  0  0  0  0  0
  187.6560  177.5430  141.8530 C   0  0  0  0  0  3  0  0  0  0  0  0
  188.9940  176.3920  137.8320 C   0  0  2  0  0  3  0  0  0  0  0  0
  183.7340  179.5740  139.8560 F   0  0  0  0  0  0  0  0  0  0  0  0
  190.9480  176.6830  140.1140 C   0  0  0  0  0  2  0  0  0  0  0  0
  186.9110  177.0360  144.0580 F   0  0  0  0  0  0  0  0  0  0  0  0
  187.6360  176.5130  137.1440 C   0  0  0  0  0  2  0  0  0  0  0  0
  189.4110  177.7460  138.4280 C   0  0  2  0  0  3  0  0  0  0  0  0
  186.0070  178.8950  139.6440 C   0  0  0  0  0  3  0  0  0  0  0  0
  189.0700  176.3030  143.3720 C   0  0  0  0  0  3  0  0  0  0  0  0
  186.6170  177.2520  137.9610 C   0  0  0  0  0  0  0  0  0  0  0  0
  185.2790  177.1900  137.5560 C   0  0  0  0  0  3  0  0  0  0  0  0
  190.8290  177.7190  139.0000 C   0  0  0  0  0  2  0  0  0  0  0  0
  189.8610  176.8260  141.1390 C   0  0  0  0  0  0  0  0  0  0  0  0
  190.0610  176.2360  142.3910 C   0  0  0  0  0  3  0  0  0  0  0  0
  189.8750  173.6980  137.5260 O   0  0  0  0  0  0  0  0  0  0  0  0
  190.3760  174.5660  136.7590 C   0  0  0  0  0  0  0  0  0  0  0  0
  189.9840  175.9350  136.8660 N   0  0  0  0  0  2  0  0  0  0  0  0
  194.1280  175.0160  136.4950 C   0  0  1  0  0  3  0  0  0  0  0  0
  192.4250  173.1830  136.2890 C   0  0  0  0  0  2  0  0  0  0  0  0
  191.1680  176.3210  134.6340 O   0  0  0  0  0  1  0  0  0  0  0  0
  195.0330  175.6270  137.3620 O   0  0  0  0  0  1  0  0  0  0  0  0
  193.4320  173.8660  137.2170 C   0  0  0  0  0  2  0  0  0  0  0  0
  192.1020  175.3840  135.0780 C   0  0  2  0  0  3  0  0  0  0  0  0
  191.4030  174.1800  135.7330 C   0  0  2  0  0  3  0  0  0  0  0  0
  193.1020  176.0420  136.0250 C   0  0  0  0  0  2  0  0  0  0  0  0
  1 14  1  0  0  0  0
  1  9  1  0  0  0  0
  2  5  1  6  0  0  0
  2  3  1  0  0  0  0
  3 19  2  0  0  0  0
  3  7  1  0  0  0  0
  4 15  1  0  0  0  0
  4 11  1  0  0  0  0
  5 14  2  0  0  0  0
  6  1  2  0  0  0  0
  7  4  2  0  0  0  0
  8 23  1  6  0  0  0
  8 13  1  0  0  0  0
 10 19  1  0  0  0  0
 12  8  1  0  0  0  0
 12 16  1  0  0  0  0
 13 18  1  1  0  0  0
 13  2  1  0  0  0  0
 16  5  1  0  0  0  0
 17 16  2  0  0  0  0
 17  6  1  0  0  0  0
 18 10  1  0  0  0  0
 19 20  1  0  0  0  0
 20 15  2  0  0  0  0
 22 23  1  0  0  0  0
 22 21  2  0  0  0  0
 24 28  1  0  0  0  0
 24 27  1  1  0  0  0
 25 28  1  0  0  0  0
 29 26  1  1  0  0  0
 29 30  1  0  0  0  0
 29 31  1  0  0  0  0
 30 25  1  0  0  0  0
 30 22  1  1  0  0  0
 31 24  1  0  0  0  0
M  END
>  <MODEL>
7

>  <REMARK>
 VINA RESULT:      -7.8      5.231      8.244
  Name = 
  2 active torsions:
  status: ('A' for Active; 'I' for Inactive)
    1  A    between atoms: C_5  and  C_30
    2  A    between atoms: C_10  and  N_16
                            x       y       z     vdW  Elec       q    Type
                         _______ _______ _______ _____ _____    ______ ____

>  <TORSDO>
F 2

$$$$
=
 OpenBabel11122411173D

 31 35  0  0  1  0  0  0  0  0999 V2000
  185.1640  178.8620  144.9660 C   0  0  0  0  0  0  0  0  0  0  0  0
  188.8790  178.6380  144.1700 C   0  0  2  0  0  3  0  0  0  0  0  0
  189.4740  177.6590  145.1750 C   0  0  0  0  0  0  0  0  0  0  0  0
  189.3620  176.5530  147.3430 C   0  0  0  0  0  0  0  0  0  0  0  0
  187.3780  178.5130  144.0260 C   0  0  0  0  0  0  0  0  0  0  0  0
  184.5900  178.2350  143.8600 C   0  0  0  0  0  3  0  0  0  0  0  0
  188.7960  177.3830  146.3730 C   0  0  0  0  0  3  0  0  0  0  0  0
  189.0990  177.3770  141.9930 C   0  0  2  0  0  3  0  0  0  0  0  0
  184.3760  179.3310  145.9640 F   0  0  0  0  0  0  0  0  0  0  0  0
  191.5620  177.3620  143.7380 C   0  0  0  0  0  2  0  0  0  0  0  0
  188.6850  176.2870  148.4850 F   0  0  0  0  0  0  0  0  0  0  0  0
  187.6040  177.4890  141.7040 C   0  0  0  0  0  2  0  0  0  0  0  0
  189.5780  178.5940  142.8000 C   0  0  2  0  0  3  0  0  0  0  0  0
  186.5510  179.0040  145.0470 C   0  0  0  0  0  3  0  0  0  0  0  0
  190.6270  176.0030  147.1380 C   0  0  0  0  0  3  0  0  0  0  0  0
  186.7920  177.8870  142.9030 C   0  0  0  0  0  0  0  0  0  0  0  0
  185.4010  177.7590  142.8280 C   0  0  0  0  0  3  0  0  0  0  0  0
  191.0960  178.6060  142.9900 C   0  0  0  0  0  2  0  0  0  0  0  0
  190.7750  177.1270  144.9930 C   0  0  0  0  0  0  0  0  0  0  0  0
  191.3290  176.2890  145.9660 C   0  0  0  0  0  3  0  0  0  0  0  0
  188.3280  178.6280  139.5490 O   0  0  0  0  0  0  0  0  0  0  0  0
  189.3880  177.9420  139.5450 C   0  0  0  0  0  0  0  0  0  0  0  0
  189.8260  177.2830  140.7340 N   0  0  0  0  0  2  0  0  0  0  0  0
  190.1230  175.0460  137.2170 C   0  0  1  0  0  3  0  0  0  0  0  0
  189.3280  177.4240  137.0830 C   0  0  0  0  0  2  0  0  0  0  0  0
  192.1370  177.1280  139.5710 O   0  0  0  0  0  1  0  0  0  0  0  0
  189.7100  173.7160  137.2630 O   0  0  0  0  0  1  0  0  0  0  0  0
  188.9010  175.9550  137.1260 C   0  0  0  0  0  2  0  0  0  0  0  0
  191.3860  176.8280  138.4330 C   0  0  2  0  0  3  0  0  0  0  0  0
  190.1980  177.7950  138.2890 C   0  0  2  0  0  3  0  0  0  0  0  0
  190.9310  175.3710  138.4690 C   0  0  0  0  0  2  0  0  0  0  0  0
  1 14  1  0  0  0  0
  1  9  1  0  0  0  0
  2  5  1  6  0  0  0
  2  3  1  0  0  0  0
  3  7  1  0  0  0  0
  4 11  1  0  0  0  0
  5 14  2  0  0  0  0
  6  1  2  0  0  0  0
  7  4  2  0  0  0  0
  8 23  1  6  0  0  0
  8 13  1  0  0  0  0
 10 19  1  0  0  0  0
 12  8  1  0  0  0  0
 12 16  1  0  0  0  0
 13 18  1  1  0  0  0
 13  2  1  0  0  0  0
 15  4  1  0  0  0  0
 16  5  1  0  0  0  0
 17 16  2  0  0  0  0
 17  6  1  0  0  0  0
 18 10  1  0  0  0  0
 19  3  2  0  0  0  0
 19 20  1  0  0  0  0
 20 15  2  0  0  0  0
 22 21  2  0  0  0  0
 22 23  1  0  0  0  0
 24 27  1  1  0  0  0
 24 31  1  0  0  0  0
 25 28  1  0  0  0  0
 25 30  1  0  0  0  0
 28 24  1  0  0  0  0
 29 31  1  0  0  0  0
 29 26  1  1  0  0  0
 30 29  1  0  0  0  0
 30 22  1  1  0  0  0
M  END
>  <MODEL>
8

>  <REMARK>
 VINA RESULT:      -7.6      3.481      5.961
  Name = 
  2 active torsions:
  status: ('A' for Active; 'I' for Inactive)
    1  A    between atoms: C_5  and  C_30
    2  A    between atoms: C_10  and  N_16
                            x       y       z     vdW  Elec       q    Type
                         _______ _______ _______ _____ _____    ______ ____

>  <TORSDO>
F 2

$$$$
=
 OpenBabel11122411173D

 31 35  0  0  1  0  0  0  0  0999 V2000
  191.4980  177.3720  141.0880 C   0  0  0  0  0  0  0  0  0  0  0  0
  189.2490  177.8250  138.0500 C   0  0  2  0  0  3  0  0  0  0  0  0
  189.1890  176.4700  137.3550 C   0  0  0  0  0  0  0  0  0  0  0  0
  190.1940  174.2960  136.9110 C   0  0  0  0  0  0  0  0  0  0  0  0
  189.7030  177.7420  139.4910 C   0  0  0  0  0  0  0  0  0  0  0  0
  190.5920  177.4920  142.1410 C   0  0  0  0  0  3  0  0  0  0  0  0
  190.1860  175.5110  137.5980 C   0  0  0  0  0  3  0  0  0  0  0  0
  186.8890  178.1000  138.9050 C   0  0  2  0  0  3  0  0  0  0  0  0
  192.8060  177.1280  141.3420 F   0  0  0  0  0  0  0  0  0  0  0  0
  187.1150  177.1690  136.0430 C   0  0  0  0  0  2  0  0  0  0  0  0
  191.1550  173.3780  137.1700 F   0  0  0  0  0  0  0  0  0  0  0  0
  187.3650  178.2940  140.3430 C   0  0  0  0  0  2  0  0  0  0  0  0
  187.9420  178.6280  137.9190 C   0  0  2  0  0  3  0  0  0  0  0  0
  191.0560  177.5000  139.7690 C   0  0  0  0  0  3  0  0  0  0  0  0
  189.2150  174.0290  135.9540 C   0  0  0  0  0  3  0  0  0  0  0  0
  188.7890  177.8720  140.5620 C   0  0  0  0  0  0  0  0  0  0  0  0
  189.2450  177.7520  141.8790 C   0  0  0  0  0  3  0  0  0  0  0  0
  187.4540  178.5940  136.4700 C   0  0  0  0  0  2  0  0  0  0  0  0
  188.2210  176.2050  136.3540 C   0  0  0  0  0  0  0  0  0  0  0  0
  188.2320  174.9810  135.6790 C   0  0  0  0  0  3  0  0  0  0  0  0
  184.3870  176.8540  138.3430 O   0  0  0  0  0  0  0  0  0  0  0  0
  184.4020  178.1110  138.4470 C   0  0  0  0  0  0  0  0  0  0  0  0
  185.6240  178.7980  138.7200 N   0  0  0  0  0  2  0  0  0  0  0  0
  180.8000  177.5970  139.5020 C   0  0  1  0  0  3  0  0  0  0  0  0
  182.5670  179.3770  139.6140 C   0  0  0  0  0  2  0  0  0  0  0  0
  182.6140  177.7040  136.2420 O   0  0  0  0  0  1  0  0  0  0  0  0
  180.1990  176.5530  140.2040 O   0  0  0  0  0  1  0  0  0  0  0  0
  181.8840  178.2340  140.3670 C   0  0  0  0  0  2  0  0  0  0  0  0
  182.0710  178.1900  137.4320 C   0  0  2  0  0  3  0  0  0  0  0  0
  183.1410  178.9080  138.2720 C   0  0  2  0  0  3  0  0  0  0  0  0
  181.4050  177.0570  138.2090 C   0  0  0  0  0  2  0  0  0  0  0  0
  1  9  1  0  0  0  0
  1  6  1  0  0  0  0
  2  3  1  1  0  0  0
  2  5  1  0  0  0  0
  3  7  1  0  0  0  0
  4 11  1  0  0  0  0
  4  7  2  0  0  0  0
  5 14  1  0  0  0  0
  5 16  2  0  0  0  0
  8 23  1  1  0  0  0
  8 12  1  0  0  0  0
 10 19  1  0  0  0  0
 10 18  1  0  0  0  0
 12 16  1  0  0  0  0
 13 18  1  6  0  0  0
 13  2  1  0  0  0  0
 13  8  1  0  0  0  0
 14  1  2  0  0  0  0
 15  4  1  0  0  0  0
 16 17  1  0  0  0  0
 17  6  2  0  0  0  0
 19  3  2  0  0  0  0
 20 15  2  0  0  0  0
 20 19  1  0  0  0  0
 21 22  2  0  0  0  0
 22 23  1  0  0  0  0
 24 27  1  1  0  0  0
 24 28  1  0  0  0  0
 25 28  1  0  0  0  0
 29 26  1  6  0  0  0
 29 31  1  0  0  0  0
 29 30  1  0  0  0  0
 30 22  1  1  0  0  0
 30 25  1  0  0  0  0
 31 24  1  0  0  0  0
M  END
>  <MODEL>
9

>  <REMARK>
 VINA RESULT:      -7.6      3.575      6.369
  Name = 
  2 active torsions:
  status: ('A' for Active; 'I' for Inactive)
    1  A    between atoms: C_5  and  C_30
    2  A    between atoms: C_10  and  N_16
                            x       y       z     vdW  Elec       q    Type
                         _______ _______ _______ _____ _____    ______ ____

>  <TORSDO>
F 2

$$$$
