=
 OpenBabel11122411553D

 28 32  0  0  1  0  0  0  0  0999 V2000
  189.3690  178.1010  138.1540 C   0  0  0  0  0  0  0  0  0  0  0  0
  192.9130  176.4790  135.1190 F   0  0  0  0  0  0  0  0  0  0  0  0
  187.5810  173.7670  137.4740 C   0  0  0  0  0  1  0  0  0  0  0  0
  189.7000  176.6870  140.5500 C   0  0  0  0  0  3  0  0  0  0  0  0
  189.3220  173.5450  135.7580 C   0  0  0  0  0  0  0  0  0  0  0  0
  189.1420  178.8440  136.8720 C   0  0  0  0  0  2  0  0  0  0  0  0
  193.9690  176.9340  137.0670 O   0  0  0  0  0  1  0  0  0  0  0  0
  193.2780  175.9560  136.3510 C   0  0  1  0  0  0  0  0  0  0  0  0
  193.3900  173.6370  135.5150 C   0  0  1  0  0  3  0  0  0  0  0  0
  192.0400  175.5180  137.1630 C   0  0  2  0  0  3  0  0  0  0  0  0
  186.5320  177.0540  137.5210 O   0  0  0  0  0  1  0  0  0  0  0  0
  189.9460  175.7950  135.8750 C   0  0  1  0  0  3  0  0  0  0  0  0
  192.4640  173.1610  136.4630 O   0  0  0  0  0  0  0  0  0  0  0  0
  194.2040  174.7730  136.1140 C   0  0  0  0  0  2  0  0  0  0  0  0
  186.9560  177.5630  136.2890 C   0  0  2  0  0  3  0  0  0  0  0  0
  190.1830  176.9480  138.1790 C   0  0  0  0  0  0  0  0  0  0  0  0
  188.1200  174.3020  136.1600 C   0  0  2  0  0  3  0  0  0  0  0  0
  194.3180  172.5110  135.1120 C   0  0  0  0  0  1  0  0  0  0  0  0
  187.7320  176.5230  135.4770 C   0  0  0  0  0  2  0  0  0  0  0  0
  190.3240  176.2390  139.3840 C   0  0  0  0  0  3  0  0  0  0  0  0
  188.7600  178.5510  139.3320 C   0  0  0  0  0  3  0  0  0  0  0  0
  188.9250  177.8470  140.5260 C   0  0  0  0  0  3  0  0  0  0  0  0
  187.6670  178.9110  136.4600 C   0  0  0  0  0  2  0  0  0  0  0  0
  190.5060  174.4020  135.6060 C   0  0  1  0  0  3  0  0  0  0  0  0
  188.5530  175.6860  136.3430 N   0  0  2  0  0  0  0  0  0  0  0  0
  191.4920  174.1560  136.7330 C   0  0  2  0  0  3  0  0  0  0  0  0
  189.3240  172.3450  135.5250 O   0  0  0  0  0  0  0  0  0  0  0  0
  190.8700  176.4710  136.9130 C   0  0  1  0  0  3  0  0  0  0  0  0
  1 16  2  0  0  0  0
  1 21  1  0  0  0  0
  5 17  1  0  0  0  0
  6  1  1  0  0  0  0
  8  2  1  6  0  0  0
  8  7  1  0  0  0  0
  8 10  1  0  0  0  0
  9 18  1  1  0  0  0
  9 14  1  0  0  0  0
  9 13  1  0  0  0  0
 12 25  1  0  0  0  0
 12 28  1  0  0  0  0
 13 26  1  0  0  0  0
 14  8  1  0  0  0  0
 15 23  1  0  0  0  0
 15 11  1  0  0  0  0
 16 20  1  0  0  0  0
 17 25  1  0  0  0  0
 17  3  1  0  0  0  0
 19 15  1  0  0  0  0
 19 25  1  0  0  0  0
 20  4  2  0  0  0  0
 21 22  2  0  0  0  0
 22  4  1  0  0  0  0
 23  6  1  0  0  0  0
 24  5  1  0  0  0  0
 24 12  1  0  0  0  0
 24 26  1  0  0  0  0
 26 10  1  0  0  0  0
 27  5  2  0  0  0  0
 28 10  1  0  0  0  0
 28 16  1  0  0  0  0
M  END
>  <MODEL>
1

>  <REMARK>
 VINA RESULT:      -6.1      0.000      0.000
  Name = 
  0 active torsions:
  status: ('A' for Active; 'I' for Inactive)
                            x       y       z     vdW  Elec       q    Type
                         _______ _______ _______ _____ _____    ______ ____

>  <TORSDO>
F 0

$$$$
=
 OpenBabel11122411553D

 28 32  0  0  1  0  0  0  0  0999 V2000
  179.4750  177.4470  138.4930 C   0  0  0  0  0  0  0  0  0  0  0  0
  180.5340  179.9750  142.6030 F   0  0  0  0  0  0  0  0  0  0  0  0
  184.1480  177.7550  137.7710 C   0  0  0  0  0  1  0  0  0  0  0  0
  180.5390  174.8820  138.8700 C   0  0  0  0  0  3  0  0  0  0  0  0
  184.1320  179.2870  139.6900 C   0  0  0  0  0  0  0  0  0  0  0  0
  178.9310  178.8230  138.2460 C   0  0  0  0  0  2  0  0  0  0  0  0
  179.6650  178.0150  143.3250 O   0  0  0  0  0  1  0  0  0  0  0  0
  180.8380  178.6640  142.9420 C   0  0  1  0  0  0  0  0  0  0  0  0
  183.1420  179.2090  143.6420 C   0  0  1  0  0  3  0  0  0  0  0  0
  181.4660  177.9090  141.7510 C   0  0  2  0  0  3  0  0  0  0  0  0
  181.1960  178.1800  136.0330 O   0  0  0  0  0  1  0  0  0  0  0  0
  181.7990  179.3850  139.7930 C   0  0  1  0  0  3  0  0  0  0  0  0
  183.7210  178.2900  142.7480 O   0  0  0  0  0  0  0  0  0  0  0  0
  181.7970  178.6840  144.1230 C   0  0  0  0  0  2  0  0  0  0  0  0
  180.7260  179.4240  136.4640 C   0  0  2  0  0  3  0  0  0  0  0  0
  180.4050  177.2210  139.5310 C   0  0  0  0  0  0  0  0  0  0  0  0
  183.6330  179.0750  138.3160 C   0  0  2  0  0  3  0  0  0  0  0  0
  184.0600  179.4010  144.8300 C   0  0  0  0  0  1  0  0  0  0  0  0
  181.6350  180.0430  137.5280 C   0  0  0  0  0  2  0  0  0  0  0  0
  180.9430  175.9340  139.6950 C   0  0  0  0  0  3  0  0  0  0  0  0
  179.0640  176.3830  137.6800 C   0  0  0  0  0  3  0  0  0  0  0  0
  179.5940  175.1060  137.8680 C   0  0  0  0  0  3  0  0  0  0  0  0
  179.2410  179.3570  136.8430 C   0  0  0  0  0  2  0  0  0  0  0  0
  183.0470  179.4420  140.6680 C   0  0  1  0  0  3  0  0  0  0  0  0
  182.1760  179.0210  138.4170 N   0  0  2  0  0  0  0  0  0  0  0  0
  182.9530  178.2180  141.5600 C   0  0  2  0  0  3  0  0  0  0  0  0
  185.3160  179.3760  139.9770 O   0  0  0  0  0  0  0  0  0  0  0  0
  180.8330  178.3630  140.4340 C   0  0  1  0  0  3  0  0  0  0  0  0
  1 16  1  0  0  0  0
  3 17  1  0  0  0  0
  4 20  1  0  0  0  0
  5 27  2  0  0  0  0
  5 24  1  0  0  0  0
  6  1  1  0  0  0  0
  8  2  1  6  0  0  0
  8  7  1  0  0  0  0
  8 14  1  0  0  0  0
  9 14  1  0  0  0  0
  9 18  1  1  0  0  0
 10  8  1  0  0  0  0
 11 15  1  0  0  0  0
 12 28  1  0  0  0  0
 12 24  1  0  0  0  0
 13  9  1  0  0  0  0
 15 23  1  0  0  0  0
 15 19  1  0  0  0  0
 16 20  2  0  0  0  0
 16 28  1  0  0  0  0
 17 25  1  0  0  0  0
 17  5  1  0  0  0  0
 19 25  1  0  0  0  0
 21 22  1  0  0  0  0
 21  1  2  0  0  0  0
 22  4  2  0  0  0  0
 23  6  1  0  0  0  0
 24 26  1  0  0  0  0
 25 12  1  0  0  0  0
 26 10  1  0  0  0  0
 26 13  1  0  0  0  0
 28 10  1  0  0  0  0
M  END
>  <MODEL>
2

>  <REMARK>
 VINA RESULT:      -5.8      7.717     10.759
  Name = 
  0 active torsions:
  status: ('A' for Active; 'I' for Inactive)
                            x       y       z     vdW  Elec       q    Type
                         _______ _______ _______ _____ _____    ______ ____

>  <TORSDO>
F 0

$$$$
=
 OpenBabel11122411553D

 28 32  0  0  1  0  0  0  0  0999 V2000
  183.0370  177.4450  136.6620 C   0  0  0  0  0  0  0  0  0  0  0  0
  187.6830  178.1900  135.1560 F   0  0  0  0  0  0  0  0  0  0  0  0
  184.6960  173.1630  137.8300 C   0  0  0  0  0  1  0  0  0  0  0  0
  183.1420  177.3350  139.4600 C   0  0  0  0  0  3  0  0  0  0  0  0
  186.7240  173.8520  136.6290 C   0  0  0  0  0  0  0  0  0  0  0  0
  182.9550  177.4580  135.1640 C   0  0  0  0  0  2  0  0  0  0  0  0
  187.3420  179.7150  136.7920 O   0  0  0  0  0  1  0  0  0  0  0  0
  187.7480  178.4080  136.5250 C   0  0  1  0  0  0  0  0  0  0  0  0
  189.5610  176.7680  136.8640 C   0  0  1  0  0  3  0  0  0  0  0  0
  186.8310  177.4300  137.2910 C   0  0  2  0  0  3  0  0  0  0  0  0
  181.9760  174.5730  136.2410 O   0  0  0  0  0  1  0  0  0  0  0  0
  185.7490  175.7980  135.7780 C   0  0  1  0  0  3  0  0  0  0  0  0
  188.8260  176.0230  137.8040 O   0  0  0  0  0  0  0  0  0  0  0  0
  189.1920  178.2400  136.9690 C   0  0  0  0  0  2  0  0  0  0  0  0
  182.4620  174.9120  134.9740 C   0  0  2  0  0  3  0  0  0  0  0  0
  184.2800  177.2800  137.3090 C   0  0  0  0  0  0  0  0  0  0  0  0
  185.2790  173.5820  136.4920 C   0  0  2  0  0  3  0  0  0  0  0  0
  191.0410  176.6000  137.1350 C   0  0  0  0  0  1  0  0  0  0  0  0
  183.9520  174.5920  134.8280 C   0  0  0  0  0  2  0  0  0  0  0  0
  184.3140  177.2080  138.7120 C   0  0  0  0  0  3  0  0  0  0  0  0
  181.8690  177.5870  137.4200 C   0  0  0  0  0  3  0  0  0  0  0  0
  181.9210  177.5330  138.8140 C   0  0  0  0  0  3  0  0  0  0  0  0
  182.0690  176.3450  134.5940 C   0  0  0  0  0  2  0  0  0  0  0  0
  187.0820  175.2240  136.2460 C   0  0  1  0  0  3  0  0  0  0  0  0
  184.6680  174.8420  136.0730 N   0  0  2  0  0  0  0  0  0  0  0  0
  187.4490  176.0420  137.4700 C   0  0  2  0  0  3  0  0  0  0  0  0
  187.5430  173.0130  136.9740 O   0  0  0  0  0  0  0  0  0  0  0  0
  185.5550  177.1550  136.4940 C   0  0  1  0  0  3  0  0  0  0  0  0
  1 16  2  0  0  0  0
  1 21  1  0  0  0  0
  5 27  2  0  0  0  0
  6  1  1  0  0  0  0
  8  2  1  6  0  0  0
  8  7  1  0  0  0  0
  8 14  1  0  0  0  0
  8 10  1  0  0  0  0
  9 14  1  0  0  0  0
  9 18  1  1  0  0  0
  9 13  1  0  0  0  0
 10 26  1  0  0  0  0
 12 25  1  0  0  0  0
 12 24  1  0  0  0  0
 12 28  1  0  0  0  0
 15 11  1  0  0  0  0
 16 20  1  0  0  0  0
 17  5  1  0  0  0  0
 17  3  1  0  0  0  0
 19 15  1  0  0  0  0
 19 25  1  0  0  0  0
 20  4  2  0  0  0  0
 21 22  2  0  0  0  0
 22  4  1  0  0  0  0
 23 15  1  0  0  0  0
 23  6  1  0  0  0  0
 24  5  1  0  0  0  0
 24 26  1  0  0  0  0
 25 17  1  0  0  0  0
 26 13  1  0  0  0  0
 28 10  1  0  0  0  0
 28 16  1  0  0  0  0
M  END
>  <MODEL>
3

>  <REMARK>
 VINA RESULT:      -5.5      3.490      5.412
  Name = 
  0 active torsions:
  status: ('A' for Active; 'I' for Inactive)
                            x       y       z     vdW  Elec       q    Type
                         _______ _______ _______ _____ _____    ______ ____

>  <TORSDO>
F 0

$$$$
=
 OpenBabel11122411553D

 28 32  0  0  1  0  0  0  0  0999 V2000
  180.2710  178.9540  140.2010 C   0  0  0  0  0  0  0  0  0  0  0  0
  183.3790  180.2370  143.8210 F   0  0  0  0  0  0  0  0  0  0  0  0
  184.2620  177.6840  137.9860 C   0  0  0  0  0  1  0  0  0  0  0  0
  180.3090  176.1540  140.1090 C   0  0  0  0  0  3  0  0  0  0  0  0
  185.4050  178.7890  139.8570 C   0  0  0  0  0  0  0  0  0  0  0  0
  180.2600  180.4540  140.1990 C   0  0  0  0  0  2  0  0  0  0  0  0
  182.0650  178.6280  144.7160 O   0  0  0  0  0  1  0  0  0  0  0  0
  183.2320  178.8680  143.9910 C   0  0  1  0  0  0  0  0  0  0  0  0
  185.6600  178.4340  143.9090 C   0  0  1  0  0  3  0  0  0  0  0  0
  183.1380  178.1420  142.6320 C   0  0  2  0  0  3  0  0  0  0  0  0
  181.3450  179.4110  137.3400 O   0  0  0  0  0  1  0  0  0  0  0  0
  183.4360  179.6970  140.7300 C   0  0  1  0  0  3  0  0  0  0  0  0
  185.5470  177.5250  142.8400 O   0  0  0  0  0  0  0  0  0  0  0  0
  184.4210  178.3540  144.7880 C   0  0  0  0  0  2  0  0  0  0  0  0
  181.5450  180.6540  137.9470 C   0  0  2  0  0  3  0  0  0  0  0  0
  181.2970  178.2470  140.8640 C   0  0  0  0  0  0  0  0  0  0  0  0
  184.4870  178.9950  138.7190 C   0  0  2  0  0  3  0  0  0  0  0  0
  186.8830  178.0900  144.7330 C   0  0  0  0  0  1  0  0  0  0  0  0
  182.8900  180.7270  138.6730 C   0  0  0  0  0  2  0  0  0  0  0  0
  181.3130  176.8440  140.7930 C   0  0  0  0  0  3  0  0  0  0  0  0
  179.2600  178.2540  139.5320 C   0  0  0  0  0  3  0  0  0  0  0  0
  179.2790  176.8590  139.4860 C   0  0  0  0  0  3  0  0  0  0  0  0
  180.3320  181.0610  138.7940 C   0  0  0  0  0  2  0  0  0  0  0  0
  184.8020  179.1620  141.1440 C   0  0  1  0  0  3  0  0  0  0  0  0
  183.2230  179.4490  139.2940 N   0  0  2  0  0  0  0  0  0  0  0  0
  184.5020  177.9260  141.9710 C   0  0  2  0  0  3  0  0  0  0  0  0
  186.5580  178.4010  139.7400 O   0  0  0  0  0  0  0  0  0  0  0  0
  182.3800  178.9980  141.6170 C   0  0  1  0  0  3  0  0  0  0  0  0
  1 16  1  0  0  0  0
  3 17  1  0  0  0  0
  4 20  1  0  0  0  0
  5 24  1  0  0  0  0
  6  1  1  0  0  0  0
  8  2  1  6  0  0  0
  8  7  1  0  0  0  0
  8 14  1  0  0  0  0
  9 18  1  1  0  0  0
  9 14  1  0  0  0  0
 10  8  1  0  0  0  0
 11 15  1  0  0  0  0
 12 24  1  0  0  0  0
 12 28  1  0  0  0  0
 13  9  1  0  0  0  0
 15 19  1  0  0  0  0
 15 23  1  0  0  0  0
 16 28  1  0  0  0  0
 17 25  1  0  0  0  0
 17  5  1  0  0  0  0
 19 25  1  0  0  0  0
 20 16  2  0  0  0  0
 21  1  2  0  0  0  0
 22 21  1  0  0  0  0
 22  4  2  0  0  0  0
 23  6  1  0  0  0  0
 24 26  1  0  0  0  0
 25 12  1  0  0  0  0
 26 10  1  0  0  0  0
 26 13  1  0  0  0  0
 27  5  2  0  0  0  0
 28 10  1  0  0  0  0
M  END
>  <MODEL>
4

>  <REMARK>
 VINA RESULT:      -5.3      7.165      9.830
  Name = 
  0 active torsions:
  status: ('A' for Active; 'I' for Inactive)
                            x       y       z     vdW  Elec       q    Type
                         _______ _______ _______ _____ _____    ______ ____

>  <TORSDO>
F 0

$$$$
=
 OpenBabel11122411553D

 28 32  0  0  1  0  0  0  0  0999 V2000
  181.8640  179.1440  138.5590 C   0  0  0  0  0  0  0  0  0  0  0  0
  185.6360  177.8770  135.6320 F   0  0  0  0  0  0  0  0  0  0  0  0
  180.7850  174.5430  138.2190 C   0  0  0  0  0  1  0  0  0  0  0  0
  182.4000  177.9840  141.0530 C   0  0  0  0  0  3  0  0  0  0  0  0
  182.5500  174.4700  136.5130 C   0  0  0  0  0  0  0  0  0  0  0  0
  181.5290  179.7440  137.2260 C   0  0  0  0  0  2  0  0  0  0  0  0
  186.5960  178.6380  137.5330 O   0  0  0  0  0  1  0  0  0  0  0  0
  186.0730  177.5130  136.8970 C   0  0  1  0  0  0  0  0  0  0  0  0
  186.5530  175.1840  136.2380 C   0  0  1  0  0  3  0  0  0  0  0  0
  184.9150  176.9480  137.7480 C   0  0  2  0  0  3  0  0  0  0  0  0
  179.2310  177.6180  138.0240 O   0  0  0  0  0  1  0  0  0  0  0  0
  182.8100  176.7920  136.4560 C   0  0  1  0  0  3  0  0  0  0  0  0
  185.7090  174.6410  137.2250 O   0  0  0  0  0  0  0  0  0  0  0  0
  187.1750  176.4760  136.7450 C   0  0  0  0  0  2  0  0  0  0  0  0
  179.5760  178.0930  136.7560 C   0  0  2  0  0  3  0  0  0  0  0  0
  182.8490  178.1390  138.6660 C   0  0  0  0  0  0  0  0  0  0  0  0
  181.2410  175.0560  136.8640 C   0  0  2  0  0  3  0  0  0  0  0  0
  187.6500  174.1920  135.9150 C   0  0  0  0  0  1  0  0  0  0  0  0
  180.5110  177.1310  136.0190 C   0  0  0  0  0  2  0  0  0  0  0  0
  183.0930  177.5540  139.9190 C   0  0  0  0  0  3  0  0  0  0  0  0
  181.1850  179.5800  139.7040 C   0  0  0  0  0  3  0  0  0  0  0  0
  181.4520  179.0020  140.9460 C   0  0  0  0  0  3  0  0  0  0  0  0
  180.0650  179.5450  136.8200 C   0  0  0  0  0  2  0  0  0  0  0  0
  183.5840  175.4900  136.2900 C   0  0  1  0  0  3  0  0  0  0  0  0
  181.4500  176.5010  136.9410 N   0  0  2  0  0  0  0  0  0  0  0  0
  184.5900  175.4870  137.4260 C   0  0  2  0  0  3  0  0  0  0  0  0
  182.7420  173.2720  136.3720 O   0  0  0  0  0  0  0  0  0  0  0  0
  183.6100  177.6830  137.4340 C   0  0  1  0  0  3  0  0  0  0  0  0
  1 16  2  0  0  0  0
  1 21  1  0  0  0  0
  5 17  1  0  0  0  0
  6  1  1  0  0  0  0
  8  2  1  6  0  0  0
  8  7  1  0  0  0  0
  8 10  1  0  0  0  0
  9 18  1  1  0  0  0
  9 14  1  0  0  0  0
  9 13  1  0  0  0  0
 12 25  1  0  0  0  0
 12 28  1  0  0  0  0
 13 26  1  0  0  0  0
 14  8  1  0  0  0  0
 15 23  1  0  0  0  0
 15 11  1  0  0  0  0
 16 20  1  0  0  0  0
 17 25  1  0  0  0  0
 17  3  1  0  0  0  0
 19 15  1  0  0  0  0
 19 25  1  0  0  0  0
 20  4  2  0  0  0  0
 21 22  2  0  0  0  0
 22  4  1  0  0  0  0
 23  6  1  0  0  0  0
 24 12  1  0  0  0  0
 24  5  1  0  0  0  0
 24 26  1  0  0  0  0
 26 10  1  0  0  0  0
 27  5  2  0  0  0  0
 28 10  1  0  0  0  0
 28 16  1  0  0  0  0
M  END
>  <MODEL>
5

>  <REMARK>
 VINA RESULT:      -4.7      5.335      7.275
  Name = 
  0 active torsions:
  status: ('A' for Active; 'I' for Inactive)
                            x       y       z     vdW  Elec       q    Type
                         _______ _______ _______ _____ _____    ______ ____

>  <TORSDO>
F 0

$$$$
=
 OpenBabel11122411553D

 28 32  0  0  1  0  0  0  0  0999 V2000
  181.2070  176.6500  137.0760 C   0  0  0  0  0  0  0  0  0  0  0  0
  185.7050  175.3970  135.4660 F   0  0  0  0  0  0  0  0  0  0  0  0
  180.7860  171.9890  137.8160 C   0  0  0  0  0  1  0  0  0  0  0  0
  181.2410  176.2480  139.8490 C   0  0  0  0  0  3  0  0  0  0  0  0
  182.9130  171.8160  136.6020 C   0  0  0  0  0  0  0  0  0  0  0  0
  181.1440  176.8360  135.5900 C   0  0  0  0  0  2  0  0  0  0  0  0
  186.0710  176.7570  137.2360 O   0  0  0  0  0  1  0  0  0  0  0  0
  185.8550  175.4360  136.8440 C   0  0  1  0  0  0  0  0  0  0  0  0
  186.7500  173.1400  136.9750 C   0  0  1  0  0  3  0  0  0  0  0  0
  184.5960  174.8990  137.5590 C   0  0  2  0  0  3  0  0  0  0  0  0
  178.9820  174.5970  136.4550 O   0  0  0  0  0  1  0  0  0  0  0  0
  182.9080  174.0620  135.9560 C   0  0  1  0  0  3  0  0  0  0  0  0
  185.7570  172.7130  137.8760 O   0  0  0  0  0  0  0  0  0  0  0  0
  187.0730  174.6060  137.2180 C   0  0  0  0  0  2  0  0  0  0  0  0
  179.5720  174.8010  135.2040 C   0  0  2  0  0  3  0  0  0  0  0  0
  182.2440  175.8930  137.6600 C   0  0  0  0  0  0  0  0  0  0  0  0
  181.4990  172.2280  136.4970 C   0  0  2  0  0  3  0  0  0  0  0  0
  188.0000  172.3100  137.1760 C   0  0  0  0  0  1  0  0  0  0  0  0
  180.7660  173.8700  134.9750 C   0  0  0  0  0  2  0  0  0  0  0  0
  182.2380  175.6840  139.0500 C   0  0  0  0  0  3  0  0  0  0  0  0
  180.2200  177.2240  137.8880 C   0  0  0  0  0  3  0  0  0  0  0  0
  180.2370  177.0240  139.2690 C   0  0  0  0  0  3  0  0  0  0  0  0
  179.8590  176.2880  134.9610 C   0  0  0  0  0  2  0  0  0  0  0  0
  183.8450  172.9170  136.3230 C   0  0  1  0  0  3  0  0  0  0  0  0
  181.5140  173.6610  136.2090 N   0  0  2  0  0  0  0  0  0  0  0  0
  184.5330  173.3710  137.5970 C   0  0  2  0  0  3  0  0  0  0  0  0
  183.2720  170.6730  136.8430 O   0  0  0  0  0  0  0  0  0  0  0  0
  183.3340  175.2920  136.7900 C   0  0  1  0  0  3  0  0  0  0  0  0
  1 16  2  0  0  0  0
  1 21  1  0  0  0  0
  5 27  2  0  0  0  0
  6  1  1  0  0  0  0
  8  2  1  6  0  0  0
  8 14  1  0  0  0  0
  8  7  1  0  0  0  0
  8 10  1  0  0  0  0
  9 18  1  1  0  0  0
  9 14  1  0  0  0  0
  9 13  1  0  0  0  0
 10 26  1  0  0  0  0
 12 25  1  0  0  0  0
 12 24  1  0  0  0  0
 12 28  1  0  0  0  0
 15 11  1  0  0  0  0
 16 20  1  0  0  0  0
 17  5  1  0  0  0  0
 17  3  1  0  0  0  0
 19 15  1  0  0  0  0
 19 25  1  0  0  0  0
 20  4  2  0  0  0  0
 21 22  2  0  0  0  0
 22  4  1  0  0  0  0
 23 15  1  0  0  0  0
 23  6  1  0  0  0  0
 24  5  1  0  0  0  0
 24 26  1  0  0  0  0
 25 17  1  0  0  0  0
 26 13  1  0  0  0  0
 28 10  1  0  0  0  0
 28 16  1  0  0  0  0
M  END
>  <MODEL>
6

>  <REMARK>
 VINA RESULT:      -4.5      5.622      7.588
  Name = 
  0 active torsions:
  status: ('A' for Active; 'I' for Inactive)
                            x       y       z     vdW  Elec       q    Type
                         _______ _______ _______ _____ _____    ______ ____

>  <TORSDO>
F 0

$$$$
=
 OpenBabel11122411553D

 28 32  0  0  1  0  0  0  0  0999 V2000
  185.2190  174.8180  136.6250 C   0  0  0  0  0  0  0  0  0  0  0  0
  183.0430  176.8310  140.5770 F   0  0  0  0  0  0  0  0  0  0  0  0
  180.9400  175.3960  134.6730 C   0  0  0  0  0  1  0  0  0  0  0  0
  185.4440  176.8760  134.7370 C   0  0  0  0  0  3  0  0  0  0  0  0
  180.2160  175.9910  136.9420 C   0  0  0  0  0  0  0  0  0  0  0  0
  185.0750  173.6860  137.5990 C   0  0  0  0  0  2  0  0  0  0  0  0
  184.7020  178.2660  140.0230 O   0  0  0  0  0  1  0  0  0  0  0  0
  183.3680  177.9280  139.7930 C   0  0  1  0  0  0  0  0  0  0  0  0
  181.0600  178.8010  139.7710 C   0  0  1  0  0  3  0  0  0  0  0  0
  183.1790  177.6200  138.2920 C   0  0  2  0  0  3  0  0  0  0  0  0
  183.3980  172.9870  134.9270 O   0  0  0  0  0  1  0  0  0  0  0  0
  182.2410  175.3600  137.9240 C   0  0  1  0  0  3  0  0  0  0  0  0
  180.9830  178.8020  138.3660 O   0  0  0  0  0  0  0  0  0  0  0  0
  182.4860  179.0950  140.2110 C   0  0  0  0  0  2  0  0  0  0  0  0
  183.2370  172.4730  136.2170 C   0  0  2  0  0  3  0  0  0  0  0  0
  184.4780  176.0070  136.7950 C   0  0  0  0  0  0  0  0  0  0  0  0
  180.7810  174.9150  136.1040 C   0  0  2  0  0  3  0  0  0  0  0  0
  180.1350  179.8640  140.3250 C   0  0  0  0  0  1  0  0  0  0  0  0
  182.1260  173.1930  136.9860 C   0  0  0  0  0  2  0  0  0  0  0  0
  184.5870  177.0220  135.8300 C   0  0  0  0  0  3  0  0  0  0  0  0
  186.0870  174.6870  135.5340 C   0  0  0  0  0  3  0  0  0  0  0  0
  186.2000  175.7120  134.5940 C   0  0  0  0  0  3  0  0  0  0  0  0
  184.5800  172.3880  136.9530 C   0  0  0  0  0  2  0  0  0  0  0  0
  181.0910  176.3510  138.0670 C   0  0  1  0  0  3  0  0  0  0  0  0
  182.0980  174.6150  136.6620 N   0  0  2  0  0  0  0  0  0  0  0  0
  181.7200  177.7120  137.8390 C   0  0  2  0  0  3  0  0  0  0  0  0
  179.1180  176.4940  136.7550 O   0  0  0  0  0  0  0  0  0  0  0  0
  183.5570  176.1680  137.9910 C   0  0  1  0  0  3  0  0  0  0  0  0
  1 16  1  0  0  0  0
  1  6  1  0  0  0  0
  3 17  1  0  0  0  0
  4 20  1  0  0  0  0
  5 24  1  0  0  0  0
  8  7  1  1  0  0  0
  8 14  1  0  0  0  0
  8  2  1  0  0  0  0
  9 14  1  0  0  0  0
  9 18  1  1  0  0  0
 10  8  1  0  0  0  0
 11 15  1  0  0  0  0
 12 28  1  0  0  0  0
 12 24  1  0  0  0  0
 13  9  1  0  0  0  0
 15 23  1  0  0  0  0
 15 19  1  0  0  0  0
 16 28  1  0  0  0  0
 17 25  1  0  0  0  0
 17  5  1  0  0  0  0
 20 16  2  0  0  0  0
 21  1  2  0  0  0  0
 22  4  2  0  0  0  0
 22 21  1  0  0  0  0
 23  6  1  0  0  0  0
 25 19  1  0  0  0  0
 25 12  1  0  0  0  0
 26 24  1  0  0  0  0
 26 10  1  0  0  0  0
 26 13  1  0  0  0  0
 27  5  2  0  0  0  0
 28 10  1  0  0  0  0
M  END
>  <MODEL>
7

>  <REMARK>
 VINA RESULT:      -4.5      6.083      9.246
  Name = 
  0 active torsions:
  status: ('A' for Active; 'I' for Inactive)
                            x       y       z     vdW  Elec       q    Type
                         _______ _______ _______ _____ _____    ______ ____

>  <TORSDO>
F 0

$$$$
=
 OpenBabel11122411553D

 28 32  0  0  1  0  0  0  0  0999 V2000
  186.9660  175.6170  135.4990 C   0  0  0  0  0  0  0  0  0  0  0  0
  182.8870  178.2750  136.3380 F   0  0  0  0  0  0  0  0  0  0  0  0
  188.1730  177.1420  139.8200 C   0  0  0  0  0  1  0  0  0  0  0  0
  186.8190  173.4130  137.2230 C   0  0  0  0  0  3  0  0  0  0  0  0
  186.1990  178.5890  139.6320 C   0  0  0  0  0  0  0  0  0  0  0  0
  187.0940  176.8060  134.5940 C   0  0  0  0  0  2  0  0  0  0  0  0
  182.1630  176.1460  136.0920 O   0  0  0  0  0  1  0  0  0  0  0  0
  182.6410  177.0840  137.0060 C   0  0  1  0  0  0  0  0  0  0  0  0
  182.1700  178.2000  139.1570 C   0  0  1  0  0  3  0  0  0  0  0  0
  183.9250  176.5360  137.6650 C   0  0  2  0  0  3  0  0  0  0  0  0
  189.5630  176.8080  136.6780 O   0  0  0  0  0  1  0  0  0  0  0  0
  185.8410  178.0750  137.3800 C   0  0  1  0  0  3  0  0  0  0  0  0
  183.1600  177.4770  139.8460 O   0  0  0  0  0  0  0  0  0  0  0  0
  181.5710  177.3370  138.0570 C   0  0  0  0  0  2  0  0  0  0  0  0
  189.0310  177.8810  135.9560 C   0  0  2  0  0  3  0  0  0  0  0  0
  186.0460  175.6260  136.5690 C   0  0  0  0  0  0  0  0  0  0  0  0
  187.5190  178.2750  139.0490 C   0  0  2  0  0  3  0  0  0  0  0  0
  181.0800  178.6080  140.1250 C   0  0  0  0  0  1  0  0  0  0  0  0
  188.0440  178.7000  136.7920 C   0  0  0  0  0  2  0  0  0  0  0  0
  185.9970  174.5220  137.4350 C   0  0  0  0  0  3  0  0  0  0  0  0
  187.7760  174.4950  135.2850 C   0  0  0  0  0  3  0  0  0  0  0  0
  187.7020  173.3960  136.1430 C   0  0  0  0  0  3  0  0  0  0  0  0
  188.4970  177.4230  134.5940 C   0  0  0  0  0  2  0  0  0  0  0  0
  185.1040  178.4430  138.6630 C   0  0  1  0  0  3  0  0  0  0  0  0
  187.2640  177.8410  137.6770 N   0  0  2  0  0  0  0  0  0  0  0  0
  184.2610  177.2240  138.9900 C   0  0  2  0  0  3  0  0  0  0  0  0
  186.0370  178.9800  140.7780 O   0  0  0  0  0  0  0  0  0  0  0  0
  185.1440  176.8280  136.7900 C   0  0  1  0  0  3  0  0  0  0  0  0
  1 16  1  0  0  0  0
  2  8  1  0  0  0  0
  4 20  1  0  0  0  0
  5 27  2  0  0  0  0
  6  1  1  0  0  0  0
  8  7  1  6  0  0  0
  8 10  1  0  0  0  0
  8 14  1  0  0  0  0
  9 13  1  0  0  0  0
  9 18  1  1  0  0  0
 10 26  1  0  0  0  0
 12 25  1  0  0  0  0
 12 24  1  0  0  0  0
 14  9  1  0  0  0  0
 15 11  1  0  0  0  0
 15 19  1  0  0  0  0
 16 28  1  0  0  0  0
 16 20  2  0  0  0  0
 17  5  1  0  0  0  0
 17  3  1  0  0  0  0
 19 25  1  0  0  0  0
 21  1  2  0  0  0  0
 21 22  1  0  0  0  0
 22  4  2  0  0  0  0
 23  6  1  0  0  0  0
 23 15  1  0  0  0  0
 24 26  1  0  0  0  0
 24  5  1  0  0  0  0
 25 17  1  0  0  0  0
 26 13  1  0  0  0  0
 28 12  1  0  0  0  0
 28 10  1  0  0  0  0
M  END
>  <MODEL>
8

>  <REMARK>
 VINA RESULT:      -4.4      3.805      7.757
  Name = 
  0 active torsions:
  status: ('A' for Active; 'I' for Inactive)
                            x       y       z     vdW  Elec       q    Type
                         _______ _______ _______ _____ _____    ______ ____

>  <TORSDO>
F 0

$$$$
=
 OpenBabel11122411553D

 28 32  0  0  1  0  0  0  0  0999 V2000
  188.2580  175.1330  135.5300 C   0  0  0  0  0  0  0  0  0  0  0  0
  184.1400  177.7980  134.9440 F   0  0  0  0  0  0  0  0  0  0  0  0
  188.2170  177.0560  139.8600 C   0  0  0  0  0  1  0  0  0  0  0  0
  187.6050  173.0910  137.3330 C   0  0  0  0  0  3  0  0  0  0  0  0
  186.3930  178.4520  138.9940 C   0  0  0  0  0  0  0  0  0  0  0  0
  188.6490  176.2380  134.5940 C   0  0  0  0  0  2  0  0  0  0  0  0
  183.4890  175.6460  134.6960 O   0  0  0  0  0  1  0  0  0  0  0  0
  183.7010  176.6690  135.6200 C   0  0  1  0  0  0  0  0  0  0  0  0
  182.6570  177.9660  137.4410 C   0  0  1  0  0  3  0  0  0  0  0  0
  184.7410  176.1990  136.6600 C   0  0  2  0  0  3  0  0  0  0  0  0
  190.4310  176.4610  137.2800 O   0  0  0  0  0  1  0  0  0  0  0  0
  186.6780  177.7340  136.7890 C   0  0  1  0  0  3  0  0  0  0  0  0
  183.4040  177.3210  138.4440 O   0  0  0  0  0  0  0  0  0  0  0  0
  182.3810  176.9990  136.3000 C   0  0  0  0  0  2  0  0  0  0  0  0
  190.1370  177.4570  136.3440 C   0  0  2  0  0  3  0  0  0  0  0  0
  187.0740  175.2250  136.2910 C   0  0  0  0  0  0  0  0  0  0  0  0
  187.8200  178.1060  138.8380 C   0  0  2  0  0  3  0  0  0  0  0  0
  181.3430  178.4430  138.0230 C   0  0  0  0  0  1  0  0  0  0  0  0
  188.9640  178.3340  136.7910 C   0  0  0  0  0  2  0  0  0  0  0  0
  186.7700  174.2020  137.2050 C   0  0  0  0  0  3  0  0  0  0  0  0
  189.0820  174.0080  135.6530 C   0  0  0  0  0  3  0  0  0  0  0  0
  188.7560  172.9900  136.5520 C   0  0  0  0  0  3  0  0  0  0  0  0
  190.0030  176.8720  134.9330 C   0  0  0  0  0  2  0  0  0  0  0  0
  185.6140  178.2040  137.7740 C   0  0  1  0  0  3  0  0  0  0  0  0
  187.9570  177.5480  137.4940 N   0  0  2  0  0  0  0  0  0  0  0  0
  184.6980  177.0080  137.9590 C   0  0  2  0  0  3  0  0  0  0  0  0
  185.9200  178.9420  140.0090 O   0  0  0  0  0  0  0  0  0  0  0  0
  186.1610  176.4290  136.1410 C   0  0  1  0  0  3  0  0  0  0  0  0
  1 21  2  0  0  0  0
  1 16  1  0  0  0  0
  2  8  1  0  0  0  0
  5 27  2  0  0  0  0
  6 23  1  0  0  0  0
  6  1  1  0  0  0  0
  8  7  1  6  0  0  0
  8 14  1  0  0  0  0
  8 10  1  0  0  0  0
  9 18  1  1  0  0  0
  9 13  1  0  0  0  0
 10 26  1  0  0  0  0
 12 25  1  0  0  0  0
 12 24  1  0  0  0  0
 14  9  1  0  0  0  0
 15 19  1  0  0  0  0
 15 11  1  0  0  0  0
 16 20  2  0  0  0  0
 17  5  1  0  0  0  0
 17  3  1  0  0  0  0
 19 25  1  0  0  0  0
 20  4  1  0  0  0  0
 21 22  1  0  0  0  0
 22  4  2  0  0  0  0
 23 15  1  0  0  0  0
 24 26  1  0  0  0  0
 24  5  1  0  0  0  0
 25 17  1  0  0  0  0
 26 13  1  0  0  0  0
 28 16  1  0  0  0  0
 28 10  1  0  0  0  0
 28 12  1  0  0  0  0
M  END
>  <MODEL>
9

>  <REMARK>
 VINA RESULT:      -4.4      3.118      7.201
  Name = 
  0 active torsions:
  status: ('A' for Active; 'I' for Inactive)
                            x       y       z     vdW  Elec       q    Type
                         _______ _______ _______ _____ _____    ______ ____

>  <TORSDO>
F 0

$$$$
