=
 OpenBabel11122410523D

 32 36  0  0  1  0  0  0  0  0999 V2000
  187.1590  178.1100  140.0600 C   0  0  1  0  0  3  0  0  0  0  0  0
  190.4350  177.0220  143.7520 C   0  0  0  0  0  2  0  0  0  0  0  0
  191.5750  177.2070  142.7690 C   0  0  0  0  0  2  0  0  0  0  0  0
  188.0000  178.1830  137.6600 C   0  0  2  0  0  3  0  0  0  0  0  0
  188.7680  177.1430  136.9480 N   0  0  2  0  0  0  0  0  0  0  0  0
  184.9550  178.4340  140.4090 C   0  0  2  0  0  3  0  0  0  0  0  0
  186.4240  178.0700  142.4160 C   0  0  0  0  0  2  0  0  0  0  0  0
  190.4330  175.4370  137.3300 C   0  0  2  0  0  3  0  0  0  0  0  0
  189.2930  177.9530  143.3670 C   0  0  0  0  0  2  0  0  0  0  0  0
  187.5770  178.4530  141.4950 C   0  0  1  0  0  3  0  0  0  0  0  0
  188.8950  177.8190  141.9130 C   0  0  1  0  0  3  0  0  0  0  0  0
  189.4090  177.3220  139.5220 C   0  0  2  0  0  3  0  0  0  0  0  0
  189.0770  174.8000  137.4950 C   0  0  0  0  0  2  0  0  0  0  0  0
  185.1190  178.7050  141.9190 C   0  0  2  0  0  3  0  0  0  0  0  0
  188.0710  175.8650  137.0890 C   0  0  0  0  0  2  0  0  0  0  0  0
  191.1120  176.7760  141.3840 C   0  0  0  0  0  2  0  0  0  0  0  0
  189.8080  177.4240  140.9770 C   0  0  2  0  0  3  0  0  0  0  0  0
  190.4960  177.4990  138.6570 O   0  0  0  0  0  0  0  0  0  0  0  0
  186.0720  178.9230  139.6990 O   0  0  0  0  0  0  0  0  0  0  0  0
  188.1670  179.5170  136.9590 C   0  0  0  0  0  1  0  0  0  0  0  0
  191.2980  175.0140  138.3420 O   0  0  0  0  0  1  0  0  0  0  0  0
  188.3490  178.3310  139.1440 C   0  0  2  0  0  3  0  0  0  0  0  0
  190.1670  176.9340  137.3920 C   0  0  2  0  0  3  0  0  0  0  0  0
  183.3020  178.5030  138.5490 C   0  0  0  0  0  1  0  0  0  0  0  0
  183.6980  179.1030  139.8840 C   0  0  0  0  0  2  0  0  0  0  0  0
  184.0430  178.1580  142.6320 O   0  0  0  0  0  0  0  0  0  0  0  0
  184.4450  179.3060  144.6870 C   0  0  0  0  0  1  0  0  0  0  0  0
  183.5700  179.1910  143.4520 C   0  0  2  0  0  3  0  0  0  0  0  0
  182.1460  178.8930  143.8950 C   0  0  0  0  0  2  0  0  0  0  0  0
  181.1680  179.2220  142.8210 C   0  0  0  0  0  0  0  0  0  0  0  0
  180.9690  178.4130  141.8780 O   0  0  0  0  0  0  0  0  0  0  0  0
  180.4610  180.4160  142.8700 O   0  0  0  0  0  1  0  0  0  0  0  0
  1 19  1  6  0  0  0
  1 10  1  0  0  0  0
  3  2  1  0  0  0  0
  4 20  1  6  0  0  0
  4 22  1  0  0  0  0
  5 15  1  1  0  0  0
  5 23  1  0  0  0  0
  5  4  1  0  0  0  0
  6 25  1  6  0  0  0
  6 14  1  0  0  0  0
  8 23  1  0  0  0  0
  8 13  1  0  0  0  0
  8 21  1  1  0  0  0
  9  2  1  0  0  0  0
 10 11  1  0  0  0  0
 10  7  1  1  0  0  0
 11  9  1  1  0  0  0
 12 18  1  6  0  0  0
 12 17  1  0  0  0  0
 14  7  1  0  0  0  0
 14 26  1  1  0  0  0
 15 13  1  0  0  0  0
 16  3  1  0  0  0  0
 17 16  1  1  0  0  0
 17 11  1  0  0  0  0
 19  6  1  0  0  0  0
 22 12  1  0  0  0  0
 22  1  1  0  0  0  0
 23 18  1  0  0  0  0
 24 25  1  0  0  0  0
 26 28  1  0  0  0  0
 28 29  1  0  0  0  0
 28 27  1  0  0  0  0
 30 32  1  0  0  0  0
 30 29  1  0  0  0  0
 31 30  2  0  0  0  0
M  END
>  <MODEL>
1

>  <REMARK>
 VINA RESULT:      -7.9      0.000      0.000
  Name = 
  5 active torsions:
  status: ('A' for Active; 'I' for Inactive)
    1  A    between atoms: C_7  and  C_19
    2  A    between atoms: O_10  and  C_17
    3  A    between atoms: O_10  and  C_20
    4  A    between atoms: C_20  and  C_29
    5  A    between atoms: C_29  and  C_30
                            x       y       z     vdW  Elec       q    Type
                         _______ _______ _______ _____ _____    ______ ____

>  <TORSDO>
F 5

$$$$
=
 OpenBabel11122410523D

 32 36  0  0  1  0  0  0  0  0999 V2000
  189.0350  177.0720  139.3340 C   0  0  1  0  0  3  0  0  0  0  0  0
  193.7760  175.8270  138.1000 C   0  0  0  0  0  2  0  0  0  0  0  0
  193.4320  176.0430  136.6380 C   0  0  0  0  0  2  0  0  0  0  0  0
  187.2920  177.2300  137.4870 C   0  0  2  0  0  3  0  0  0  0  0  0
  186.9740  176.2140  136.4660 N   0  0  2  0  0  0  0  0  0  0  0  0
  188.3470  177.3940  141.4570 C   0  0  2  0  0  3  0  0  0  0  0  0
  190.7890  176.9470  141.0660 C   0  0  0  0  0  2  0  0  0  0  0  0
  188.0150  174.4860  135.1400 C   0  0  2  0  0  3  0  0  0  0  0  0
  192.9440  176.7790  138.9500 C   0  0  0  0  0  2  0  0  0  0  0  0
  190.5140  177.3580  139.6240 C   0  0  1  0  0  3  0  0  0  0  0  0
  191.4660  176.7020  138.6360 C   0  0  1  0  0  3  0  0  0  0  0  0
  189.5600  176.2920  137.0770 C   0  0  2  0  0  3  0  0  0  0  0  0
  187.5170  173.8510  136.4130 C   0  0  0  0  0  2  0  0  0  0  0  0
  189.7730  177.6070  142.0060 C   0  0  2  0  0  3  0  0  0  0  0  0
  186.7340  174.9350  137.1340 C   0  0  0  0  0  2  0  0  0  0  0  0
  191.9740  175.6670  136.4110 C   0  0  0  0  0  2  0  0  0  0  0  0
  191.0380  176.3380  137.3910 C   0  0  2  0  0  3  0  0  0  0  0  0
  189.2960  176.4960  135.7180 O   0  0  0  0  0  0  0  0  0  0  0  0
  188.2460  177.9040  140.1450 O   0  0  0  0  0  0  0  0  0  0  0  0
  186.7940  178.5900  137.0350 C   0  0  0  0  0  1  0  0  0  0  0  0
  189.2940  174.0200  134.8290 O   0  0  0  0  0  1  0  0  0  0  0  0
  188.7750  177.3210  137.8590 C   0  0  2  0  0  3  0  0  0  0  0  0
  188.0020  175.9810  135.4230 C   0  0  2  0  0  3  0  0  0  0  0  0
  186.3030  178.8140  141.4920 C   0  0  0  0  0  1  0  0  0  0  0  0
  187.3290  178.0900  142.3420 C   0  0  0  0  0  2  0  0  0  0  0  0
  189.8940  177.0400  143.2820 O   0  0  0  0  0  0  0  0  0  0  0  0
  191.2010  178.9720  143.7920 C   0  0  0  0  0  1  0  0  0  0  0  0
  190.0010  178.1210  144.1670 C   0  0  2  0  0  3  0  0  0  0  0  0
  190.1950  177.6140  145.5870 C   0  0  0  0  0  2  0  0  0  0  0  0
  188.8890  177.4650  146.2890 C   0  0  0  0  0  0  0  0  0  0  0  0
  187.8460  177.9700  145.7970 O   0  0  0  0  0  0  0  0  0  0  0  0
  188.8200  176.7540  147.4800 O   0  0  0  0  0  1  0  0  0  0  0  0
  1 10  1  0  0  0  0
  1 19  1  1  0  0  0
  2  9  1  0  0  0  0
  3  2  1  0  0  0  0
  4 20  1  6  0  0  0
  4 22  1  0  0  0  0
  5 15  1  1  0  0  0
  5  4  1  0  0  0  0
  6 14  1  0  0  0  0
  6 25  1  1  0  0  0
  7 14  1  0  0  0  0
  8 21  1  1  0  0  0
  8 23  1  0  0  0  0
  8 13  1  0  0  0  0
 10  7  1  1  0  0  0
 11  9  1  6  0  0  0
 11 10  1  0  0  0  0
 12 18  1  6  0  0  0
 12 17  1  0  0  0  0
 12 22  1  0  0  0  0
 13 15  1  0  0  0  0
 14 26  1  1  0  0  0
 16  3  1  0  0  0  0
 17 16  1  1  0  0  0
 17 11  1  0  0  0  0
 19  6  1  0  0  0  0
 22  1  1  0  0  0  0
 23 18  1  0  0  0  0
 23  5  1  0  0  0  0
 24 25  1  0  0  0  0
 26 28  1  0  0  0  0
 27 28  1  0  0  0  0
 28 29  1  0  0  0  0
 29 30  1  0  0  0  0
 30 32  1  0  0  0  0
 31 30  2  0  0  0  0
M  END
>  <MODEL>
2

>  <REMARK>
 VINA RESULT:      -7.8      3.124      5.047
  Name = 
  5 active torsions:
  status: ('A' for Active; 'I' for Inactive)
    1  A    between atoms: C_7  and  C_19
    2  A    between atoms: O_10  and  C_17
    3  A    between atoms: O_10  and  C_20
    4  A    between atoms: C_20  and  C_29
    5  A    between atoms: C_29  and  C_30
                            x       y       z     vdW  Elec       q    Type
                         _______ _______ _______ _____ _____    ______ ____

>  <TORSDO>
F 5

$$$$
=
 OpenBabel11122410523D

 32 36  0  0  1  0  0  0  0  0999 V2000
  187.0770  178.0720  140.0170 C   0  0  1  0  0  3  0  0  0  0  0  0
  190.7640  177.1940  143.3620 C   0  0  0  0  0  2  0  0  0  0  0  0
  191.7830  177.3400  142.2480 C   0  0  0  0  0  2  0  0  0  0  0  0
  187.6420  178.0340  137.5370 C   0  0  2  0  0  3  0  0  0  0  0  0
  188.3380  176.9680  136.7930 N   0  0  2  0  0  0  0  0  0  0  0  0
  184.9230  178.3950  140.5980 C   0  0  2  0  0  3  0  0  0  0  0  0
  186.6130  178.1420  142.4410 C   0  0  0  0  0  2  0  0  0  0  0  0
  190.0590  175.2970  137.0650 C   0  0  2  0  0  3  0  0  0  0  0  0
  189.5730  178.0960  143.0650 C   0  0  0  0  0  2  0  0  0  0  0  0
  187.6500  178.4890  141.3780 C   0  0  1  0  0  3  0  0  0  0  0  0
  189.0150  177.8870  141.6730 C   0  0  1  0  0  3  0  0  0  0  0  0
  189.2630  177.2780  139.2660 C   0  0  2  0  0  3  0  0  0  0  0  0
  188.7400  174.6570  137.4130 C   0  0  0  0  0  2  0  0  0  0  0  0
  185.2520  178.7400  142.0650 C   0  0  2  0  0  3  0  0  0  0  0  0
  187.6800  175.6920  137.0730 C   0  0  0  0  0  2  0  0  0  0  0  0
  191.1720  176.8380  140.9470 C   0  0  0  0  0  2  0  0  0  0  0  0
  189.8220  177.4550  140.6600 C   0  0  2  0  0  3  0  0  0  0  0  0
  190.2430  177.4220  138.2760 O   0  0  0  0  0  0  0  0  0  0  0  0
  185.9450  178.8580  139.7430 O   0  0  0  0  0  0  0  0  0  0  0  0
  187.7100  179.3340  136.7590 C   0  0  0  0  0  1  0  0  0  0  0  0
  191.0390  174.9310  137.9910 O   0  0  0  0  0  1  0  0  0  0  0  0
  188.1530  178.2590  138.9630 C   0  0  2  0  0  3  0  0  0  0  0  0
  189.7820  176.7920  137.0850 C   0  0  2  0  0  3  0  0  0  0  0  0
  183.3230  178.7480  138.7240 C   0  0  0  0  0  1  0  0  0  0  0  0
  183.6050  179.0270  140.1880 C   0  0  0  0  0  2  0  0  0  0  0  0
  184.2710  178.2210  142.9210 O   0  0  0  0  0  0  0  0  0  0  0  0
  185.0950  180.2600  143.8490 C   0  0  0  0  0  1  0  0  0  0  0  0
  183.9560  179.2580  143.8080 C   0  0  2  0  0  3  0  0  0  0  0  0
  183.7520  178.7020  145.2080 C   0  0  0  0  0  2  0  0  0  0  0  0
  185.0460  178.5950  145.9390 C   0  0  0  0  0  0  0  0  0  0  0  0
  185.3200  179.4080  146.8610 O   0  0  0  0  0  1  0  0  0  0  0  0
  185.9440  177.5860  145.6140 O   0  0  0  0  0  0  0  0  0  0  0  0
  1 19  1  6  0  0  0
  1 10  1  0  0  0  0
  3  2  1  0  0  0  0
  4 20  1  6  0  0  0
  4 22  1  0  0  0  0
  5 15  1  1  0  0  0
  5 23  1  0  0  0  0
  5  4  1  0  0  0  0
  6 25  1  6  0  0  0
  6 14  1  0  0  0  0
  8 23  1  0  0  0  0
  8 13  1  0  0  0  0
  8 21  1  1  0  0  0
  9  2  1  0  0  0  0
 10 11  1  0  0  0  0
 10  7  1  1  0  0  0
 11  9  1  6  0  0  0
 12 18  1  6  0  0  0
 12 17  1  0  0  0  0
 14  7  1  0  0  0  0
 14 26  1  1  0  0  0
 15 13  1  0  0  0  0
 16  3  1  0  0  0  0
 17 16  1  1  0  0  0
 17 11  1  0  0  0  0
 19  6  1  0  0  0  0
 22 12  1  0  0  0  0
 22  1  1  0  0  0  0
 23 18  1  0  0  0  0
 24 25  1  0  0  0  0
 26 28  1  0  0  0  0
 28 27  1  0  0  0  0
 28 29  1  0  0  0  0
 29 30  1  0  0  0  0
 30 31  1  0  0  0  0
 32 30  2  0  0  0  0
M  END
>  <MODEL>
3

>  <REMARK>
 VINA RESULT:      -7.6      1.232      1.984
  Name = 
  5 active torsions:
  status: ('A' for Active; 'I' for Inactive)
    1  A    between atoms: C_7  and  C_19
    2  A    between atoms: O_10  and  C_17
    3  A    between atoms: O_10  and  C_20
    4  A    between atoms: C_20  and  C_29
    5  A    between atoms: C_29  and  C_30
                            x       y       z     vdW  Elec       q    Type
                         _______ _______ _______ _____ _____    ______ ____

>  <TORSDO>
F 5

$$$$
=
 OpenBabel11122410523D

 32 36  0  0  1  0  0  0  0  0999 V2000
  185.3700  178.2780  140.8720 C   0  0  1  0  0  3  0  0  0  0  0  0
  190.0800  177.4270  139.2450 C   0  0  0  0  0  2  0  0  0  0  0  0
  189.6690  177.9060  137.8650 C   0  0  0  0  0  2  0  0  0  0  0  0
  183.5470  178.7350  139.1570 C   0  0  2  0  0  3  0  0  0  0  0  0
  183.2070  177.9220  137.9740 N   0  0  2  0  0  0  0  0  0  0  0  0
  184.7670  178.1730  143.0420 C   0  0  2  0  0  3  0  0  0  0  0  0
  187.1980  177.8780  142.4810 C   0  0  0  0  0  2  0  0  0  0  0  0
  184.2270  176.5070  136.3040 C   0  0  2  0  0  3  0  0  0  0  0  0
  189.2650  178.1750  140.2910 C   0  0  0  0  0  2  0  0  0  0  0  0
  186.8540  178.5470  141.1550 C   0  0  1  0  0  3  0  0  0  0  0  0
  187.7760  178.1170  140.0250 C   0  0  1  0  0  3  0  0  0  0  0  0
  185.8150  177.9570  138.4900 C   0  0  2  0  0  3  0  0  0  0  0  0
  183.7970  175.6280  137.4490 C   0  0  0  0  0  2  0  0  0  0  0  0
  186.2100  178.3180  143.5680 C   0  0  2  0  0  3  0  0  0  0  0  0
  183.0230  176.5330  138.3930 C   0  0  0  0  0  2  0  0  0  0  0  0
  188.2110  177.5380  137.6250 C   0  0  0  0  0  2  0  0  0  0  0  0
  187.3040  177.9840  138.7500 C   0  0  2  0  0  3  0  0  0  0  0  0
  185.4890  178.4070  137.2050 O   0  0  0  0  0  0  0  0  0  0  0  0
  184.5990  178.9190  141.8560 O   0  0  0  0  0  0  0  0  0  0  0  0
  183.0020  180.1400  138.9910 C   0  0  0  0  0  1  0  0  0  0  0  0
  185.5010  176.1460  135.8610 O   0  0  0  0  0  1  0  0  0  0  0  0
  185.0420  178.7960  139.4830 C   0  0  2  0  0  3  0  0  0  0  0  0
  184.1950  177.9200  136.8670 C   0  0  2  0  0  3  0  0  0  0  0  0
  182.4480  178.9950  143.4240 C   0  0  0  0  0  1  0  0  0  0  0  0
  183.7730  178.6580  144.0820 C   0  0  0  0  0  2  0  0  0  0  0  0
  186.3960  177.5220  144.7060 O   0  0  0  0  0  0  0  0  0  0  0  0
  188.7200  177.5300  145.2570 C   0  0  0  0  0  1  0  0  0  0  0  0
  187.3660  178.1820  145.4730 C   0  0  2  0  0  3  0  0  0  0  0  0
  187.0150  178.0890  146.9490 C   0  0  0  0  0  2  0  0  0  0  0  0
  185.8630  178.9700  147.2860 C   0  0  0  0  0  0  0  0  0  0  0  0
  186.0640  180.1390  147.7100 O   0  0  0  0  0  1  0  0  0  0  0  0
  184.5640  178.5080  147.1170 O   0  0  0  0  0  0  0  0  0  0  0  0
  1 10  1  0  0  0  0
  1 19  1  1  0  0  0
  2  9  1  0  0  0  0
  3  2  1  0  0  0  0
  4 20  1  6  0  0  0
  4 22  1  0  0  0  0
  5 15  1  1  0  0  0
  5  4  1  0  0  0  0
  6 14  1  0  0  0  0
  6 25  1  1  0  0  0
  7 14  1  0  0  0  0
  8 21  1  1  0  0  0
  8 23  1  0  0  0  0
  8 13  1  0  0  0  0
 10  7  1  1  0  0  0
 11  9  1  6  0  0  0
 11 10  1  0  0  0  0
 12 18  1  6  0  0  0
 12 17  1  0  0  0  0
 12 22  1  0  0  0  0
 13 15  1  0  0  0  0
 14 26  1  1  0  0  0
 16  3  1  0  0  0  0
 17 16  1  1  0  0  0
 17 11  1  0  0  0  0
 19  6  1  0  0  0  0
 22  1  1  0  0  0  0
 23 18  1  0  0  0  0
 23  5  1  0  0  0  0
 24 25  1  0  0  0  0
 26 28  1  0  0  0  0
 27 28  1  0  0  0  0
 28 29  1  0  0  0  0
 29 30  1  0  0  0  0
 30 31  1  0  0  0  0
 32 30  2  0  0  0  0
M  END
>  <MODEL>
4

>  <REMARK>
 VINA RESULT:      -7.5      2.569      4.700
  Name = 
  5 active torsions:
  status: ('A' for Active; 'I' for Inactive)
    1  A    between atoms: C_7  and  C_19
    2  A    between atoms: O_10  and  C_17
    3  A    between atoms: O_10  and  C_20
    4  A    between atoms: C_20  and  C_29
    5  A    between atoms: C_29  and  C_30
                            x       y       z     vdW  Elec       q    Type
                         _______ _______ _______ _____ _____    ______ ____

>  <TORSDO>
F 5

$$$$
=
 OpenBabel11122410523D

 32 36  0  0  1  0  0  0  0  0999 V2000
  184.3930  178.2820  139.8630 C   0  0  1  0  0  3  0  0  0  0  0  0
  184.9340  179.2260  144.7990 C   0  0  0  0  0  2  0  0  0  0  0  0
  183.5090  178.7590  145.0250 C   0  0  0  0  0  2  0  0  0  0  0  0
  182.0620  177.8200  138.9540 C   0  0  2  0  0  3  0  0  0  0  0  0
  180.8510  178.6430  139.1350 N   0  0  2  0  0  0  0  0  0  0  0  0
  186.0990  178.3500  138.3900 C   0  0  2  0  0  3  0  0  0  0  0  0
  186.6310  178.6890  140.8230 C   0  0  0  0  0  2  0  0  0  0  0  0
  179.7830  180.0950  140.7420 C   0  0  2  0  0  3  0  0  0  0  0  0
  185.5300  178.4510  143.6310 C   0  0  0  0  0  2  0  0  0  0  0  0
  185.2800  178.0320  141.0890 C   0  0  1  0  0  3  0  0  0  0  0  0
  184.6540  178.4900  142.3970 C   0  0  1  0  0  3  0  0  0  0  0  0
  182.4300  178.6410  141.2740 C   0  0  2  0  0  3  0  0  0  0  0  0
  180.6410  180.9520  139.8480 C   0  0  0  0  0  2  0  0  0  0  0  0
  187.1890  178.2200  139.4740 C   0  0  2  0  0  3  0  0  0  0  0  0
  181.1600  180.0230  138.7630 C   0  0  0  0  0  2  0  0  0  0  0  0
  182.6720  179.1070  143.8010 C   0  0  0  0  0  2  0  0  0  0  0  0
  183.3000  178.6330  142.5110 C   0  0  2  0  0  3  0  0  0  0  0  0
  181.1270  178.2030  141.5360 O   0  0  0  0  0  0  0  0  0  0  0  0
  184.9510  177.6160  138.7580 O   0  0  0  0  0  0  0  0  0  0  0  0
  181.6720  176.4080  138.5590 C   0  0  0  0  0  1  0  0  0  0  0  0
  179.9280  180.4810  142.0760 O   0  0  0  0  0  1  0  0  0  0  0  0
  182.9940  177.7780  140.1690 C   0  0  2  0  0  3  0  0  0  0  0  0
  180.2710  178.6740  140.5000 C   0  0  2  0  0  3  0  0  0  0  0  0
  186.3990  176.3370  136.9560 C   0  0  0  0  0  1  0  0  0  0  0  0
  186.6130  177.8350  137.0570 C   0  0  0  0  0  2  0  0  0  0  0  0
  188.3030  179.0030  139.1420 O   0  0  0  0  0  0  0  0  0  0  0  0
  189.8540  177.4950  138.1310 C   0  0  0  0  0  1  0  0  0  0  0  0
  189.4210  178.1990  139.4040 C   0  0  2  0  0  3  0  0  0  0  0  0
  189.0730  177.1460  140.4440 C   0  0  0  0  0  2  0  0  0  0  0  0
  190.2540  176.8110  141.2880 C   0  0  0  0  0  0  0  0  0  0  0  0
  190.1790  175.8890  142.1420 O   0  0  0  0  0  1  0  0  0  0  0  0
  191.4440  177.5070  141.1210 O   0  0  0  0  0  0  0  0  0  0  0  0
  1 19  1  6  0  0  0
  1 22  1  0  0  0  0
  1 10  1  0  0  0  0
  2  3  1  0  0  0  0
  4 20  1  1  0  0  0
  4  5  1  0  0  0  0
  4 22  1  0  0  0  0
  5 15  1  1  0  0  0
  5 23  1  0  0  0  0
  6 25  1  6  0  0  0
  6 19  1  0  0  0  0
  6 14  1  0  0  0  0
  8 21  1  1  0  0  0
  9  2  1  0  0  0  0
 10  7  1  6  0  0  0
 10 11  1  0  0  0  0
 11 17  1  0  0  0  0
 11  9  1  1  0  0  0
 12 18  1  1  0  0  0
 12 17  1  0  0  0  0
 13  8  1  0  0  0  0
 14 26  1  6  0  0  0
 14  7  1  0  0  0  0
 15 13  1  0  0  0  0
 16  3  1  0  0  0  0
 17 16  1  6  0  0  0
 22 12  1  0  0  0  0
 23  8  1  0  0  0  0
 23 18  1  0  0  0  0
 24 25  1  0  0  0  0
 26 28  1  0  0  0  0
 27 28  1  0  0  0  0
 28 29  1  0  0  0  0
 29 30  1  0  0  0  0
 30 31  1  0  0  0  0
 32 30  2  0  0  0  0
M  END
>  <MODEL>
5

>  <REMARK>
 VINA RESULT:      -7.4      2.314      7.564
  Name = 
  5 active torsions:
  status: ('A' for Active; 'I' for Inactive)
    1  A    between atoms: C_7  and  C_19
    2  A    between atoms: O_10  and  C_17
    3  A    between atoms: O_10  and  C_20
    4  A    between atoms: C_20  and  C_29
    5  A    between atoms: C_29  and  C_30
                            x       y       z     vdW  Elec       q    Type
                         _______ _______ _______ _____ _____    ______ ____

>  <TORSDO>
F 5

$$$$
=
 OpenBabel11122410523D

 32 36  0  0  1  0  0  0  0  0999 V2000
  185.4360  178.3470  141.3680 C   0  0  1  0  0  3  0  0  0  0  0  0
  190.3030  177.1270  140.7560 C   0  0  0  0  0  2  0  0  0  0  0  0
  190.2400  177.6660  139.3390 C   0  0  0  0  0  2  0  0  0  0  0  0
  184.0690  178.9900  139.3200 C   0  0  2  0  0  3  0  0  0  0  0  0
  183.9300  178.2320  138.0630 N   0  0  2  0  0  0  0  0  0  0  0  0
  184.3710  178.2530  143.3530 C   0  0  2  0  0  3  0  0  0  0  0  0
  186.8360  177.7610  143.3150 C   0  0  0  0  0  2  0  0  0  0  0  0
  185.1710  176.7670  136.5990 C   0  0  2  0  0  3  0  0  0  0  0  0
  189.3440  177.9230  141.6310 C   0  0  0  0  0  2  0  0  0  0  0  0
  186.8400  178.4830  141.9710 C   0  0  1  0  0  3  0  0  0  0  0  0
  187.9480  177.9970  141.0500 C   0  0  1  0  0  3  0  0  0  0  0  0
  186.3590  178.0340  139.1260 C   0  0  2  0  0  3  0  0  0  0  0  0
  184.4350  175.9070  137.5930 C   0  0  0  0  0  2  0  0  0  0  0  0
  185.6730  178.2640  144.1800 C   0  0  2  0  0  3  0  0  0  0  0  0
  183.5490  176.8570  138.3820 C   0  0  0  0  0  2  0  0  0  0  0  0
  188.8440  177.4290  138.7790 C   0  0  0  0  0  2  0  0  0  0  0  0
  187.7540  177.9290  139.7000 C   0  0  2  0  0  3  0  0  0  0  0  0
  186.3550  178.5350  137.8190 O   0  0  0  0  0  0  0  0  0  0  0  0
  184.5240  179.0330  142.1870 O   0  0  0  0  0  0  0  0  0  0  0  0
  183.6870  180.4400  139.0940 C   0  0  0  0  0  1  0  0  0  0  0  0
  186.4780  176.3070  136.4260 O   0  0  0  0  0  1  0  0  0  0  0  0
  185.4590  178.9170  139.9610 C   0  0  2  0  0  3  0  0  0  0  0  0
  185.1300  178.1670  137.1940 C   0  0  2  0  0  3  0  0  0  0  0  0
  181.9980  179.0020  143.2940 C   0  0  0  0  0  1  0  0  0  0  0  0
  183.2180  178.8010  144.1730 C   0  0  0  0  0  2  0  0  0  0  0  0
  185.5460  177.4340  145.3020 O   0  0  0  0  0  0  0  0  0  0  0  0
  185.9790  179.5360  146.3490 C   0  0  0  0  0  1  0  0  0  0  0  0
  186.2920  178.0510  146.3150 C   0  0  2  0  0  3  0  0  0  0  0  0
  187.7790  177.8780  146.0450 C   0  0  0  0  0  2  0  0  0  0  0  0
  188.4910  177.3790  147.2540 C   0  0  0  0  0  0  0  0  0  0  0  0
  189.6060  176.8070  147.1400 O   0  0  0  0  0  0  0  0  0  0  0  0
  187.9310  177.5590  148.5120 O   0  0  0  0  0  1  0  0  0  0  0  0
  1 10  1  0  0  0  0
  1 19  1  1  0  0  0
  2  9  1  0  0  0  0
  3  2  1  0  0  0  0
  4 20  1  6  0  0  0
  4 22  1  0  0  0  0
  5 15  1  1  0  0  0
  5  4  1  0  0  0  0
  6 25  1  1  0  0  0
  6 14  1  0  0  0  0
  7 14  1  0  0  0  0
  8 21  1  1  0  0  0
  8 23  1  0  0  0  0
  8 13  1  0  0  0  0
 10  7  1  1  0  0  0
 11  9  1  6  0  0  0
 11 10  1  0  0  0  0
 12 18  1  6  0  0  0
 12 17  1  0  0  0  0
 12 22  1  0  0  0  0
 13 15  1  0  0  0  0
 14 26  1  1  0  0  0
 16  3  1  0  0  0  0
 17 16  1  1  0  0  0
 17 11  1  0  0  0  0
 19  6  1  0  0  0  0
 22  1  1  0  0  0  0
 23 18  1  0  0  0  0
 23  5  1  0  0  0  0
 24 25  1  0  0  0  0
 26 28  1  0  0  0  0
 28 27  1  0  0  0  0
 29 28  1  0  0  0  0
 29 30  1  0  0  0  0
 30 32  1  0  0  0  0
 31 30  2  0  0  0  0
M  END
>  <MODEL>
6

>  <REMARK>
 VINA RESULT:      -7.3      2.754      4.695
  Name = 
  5 active torsions:
  status: ('A' for Active; 'I' for Inactive)
    1  A    between atoms: C_7  and  C_19
    2  A    between atoms: O_10  and  C_17
    3  A    between atoms: O_10  and  C_20
    4  A    between atoms: C_20  and  C_29
    5  A    between atoms: C_29  and  C_30
                            x       y       z     vdW  Elec       q    Type
                         _______ _______ _______ _____ _____    ______ ____

>  <TORSDO>
F 5

$$$$
=
 OpenBabel11122410523D

 32 36  0  0  1  0  0  0  0  0999 V2000
  183.1600  178.2020  139.8750 C   0  0  1  0  0  3  0  0  0  0  0  0
  184.9570  179.3510  144.4580 C   0  0  0  0  0  2  0  0  0  0  0  0
  183.6270  178.9410  145.0610 C   0  0  0  0  0  2  0  0  0  0  0  0
  180.6660  177.7750  139.6110 C   0  0  2  0  0  3  0  0  0  0  0  0
  179.5570  178.6440  140.0500 N   0  0  2  0  0  0  0  0  0  0  0  0
  184.4360  178.1480  138.0170 C   0  0  2  0  0  3  0  0  0  0  0  0
  185.5750  178.5800  140.2150 C   0  0  0  0  0  2  0  0  0  0  0  0
  178.9620  180.2010  141.7960 C   0  0  2  0  0  3  0  0  0  0  0  0
  185.2200  178.5050  143.2190 C   0  0  0  0  0  2  0  0  0  0  0  0
  184.3250  177.9800  140.8480 C   0  0  1  0  0  3  0  0  0  0  0  0
  184.0610  178.5170  142.2460 C   0  0  1  0  0  3  0  0  0  0  0  0
  181.6280  178.6890  141.7170 C   0  0  2  0  0  3  0  0  0  0  0  0
  179.5810  180.9890  140.6710 C   0  0  0  0  0  2  0  0  0  0  0  0
  185.7630  178.0320  138.7950 C   0  0  2  0  0  3  0  0  0  0  0  0
  179.7880  179.9950  139.5400 C   0  0  0  0  0  2  0  0  0  0  0  0
  182.5140  179.2610  144.0730 C   0  0  0  0  0  2  0  0  0  0  0  0
  182.7840  178.7080  142.6910 C   0  0  2  0  0  3  0  0  0  0  0  0
  180.4260  178.3050  142.3220 O   0  0  0  0  0  0  0  0  0  0  0  0
  183.4050  177.4700  138.7020 O   0  0  0  0  0  0  0  0  0  0  0  0
  180.1600  176.3610  139.4020 C   0  0  0  0  0  1  0  0  0  0  0  0
  179.4490  180.6430  143.0280 O   0  0  0  0  0  1  0  0  0  0  0  0
  181.8750  177.7580  140.5510 C   0  0  2  0  0  3  0  0  0  0  0  0
  179.3450  178.7560  141.5130 C   0  0  2  0  0  3  0  0  0  0  0  0
  184.1030  176.1190  136.6130 C   0  0  0  0  0  1  0  0  0  0  0  0
  184.5840  177.5570  136.6260 C   0  0  0  0  0  2  0  0  0  0  0  0
  186.7710  178.7620  138.1520 O   0  0  0  0  0  0  0  0  0  0  0  0
  189.0740  178.6550  138.7730 C   0  0  0  0  0  1  0  0  0  0  0  0
  187.8970  177.9290  138.1470 C   0  0  2  0  0  3  0  0  0  0  0  0
  188.2640  177.5560  136.7190 C   0  0  0  0  0  2  0  0  0  0  0  0
  188.2080  176.0820  136.5160 C   0  0  0  0  0  0  0  0  0  0  0  0
  187.5190  175.3630  137.2860 O   0  0  0  0  0  1  0  0  0  0  0  0
  188.9050  175.5010  135.4640 O   0  0  0  0  0  0  0  0  0  0  0  0
  1 19  1  6  0  0  0
  1 22  1  0  0  0  0
  1 10  1  0  0  0  0
  2  3  1  0  0  0  0
  4 20  1  1  0  0  0
  4  5  1  0  0  0  0
  4 22  1  0  0  0  0
  5 15  1  1  0  0  0
  5 23  1  0  0  0  0
  6 25  1  6  0  0  0
  6 19  1  0  0  0  0
  6 14  1  0  0  0  0
  8 21  1  1  0  0  0
  9  2  1  0  0  0  0
 10  7  1  6  0  0  0
 10 11  1  0  0  0  0
 11 17  1  0  0  0  0
 11  9  1  1  0  0  0
 12 18  1  1  0  0  0
 12 17  1  0  0  0  0
 13  8  1  0  0  0  0
 14 26  1  6  0  0  0
 14  7  1  0  0  0  0
 15 13  1  0  0  0  0
 16  3  1  0  0  0  0
 17 16  1  6  0  0  0
 22 12  1  0  0  0  0
 23  8  1  0  0  0  0
 23 18  1  0  0  0  0
 24 25  1  0  0  0  0
 28 26  1  0  0  0  0
 28 27  1  0  0  0  0
 29 28  1  0  0  0  0
 30 29  1  0  0  0  0
 30 31  1  0  0  0  0
 32 30  2  0  0  0  0
M  END
>  <MODEL>
7

>  <REMARK>
 VINA RESULT:      -7.2      2.996      8.134
  Name = 
  5 active torsions:
  status: ('A' for Active; 'I' for Inactive)
    1  A    between atoms: C_7  and  C_19
    2  A    between atoms: O_10  and  C_17
    3  A    between atoms: O_10  and  C_20
    4  A    between atoms: C_20  and  C_29
    5  A    between atoms: C_29  and  C_30
                            x       y       z     vdW  Elec       q    Type
                         _______ _______ _______ _____ _____    ______ ____

>  <TORSDO>
F 5

$$$$
=
 OpenBabel11122410523D

 32 36  0  0  1  0  0  0  0  0999 V2000
  186.5570  177.9100  140.5790 C   0  0  1  0  0  3  0  0  0  0  0  0
  190.8280  176.6370  138.1930 C   0  0  0  0  0  2  0  0  0  0  0  0
  190.2330  177.1520  136.8960 C   0  0  0  0  0  2  0  0  0  0  0  0
  184.5180  178.5290  139.1900 C   0  0  2  0  0  3  0  0  0  0  0  0
  183.9110  177.7510  138.0940 N   0  0  2  0  0  0  0  0  0  0  0  0
  186.3240  177.8600  142.8210 C   0  0  2  0  0  3  0  0  0  0  0  0
  188.5890  177.3460  141.8630 C   0  0  0  0  0  2  0  0  0  0  0  0
  184.5030  176.2500  136.2980 C   0  0  2  0  0  3  0  0  0  0  0  0
  190.2720  177.4560  139.3510 C   0  0  0  0  0  2  0  0  0  0  0  0
  188.0850  178.0440  140.6040 C   0  0  1  0  0  3  0  0  0  0  0  0
  188.7610  177.5330  139.3410 C   0  0  1  0  0  3  0  0  0  0  0  0
  186.5610  177.5500  138.1620 C   0  0  2  0  0  3  0  0  0  0  0  0
  184.1970  175.4130  137.5130 C   0  0  0  0  0  2  0  0  0  0  0  0
  187.8420  177.8740  143.0940 C   0  0  2  0  0  3  0  0  0  0  0  0
  183.6780  176.3840  138.5600 C   0  0  0  0  0  2  0  0  0  0  0  0
  188.7290  176.9170  136.9110 C   0  0  0  0  0  2  0  0  0  0  0  0
  188.0690  177.4430  138.1660 C   0  0  2  0  0  3  0  0  0  0  0  0
  186.0630  178.0280  136.9440 O   0  0  0  0  0  0  0  0  0  0  0  0
  186.0240  178.6180  141.6700 O   0  0  0  0  0  0  0  0  0  0  0  0
  184.0800  179.9780  139.0980 C   0  0  0  0  0  1  0  0  0  0  0  0
  185.6460  175.7750  135.6520 O   0  0  0  0  0  1  0  0  0  0  0  0
  186.0460  178.4550  139.2580 C   0  0  2  0  0  3  0  0  0  0  0  0
  184.6930  177.6600  136.8370 C   0  0  2  0  0  3  0  0  0  0  0  0
  184.1530  178.7960  143.6000 C   0  0  0  0  0  1  0  0  0  0  0  0
  185.5680  178.4330  144.0070 C   0  0  0  0  0  2  0  0  0  0  0  0
  188.1480  177.0650  144.1960 O   0  0  0  0  0  0  0  0  0  0  0  0
  190.2140  178.2250  144.4940 C   0  0  0  0  0  1  0  0  0  0  0  0
  188.8560  177.8870  145.0830 C   0  0  2  0  0  3  0  0  0  0  0  0
  189.0690  177.1660  146.4050 C   0  0  0  0  0  2  0  0  0  0  0  0
  188.2510  177.7770  147.4890 C   0  0  0  0  0  0  0  0  0  0  0  0
  187.0160  177.9580  147.3240 O   0  0  0  0  0  0  0  0  0  0  0  0
  188.8490  178.1320  148.6910 O   0  0  0  0  0  1  0  0  0  0  0  0
  1 10  1  0  0  0  0
  1 19  1  1  0  0  0
  2  9  1  0  0  0  0
  3 16  1  0  0  0  0
  3  2  1  0  0  0  0
  4 20  1  6  0  0  0
  4 22  1  0  0  0  0
  5 15  1  1  0  0  0
  5  4  1  0  0  0  0
  6 14  1  0  0  0  0
  6 25  1  1  0  0  0
  7 14  1  0  0  0  0
  8 21  1  1  0  0  0
  8 23  1  0  0  0  0
  8 13  1  0  0  0  0
 10  7  1  1  0  0  0
 11  9  1  6  0  0  0
 11 10  1  0  0  0  0
 12 18  1  6  0  0  0
 12 17  1  0  0  0  0
 12 22  1  0  0  0  0
 13 15  1  0  0  0  0
 14 26  1  1  0  0  0
 17 16  1  1  0  0  0
 17 11  1  0  0  0  0
 19  6  1  0  0  0  0
 22  1  1  0  0  0  0
 23 18  1  0  0  0  0
 23  5  1  0  0  0  0
 24 25  1  0  0  0  0
 26 28  1  0  0  0  0
 27 28  1  0  0  0  0
 28 29  1  0  0  0  0
 29 30  1  0  0  0  0
 30 32  1  0  0  0  0
 31 30  2  0  0  0  0
M  END
>  <MODEL>
8

>  <REMARK>
 VINA RESULT:      -7.1      2.857      5.159
  Name = 
  5 active torsions:
  status: ('A' for Active; 'I' for Inactive)
    1  A    between atoms: C_7  and  C_19
    2  A    between atoms: O_10  and  C_17
    3  A    between atoms: O_10  and  C_20
    4  A    between atoms: C_20  and  C_29
    5  A    between atoms: C_29  and  C_30
                            x       y       z     vdW  Elec       q    Type
                         _______ _______ _______ _____ _____    ______ ____

>  <TORSDO>
F 5

$$$$
=
 OpenBabel11122410523D

 32 36  0  0  1  0  0  0  0  0999 V2000
  185.4590  178.2400  140.5450 C   0  0  1  0  0  3  0  0  0  0  0  0
  189.7740  177.5830  137.9950 C   0  0  0  0  0  2  0  0  0  0  0  0
  189.0450  177.9270  136.7100 C   0  0  0  0  0  2  0  0  0  0  0  0
  183.2850  178.4410  139.2390 C   0  0  2  0  0  3  0  0  0  0  0  0
  182.7710  177.5190  138.2090 N   0  0  2  0  0  0  0  0  0  0  0  0
  185.3370  178.2610  142.7960 C   0  0  2  0  0  3  0  0  0  0  0  0
  187.6120  178.0870  141.7430 C   0  0  0  0  0  2  0  0  0  0  0  0
  183.5280  176.0520  136.4470 C   0  0  2  0  0  3  0  0  0  0  0  0
  189.1400  178.3540  139.1460 C   0  0  0  0  0  2  0  0  0  0  0  0
  186.9420  178.6280  140.4850 C   0  0  1  0  0  3  0  0  0  0  0  0
  187.6380  178.1760  139.2100 C   0  0  1  0  0  3  0  0  0  0  0  0
  185.4180  177.7670  138.1470 C   0  0  2  0  0  3  0  0  0  0  0  0
  183.4230  175.2360  137.7100 C   0  0  0  0  0  2  0  0  0  0  0  0
  186.8410  178.5420  142.9890 C   0  0  2  0  0  3  0  0  0  0  0  0
  182.7930  176.1580  138.7420 C   0  0  0  0  0  2  0  0  0  0  0  0
  187.6040  177.4450  136.8130 C   0  0  0  0  0  2  0  0  0  0  0  0
  186.9210  177.9140  138.0780 C   0  0  2  0  0  3  0  0  0  0  0  0
  184.7930  178.0950  136.9380 O   0  0  0  0  0  0  0  0  0  0  0  0
  184.8630  178.9020  141.6320 O   0  0  0  0  0  0  0  0  0  0  0  0
  182.6050  179.7900  139.1100 C   0  0  0  0  0  1  0  0  0  0  0  0
  184.7060  175.7440  135.7630 O   0  0  0  0  0  1  0  0  0  0  0  0
  184.8050  178.6270  139.2310 C   0  0  2  0  0  3  0  0  0  0  0  0
  183.5010  177.4990  136.9170 C   0  0  2  0  0  3  0  0  0  0  0  0
  183.1030  179.0030  143.6060 C   0  0  0  0  0  1  0  0  0  0  0  0
  184.5480  178.7580  143.9950 C   0  0  0  0  0  2  0  0  0  0  0  0
  187.3280  177.8510  144.1060 O   0  0  0  0  0  0  0  0  0  0  0  0
  188.7780  176.0440  143.5280 C   0  0  0  0  0  1  0  0  0  0  0  0
  188.6580  177.5320  143.8040 C   0  0  2  0  0  3  0  0  0  0  0  0
  189.5570  177.8790  144.9800 C   0  0  0  0  0  2  0  0  0  0  0  0
  190.9850  177.5860  144.6710 C   0  0  0  0  0  0  0  0  0  0  0  0
  191.5690  178.2000  143.7400 O   0  0  0  0  0  0  0  0  0  0  0  0
  191.6770  176.6460  145.4230 O   0  0  0  0  0  1  0  0  0  0  0  0
  1 19  1  1  0  0  0
  2  9  1  0  0  0  0
  3 16  1  0  0  0  0
  3  2  1  0  0  0  0
  4 20  1  6  0  0  0
  5 15  1  1  0  0  0
  5  4  1  0  0  0  0
  6 14  1  0  0  0  0
  6 25  1  1  0  0  0
  7 14  1  0  0  0  0
  8 21  1  1  0  0  0
  8 23  1  0  0  0  0
  8 13  1  0  0  0  0
 10  1  1  0  0  0  0
 10  7  1  1  0  0  0
 11  9  1  6  0  0  0
 11 10  1  0  0  0  0
 12 18  1  6  0  0  0
 12 22  1  0  0  0  0
 13 15  1  0  0  0  0
 14 26  1  1  0  0  0
 17 16  1  1  0  0  0
 17 12  1  0  0  0  0
 17 11  1  0  0  0  0
 19  6  1  0  0  0  0
 22  4  1  0  0  0  0
 22  1  1  0  0  0  0
 23 18  1  0  0  0  0
 23  5  1  0  0  0  0
 24 25  1  0  0  0  0
 27 28  1  0  0  0  0
 28 26  1  0  0  0  0
 28 29  1  0  0  0  0
 30 29  1  0  0  0  0
 30 32  1  0  0  0  0
 31 30  2  0  0  0  0
M  END
>  <MODEL>
9

>  <REMARK>
 VINA RESULT:      -6.9      2.657      5.828
  Name = 
  5 active torsions:
  status: ('A' for Active; 'I' for Inactive)
    1  A    between atoms: C_7  and  C_19
    2  A    between atoms: O_10  and  C_17
    3  A    between atoms: O_10  and  C_20
    4  A    between atoms: C_20  and  C_29
    5  A    between atoms: C_29  and  C_30
                            x       y       z     vdW  Elec       q    Type
                         _______ _______ _______ _____ _____    ______ ____

>  <TORSDO>
F 5

$$$$
