=
 OpenBabel11122411313D

 37 44  0  0  1  0  0  0  0  0999 V2000
  186.7430  178.5120  144.0670 C   0  0  0  0  0  2  0  0  0  0  0  0
  190.4070  176.6160  144.6410 C   0  0  0  0  0  0  0  0  0  0  0  0
  189.4770  177.3880  140.7400 C   0  0  0  0  0  0  0  0  0  0  0  0
  185.7330  178.4320  145.1260 N   0  0  0  0  0  0  0  0  0  0  0  0
  185.9020  178.6510  140.1280 O   0  0  0  0  0  0  0  0  0  0  0  0
  191.3030  176.4010  142.1990 C   0  0  1  0  0  3  0  0  0  0  0  0
  188.1170  177.6820  140.8940 C   0  0  0  0  0  0  0  0  0  0  0  0
  184.1930  179.5350  143.4140 C   0  0  2  0  0  3  0  0  0  0  0  0
  189.8730  176.6950  141.8600 C   0  0  0  0  0  0  0  0  0  0  0  0
  187.3070  178.6090  139.9430 C   0  0  1  0  0  3  0  0  0  0  0  0
  192.1950  177.5030  141.6360 C   0  0  0  0  0  2  0  0  0  0  0  0
  184.3520  178.6340  144.6520 C   0  0  0  0  0  2  0  0  0  0  0  0
  188.8680  176.5860  142.7330 N   0  0  0  0  0  0  0  0  0  0  0  0
  190.4190  178.1290  144.7870 C   0  0  0  0  0  1  0  0  0  0  0  0
  190.1770  177.7780  138.3820 C   0  0  0  0  0  2  0  0  0  0  0  0
  191.9250  177.6470  140.1340 C   0  0  0  0  0  2  0  0  0  0  0  0
  189.0460  176.1470  144.1130 C   0  0  0  0  0  2  0  0  0  0  0  0
  184.3360  178.8090  142.0620 C   0  0  1  0  0  3  0  0  0  0  0  0
  185.7060  179.0020  141.4510 C   0  0  1  0  0  3  0  0  0  0  0  0
  190.4740  178.0710  139.8340 C   0  0  2  0  0  3  0  0  0  0  0  0
  187.7890  177.1880  142.1920 C   0  0  0  0  0  0  0  0  0  0  0  0
  191.5430  176.1670  143.7040 C   0  0  0  0  0  2  0  0  0  0  0  0
  187.5450  178.3250  138.4540 C   0  0  1  0  0  3  0  0  0  0  0  0
  190.6330  176.0030  146.0050 C   0  0  0  0  0  1  0  0  0  0  0  0
  185.3530  177.6650  142.0710 C   0  0  1  0  0  3  0  0  0  0  0  0
  184.9300  180.7060  143.4970 F   0  0  0  0  0  0  0  0  0  0  0  0
  186.5290  177.4280  143.0060 C   0  0  2  0  0  3  0  0  0  0  0  0
  189.0550  179.0390  137.7220 S   0  0  0  0  0  0  0  0  0  0  0  0
  185.7880  176.7160  137.6980 C   0  0  0  0  0  3  0  0  0  0  0  0
  187.1420  176.9710  137.9400 C   0  0  0  0  0  0  0  0  0  0  0  0
  188.0890  175.9670  137.6960 C   0  0  0  0  0  3  0  0  0  0  0  0
  188.8760  173.4710  136.9210 Cl  0  0  0  0  0  0  0  0  0  0  0  0
  186.3320  174.4670  136.9780 C   0  0  0  0  0  3  0  0  0  0  0  0
  187.6850  174.7190  137.2190 C   0  0  0  0  0  0  0  0  0  0  0  0
  185.3830  175.4650  137.2190 C   0  0  0  0  0  3  0  0  0  0  0  0
  186.4320  178.8690  147.4150 C   0  0  0  0  0  1  0  0  0  0  0  0
  186.0260  179.4820  146.0880 C   0  0  0  0  0  2  0  0  0  0  0  0
  1  4  1  0  0  0  0
  2 14  1  0  0  0  0
  2 24  1  0  0  0  0
  3  7  1  0  0  0  0
  3  9  2  0  0  0  0
  4 37  1  0  0  0  0
  5 19  1  0  0  0  0
  6 11  1  1  0  0  0
  6 22  1  0  0  0  0
  7 21  2  0  0  0  0
  8 26  1  1  0  0  0
  8 12  1  0  0  0  0
  9  6  1  0  0  0  0
  9 13  1  0  0  0  0
 10  5  1  1  0  0  0
 10  7  1  0  0  0  0
 12  4  1  0  0  0  0
 13 17  1  0  0  0  0
 15 20  1  0  0  0  0
 16 11  1  0  0  0  0
 17  2  1  0  0  0  0
 18 25  1  0  0  0  0
 18  8  1  0  0  0  0
 19 18  1  0  0  0  0
 19 25  1  0  0  0  0
 20 16  1  0  0  0  0
 20  3  1  0  0  0  0
 21 13  1  0  0  0  0
 21 27  1  0  0  0  0
 22  2  1  0  0  0  0
 23 10  1  0  0  0  0
 25 27  1  0  0  0  0
 27  1  1  0  0  0  0
 28 15  1  0  0  0  0
 28 23  1  0  0  0  0
 29 30  1  0  0  0  0
 30 23  1  0  0  0  0
 31 30  2  0  0  0  0
 32 34  1  0  0  0  0
 33 35  1  0  0  0  0
 33 34  2  0  0  0  0
 34 31  1  0  0  0  0
 35 29  2  0  0  0  0
 37 36  1  0  0  0  0
M  END
>  <MODEL>
1

>  <REMARK>
 VINA RESULT:      -6.7      0.000      0.000
  Name = 
  2 active torsions:
  status: ('A' for Active; 'I' for Inactive)
    1  A    between atoms: N_4  and  C_37
    2  A    between atoms: C_23  and  C_30
                            x       y       z     vdW  Elec       q    Type
                         _______ _______ _______ _____ _____    ______ ____

>  <TORSDO>
F 2

$$$$
=
 OpenBabel11122411313D

 37 44  0  0  1  0  0  0  0  0999 V2000
  187.6140  175.7770  136.1480 C   0  0  0  0  0  2  0  0  0  0  0  0
  184.8590  172.6540  136.0470 C   0  0  0  0  0  0  0  0  0  0  0  0
  183.4050  176.1660  137.5420 C   0  0  0  0  0  0  0  0  0  0  0  0
  189.0430  175.4580  136.1100 N   0  0  0  0  0  0  0  0  0  0  0  0
  186.0320  178.9030  138.1370 O   0  0  0  0  0  0  0  0  0  0  0  0
  182.7080  173.7890  136.9940 C   0  0  1  0  0  3  0  0  0  0  0  0
  184.6180  176.8350  137.7440 C   0  0  0  0  0  0  0  0  0  0  0  0
  189.3690  177.9480  136.5710 C   0  0  2  0  0  3  0  0  0  0  0  0
  183.6930  174.8240  137.4450 C   0  0  0  0  0  0  0  0  0  0  0  0
  184.7780  178.3830  137.7290 C   0  0  1  0  0  3  0  0  0  0  0  0
  181.7150  174.4210  136.0240 C   0  0  0  0  0  2  0  0  0  0  0  0
  189.9070  176.5100  136.6790 C   0  0  0  0  0  2  0  0  0  0  0  0
  185.0100  174.6130  137.5140 N   0  0  0  0  0  0  0  0  0  0  0  0
  185.0150  173.4360  134.7530 C   0  0  0  0  0  1  0  0  0  0  0  0
  181.4940  177.6850  138.0350 C   0  0  0  0  0  2  0  0  0  0  0  0
  181.0750  175.6450  136.6910 C   0  0  0  0  0  2  0  0  0  0  0  0
  185.6390  173.3400  137.1760 C   0  0  0  0  0  2  0  0  0  0  0  0
  188.4330  178.3770  137.7180 C   0  0  1  0  0  3  0  0  0  0  0  0
  186.9750  178.2990  137.3270 C   0  0  1  0  0  3  0  0  0  0  0  0
  182.1060  176.7390  137.0270 C   0  0  2  0  0  3  0  0  0  0  0  0
  185.6080  175.8100  137.6770 C   0  0  0  0  0  0  0  0  0  0  0  0
  183.3690  172.5240  136.4090 C   0  0  0  0  0  2  0  0  0  0  0  0
  183.7090  179.1220  138.5450 C   0  0  1  0  0  3  0  0  0  0  0  0
  185.4300  171.2690  135.8400 C   0  0  0  0  0  1  0  0  0  0  0  0
  187.5480  177.2510  138.2580 C   0  0  1  0  0  3  0  0  0  0  0  0
  188.8780  178.2520  135.3110 F   0  0  0  0  0  0  0  0  0  0  0  0
  187.1180  175.9560  137.5850 C   0  0  2  0  0  3  0  0  0  0  0  0
  182.0940  179.3680  137.7340 S   0  0  0  0  0  0  0  0  0  0  0  0
  182.4370  178.9010  140.6860 C   0  0  0  0  0  3  0  0  0  0  0  0
  183.6690  178.8550  140.0240 C   0  0  0  0  0  0  0  0  0  0  0  0
  184.8310  178.5570  140.7480 C   0  0  0  0  0  3  0  0  0  0  0  0
  186.2210  177.9470  143.0160 Cl  0  0  0  0  0  0  0  0  0  0  0  0
  183.5310  178.3620  142.7790 C   0  0  0  0  0  3  0  0  0  0  0  0
  184.7620  178.3140  142.1210 C   0  0  0  0  0  0  0  0  0  0  0  0
  182.3670  178.6560  142.0610 C   0  0  0  0  0  3  0  0  0  0  0  0
  190.9190  175.1050  134.6000 C   0  0  0  0  0  1  0  0  0  0  0  0
  189.4170  175.2910  134.7140 C   0  0  0  0  0  2  0  0  0  0  0  0
  1 27  1  0  0  0  0
  2 22  1  0  0  0  0
  2 17  1  0  0  0  0
  3  7  1  0  0  0  0
  4  1  1  0  0  0  0
  4 12  1  0  0  0  0
  6 11  1  6  0  0  0
  6  9  1  0  0  0  0
  8 26  1  6  0  0  0
  8 12  1  0  0  0  0
  8 18  1  0  0  0  0
  9 13  1  0  0  0  0
  9  3  2  0  0  0  0
 10  7  1  1  0  0  0
 10  5  1  0  0  0  0
 10 23  1  0  0  0  0
 11 16  1  0  0  0  0
 13 21  1  0  0  0  0
 14  2  1  0  0  0  0
 16 20  1  0  0  0  0
 17 13  1  0  0  0  0
 18 25  1  0  0  0  0
 19 18  1  0  0  0  0
 19  5  1  0  0  0  0
 19 25  1  0  0  0  0
 20  3  1  0  0  0  0
 20 15  1  0  0  0  0
 21  7  2  0  0  0  0
 22  6  1  0  0  0  0
 23 30  1  0  0  0  0
 24  2  1  0  0  0  0
 27 21  1  0  0  0  0
 27 25  1  0  0  0  0
 28 15  1  0  0  0  0
 28 23  1  0  0  0  0
 29 35  1  0  0  0  0
 30 29  2  0  0  0  0
 30 31  1  0  0  0  0
 31 34  2  0  0  0  0
 34 33  1  0  0  0  0
 34 32  1  0  0  0  0
 35 33  2  0  0  0  0
 36 37  1  0  0  0  0
 37  4  1  0  0  0  0
M  END
>  <MODEL>
2

>  <REMARK>
 VINA RESULT:      -6.3      4.508      8.444
  Name = 
  2 active torsions:
  status: ('A' for Active; 'I' for Inactive)
    1  A    between atoms: N_4  and  C_37
    2  A    between atoms: C_23  and  C_30
                            x       y       z     vdW  Elec       q    Type
                         _______ _______ _______ _____ _____    ______ ____

>  <TORSDO>
F 2

$$$$
=
 OpenBabel11122411313D

 37 44  0  0  1  0  0  0  0  0999 V2000
  182.5550  173.5690  136.6310 C   0  0  0  0  0  2  0  0  0  0  0  0
  186.4290  174.7240  135.6240 C   0  0  0  0  0  0  0  0  0  0  0  0
  184.2720  177.5520  137.6320 C   0  0  0  0  0  0  0  0  0  0  0  0
  181.9330  172.4680  135.8910 N   0  0  0  0  0  0  0  0  0  0  0  0
  180.5520  176.7340  138.1160 O   0  0  0  0  0  0  0  0  0  0  0  0
  186.5630  177.1300  136.6250 C   0  0  1  0  0  3  0  0  0  0  0  0
  182.9970  176.9900  137.4960 C   0  0  0  0  0  0  0  0  0  0  0  0
  179.8210  173.1180  137.1710 C   0  0  2  0  0  3  0  0  0  0  0  0
  185.0720  176.9800  136.6690 C   0  0  0  0  0  0  0  0  0  0  0  0
  181.8270  177.2190  138.4970 C   0  0  1  0  0  3  0  0  0  0  0  0
  187.0970  177.3150  138.0410 C   0  0  0  0  0  2  0  0  0  0  0  0
  180.4580  172.4860  135.9200 C   0  0  0  0  0  2  0  0  0  0  0  0
  184.4010  176.0540  135.9800 N   0  0  0  0  0  0  0  0  0  0  0  0
  186.2950  173.9180  136.9060 C   0  0  0  0  0  1  0  0  0  0  0  0
  184.1710  179.5700  139.0860 C   0  0  0  0  0  2  0  0  0  0  0  0
  186.3690  178.4930  138.7010 C   0  0  0  0  0  2  0  0  0  0  0  0
  185.0420  175.0950  135.0850 C   0  0  0  0  0  2  0  0  0  0  0  0
  179.6370  174.6470  137.1020 C   0  0  1  0  0  3  0  0  0  0  0  0
  180.7220  175.3880  137.8520 C   0  0  1  0  0  3  0  0  0  0  0  0
  184.8550  178.2460  138.8400 C   0  0  2  0  0  3  0  0  0  0  0  0
  183.1430  176.0170  136.4630 C   0  0  0  0  0  0  0  0  0  0  0  0
  187.2750  175.9840  135.8780 C   0  0  0  0  0  2  0  0  0  0  0  0
  181.6380  178.6890  138.8970 C   0  0  1  0  0  3  0  0  0  0  0  0
  187.1330  173.8680  134.5940 C   0  0  0  0  0  1  0  0  0  0  0  0
  180.7450  175.3760  136.3370 C   0  0  1  0  0  3  0  0  0  0  0  0
  180.3960  172.6800  138.3540 F   0  0  0  0  0  0  0  0  0  0  0  0
  182.1680  174.9290  136.0420 C   0  0  2  0  0  3  0  0  0  0  0  0
  182.7530  179.3290  140.1890 S   0  0  0  0  0  0  0  0  0  0  0  0
  181.0630  179.1660  136.5110 C   0  0  0  0  0  3  0  0  0  0  0  0
  181.2710  179.6550  137.8050 C   0  0  0  0  0  0  0  0  0  0  0  0
  181.1280  181.0260  138.0570 C   0  0  0  0  0  3  0  0  0  0  0  0
  180.6160  183.6110  137.3470 Cl  0  0  0  0  0  0  0  0  0  0  0  0
  180.5810  181.4080  135.7310 C   0  0  0  0  0  3  0  0  0  0  0  0
  180.7870  181.9000  137.0220 C   0  0  0  0  0  0  0  0  0  0  0  0
  180.7200  180.0400  135.4750 C   0  0  0  0  0  3  0  0  0  0  0  0
  183.8810  171.1170  136.4390 C   0  0  0  0  0  1  0  0  0  0  0  0
  182.3690  171.2250  136.5090 C   0  0  0  0  0  2  0  0  0  0  0  0
  2 22  1  0  0  0  0
  2 14  1  0  0  0  0
  3 20  1  0  0  0  0
  4 12  1  0  0  0  0
  4 37  1  0  0  0  0
  4  1  1  0  0  0  0
  5 10  1  0  0  0  0
  6 22  1  1  0  0  0
  6  9  1  0  0  0  0
  6 11  1  0  0  0  0
  7  3  1  0  0  0  0
  8 26  1  1  0  0  0
  9  3  2  0  0  0  0
 10  7  1  6  0  0  0
 10 23  1  0  0  0  0
 11 16  1  0  0  0  0
 12  8  1  0  0  0  0
 13 21  1  0  0  0  0
 13  9  1  0  0  0  0
 15 28  1  0  0  0  0
 16 20  1  0  0  0  0
 17  2  1  0  0  0  0
 17 13  1  0  0  0  0
 18  8  1  0  0  0  0
 18 19  1  0  0  0  0
 19  5  1  0  0  0  0
 20 15  1  0  0  0  0
 21  7  2  0  0  0  0
 23 28  1  0  0  0  0
 24  2  1  0  0  0  0
 25 18  1  0  0  0  0
 25 19  1  0  0  0  0
 27 25  1  0  0  0  0
 27 21  1  0  0  0  0
 27  1  1  0  0  0  0
 29 30  1  0  0  0  0
 30 31  2  0  0  0  0
 30 23  1  0  0  0  0
 33 34  2  0  0  0  0
 34 32  1  0  0  0  0
 34 31  1  0  0  0  0
 35 33  1  0  0  0  0
 35 29  2  0  0  0  0
 36 37  1  0  0  0  0
M  END
>  <MODEL>
3

>  <REMARK>
 VINA RESULT:      -6.2      5.836      8.769
  Name = 
  2 active torsions:
  status: ('A' for Active; 'I' for Inactive)
    1  A    between atoms: N_4  and  C_37
    2  A    between atoms: C_23  and  C_30
                            x       y       z     vdW  Elec       q    Type
                         _______ _______ _______ _____ _____    ______ ____

>  <TORSDO>
F 2

$$$$
=
 OpenBabel11122411313D

 37 44  0  0  1  0  0  0  0  0999 V2000
  183.5650  174.0700  136.1780 C   0  0  0  0  0  2  0  0  0  0  0  0
  187.2650  175.9550  135.8490 C   0  0  0  0  0  0  0  0  0  0  0  0
  184.6140  177.8210  138.3310 C   0  0  0  0  0  0  0  0  0  0  0  0
  183.1510  173.1390  135.1250 N   0  0  0  0  0  0  0  0  0  0  0  0
  181.0390  176.4200  138.2600 O   0  0  0  0  0  0  0  0  0  0  0  0
  186.9880  177.9940  137.4520 C   0  0  1  0  0  3  0  0  0  0  0  0
  183.4460  177.1540  137.9430 C   0  0  0  0  0  0  0  0  0  0  0  0
  180.9070  173.1330  136.3420 C   0  0  2  0  0  3  0  0  0  0  0  0
  185.5360  177.6430  137.3260 C   0  0  0  0  0  0  0  0  0  0  0  0
  182.2070  176.9470  138.8640 C   0  0  1  0  0  3  0  0  0  0  0  0
  187.4190  177.8570  138.9090 C   0  0  0  0  0  2  0  0  0  0  0  0
  181.6910  172.9540  135.0300 C   0  0  0  0  0  2  0  0  0  0  0  0
  185.0450  176.8590  136.3630 N   0  0  0  0  0  0  0  0  0  0  0  0
  187.1920  174.8210  136.8580 C   0  0  0  0  0  1  0  0  0  0  0  0
  184.1400  179.3380  140.2490 C   0  0  0  0  0  2  0  0  0  0  0  0
  186.4910  178.7050  139.7880 C   0  0  0  0  0  2  0  0  0  0  0  0
  185.8660  176.2720  135.3080 C   0  0  0  0  0  2  0  0  0  0  0  0
  180.4990  174.5850  136.6600 C   0  0  1  0  0  3  0  0  0  0  0  0
  181.4220  175.2310  137.6680 C   0  0  1  0  0  3  0  0  0  0  0  0
  185.0260  178.2320  139.7250 C   0  0  2  0  0  3  0  0  0  0  0  0
  183.7850  176.5270  136.7080 C   0  0  0  0  0  0  0  0  0  0  0  0
  187.8990  177.1990  136.4960 C   0  0  0  0  0  2  0  0  0  0  0  0
  181.7800  178.2150  139.6160 C   0  0  1  0  0  3  0  0  0  0  0  0
  188.1380  175.5110  134.6960 C   0  0  0  0  0  1  0  0  0  0  0  0
  181.5200  175.6340  136.2110 C   0  0  1  0  0  3  0  0  0  0  0  0
  181.4830  172.4700  137.4140 F   0  0  0  0  0  0  0  0  0  0  0  0
  183.0070  175.4750  135.9350 C   0  0  2  0  0  3  0  0  0  0  0  0
  182.7230  178.6220  141.1230 S   0  0  0  0  0  0  0  0  0  0  0  0
  180.9690  180.5720  139.4350 C   0  0  0  0  0  3  0  0  0  0  0  0
  181.3260  179.3840  138.7880 C   0  0  0  0  0  0  0  0  0  0  0  0
  181.2580  179.3110  137.3900 C   0  0  0  0  0  3  0  0  0  0  0  0
  180.7480  180.3110  134.9020 Cl  0  0  0  0  0  0  0  0  0  0  0  0
  180.4760  181.5990  137.2970 C   0  0  0  0  0  3  0  0  0  0  0  0
  180.8320  180.4150  136.6470 C   0  0  0  0  0  0  0  0  0  0  0  0
  180.5440  181.6780  138.6910 C   0  0  0  0  0  3  0  0  0  0  0  0
  184.7280  171.9830  136.5730 C   0  0  0  0  0  1  0  0  0  0  0  0
  183.7390  171.8440  135.4310 C   0  0  0  0  0  2  0  0  0  0  0  0
  2 22  1  0  0  0  0
  2 14  1  0  0  0  0
  3 20  1  0  0  0  0
  4 37  1  0  0  0  0
  4  1  1  0  0  0  0
  5 10  1  0  0  0  0
  6 22  1  6  0  0  0
  6 11  1  0  0  0  0
  7  3  1  0  0  0  0
  8 18  1  0  0  0  0
  8 26  1  1  0  0  0
  9  6  1  0  0  0  0
  9  3  2  0  0  0  0
 10  7  1  6  0  0  0
 10 23  1  0  0  0  0
 11 16  1  0  0  0  0
 12  4  1  0  0  0  0
 12  8  1  0  0  0  0
 13 21  1  0  0  0  0
 13  9  1  0  0  0  0
 15 28  1  0  0  0  0
 17  2  1  0  0  0  0
 17 13  1  0  0  0  0
 18 19  1  0  0  0  0
 19  5  1  0  0  0  0
 20 16  1  0  0  0  0
 20 15  1  0  0  0  0
 21  7  2  0  0  0  0
 23 28  1  0  0  0  0
 24  2  1  0  0  0  0
 25 18  1  0  0  0  0
 25 19  1  0  0  0  0
 27  1  1  0  0  0  0
 27 25  1  0  0  0  0
 27 21  1  0  0  0  0
 30 29  1  0  0  0  0
 30 23  1  0  0  0  0
 31 30  2  0  0  0  0
 32 34  1  0  0  0  0
 33 35  1  0  0  0  0
 34 33  2  0  0  0  0
 34 31  1  0  0  0  0
 35 29  2  0  0  0  0
 37 36  1  0  0  0  0
M  END
>  <MODEL>
4

>  <REMARK>
 VINA RESULT:      -6.1      5.173      8.421
  Name = 
  2 active torsions:
  status: ('A' for Active; 'I' for Inactive)
    1  A    between atoms: N_4  and  C_37
    2  A    between atoms: C_23  and  C_30
                            x       y       z     vdW  Elec       q    Type
                         _______ _______ _______ _____ _____    ______ ____

>  <TORSDO>
F 2

$$$$
=
 OpenBabel11122411313D

 37 44  0  0  1  0  0  0  0  0999 V2000
  186.8380  175.9220  136.9910 C   0  0  0  0  0  2  0  0  0  0  0  0
  188.6490  178.0180  140.1020 C   0  0  0  0  0  0  0  0  0  0  0  0
  184.5720  178.2570  140.0280 C   0  0  0  0  0  0  0  0  0  0  0  0
  187.6380  175.5780  135.8120 N   0  0  0  0  0  0  0  0  0  0  0  0
  182.9030  176.7840  136.8990 O   0  0  0  0  0  0  0  0  0  0  0  0
  186.5930  179.0150  141.3630 C   0  0  1  0  0  3  0  0  0  0  0  0
  184.3490  177.7670  138.7350 C   0  0  0  0  0  0  0  0  0  0  0  0
  185.4130  174.8150  134.8200 C   0  0  2  0  0  3  0  0  0  0  0  0
  185.8880  178.6530  140.0900 C   0  0  0  0  0  0  0  0  0  0  0  0
  183.0440  177.0490  138.2830 C   0  0  1  0  0  3  0  0  0  0  0  0
  185.9820  178.2320  142.5210 C   0  0  0  0  0  2  0  0  0  0  0  0
  186.8400  175.3470  134.5940 C   0  0  0  0  0  2  0  0  0  0  0  0
  186.5200  178.3900  138.9440 N   0  0  0  0  0  0  0  0  0  0  0  0
  188.4140  176.5380  140.3550 C   0  0  0  0  0  1  0  0  0  0  0  0
  182.4020  178.6300  141.1910 C   0  0  0  0  0  2  0  0  0  0  0  0
  184.4690  178.4810  142.5510 C   0  0  0  0  0  2  0  0  0  0  0  0
  187.9710  178.4450  138.7940 C   0  0  0  0  0  2  0  0  0  0  0  0
  184.3480  175.9010  135.0680 C   0  0  1  0  0  3  0  0  0  0  0  0
  184.0220  176.0570  136.5360 C   0  0  1  0  0  3  0  0  0  0  0  0
  183.7650  177.9820  141.2740 C   0  0  2  0  0  3  0  0  0  0  0  0
  185.6250  177.8350  138.1020 C   0  0  0  0  0  0  0  0  0  0  0  0
  188.1240  178.8470  141.2880 C   0  0  0  0  0  2  0  0  0  0  0  0
  181.7610  177.7640  138.7270 C   0  0  1  0  0  3  0  0  0  0  0  0
  190.1380  178.2500  139.9710 C   0  0  0  0  0  1  0  0  0  0  0  0
  184.8620  177.1130  135.8490 C   0  0  1  0  0  3  0  0  0  0  0  0
  185.3610  173.7670  135.7260 F   0  0  0  0  0  0  0  0  0  0  0  0
  186.0600  177.2230  136.7800 C   0  0  2  0  0  3  0  0  0  0  0  0
  181.2230  177.4740  140.4450 S   0  0  0  0  0  0  0  0  0  0  0  0
  181.8310  180.2480  138.9950 C   0  0  0  0  0  3  0  0  0  0  0  0
  181.5250  179.1470  138.1880 C   0  0  0  0  0  0  0  0  0  0  0  0
  181.0140  179.3560  136.9000 C   0  0  0  0  0  3  0  0  0  0  0  0
  180.1620  180.9000  134.8180 Cl  0  0  0  0  0  0  0  0  0  0  0  0
  181.1110  181.7500  137.2360 C   0  0  0  0  0  3  0  0  0  0  0  0
  180.8050  180.6530  136.4270 C   0  0  0  0  0  0  0  0  0  0  0  0
  181.6240  181.5480  138.5210 C   0  0  0  0  0  3  0  0  0  0  0  0
  189.3290  174.5760  137.2470 C   0  0  0  0  0  1  0  0  0  0  0  0
  188.3490  174.3450  136.1120 C   0  0  0  0  0  2  0  0  0  0  0  0
  2 14  1  0  0  0  0
  2 22  1  0  0  0  0
  3  9  2  0  0  0  0
  3 20  1  0  0  0  0
  4 37  1  0  0  0  0
  4  1  1  0  0  0  0
  6 22  1  6  0  0  0
  6 11  1  0  0  0  0
  7  3  1  0  0  0  0
  8 18  1  0  0  0  0
  8 26  1  1  0  0  0
  9  6  1  0  0  0  0
 10  5  1  6  0  0  0
 10 23  1  0  0  0  0
 10  7  1  0  0  0  0
 11 16  1  0  0  0  0
 12  8  1  0  0  0  0
 12  4  1  0  0  0  0
 13  9  1  0  0  0  0
 15 20  1  0  0  0  0
 17 13  1  0  0  0  0
 17  2  1  0  0  0  0
 18 25  1  0  0  0  0
 18 19  1  0  0  0  0
 19  5  1  0  0  0  0
 20 16  1  0  0  0  0
 21  7  2  0  0  0  0
 21 13  1  0  0  0  0
 23 28  1  0  0  0  0
 24  2  1  0  0  0  0
 25 19  1  0  0  0  0
 25 27  1  0  0  0  0
 27  1  1  0  0  0  0
 27 21  1  0  0  0  0
 28 15  1  0  0  0  0
 30 23  1  0  0  0  0
 30 29  2  0  0  0  0
 31 30  1  0  0  0  0
 32 34  1  0  0  0  0
 33 35  2  0  0  0  0
 34 31  2  0  0  0  0
 34 33  1  0  0  0  0
 35 29  1  0  0  0  0
 37 36  1  0  0  0  0
M  END
>  <MODEL>
5

>  <REMARK>
 VINA RESULT:      -5.6      4.283      7.456
  Name = 
  2 active torsions:
  status: ('A' for Active; 'I' for Inactive)
    1  A    between atoms: N_4  and  C_37
    2  A    between atoms: C_23  and  C_30
                            x       y       z     vdW  Elec       q    Type
                         _______ _______ _______ _____ _____    ______ ____

>  <TORSDO>
F 2

$$$$
=
 OpenBabel11122411313D

 37 44  0  0  1  0  0  0  0  0999 V2000
  186.3900  174.6850  135.9280 C   0  0  0  0  0  2  0  0  0  0  0  0
  183.4490  171.7630  136.3220 C   0  0  0  0  0  0  0  0  0  0  0  0
  182.2250  175.5500  137.2350 C   0  0  0  0  0  0  0  0  0  0  0  0
  187.7970  174.2770  135.9450 N   0  0  0  0  0  0  0  0  0  0  0  0
  185.0180  178.1800  137.3910 O   0  0  0  0  0  0  0  0  0  0  0  0
  181.3790  173.1630  137.0720 C   0  0  1  0  0  3  0  0  0  0  0  0
  183.4780  176.1670  137.3300 C   0  0  0  0  0  0  0  0  0  0  0  0
  188.2780  176.7840  136.0040 C   0  0  2  0  0  3  0  0  0  0  0  0
  182.4290  174.1950  137.3550 C   0  0  0  0  0  0  0  0  0  0  0  0
  183.7320  177.6800  137.0690 C   0  0  1  0  0  3  0  0  0  0  0  0
  180.4190  173.6940  136.0120 C   0  0  0  0  0  2  0  0  0  0  0  0
  188.7280  175.3510  136.3400 C   0  0  0  0  0  2  0  0  0  0  0  0
  183.7310  173.9170  137.4580 N   0  0  0  0  0  0  0  0  0  0  0  0
  183.6410  172.3170  134.9200 C   0  0  0  0  0  1  0  0  0  0  0  0
  180.4140  177.2430  137.4760 C   0  0  0  0  0  2  0  0  0  0  0  0
  179.8600  175.0450  136.4740 C   0  0  0  0  0  2  0  0  0  0  0  0
  184.2780  172.5700  137.3290 C   0  0  0  0  0  2  0  0  0  0  0  0
  187.3790  177.4470  137.0660 C   0  0  1  0  0  3  0  0  0  0  0  0
  185.9160  177.3970  136.6900 C   0  0  1  0  0  3  0  0  0  0  0  0
  180.9590  176.1130  136.6330 C   0  0  2  0  0  3  0  0  0  0  0  0
  184.4020  175.0850  137.4290 C   0  0  0  0  0  0  0  0  0  0  0  0
  181.9560  171.7830  136.6980 C   0  0  0  0  0  2  0  0  0  0  0  0
  182.7160  178.6040  137.7550 C   0  0  1  0  0  3  0  0  0  0  0  0
  183.9320  170.3290  136.3390 C   0  0  0  0  0  1  0  0  0  0  0  0
  186.4320  176.4770  137.7770 C   0  0  1  0  0  3  0  0  0  0  0  0
  187.7970  176.9130  134.7100 F   0  0  0  0  0  0  0  0  0  0  0  0
  185.9180  175.1210  137.3180 C   0  0  2  0  0  3  0  0  0  0  0  0
  181.1130  178.8170  136.9120 S   0  0  0  0  0  0  0  0  0  0  0  0
  183.8140  178.1830  139.9610 C   0  0  0  0  0  3  0  0  0  0  0  0
  182.6720  178.5790  139.2570 C   0  0  0  0  0  0  0  0  0  0  0  0
  181.5180  178.9460  139.9640 C   0  0  0  0  0  3  0  0  0  0  0  0
  180.0590  179.3710  142.2310 Cl  0  0  0  0  0  0  0  0  0  0  0  0
  182.6500  178.5170  142.0590 C   0  0  0  0  0  3  0  0  0  0  0  0
  181.5070  178.9130  141.3600 C   0  0  0  0  0  0  0  0  0  0  0  0
  183.8040  178.1510  141.3600 C   0  0  0  0  0  3  0  0  0  0  0  0
  188.8500  172.5220  134.6280 C   0  0  0  0  0  1  0  0  0  0  0  0
  188.1490  173.8670  134.5940 C   0  0  0  0  0  2  0  0  0  0  0  0
  1  4  1  0  0  0  0
  1 27  1  0  0  0  0
  2 24  1  0  0  0  0
  2 22  1  0  0  0  0
  2 17  1  0  0  0  0
  3  7  1  0  0  0  0
  3  9  2  0  0  0  0
  4 12  1  0  0  0  0
  6 11  1  6  0  0  0
  6  9  1  0  0  0  0
  7 21  2  0  0  0  0
  8 26  1  6  0  0  0
  8 12  1  0  0  0  0
  8 18  1  0  0  0  0
  9 13  1  0  0  0  0
 10  7  1  1  0  0  0
 10  5  1  0  0  0  0
 10 23  1  0  0  0  0
 11 16  1  0  0  0  0
 14  2  1  0  0  0  0
 16 20  1  0  0  0  0
 17 13  1  0  0  0  0
 18 25  1  0  0  0  0
 19 18  1  0  0  0  0
 19  5  1  0  0  0  0
 19 25  1  0  0  0  0
 20  3  1  0  0  0  0
 20 15  1  0  0  0  0
 21 13  1  0  0  0  0
 22  6  1  0  0  0  0
 23 30  1  0  0  0  0
 27 21  1  0  0  0  0
 27 25  1  0  0  0  0
 28 15  1  0  0  0  0
 28 23  1  0  0  0  0
 29 35  1  0  0  0  0
 30 29  2  0  0  0  0
 30 31  1  0  0  0  0
 31 34  2  0  0  0  0
 34 33  1  0  0  0  0
 34 32  1  0  0  0  0
 35 33  2  0  0  0  0
 37 36  1  0  0  0  0
 37  4  1  0  0  0  0
M  END
>  <MODEL>
6

>  <REMARK>
 VINA RESULT:      -5.5      5.445      9.262
  Name = 
  2 active torsions:
  status: ('A' for Active; 'I' for Inactive)
    1  A    between atoms: N_4  and  C_37
    2  A    between atoms: C_23  and  C_30
                            x       y       z     vdW  Elec       q    Type
                         _______ _______ _______ _____ _____    ______ ____

>  <TORSDO>
F 2

$$$$
=
 OpenBabel11122411313D

 37 44  0  0  1  0  0  0  0  0999 V2000
  186.7060  177.8970  140.7950 C   0  0  0  0  0  2  0  0  0  0  0  0
  184.7910  178.9890  144.3290 C   0  0  0  0  0  0  0  0  0  0  0  0
  182.3110  178.5170  141.1190 C   0  0  0  0  0  0  0  0  0  0  0  0
  188.1420  178.1570  140.6620 N   0  0  0  0  0  0  0  0  0  0  0  0
  184.0770  178.0270  137.7450 O   0  0  0  0  0  0  0  0  0  0  0  0
  182.2880  179.0740  143.5940 C   0  0  1  0  0  3  0  0  0  0  0  0
  183.2720  178.5040  140.1010 C   0  0  0  0  0  0  0  0  0  0  0  0
  187.8060  177.4330  138.2370 C   0  0  2  0  0  3  0  0  0  0  0  0
  182.8970  179.0870  142.2250 C   0  0  0  0  0  0  0  0  0  0  0  0
  183.0910  177.7850  138.7330 C   0  0  1  0  0  3  0  0  0  0  0  0
  181.4250  177.8270  143.7540 C   0  0  0  0  0  2  0  0  0  0  0  0
  188.6060  178.2530  139.2650 C   0  0  0  0  0  2  0  0  0  0  0  0
  184.1790  179.3790  141.9870 N   0  0  0  0  0  0  0  0  0  0  0  0
  185.0590  177.5030  144.1590 C   0  0  0  0  0  1  0  0  0  0  0  0
  180.0550  178.0480  140.1740 C   0  0  0  0  0  2  0  0  0  0  0  0
  180.4010  177.7770  142.6130 C   0  0  0  0  0  2  0  0  0  0  0  0
  185.1290  179.7390  143.0350 C   0  0  0  0  0  2  0  0  0  0  0  0
  186.5670  178.1460  137.6620 C   0  0  1  0  0  3  0  0  0  0  0  0
  185.2860  177.6920  138.3260 C   0  0  1  0  0  3  0  0  0  0  0  0
  181.0680  177.6660  141.2280 C   0  0  2  0  0  3  0  0  0  0  0  0
  184.4500  179.0230  140.7150 C   0  0  0  0  0  0  0  0  0  0  0  0
  183.3220  179.2180  144.7290 C   0  0  0  0  0  2  0  0  0  0  0  0
  181.7320  178.0500  138.0720 C   0  0  1  0  0  3  0  0  0  0  0  0
  185.6810  179.5100  145.4360 C   0  0  0  0  0  1  0  0  0  0  0  0
  185.8500  179.0570  138.6620 C   0  0  1  0  0  3  0  0  0  0  0  0
  187.5570  176.1340  138.6530 F   0  0  0  0  0  0  0  0  0  0  0  0
  185.8740  179.0270  140.1830 C   0  0  2  0  0  3  0  0  0  0  0  0
  180.3260  177.0590  138.6800 S   0  0  0  0  0  0  0  0  0  0  0  0
  181.7590  180.4980  138.5750 C   0  0  0  0  0  3  0  0  0  0  0  0
  181.4200  179.4690  137.6900 C   0  0  0  0  0  0  0  0  0  0  0  0
  180.8050  179.7830  136.4690 C   0  0  0  0  0  3  0  0  0  0  0  0
  179.7560  181.4900  134.6170 Cl  0  0  0  0  0  0  0  0  0  0  0  0
  180.8670  182.1360  137.0290 C   0  0  0  0  0  3  0  0  0  0  0  0
  180.5280  181.1110  136.1410 C   0  0  0  0  0  0  0  0  0  0  0  0
  181.4820  181.8290  138.2460 C   0  0  0  0  0  3  0  0  0  0  0  0
  188.3460  176.8450  142.7010 C   0  0  0  0  0  1  0  0  0  0  0  0
  188.8460  177.0460  141.2830 C   0  0  0  0  0  2  0  0  0  0  0  0
  2 22  1  0  0  0  0
  2 24  1  0  0  0  0
  3 20  1  0  0  0  0
  3  9  2  0  0  0  0
  4  1  1  0  0  0  0
  4 37  1  0  0  0  0
  5 19  1  0  0  0  0
  6 11  1  1  0  0  0
  6 22  1  0  0  0  0
  7 21  2  0  0  0  0
  7  3  1  0  0  0  0
  8 26  1  1  0  0  0
  8 12  1  0  0  0  0
  9  6  1  0  0  0  0
 10  5  1  6  0  0  0
 10  7  1  0  0  0  0
 12  4  1  0  0  0  0
 13  9  1  0  0  0  0
 13 17  1  0  0  0  0
 14  2  1  0  0  0  0
 15 20  1  0  0  0  0
 16 11  1  0  0  0  0
 17  2  1  0  0  0  0
 18  8  1  0  0  0  0
 18 19  1  0  0  0  0
 18 25  1  0  0  0  0
 19 25  1  0  0  0  0
 20 16  1  0  0  0  0
 21 13  1  0  0  0  0
 23 28  1  0  0  0  0
 23 10  1  0  0  0  0
 25 27  1  0  0  0  0
 27 21  1  0  0  0  0
 27  1  1  0  0  0  0
 28 15  1  0  0  0  0
 30 23  1  0  0  0  0
 30 29  2  0  0  0  0
 31 30  1  0  0  0  0
 32 34  1  0  0  0  0
 33 35  2  0  0  0  0
 34 31  2  0  0  0  0
 34 33  1  0  0  0  0
 35 29  1  0  0  0  0
 37 36  1  0  0  0  0
M  END
>  <MODEL>
7

>  <REMARK>
 VINA RESULT:      -5.4      4.211      7.203
  Name = 
  2 active torsions:
  status: ('A' for Active; 'I' for Inactive)
    1  A    between atoms: N_4  and  C_37
    2  A    between atoms: C_23  and  C_30
                            x       y       z     vdW  Elec       q    Type
                         _______ _______ _______ _____ _____    ______ ____

>  <TORSDO>
F 2

$$$$
=
 OpenBabel11122411313D

 37 44  0  0  1  0  0  0  0  0999 V2000
  180.9590  178.5080  137.3840 C   0  0  0  0  0  2  0  0  0  0  0  0
  181.5950  178.5930  141.4990 C   0  0  0  0  0  0  0  0  0  0  0  0
  184.9160  177.7530  139.2760 C   0  0  0  0  0  0  0  0  0  0  0  0
  179.5960  178.3140  136.8840 N   0  0  0  0  0  0  0  0  0  0  0  0
  184.2740  177.1510  135.5380 O   0  0  0  0  0  0  0  0  0  0  0  0
  184.1500  178.0920  141.6710 C   0  0  1  0  0  3  0  0  0  0  0  0
  184.2940  177.4730  138.0530 C   0  0  0  0  0  0  0  0  0  0  0  0
  180.7150  178.1240  134.5980 C   0  0  2  0  0  3  0  0  0  0  0  0
  183.9550  177.6430  140.2550 C   0  0  0  0  0  0  0  0  0  0  0  0
  184.9710  177.6580  136.6640 C   0  0  1  0  0  3  0  0  0  0  0  0
  185.1340  179.2570  141.7040 C   0  0  0  0  0  2  0  0  0  0  0  0
  179.5310  177.7680  135.5160 C   0  0  0  0  0  2  0  0  0  0  0  0
  182.7610  177.3720  139.7220 N   0  0  0  0  0  0  0  0  0  0  0  0
  181.6420  179.9410  140.7990 C   0  0  0  0  0  1  0  0  0  0  0  0
  187.3920  177.7140  139.0090 C   0  0  0  0  0  2  0  0  0  0  0  0
  186.4280  178.8390  140.9960 C   0  0  0  0  0  2  0  0  0  0  0  0
  181.5090  177.4630  140.4670 C   0  0  0  0  0  2  0  0  0  0  0  0
  181.9250  177.1750  134.7030 C   0  0  1  0  0  3  0  0  0  0  0  0
  183.0260  177.7470  135.5660 C   0  0  1  0  0  3  0  0  0  0  0  0
  186.2050  178.5050  139.5090 C   0  0  2  0  0  3  0  0  0  0  0  0
  182.9210  177.2790  138.3860 C   0  0  0  0  0  0  0  0  0  0  0  0
  182.8310  178.4210  142.4000 C   0  0  0  0  0  2  0  0  0  0  0  0
  186.3950  177.0900  136.5910 C   0  0  1  0  0  3  0  0  0  0  0  0
  180.3550  178.5490  142.3660 C   0  0  0  0  0  1  0  0  0  0  0  0
  182.1670  176.6240  136.1110 C   0  0  1  0  0  3  0  0  0  0  0  0
  181.0550  179.4670  134.6460 F   0  0  0  0  0  0  0  0  0  0  0  0
  181.7250  177.1840  137.4540 C   0  0  2  0  0  3  0  0  0  0  0  0
  187.7210  178.1360  137.2790 S   0  0  0  0  0  0  0  0  0  0  0  0
  187.8400  175.0580  136.7580 C   0  0  0  0  0  3  0  0  0  0  0  0
  186.5540  175.6090  136.7900 C   0  0  0  0  0  0  0  0  0  0  0  0
  185.4500  174.7750  137.0110 C   0  0  0  0  0  3  0  0  0  0  0  0
  184.2430  172.3700  137.4640 Cl  0  0  0  0  0  0  0  0  0  0  0  0
  186.9150  172.8550  137.1590 C   0  0  0  0  0  3  0  0  0  0  0  0
  185.6300  173.4020  137.1930 C   0  0  0  0  0  0  0  0  0  0  0  0
  188.0200  173.6820  136.9410 C   0  0  0  0  0  3  0  0  0  0  0  0
  179.8390  180.6460  137.5330 C   0  0  0  0  0  1  0  0  0  0  0  0
  178.9460  179.6150  136.8690 C   0  0  0  0  0  2  0  0  0  0  0  0
  1 27  1  0  0  0  0
  2 24  1  0  0  0  0
  2 22  1  0  0  0  0
  3 20  1  0  0  0  0
  3  9  2  0  0  0  0
  4  1  1  0  0  0  0
  5 19  1  0  0  0  0
  6 11  1  6  0  0  0
  6 22  1  0  0  0  0
  7 21  2  0  0  0  0
  7  3  1  0  0  0  0
  8 26  1  1  0  0  0
  8 18  1  0  0  0  0
  8 12  1  0  0  0  0
  9  6  1  0  0  0  0
 10  5  1  6  0  0  0
 10  7  1  0  0  0  0
 12  4  1  0  0  0  0
 13  9  1  0  0  0  0
 13 17  1  0  0  0  0
 14  2  1  0  0  0  0
 15 20  1  0  0  0  0
 16 11  1  0  0  0  0
 17  2  1  0  0  0  0
 18 19  1  0  0  0  0
 18 25  1  0  0  0  0
 19 25  1  0  0  0  0
 20 16  1  0  0  0  0
 21 13  1  0  0  0  0
 23 10  1  0  0  0  0
 23 30  1  0  0  0  0
 23 28  1  0  0  0  0
 25 27  1  0  0  0  0
 27 21  1  0  0  0  0
 28 15  1  0  0  0  0
 29 30  2  0  0  0  0
 29 35  1  0  0  0  0
 30 31  1  0  0  0  0
 31 34  2  0  0  0  0
 33 34  1  0  0  0  0
 34 32  1  0  0  0  0
 35 33  2  0  0  0  0
 37  4  1  0  0  0  0
 37 36  1  0  0  0  0
M  END
>  <MODEL>
8

>  <REMARK>
 VINA RESULT:      -5.3      4.180      7.132
  Name = 
  2 active torsions:
  status: ('A' for Active; 'I' for Inactive)
    1  A    between atoms: N_4  and  C_37
    2  A    between atoms: C_23  and  C_30
                            x       y       z     vdW  Elec       q    Type
                         _______ _______ _______ _____ _____    ______ ____

>  <TORSDO>
F 2

$$$$
=
 OpenBabel11122411313D

 37 44  0  0  1  0  0  0  0  0999 V2000
  188.4590  175.5430  136.2300 C   0  0  0  0  0  2  0  0  0  0  0  0
  186.6920  171.7840  135.9100 C   0  0  0  0  0  0  0  0  0  0  0  0
  184.0610  174.8750  136.3590 C   0  0  0  0  0  0  0  0  0  0  0  0
  189.8650  175.6290  136.6300 N   0  0  0  0  0  0  0  0  0  0  0  0
  185.6510  178.2720  137.1780 O   0  0  0  0  0  0  0  0  0  0  0  0
  184.1500  172.3580  136.0430 C   0  0  1  0  0  3  0  0  0  0  0  0
  184.9590  175.8680  136.7660 C   0  0  0  0  0  0  0  0  0  0  0  0
  189.4320  178.1430  136.7450 C   0  0  2  0  0  3  0  0  0  0  0  0
  184.6750  173.6610  136.5660 C   0  0  0  0  0  0  0  0  0  0  0  0
  184.7420  177.3930  136.5400 C   0  0  1  0  0  3  0  0  0  0  0  0
  183.3760  172.6040  134.7520 C   0  0  0  0  0  2  0  0  0  0  0  0
  190.2390  176.9240  137.2280 C   0  0  0  0  0  2  0  0  0  0  0  0
  185.9200  173.8290  137.0190 N   0  0  0  0  0  0  0  0  0  0  0  0
  187.0410  172.4610  134.5940 C   0  0  0  0  0  1  0  0  0  0  0  0
  181.7850  175.8430  136.0630 C   0  0  0  0  0  2  0  0  0  0  0  0
  182.2920  173.6570  135.0120 C   0  0  0  0  0  2  0  0  0  0  0  0
  186.9070  172.7550  137.0770 C   0  0  0  0  0  2  0  0  0  0  0  0
  188.1190  178.3960  137.5120 C   0  0  1  0  0  3  0  0  0  0  0  0
  186.9100  177.8830  136.7620 C   0  0  1  0  0  3  0  0  0  0  0  0
  182.8800  175.0190  135.4280 C   0  0  2  0  0  3  0  0  0  0  0  0
  186.1370  175.1550  137.1370 C   0  0  0  0  0  0  0  0  0  0  0  0
  185.2390  171.2790  135.8750 C   0  0  0  0  0  2  0  0  0  0  0  0
  183.3320  177.8750  136.9060 C   0  0  1  0  0  3  0  0  0  0  0  0
  187.6130  170.5980  136.0940 C   0  0  0  0  0  1  0  0  0  0  0  0
  187.4080  177.1210  137.9720 C   0  0  1  0  0  3  0  0  0  0  0  0
  189.2880  178.1870  135.3670 F   0  0  0  0  0  0  0  0  0  0  0  0
  187.5230  175.7040  137.4320 C   0  0  2  0  0  3  0  0  0  0  0  0
  182.0280  177.5930  135.6620 S   0  0  0  0  0  0  0  0  0  0  0  0
  183.7950  178.1470  139.3470 C   0  0  0  0  0  3  0  0  0  0  0  0
  182.9110  177.7390  138.3420 C   0  0  0  0  0  0  0  0  0  0  0  0
  181.6570  177.2210  138.6940 C   0  0  0  0  0  3  0  0  0  0  0  0
  179.7270  176.4530  140.4650 Cl  0  0  0  0  0  0  0  0  0  0  0  0
  182.1800  177.5140  141.0390 C   0  0  0  0  0  3  0  0  0  0  0  0
  181.2940  177.1060  140.0380 C   0  0  0  0  0  0  0  0  0  0  0  0
  183.4310  178.0340  140.6930 C   0  0  0  0  0  3  0  0  0  0  0  0
  190.9050  173.9710  135.1840 C   0  0  0  0  0  1  0  0  0  0  0  0
  190.6720  175.4500  135.4330 C   0  0  0  0  0  2  0  0  0  0  0  0
  1  4  1  0  0  0  0
  1 27  1  0  0  0  0
  2 24  1  0  0  0  0
  2 17  1  0  0  0  0
  3  9  2  0  0  0  0
  3  7  1  0  0  0  0
  4 12  1  0  0  0  0
  6 11  1  6  0  0  0
  6  9  1  0  0  0  0
  7 21  2  0  0  0  0
  8 26  1  6  0  0  0
  8 12  1  0  0  0  0
  8 18  1  0  0  0  0
  9 13  1  0  0  0  0
 10  7  1  1  0  0  0
 10 23  1  0  0  0  0
 10  5  1  0  0  0  0
 11 16  1  0  0  0  0
 13 17  1  0  0  0  0
 13 21  1  0  0  0  0
 14  2  1  0  0  0  0
 16 20  1  0  0  0  0
 18 25  1  0  0  0  0
 19  5  1  0  0  0  0
 19 18  1  0  0  0  0
 19 25  1  0  0  0  0
 20 15  1  0  0  0  0
 20  3  1  0  0  0  0
 21 27  1  0  0  0  0
 22  2  1  0  0  0  0
 22  6  1  0  0  0  0
 23 30  1  0  0  0  0
 27 25  1  0  0  0  0
 28 15  1  0  0  0  0
 28 23  1  0  0  0  0
 29 35  1  0  0  0  0
 30 31  1  0  0  0  0
 30 29  2  0  0  0  0
 31 34  2  0  0  0  0
 34 32  1  0  0  0  0
 34 33  1  0  0  0  0
 35 33  2  0  0  0  0
 36 37  1  0  0  0  0
 37  4  1  0  0  0  0
M  END
>  <MODEL>
9

>  <REMARK>
 VINA RESULT:      -5.3      5.140      8.486
  Name = 
  2 active torsions:
  status: ('A' for Active; 'I' for Inactive)
    1  A    between atoms: N_4  and  C_37
    2  A    between atoms: C_23  and  C_30
                            x       y       z     vdW  Elec       q    Type
                         _______ _______ _______ _____ _____    ______ ____

>  <TORSDO>
F 2

$$$$
