=
 OpenBabel11122411513D

 28 32  0  0  1  0  0  0  0  0999 V2000
  188.2750  176.8990  142.4420 C   0  0  0  0  0  0  0  0  0  0  0  0
  186.2440  177.8860  138.2850 O   0  0  0  0  0  0  0  0  0  0  0  0
  193.6920  177.8580  139.7940 O   0  0  0  0  0  0  0  0  0  0  0  0
  186.4160  178.9740  142.1210 C   0  0  0  0  0  3  0  0  0  0  0  0
  192.1850  176.2730  138.8620 C   0  0  1  0  0  3  0  0  0  0  0  0
  189.2930  175.8390  142.7340 C   0  0  0  0  0  2  0  0  0  0  0  0
  188.2910  179.0570  137.5400 O   0  0  0  0  0  0  0  0  0  0  0  0
  187.6570  177.7200  137.8000 S   0  0  0  0  0  0  0  0  0  0  0  0
  188.5250  175.5660  136.2830 C   0  0  0  0  0  0  0  0  0  0  0  0
  188.6040  176.7740  138.9590 C   0  0  1  0  0  3  0  0  0  0  0  0
  191.6670  178.2190  144.2730 C   0  0  0  0  0  1  0  0  0  0  0  0
  190.4430  176.6960  140.4090 N   0  0  1  0  0  0  0  0  0  0  0  0
  189.4990  175.3280  137.1790 C   0  0  0  0  0  2  0  0  0  0  0  0
  187.6900  176.7400  136.3640 N   0  0  0  0  0  0  0  0  0  0  0  0
  190.9860  177.5980  143.1530 N   0  0  0  0  0  0  0  0  0  0  0  0
  188.3040  177.6950  141.2640 C   0  0  0  0  0  0  0  0  0  0  0  0
  192.6040  177.3060  139.8090 C   0  0  0  0  0  0  0  0  0  0  0  0
  188.2800  174.5750  135.2040 C   0  0  0  0  0  1  0  0  0  0  0  0
  192.0150  177.2530  142.1820 C   0  0  0  0  0  2  0  0  0  0  0  0
  187.3680  178.7300  141.1310 C   0  0  0  0  0  3  0  0  0  0  0  0
  187.3150  177.1550  143.4290 C   0  0  0  0  0  3  0  0  0  0  0  0
  186.3860  178.1830  143.2690 C   0  0  0  0  0  3  0  0  0  0  0  0
  190.3960  176.3620  143.6590 C   0  0  0  0  0  2  0  0  0  0  0  0
  190.7880  175.9510  139.2340 N   0  0  1  0  0  0  0  0  0  0  0  0
  191.5410  177.5920  140.7730 C   0  0  2  0  0  3  0  0  0  0  0  0
  189.8190  176.3570  138.2190 C   0  0  2  0  0  3  0  0  0  0  0  0
  192.3110  176.7440  137.5480 O   0  0  0  0  0  1  0  0  0  0  0  0
  189.2540  177.5010  140.0950 C   0  0  2  0  0  3  0  0  0  0  0  0
  1  6  1  0  0  0  0
  1 21  1  0  0  0  0
  3 17  2  0  0  0  0
  4 22  1  0  0  0  0
  5 27  1  6  0  0  0
  5 24  1  0  0  0  0
  5 17  1  0  0  0  0
  6 23  1  0  0  0  0
  7  8  2  0  0  0  0
  8  2  2  0  0  0  0
  9 14  2  0  0  0  0
  9 13  1  0  0  0  0
 10  8  1  6  0  0  0
 10 28  1  0  0  0  0
 12 25  1  0  0  0  0
 13 26  1  0  0  0  0
 14  8  1  0  0  0  0
 15 23  1  0  0  0  0
 15 11  1  0  0  0  0
 16  1  2  0  0  0  0
 17 25  1  0  0  0  0
 18  9  1  0  0  0  0
 19 15  1  0  0  0  0
 20 16  1  0  0  0  0
 20  4  2  0  0  0  0
 22 21  2  0  0  0  0
 24 12  1  0  0  0  0
 25 19  1  0  0  0  0
 26 10  1  0  0  0  0
 26 24  1  0  0  0  0
 28 12  1  0  0  0  0
 28 16  1  0  0  0  0
M  END
>  <MODEL>
1

>  <REMARK>
 VINA RESULT:      -9.0      0.000      0.000
  Name = 
  0 active torsions:
  status: ('A' for Active; 'I' for Inactive)
                            x       y       z     vdW  Elec       q    Type
                         _______ _______ _______ _____ _____    ______ ____

>  <TORSDO>
F 0

$$$$
=
 OpenBabel11122411513D

 28 32  0  0  1  0  0  0  0  0999 V2000
  186.5220  177.3930  143.1740 C   0  0  0  0  0  0  0  0  0  0  0  0
  187.0160  178.4380  138.5870 O   0  0  0  0  0  0  0  0  0  0  0  0
  192.4300  178.7450  143.9110 O   0  0  0  0  0  0  0  0  0  0  0  0
  185.0030  179.3780  141.9030 C   0  0  0  0  0  3  0  0  0  0  0  0
  191.7800  177.1210  142.3010 C   0  0  1  0  0  3  0  0  0  0  0  0
  187.2850  176.3780  143.9680 C   0  0  0  0  0  2  0  0  0  0  0  0
  189.0560  179.7450  139.0830 O   0  0  0  0  0  0  0  0  0  0  0  0
  188.4730  178.3670  138.9500 S   0  0  0  0  0  0  0  0  0  0  0  0
  190.1670  176.3250  138.1400 C   0  0  0  0  0  0  0  0  0  0  0  0
  188.6990  177.4260  140.4330 C   0  0  1  0  0  3  0  0  0  0  0  0
  188.2770  178.8160  146.5650 C   0  0  0  0  0  1  0  0  0  0  0  0
  189.4540  177.3870  142.6500 N   0  0  1  0  0  0  0  0  0  0  0  0
  190.5110  176.1030  139.4200 C   0  0  0  0  0  2  0  0  0  0  0  0
  189.3460  177.4490  137.7580 N   0  0  0  0  0  0  0  0  0  0  0  0
  188.3570  178.2060  145.2510 N   0  0  0  0  0  0  0  0  0  0  0  0
  187.1340  178.2370  142.2060 C   0  0  0  0  0  0  0  0  0  0  0  0
  191.5480  178.1350  143.3280 C   0  0  0  0  0  0  0  0  0  0  0  0
  190.6150  175.3670  137.0970 C   0  0  0  0  0  1  0  0  0  0  0  0
  189.7690  177.9550  144.9960 C   0  0  0  0  0  2  0  0  0  0  0  0
  186.3530  179.2240  141.5900 C   0  0  0  0  0  3  0  0  0  0  0  0
  185.1650  177.5580  143.4800 C   0  0  0  0  0  3  0  0  0  0  0  0
  184.4070  178.5410  142.8440 C   0  0  0  0  0  3  0  0  0  0  0  0
  187.6710  176.9210  145.3470 C   0  0  0  0  0  2  0  0  0  0  0  0
  190.4320  176.7100  141.8490 N   0  0  1  0  0  0  0  0  0  0  0  0
  190.1150  178.3250  143.5580 C   0  0  2  0  0  3  0  0  0  0  0  0
  190.1450  177.1050  140.4730 C   0  0  2  0  0  3  0  0  0  0  0  0
  192.5690  177.6510  141.2690 O   0  0  0  0  0  1  0  0  0  0  0  0
  188.5760  178.1410  141.7430 C   0  0  2  0  0  3  0  0  0  0  0  0
  1 21  1  0  0  0  0
  1  6  1  0  0  0  0
  2  8  2  0  0  0  0
  4 22  1  0  0  0  0
  5 27  1  6  0  0  0
  5 17  1  0  0  0  0
  6 23  1  0  0  0  0
  8  7  2  0  0  0  0
  9 13  1  0  0  0  0
 10  8  1  6  0  0  0
 10 26  1  0  0  0  0
 10 28  1  0  0  0  0
 12 25  1  0  0  0  0
 13 26  1  0  0  0  0
 14  9  2  0  0  0  0
 14  8  1  0  0  0  0
 15 23  1  0  0  0  0
 15 11  1  0  0  0  0
 16  1  2  0  0  0  0
 17 25  1  0  0  0  0
 17  3  2  0  0  0  0
 18  9  1  0  0  0  0
 19 15  1  0  0  0  0
 20  4  2  0  0  0  0
 20 16  1  0  0  0  0
 22 21  2  0  0  0  0
 24  5  1  0  0  0  0
 24 12  1  0  0  0  0
 25 19  1  0  0  0  0
 26 24  1  0  0  0  0
 28 16  1  0  0  0  0
 28 12  1  0  0  0  0
M  END
>  <MODEL>
2

>  <REMARK>
 VINA RESULT:      -6.6      1.827      2.739
  Name = 
  0 active torsions:
  status: ('A' for Active; 'I' for Inactive)
                            x       y       z     vdW  Elec       q    Type
                         _______ _______ _______ _____ _____    ______ ____

>  <TORSDO>
F 0

$$$$
=
 OpenBabel11122411513D

 28 32  0  0  1  0  0  0  0  0999 V2000
  187.0860  177.9590  136.3640 C   0  0  0  0  0  0  0  0  0  0  0  0
  182.6270  176.4330  136.7740 O   0  0  0  0  0  0  0  0  0  0  0  0
  187.3480  178.2040  142.4590 O   0  0  0  0  0  0  0  0  0  0  0  0
  186.2240  175.5050  135.3130 C   0  0  0  0  0  3  0  0  0  0  0  0
  185.6360  179.3780  141.3010 C   0  0  1  0  0  3  0  0  0  0  0  0
  187.6710  179.2300  136.8980 C   0  0  0  0  0  2  0  0  0  0  0  0
  183.0550  175.7450  139.1090 O   0  0  0  0  0  0  0  0  0  0  0  0
  182.8230  176.9070  138.1860 S   0  0  0  0  0  0  0  0  0  0  0  0
  181.6050  179.1660  139.2390 C   0  0  0  0  0  0  0  0  0  0  0  0
  184.1530  178.0720  138.2720 C   0  0  1  0  0  3  0  0  0  0  0  0
  190.4160  177.4960  138.6660 C   0  0  0  0  0  1  0  0  0  0  0  0
  186.2590  178.6050  139.1520 N   0  0  1  0  0  0  0  0  0  0  0  0
  182.8070  179.6420  139.6070 C   0  0  0  0  0  2  0  0  0  0  0  0
  181.4470  177.8330  138.7070 N   0  0  0  0  0  0  0  0  0  0  0  0
  189.0390  177.9160  138.4920 N   0  0  0  0  0  0  0  0  0  0  0  0
  186.1650  177.1620  137.0990 C   0  0  0  0  0  0  0  0  0  0  0  0
  186.7950  178.4920  141.4100 C   0  0  0  0  0  0  0  0  0  0  0  0
  180.4150  180.0480  139.3500 C   0  0  0  0  0  1  0  0  0  0  0  0
  188.6090  178.4650  139.7700 C   0  0  0  0  0  2  0  0  0  0  0  0
  185.7550  175.9380  136.5540 C   0  0  0  0  0  3  0  0  0  0  0  0
  187.5510  177.5120  135.1200 C   0  0  0  0  0  3  0  0  0  0  0  0
  187.1190  176.2950  134.5940 C   0  0  0  0  0  3  0  0  0  0  0  0
  189.0560  178.9960  137.5090 C   0  0  0  0  0  2  0  0  0  0  0  0
  185.2850  179.3810  139.8620 N   0  0  1  0  0  0  0  0  0  0  0  0
  187.1960  177.9930  140.0940 C   0  0  2  0  0  3  0  0  0  0  0  0
  184.0020  178.7390  139.5870 C   0  0  2  0  0  3  0  0  0  0  0  0
  184.5970  178.9170  142.1210 O   0  0  0  0  0  1  0  0  0  0  0  0
  185.5440  177.5400  138.4310 C   0  0  2  0  0  3  0  0  0  0  0  0
  1  6  1  0  0  0  0
  1 16  1  0  0  0  0
  2  8  2  0  0  0  0
  4 20  1  0  0  0  0
  5 17  1  0  0  0  0
  5 27  1  1  0  0  0
  6 23  1  0  0  0  0
  8 14  1  0  0  0  0
  8  7  2  0  0  0  0
  9 18  1  0  0  0  0
  9 13  1  0  0  0  0
 10  8  1  1  0  0  0
 10 28  1  0  0  0  0
 10 26  1  0  0  0  0
 12 24  1  0  0  0  0
 12 25  1  0  0  0  0
 14  9  2  0  0  0  0
 15 11  1  0  0  0  0
 15 19  1  0  0  0  0
 16 28  1  0  0  0  0
 17  3  2  0  0  0  0
 19 25  1  0  0  0  0
 20 16  2  0  0  0  0
 21  1  2  0  0  0  0
 22 21  1  0  0  0  0
 22  4  2  0  0  0  0
 23 15  1  0  0  0  0
 24  5  1  0  0  0  0
 25 17  1  0  0  0  0
 26 13  1  0  0  0  0
 26 24  1  0  0  0  0
 28 12  1  0  0  0  0
M  END
>  <MODEL>
3

>  <REMARK>
 VINA RESULT:      -6.5      3.725      6.661
  Name = 
  0 active torsions:
  status: ('A' for Active; 'I' for Inactive)
                            x       y       z     vdW  Elec       q    Type
                         _______ _______ _______ _____ _____    ______ ____

>  <TORSDO>
F 0

$$$$
=
 OpenBabel11122411513D

 28 32  0  0  1  0  0  0  0  0999 V2000
  184.0070  175.2580  137.1860 C   0  0  0  0  0  0  0  0  0  0  0  0
  186.4330  178.6010  139.4910 O   0  0  0  0  0  0  0  0  0  0  0  0
  178.9710  178.6010  138.0500 O   0  0  0  0  0  0  0  0  0  0  0  0
  186.1580  176.6350  136.0280 C   0  0  0  0  0  3  0  0  0  0  0  0
  180.2990  177.9570  139.9150 C   0  0  1  0  0  3  0  0  0  0  0  0
  182.8320  174.4730  137.6830 C   0  0  0  0  0  2  0  0  0  0  0  0
  184.6280  180.2350  139.0620 O   0  0  0  0  0  0  0  0  0  0  0  0
  185.0470  179.0400  139.8710 S   0  0  0  0  0  0  0  0  0  0  0  0
  183.9870  178.7740  142.4200 C   0  0  0  0  0  0  0  0  0  0  0  0
  183.8990  177.7050  139.6860 C   0  0  1  0  0  3  0  0  0  0  0  0
  180.7210  175.3540  134.7790 C   0  0  0  0  0  1  0  0  0  0  0  0
  181.9740  176.8870  138.6300 N   0  0  1  0  0  0  0  0  0  0  0  0
  182.9310  178.1150  141.9120 C   0  0  0  0  0  2  0  0  0  0  0  0
  184.9730  179.3980  141.5710 N   0  0  0  0  0  0  0  0  0  0  0  0
  181.3810  175.6280  136.0410 N   0  0  0  0  0  0  0  0  0  0  0  0
  184.1700  176.6480  137.4370 C   0  0  0  0  0  0  0  0  0  0  0  0
  179.9670  178.0510  138.4940 C   0  0  0  0  0  0  0  0  0  0  0  0
  184.1610  178.8290  143.8940 C   0  0  0  0  0  1  0  0  0  0  0  0
  180.3810  176.2350  136.9080 C   0  0  0  0  0  2  0  0  0  0  0  0
  185.2510  177.3130  136.8410 C   0  0  0  0  0  3  0  0  0  0  0  0
  184.9250  174.5880  136.3660 C   0  0  0  0  0  3  0  0  0  0  0  0
  185.9980  175.2700  135.7950 C   0  0  0  0  0  3  0  0  0  0  0  0
  181.7540  174.3340  136.6040 C   0  0  0  0  0  2  0  0  0  0  0  0
  181.6070  177.2660  139.9630 N   0  0  1  0  0  0  0  0  0  0  0  0
  180.9930  177.4030  137.6750 C   0  0  2  0  0  3  0  0  0  0  0  0
  182.6900  178.1260  140.4330 C   0  0  2  0  0  3  0  0  0  0  0  0
  180.3300  179.2360  140.4880 O   0  0  0  0  0  1  0  0  0  0  0  0
  183.2840  177.4890  138.3380 C   0  0  2  0  0  3  0  0  0  0  0  0
  1 16  1  0  0  0  0
  1  6  1  0  0  0  0
  2  8  2  0  0  0  0
  3 17  2  0  0  0  0
  4 20  1  0  0  0  0
  5 24  1  0  0  0  0
  5 27  1  6  0  0  0
  7  8  2  0  0  0  0
  8 14  1  0  0  0  0
  9 18  1  0  0  0  0
 10  8  1  6  0  0  0
 10 26  1  0  0  0  0
 11 15  1  0  0  0  0
 12 24  1  0  0  0  0
 13  9  1  0  0  0  0
 14  9  2  0  0  0  0
 15 23  1  0  0  0  0
 15 19  1  0  0  0  0
 16 28  1  0  0  0  0
 17  5  1  0  0  0  0
 19 25  1  0  0  0  0
 20 16  2  0  0  0  0
 21  1  2  0  0  0  0
 22  4  2  0  0  0  0
 22 21  1  0  0  0  0
 23  6  1  0  0  0  0
 24 26  1  0  0  0  0
 25 17  1  0  0  0  0
 25 12  1  0  0  0  0
 26 13  1  0  0  0  0
 28 12  1  0  0  0  0
 28 10  1  0  0  0  0
M  END
>  <MODEL>
4

>  <REMARK>
 VINA RESULT:      -6.0      5.388      9.292
  Name = 
  0 active torsions:
  status: ('A' for Active; 'I' for Inactive)
                            x       y       z     vdW  Elec       q    Type
                         _______ _______ _______ _____ _____    ______ ____

>  <TORSDO>
F 0

$$$$
