=
 OpenBabel11122411263D

 37 43  0  0  1  0  0  0  0  0999 V2000
  181.0510  179.7860  140.2350 C   0  0  0  0  0  2  0  0  0  0  0  0
  185.5520  178.6100  142.8200 C   0  0  0  0  0  0  0  0  0  0  0  0
  184.1580  178.3880  138.7340 C   0  0  1  0  0  3  0  0  0  0  0  0
  179.5650  180.1160  140.1390 C   0  0  2  0  0  3  0  0  0  0  0  0
  181.6370  175.3920  139.2080 C   0  0  0  0  0  2  0  0  0  0  0  0
  186.0980  178.3210  140.3660 C   0  0  1  0  0  3  0  0  0  0  0  0
  182.8430  177.6820  139.0690 C   0  0  1  0  0  3  0  0  0  0  0  0
  179.4010  178.1800  138.4100 C   0  0  0  0  0  0  0  0  0  0  0  0
  184.7050  178.8930  140.0640 C   0  0  2  0  0  3  0  0  0  0  0  0
  182.7690  176.2150  138.5780 C   0  0  2  0  0  3  0  0  0  0  0  0
  187.0180  178.6780  139.2900 N   0  0  0  0  0  2  0  0  0  0  0  0
  178.9320  179.5430  138.8660 C   0  0  0  0  0  2  0  0  0  0  0  0
  183.7140  178.6610  141.1340 N   0  0  2  0  0  0  0  0  0  0  0  0
  185.2120  179.9290  143.4870 C   0  0  0  0  0  1  0  0  0  0  0  0
  184.7580  177.1620  136.5500 C   0  0  0  0  0  2  0  0  0  0  0  0
  186.5970  178.1130  137.9910 C   0  0  0  0  0  2  0  0  0  0  0  0
  184.2650  177.9510  142.2980 C   0  0  0  0  0  2  0  0  0  0  0  0
  179.9300  177.1790  139.3050 N   0  0  0  0  0  0  0  0  0  0  0  0
  180.2350  175.8470  138.7940 C   0  0  0  0  0  2  0  0  0  0  0  0
  185.1820  177.5080  137.9820 C   0  0  1  0  0  3  0  0  0  0  0  0
  182.6490  177.8280  140.5820 C   0  0  1  0  0  3  0  0  0  0  0  0
  186.5770  178.8650  141.7040 C   0  0  0  0  0  2  0  0  0  0  0  0
  182.7320  176.1200  137.0370 C   0  0  1  0  0  3  0  0  0  0  0  0
  186.1760  177.6960  143.8530 C   0  0  0  0  0  1  0  0  0  0  0  0
  180.1380  177.4360  140.7260 C   0  0  0  0  0  2  0  0  0  0  0  0
  179.2850  177.9120  137.1840 O   0  0  0  0  0  0  0  0  0  0  0  0
  181.2820  178.4360  140.9340 C   0  0  2  0  0  3  0  0  0  0  0  0
  183.3580  177.1970  136.3600 O   0  0  0  0  0  0  0  0  0  0  0  0
  182.4550  174.3310  135.3060 C   0  0  0  0  0  3  0  0  0  0  0  0
  183.0810  174.7670  136.4790 C   0  0  0  0  0  0  0  0  0  0  0  0
  184.0400  173.9510  137.0980 C   0  0  0  0  0  3  0  0  0  0  0  0
  185.2820  171.9180  137.1520 F   0  0  0  0  0  0  0  0  0  0  0  0
  183.7260  172.2720  135.3830 C   0  0  0  0  0  3  0  0  0  0  0  0
  184.3580  172.7040  136.5510 C   0  0  0  0  0  0  0  0  0  0  0  0
  182.7750  173.0840  134.7590 C   0  0  0  0  0  3  0  0  0  0  0  0
  179.6670  182.1830  138.8570 N   0  0  0  0  0  1  0  0  0  0  0  0
  179.3580  181.6190  140.1600 C   0  0  0  0  0  2  0  0  0  0  0  0
  1 27  1  0  0  0  0
  2 14  1  0  0  0  0
  2 24  1  0  0  0  0
  3  7  1  0  0  0  0
  3  9  1  0  0  0  0
  4 37  1  0  0  0  0
  4  1  1  0  0  0  0
  6 22  1  0  0  0  0
  7 21  1  0  0  0  0
  8 12  1  0  0  0  0
  8 18  1  0  0  0  0
  9  6  1  0  0  0  0
  9 13  1  0  0  0  0
 10  7  1  0  0  0  0
 10  5  1  0  0  0  0
 11  6  1  0  0  0  0
 12  4  1  0  0  0  0
 13 17  1  0  0  0  0
 15 20  1  0  0  0  0
 16 11  1  0  0  0  0
 17  2  1  0  0  0  0
 18 25  1  0  0  0  0
 19  5  1  0  0  0  0
 19 18  1  0  0  0  0
 20 16  1  0  0  0  0
 20  3  1  0  0  0  0
 21 27  1  0  0  0  0
 21 13  1  0  0  0  0
 22  2  1  0  0  0  0
 23 10  1  0  0  0  0
 25 27  1  0  0  0  0
 26  8  2  0  0  0  0
 28 15  1  0  0  0  0
 28 23  1  0  0  0  0
 29 30  1  0  0  0  0
 30 23  1  0  0  0  0
 30 31  2  0  0  0  0
 33 34  2  0  0  0  0
 34 31  1  0  0  0  0
 34 32  1  0  0  0  0
 35 29  2  0  0  0  0
 35 33  1  0  0  0  0
 36 37  1  0  0  0  0
M  END
>  <MODEL>
1

>  <REMARK>
 VINA RESULT:      -6.8      0.000      0.000
  Name = 
  2 active torsions:
  status: ('A' for Active; 'I' for Inactive)
    1  A    between atoms: C_4  and  C_37
    2  A    between atoms: C_23  and  C_30
                            x       y       z     vdW  Elec       q    Type
                         _______ _______ _______ _____ _____    ______ ____

>  <TORSDO>
F 2

$$$$
=
 OpenBabel11122411263D

 37 43  0  0  1  0  0  0  0  0999 V2000
  181.1620  179.8240  139.9230 C   0  0  0  0  0  2  0  0  0  0  0  0
  185.5110  178.6770  142.7680 C   0  0  0  0  0  0  0  0  0  0  0  0
  184.3300  178.3660  138.6200 C   0  0  1  0  0  3  0  0  0  0  0  0
  179.6860  180.1640  139.7400 C   0  0  2  0  0  3  0  0  0  0  0  0
  181.7610  175.4020  139.0330 C   0  0  0  0  0  2  0  0  0  0  0  0
  186.1810  178.3240  140.3540 C   0  0  1  0  0  3  0  0  0  0  0  0
  182.9930  177.6790  138.9030 C   0  0  1  0  0  3  0  0  0  0  0  0
  179.5950  178.1880  138.0520 C   0  0  0  0  0  0  0  0  0  0  0  0
  184.8120  178.8990  139.9650 C   0  0  2  0  0  3  0  0  0  0  0  0
  182.9320  176.2010  138.4440 C   0  0  2  0  0  3  0  0  0  0  0  0
  187.1600  178.6470  139.3190 N   0  0  0  0  0  2  0  0  0  0  0  0
  179.1150  179.5650  138.4500 C   0  0  0  0  0  2  0  0  0  0  0  0
  183.7640  178.7010  140.9870 N   0  0  2  0  0  0  0  0  0  0  0  0
  185.1480  180.0140  143.3840 C   0  0  0  0  0  1  0  0  0  0  0  0
  185.0320  177.0830  136.5020 C   0  0  0  0  0  2  0  0  0  0  0  0
  186.8020  178.0540  138.0140 C   0  0  0  0  0  2  0  0  0  0  0  0
  184.2470  178.0150  142.1950 C   0  0  0  0  0  2  0  0  0  0  0  0
  180.0670  177.2050  138.9970 N   0  0  0  0  0  0  0  0  0  0  0  0
  180.3860  175.8580  138.5350 C   0  0  0  0  0  2  0  0  0  0  0  0
  185.3840  177.4600  137.9440 C   0  0  1  0  0  3  0  0  0  0  0  0
  182.7220  177.8640  140.4000 C   0  0  1  0  0  3  0  0  0  0  0  0
  186.5940  178.8970  141.7010 C   0  0  0  0  0  2  0  0  0  0  0  0
  182.9740  176.0680  136.9060 C   0  0  1  0  0  3  0  0  0  0  0  0
  186.0710  177.7830  143.8540 C   0  0  0  0  0  1  0  0  0  0  0  0
  180.2030  177.4950  140.4210 C   0  0  0  0  0  2  0  0  0  0  0  0
  179.5410  177.8900  136.8290 O   0  0  0  0  0  0  0  0  0  0  0  0
  181.3440  178.4900  140.6640 C   0  0  2  0  0  3  0  0  0  0  0  0
  183.6440  177.1240  136.2380 O   0  0  0  0  0  0  0  0  0  0  0  0
  184.6230  174.2010  136.6490 C   0  0  0  0  0  3  0  0  0  0  0  0
  183.3400  174.6990  136.3990 C   0  0  0  0  0  0  0  0  0  0  0  0
  182.4100  173.9080  135.7090 C   0  0  0  0  0  3  0  0  0  0  0  0
  181.8700  171.8720  134.5940 F   0  0  0  0  0  0  0  0  0  0  0  0
  184.0540  172.1420  135.5090 C   0  0  0  0  0  3  0  0  0  0  0  0
  182.7690  172.6330  135.2620 C   0  0  0  0  0  0  0  0  0  0  0  0
  184.9810  172.9250  136.2020 C   0  0  0  0  0  3  0  0  0  0  0  0
  180.2020  182.2430  138.5860 N   0  0  0  0  0  1  0  0  0  0  0  0
  179.4910  181.6680  139.7150 C   0  0  0  0  0  2  0  0  0  0  0  0
  1 27  1  0  0  0  0
  2 14  1  0  0  0  0
  2 24  1  0  0  0  0
  3  7  1  0  0  0  0
  3  9  1  0  0  0  0
  4  1  1  0  0  0  0
  6 22  1  0  0  0  0
  7 21  1  0  0  0  0
  8 12  1  0  0  0  0
  8 18  1  0  0  0  0
  9  6  1  0  0  0  0
  9 13  1  0  0  0  0
 10  7  1  0  0  0  0
 10  5  1  0  0  0  0
 11  6  1  0  0  0  0
 12  4  1  0  0  0  0
 13 17  1  0  0  0  0
 15 20  1  0  0  0  0
 16 11  1  0  0  0  0
 17  2  1  0  0  0  0
 18 25  1  0  0  0  0
 19 18  1  0  0  0  0
 19  5  1  0  0  0  0
 20 16  1  0  0  0  0
 20  3  1  0  0  0  0
 21 27  1  0  0  0  0
 21 13  1  0  0  0  0
 22  2  1  0  0  0  0
 23 10  1  0  0  0  0
 25 27  1  0  0  0  0
 26  8  2  0  0  0  0
 28 15  1  0  0  0  0
 28 23  1  0  0  0  0
 30 29  1  0  0  0  0
 30 23  1  0  0  0  0
 31 30  2  0  0  0  0
 32 34  1  0  0  0  0
 33 35  1  0  0  0  0
 34 33  2  0  0  0  0
 34 31  1  0  0  0  0
 35 29  2  0  0  0  0
 36 37  1  0  0  0  0
 37  4  1  0  0  0  0
M  END
>  <MODEL>
2

>  <REMARK>
 VINA RESULT:      -6.2      0.787      1.081
  Name = 
  2 active torsions:
  status: ('A' for Active; 'I' for Inactive)
    1  A    between atoms: C_4  and  C_37
    2  A    between atoms: C_23  and  C_30
                            x       y       z     vdW  Elec       q    Type
                         _______ _______ _______ _____ _____    ______ ____

>  <TORSDO>
F 2

$$$$
=
 OpenBabel11122411263D

 37 43  0  0  1  0  0  0  0  0999 V2000
  182.5620  174.3920  136.7350 C   0  0  0  0  0  2  0  0  0  0  0  0
  187.0970  177.0450  135.8860 C   0  0  0  0  0  0  0  0  0  0  0  0
  183.7050  177.4430  138.5370 C   0  0  1  0  0  3  0  0  0  0  0  0
  181.4620  173.3970  136.3800 C   0  0  2  0  0  3  0  0  0  0  0  0
  181.0690  178.5960  135.8390 C   0  0  0  0  0  2  0  0  0  0  0  0
  186.0820  178.1020  137.9480 C   0  0  1  0  0  3  0  0  0  0  0  0
  182.6480  177.3060  137.4400 C   0  0  1  0  0  3  0  0  0  0  0  0
  179.7770  175.3210  136.8490 C   0  0  0  0  0  0  0  0  0  0  0  0
  185.0170  176.9970  137.9030 C   0  0  2  0  0  3  0  0  0  0  0  0
  181.8590  178.6090  137.1550 C   0  0  2  0  0  3  0  0  0  0  0  0
  186.3160  178.5000  139.3340 N   0  0  0  0  0  2  0  0  0  0  0  0
  180.0930  173.8440  136.9040 C   0  0  0  0  0  2  0  0  0  0  0  0
  184.7640  176.4610  136.5500 N   0  0  2  0  0  0  0  0  0  0  0  0
  187.6140  175.6220  135.8020 C   0  0  0  0  0  1  0  0  0  0  0  0
  182.5860  179.2530  139.9870 C   0  0  0  0  0  2  0  0  0  0  0  0
  185.1000  179.0520  139.9660 C   0  0  0  0  0  2  0  0  0  0  0  0
  185.6050  177.0730  135.5110 C   0  0  0  0  0  2  0  0  0  0  0  0
  180.3630  176.2260  135.8890 N   0  0  0  0  0  0  0  0  0  0  0  0
  179.8990  177.6090  135.8280 C   0  0  0  0  0  2  0  0  0  0  0  0
  183.8080  178.8570  139.1520 C   0  0  1  0  0  3  0  0  0  0  0  0
  183.3740  176.7520  136.2090 C   0  0  1  0  0  3  0  0  0  0  0  0
  187.3580  177.5880  137.2990 C   0  0  0  0  0  2  0  0  0  0  0  0
  180.9550  179.0110  138.3400 C   0  0  1  0  0  3  0  0  0  0  0  0
  187.8590  177.8930  134.8900 C   0  0  0  0  0  1  0  0  0  0  0  0
  181.3850  175.7990  134.9390 C   0  0  0  0  0  2  0  0  0  0  0  0
  178.9310  175.7610  137.6730 O   0  0  0  0  0  0  0  0  0  0  0  0
  182.6990  175.4840  135.6620 C   0  0  2  0  0  3  0  0  0  0  0  0
  181.4080  178.5690  139.6090 O   0  0  0  0  0  0  0  0  0  0  0  0
  179.3730  180.8060  139.0790 C   0  0  0  0  0  3  0  0  0  0  0  0
  180.4940  180.4430  138.3250 C   0  0  0  0  0  0  0  0  0  0  0  0
  181.1830  181.4210  137.5920 C   0  0  0  0  0  3  0  0  0  0  0  0
  181.4090  183.6880  136.8950 F   0  0  0  0  0  0  0  0  0  0  0  0
  179.6200  183.1040  138.3560 C   0  0  0  0  0  3  0  0  0  0  0  0
  180.7430  182.7480  137.6060 C   0  0  0  0  0  0  0  0  0  0  0  0
  178.9350  182.1340  139.0930 C   0  0  0  0  0  3  0  0  0  0  0  0
  183.2140  171.9130  137.1880 N   0  0  0  0  0  1  0  0  0  0  0  0
  181.7860  172.0290  136.9500 C   0  0  0  0  0  2  0  0  0  0  0  0
  2 22  1  0  0  0  0
  3 20  1  0  0  0  0
  4  1  1  0  0  0  0
  4 12  1  0  0  0  0
  4 37  1  0  0  0  0
  5 10  1  0  0  0  0
  6 11  1  0  0  0  0
  7  3  1  0  0  0  0
  8 12  1  0  0  0  0
  8 26  2  0  0  0  0
  9  6  1  0  0  0  0
  9  3  1  0  0  0  0
 10  7  1  0  0  0  0
 10 23  1  0  0  0  0
 11 16  1  0  0  0  0
 13  9  1  0  0  0  0
 14  2  1  0  0  0  0
 17  2  1  0  0  0  0
 17 13  1  0  0  0  0
 18  8  1  0  0  0  0
 19  5  1  0  0  0  0
 19 18  1  0  0  0  0
 20 16  1  0  0  0  0
 20 15  1  0  0  0  0
 21 13  1  0  0  0  0
 21  7  1  0  0  0  0
 22  6  1  0  0  0  0
 23 28  1  0  0  0  0
 24  2  1  0  0  0  0
 25 27  1  0  0  0  0
 25 18  1  0  0  0  0
 27 21  1  0  0  0  0
 27  1  1  0  0  0  0
 28 15  1  0  0  0  0
 29 35  1  0  0  0  0
 30 23  1  0  0  0  0
 30 29  2  0  0  0  0
 31 34  2  0  0  0  0
 31 30  1  0  0  0  0
 32 34  1  0  0  0  0
 33 35  2  0  0  0  0
 34 33  1  0  0  0  0
 37 36  1  0  0  0  0
M  END
>  <MODEL>
3

>  <REMARK>
 VINA RESULT:      -5.9      3.144      6.655
  Name = 
  2 active torsions:
  status: ('A' for Active; 'I' for Inactive)
    1  A    between atoms: C_4  and  C_37
    2  A    between atoms: C_23  and  C_30
                            x       y       z     vdW  Elec       q    Type
                         _______ _______ _______ _____ _____    ______ ____

>  <TORSDO>
F 2

$$$$
=
 OpenBabel11122411263D

 37 43  0  0  1  0  0  0  0  0999 V2000
  183.4900  180.0410  138.3780 C   0  0  0  0  0  2  0  0  0  0  0  0
  188.3140  177.8000  138.2210 C   0  0  0  0  0  0  0  0  0  0  0  0
  184.4960  177.1110  136.3130 C   0  0  1  0  0  3  0  0  0  0  0  0
  182.4040  180.9330  138.9730 C   0  0  2  0  0  3  0  0  0  0  0  0
  182.5830  175.7170  139.4680 C   0  0  0  0  0  2  0  0  0  0  0  0
  186.9920  176.6640  136.3870 C   0  0  1  0  0  3  0  0  0  0  0  0
  183.6810  177.1490  137.6070 C   0  0  1  0  0  3  0  0  0  0  0  0
  180.8320  178.8680  138.8170 C   0  0  0  0  0  0  0  0  0  0  0  0
  185.8670  177.6700  136.6740 C   0  0  2  0  0  3  0  0  0  0  0  0
  183.0830  175.7800  138.0180 C   0  0  2  0  0  3  0  0  0  0  0  0
  186.9690  176.2950  134.9750 N   0  0  0  0  0  2  0  0  0  0  0  0
  181.0010  180.3670  138.7310 C   0  0  0  0  0  2  0  0  0  0  0  0
  185.8530  178.1760  138.0620 N   0  0  2  0  0  0  0  0  0  0  0  0
  188.7120  179.2630  138.2290 C   0  0  0  0  0  1  0  0  0  0  0  0
  183.2630  175.2140  135.0840 C   0  0  0  0  0  2  0  0  0  0  0  0
  185.7010  175.6380  134.5940 C   0  0  0  0  0  2  0  0  0  0  0  0
  186.9400  177.6370  138.8920 C   0  0  0  0  0  2  0  0  0  0  0  0
  181.6790  178.0150  139.6160 N   0  0  0  0  0  0  0  0  0  0  0  0
  181.3590  176.5960  139.7410 C   0  0  0  0  0  2  0  0  0  0  0  0
  184.5930  175.7140  135.6590 C   0  0  1  0  0  3  0  0  0  0  0  0
  184.5940  177.7610  138.6740 C   0  0  1  0  0  3  0  0  0  0  0  0
  188.3250  177.2880  136.7730 C   0  0  0  0  0  2  0  0  0  0  0  0
  181.9920  175.3030  137.0350 C   0  0  1  0  0  3  0  0  0  0  0  0
  189.3360  177.0190  139.0210 C   0  0  0  0  0  1  0  0  0  0  0  0
  182.8340  178.5280  140.3460 C   0  0  0  0  0  2  0  0  0  0  0  0
  179.8750  178.3570  138.1750 O   0  0  0  0  0  0  0  0  0  0  0  0
  183.9390  178.9610  139.3750 C   0  0  2  0  0  3  0  0  0  0  0  0
  182.1340  175.7890  135.7100 O   0  0  0  0  0  0  0  0  0  0  0  0
  180.3380  173.4380  137.2720 C   0  0  0  0  0  3  0  0  0  0  0  0
  181.6700  173.8350  137.1130 C   0  0  0  0  0  0  0  0  0  0  0  0
  182.6750  172.8640  137.0010 C   0  0  0  0  0  3  0  0  0  0  0  0
  183.3210  170.5700  136.9550 F   0  0  0  0  0  0  0  0  0  0  0  0
  181.0170  171.1150  137.2260 C   0  0  0  0  0  3  0  0  0  0  0  0
  182.3480  171.5060  137.0610 C   0  0  0  0  0  0  0  0  0  0  0  0
  180.0120  172.0800  137.3310 C   0  0  0  0  0  3  0  0  0  0  0  0
  181.1710  182.7500  137.9230 N   0  0  0  0  0  1  0  0  0  0  0  0
  182.4840  182.3270  138.3790 C   0  0  0  0  0  2  0  0  0  0  0  0
  1  4  1  0  0  0  0
  1 27  1  0  0  0  0
  2 14  1  0  0  0  0
  2 17  1  0  0  0  0
  2 24  1  0  0  0  0
  3  9  1  0  0  0  0
  3  7  1  0  0  0  0
  5 19  1  0  0  0  0
  6  9  1  0  0  0  0
  6 22  1  0  0  0  0
  7 10  1  0  0  0  0
  7 21  1  0  0  0  0
  8 18  1  0  0  0  0
  9 13  1  0  0  0  0
 10  5  1  0  0  0  0
 11  6  1  0  0  0  0
 12  8  1  0  0  0  0
 12  4  1  0  0  0  0
 13 21  1  0  0  0  0
 13 17  1  0  0  0  0
 15 20  1  0  0  0  0
 15 28  1  0  0  0  0
 16 11  1  0  0  0  0
 16 20  1  0  0  0  0
 18 19  1  0  0  0  0
 18 25  1  0  0  0  0
 20  3  1  0  0  0  0
 21 27  1  0  0  0  0
 22  2  1  0  0  0  0
 23 30  1  0  0  0  0
 23 10  1  0  0  0  0
 26  8  2  0  0  0  0
 27 25  1  0  0  0  0
 28 23  1  0  0  0  0
 29 35  1  0  0  0  0
 30 29  2  0  0  0  0
 31 34  2  0  0  0  0
 31 30  1  0  0  0  0
 32 34  1  0  0  0  0
 33 35  2  0  0  0  0
 34 33  1  0  0  0  0
 36 37  1  0  0  0  0
 37  4  1  0  0  0  0
M  END
>  <MODEL>
4

>  <REMARK>
 VINA RESULT:      -4.7      2.143      3.328
  Name = 
  2 active torsions:
  status: ('A' for Active; 'I' for Inactive)
    1  A    between atoms: C_4  and  C_37
    2  A    between atoms: C_23  and  C_30
                            x       y       z     vdW  Elec       q    Type
                         _______ _______ _______ _____ _____    ______ ____

>  <TORSDO>
F 2

$$$$
