=
 OpenBabel11122410253D

 30 36  0  0  1  0  0  0  0  0999 V2000
  187.4070  178.2570  142.7840 C   0  0  0  0  0  0  0  0  0  0  0  0
  186.3680  178.0480  145.0590 C   0  0  0  0  0  0  0  0  0  0  0  0
  183.7640  179.0040  140.7230 C   0  0  0  0  0  2  0  0  0  0  0  0
  187.3050  178.4030  141.2870 C   0  0  0  0  0  0  0  0  0  0  0  0
  188.7410  177.9270  143.4070 C   0  0  0  0  0  2  0  0  0  0  0  0
  189.7560  176.4930  141.1460 O   0  0  0  0  0  1  0  0  0  0  0  0
  187.4520  176.9540  138.6480 C   0  0  1  0  0  3  0  0  0  0  0  0
  189.8120  177.8920  141.1460 C   0  0  2  0  0  3  0  0  0  0  0  0
  186.0520  177.5470  138.4820 C   0  0  2  0  0  3  0  0  0  0  0  0
  184.2830  179.1430  139.2860 C   0  0  1  0  0  3  0  0  0  0  0  0
  189.9120  178.4330  142.5720 C   0  0  2  0  0  3  0  0  0  0  0  0
  188.5830  178.4850  140.4530 C   0  0  1  0  0  3  0  0  0  0  0  0
  185.1570  178.5530  145.7990 C   0  0  0  0  0  3  0  0  0  0  0  0
  185.8930  177.7860  136.9960 C   0  0  0  0  0  2  0  0  0  0  0  0
  187.7840  176.2900  137.3180 C   0  0  0  0  0  2  0  0  0  0  0  0
  186.5030  176.2910  145.3330 Cl  0  0  0  0  0  0  0  0  0  0  0  0
  184.9220  178.6740  141.5270 N   0  0  0  0  0  0  0  0  0  0  0  0
  184.0250  178.8960  145.1780 C   0  0  0  0  0  3  0  0  0  0  0  0
  186.3060  178.3280  143.5700 C   0  0  0  0  0  0  0  0  0  0  0  0
  186.0870  178.6020  140.7360 C   0  0  0  0  0  0  0  0  0  0  0  0
  184.0820  180.5060  138.8300 N   0  0  0  0  0  1  0  0  0  0  0  0
  185.7860  178.8220  139.2950 C   0  0  1  0  0  3  0  0  0  0  0  0
  186.6940  176.6850  136.3360 C   0  0  0  0  0  2  0  0  0  0  0  0
  189.2050  178.4950  138.1810 O   0  0  0  0  0  0  0  0  0  0  0  0
  183.9230  178.8740  143.7090 C   0  0  0  0  0  3  0  0  0  0  0  0
  184.9910  178.6120  142.9510 C   0  0  1  0  0  3  0  0  0  0  0  0
  188.4800  177.9960  139.0300 C   0  0  0  0  0  0  0  0  0  0  0  0
  191.2280  178.0270  143.2150 C   0  0  0  0  0  3  0  0  0  0  0  0
  191.6980  179.1300  144.1420 C   0  0  0  0  0  2  0  0  0  0  0  0
  191.0380  177.8930  144.7130 C   0  0  0  0  0  2  0  0  0  0  0  0
  1  5  1  0  0  0  0
  1 19  2  0  0  0  0
  2 16  1  0  0  0  0
  2 13  2  0  0  0  0
  3 17  1  0  0  0  0
  4  1  1  0  0  0  0
  7 15  1  6  0  0  0
  7 27  1  0  0  0  0
  8  6  1  1  0  0  0
  8 11  1  0  0  0  0
  9 14  1  6  0  0  0
  9  7  1  0  0  0  0
  9 22  1  0  0  0  0
 10 21  1  1  0  0  0
 10 22  1  0  0  0  0
 10  3  1  0  0  0  0
 11 28  1  1  0  0  0
 11  5  1  0  0  0  0
 12 27  1  6  0  0  0
 12  8  1  0  0  0  0
 12  4  1  0  0  0  0
 17 26  1  0  0  0  0
 18 13  1  0  0  0  0
 19  2  1  0  0  0  0
 20  4  2  0  0  0  0
 20 17  1  0  0  0  0
 22 20  1  1  0  0  0
 23 14  1  0  0  0  0
 23 15  1  0  0  0  0
 24 27  2  0  0  0  0
 25 18  2  0  0  0  0
 26 19  1  0  0  0  0
 26 25  1  1  0  0  0
 28 29  1  0  0  0  0
 28 30  1  0  0  0  0
 29 30  1  0  0  0  0
M  END
>  <MODEL>
1

>  <REMARK>
 VINA RESULT:      -8.5      0.000      0.000
  Name = 
  1 active torsions:
  status: ('A' for Active; 'I' for Inactive)
    1  A    between atoms: C_11  and  C_28
                            x       y       z     vdW  Elec       q    Type
                         _______ _______ _______ _____ _____    ______ ____

>  <TORSDO>
F 1

$$$$
=
 OpenBabel11122410253D

 30 36  0  0  1  0  0  0  0  0999 V2000
  186.8300  178.2010  139.9770 C   0  0  0  0  0  0  0  0  0  0  0  0
  187.5680  177.4080  137.7130 C   0  0  1  0  0  3  0  0  0  0  0  0
  190.6240  177.7400  141.8420 C   0  0  0  0  0  2  0  0  0  0  0  0
  187.0780  178.4390  141.4440 C   0  0  0  0  0  0  0  0  0  0  0  0
  185.4300  178.3290  139.4310 C   0  0  0  0  0  2  0  0  0  0  0  0
  184.1140  177.5910  141.8660 O   0  0  0  0  0  1  0  0  0  0  0  0
  186.5880  177.4020  144.2330 C   0  0  1  0  0  3  0  0  0  0  0  0
  184.5720  178.9050  141.7100 C   0  0  2  0  0  3  0  0  0  0  0  0
  188.1160  177.4500  144.2940 C   0  0  2  0  0  3  0  0  0  0  0  0
  190.2870  178.1960  143.2680 C   0  0  1  0  0  3  0  0  0  0  0  0
  184.5820  179.3080  140.2360 C   0  0  2  0  0  3  0  0  0  0  0  0
  185.9760  179.0650  142.2990 C   0  0  1  0  0  3  0  0  0  0  0  0
  188.8280  177.3590  136.8880 C   0  0  0  0  0  3  0  0  0  0  0  0
  188.4490  177.7520  145.7380 C   0  0  0  0  0  2  0  0  0  0  0  0
  186.1260  177.0370  145.6380 C   0  0  0  0  0  2  0  0  0  0  0  0
  186.7840  175.8080  137.6410 Cl  0  0  0  0  0  0  0  0  0  0  0  0
  189.3740  177.7870  141.1120 N   0  0  0  0  0  0  0  0  0  0  0  0
  190.0450  177.3170  137.4360 C   0  0  0  0  0  3  0  0  0  0  0  0
  187.8260  177.7850  139.1590 C   0  0  0  0  0  0  0  0  0  0  0  0
  188.3180  178.2250  141.9370 C   0  0  0  0  0  0  0  0  0  0  0  0
  191.0000  179.4250  143.5620 N   0  0  0  0  0  1  0  0  0  0  0  0
  188.7730  178.4530  143.3360 C   0  0  1  0  0  3  0  0  0  0  0  0
  187.3480  177.0910  146.5390 C   0  0  0  0  0  2  0  0  0  0  0  0
  185.5530  179.5190  144.5720 O   0  0  0  0  0  0  0  0  0  0  0  0
  190.2300  177.3980  138.8940 C   0  0  0  0  0  3  0  0  0  0  0  0
  189.1930  177.6210  139.7060 C   0  0  0  0  0  0  0  0  0  0  0  0
  185.9870  178.7100  143.7640 C   0  0  0  0  0  0  0  0  0  0  0  0
  183.1680  179.3570  139.6780 C   0  0  0  0  0  3  0  0  0  0  0  0
  183.0660  180.4760  138.6590 C   0  0  0  0  0  2  0  0  0  0  0  0
  183.1980  179.0410  138.1960 C   0  0  0  0  0  2  0  0  0  0  0  0
  1  4  1  0  0  0  0
  2 16  1  1  0  0  0
  2 19  1  0  0  0  0
  3 10  1  0  0  0  0
  4 20  2  0  0  0  0
  5  1  1  0  0  0  0
  5 11  1  0  0  0  0
  7  9  1  0  0  0  0
  7 15  1  1  0  0  0
  8  6  1  6  0  0  0
  8 12  1  0  0  0  0
  9 14  1  1  0  0  0
 10 22  1  0  0  0  0
 10 21  1  6  0  0  0
 11 28  1  6  0  0  0
 11  8  1  0  0  0  0
 12  4  1  6  0  0  0
 12 27  1  0  0  0  0
 13 18  2  0  0  0  0
 13  2  1  0  0  0  0
 14 23  1  0  0  0  0
 15 23  1  0  0  0  0
 17  3  1  0  0  0  0
 17 20  1  0  0  0  0
 18 25  1  0  0  0  0
 19 26  1  0  0  0  0
 19  1  2  0  0  0  0
 22 20  1  6  0  0  0
 22  9  1  0  0  0  0
 25 26  2  0  0  0  0
 26 17  1  0  0  0  0
 27  7  1  0  0  0  0
 27 24  2  0  0  0  0
 29 28  1  0  0  0  0
 30 29  1  0  0  0  0
 30 28  1  0  0  0  0
M  END
>  <MODEL>
2

>  <REMARK>
 VINA RESULT:      -7.8      2.824      7.071
  Name = 
  1 active torsions:
  status: ('A' for Active; 'I' for Inactive)
    1  A    between atoms: C_11  and  C_28
                            x       y       z     vdW  Elec       q    Type
                         _______ _______ _______ _____ _____    ______ ____

>  <TORSDO>
F 1

$$$$
=
 OpenBabel11122410253D

 30 36  0  0  1  0  0  0  0  0999 V2000
  188.3000  178.0420  141.7220 C   0  0  0  0  0  0  0  0  0  0  0  0
  186.4940  178.4100  143.4270 C   0  0  0  0  0  0  0  0  0  0  0  0
  185.7600  178.4080  138.3320 C   0  0  0  0  0  2  0  0  0  0  0  0
  188.7610  177.8350  140.3030 C   0  0  0  0  0  0  0  0  0  0  0  0
  189.2700  177.8220  142.8560 C   0  0  0  0  0  2  0  0  0  0  0  0
  190.8510  175.8610  141.4930 O   0  0  0  0  0  1  0  0  0  0  0  0
  189.6730  175.8010  138.2730 C   0  0  1  0  0  3  0  0  0  0  0  0
  191.0710  177.2180  141.2270 C   0  0  2  0  0  3  0  0  0  0  0  0
  188.5080  176.3860  137.4720 C   0  0  2  0  0  3  0  0  0  0  0  0
  186.7740  178.1870  137.2030 C   0  0  1  0  0  3  0  0  0  0  0  0
  190.7150  178.0750  142.4400 C   0  0  2  0  0  3  0  0  0  0  0  0
  190.2530  177.6740  140.0150 C   0  0  1  0  0  3  0  0  0  0  0  0
  185.1690  179.1170  143.5340 C   0  0  0  0  0  3  0  0  0  0  0  0
  188.9250  176.2750  136.0220 C   0  0  0  0  0  2  0  0  0  0  0  0
  190.3790  174.8320  137.3330 C   0  0  0  0  0  2  0  0  0  0  0  0
  186.3100  176.7630  144.0870 Cl  0  0  0  0  0  0  0  0  0  0  0  0
  186.5030  178.2370  139.5630 N   0  0  0  0  0  0  0  0  0  0  0  0
  184.3870  179.3430  142.4750 C   0  0  0  0  0  3  0  0  0  0  0  0
  187.0070  178.3340  142.0020 C   0  0  0  0  0  0  0  0  0  0  0  0
  187.8560  177.9400  139.3040 C   0  0  0  0  0  0  0  0  0  0  0  0
  186.9160  179.4110  136.4350 N   0  0  0  0  0  1  0  0  0  0  0  0
  188.1230  177.8250  137.8440 C   0  0  1  0  0  3  0  0  0  0  0  0
  189.7710  175.0210  135.9540 C   0  0  0  0  0  2  0  0  0  0  0  0
  191.6480  177.1270  138.1960 O   0  0  0  0  0  0  0  0  0  0  0  0
  184.8170  178.9800  141.1160 C   0  0  0  0  0  3  0  0  0  0  0  0
  186.0470  178.5090  140.8880 C   0  0  1  0  0  3  0  0  0  0  0  0
  190.6120  176.8680  138.7920 C   0  0  0  0  0  0  0  0  0  0  0  0
  191.6520  177.7870  143.6020 C   0  0  0  0  0  3  0  0  0  0  0  0
  191.8590  179.0530  144.4110 C   0  0  0  0  0  2  0  0  0  0  0  0
  190.9120  177.9830  144.9100 C   0  0  0  0  0  2  0  0  0  0  0  0
  1 19  2  0  0  0  0
  1  5  1  0  0  0  0
  2 13  2  0  0  0  0
  2 16  1  0  0  0  0
  3 17  1  0  0  0  0
  4  1  1  0  0  0  0
  7 15  1  6  0  0  0
  7 27  1  0  0  0  0
  8  6  1  1  0  0  0
  8 11  1  0  0  0  0
  9 14  1  6  0  0  0
  9 22  1  0  0  0  0
  9  7  1  0  0  0  0
 10 21  1  1  0  0  0
 10 22  1  0  0  0  0
 10  3  1  0  0  0  0
 11  5  1  0  0  0  0
 11 28  1  1  0  0  0
 12 27  1  6  0  0  0
 12  4  1  0  0  0  0
 12  8  1  0  0  0  0
 17 26  1  0  0  0  0
 18 13  1  0  0  0  0
 19  2  1  0  0  0  0
 20 17  1  0  0  0  0
 20  4  2  0  0  0  0
 22 20  1  1  0  0  0
 23 14  1  0  0  0  0
 23 15  1  0  0  0  0
 24 27  2  0  0  0  0
 25 18  2  0  0  0  0
 26 25  1  6  0  0  0
 26 19  1  0  0  0  0
 28 29  1  0  0  0  0
 28 30  1  0  0  0  0
 29 30  1  0  0  0  0
M  END
>  <MODEL>
3

>  <REMARK>
 VINA RESULT:      -7.7      1.614      2.364
  Name = 
  1 active torsions:
  status: ('A' for Active; 'I' for Inactive)
    1  A    between atoms: C_11  and  C_28
                            x       y       z     vdW  Elec       q    Type
                         _______ _______ _______ _____ _____    ______ ____

>  <TORSDO>
F 1

$$$$
=
 OpenBabel11122410253D

 30 36  0  0  1  0  0  0  0  0999 V2000
  188.3550  177.7450  141.9500 C   0  0  0  0  0  0  0  0  0  0  0  0
  190.0390  176.7950  143.5510 C   0  0  1  0  0  3  0  0  0  0  0  0
  185.3480  178.4520  144.8730 C   0  0  0  0  0  2  0  0  0  0  0  0
  186.9760  178.2600  141.6270 C   0  0  0  0  0  0  0  0  0  0  0  0
  189.3240  177.4670  140.8280 C   0  0  0  0  0  2  0  0  0  0  0  0
  187.3200  176.8410  138.8800 O   0  0  0  0  0  1  0  0  0  0  0  0
  184.3210  177.5900  140.3650 C   0  0  1  0  0  3  0  0  0  0  0  0
  187.6150  178.1840  139.1470 C   0  0  2  0  0  3  0  0  0  0  0  0
  183.8000  177.9910  141.7470 C   0  0  2  0  0  3  0  0  0  0  0  0
  184.2390  179.0380  143.9900 C   0  0  1  0  0  3  0  0  0  0  0  0
  189.0640  178.3410  139.6070 C   0  0  2  0  0  3  0  0  0  0  0  0
  186.6700  178.7470  140.2110 C   0  0  1  0  0  3  0  0  0  0  0  0
  190.3970  176.9030  145.0100 C   0  0  0  0  0  3  0  0  0  0  0  0
  182.4300  178.5830  141.5000 C   0  0  0  0  0  2  0  0  0  0  0  0
  183.0860  177.3540  139.5060 C   0  0  0  0  0  2  0  0  0  0  0  0
  189.9910  175.0690  143.1090 Cl  0  0  0  0  0  0  0  0  0  0  0  0
  186.4220  178.1010  143.9670 N   0  0  0  0  0  0  0  0  0  0  0  0
  189.5030  177.2250  145.9490 C   0  0  0  0  0  3  0  0  0  0  0  0
  188.7080  177.4430  143.2230 C   0  0  0  0  0  0  0  0  0  0  0  0
  186.0870  178.4120  142.6340 C   0  0  0  0  0  0  0  0  0  0  0  0
  184.0200  180.4270  144.3490 N   0  0  0  0  0  1  0  0  0  0  0  0
  184.7050  178.9540  142.5280 C   0  0  1  0  0  3  0  0  0  0  0  0
  181.8850  177.8250  140.3090 C   0  0  0  0  0  2  0  0  0  0  0  0
  184.8040  179.4430  138.9520 O   0  0  0  0  0  0  0  0  0  0  0  0
  188.1170  177.5720  145.5960 C   0  0  0  0  0  3  0  0  0  0  0  0
  187.7390  177.6790  144.3190 C   0  0  0  0  0  0  0  0  0  0  0  0
  185.2340  178.6380  139.7660 C   0  0  0  0  0  0  0  0  0  0  0  0
  190.0300  177.9820  138.4900 C   0  0  0  0  0  3  0  0  0  0  0  0
  191.3780  177.6220  139.0840 C   0  0  0  0  0  2  0  0  0  0  0  0
  190.4380  176.5290  138.6220 C   0  0  0  0  0  2  0  0  0  0  0  0
  1 19  2  0  0  0  0
  2 16  1  1  0  0  0
  2 13  1  0  0  0  0
  4  1  1  0  0  0  0
  4 20  2  0  0  0  0
  5  1  1  0  0  0  0
  7 15  1  6  0  0  0
  7  9  1  0  0  0  0
  8  6  1  1  0  0  0
  8 11  1  0  0  0  0
  8 12  1  0  0  0  0
  9 14  1  6  0  0  0
  9 22  1  0  0  0  0
 10 21  1  1  0  0  0
 10  3  1  0  0  0  0
 11 28  1  6  0  0  0
 11  5  1  0  0  0  0
 12 27  1  6  0  0  0
 12  4  1  0  0  0  0
 13 18  2  0  0  0  0
 15 23  1  0  0  0  0
 17 26  1  0  0  0  0
 17  3  1  0  0  0  0
 19  2  1  0  0  0  0
 19 26  1  0  0  0  0
 20 17  1  0  0  0  0
 22 20  1  1  0  0  0
 22 10  1  0  0  0  0
 23 14  1  0  0  0  0
 24 27  2  0  0  0  0
 25 18  1  0  0  0  0
 26 25  2  0  0  0  0
 27  7  1  0  0  0  0
 28 30  1  0  0  0  0
 28 29  1  0  0  0  0
 30 29  1  0  0  0  0
M  END
>  <MODEL>
4

>  <REMARK>
 VINA RESULT:      -7.2      2.123      4.214
  Name = 
  1 active torsions:
  status: ('A' for Active; 'I' for Inactive)
    1  A    between atoms: C_11  and  C_28
                            x       y       z     vdW  Elec       q    Type
                         _______ _______ _______ _____ _____    ______ ____

>  <TORSDO>
F 1

$$$$
=
 OpenBabel11122410253D

 30 36  0  0  1  0  0  0  0  0999 V2000
  189.5000  177.4060  143.4880 C   0  0  0  0  0  0  0  0  0  0  0  0
  191.3240  176.0820  144.5920 C   0  0  1  0  0  3  0  0  0  0  0  0
  187.2050  177.9890  147.0200 C   0  0  0  0  0  2  0  0  0  0  0  0
  188.1590  178.0940  143.5130 C   0  0  0  0  0  0  0  0  0  0  0  0
  190.1990  177.1930  142.1680 C   0  0  0  0  0  2  0  0  0  0  0  0
  187.8040  177.0450  140.6050 O   0  0  0  0  0  1  0  0  0  0  0  0
  185.2530  177.8690  142.7430 C   0  0  1  0  0  3  0  0  0  0  0  0
  188.3070  178.3020  140.9630 C   0  0  2  0  0  3  0  0  0  0  0  0
  185.0530  178.1220  144.2390 C   0  0  2  0  0  3  0  0  0  0  0  0
  186.0300  178.7980  146.4540 C   0  0  1  0  0  3  0  0  0  0  0  0
  189.8250  178.2510  141.1360 C   0  0  2  0  0  3  0  0  0  0  0  0
  187.6560  178.8010  142.2550 C   0  0  1  0  0  3  0  0  0  0  0  0
  191.9600  175.9490  145.9510 C   0  0  0  0  0  3  0  0  0  0  0  0
  183.7450  178.8740  144.3460 C   0  0  0  0  0  2  0  0  0  0  0  0
  183.8590  177.8780  142.1290 C   0  0  0  0  0  2  0  0  0  0  0  0
  190.9810  174.4470  143.9680 Cl  0  0  0  0  0  0  0  0  0  0  0  0
  188.0380  177.6640  145.8810 N   0  0  0  0  0  0  0  0  0  0  0  0
  191.3040  176.2220  147.0820 C   0  0  0  0  0  3  0  0  0  0  0  0
  190.0450  176.8960  144.6180 C   0  0  0  0  0  0  0  0  0  0  0  0
  187.5000  178.1900  144.6890 C   0  0  0  0  0  0  0  0  0  0  0  0
  186.0560  180.1380  147.0110 N   0  0  0  0  0  1  0  0  0  0  0  0
  186.2000  178.8730  144.9290 C   0  0  1  0  0  3  0  0  0  0  0  0
  182.8970  178.3460  143.2090 C   0  0  0  0  0  2  0  0  0  0  0  0
  185.6870  179.8450  141.4900 O   0  0  0  0  0  0  0  0  0  0  0  0
  189.9300  176.7500  147.0600 C   0  0  0  0  0  3  0  0  0  0  0  0
  189.3360  177.0700  145.9070 C   0  0  0  0  0  0  0  0  0  0  0  0
  186.1580  178.8960  142.0990 C   0  0  0  0  0  0  0  0  0  0  0  0
  190.5130  177.9590  139.8130 C   0  0  0  0  0  3  0  0  0  0  0  0
  191.9350  177.5030  140.0730 C   0  0  0  0  0  2  0  0  0  0  0  0
  190.8650  176.4860  139.7410 C   0  0  0  0  0  2  0  0  0  0  0  0
  1  4  1  0  0  0  0
  1 19  2  0  0  0  0
  2 16  1  1  0  0  0
  2 19  1  0  0  0  0
  2 13  1  0  0  0  0
  4 20  2  0  0  0  0
  5  1  1  0  0  0  0
  7 15  1  6  0  0  0
  7  9  1  0  0  0  0
  8  6  1  1  0  0  0
  8 11  1  0  0  0  0
  8 12  1  0  0  0  0
  9 14  1  6  0  0  0
  9 22  1  0  0  0  0
 10 21  1  1  0  0  0
 10  3  1  0  0  0  0
 11 28  1  6  0  0  0
 11  5  1  0  0  0  0
 12 27  1  6  0  0  0
 12  4  1  0  0  0  0
 13 18  2  0  0  0  0
 15 23  1  0  0  0  0
 17 26  1  0  0  0  0
 17  3  1  0  0  0  0
 19 26  1  0  0  0  0
 20 17  1  0  0  0  0
 22 20  1  1  0  0  0
 22 10  1  0  0  0  0
 23 14  1  0  0  0  0
 24 27  2  0  0  0  0
 25 18  1  0  0  0  0
 26 25  2  0  0  0  0
 27  7  1  0  0  0  0
 28 29  1  0  0  0  0
 30 28  1  0  0  0  0
 30 29  1  0  0  0  0
M  END
>  <MODEL>
5

>  <REMARK>
 VINA RESULT:      -6.9      3.022      5.407
  Name = 
  1 active torsions:
  status: ('A' for Active; 'I' for Inactive)
    1  A    between atoms: C_11  and  C_28
                            x       y       z     vdW  Elec       q    Type
                         _______ _______ _______ _____ _____    ______ ____

>  <TORSDO>
F 1

$$$$
=
 OpenBabel11122410253D

 30 36  0  0  1  0  0  0  0  0999 V2000
  188.9020  177.3900  139.4400 C   0  0  0  0  0  0  0  0  0  0  0  0
  187.4030  178.2330  137.6120 C   0  0  1  0  0  3  0  0  0  0  0  0
  186.2590  178.3500  142.6290 C   0  0  0  0  0  2  0  0  0  0  0  0
  189.2440  177.2080  140.8960 C   0  0  0  0  0  0  0  0  0  0  0  0
  189.9400  177.0800  138.3910 C   0  0  0  0  0  2  0  0  0  0  0  0
  192.1980  177.6860  140.0450 O   0  0  0  0  0  1  0  0  0  0  0  0
  190.9270  178.2190  143.1840 C   0  0  1  0  0  3  0  0  0  0  0  0
  191.5780  176.4370  140.1700 C   0  0  2  0  0  3  0  0  0  0  0  0
  189.5580  178.3640  143.8530 C   0  0  2  0  0  3  0  0  0  0  0  0
  187.0910  177.8780  143.8290 C   0  0  1  0  0  3  0  0  0  0  0  0
  190.9300  176.0160  138.8520 C   0  0  2  0  0  3  0  0  0  0  0  0
  190.5220  176.4630  141.2790 C   0  0  1  0  0  3  0  0  0  0  0  0
  185.9310  178.4260  137.3570 C   0  0  0  0  0  3  0  0  0  0  0  0
  189.8060  178.1280  145.3260 C   0  0  0  0  0  2  0  0  0  0  0  0
  191.9530  178.5470  144.2620 C   0  0  0  0  0  2  0  0  0  0  0  0
  188.2580  179.7210  137.1300 Cl  0  0  0  0  0  0  0  0  0  0  0  0
  187.0940  178.1360  141.4660 N   0  0  0  0  0  0  0  0  0  0  0  0
  185.0510  178.6280  138.3410 C   0  0  0  0  0  3  0  0  0  0  0  0
  187.7110  177.9140  139.0620 C   0  0  0  0  0  0  0  0  0  0  0  0
  188.3390  177.5830  141.8280 C   0  0  0  0  0  0  0  0  0  0  0  0
  186.4290  176.7530  144.4620 N   0  0  0  0  0  1  0  0  0  0  0  0
  188.4660  177.4350  143.3040 C   0  0  1  0  0  3  0  0  0  0  0  0
  191.2010  178.6590  145.5780 C   0  0  0  0  0  2  0  0  0  0  0  0
  191.7760  175.9960  143.2190 O   0  0  0  0  0  0  0  0  0  0  0  0
  185.4630  178.5940  139.7540 C   0  0  0  0  0  3  0  0  0  0  0  0
  186.7090  178.2570  140.0970 C   0  0  0  0  0  0  0  0  0  0  0  0
  191.1420  176.8400  142.6010 C   0  0  0  0  0  0  0  0  0  0  0  0
  191.9830  175.7810  137.7810 C   0  0  0  0  0  3  0  0  0  0  0  0
  191.8300  174.3820  137.2190 C   0  0  0  0  0  2  0  0  0  0  0  0
  191.3050  175.5700  136.4420 C   0  0  0  0  0  2  0  0  0  0  0  0
  1  4  1  0  0  0  0
  2 16  1  1  0  0  0
  2 19  1  0  0  0  0
  3 10  1  0  0  0  0
  4 20  2  0  0  0  0
  5 11  1  0  0  0  0
  5  1  1  0  0  0  0
  7  9  1  0  0  0  0
  7 15  1  1  0  0  0
  8  6  1  6  0  0  0
  8 12  1  0  0  0  0
  9 14  1  1  0  0  0
 10 21  1  6  0  0  0
 11 28  1  6  0  0  0
 11  8  1  0  0  0  0
 12  4  1  6  0  0  0
 12 27  1  0  0  0  0
 13  2  1  0  0  0  0
 13 18  2  0  0  0  0
 14 23  1  0  0  0  0
 15 23  1  0  0  0  0
 17 20  1  0  0  0  0
 17  3  1  0  0  0  0
 18 25  1  0  0  0  0
 19  1  2  0  0  0  0
 19 26  1  0  0  0  0
 22 20  1  6  0  0  0
 22 10  1  0  0  0  0
 22  9  1  0  0  0  0
 25 26  2  0  0  0  0
 26 17  1  0  0  0  0
 27  7  1  0  0  0  0
 27 24  2  0  0  0  0
 29 28  1  0  0  0  0
 30 29  1  0  0  0  0
 30 28  1  0  0  0  0
M  END
>  <MODEL>
6

>  <REMARK>
 VINA RESULT:      -6.5      2.658      6.084
  Name = 
  1 active torsions:
  status: ('A' for Active; 'I' for Inactive)
    1  A    between atoms: C_11  and  C_28
                            x       y       z     vdW  Elec       q    Type
                         _______ _______ _______ _____ _____    ______ ____

>  <TORSDO>
F 1

$$$$
=
 OpenBabel11122410253D

 30 36  0  0  1  0  0  0  0  0999 V2000
  185.4660  178.3360  141.5620 C   0  0  0  0  0  0  0  0  0  0  0  0
  186.9550  177.9650  143.5480 C   0  0  1  0  0  3  0  0  0  0  0  0
  181.9070  178.9390  143.8090 C   0  0  0  0  0  2  0  0  0  0  0  0
  184.1070  178.5390  140.9420 C   0  0  0  0  0  0  0  0  0  0  0  0
  186.6530  178.0640  140.6720 C   0  0  0  0  0  2  0  0  0  0  0  0
  185.1530  176.7930  138.5890 O   0  0  0  0  0  1  0  0  0  0  0  0
  181.8570  177.2150  139.4350 C   0  0  1  0  0  3  0  0  0  0  0  0
  185.1900  178.1920  138.6460 C   0  0  2  0  0  3  0  0  0  0  0  0
  181.0390  177.7250  140.6230 C   0  0  2  0  0  3  0  0  0  0  0  0
  180.9000  179.1720  142.6750 C   0  0  1  0  0  3  0  0  0  0  0  0
  186.4900  178.6770  139.2850 C   0  0  2  0  0  3  0  0  0  0  0  0
  183.9930  178.7360  139.4310 C   0  0  1  0  0  3  0  0  0  0  0  0
  187.0220  178.3620  145.0000 C   0  0  0  0  0  3  0  0  0  0  0  0
  179.6630  178.0170  140.0650 C   0  0  0  0  0  2  0  0  0  0  0  0
  180.8470  176.6300  138.4550 C   0  0  0  0  0  2  0  0  0  0  0  0
  187.2480  176.2100  143.4290 Cl  0  0  0  0  0  0  0  0  0  0  0  0
  183.1680  178.6490  143.1590 N   0  0  0  0  0  0  0  0  0  0  0  0
  185.9340  178.6600  145.7150 C   0  0  0  0  0  3  0  0  0  0  0  0
  185.6230  178.3040  142.9070 C   0  0  0  0  0  0  0  0  0  0  0  0
  183.0370  178.6840  141.7560 C   0  0  0  0  0  0  0  0  0  0  0  0
  180.4140  180.5370  142.7340 N   0  0  0  0  0  1  0  0  0  0  0  0
  181.6320  178.9450  141.3420 C   0  0  1  0  0  3  0  0  0  0  0  0
  179.4630  176.9960  138.9650 C   0  0  0  0  0  2  0  0  0  0  0  0
  182.3040  178.8810  137.7950 O   0  0  0  0  0  0  0  0  0  0  0  0
  184.5980  178.6940  145.0970 C   0  0  0  0  0  3  0  0  0  0  0  0
  184.4470  178.5310  143.7800 C   0  0  0  0  0  0  0  0  0  0  0  0
  182.6940  178.3020  138.7990 C   0  0  0  0  0  0  0  0  0  0  0  0
  187.6860  178.3270  138.4150 C   0  0  0  0  0  3  0  0  0  0  0  0
  188.9360  178.9560  138.9970 C   0  0  0  0  0  2  0  0  0  0  0  0
  188.6620  177.4830  139.2100 C   0  0  0  0  0  2  0  0  0  0  0  0
  1 19  2  0  0  0  0
  2 16  1  1  0  0  0
  2 13  1  0  0  0  0
  4  1  1  0  0  0  0
  4 20  2  0  0  0  0
  5  1  1  0  0  0  0
  7 15  1  6  0  0  0
  7  9  1  0  0  0  0
  8  6  1  1  0  0  0
  8 11  1  0  0  0  0
  8 12  1  0  0  0  0
  9 14  1  6  0  0  0
  9 22  1  0  0  0  0
 10 21  1  6  0  0  0
 10  3  1  0  0  0  0
 11 28  1  6  0  0  0
 11  5  1  0  0  0  0
 12 27  1  6  0  0  0
 12  4  1  0  0  0  0
 13 18  2  0  0  0  0
 15 23  1  0  0  0  0
 17 26  1  0  0  0  0
 17  3  1  0  0  0  0
 19  2  1  0  0  0  0
 19 26  1  0  0  0  0
 20 17  1  0  0  0  0
 22 20  1  1  0  0  0
 22 10  1  0  0  0  0
 23 14  1  0  0  0  0
 24 27  2  0  0  0  0
 25 18  1  0  0  0  0
 26 25  2  0  0  0  0
 27  7  1  0  0  0  0
 28 29  1  0  0  0  0
 28 30  1  0  0  0  0
 29 30  1  0  0  0  0
M  END
>  <MODEL>
7

>  <REMARK>
 VINA RESULT:      -6.5      2.689      4.674
  Name = 
  1 active torsions:
  status: ('A' for Active; 'I' for Inactive)
    1  A    between atoms: C_11  and  C_28
                            x       y       z     vdW  Elec       q    Type
                         _______ _______ _______ _____ _____    ______ ____

>  <TORSDO>
F 1

$$$$
=
 OpenBabel11122410253D

 30 36  0  0  1  0  0  0  0  0999 V2000
  186.3020  178.2980  144.8760 C   0  0  0  0  0  0  0  0  0  0  0  0
  186.3650  178.7550  147.3430 C   0  0  0  0  0  0  0  0  0  0  0  0
  190.1140  176.4210  144.6990 C   0  0  0  0  0  2  0  0  0  0  0  0
  186.9480  177.8300  143.5970 C   0  0  0  0  0  0  0  0  0  0  0  0
  184.9750  179.0120  144.8180 C   0  0  0  0  0  2  0  0  0  0  0  0
  185.3740  180.1280  142.2110 O   0  0  0  0  0  1  0  0  0  0  0  0
  188.2620  178.7060  141.0290 C   0  0  1  0  0  3  0  0  0  0  0  0
  184.9460  178.8000  142.3250 C   0  0  2  0  0  3  0  0  0  0  0  0
  189.3950  177.8200  141.5510 C   0  0  2  0  0  3  0  0  0  0  0  0
  190.1920  176.0980  143.2010 C   0  0  1  0  0  3  0  0  0  0  0  0
  184.1440  178.5950  143.6100 C   0  0  2  0  0  3  0  0  0  0  0  0
  186.1380  177.8400  142.3010 C   0  0  1  0  0  3  0  0  0  0  0  0
  186.9940  178.1770  148.5840 C   0  0  0  0  0  3  0  0  0  0  0  0
  190.0600  177.2540  140.3160 C   0  0  0  0  0  2  0  0  0  0  0  0
  188.6800  179.1360  139.6290 C   0  0  0  0  0  2  0  0  0  0  0  0
  186.6130  180.5210  147.3550 Cl  0  0  0  0  0  0  0  0  0  0  0  0
  188.8680  177.1370  144.8790 N   0  0  0  0  0  0  0  0  0  0  0  0
  188.1400  177.4920  148.5570 C   0  0  0  0  0  3  0  0  0  0  0  0
  186.9350  178.1680  146.0670 C   0  0  0  0  0  0  0  0  0  0  0  0
  188.1810  177.2800  143.6560 C   0  0  0  0  0  0  0  0  0  0  0  0
  190.1810  174.6590  143.0160 N   0  0  0  0  0  1  0  0  0  0  0  0
  188.9590  176.7130  142.5200 C   0  0  1  0  0  3  0  0  0  0  0  0
  189.9200  178.3360  139.2660 C   0  0  0  0  0  2  0  0  0  0  0  0
  186.4950  177.4900  139.9990 O   0  0  0  0  0  0  0  0  0  0  0  0
  188.8200  177.1900  147.2860 C   0  0  0  0  0  3  0  0  0  0  0  0
  188.2580  177.5030  146.1160 C   0  0  1  0  0  3  0  0  0  0  0  0
  186.9270  177.9950  141.0250 C   0  0  0  0  0  0  0  0  0  0  0  0
  182.8450  179.3830  143.5700 C   0  0  0  0  0  3  0  0  0  0  0  0
  181.7950  178.5890  142.8170 C   0  0  0  0  0  2  0  0  0  0  0  0
  181.7720  178.6280  144.3300 C   0  0  0  0  0  2  0  0  0  0  0  0
  1 19  2  0  0  0  0
  2 16  1  0  0  0  0
  2 13  2  0  0  0  0
  3 17  1  0  0  0  0
  4 20  2  0  0  0  0
  4  1  1  0  0  0  0
  5  1  1  0  0  0  0
  7 15  1  6  0  0  0
  7  9  1  0  0  0  0
  8  6  1  1  0  0  0
  8 11  1  0  0  0  0
  9 14  1  6  0  0  0
  9 22  1  0  0  0  0
 10 21  1  1  0  0  0
 10  3  1  0  0  0  0
 11 28  1  6  0  0  0
 11  5  1  0  0  0  0
 12 27  1  6  0  0  0
 12  8  1  0  0  0  0
 12  4  1  0  0  0  0
 17 26  1  0  0  0  0
 18 13  1  0  0  0  0
 19 26  1  0  0  0  0
 19  2  1  0  0  0  0
 20 17  1  0  0  0  0
 22 10  1  0  0  0  0
 22 20  1  1  0  0  0
 23 15  1  0  0  0  0
 23 14  1  0  0  0  0
 24 27  2  0  0  0  0
 25 18  2  0  0  0  0
 26 25  1  1  0  0  0
 27  7  1  0  0  0  0
 28 30  1  0  0  0  0
 29 28  1  0  0  0  0
 29 30  1  0  0  0  0
M  END
>  <MODEL>
8

>  <REMARK>
 VINA RESULT:      -6.4      2.937      5.542
  Name = 
  1 active torsions:
  status: ('A' for Active; 'I' for Inactive)
    1  A    between atoms: C_11  and  C_28
                            x       y       z     vdW  Elec       q    Type
                         _______ _______ _______ _____ _____    ______ ____

>  <TORSDO>
F 1

$$$$
=
 OpenBabel11122410253D

 30 36  0  0  1  0  0  0  0  0999 V2000
  186.9560  175.4710  136.7820 C   0  0  0  0  0  0  0  0  0  0  0  0
  184.7500  176.6440  136.5340 C   0  0  1  0  0  3  0  0  0  0  0  0
  188.6230  178.2820  139.5030 C   0  0  0  0  0  2  0  0  0  0  0  0
  188.3700  175.4020  137.2980 C   0  0  0  0  0  0  0  0  0  0  0  0
  186.4860  174.4590  135.7680 C   0  0  0  0  0  2  0  0  0  0  0  0
  189.0630  174.0260  134.5950 O   0  0  0  0  0  1  0  0  0  0  0  0
  191.2800  175.7300  136.5800 C   0  0  1  0  0  3  0  0  0  0  0  0
  188.7370  173.3660  135.7860 C   0  0  2  0  0  3  0  0  0  0  0  0
  191.2410  176.7180  137.7480 C   0  0  2  0  0  3  0  0  0  0  0  0
  190.0080  177.6610  139.7260 C   0  0  1  0  0  3  0  0  0  0  0  0
  187.2300  173.1330  135.8850 C   0  0  2  0  0  3  0  0  0  0  0  0
  189.2170  174.1660  137.0000 C   0  0  1  0  0  3  0  0  0  0  0  0
  183.8600  177.5580  137.3350 C   0  0  0  0  0  3  0  0  0  0  0  0
  192.6200  176.6590  138.3660 C   0  0  0  0  0  2  0  0  0  0  0  0
  192.7420  175.6350  136.1630 C   0  0  0  0  0  2  0  0  0  0  0  0
  184.9020  177.3060  134.8850 Cl  0  0  0  0  0  0  0  0  0  0  0  0
  187.9700  177.4390  138.5240 N   0  0  0  0  0  0  0  0  0  0  0  0
  184.3330  178.3840  138.2720 C   0  0  0  0  0  3  0  0  0  0  0  0
  186.1280  176.4800  137.1470 C   0  0  0  0  0  0  0  0  0  0  0  0
  188.8060  176.3730  138.1310 C   0  0  0  0  0  0  0  0  0  0  0  0
  190.1220  177.2180  141.1030 N   0  0  0  0  0  1  0  0  0  0  0  0
  190.1410  176.4530  138.7850 C   0  0  1  0  0  3  0  0  0  0  0  0
  193.5550  176.3780  137.2090 C   0  0  0  0  0  2  0  0  0  0  0  0
  191.4490  173.4550  137.2570 O   0  0  0  0  0  0  0  0  0  0  0  0
  185.7600  178.3900  138.6350 C   0  0  0  0  0  3  0  0  0  0  0  0
  186.6050  177.4970  138.1130 C   0  0  0  0  0  0  0  0  0  0  0  0
  190.7090  174.3780  136.9460 C   0  0  0  0  0  0  0  0  0  0  0  0
  186.7580  172.1710  134.8070 C   0  0  0  0  0  3  0  0  0  0  0  0
  185.9960  171.0280  135.4480 C   0  0  0  0  0  2  0  0  0  0  0  0
  185.2430  172.1540  134.7730 C   0  0  0  0  0  2  0  0  0  0  0  0
  1 19  2  0  0  0  0
  1  4  1  0  0  0  0
  2 16  1  6  0  0  0
  2 19  1  0  0  0  0
  2 13  1  0  0  0  0
  3 10  1  0  0  0  0
  4 20  2  0  0  0  0
  5 11  1  0  0  0  0
  5  1  1  0  0  0  0
  7 15  1  1  0  0  0
  7 27  1  0  0  0  0
  7  9  1  0  0  0  0
  8  6  1  6  0  0  0
  8 11  1  0  0  0  0
  8 12  1  0  0  0  0
  9 14  1  1  0  0  0
  9 22  1  0  0  0  0
 10 21  1  1  0  0  0
 11 28  1  6  0  0  0
 12 27  1  6  0  0  0
 12  4  1  0  0  0  0
 13 18  2  0  0  0  0
 15 23  1  0  0  0  0
 17  3  1  0  0  0  0
 18 25  1  0  0  0  0
 19 26  1  0  0  0  0
 20 17  1  0  0  0  0
 22 20  1  6  0  0  0
 22 10  1  0  0  0  0
 23 14  1  0  0  0  0
 26 17  1  0  0  0  0
 26 25  2  0  0  0  0
 27 24  2  0  0  0  0
 28 29  1  0  0  0  0
 30 28  1  0  0  0  0
 30 29  1  0  0  0  0
M  END
>  <MODEL>
9

>  <REMARK>
 VINA RESULT:      -6.3      4.274      7.385
  Name = 
  1 active torsions:
  status: ('A' for Active; 'I' for Inactive)
    1  A    between atoms: C_11  and  C_28
                            x       y       z     vdW  Elec       q    Type
                         _______ _______ _______ _____ _____    ______ ____

>  <TORSDO>
F 1

$$$$
