=
 OpenBabel11122411583D

 28 32  0  0  1  0  0  0  0  0999 V2000
  180.3940  178.2830  139.5700 C   0  0  0  0  0  0  0  0  0  0  0  0
  183.1810  176.7180  138.6070 O   0  0  0  0  0  0  0  0  0  0  0  0
  183.4220  179.8100  144.3790 O   0  0  0  0  0  0  0  0  0  0  0  0
  179.9160  180.3870  137.7780 C   0  0  0  0  0  3  0  0  0  0  0  0
  184.8990  178.8740  142.7040 C   0  0  2  0  0  3  0  0  0  0  0  0
  180.5810  177.1140  140.4860 C   0  0  0  0  0  2  0  0  0  0  0  0
  183.5060  178.2560  136.7160 O   0  0  0  0  0  0  0  0  0  0  0  0
  184.0160  177.8460  138.0680 S   0  0  0  0  0  0  0  0  0  0  0  0
  186.6710  177.8730  138.7710 C   0  0  0  0  0  0  0  0  0  0  0  0
  183.9980  179.2650  139.1610 C   0  0  2  0  0  3  0  0  0  0  0  0
  179.6310  178.0510  143.9160 O   0  0  0  0  0  0  0  0  0  0  0  0
  183.0150  178.3320  141.1910 C   0  0  1  0  0  3  0  0  0  0  0  0
  186.4090  178.7010  139.7400 N   0  0  0  0  0  0  0  0  0  0  0  0
  185.6500  177.3270  137.9370 N   0  0  0  0  0  2  0  0  0  0  0  0
  180.1840  178.1900  142.7940 C   0  0  0  0  0  0  0  0  0  0  0  0
  181.4070  179.2520  139.3330 C   0  0  0  0  0  0  0  0  0  0  0  0
  183.5780  179.2270  143.2740 C   0  0  0  0  0  0  0  0  0  0  0  0
  188.0870  177.5180  138.4930 C   0  0  0  0  0  1  0  0  0  0  0  0
  181.1270  179.3370  142.6040 C   0  0  0  0  0  2  0  0  0  0  0  0
  181.1410  180.2990  138.4400 C   0  0  0  0  0  3  0  0  0  0  0  0
  179.1700  178.3830  138.8980 C   0  0  0  0  0  3  0  0  0  0  0  0
  178.9310  179.4290  138.0060 C   0  0  0  0  0  3  0  0  0  0  0  0
  179.8510  177.2770  141.7390 N   0  0  0  0  0  2  0  0  0  0  0  0
  184.5460  178.2690  141.3380 C   0  0  1  0  0  3  0  0  0  0  0  0
  182.5000  178.8800  142.4290 N   0  0  0  0  0  0  0  0  0  0  0  0
  185.0930  179.1440  140.2160 C   0  0  2  0  0  3  0  0  0  0  0  0
  185.5650  177.8150  143.5620 C   0  0  0  0  0  1  0  0  0  0  0  0
  182.7520  179.2920  140.0350 C   0  0  2  0  0  3  0  0  0  0  0  0
  1  6  1  0  0  0  0
  4 22  2  0  0  0  0
  4 20  1  0  0  0  0
  5 17  1  0  0  0  0
  5 27  1  1  0  0  0
  6 23  1  0  0  0  0
  7  8  2  0  0  0  0
  8  2  2  0  0  0  0
  9 13  2  0  0  0  0
 10  8  1  6  0  0  0
 10 28  1  0  0  0  0
 10 26  1  0  0  0  0
 12 24  1  0  0  0  0
 12 25  1  1  0  0  0
 13 26  1  0  0  0  0
 14  8  1  0  0  0  0
 14  9  1  0  0  0  0
 15 11  2  0  0  0  0
 16  1  1  0  0  0  0
 16 28  1  0  0  0  0
 17  3  2  0  0  0  0
 18  9  1  0  0  0  0
 19 15  1  0  0  0  0
 20 16  2  0  0  0  0
 21  1  2  0  0  0  0
 22 21  1  0  0  0  0
 23 15  1  0  0  0  0
 24  5  1  0  0  0  0
 25 19  1  0  0  0  0
 25 17  1  0  0  0  0
 26 24  1  0  0  0  0
 28 12  1  0  0  0  0
M  END
>  <MODEL>
1

>  <REMARK>
 VINA RESULT:      -6.6      0.000      0.000
  Name = 
  0 active torsions:
  status: ('A' for Active; 'I' for Inactive)
                            x       y       z     vdW  Elec       q    Type
                         _______ _______ _______ _____ _____    ______ ____

>  <TORSDO>
F 0

$$$$
=
 OpenBabel11122411583D

 28 32  0  0  1  0  0  0  0  0999 V2000
  180.9270  176.1480  137.5200 C   0  0  0  0  0  0  0  0  0  0  0  0
  184.2110  175.5560  137.6220 O   0  0  0  0  0  0  0  0  0  0  0  0
  181.7680  179.2570  142.4460 O   0  0  0  0  0  0  0  0  0  0  0  0
  180.3940  177.6960  135.2430 C   0  0  0  0  0  3  0  0  0  0  0  0
  183.8890  178.6920  141.4220 C   0  0  2  0  0  3  0  0  0  0  0  0
  181.1760  175.2500  138.6920 C   0  0  0  0  0  2  0  0  0  0  0  0
  184.6050  176.8490  135.5680 O   0  0  0  0  0  0  0  0  0  0  0  0
  184.7860  176.8250  137.0590 S   0  0  0  0  0  0  0  0  0  0  0  0
  186.9710  177.8780  138.3490 C   0  0  0  0  0  0  0  0  0  0  0  0
  184.0140  178.2760  137.7720 C   0  0  2  0  0  3  0  0  0  0  0  0
  179.0070  176.2290  141.4990 O   0  0  0  0  0  0  0  0  0  0  0  0
  182.8000  177.3290  139.6650 C   0  0  1  0  0  3  0  0  0  0  0  0
  186.1940  178.6790  139.0180 N   0  0  0  0  0  0  0  0  0  0  0  0
  186.4620  176.9030  137.4400 N   0  0  0  0  0  2  0  0  0  0  0  0
  179.8010  176.4080  140.5390 C   0  0  0  0  0  0  0  0  0  0  0  0
  181.6220  177.3730  137.3210 C   0  0  0  0  0  0  0  0  0  0  0  0
  182.4160  178.6280  141.5680 C   0  0  0  0  0  0  0  0  0  0  0  0
  188.4430  178.0120  138.5020 C   0  0  0  0  0  1  0  0  0  0  0  0
  180.3640  177.7780  140.3280 C   0  0  0  0  0  2  0  0  0  0  0  0
  181.3310  178.1330  136.1800 C   0  0  0  0  0  3  0  0  0  0  0  0
  179.9900  175.7220  136.5720 C   0  0  0  0  0  3  0  0  0  0  0  0
  179.7240  176.4900  135.4380 C   0  0  0  0  0  3  0  0  0  0  0  0
  180.0910  175.3070  139.6670 N   0  0  0  0  0  2  0  0  0  0  0  0
  184.1600  177.8290  140.1820 C   0  0  1  0  0  3  0  0  0  0  0  0
  181.7980  177.8160  140.5910 N   0  0  0  0  0  0  0  0  0  0  0  0
  184.7270  178.6870  139.0560 C   0  0  2  0  0  3  0  0  0  0  0  0
  184.5550  178.0580  142.6280 C   0  0  0  0  0  1  0  0  0  0  0  0
  182.6170  177.9750  138.2960 C   0  0  2  0  0  3  0  0  0  0  0  0
  1  6  1  0  0  0  0
  4 22  2  0  0  0  0
  4 20  1  0  0  0  0
  5 17  1  0  0  0  0
  5 27  1  1  0  0  0
  6 23  1  0  0  0  0
  7  8  2  0  0  0  0
  8 14  1  0  0  0  0
  8  2  2  0  0  0  0
  9 18  1  0  0  0  0
  9 13  2  0  0  0  0
 10  8  1  1  0  0  0
 10 28  1  0  0  0  0
 10 26  1  0  0  0  0
 12 24  1  0  0  0  0
 12 25  1  1  0  0  0
 13 26  1  0  0  0  0
 14  9  1  0  0  0  0
 15 11  2  0  0  0  0
 16  1  1  0  0  0  0
 16 28  1  0  0  0  0
 17  3  2  0  0  0  0
 19 15  1  0  0  0  0
 19 25  1  0  0  0  0
 20 16  2  0  0  0  0
 21  1  2  0  0  0  0
 22 21  1  0  0  0  0
 23 15  1  0  0  0  0
 24  5  1  0  0  0  0
 25 17  1  0  0  0  0
 26 24  1  0  0  0  0
 28 12  1  0  0  0  0
M  END
>  <MODEL>
2

>  <REMARK>
 VINA RESULT:      -5.9      2.187      2.384
  Name = 
  0 active torsions:
  status: ('A' for Active; 'I' for Inactive)
                            x       y       z     vdW  Elec       q    Type
                         _______ _______ _______ _____ _____    ______ ____

>  <TORSDO>
F 0

$$$$
=
 OpenBabel11122411583D

 28 32  0  0  1  0  0  0  0  0999 V2000
  182.7180  178.7670  138.7050 C   0  0  0  0  0  0  0  0  0  0  0  0
  181.1650  175.9230  139.5110 O   0  0  0  0  0  0  0  0  0  0  0  0
  186.7970  175.3350  136.2120 O   0  0  0  0  0  0  0  0  0  0  0  0
  181.0960  180.1570  136.8880 C   0  0  0  0  0  3  0  0  0  0  0  0
  184.8340  174.0410  136.7940 C   0  0  2  0  0  3  0  0  0  0  0  0
  183.5580  178.0850  139.7400 C   0  0  0  0  0  2  0  0  0  0  0  0
  179.2690  176.4260  138.0280 O   0  0  0  0  0  0  0  0  0  0  0  0
  180.4770  175.5560  138.2260 S   0  0  0  0  0  0  0  0  0  0  0  0
  180.6020  172.9210  137.4600 C   0  0  0  0  0  0  0  0  0  0  0  0
  181.5680  175.7290  136.8160 C   0  0  2  0  0  3  0  0  0  0  0  0
  187.1240  178.5200  138.9390 O   0  0  0  0  0  0  0  0  0  0  0  0
  183.7480  175.9800  137.8860 C   0  0  1  0  0  3  0  0  0  0  0  0
  181.6160  173.1900  136.6900 N   0  0  0  0  0  0  0  0  0  0  0  0
  179.9960  173.9060  138.2960 N   0  0  0  0  0  2  0  0  0  0  0  0
  185.9130  178.2700  138.7070 C   0  0  0  0  0  0  0  0  0  0  0  0
  182.2850  178.1260  137.5130 C   0  0  0  0  0  0  0  0  0  0  0  0
  185.6760  175.2600  136.7810 C   0  0  0  0  0  0  0  0  0  0  0  0
  180.0250  171.5520  137.4360 C   0  0  0  0  0  1  0  0  0  0  0  0
  185.5420  177.7330  137.3590 C   0  0  0  0  0  2  0  0  0  0  0  0
  181.4830  178.8440  136.6150 C   0  0  0  0  0  3  0  0  0  0  0  0
  182.3220  180.0840  138.9660 C   0  0  0  0  0  3  0  0  0  0  0  0
  181.5150  180.7770  138.0630 C   0  0  0  0  0  3  0  0  0  0  0  0
  184.9400  178.5550  139.7210 N   0  0  0  0  0  2  0  0  0  0  0  0
  183.5660  174.4930  137.5310 C   0  0  1  0  0  3  0  0  0  0  0  0
  185.0740  176.3550  137.4410 N   0  0  0  0  0  0  0  0  0  0  0  0
  182.3660  174.4480  136.5930 C   0  0  2  0  0  3  0  0  0  0  0  0
  185.5170  172.9500  137.5970 C   0  0  0  0  0  1  0  0  0  0  0  0
  182.6870  176.7260  137.0840 C   0  0  2  0  0  3  0  0  0  0  0  0
  1 21  1  0  0  0  0
  1  6  1  0  0  0  0
  3 17  2  0  0  0  0
  4 22  1  0  0  0  0
  5 24  1  0  0  0  0
  5 27  1  1  0  0  0
  7  8  2  0  0  0  0
  8 14  1  0  0  0  0
  8  2  2  0  0  0  0
  9 14  1  0  0  0  0
 10 28  1  0  0  0  0
 10  8  1  1  0  0  0
 12 25  1  6  0  0  0
 13  9  2  0  0  0  0
 15 11  2  0  0  0  0
 15 23  1  0  0  0  0
 16  1  2  0  0  0  0
 17  5  1  0  0  0  0
 17 25  1  0  0  0  0
 18  9  1  0  0  0  0
 19 25  1  0  0  0  0
 19 15  1  0  0  0  0
 20  4  2  0  0  0  0
 20 16  1  0  0  0  0
 22 21  2  0  0  0  0
 23  6  1  0  0  0  0
 24 12  1  0  0  0  0
 26 13  1  0  0  0  0
 26 10  1  0  0  0  0
 26 24  1  0  0  0  0
 28 16  1  0  0  0  0
 28 12  1  0  0  0  0
M  END
>  <MODEL>
3

>  <REMARK>
 VINA RESULT:      -5.9      3.676      6.050
  Name = 
  0 active torsions:
  status: ('A' for Active; 'I' for Inactive)
                            x       y       z     vdW  Elec       q    Type
                         _______ _______ _______ _____ _____    ______ ____

>  <TORSDO>
F 0

$$$$
=
 OpenBabel11122411583D

 28 32  0  0  1  0  0  0  0  0999 V2000
  186.6890  175.6870  135.7690 C   0  0  0  0  0  0  0  0  0  0  0  0
  183.4780  175.8170  134.8660 O   0  0  0  0  0  0  0  0  0  0  0  0
  185.2080  179.4830  140.0150 O   0  0  0  0  0  0  0  0  0  0  0  0
  187.2330  173.0870  136.6690 C   0  0  0  0  0  3  0  0  0  0  0  0
  183.2290  178.5760  138.9540 C   0  0  2  0  0  3  0  0  0  0  0  0
  186.4440  177.0540  135.2120 C   0  0  0  0  0  2  0  0  0  0  0  0
  183.1090  173.4650  135.4830 O   0  0  0  0  0  0  0  0  0  0  0  0
  182.8260  174.8930  135.8560 S   0  0  0  0  0  0  0  0  0  0  0  0
  180.4640  175.7380  136.9760 C   0  0  0  0  0  0  0  0  0  0  0  0
  183.4040  175.1930  137.5250 C   0  0  2  0  0  3  0  0  0  0  0  0
  188.3050  179.5530  137.1710 O   0  0  0  0  0  0  0  0  0  0  0  0
  184.5650  177.3270  137.2850 C   0  0  1  0  0  3  0  0  0  0  0  0
  181.1130  176.1820  138.0140 N   0  0  0  0  0  0  0  0  0  0  0  0
  181.1280  175.1660  135.8500 N   0  0  0  0  0  2  0  0  0  0  0  0
  187.5680  178.5500  136.9850 C   0  0  0  0  0  0  0  0  0  0  0  0
  185.8970  175.1180  136.8040 C   0  0  0  0  0  0  0  0  0  0  0  0
  184.6870  178.7940  139.0980 C   0  0  0  0  0  0  0  0  0  0  0  0
  178.9800  175.7850  136.9830 C   0  0  0  0  0  1  0  0  0  0  0  0
  186.8930  177.9340  138.1700 C   0  0  0  0  0  2  0  0  0  0  0  0
  186.1940  173.8200  137.2430 C   0  0  0  0  0  3  0  0  0  0  0  0
  187.7280  174.9390  135.2020 C   0  0  0  0  0  3  0  0  0  0  0  0
  187.9990  173.6450  135.6480 C   0  0  0  0  0  3  0  0  0  0  0  0
  187.4470  178.0160  135.6590 N   0  0  0  0  0  2  0  0  0  0  0  0
  183.1290  177.6230  137.7550 C   0  0  1  0  0  3  0  0  0  0  0  0
  185.4470  178.1160  138.1200 N   0  0  0  0  0  0  0  0  0  0  0  0
  182.5660  176.2770  138.1960 C   0  0  2  0  0  3  0  0  0  0  0  0
  182.5410  179.8840  138.6110 C   0  0  0  0  0  1  0  0  0  0  0  0
  184.7820  175.8390  137.5400 C   0  0  2  0  0  3  0  0  0  0  0  0
  1 16  1  0  0  0  0
  2  8  2  0  0  0  0
  4 20  1  0  0  0  0
  5 27  1  6  0  0  0
  5 17  1  0  0  0  0
  6 23  1  0  0  0  0
  6  1  1  0  0  0  0
  7  8  2  0  0  0  0
  9 18  1  0  0  0  0
  9 13  2  0  0  0  0
 10  8  1  6  0  0  0
 10 28  1  0  0  0  0
 10 26  1  0  0  0  0
 12 28  1  0  0  0  0
 12 24  1  0  0  0  0
 12 25  1  1  0  0  0
 13 26  1  0  0  0  0
 14  8  1  0  0  0  0
 14  9  1  0  0  0  0
 15 11  2  0  0  0  0
 15 19  1  0  0  0  0
 16 20  2  0  0  0  0
 16 28  1  0  0  0  0
 17  3  2  0  0  0  0
 21 22  1  0  0  0  0
 21  1  2  0  0  0  0
 22  4  2  0  0  0  0
 23 15  1  0  0  0  0
 24 26  1  0  0  0  0
 24  5  1  0  0  0  0
 25 19  1  0  0  0  0
 25 17  1  0  0  0  0
M  END
>  <MODEL>
4

>  <REMARK>
 VINA RESULT:      -5.8      3.496      7.070
  Name = 
  0 active torsions:
  status: ('A' for Active; 'I' for Inactive)
                            x       y       z     vdW  Elec       q    Type
                         _______ _______ _______ _____ _____    ______ ____

>  <TORSDO>
F 0

$$$$
=
 OpenBabel11122411583D

 28 32  0  0  1  0  0  0  0  0999 V2000
  181.8330  178.4840  140.4970 C   0  0  0  0  0  0  0  0  0  0  0  0
  181.4090  175.5010  139.0580 O   0  0  0  0  0  0  0  0  0  0  0  0
  186.8920  178.7350  137.5000 O   0  0  0  0  0  0  0  0  0  0  0  0
  179.8300  180.2000  139.5450 C   0  0  0  0  0  3  0  0  0  0  0  0
  185.5260  176.8950  136.7150 C   0  0  2  0  0  3  0  0  0  0  0  0
  182.8570  177.5630  141.0840 C   0  0  0  0  0  2  0  0  0  0  0  0
  179.4680  176.2910  137.7710 O   0  0  0  0  0  0  0  0  0  0  0  0
  180.9080  175.8710  137.6900 S   0  0  0  0  0  0  0  0  0  0  0  0
  181.9820  174.5040  135.5630 C   0  0  0  0  0  0  0  0  0  0  0  0
  181.8710  177.1970  136.9670 C   0  0  2  0  0  3  0  0  0  0  0  0
  186.0290  179.3650  141.5670 O   0  0  0  0  0  0  0  0  0  0  0  0
  183.8060  177.2900  138.4520 C   0  0  1  0  0  3  0  0  0  0  0  0
  182.8340  175.4680  135.3700 N   0  0  0  0  0  0  0  0  0  0  0  0
  181.0560  174.5100  136.6480 N   0  0  0  0  0  2  0  0  0  0  0  0
  184.9910  179.0030  140.9550 C   0  0  0  0  0  0  0  0  0  0  0  0
  181.6680  178.6680  139.0970 C   0  0  0  0  0  0  0  0  0  0  0  0
  185.8700  178.0100  137.6290 C   0  0  0  0  0  0  0  0  0  0  0  0
  181.9390  173.3790  134.5940 C   0  0  0  0  0  1  0  0  0  0  0  0
  184.8480  179.3780  139.5130 C   0  0  0  0  0  2  0  0  0  0  0  0
  180.6660  179.5380  138.6460 C   0  0  0  0  0  3  0  0  0  0  0  0
  180.9860  179.1540  141.3880 C   0  0  0  0  0  3  0  0  0  0  0  0
  179.9890  180.0070  140.9160 C   0  0  0  0  0  3  0  0  0  0  0  0
  183.9750  178.2910  141.6750 N   0  0  0  0  0  2  0  0  0  0  0  0
  184.1760  176.4000  137.2520 C   0  0  1  0  0  3  0  0  0  0  0  0
  184.9100  178.2080  138.6450 N   0  0  0  0  0  0  0  0  0  0  0  0
  183.0790  176.6390  136.2210 C   0  0  2  0  0  3  0  0  0  0  0  0
  186.5530  175.7860  136.8440 C   0  0  0  0  0  1  0  0  0  0  0  0
  182.5510  178.0480  138.0290 C   0  0  2  0  0  3  0  0  0  0  0  0
  1  6  1  0  0  0  0
  1 21  1  0  0  0  0
  3 17  2  0  0  0  0
  4 22  1  0  0  0  0
  5 27  1  1  0  0  0
  5 24  1  0  0  0  0
  5 17  1  0  0  0  0
  6 23  1  0  0  0  0
  8  7  2  0  0  0  0
  8  2  2  0  0  0  0
  9 14  1  0  0  0  0
 10  8  1  1  0  0  0
 10 28  1  0  0  0  0
 12 25  1  6  0  0  0
 13  9  2  0  0  0  0
 13 26  1  0  0  0  0
 14  8  1  0  0  0  0
 15 11  2  0  0  0  0
 15 23  1  0  0  0  0
 16  1  2  0  0  0  0
 17 25  1  0  0  0  0
 18  9  1  0  0  0  0
 19 15  1  0  0  0  0
 20 16  1  0  0  0  0
 20  4  2  0  0  0  0
 22 21  2  0  0  0  0
 24 12  1  0  0  0  0
 25 19  1  0  0  0  0
 26 10  1  0  0  0  0
 26 24  1  0  0  0  0
 28 12  1  0  0  0  0
 28 16  1  0  0  0  0
M  END
>  <MODEL>
5

>  <REMARK>
 VINA RESULT:      -5.5      3.127      4.862
  Name = 
  0 active torsions:
  status: ('A' for Active; 'I' for Inactive)
                            x       y       z     vdW  Elec       q    Type
                         _______ _______ _______ _____ _____    ______ ____

>  <TORSDO>
F 0

$$$$
=
 OpenBabel11122411583D

 28 32  0  0  1  0  0  0  0  0999 V2000
  190.2200  177.3600  144.3980 C   0  0  0  0  0  0  0  0  0  0  0  0
  188.7900  179.1960  142.0040 O   0  0  0  0  0  0  0  0  0  0  0  0
  185.0210  177.6580  147.1390 O   0  0  0  0  0  0  0  0  0  0  0  0
  190.8240  174.8440  143.3170 C   0  0  0  0  0  3  0  0  0  0  0  0
  184.8310  178.4610  144.8620 C   0  0  2  0  0  3  0  0  0  0  0  0
  189.9860  178.7230  144.9700 C   0  0  0  0  0  2  0  0  0  0  0  0
  188.9350  177.3600  140.3750 O   0  0  0  0  0  0  0  0  0  0  0  0
  188.0060  178.1710  141.2340 S   0  0  0  0  0  0  0  0  0  0  0  0
  185.4510  178.8570  140.4950 C   0  0  0  0  0  0  0  0  0  0  0  0
  187.1000  177.0740  142.3230 C   0  0  2  0  0  3  0  0  0  0  0  0
  188.9280  178.4400  148.4830 O   0  0  0  0  0  0  0  0  0  0  0  0
  187.2650  178.2330  144.4640 C   0  0  1  0  0  3  0  0  0  0  0  0
  184.9810  178.2430  141.5410 N   0  0  0  0  0  0  0  0  0  0  0  0
  186.8510  178.9710  140.2420 N   0  0  0  0  0  2  0  0  0  0  0  0
  188.9400  178.1590  147.2570 C   0  0  0  0  0  0  0  0  0  0  0  0
  189.1940  176.5930  143.7800 C   0  0  0  0  0  0  0  0  0  0  0  0
  185.5710  177.9850  146.0540 C   0  0  0  0  0  0  0  0  0  0  0  0
  184.4990  179.4210  139.5040 C   0  0  0  0  0  1  0  0  0  0  0  0
  187.8990  177.2190  146.7320 C   0  0  0  0  0  2  0  0  0  0  0  0
  189.5190  175.3340  143.2550 C   0  0  0  0  0  3  0  0  0  0  0  0
  191.5250  176.8560  144.4510 C   0  0  0  0  0  3  0  0  0  0  0  0
  191.8270  175.6040  143.9140 C   0  0  0  0  0  3  0  0  0  0  0  0
  189.9730  178.7110  146.4290 N   0  0  0  0  0  2  0  0  0  0  0  0
  185.9330  178.6430  143.8090 C   0  0  1  0  0  3  0  0  0  0  0  0
  186.9640  177.8960  145.8410 N   0  0  0  0  0  0  0  0  0  0  0  0
  185.7330  177.6620  142.6600 C   0  0  2  0  0  3  0  0  0  0  0  0
  184.1900  179.8040  145.1520 C   0  0  0  0  0  1  0  0  0  0  0  0
  187.7330  176.9960  143.7040 C   0  0  2  0  0  3  0  0  0  0  0  0
  1 21  1  0  0  0  0
  1  6  1  0  0  0  0
  4 22  1  0  0  0  0
  5 27  1  1  0  0  0
  5 17  1  0  0  0  0
  6 23  1  0  0  0  0
  7  8  2  0  0  0  0
  8  2  2  0  0  0  0
  9 13  2  0  0  0  0
 10  8  1  6  0  0  0
 10 26  1  0  0  0  0
 10 28  1  0  0  0  0
 12 25  1  1  0  0  0
 13 26  1  0  0  0  0
 14  9  1  0  0  0  0
 14  8  1  0  0  0  0
 15 11  2  0  0  0  0
 16  1  2  0  0  0  0
 17  3  2  0  0  0  0
 18  9  1  0  0  0  0
 19 15  1  0  0  0  0
 20  4  2  0  0  0  0
 20 16  1  0  0  0  0
 22 21  2  0  0  0  0
 23 15  1  0  0  0  0
 24 12  1  0  0  0  0
 24  5  1  0  0  0  0
 25 17  1  0  0  0  0
 25 19  1  0  0  0  0
 26 24  1  0  0  0  0
 28 16  1  0  0  0  0
 28 12  1  0  0  0  0
M  END
>  <MODEL>
6

>  <REMARK>
 VINA RESULT:      -5.3      4.339      7.931
  Name = 
  0 active torsions:
  status: ('A' for Active; 'I' for Inactive)
                            x       y       z     vdW  Elec       q    Type
                         _______ _______ _______ _____ _____    ______ ____

>  <TORSDO>
F 0

$$$$
=
 OpenBabel11122411583D

 28 32  0  0  1  0  0  0  0  0999 V2000
  189.9580  176.8220  137.9030 C   0  0  0  0  0  0  0  0  0  0  0  0
  189.1170  173.6070  137.5810 O   0  0  0  0  0  0  0  0  0  0  0  0
  195.4560  175.0550  136.7700 O   0  0  0  0  0  0  0  0  0  0  0  0
  188.7410  178.2500  135.8180 C   0  0  0  0  0  3  0  0  0  0  0  0
  193.8780  173.2750  136.3150 C   0  0  2  0  0  3  0  0  0  0  0  0
  190.5450  176.0950  139.0720 C   0  0  0  0  0  2  0  0  0  0  0  0
  187.7960  174.0560  135.5560 O   0  0  0  0  0  0  0  0  0  0  0  0
  189.0560  173.4360  136.0890 S   0  0  0  0  0  0  0  0  0  0  0  0
  190.1970  171.1630  135.0520 C   0  0  0  0  0  0  0  0  0  0  0  0
  190.4690  174.1810  135.2780 C   0  0  2  0  0  3  0  0  0  0  0  0
  193.8770  177.4530  139.8430 O   0  0  0  0  0  0  0  0  0  0  0  0
  191.9680  174.6080  137.1570 C   0  0  1  0  0  3  0  0  0  0  0  0
  191.2910  171.8230  134.8020 N   0  0  0  0  0  0  0  0  0  0  0  0
  189.0810  171.7580  135.7120 N   0  0  0  0  0  2  0  0  0  0  0  0
  192.9500  177.0220  139.1100 C   0  0  0  0  0  0  0  0  0  0  0  0
  190.1720  176.4230  136.5550 C   0  0  0  0  0  0  0  0  0  0  0  0
  194.2800  174.6080  136.8240 C   0  0  0  0  0  0  0  0  0  0  0  0
  190.0880  169.7540  134.5940 C   0  0  0  0  0  1  0  0  0  0  0  0
  193.2440  176.7730  137.6640 C   0  0  0  0  0  2  0  0  0  0  0  0
  189.5610  177.1580  135.5300 C   0  0  0  0  0  3  0  0  0  0  0  0
  189.1330  177.9190  138.1770 C   0  0  0  0  0  3  0  0  0  0  0  0
  188.5260  178.6300  137.1410 C   0  0  0  0  0  3  0  0  0  0  0  0
  191.6470  176.8330  139.6800 N   0  0  0  0  0  2  0  0  0  0  0  0
  192.3600  173.2530  136.5410 C   0  0  1  0  0  3  0  0  0  0  0  0
  193.1970  175.3510  137.3430 N   0  0  0  0  0  0  0  0  0  0  0  0
  191.6290  173.1930  135.2050 C   0  0  2  0  0  3  0  0  0  0  0  0
  194.5240  172.1870  137.1510 C   0  0  0  0  0  1  0  0  0  0  0  0
  191.0850  175.2910  136.1190 C   0  0  2  0  0  3  0  0  0  0  0  0
  1 21  1  0  0  0  0
  1  6  1  0  0  0  0
  3 17  2  0  0  0  0
  4 22  1  0  0  0  0
  5 24  1  0  0  0  0
  5 17  1  0  0  0  0
  5 27  1  1  0  0  0
  6 23  1  0  0  0  0
  7  8  2  0  0  0  0
  8  2  2  0  0  0  0
  9 14  1  0  0  0  0
 10  8  1  1  0  0  0
 10 28  1  0  0  0  0
 12 25  1  6  0  0  0
 13  9  2  0  0  0  0
 13 26  1  0  0  0  0
 14  8  1  0  0  0  0
 15 23  1  0  0  0  0
 15 11  2  0  0  0  0
 16  1  2  0  0  0  0
 17 25  1  0  0  0  0
 18  9  1  0  0  0  0
 19 15  1  0  0  0  0
 20  4  2  0  0  0  0
 20 16  1  0  0  0  0
 22 21  2  0  0  0  0
 24 12  1  0  0  0  0
 25 19  1  0  0  0  0
 26 10  1  0  0  0  0
 26 24  1  0  0  0  0
 28 16  1  0  0  0  0
 28 12  1  0  0  0  0
M  END
>  <MODEL>
7

>  <REMARK>
 VINA RESULT:      -5.0      7.851     10.646
  Name = 
  0 active torsions:
  status: ('A' for Active; 'I' for Inactive)
                            x       y       z     vdW  Elec       q    Type
                         _______ _______ _______ _____ _____    ______ ____

>  <TORSDO>
F 0

$$$$
=
 OpenBabel11122411583D

 28 32  0  0  1  0  0  0  0  0999 V2000
  182.2410  177.2510  138.2320 C   0  0  0  0  0  0  0  0  0  0  0  0
  183.3390  174.1500  137.6620 O   0  0  0  0  0  0  0  0  0  0  0  0
  187.8530  178.8990  137.5910 O   0  0  0  0  0  0  0  0  0  0  0  0
  180.5620  177.9810  136.1070 C   0  0  0  0  0  3  0  0  0  0  0  0
  187.5540  176.6030  136.8850 C   0  0  2  0  0  3  0  0  0  0  0  0
  183.0620  176.8500  139.4180 C   0  0  0  0  0  2  0  0  0  0  0  0
  182.1130  174.0030  135.5360 O   0  0  0  0  0  0  0  0  0  0  0  0
  183.4720  174.1240  136.1660 S   0  0  0  0  0  0  0  0  0  0  0  0
  185.7380  172.9600  135.1390 C   0  0  0  0  0  0  0  0  0  0  0  0
  184.2810  175.5960  135.5450 C   0  0  2  0  0  3  0  0  0  0  0  0
  185.0330  179.7240  140.6000 O   0  0  0  0  0  0  0  0  0  0  0  0
  185.1800  176.5820  137.5890 C   0  0  1  0  0  3  0  0  0  0  0  0
  186.2970  174.1310  135.0390 N   0  0  0  0  0  0  0  0  0  0  0  0
  184.4430  172.7800  135.7080 N   0  0  0  0  0  2  0  0  0  0  0  0
  184.5450  178.9310  139.7540 C   0  0  0  0  0  0  0  0  0  0  0  0
  182.7190  177.1700  136.8960 C   0  0  0  0  0  0  0  0  0  0  0  0
  187.1200  177.8790  137.4990 C   0  0  0  0  0  0  0  0  0  0  0  0
  186.4540  171.7750  134.6010 C   0  0  0  0  0  1  0  0  0  0  0  0
  185.0120  179.0290  138.3350 C   0  0  0  0  0  2  0  0  0  0  0  0
  181.8640  177.5500  135.8510 C   0  0  0  0  0  3  0  0  0  0  0  0
  180.9320  177.6840  138.4740 C   0  0  0  0  0  3  0  0  0  0  0  0
  180.0950  178.0470  137.4180 C   0  0  0  0  0  3  0  0  0  0  0  0
  183.5330  178.0060  140.1740 N   0  0  0  0  0  2  0  0  0  0  0  0
  186.2920  175.7310  136.9490 C   0  0  1  0  0  3  0  0  0  0  0  0
  185.7790  177.8540  137.9390 N   0  0  0  0  0  0  0  0  0  0  0  0
  185.7960  175.4150  135.5430 C   0  0  2  0  0  3  0  0  0  0  0  0
  188.6440  175.9670  137.7270 C   0  0  0  0  0  1  0  0  0  0  0  0
  184.1290  176.7720  136.5000 C   0  0  2  0  0  3  0  0  0  0  0  0
  1 21  1  0  0  0  0
  1  6  1  0  0  0  0
  4 22  1  0  0  0  0
  5 24  1  0  0  0  0
  5 17  1  0  0  0  0
  5 27  1  1  0  0  0
  6 23  1  0  0  0  0
  7  8  2  0  0  0  0
  8  2  2  0  0  0  0
  9 14  1  0  0  0  0
 10  8  1  1  0  0  0
 10 28  1  0  0  0  0
 12 25  1  6  0  0  0
 13  9  2  0  0  0  0
 13 26  1  0  0  0  0
 14  8  1  0  0  0  0
 15 23  1  0  0  0  0
 15 11  2  0  0  0  0
 16  1  2  0  0  0  0
 17  3  2  0  0  0  0
 17 25  1  0  0  0  0
 18  9  1  0  0  0  0
 19 15  1  0  0  0  0
 20  4  2  0  0  0  0
 20 16  1  0  0  0  0
 22 21  2  0  0  0  0
 24 12  1  0  0  0  0
 25 19  1  0  0  0  0
 26 10  1  0  0  0  0
 26 24  1  0  0  0  0
 28 16  1  0  0  0  0
 28 12  1  0  0  0  0
M  END
>  <MODEL>
8

>  <REMARK>
 VINA RESULT:      -5.0      3.525      5.198
  Name = 
  0 active torsions:
  status: ('A' for Active; 'I' for Inactive)
                            x       y       z     vdW  Elec       q    Type
                         _______ _______ _______ _____ _____    ______ ____

>  <TORSDO>
F 0

$$$$
=
 OpenBabel11122411583D

 28 32  0  0  1  0  0  0  0  0999 V2000
  183.6390  175.9010  136.6100 C   0  0  0  0  0  0  0  0  0  0  0  0
  183.5310  177.3240  139.6280 O   0  0  0  0  0  0  0  0  0  0  0  0
  178.9340  172.8300  138.3590 O   0  0  0  0  0  0  0  0  0  0  0  0
  183.0940  177.8790  134.6980 C   0  0  0  0  0  3  0  0  0  0  0  0
  179.4050  174.6270  139.9130 C   0  0  2  0  0  3  0  0  0  0  0  0
  184.0180  174.8500  137.6050 C   0  0  0  0  0  2  0  0  0  0  0  0
  182.9690  179.5210  138.6780 O   0  0  0  0  0  0  0  0  0  0  0  0
  182.4470  178.3510  139.4620 S   0  0  0  0  0  0  0  0  0  0  0  0
  180.6250  178.5750  141.5060 C   0  0  0  0  0  0  0  0  0  0  0  0
  181.0130  177.6740  138.6290 C   0  0  2  0  0  3  0  0  0  0  0  0
  182.5650  171.6150  136.6210 O   0  0  0  0  0  0  0  0  0  0  0  0
  181.4660  175.2770  138.7040 C   0  0  1  0  0  3  0  0  0  0  0  0
  179.8050  177.7940  140.8640 N   0  0  0  0  0  0  0  0  0  0  0  0
  181.9290  178.8810  141.0150 N   0  0  0  0  0  2  0  0  0  0  0  0
  182.5800  172.8550  136.8330 C   0  0  0  0  0  0  0  0  0  0  0  0
  182.4500  176.6730  136.7120 C   0  0  0  0  0  0  0  0  0  0  0  0
  179.6920  173.7590  138.7470 C   0  0  0  0  0  0  0  0  0  0  0  0
  180.1720  179.2070  142.7720 C   0  0  0  0  0  1  0  0  0  0  0  0
  181.2840  173.6030  136.7710 C   0  0  0  0  0  2  0  0  0  0  0  0
  182.1950  177.6490  135.7390 C   0  0  0  0  0  3  0  0  0  0  0  0
  184.5330  176.1430  135.5600 C   0  0  0  0  0  3  0  0  0  0  0  0
  184.2640  177.1270  134.6080 C   0  0  0  0  0  3  0  0  0  0  0  0
  183.8370  173.5020  137.0760 N   0  0  0  0  0  2  0  0  0  0  0  0
  180.5720  175.6240  139.9080 C   0  0  1  0  0  3  0  0  0  0  0  0
  180.8890  174.1020  138.0830 N   0  0  0  0  0  0  0  0  0  0  0  0
  180.0610  177.0340  139.6350 C   0  0  2  0  0  3  0  0  0  0  0  0
  179.4500  173.8100  141.1900 C   0  0  0  0  0  1  0  0  0  0  0  0
  181.3740  176.4750  137.7640 C   0  0  2  0  0  3  0  0  0  0  0  0
  1 16  1  0  0  0  0
  1  6  1  0  0  0  0
  3 17  2  0  0  0  0
  4 20  1  0  0  0  0
  5 27  1  1  0  0  0
  7  8  2  0  0  0  0
  8  2  2  0  0  0  0
  8 14  1  0  0  0  0
  9 18  1  0  0  0  0
 10  8  1  1  0  0  0
 10 26  1  0  0  0  0
 11 15  2  0  0  0  0
 12 25  1  6  0  0  0
 12 24  1  0  0  0  0
 13  9  2  0  0  0  0
 14  9  1  0  0  0  0
 15 23  1  0  0  0  0
 16 28  1  0  0  0  0
 17  5  1  0  0  0  0
 19 15  1  0  0  0  0
 19 25  1  0  0  0  0
 20 16  2  0  0  0  0
 21  1  2  0  0  0  0
 22  4  2  0  0  0  0
 22 21  1  0  0  0  0
 23  6  1  0  0  0  0
 24  5  1  0  0  0  0
 25 17  1  0  0  0  0
 26 24  1  0  0  0  0
 26 13  1  0  0  0  0
 28 10  1  0  0  0  0
 28 12  1  0  0  0  0
M  END
>  <MODEL>
9

>  <REMARK>
 VINA RESULT:      -4.9      3.647      6.351
  Name = 
  0 active torsions:
  status: ('A' for Active; 'I' for Inactive)
                            x       y       z     vdW  Elec       q    Type
                         _______ _______ _______ _____ _____    ______ ____

>  <TORSDO>
F 0

$$$$
