=
 OpenBabel11122410403D

 32 37  0  0  1  0  0  0  0  0999 V2000
  187.5780  176.7980  143.8610 C   0  0  0  0  0  2  0  0  0  0  0  0
  190.6340  177.4010  139.2420 C   0  0  1  0  0  3  0  0  0  0  0  0
  186.3000  175.9080  137.1280 C   0  0  0  0  0  2  0  0  0  0  0  0
  187.0780  175.0490  136.1360 C   0  0  0  0  0  2  0  0  0  0  0  0
  192.8180  176.2040  138.7110 C   0  0  1  0  0  3  0  0  0  0  0  0
  193.4450  175.2260  137.7620 C   0  0  0  0  0  0  0  0  0  0  0  0
  189.8000  177.5320  141.5450 N   0  0  1  0  0  0  0  0  0  0  0  0
  188.5100  178.6290  139.7620 C   0  0  0  0  0  2  0  0  0  0  0  0
  193.6170  173.5920  136.2210 C   0  0  0  0  0  0  0  0  0  0  0  0
  187.6190  178.5940  142.0870 C   0  0  0  0  0  2  0  0  0  0  0  0
  187.1370  177.1090  137.5530 C   0  0  0  0  0  2  0  0  0  0  0  0
  189.2700  177.8410  138.6850 C   0  0  2  0  0  3  0  0  0  0  0  0
  188.4490  176.6400  138.1880 C   0  0  2  0  0  3  0  0  0  0  0  0
  190.5860  175.3430  137.7440 C   0  0  1  0  0  3  0  0  0  0  0  0
  194.7590  174.4260  136.1690 N   0  0  0  0  0  2  0  0  0  0  0  0
  188.6490  175.9670  143.1670 C   0  0  0  0  0  2  0  0  0  0  0  0
  188.4380  177.8250  141.0600 C   0  0  2  0  0  3  0  0  0  0  0  0
  194.5610  175.4200  137.1310 N   0  0  0  0  0  0  0  0  0  0  0  0
  189.8560  176.8520  142.8510 C   0  0  0  0  0  2  0  0  0  0  0  0
  186.7530  177.6160  142.8680 C   0  0  2  0  0  3  0  0  0  0  0  0
  188.3910  174.5870  136.7600 C   0  0  0  0  0  2  0  0  0  0  0  0
  189.2370  175.7960  137.1710 C   0  0  1  0  0  3  0  0  0  0  0  0
  191.3670  174.5440  136.6880 C   0  0  0  0  0  2  0  0  0  0  0  0
  190.4620  176.6600  140.5760 C   0  0  0  0  0  2  0  0  0  0  0  0
  193.6720  177.4540  138.8860 C   0  0  0  0  0  1  0  0  0  0  0  0
  193.4520  172.5920  135.4760 O   0  0  0  0  0  0  0  0  0  0  0  0
  191.4080  176.5740  138.2060 C   0  0  1  0  0  3  0  0  0  0  0  0
  192.6770  174.0390  137.2790 C   0  0  2  0  0  3  0  0  0  0  0  0
  185.7210  178.3560  143.5790 N   0  0  0  0  0  2  0  0  0  0  0  0
  184.3900  178.4960  143.0790 C   0  0  0  0  0  0  0  0  0  0  0  0
  184.0630  177.9950  141.9710 O   0  0  0  0  0  0  0  0  0  0  0  0
  183.3820  179.2470  143.8730 C   0  0  0  0  0  1  0  0  0  0  0  0
  2 24  1  1  0  0  0
  3 11  1  0  0  0  0
  4 21  1  0  0  0  0
  4  3  1  0  0  0  0
  5 25  1  6  0  0  0
  6  5  1  0  0  0  0
  7 24  1  6  0  0  0
  7 19  1  0  0  0  0
  9 28  1  0  0  0  0
 10 20  1  0  0  0  0
 12  2  1  0  0  0  0
 12  8  1  1  0  0  0
 13 11  1  6  0  0  0
 13 12  1  0  0  0  0
 14 23  1  6  0  0  0
 14 27  1  0  0  0  0
 15  9  1  0  0  0  0
 15 18  1  0  0  0  0
 16  1  1  0  0  0  0
 17  8  1  6  0  0  0
 17  7  1  0  0  0  0
 17 10  1  0  0  0  0
 18  6  2  0  0  0  0
 19 16  1  0  0  0  0
 20 29  1  1  0  0  0
 20  1  1  0  0  0  0
 22 21  1  1  0  0  0
 22 14  1  0  0  0  0
 22 13  1  0  0  0  0
 23 28  1  0  0  0  0
 26  9  2  0  0  0  0
 27  5  1  0  0  0  0
 27  2  1  0  0  0  0
 28  6  1  0  0  0  0
 30 29  1  0  0  0  0
 30 32  1  0  0  0  0
 31 30  2  0  0  0  0
M  END
>  <MODEL>
1

>  <REMARK>
 VINA RESULT:      -8.4      0.000      0.000
  Name = 
  1 active torsions:
  status: ('A' for Active; 'I' for Inactive)
    1  A    between atoms: C_20  and  N_29
                            x       y       z     vdW  Elec       q    Type
                         _______ _______ _______ _____ _____    ______ ____

>  <TORSDO>
F 1

$$$$
=
 OpenBabel11122410403D

 32 37  0  0  1  0  0  0  0  0999 V2000
  188.6720  177.1190  143.1630 C   0  0  0  0  0  2  0  0  0  0  0  0
  190.6830  176.7400  137.9820 C   0  0  1  0  0  3  0  0  0  0  0  0
  186.0560  174.8940  137.1660 C   0  0  0  0  0  2  0  0  0  0  0  0
  186.6390  173.8440  136.2260 C   0  0  0  0  0  2  0  0  0  0  0  0
  192.7470  175.4370  137.2560 C   0  0  1  0  0  3  0  0  0  0  0  0
  193.1950  174.2800  136.4120 C   0  0  0  0  0  0  0  0  0  0  0  0
  190.3410  177.3450  140.3330 N   0  0  1  0  0  0  0  0  0  0  0  0
  188.6740  178.0700  138.6780 C   0  0  0  0  0  2  0  0  0  0  0  0
  193.0970  172.3660  135.2290 C   0  0  0  0  0  0  0  0  0  0  0  0
  188.2860  178.5170  141.0960 C   0  0  0  0  0  2  0  0  0  0  0  0
  186.9230  176.1480  137.1560 C   0  0  0  0  0  2  0  0  0  0  0  0
  189.2190  177.0720  137.6460 C   0  0  2  0  0  3  0  0  0  0  0  0
  188.3530  175.8040  137.5830 C   0  0  2  0  0  3  0  0  0  0  0  0
  190.3930  174.4220  136.9700 C   0  0  1  0  0  3  0  0  0  0  0  0
  194.1760  173.1610  134.7720 N   0  0  0  0  0  2  0  0  0  0  0  0
  189.6030  176.1530  142.4410 C   0  0  0  0  0  2  0  0  0  0  0  0
  188.8990  177.5470  140.0960 C   0  0  2  0  0  3  0  0  0  0  0  0
  194.1500  174.3310  135.5350 N   0  0  0  0  0  0  0  0  0  0  0  0
  190.6890  176.9430  141.7080 C   0  0  0  0  0  2  0  0  0  0  0  0
  187.6330  177.7270  142.2210 C   0  0  2  0  0  3  0  0  0  0  0  0
  188.0670  173.5040  136.6400 C   0  0  0  0  0  2  0  0  0  0  0  0
  188.9400  174.7630  136.6140 C   0  0  1  0  0  3  0  0  0  0  0  0
  190.9630  173.4160  135.9570 C   0  0  0  0  0  2  0  0  0  0  0  0
  190.8150  176.2870  139.4420 C   0  0  0  0  0  2  0  0  0  0  0  0
  193.5780  176.6880  136.9930 C   0  0  0  0  0  1  0  0  0  0  0  0
  192.8140  171.2370  134.7510 O   0  0  0  0  0  0  0  0  0  0  0  0
  191.2520  175.7110  136.9930 C   0  0  1  0  0  3  0  0  0  0  0  0
  192.3830  173.0280  136.3490 C   0  0  2  0  0  3  0  0  0  0  0  0
  186.7480  178.6070  142.9700 N   0  0  0  0  0  2  0  0  0  0  0  0
  185.3330  178.6340  142.7640 C   0  0  0  0  0  0  0  0  0  0  0  0
  184.7970  177.8990  141.8930 O   0  0  0  0  0  0  0  0  0  0  0  0
  184.4890  179.5420  143.5830 C   0  0  0  0  0  1  0  0  0  0  0  0
  2 24  1  1  0  0  0
  4 21  1  0  0  0  0
  4  3  1  0  0  0  0
  5 25  1  6  0  0  0
  6  5  1  0  0  0  0
  7 24  1  6  0  0  0
  7 19  1  0  0  0  0
  9 28  1  0  0  0  0
 10 20  1  0  0  0  0
 11  3  1  0  0  0  0
 12  2  1  0  0  0  0
 12  8  1  1  0  0  0
 13 11  1  6  0  0  0
 13 12  1  0  0  0  0
 14 23  1  6  0  0  0
 14 27  1  0  0  0  0
 15  9  1  0  0  0  0
 15 18  1  0  0  0  0
 16  1  1  0  0  0  0
 17  8  1  6  0  0  0
 17  7  1  0  0  0  0
 17 10  1  0  0  0  0
 18  6  2  0  0  0  0
 19 16  1  0  0  0  0
 20 29  1  1  0  0  0
 20  1  1  0  0  0  0
 22 21  1  1  0  0  0
 22 14  1  0  0  0  0
 22 13  1  0  0  0  0
 23 28  1  0  0  0  0
 26  9  2  0  0  0  0
 27  5  1  0  0  0  0
 27  2  1  0  0  0  0
 28  6  1  0  0  0  0
 30 29  1  0  0  0  0
 30 32  1  0  0  0  0
 31 30  2  0  0  0  0
M  END
>  <MODEL>
2

>  <REMARK>
 VINA RESULT:      -7.4      1.151      1.375
  Name = 
  1 active torsions:
  status: ('A' for Active; 'I' for Inactive)
    1  A    between atoms: C_20  and  N_29
                            x       y       z     vdW  Elec       q    Type
                         _______ _______ _______ _____ _____    ______ ____

>  <TORSDO>
F 1

$$$$
=
 OpenBabel11122410403D

 32 37  0  0  1  0  0  0  0  0999 V2000
  186.3970  174.2370  136.4500 C   0  0  0  0  0  2  0  0  0  0  0  0
  184.2380  178.8370  138.7330 C   0  0  1  0  0  3  0  0  0  0  0  0
  187.6520  177.7270  142.2820 C   0  0  0  0  0  2  0  0  0  0  0  0
  186.6550  178.1210  143.3660 C   0  0  0  0  0  2  0  0  0  0  0  0
  181.7960  179.2110  139.3510 C   0  0  1  0  0  3  0  0  0  0  0  0
  180.8810  179.4450  140.5160 C   0  0  0  0  0  0  0  0  0  0  0  0
  184.8790  177.0720  137.1550 N   0  0  1  0  0  0  0  0  0  0  0  0
  186.6400  178.5120  138.0880 C   0  0  0  0  0  2  0  0  0  0  0  0
  180.1360  179.4880  142.6420 C   0  0  0  0  0  0  0  0  0  0  0  0
  187.2600  176.6050  136.6130 C   0  0  0  0  0  2  0  0  0  0  0  0
  187.3830  178.5200  141.0080 C   0  0  0  0  0  2  0  0  0  0  0  0
  185.6960  179.0030  139.1950 C   0  0  2  0  0  3  0  0  0  0  0  0
  185.9550  178.2640  140.5180 C   0  0  2  0  0  3  0  0  0  0  0  0
  183.5060  178.4990  141.1470 C   0  0  1  0  0  3  0  0  0  0  0  0
  179.4690  180.4750  141.8770 N   0  0  0  0  0  2  0  0  0  0  0  0
  185.1260  174.5540  137.2270 C   0  0  0  0  0  2  0  0  0  0  0  0
  186.2660  177.0940  137.6570 C   0  0  2  0  0  3  0  0  0  0  0  0
  180.0040  180.3980  140.5880 N   0  0  0  0  0  0  0  0  0  0  0  0
  184.4420  175.7750  136.6090 C   0  0  0  0  0  2  0  0  0  0  0  0
  187.5630  175.1340  136.8650 C   0  0  2  0  0  3  0  0  0  0  0  0
  185.2280  177.8780  142.8810 C   0  0  0  0  0  2  0  0  0  0  0  0
  184.9560  178.6880  141.6100 C   0  0  1  0  0  3  0  0  0  0  0  0
  182.5360  178.9750  142.2410 C   0  0  0  0  0  2  0  0  0  0  0  0
  183.9790  177.4000  138.2590 C   0  0  0  0  0  2  0  0  0  0  0  0
  181.5510  180.2100  138.2260 C   0  0  0  0  0  1  0  0  0  0  0  0
  179.9090  179.2830  143.8620 O   0  0  0  0  0  0  0  0  0  0  0  0
  183.2610  179.2800  139.8310 C   0  0  1  0  0  3  0  0  0  0  0  0
  181.0970  178.7250  141.8070 C   0  0  2  0  0  3  0  0  0  0  0  0
  188.7580  174.7610  136.1230 N   0  0  0  0  0  2  0  0  0  0  0  0
  190.0420  174.6370  136.7410 C   0  0  0  0  0  0  0  0  0  0  0  0
  190.1900  174.8770  137.9680 O   0  0  0  0  0  0  0  0  0  0  0  0
  191.2130  174.2290  135.9240 C   0  0  0  0  0  1  0  0  0  0  0  0
  1 20  1  0  0  0  0
  1 16  1  0  0  0  0
  2 24  1  1  0  0  0
  2 12  1  0  0  0  0
  2 27  1  0  0  0  0
  3  4  1  0  0  0  0
  5 25  1  6  0  0  0
  5 27  1  0  0  0  0
  5  6  1  0  0  0  0
  6 18  2  0  0  0  0
  6 28  1  0  0  0  0
  7 19  1  1  0  0  0
  7 17  1  0  0  0  0
  7 24  1  0  0  0  0
  9 26  2  0  0  0  0
 10 20  1  0  0  0  0
 11  3  1  0  0  0  0
 12  8  1  6  0  0  0
 12 13  1  0  0  0  0
 13 11  1  1  0  0  0
 13 22  1  0  0  0  0
 14 22  1  0  0  0  0
 14 23  1  1  0  0  0
 15  9  1  0  0  0  0
 17 10  1  6  0  0  0
 17  8  1  0  0  0  0
 18 15  1  0  0  0  0
 19 16  1  0  0  0  0
 20 29  1  6  0  0  0
 21  4  1  0  0  0  0
 22 21  1  1  0  0  0
 27 14  1  0  0  0  0
 28 23  1  0  0  0  0
 28  9  1  0  0  0  0
 29 30  1  0  0  0  0
 30 31  2  0  0  0  0
 32 30  1  0  0  0  0
M  END
>  <MODEL>
3

>  <REMARK>
 VINA RESULT:      -6.9      3.484      9.788
  Name = 
  1 active torsions:
  status: ('A' for Active; 'I' for Inactive)
    1  A    between atoms: C_20  and  N_29
                            x       y       z     vdW  Elec       q    Type
                         _______ _______ _______ _____ _____    ______ ____

>  <TORSDO>
F 1

$$$$
=
 OpenBabel11122410403D

 32 37  0  0  1  0  0  0  0  0999 V2000
  182.0860  176.1550  138.4250 C   0  0  0  0  0  2  0  0  0  0  0  0
  184.9800  179.0290  142.2190 C   0  0  1  0  0  3  0  0  0  0  0  0
  188.8060  177.5120  139.2960 C   0  0  0  0  0  2  0  0  0  0  0  0
  189.6560  177.2580  140.5370 C   0  0  0  0  0  2  0  0  0  0  0  0
  185.0150  178.6030  144.7290 C   0  0  1  0  0  3  0  0  0  0  0  0
  185.9130  178.1940  145.8600 C   0  0  0  0  0  0  0  0  0  0  0  0
  183.1760  178.1360  140.8180 N   0  0  1  0  0  0  0  0  0  0  0  0
  184.9250  179.5000  139.7570 C   0  0  0  0  0  2  0  0  0  0  0  0
  187.6800  177.3060  146.9390 C   0  0  0  0  0  0  0  0  0  0  0  0
  183.1670  178.4360  138.3500 C   0  0  0  0  0  2  0  0  0  0  0  0
  187.8020  178.6270  139.5660 C   0  0  0  0  0  2  0  0  0  0  0  0
  185.8370  179.3380  140.9800 C   0  0  2  0  0  3  0  0  0  0  0  0
  186.9000  178.2520  140.7450 C   0  0  2  0  0  3  0  0  0  0  0  0
  186.9020  177.6950  143.2220 C   0  0  1  0  0  3  0  0  0  0  0  0
  187.0960  178.3270  147.7270 N   0  0  0  0  0  2  0  0  0  0  0  0
  182.5580  175.8820  139.8470 C   0  0  0  0  0  2  0  0  0  0  0  0
  184.0090  178.2850  139.6090 C   0  0  2  0  0  3  0  0  0  0  0  0
  186.0320  178.8380  146.9800 N   0  0  0  0  0  0  0  0  0  0  0  0
  182.1740  177.0580  140.7470 C   0  0  0  0  0  2  0  0  0  0  0  0
  183.0410  177.0800  137.6700 C   0  0  2  0  0  3  0  0  0  0  0  0
  188.7620  176.8940  141.7200 C   0  0  0  0  0  2  0  0  0  0  0  0
  187.7650  178.0240  141.9980 C   0  0  1  0  0  3  0  0  0  0  0  0
  187.7920  177.5190  144.4640 C   0  0  0  0  0  2  0  0  0  0  0  0
  184.0500  177.8370  141.9510 C   0  0  0  0  0  2  0  0  0  0  0  0
  184.2160  179.8570  145.0640 C   0  0  0  0  0  1  0  0  0  0  0  0
  188.6790  176.6330  147.3020 O   0  0  0  0  0  0  0  0  0  0  0  0
  185.8620  178.8190  143.4580 C   0  0  1  0  0  3  0  0  0  0  0  0
  186.9400  177.1270  145.6650 C   0  0  2  0  0  3  0  0  0  0  0  0
  182.5640  177.2730  136.3090 N   0  0  0  0  0  2  0  0  0  0  0  0
  181.3300  177.9300  136.0110 C   0  0  0  0  0  0  0  0  0  0  0  0
  180.5860  178.3520  136.9360 O   0  0  0  0  0  0  0  0  0  0  0  0
  180.9180  178.1120  134.5950 C   0  0  0  0  0  1  0  0  0  0  0  0
  1 16  1  0  0  0  0
  2 24  1  6  0  0  0
  2 27  1  0  0  0  0
  3 11  1  0  0  0  0
  3  4  1  0  0  0  0
  4 21  1  0  0  0  0
  5 25  1  1  0  0  0
  5  6  1  0  0  0  0
  6 18  2  0  0  0  0
  7 19  1  6  0  0  0
  7 24  1  0  0  0  0
  9 26  2  0  0  0  0
  9 15  1  0  0  0  0
 12  8  1  6  0  0  0
 12  2  1  0  0  0  0
 13 11  1  6  0  0  0
 13 12  1  0  0  0  0
 13 22  1  0  0  0  0
 14 27  1  0  0  0  0
 14 23  1  1  0  0  0
 16 19  1  0  0  0  0
 17 10  1  6  0  0  0
 17  8  1  0  0  0  0
 17  7  1  0  0  0  0
 18 15  1  0  0  0  0
 20 29  1  6  0  0  0
 20 10  1  0  0  0  0
 20  1  1  0  0  0  0
 22 21  1  6  0  0  0
 22 14  1  0  0  0  0
 23 28  1  0  0  0  0
 27  5  1  0  0  0  0
 28  6  1  0  0  0  0
 28  9  1  0  0  0  0
 30 29  1  0  0  0  0
 30 31  2  0  0  0  0
 32 30  1  0  0  0  0
M  END
>  <MODEL>
4

>  <REMARK>
 VINA RESULT:      -6.9      5.111      8.326
  Name = 
  1 active torsions:
  status: ('A' for Active; 'I' for Inactive)
    1  A    between atoms: C_20  and  N_29
                            x       y       z     vdW  Elec       q    Type
                         _______ _______ _______ _____ _____    ______ ____

>  <TORSDO>
F 1

$$$$
=
 OpenBabel11122410403D

 32 37  0  0  1  0  0  0  0  0999 V2000
  183.7480  178.6540  142.6860 C   0  0  0  0  0  2  0  0  0  0  0  0
  186.2850  178.0050  137.7700 C   0  0  1  0  0  3  0  0  0  0  0  0
  182.8780  174.2990  137.3920 C   0  0  0  0  0  2  0  0  0  0  0  0
  183.9260  173.4010  136.7410 C   0  0  0  0  0  2  0  0  0  0  0  0
  188.7600  177.5360  137.3990 C   0  0  1  0  0  3  0  0  0  0  0  0
  189.7160  176.5100  136.8660 C   0  0  0  0  0  0  0  0  0  0  0  0
  185.4830  178.9160  139.9000 N   0  0  1  0  0  0  0  0  0  0  0  0
  183.8530  178.5140  138.1050 C   0  0  0  0  0  2  0  0  0  0  0  0
  190.5090  174.5150  136.1850 C   0  0  0  0  0  0  0  0  0  0  0  0
  183.0630  179.2820  140.3380 C   0  0  0  0  0  2  0  0  0  0  0  0
  183.1760  175.7620  137.0830 C   0  0  0  0  0  2  0  0  0  0  0  0
  184.8540  177.6270  137.3510 C   0  0  2  0  0  3  0  0  0  0  0  0
  184.5710  176.1350  137.5930 C   0  0  2  0  0  3  0  0  0  0  0  0
  187.0430  175.6110  137.3510 C   0  0  1  0  0  3  0  0  0  0  0  0
  191.2280  175.5600  135.5570 N   0  0  0  0  0  2  0  0  0  0  0  0
  185.0560  178.0210  142.2290 C   0  0  0  0  0  2  0  0  0  0  0  0
  184.1120  178.4530  139.6100 C   0  0  2  0  0  3  0  0  0  0  0  0
  190.6610  176.7530  136.0110 N   0  0  0  0  0  0  0  0  0  0  0  0
  185.8120  179.0040  141.3340 C   0  0  0  0  0  2  0  0  0  0  0  0
  182.6600  178.5610  141.6170 C   0  0  2  0  0  3  0  0  0  0  0  0
  185.3190  173.7750  137.2370 C   0  0  0  0  0  2  0  0  0  0  0  0
  185.6210  175.2410  136.9110 C   0  0  1  0  0  3  0  0  0  0  0  0
  188.0690  174.7320  136.6180 C   0  0  0  0  0  2  0  0  0  0  0  0
  186.4290  177.9780  139.2980 C   0  0  0  0  0  2  0  0  0  0  0  0
  189.0520  178.9260  136.8470 C   0  0  0  0  0  1  0  0  0  0  0  0
  190.7470  173.2940  135.9940 O   0  0  0  0  0  0  0  0  0  0  0  0
  187.3160  177.1100  137.0660 C   0  0  1  0  0  3  0  0  0  0  0  0
  189.4760  175.0550  137.1040 C   0  0  2  0  0  3  0  0  0  0  0  0
  181.4250  179.1420  142.1210 N   0  0  0  0  0  2  0  0  0  0  0  0
  180.1470  178.5340  141.9190 C   0  0  0  0  0  0  0  0  0  0  0  0
  180.0420  177.4640  141.2620 O   0  0  0  0  0  0  0  0  0  0  0  0
  178.9310  179.1730  142.4840 C   0  0  0  0  0  1  0  0  0  0  0  0
  2 24  1  1  0  0  0
  4 21  1  0  0  0  0
  4  3  1  0  0  0  0
  5 25  1  6  0  0  0
  6 28  1  0  0  0  0
  6  5  1  0  0  0  0
  7 24  1  6  0  0  0
  7 19  1  0  0  0  0
  9 28  1  0  0  0  0
 10 20  1  0  0  0  0
 11  3  1  0  0  0  0
 12 13  1  0  0  0  0
 12  2  1  0  0  0  0
 12  8  1  1  0  0  0
 13 11  1  6  0  0  0
 14 23  1  6  0  0  0
 15 18  1  0  0  0  0
 15  9  1  0  0  0  0
 16  1  1  0  0  0  0
 17  8  1  6  0  0  0
 17  7  1  0  0  0  0
 17 10  1  0  0  0  0
 18  6  2  0  0  0  0
 19 16  1  0  0  0  0
 20 29  1  1  0  0  0
 20  1  1  0  0  0  0
 22 21  1  1  0  0  0
 22 14  1  0  0  0  0
 22 13  1  0  0  0  0
 23 28  1  0  0  0  0
 26  9  2  0  0  0  0
 27 14  1  0  0  0  0
 27  5  1  0  0  0  0
 27  2  1  0  0  0  0
 30 29  1  0  0  0  0
 30 32  1  0  0  0  0
 31 30  2  0  0  0  0
M  END
>  <MODEL>
5

>  <REMARK>
 VINA RESULT:      -6.8      2.853      4.212
  Name = 
  1 active torsions:
  status: ('A' for Active; 'I' for Inactive)
    1  A    between atoms: C_20  and  N_29
                            x       y       z     vdW  Elec       q    Type
                         _______ _______ _______ _____ _____    ______ ____

>  <TORSDO>
F 1

$$$$
=
 OpenBabel11122410403D

 32 37  0  0  1  0  0  0  0  0999 V2000
  186.6800  172.9340  136.7840 C   0  0  0  0  0  2  0  0  0  0  0  0
  184.4070  177.9160  137.8080 C   0  0  1  0  0  3  0  0  0  0  0  0
  188.1800  178.0690  141.1580 C   0  0  0  0  0  2  0  0  0  0  0  0
  187.2530  178.7310  142.1740 C   0  0  0  0  0  2  0  0  0  0  0  0
  182.0070  178.3580  138.5340 C   0  0  1  0  0  3  0  0  0  0  0  0
  181.1790  178.8950  139.6650 C   0  0  0  0  0  0  0  0  0  0  0  0
  185.0330  175.7850  136.7680 N   0  0  1  0  0  0  0  0  0  0  0  0
  186.7620  177.5110  137.0470 C   0  0  0  0  0  2  0  0  0  0  0  0
  180.6170  179.5470  141.7460 C   0  0  0  0  0  0  0  0  0  0  0  0
  187.3860  175.2740  136.1490 C   0  0  0  0  0  2  0  0  0  0  0  0
  187.7480  178.4300  139.7410 C   0  0  0  0  0  2  0  0  0  0  0  0
  185.8830  178.2730  138.0490 C   0  0  2  0  0  3  0  0  0  0  0  0
  186.3050  177.9790  139.4980 C   0  0  2  0  0  3  0  0  0  0  0  0
  183.9090  178.2920  140.2760 C   0  0  1  0  0  3  0  0  0  0  0  0
  179.8200  180.2290  140.7950 N   0  0  0  0  0  2  0  0  0  0  0  0
  185.4610  173.4180  137.5570 C   0  0  0  0  0  2  0  0  0  0  0  0
  186.4530  176.0150  137.0960 C   0  0  2  0  0  3  0  0  0  0  0  0
  180.2480  179.7890  139.5400 N   0  0  0  0  0  0  0  0  0  0  0  0
  184.6430  174.3670  136.6790 C   0  0  0  0  0  2  0  0  0  0  0  0
  187.8120  173.9620  136.7930 C   0  0  2  0  0  3  0  0  0  0  0  0
  185.8110  178.2950  141.9300 C   0  0  0  0  0  2  0  0  0  0  0  0
  185.3760  178.6720  140.5110 C   0  0  1  0  0  3  0  0  0  0  0  0
  183.0040  179.0360  141.2720 C   0  0  0  0  0  2  0  0  0  0  0  0
  184.2100  176.3930  137.8110 C   0  0  0  0  0  2  0  0  0  0  0  0
  181.5970  178.9600  137.1950 C   0  0  0  0  0  1  0  0  0  0  0  0
  180.5100  179.7110  142.9890 O   0  0  0  0  0  0  0  0  0  0  0  0
  183.4980  178.6290  138.8200 C   0  0  1  0  0  3  0  0  0  0  0  0
  181.5550  178.6080  141.0820 C   0  0  2  0  0  3  0  0  0  0  0  0
  188.9620  173.4310  136.0770 N   0  0  0  0  0  2  0  0  0  0  0  0
  190.2990  173.5570  136.5660 C   0  0  0  0  0  0  0  0  0  0  0  0
  190.5350  174.1650  137.6440 O   0  0  0  0  0  0  0  0  0  0  0  0
  191.4230  172.9690  135.7920 C   0  0  0  0  0  1  0  0  0  0  0  0
  1 20  1  0  0  0  0
  1 16  1  0  0  0  0
  2 24  1  1  0  0  0
  2 12  1  0  0  0  0
  2 27  1  0  0  0  0
  3  4  1  0  0  0  0
  5 25  1  6  0  0  0
  5 27  1  0  0  0  0
  5  6  1  0  0  0  0
  6 28  1  0  0  0  0
  7 19  1  1  0  0  0
  7 17  1  0  0  0  0
  7 24  1  0  0  0  0
  8 17  1  0  0  0  0
  9 26  2  0  0  0  0
 10 20  1  0  0  0  0
 11  3  1  0  0  0  0
 12  8  1  6  0  0  0
 12 13  1  0  0  0  0
 13 11  1  6  0  0  0
 13 22  1  0  0  0  0
 14 22  1  0  0  0  0
 14 23  1  1  0  0  0
 15  9  1  0  0  0  0
 17 10  1  6  0  0  0
 18  6  2  0  0  0  0
 18 15  1  0  0  0  0
 19 16  1  0  0  0  0
 20 29  1  6  0  0  0
 21  4  1  0  0  0  0
 22 21  1  1  0  0  0
 27 14  1  0  0  0  0
 28 23  1  0  0  0  0
 28  9  1  0  0  0  0
 29 30  1  0  0  0  0
 30 31  2  0  0  0  0
 32 30  1  0  0  0  0
M  END
>  <MODEL>
6

>  <REMARK>
 VINA RESULT:      -6.6      3.540      9.568
  Name = 
  1 active torsions:
  status: ('A' for Active; 'I' for Inactive)
    1  A    between atoms: C_20  and  N_29
                            x       y       z     vdW  Elec       q    Type
                         _______ _______ _______ _____ _____    ______ ____

>  <TORSDO>
F 1

$$$$
=
 OpenBabel11122410403D

 32 37  0  0  1  0  0  0  0  0999 V2000
  188.5120  177.6920  140.4290 C   0  0  0  0  0  2  0  0  0  0  0  0
  191.6810  176.1600  136.1110 C   0  0  1  0  0  3  0  0  0  0  0  0
  187.6340  173.2940  135.1710 C   0  0  0  0  0  2  0  0  0  0  0  0
  188.5440  172.1420  134.7560 C   0  0  0  0  0  2  0  0  0  0  0  0
  194.0050  175.1260  136.2370 C   0  0  1  0  0  3  0  0  0  0  0  0
  194.7760  173.8780  135.9230 C   0  0  0  0  0  0  0  0  0  0  0  0
  190.7390  177.3700  138.0250 N   0  0  1  0  0  0  0  0  0  0  0  0
  189.4150  177.2220  135.9590 C   0  0  0  0  0  2  0  0  0  0  0  0
  195.1940  171.7150  135.4550 C   0  0  0  0  0  0  0  0  0  0  0  0
  188.4320  178.2960  137.9790 C   0  0  0  0  0  2  0  0  0  0  0  0
  188.3150  174.6290  134.8910 C   0  0  0  0  0  2  0  0  0  0  0  0
  190.3030  176.0850  135.4340 C   0  0  2  0  0  3  0  0  0  0  0  0
  189.6420  174.7150  135.6520 C   0  0  2  0  0  3  0  0  0  0  0  0
  191.9260  173.6350  135.9040 C   0  0  1  0  0  3  0  0  0  0  0  0
  196.2390  172.5270  134.9530 N   0  0  0  0  0  2  0  0  0  0  0  0
  189.6980  176.7530  140.2480 C   0  0  0  0  0  2  0  0  0  0  0  0
  189.3750  177.2070  137.4860 C   0  0  2  0  0  3  0  0  0  0  0  0
  195.8910  173.8450  135.2610 N   0  0  0  0  0  0  0  0  0  0  0  0
  190.8130  177.4780  139.4930 C   0  0  0  0  0  2  0  0  0  0  0  0
  187.6460  177.7720  139.1720 C   0  0  2  0  0  3  0  0  0  0  0  0
  189.8730  172.2280  135.5020 C   0  0  0  0  0  2  0  0  0  0  0  0
  190.5610  173.5630  135.2070 C   0  0  1  0  0  3  0  0  0  0  0  0
  192.8350  172.5010  135.4030 C   0  0  0  0  0  2  0  0  0  0  0  0
  191.5340  176.2060  137.6390 C   0  0  0  0  0  2  0  0  0  0  0  0
  194.7080  176.3750  135.7180 C   0  0  0  0  0  1  0  0  0  0  0  0
  195.1730  170.4620  135.3430 O   0  0  0  0  0  0  0  0  0  0  0  0
  192.5860  175.0120  135.6420 C   0  0  1  0  0  3  0  0  0  0  0  0
  194.1660  172.5330  136.1440 C   0  0  2  0  0  3  0  0  0  0  0  0
  186.5090  178.6480  139.4150 N   0  0  0  0  0  2  0  0  0  0  0  0
  185.2410  178.4570  138.7850 C   0  0  0  0  0  0  0  0  0  0  0  0
  185.0660  177.5190  137.9620 O   0  0  0  0  0  0  0  0  0  0  0  0
  184.1180  179.3780  139.1000 C   0  0  0  0  0  1  0  0  0  0  0  0
  2 24  1  1  0  0  0
  4  3  1  0  0  0  0
  4 21  1  0  0  0  0
  5 25  1  6  0  0  0
  6 28  1  0  0  0  0
  6  5  1  0  0  0  0
  7 24  1  1  0  0  0
  7 19  1  0  0  0  0
  9 28  1  0  0  0  0
 10 20  1  0  0  0  0
 11  3  1  0  0  0  0
 12 13  1  0  0  0  0
 12  8  1  1  0  0  0
 12  2  1  0  0  0  0
 13 11  1  6  0  0  0
 14 23  1  6  0  0  0
 15 18  1  0  0  0  0
 15  9  1  0  0  0  0
 16  1  1  0  0  0  0
 17  8  1  6  0  0  0
 17 10  1  0  0  0  0
 17  7  1  0  0  0  0
 18  6  2  0  0  0  0
 19 16  1  0  0  0  0
 20 29  1  1  0  0  0
 20  1  1  0  0  0  0
 22 21  1  1  0  0  0
 22 13  1  0  0  0  0
 22 14  1  0  0  0  0
 23 28  1  0  0  0  0
 26  9  2  0  0  0  0
 27 14  1  0  0  0  0
 27  2  1  0  0  0  0
 27  5  1  0  0  0  0
 30 32  1  0  0  0  0
 30 29  1  0  0  0  0
 31 30  2  0  0  0  0
M  END
>  <MODEL>
7

>  <REMARK>
 VINA RESULT:      -5.8      2.487      3.484
  Name = 
  1 active torsions:
  status: ('A' for Active; 'I' for Inactive)
    1  A    between atoms: C_20  and  N_29
                            x       y       z     vdW  Elec       q    Type
                         _______ _______ _______ _____ _____    ______ ____

>  <TORSDO>
F 1

$$$$
=
 OpenBabel11122410403D

 32 37  0  0  1  0  0  0  0  0999 V2000
  189.6350  173.7060  136.2660 C   0  0  0  0  0  2  0  0  0  0  0  0
  187.8660  178.1270  139.1580 C   0  0  1  0  0  3  0  0  0  0  0  0
  192.0480  177.0900  141.7870 C   0  0  0  0  0  2  0  0  0  0  0  0
  191.3110  177.4030  143.0850 C   0  0  0  0  0  2  0  0  0  0  0  0
  185.6180  178.3610  140.3320 C   0  0  1  0  0  3  0  0  0  0  0  0
  184.9860  178.5150  141.6830 C   0  0  0  0  0  0  0  0  0  0  0  0
  188.2010  176.4410  137.4080 N   0  0  1  0  0  0  0  0  0  0  0  0
  190.0660  177.9410  137.9700 C   0  0  0  0  0  2  0  0  0  0  0  0
  184.7490  178.4620  143.9230 C   0  0  0  0  0  0  0  0  0  0  0  0
  190.4100  176.1090  136.3190 C   0  0  0  0  0  2  0  0  0  0  0  0
  191.4600  177.9040  140.6400 C   0  0  0  0  0  2  0  0  0  0  0  0
  189.3820  178.3520  139.2810 C   0  0  2  0  0  3  0  0  0  0  0  0
  189.9700  177.5910  140.4800 C   0  0  2  0  0  3  0  0  0  0  0  0
  187.7240  177.6850  141.6610 C   0  0  1  0  0  3  0  0  0  0  0  0
  183.8830  179.4350  143.3690 N   0  0  0  0  0  2  0  0  0  0  0  0
  188.5640  173.9380  137.3240 C   0  0  0  0  0  2  0  0  0  0  0  0
  189.6640  176.5190  137.5810 C   0  0  2  0  0  3  0  0  0  0  0  0
  184.1100  179.4210  141.9910 N   0  0  0  0  0  0  0  0  0  0  0  0
  187.7050  175.1390  136.9270 C   0  0  0  0  0  2  0  0  0  0  0  0
  190.8260  174.6490  136.4380 C   0  0  2  0  0  3  0  0  0  0  0  0
  189.8230  177.1030  142.9300 C   0  0  0  0  0  2  0  0  0  0  0  0
  189.2320  177.9340  141.7870 C   0  0  1  0  0  3  0  0  0  0  0  0
  187.0120  178.0810  142.9650 C   0  0  0  0  0  2  0  0  0  0  0  0
  187.5660  176.6920  138.7010 C   0  0  0  0  0  2  0  0  0  0  0  0
  185.0780  179.3770  139.3320 C   0  0  0  0  0  1  0  0  0  0  0  0
  184.8170  178.2120  145.1540 O   0  0  0  0  0  0  0  0  0  0  0  0
  187.1490  178.4890  140.4670 C   0  0  1  0  0  3  0  0  0  0  0  0
  185.5240  177.7720  142.8620 C   0  0  2  0  0  3  0  0  0  0  0  0
  191.8320  174.3570  135.4290 N   0  0  0  0  0  2  0  0  0  0  0  0
  193.2320  174.5290  135.6640 C   0  0  0  0  0  0  0  0  0  0  0  0
  193.6490  174.9720  136.7670 O   0  0  0  0  0  0  0  0  0  0  0  0
  194.2040  174.1870  134.5940 C   0  0  0  0  0  1  0  0  0  0  0  0
  1 20  1  0  0  0  0
  1 16  1  0  0  0  0
  2 24  1  1  0  0  0
  2 12  1  0  0  0  0
  2 27  1  0  0  0  0
  3  4  1  0  0  0  0
  5 25  1  6  0  0  0
  5 27  1  0  0  0  0
  5  6  1  0  0  0  0
  6 18  2  0  0  0  0
  6 28  1  0  0  0  0
  7 19  1  1  0  0  0
  7 17  1  0  0  0  0
  7 24  1  0  0  0  0
  9 26  2  0  0  0  0
 10 20  1  0  0  0  0
 11  3  1  0  0  0  0
 12  8  1  6  0  0  0
 12 13  1  0  0  0  0
 13 11  1  1  0  0  0
 13 22  1  0  0  0  0
 14 22  1  0  0  0  0
 14 23  1  1  0  0  0
 15  9  1  0  0  0  0
 17 10  1  6  0  0  0
 17  8  1  0  0  0  0
 18 15  1  0  0  0  0
 19 16  1  0  0  0  0
 20 29  1  6  0  0  0
 21  4  1  0  0  0  0
 22 21  1  1  0  0  0
 27 14  1  0  0  0  0
 28 23  1  0  0  0  0
 28  9  1  0  0  0  0
 29 30  1  0  0  0  0
 30 31  2  0  0  0  0
 32 30  1  0  0  0  0
M  END
>  <MODEL>
8

>  <REMARK>
 VINA RESULT:      -5.6      1.938      8.580
  Name = 
  1 active torsions:
  status: ('A' for Active; 'I' for Inactive)
    1  A    between atoms: C_20  and  N_29
                            x       y       z     vdW  Elec       q    Type
                         _______ _______ _______ _____ _____    ______ ____

>  <TORSDO>
F 1

$$$$
=
 OpenBabel11122410403D

 32 37  0  0  1  0  0  0  0  0999 V2000
  189.2030  174.5620  136.9610 C   0  0  0  0  0  2  0  0  0  0  0  0
  186.4610  178.7100  139.4710 C   0  0  1  0  0  3  0  0  0  0  0  0
  189.3220  177.2020  143.3470 C   0  0  0  0  0  2  0  0  0  0  0  0
  188.1450  177.4020  144.2960 C   0  0  0  0  0  2  0  0  0  0  0  0
  183.9350  178.9140  139.7230 C   0  0  1  0  0  3  0  0  0  0  0  0
  182.8340  178.9470  140.7430 C   0  0  0  0  0  0  0  0  0  0  0  0
  187.4390  177.2150  137.7920 N   0  0  1  0  0  0  0  0  0  0  0  0
  188.9480  178.5580  139.1940 C   0  0  0  0  0  2  0  0  0  0  0  0
  181.7600  178.6570  142.7010 C   0  0  0  0  0  0  0  0  0  0  0  0
  189.8980  176.9060  137.5910 C   0  0  0  0  0  2  0  0  0  0  0  0
  189.2160  178.1640  142.1680 C   0  0  0  0  0  2  0  0  0  0  0  0
  187.8150  178.8520  140.1860 C   0  0  2  0  0  3  0  0  0  0  0  0
  187.9000  177.9370  141.4190 C   0  0  2  0  0  3  0  0  0  0  0  0
  185.3730  178.0020  141.6610 C   0  0  1  0  0  3  0  0  0  0  0  0
  181.1700  179.7240  141.9800 N   0  0  0  0  0  2  0  0  0  0  0  0
  187.8090  174.7220  137.5540 C   0  0  0  0  0  2  0  0  0  0  0  0
  188.7260  177.2070  138.5150 C   0  0  2  0  0  3  0  0  0  0  0  0
  181.9070  179.8520  140.8000 N   0  0  0  0  0  0  0  0  0  0  0  0
  187.1660  175.9980  137.0070 C   0  0  0  0  0  2  0  0  0  0  0  0
  190.2370  175.4250  137.6840 C   0  0  2  0  0  3  0  0  0  0  0  0
  186.8290  177.1890  143.5520 C   0  0  0  0  0  2  0  0  0  0  0  0
  186.7190  178.1670  142.3790 C   0  0  1  0  0  3  0  0  0  0  0  0
  184.2170  178.2830  142.6350 C   0  0  0  0  0  2  0  0  0  0  0  0
  186.3590  177.3500  138.7670 C   0  0  0  0  0  2  0  0  0  0  0  0
  183.8180  180.0580  138.7230 C   0  0  0  0  0  1  0  0  0  0  0  0
  181.3530  178.2700  143.8270 O   0  0  0  0  0  0  0  0  0  0  0  0
  185.2980  178.9580  140.4440 C   0  0  1  0  0  3  0  0  0  0  0  0
  182.8820  178.0540  141.9390 C   0  0  2  0  0  3  0  0  0  0  0  0
  191.5530  175.2010  137.1050 N   0  0  0  0  0  2  0  0  0  0  0  0
  192.7230  175.8830  137.5630 C   0  0  0  0  0  0  0  0  0  0  0  0
  192.6490  176.7380  138.4850 O   0  0  0  0  0  0  0  0  0  0  0  0
  194.0380  175.5860  136.9390 C   0  0  0  0  0  1  0  0  0  0  0  0
  1 16  1  0  0  0  0
  1 20  1  0  0  0  0
  2 24  1  1  0  0  0
  2 12  1  0  0  0  0
  2 27  1  0  0  0  0
  3  4  1  0  0  0  0
  5 25  1  6  0  0  0
  5 27  1  0  0  0  0
  5  6  1  0  0  0  0
  6 18  2  0  0  0  0
  6 28  1  0  0  0  0
  7 19  1  1  0  0  0
  7 17  1  0  0  0  0
  7 24  1  0  0  0  0
  9 26  2  0  0  0  0
 10 20  1  0  0  0  0
 11  3  1  0  0  0  0
 12  8  1  6  0  0  0
 12 13  1  0  0  0  0
 13 11  1  1  0  0  0
 13 22  1  0  0  0  0
 14 22  1  0  0  0  0
 14 23  1  1  0  0  0
 15  9  1  0  0  0  0
 17 10  1  6  0  0  0
 17  8  1  0  0  0  0
 18 15  1  0  0  0  0
 19 16  1  0  0  0  0
 20 29  1  6  0  0  0
 21  4  1  0  0  0  0
 22 21  1  1  0  0  0
 27 14  1  0  0  0  0
 28 23  1  0  0  0  0
 28  9  1  0  0  0  0
 29 30  1  0  0  0  0
 30 31  2  0  0  0  0
 32 30  1  0  0  0  0
M  END
>  <MODEL>
9

>  <REMARK>
 VINA RESULT:      -5.5      2.478      8.912
  Name = 
  1 active torsions:
  status: ('A' for Active; 'I' for Inactive)
    1  A    between atoms: C_20  and  N_29
                            x       y       z     vdW  Elec       q    Type
                         _______ _______ _______ _____ _____    ______ ____

>  <TORSDO>
F 1

$$$$
