=
 OpenBabel11122411073D

 31 35  0  0  1  0  0  0  0  0999 V2000
  189.9940  177.1650  145.1590 C   0  0  0  0  0  0  0  0  0  0  0  0
  187.2220  178.1780  142.8160 C   0  0  0  0  0  0  0  0  0  0  0  0
  186.0530  178.3820  143.6200 C   0  0  0  0  0  0  0  0  0  0  0  0
  184.8950  178.4150  145.7740 C   0  0  0  0  0  0  0  0  0  0  0  0
  188.4960  177.7820  143.3290 C   0  0  0  0  0  0  0  0  0  0  0  0
  191.0470  177.0020  144.2600 C   0  0  0  0  0  3  0  0  0  0  0  0
  186.0490  178.2090  145.0170 C   0  0  0  0  0  3  0  0  0  0  0  0
  188.2220  178.1970  140.5730 C   0  0  0  0  0  0  0  0  0  0  0  0
  190.1970  176.9440  146.5140 O   0  0  0  0  0  1  0  0  0  0  0  0
  184.7650  178.9630  141.6290 C   0  0  0  0  0  3  0  0  0  0  0  0
  184.9300  178.2220  147.2470 C   0  0  0  0  0  1  0  0  0  0  0  0
  189.4120  177.8190  141.1050 N   0  0  0  0  0  0  0  0  0  0  0  0
  187.1090  178.3820  141.4090 C   0  0  0  0  0  0  0  0  0  0  0  0
  188.1080  178.4000  139.1590 N   0  0  0  0  0  2  0  0  0  0  0  0
  188.7350  177.5500  144.6960 C   0  0  0  0  0  3  0  0  0  0  0  0
  183.7100  178.8000  145.1500 C   0  0  0  0  0  3  0  0  0  0  0  0
  189.5800  177.6110  142.4310 C   0  0  0  0  0  0  0  0  0  0  0  0
  190.8390  177.2240  142.8990 C   0  0  0  0  0  3  0  0  0  0  0  0
  185.8890  178.7690  140.8420 C   0  0  0  0  0  3  0  0  0  0  0  0
  184.8330  178.7750  143.0040 C   0  0  0  0  0  0  0  0  0  0  0  0
  183.6800  178.9800  143.7670 C   0  0  0  0  0  3  0  0  0  0  0  0
  189.0720  179.1950  137.0580 C   0  0  0  0  0  1  0  0  0  0  0  0
  189.2320  178.2560  138.2430 C   0  0  2  0  0  3  0  0  0  0  0  0
  189.5750  174.1800  136.9130 C   0  0  0  0  0  0  0  0  0  0  0  0
  188.2460  176.1810  137.2060 C   0  0  0  0  0  3  0  0  0  0  0  0
  191.6420  176.7630  138.4680 F   0  0  0  0  0  0  0  0  0  0  0  0
  189.6870  172.8960  136.4950 F   0  0  0  0  0  0  0  0  0  0  0  0
  188.3610  174.8560  136.7740 C   0  0  0  0  0  3  0  0  0  0  0  0
  190.5650  176.1510  137.9160 C   0  0  0  0  0  0  0  0  0  0  0  0
  189.3470  176.8360  137.7800 C   0  0  0  0  0  0  0  0  0  0  0  0
  190.6750  174.8260  137.4830 C   0  0  0  0  0  3  0  0  0  0  0  0
  1  9  1  0  0  0  0
  2  5  1  0  0  0  0
  2  3  1  0  0  0  0
  3  7  1  0  0  0  0
  4 11  1  0  0  0  0
  5 15  2  0  0  0  0
  6  1  2  0  0  0  0
  7  4  2  0  0  0  0
  8 12  2  0  0  0  0
  8 13  1  0  0  0  0
 10 20  1  0  0  0  0
 12 17  1  0  0  0  0
 13  2  2  0  0  0  0
 14  8  1  0  0  0  0
 15  1  1  0  0  0  0
 16  4  1  0  0  0  0
 17 18  2  0  0  0  0
 17  5  1  0  0  0  0
 18  6  1  0  0  0  0
 19 13  1  0  0  0  0
 19 10  2  0  0  0  0
 20  3  2  0  0  0  0
 20 21  1  0  0  0  0
 21 16  2  0  0  0  0
 23 22  1  6  0  0  0
 23 14  1  0  0  0  0
 24 31  1  0  0  0  0
 25 30  2  0  0  0  0
 27 24  1  0  0  0  0
 28 24  2  0  0  0  0
 28 25  1  0  0  0  0
 29 26  1  0  0  0  0
 30 29  1  0  0  0  0
 30 23  1  0  0  0  0
 31 29  2  0  0  0  0
M  END
>  <MODEL>
1

>  <REMARK>
 VINA RESULT:     -11.2      0.000      0.000
  Name = 
  2 active torsions:
  status: ('A' for Active; 'I' for Inactive)
    1  A    between atoms: C_5  and  N_16
    2  A    between atoms: C_5  and  C_30
                            x       y       z     vdW  Elec       q    Type
                         _______ _______ _______ _____ _____    ______ ____

>  <TORSDO>
F 2

$$$$
=
 OpenBabel11122411073D

 31 35  0  0  1  0  0  0  0  0999 V2000
  190.6920  177.3420  141.8150 C   0  0  0  0  0  0  0  0  0  0  0  0
  187.2510  178.1170  143.1440 C   0  0  0  0  0  0  0  0  0  0  0  0
  187.3170  177.9800  144.5700 C   0  0  0  0  0  0  0  0  0  0  0  0
  188.5310  177.4950  146.6370 C   0  0  0  0  0  0  0  0  0  0  0  0
  188.3560  177.9060  142.2610 C   0  0  0  0  0  0  0  0  0  0  0  0
  190.4850  177.5090  140.4470 C   0  0  0  0  0  3  0  0  0  0  0  0
  188.4970  177.6200  145.2470 C   0  0  0  0  0  3  0  0  0  0  0  0
  185.8810  178.6350  141.1740 C   0  0  0  0  0  0  0  0  0  0  0  0
  191.9450  176.9800  142.2890 O   0  0  0  0  0  1  0  0  0  0  0  0
  184.9550  178.5710  144.7510 C   0  0  0  0  0  3  0  0  0  0  0  0
  189.7950  177.1120  147.3160 C   0  0  0  0  0  1  0  0  0  0  0  0
  186.9560  178.4230  140.3740 N   0  0  0  0  0  0  0  0  0  0  0  0
  186.0020  178.4860  142.5650 C   0  0  0  0  0  0  0  0  0  0  0  0
  184.6240  179.0040  140.5920 N   0  0  0  0  0  2  0  0  0  0  0  0
  189.6380  177.5390  142.7090 C   0  0  0  0  0  3  0  0  0  0  0  0
  187.3790  177.7280  147.3860 C   0  0  0  0  0  3  0  0  0  0  0  0
  188.1660  178.0710  140.8660 C   0  0  0  0  0  0  0  0  0  0  0  0
  189.2240  177.8720  139.9740 C   0  0  0  0  0  3  0  0  0  0  0  0
  184.8810  178.7060  143.3730 C   0  0  0  0  0  3  0  0  0  0  0  0
  186.1550  178.2130  145.3540 C   0  0  0  0  0  0  0  0  0  0  0  0
  186.1930  178.0860  146.7460 C   0  0  0  0  0  3  0  0  0  0  0  0
  183.2460  180.1090  138.9020 C   0  0  0  0  0  1  0  0  0  0  0  0
  184.4410  179.2060  139.1610 C   0  0  2  0  0  3  0  0  0  0  0  0
  183.9490  175.4280  137.1620 C   0  0  0  0  0  0  0  0  0  0  0  0
  183.2200  177.0250  138.8280 C   0  0  0  0  0  3  0  0  0  0  0  0
  186.1730  178.3280  137.0820 F   0  0  0  0  0  0  0  0  0  0  0  0
  183.7960  174.2390  136.5310 F   0  0  0  0  0  0  0  0  0  0  0  0
  183.0630  175.7990  138.1760 C   0  0  0  0  0  3  0  0  0  0  0  0
  185.1530  177.5110  137.4470 C   0  0  0  0  0  0  0  0  0  0  0  0
  184.2660  177.8890  138.4680 C   0  0  0  0  0  0  0  0  0  0  0  0
  184.9920  176.2830  136.7980 C   0  0  0  0  0  3  0  0  0  0  0  0
  1  9  1  0  0  0  0
  1 15  1  0  0  0  0
  2  3  1  0  0  0  0
  3  7  2  0  0  0  0
  3 20  1  0  0  0  0
  4 11  1  0  0  0  0
  4 16  2  0  0  0  0
  5 15  2  0  0  0  0
  5  2  1  0  0  0  0
  6  1  2  0  0  0  0
  7  4  1  0  0  0  0
  8 13  1  0  0  0  0
 10 20  1  0  0  0  0
 12 17  1  0  0  0  0
 12  8  2  0  0  0  0
 13  2  2  0  0  0  0
 13 19  1  0  0  0  0
 14  8  1  0  0  0  0
 17  5  1  0  0  0  0
 18  6  1  0  0  0  0
 18 17  2  0  0  0  0
 19 10  2  0  0  0  0
 20 21  2  0  0  0  0
 21 16  1  0  0  0  0
 23 22  1  1  0  0  0
 23 14  1  0  0  0  0
 24 28  1  0  0  0  0
 26 29  1  0  0  0  0
 27 24  1  0  0  0  0
 28 25  2  0  0  0  0
 29 30  2  0  0  0  0
 30 25  1  0  0  0  0
 30 23  1  0  0  0  0
 31 24  2  0  0  0  0
 31 29  1  0  0  0  0
M  END
>  <MODEL>
2

>  <REMARK>
 VINA RESULT:     -11.1      2.804      4.133
  Name = 
  2 active torsions:
  status: ('A' for Active; 'I' for Inactive)
    1  A    between atoms: C_5  and  N_16
    2  A    between atoms: C_5  and  C_30
                            x       y       z     vdW  Elec       q    Type
                         _______ _______ _______ _____ _____    ______ ____

>  <TORSDO>
F 2

$$$$
=
 OpenBabel11122411073D

 31 35  0  0  1  0  0  0  0  0999 V2000
  191.4070  176.6360  145.0620 C   0  0  0  0  0  0  0  0  0  0  0  0
  188.0340  177.7260  143.7830 C   0  0  0  0  0  0  0  0  0  0  0  0
  187.2240  178.0030  144.9330 C   0  0  0  0  0  0  0  0  0  0  0  0
  186.8870  178.1400  147.3510 C   0  0  0  0  0  0  0  0  0  0  0  0
  189.3920  177.2820  143.8400 C   0  0  0  0  0  0  0  0  0  0  0  0
  192.0770  176.4030  143.8620 C   0  0  0  0  0  3  0  0  0  0  0  0
  187.6980  177.8630  146.2500 C   0  0  0  0  0  3  0  0  0  0  0  0
  188.1960  177.6470  141.3340 C   0  0  0  0  0  0  0  0  0  0  0  0
  192.0590  176.4360  146.2710 O   0  0  0  0  0  1  0  0  0  0  0  0
  185.3490  178.6000  143.4880 C   0  0  0  0  0  3  0  0  0  0  0  0
  187.4220  177.9790  148.7280 C   0  0  0  0  0  1  0  0  0  0  0  0
  189.4810  177.2250  141.4360 N   0  0  0  0  0  0  0  0  0  0  0  0
  187.4480  177.9030  142.4940 C   0  0  0  0  0  0  0  0  0  0  0  0
  187.6060  177.8230  140.0400 N   0  0  0  0  0  2  0  0  0  0  0  0
  190.0810  177.0700  145.0470 C   0  0  0  0  0  3  0  0  0  0  0  0
  185.5740  178.5670  147.1600 C   0  0  0  0  0  3  0  0  0  0  0  0
  190.0900  177.0400  142.6300 C   0  0  0  0  0  0  0  0  0  0  0  0
  191.4190  176.6040  142.6490 C   0  0  0  0  0  3  0  0  0  0  0  0
  186.1230  178.3350  142.3690 C   0  0  0  0  0  3  0  0  0  0  0  0
  185.8820  178.4400  144.7610 C   0  0  0  0  0  0  0  0  0  0  0  0
  185.0730  178.7170  145.8670 C   0  0  0  0  0  3  0  0  0  0  0  0
  188.9990  178.8950  138.3410 C   0  0  0  0  0  1  0  0  0  0  0  0
  188.3380  177.6050  138.7980 C   0  0  2  0  0  3  0  0  0  0  0  0
  185.7070  176.0870  135.7510 C   0  0  0  0  0  0  0  0  0  0  0  0
  186.2340  177.7610  137.4180 C   0  0  0  0  0  3  0  0  0  0  0  0
  188.8790  175.2190  137.3480 F   0  0  0  0  0  0  0  0  0  0  0  0
  184.8820  175.6070  134.7910 F   0  0  0  0  0  0  0  0  0  0  0  0
  185.3820  177.2660  136.4270 C   0  0  0  0  0  3  0  0  0  0  0  0
  187.7410  175.8960  137.0550 C   0  0  0  0  0  0  0  0  0  0  0  0
  187.4180  177.0790  137.7380 C   0  0  0  0  0  0  0  0  0  0  0  0
  186.8850  175.4040  136.0650 C   0  0  0  0  0  3  0  0  0  0  0  0
  1  9  1  0  0  0  0
  2  5  1  0  0  0  0
  2  3  1  0  0  0  0
  3  7  1  0  0  0  0
  4 11  1  0  0  0  0
  5 15  2  0  0  0  0
  6  1  2  0  0  0  0
  7  4  2  0  0  0  0
  8 12  2  0  0  0  0
  8 13  1  0  0  0  0
 10 20  1  0  0  0  0
 12 17  1  0  0  0  0
 13  2  2  0  0  0  0
 14  8  1  0  0  0  0
 15  1  1  0  0  0  0
 16  4  1  0  0  0  0
 17 18  2  0  0  0  0
 17  5  1  0  0  0  0
 18  6  1  0  0  0  0
 19 13  1  0  0  0  0
 19 10  2  0  0  0  0
 20  3  2  0  0  0  0
 20 21  1  0  0  0  0
 21 16  2  0  0  0  0
 23 22  1  6  0  0  0
 23 14  1  0  0  0  0
 24 31  2  0  0  0  0
 24 28  1  0  0  0  0
 25 30  1  0  0  0  0
 27 24  1  0  0  0  0
 28 25  2  0  0  0  0
 29 26  1  0  0  0  0
 29 30  2  0  0  0  0
 30 23  1  0  0  0  0
 31 29  1  0  0  0  0
M  END
>  <MODEL>
3

>  <REMARK>
 VINA RESULT:     -10.4      1.839      2.439
  Name = 
  2 active torsions:
  status: ('A' for Active; 'I' for Inactive)
    1  A    between atoms: C_5  and  N_16
    2  A    between atoms: C_5  and  C_30
                            x       y       z     vdW  Elec       q    Type
                         _______ _______ _______ _____ _____    ______ ____

>  <TORSDO>
F 2

$$$$
=
 OpenBabel11122411073D

 31 35  0  0  1  0  0  0  0  0999 V2000
  184.3480  178.8720  144.6940 C   0  0  0  0  0  0  0  0  0  0  0  0
  187.8810  177.9380  143.7720 C   0  0  0  0  0  0  0  0  0  0  0  0
  188.5640  177.6400  144.9960 C   0  0  0  0  0  0  0  0  0  0  0  0
  188.6300  177.4140  147.4300 C   0  0  0  0  0  0  0  0  0  0  0  0
  186.5110  178.3380  143.6880 C   0  0  0  0  0  0  0  0  0  0  0  0
  183.8120  179.1340  143.4350 C   0  0  0  0  0  3  0  0  0  0  0  0
  187.9390  177.7120  146.2550 C   0  0  0  0  0  3  0  0  0  0  0  0
  187.9960  178.1120  141.3250 C   0  0  0  0  0  0  0  0  0  0  0  0
  183.5570  179.0030  145.8270 O   0  0  0  0  0  1  0  0  0  0  0  0
  190.6110  177.1590  143.7550 C   0  0  0  0  0  3  0  0  0  0  0  0
  187.9360  177.5030  148.7410 C   0  0  0  0  0  1  0  0  0  0  0  0
  186.6930  178.4900  141.2940 N   0  0  0  0  0  0  0  0  0  0  0  0
  188.6150  177.8320  142.5530 C   0  0  0  0  0  0  0  0  0  0  0  0
  188.7340  178.0070  140.1010 N   0  0  0  0  0  2  0  0  0  0  0  0
  185.6830  178.4800  144.8160 C   0  0  0  0  0  3  0  0  0  0  0  0
  189.9700  177.0360  147.3750 C   0  0  0  0  0  3  0  0  0  0  0  0
  185.9460  178.6080  142.4160 C   0  0  0  0  0  0  0  0  0  0  0  0
  184.6100  179.0020  142.2990 C   0  0  0  0  0  3  0  0  0  0  0  0
  189.9600  177.4460  142.5650 C   0  0  0  0  0  3  0  0  0  0  0  0
  189.9320  177.2520  144.9630 C   0  0  0  0  0  0  0  0  0  0  0  0
  190.6190  176.9550  146.1440 C   0  0  0  0  0  3  0  0  0  0  0  0
  186.7100  177.7420  138.7560 C   0  0  0  0  0  1  0  0  0  0  0  0
  188.1410  178.2530  138.7930 C   0  0  2  0  0  3  0  0  0  0  0  0
  190.4870  176.3910  135.7040 C   0  0  0  0  0  0  0  0  0  0  0  0
  190.0180  176.7410  138.0530 C   0  0  0  0  0  3  0  0  0  0  0  0
  187.6570  178.6830  136.0230 F   0  0  0  0  0  0  0  0  0  0  0  0
  191.2230  175.8060  134.7290 F   0  0  0  0  0  0  0  0  0  0  0  0
  190.7780  176.1380  137.0470 C   0  0  0  0  0  3  0  0  0  0  0  0
  188.6730  177.8540  136.3690 C   0  0  0  0  0  0  0  0  0  0  0  0
  188.9620  177.6030  137.7200 C   0  0  0  0  0  0  0  0  0  0  0  0
  189.4360  177.2470  135.3670 C   0  0  0  0  0  3  0  0  0  0  0  0
  1 15  1  0  0  0  0
  1  9  1  0  0  0  0
  2  3  1  0  0  0  0
  3  7  1  0  0  0  0
  4 11  1  0  0  0  0
  5  2  1  0  0  0  0
  5 15  2  0  0  0  0
  6  1  2  0  0  0  0
  7  4  2  0  0  0  0
  8 13  1  0  0  0  0
 10 20  1  0  0  0  0
 12  8  2  0  0  0  0
 12 17  1  0  0  0  0
 13 19  1  0  0  0  0
 13  2  2  0  0  0  0
 14  8  1  0  0  0  0
 16  4  1  0  0  0  0
 17  5  1  0  0  0  0
 18 17  2  0  0  0  0
 18  6  1  0  0  0  0
 19 10  2  0  0  0  0
 20  3  2  0  0  0  0
 20 21  1  0  0  0  0
 21 16  2  0  0  0  0
 23 22  1  1  0  0  0
 23 14  1  0  0  0  0
 24 28  1  0  0  0  0
 26 29  1  0  0  0  0
 27 24  1  0  0  0  0
 28 25  2  0  0  0  0
 29 30  2  0  0  0  0
 30 25  1  0  0  0  0
 30 23  1  0  0  0  0
 31 24  2  0  0  0  0
 31 29  1  0  0  0  0
M  END
>  <MODEL>
4

>  <REMARK>
 VINA RESULT:     -10.4      2.223      4.265
  Name = 
  2 active torsions:
  status: ('A' for Active; 'I' for Inactive)
    1  A    between atoms: C_5  and  N_16
    2  A    between atoms: C_5  and  C_30
                            x       y       z     vdW  Elec       q    Type
                         _______ _______ _______ _____ _____    ______ ____

>  <TORSDO>
F 2

$$$$
=
 OpenBabel11122411073D

 31 35  0  0  1  0  0  0  0  0999 V2000
  188.1400  178.0810  140.7160 C   0  0  0  0  0  0  0  0  0  0  0  0
  185.5560  178.4060  143.4410 C   0  0  0  0  0  0  0  0  0  0  0  0
  186.2440  178.2380  144.6870 C   0  0  0  0  0  0  0  0  0  0  0  0
  188.2720  177.8410  145.9950 C   0  0  0  0  0  0  0  0  0  0  0  0
  186.1840  178.3520  142.1580 C   0  0  0  0  0  0  0  0  0  0  0  0
  187.3460  178.2600  139.5840 C   0  0  0  0  0  3  0  0  0  0  0  0
  187.6290  178.0000  144.7670 C   0  0  0  0  0  3  0  0  0  0  0  0
  183.4260  178.8150  142.2890 C   0  0  0  0  0  0  0  0  0  0  0  0
  189.5030  177.8560  140.5820 O   0  0  0  0  0  1  0  0  0  0  0  0
  184.1490  178.5410  145.9030 C   0  0  0  0  0  3  0  0  0  0  0  0
  189.7360  177.5900  146.0390 C   0  0  0  0  0  1  0  0  0  0  0  0
  184.0640  178.7530  141.0940 N   0  0  0  0  0  0  0  0  0  0  0  0
  184.1500  178.6420  143.4800 C   0  0  0  0  0  0  0  0  0  0  0  0
  182.0130  179.0490  142.3290 N   0  0  0  0  0  2  0  0  0  0  0  0
  187.5620  178.1260  141.9860 C   0  0  0  0  0  3  0  0  0  0  0  0
  187.5420  177.9150  147.1800 C   0  0  0  0  0  3  0  0  0  0  0  0
  185.3950  178.5330  140.9940 C   0  0  0  0  0  0  0  0  0  0  0  0
  185.9770  178.4850  139.7230 C   0  0  0  0  0  3  0  0  0  0  0  0
  183.4730  178.7050  144.7030 C   0  0  0  0  0  3  0  0  0  0  0  0
  185.5190  178.3090  145.9080 C   0  0  0  0  0  0  0  0  0  0  0  0
  186.1670  178.1490  147.1360 C   0  0  0  0  0  3  0  0  0  0  0  0
  180.0480  180.1990  141.4390 C   0  0  0  0  0  1  0  0  0  0  0  0
  181.2100  179.2680  141.1330 C   0  0  2  0  0  3  0  0  0  0  0  0
  179.7870  175.5210  139.5730 C   0  0  0  0  0  0  0  0  0  0  0  0
  179.7710  177.2060  141.3100 C   0  0  0  0  0  3  0  0  0  0  0  0
  182.0980  178.1990  138.6510 F   0  0  0  0  0  0  0  0  0  0  0  0
  179.3410  174.3410  139.0790 F   0  0  0  0  0  0  0  0  0  0  0  0
  179.3100  175.9890  140.8000 C   0  0  0  0  0  3  0  0  0  0  0  0
  181.1870  177.4860  139.3610 C   0  0  0  0  0  0  0  0  0  0  0  0
  180.7130  177.9620  140.5940 C   0  0  0  0  0  0  0  0  0  0  0  0
  180.7230  176.2680  138.8550 C   0  0  0  0  0  3  0  0  0  0  0  0
  1 15  1  0  0  0  0
  2 13  2  0  0  0  0
  2  3  1  0  0  0  0
  3  7  2  0  0  0  0
  3 20  1  0  0  0  0
  4 11  1  0  0  0  0
  4 16  2  0  0  0  0
  5  2  1  0  0  0  0
  6 18  1  0  0  0  0
  6  1  2  0  0  0  0
  7  4  1  0  0  0  0
  8 14  1  0  0  0  0
  8 13  1  0  0  0  0
  9  1  1  0  0  0  0
 10 20  1  0  0  0  0
 12  8  2  0  0  0  0
 13 19  1  0  0  0  0
 15  5  2  0  0  0  0
 17 12  1  0  0  0  0
 17  5  1  0  0  0  0
 18 17  2  0  0  0  0
 19 10  2  0  0  0  0
 20 21  2  0  0  0  0
 21 16  1  0  0  0  0
 23 22  1  1  0  0  0
 23 14  1  0  0  0  0
 24 28  1  0  0  0  0
 26 29  1  0  0  0  0
 27 24  1  0  0  0  0
 28 25  2  0  0  0  0
 29 30  2  0  0  0  0
 30 23  1  0  0  0  0
 30 25  1  0  0  0  0
 31 29  1  0  0  0  0
 31 24  2  0  0  0  0
M  END
>  <MODEL>
5

>  <REMARK>
 VINA RESULT:     -10.3      4.167      6.655
  Name = 
  2 active torsions:
  status: ('A' for Active; 'I' for Inactive)
    1  A    between atoms: C_5  and  N_16
    2  A    between atoms: C_5  and  C_30
                            x       y       z     vdW  Elec       q    Type
                         _______ _______ _______ _____ _____    ______ ____

>  <TORSDO>
F 2

$$$$
=
 OpenBabel11122411073D

 31 35  0  0  1  0  0  0  0  0999 V2000
  185.3130  178.6100  143.6380 C   0  0  0  0  0  0  0  0  0  0  0  0
  188.9390  177.6140  143.3780 C   0  0  0  0  0  0  0  0  0  0  0  0
  189.3980  177.3690  144.7130 C   0  0  0  0  0  0  0  0  0  0  0  0
  189.0430  177.2560  147.1300 C   0  0  0  0  0  0  0  0  0  0  0  0
  187.6090  178.0180  143.0430 C   0  0  0  0  0  0  0  0  0  0  0  0
  185.0040  178.8160  142.2950 C   0  0  0  0  0  3  0  0  0  0  0  0
  188.5680  177.5030  145.8420 C   0  0  0  0  0  3  0  0  0  0  0  0
  189.4730  177.6740  140.9820 C   0  0  0  0  0  0  0  0  0  0  0  0
  184.3420  178.7970  144.6120 O   0  0  0  0  0  1  0  0  0  0  0  0
  191.6210  176.8200  143.8650 C   0  0  0  0  0  3  0  0  0  0  0  0
  188.1370  177.4090  148.2970 C   0  0  0  0  0  1  0  0  0  0  0  0
  188.2000  178.0580  140.7110 N   0  0  0  0  0  0  0  0  0  0  0  0
  189.8690  177.4480  142.3090 C   0  0  0  0  0  0  0  0  0  0  0  0
  190.4080  177.5090  139.9090 N   0  0  0  0  0  2  0  0  0  0  0  0
  186.6020  178.2160  144.0040 C   0  0  0  0  0  3  0  0  0  0  0  0
  190.3680  176.8680  147.3230 C   0  0  0  0  0  3  0  0  0  0  0  0
  187.2740  178.2320  141.6820 C   0  0  0  0  0  0  0  0  0  0  0  0
  185.9830  178.6280  141.3200 C   0  0  0  0  0  3  0  0  0  0  0  0
  191.1870  177.0560  142.5690 C   0  0  0  0  0  3  0  0  0  0  0  0
  190.7460  176.9720  144.9330 C   0  0  0  0  0  0  0  0  0  0  0  0
  191.2170  176.7260  146.2260 C   0  0  0  0  0  3  0  0  0  0  0  0
  189.0550  178.8360  138.3650 C   0  0  0  0  0  1  0  0  0  0  0  0
  190.0510  177.6970  138.5090 C   0  0  2  0  0  3  0  0  0  0  0  0
  188.4510  174.0530  136.8750 C   0  0  0  0  0  0  0  0  0  0  0  0
  188.1320  176.3410  137.5960 C   0  0  0  0  0  3  0  0  0  0  0  0
  191.6410  175.3790  138.0710 F   0  0  0  0  0  0  0  0  0  0  0  0
  187.9510  172.9040  136.3600 F   0  0  0  0  0  0  0  0  0  0  0  0
  187.6150  175.1560  137.0650 C   0  0  0  0  0  3  0  0  0  0  0  0
  190.3250  175.3180  137.7460 C   0  0  0  0  0  0  0  0  0  0  0  0
  189.4900  176.4290  137.9410 C   0  0  0  0  0  0  0  0  0  0  0  0
  189.8040  174.1350  137.2140 C   0  0  0  0  0  3  0  0  0  0  0  0
  1 15  1  0  0  0  0
  1  9  1  0  0  0  0
  2  3  1  0  0  0  0
  3 20  2  0  0  0  0
  3  7  1  0  0  0  0
  4 16  1  0  0  0  0
  4 11  1  0  0  0  0
  5  2  1  0  0  0  0
  5 15  2  0  0  0  0
  6  1  2  0  0  0  0
  7  4  2  0  0  0  0
  8 13  1  0  0  0  0
 10 20  1  0  0  0  0
 12  8  2  0  0  0  0
 12 17  1  0  0  0  0
 13 19  1  0  0  0  0
 13  2  2  0  0  0  0
 14  8  1  0  0  0  0
 17  5  1  0  0  0  0
 18 17  2  0  0  0  0
 18  6  1  0  0  0  0
 19 10  2  0  0  0  0
 20 21  1  0  0  0  0
 21 16  2  0  0  0  0
 23 22  1  1  0  0  0
 23 14  1  0  0  0  0
 24 28  2  0  0  0  0
 24 31  1  0  0  0  0
 25 30  2  0  0  0  0
 27 24  1  0  0  0  0
 28 25  1  0  0  0  0
 29 30  1  0  0  0  0
 29 26  1  0  0  0  0
 30 23  1  0  0  0  0
 31 29  2  0  0  0  0
M  END
>  <MODEL>
6

>  <REMARK>
 VINA RESULT:     -10.3      1.680      3.993
  Name = 
  2 active torsions:
  status: ('A' for Active; 'I' for Inactive)
    1  A    between atoms: C_5  and  N_16
    2  A    between atoms: C_5  and  C_30
                            x       y       z     vdW  Elec       q    Type
                         _______ _______ _______ _____ _____    ______ ____

>  <TORSDO>
F 2

$$$$
=
 OpenBabel11122411073D

 31 35  0  0  1  0  0  0  0  0999 V2000
  189.6540  177.7080  141.4980 C   0  0  0  0  0  0  0  0  0  0  0  0
  186.2370  178.3270  142.9630 C   0  0  0  0  0  0  0  0  0  0  0  0
  186.3700  178.2170  144.3860 C   0  0  0  0  0  0  0  0  0  0  0  0
  187.6940  177.8290  146.4060 C   0  0  0  0  0  0  0  0  0  0  0  0
  187.3130  178.1580  142.0370 C   0  0  0  0  0  0  0  0  0  0  0  0
  189.3810  177.8410  140.1380 C   0  0  0  0  0  3  0  0  0  0  0  0
  187.5940  177.9290  145.0170 C   0  0  0  0  0  3  0  0  0  0  0  0
  184.7590  178.7420  141.0460 C   0  0  0  0  0  0  0  0  0  0  0  0
  190.9440  177.4180  141.9230 O   0  0  0  0  0  1  0  0  0  0  0  0
  183.9910  178.6900  144.6610 C   0  0  0  0  0  3  0  0  0  0  0  0
  189.0040  177.5230  147.0360 C   0  0  0  0  0  1  0  0  0  0  0  0
  185.8090  178.5720  140.2050 N   0  0  0  0  0  0  0  0  0  0  0  0
  184.9470  178.6220  142.4330 C   0  0  0  0  0  0  0  0  0  0  0  0
  183.4620  179.0360  140.5140 N   0  0  0  0  0  2  0  0  0  0  0  0
  188.6300  177.8650  142.4340 C   0  0  0  0  0  3  0  0  0  0  0  0
  186.5640  178.0150  147.2010 C   0  0  0  0  0  3  0  0  0  0  0  0
  187.0560  178.2910  140.6480 C   0  0  0  0  0  0  0  0  0  0  0  0
  188.0840  178.1310  139.7150 C   0  0  0  0  0  3  0  0  0  0  0  0
  183.8510  178.7980  143.2850 C   0  0  0  0  0  3  0  0  0  0  0  0
  185.2310  178.4030  145.2170 C   0  0  0  0  0  0  0  0  0  0  0  0
  185.3360  178.3020  146.6070 C   0  0  0  0  0  3  0  0  0  0  0  0
  182.7920  180.6360  138.7920 C   0  0  0  0  0  1  0  0  0  0  0  0
  183.2080  179.2050  139.0890 C   0  0  2  0  0  3  0  0  0  0  0  0
  180.1880  176.4440  137.7630 C   0  0  0  0  0  0  0  0  0  0  0  0
  181.0280  177.9850  139.4280 C   0  0  0  0  0  3  0  0  0  0  0  0
  183.3680  177.8260  136.6060 F   0  0  0  0  0  0  0  0  0  0  0  0
  179.2380  175.5740  137.3410 F   0  0  0  0  0  0  0  0  0  0  0  0
  180.0480  177.0870  138.9940 C   0  0  0  0  0  3  0  0  0  0  0  0
  182.2880  177.5930  137.3940 C   0  0  0  0  0  0  0  0  0  0  0  0
  182.1540  178.2430  138.6320 C   0  0  0  0  0  0  0  0  0  0  0  0
  181.3060  176.6970  136.9640 C   0  0  0  0  0  3  0  0  0  0  0  0
  1  9  1  0  0  0  0
  1 15  1  0  0  0  0
  2  3  1  0  0  0  0
  3  7  2  0  0  0  0
  3 20  1  0  0  0  0
  4 11  1  0  0  0  0
  4 16  2  0  0  0  0
  5 15  2  0  0  0  0
  5  2  1  0  0  0  0
  6  1  2  0  0  0  0
  7  4  1  0  0  0  0
  8 13  1  0  0  0  0
 10 20  1  0  0  0  0
 12 17  1  0  0  0  0
 12  8  2  0  0  0  0
 13  2  2  0  0  0  0
 13 19  1  0  0  0  0
 14  8  1  0  0  0  0
 17  5  1  0  0  0  0
 18  6  1  0  0  0  0
 18 17  2  0  0  0  0
 19 10  2  0  0  0  0
 20 21  2  0  0  0  0
 21 16  1  0  0  0  0
 23 22  1  1  0  0  0
 23 14  1  0  0  0  0
 24 28  1  0  0  0  0
 26 29  1  0  0  0  0
 27 24  1  0  0  0  0
 28 25  2  0  0  0  0
 29 30  2  0  0  0  0
 30 23  1  0  0  0  0
 30 25  1  0  0  0  0
 31 29  1  0  0  0  0
 31 24  2  0  0  0  0
M  END
>  <MODEL>
7

>  <REMARK>
 VINA RESULT:     -10.1      3.829      5.540
  Name = 
  2 active torsions:
  status: ('A' for Active; 'I' for Inactive)
    1  A    between atoms: C_5  and  N_16
    2  A    between atoms: C_5  and  C_30
                            x       y       z     vdW  Elec       q    Type
                         _______ _______ _______ _____ _____    ______ ____

>  <TORSDO>
F 2

$$$$
=
 OpenBabel11122411073D

 31 35  0  0  1  0  0  0  0  0999 V2000
  184.8840  178.6200  144.1920 C   0  0  0  0  0  0  0  0  0  0  0  0
  188.4970  177.6820  143.6690 C   0  0  0  0  0  0  0  0  0  0  0  0
  189.0540  177.4390  144.9670 C   0  0  0  0  0  0  0  0  0  0  0  0
  188.8740  177.3130  147.4030 C   0  0  0  0  0  0  0  0  0  0  0  0
  187.1400  178.0660  143.4310 C   0  0  0  0  0  0  0  0  0  0  0  0
  184.4760  178.8260  142.8750 C   0  0  0  0  0  3  0  0  0  0  0  0
  188.3040  177.5560  146.1520 C   0  0  0  0  0  3  0  0  0  0  0  0
  188.8560  177.7570  141.2410 C   0  0  0  0  0  0  0  0  0  0  0  0
  183.9820  178.7900  145.2330 O   0  0  0  0  0  1  0  0  0  0  0  0
  191.2180  176.9270  143.9600 C   0  0  0  0  0  3  0  0  0  0  0  0
  188.0510  177.4480  148.6320 C   0  0  0  0  0  1  0  0  0  0  0  0
  187.5620  178.1220  141.0640 N   0  0  0  0  0  0  0  0  0  0  0  0
  189.3500  177.5320  142.5360 C   0  0  0  0  0  0  0  0  0  0  0  0
  189.7150  177.6100  140.1030 N   0  0  0  0  0  2  0  0  0  0  0  0
  186.2010  178.2450  144.4630 C   0  0  0  0  0  3  0  0  0  0  0  0
  190.2150  176.9440  147.4990 C   0  0  0  0  0  3  0  0  0  0  0  0
  186.7050  178.2790  142.0990 C   0  0  0  0  0  0  0  0  0  0  0  0
  185.3860  178.6560  141.8310 C   0  0  0  0  0  3  0  0  0  0  0  0
  190.6890  177.1600  142.6990 C   0  0  0  0  0  3  0  0  0  0  0  0
  190.4190  177.0620  145.0880 C   0  0  0  0  0  0  0  0  0  0  0  0
  190.9850  176.8190  146.3430 C   0  0  0  0  0  3  0  0  0  0  0  0
  187.8440  177.2580  138.5700 C   0  0  0  0  0  1  0  0  0  0  0  0
  189.2570  177.7970  138.7330 C   0  0  2  0  0  3  0  0  0  0  0  0
  191.9530  175.8680  135.9910 C   0  0  0  0  0  0  0  0  0  0  0  0
  189.7720  176.7980  136.4760 C   0  0  0  0  0  3  0  0  0  0  0  0
  191.9310  177.1210  139.4250 F   0  0  0  0  0  0  0  0  0  0  0  0
  192.8050  175.2610  135.1300 F   0  0  0  0  0  0  0  0  0  0  0  0
  190.6510  176.1720  135.5870 C   0  0  0  0  0  3  0  0  0  0  0  0
  191.5030  176.8160  138.1750 C   0  0  0  0  0  0  0  0  0  0  0  0
  190.1920  177.1240  137.7750 C   0  0  0  0  0  0  0  0  0  0  0  0
  192.3780  176.1900  137.2820 C   0  0  0  0  0  3  0  0  0  0  0  0
  1 15  1  0  0  0  0
  1  9  1  0  0  0  0
  2  3  1  0  0  0  0
  3 20  2  0  0  0  0
  3  7  1  0  0  0  0
  4 16  1  0  0  0  0
  4 11  1  0  0  0  0
  5  2  1  0  0  0  0
  5 15  2  0  0  0  0
  6  1  2  0  0  0  0
  7  4  2  0  0  0  0
  8 13  1  0  0  0  0
 10 20  1  0  0  0  0
 12  8  2  0  0  0  0
 12 17  1  0  0  0  0
 13 19  1  0  0  0  0
 13  2  2  0  0  0  0
 14  8  1  0  0  0  0
 17  5  1  0  0  0  0
 18 17  2  0  0  0  0
 18  6  1  0  0  0  0
 19 10  2  0  0  0  0
 20 21  1  0  0  0  0
 21 16  2  0  0  0  0
 23 22  1  1  0  0  0
 23 14  1  0  0  0  0
 24 31  1  0  0  0  0
 25 30  2  0  0  0  0
 27 24  1  0  0  0  0
 28 24  2  0  0  0  0
 28 25  1  0  0  0  0
 29 26  1  0  0  0  0
 30 29  1  0  0  0  0
 30 23  1  0  0  0  0
 31 29  2  0  0  0  0
M  END
>  <MODEL>
8

>  <REMARK>
 VINA RESULT:     -10.0      1.968      4.133
  Name = 
  2 active torsions:
  status: ('A' for Active; 'I' for Inactive)
    1  A    between atoms: C_5  and  N_16
    2  A    between atoms: C_5  and  C_30
                            x       y       z     vdW  Elec       q    Type
                         _______ _______ _______ _____ _____    ______ ____

>  <TORSDO>
F 2

$$$$
=
 OpenBabel11122411073D

 31 35  0  0  1  0  0  0  0  0999 V2000
  184.6880  178.5990  145.7470 C   0  0  0  0  0  0  0  0  0  0  0  0
  187.3320  178.0460  143.1180 C   0  0  0  0  0  0  0  0  0  0  0  0
  188.5390  177.6990  143.8100 C   0  0  0  0  0  0  0  0  0  0  0  0
  189.8030  177.2680  145.8590 C   0  0  0  0  0  0  0  0  0  0  0  0
  186.0880  178.3370  143.7600 C   0  0  0  0  0  0  0  0  0  0  0  0
  183.5930  178.9240  144.9480 C   0  0  0  0  0  3  0  0  0  0  0  0
  188.6140  177.6090  145.2120 C   0  0  0  0  0  3  0  0  0  0  0  0
  186.2190  178.4420  140.9650 C   0  0  0  0  0  0  0  0  0  0  0  0
  184.5560  178.5630  147.1280 O   0  0  0  0  0  1  0  0  0  0  0  0
  189.7200  177.5010  141.6830 C   0  0  0  0  0  3  0  0  0  0  0  0
  189.8430  177.1830  147.3410 C   0  0  0  0  0  1  0  0  0  0  0  0
  185.0610  178.7120  141.6170 N   0  0  0  0  0  0  0  0  0  0  0  0
  187.3720  178.1080  141.6940 C   0  0  0  0  0  0  0  0  0  0  0  0
  186.2610  178.5070  139.5340 N   0  0  0  0  0  2  0  0  0  0  0  0
  185.9200  178.3100  145.1560 C   0  0  0  0  0  3  0  0  0  0  0  0
  190.9520  177.0080  145.1140 C   0  0  0  0  0  3  0  0  0  0  0  0
  184.9620  178.6690  142.9660 C   0  0  0  0  0  0  0  0  0  0  0  0
  183.7300  178.9590  143.5610 C   0  0  0  0  0  3  0  0  0  0  0  0
  188.5580  177.8360  141.0030 C   0  0  0  0  0  3  0  0  0  0  0  0
  189.7220  177.4300  143.0700 C   0  0  0  0  0  0  0  0  0  0  0  0
  190.9110  177.0890  143.7220 C   0  0  0  0  0  3  0  0  0  0  0  0
  184.1590  179.7530  139.4680 C   0  0  0  0  0  1  0  0  0  0  0  0
  185.0930  178.8160  138.7190 C   0  0  2  0  0  3  0  0  0  0  0  0
  183.0520  175.1980  137.6010 C   0  0  0  0  0  0  0  0  0  0  0  0
  183.2790  177.1020  139.0770 C   0  0  0  0  0  3  0  0  0  0  0  0
  185.8720  177.2380  136.4850 F   0  0  0  0  0  0  0  0  0  0  0  0
  182.4110  174.0590  137.2450 F   0  0  0  0  0  0  0  0  0  0  0  0
  182.6180  175.9270  138.7110 C   0  0  0  0  0  3  0  0  0  0  0  0
  184.8110  176.8200  137.2180 C   0  0  0  0  0  0  0  0  0  0  0  0
  184.3800  177.5560  138.3340 C   0  0  0  0  0  0  0  0  0  0  0  0
  184.1460  175.6450  136.8560 C   0  0  0  0  0  3  0  0  0  0  0  0
  1  9  1  0  0  0  0
  2  5  1  0  0  0  0
  2  3  1  0  0  0  0
  3  7  1  0  0  0  0
  4 11  1  0  0  0  0
  5 15  2  0  0  0  0
  6  1  2  0  0  0  0
  7  4  2  0  0  0  0
  8 12  2  0  0  0  0
  8 13  1  0  0  0  0
 10 20  1  0  0  0  0
 12 17  1  0  0  0  0
 13  2  2  0  0  0  0
 14  8  1  0  0  0  0
 15  1  1  0  0  0  0
 16  4  1  0  0  0  0
 17 18  2  0  0  0  0
 17  5  1  0  0  0  0
 18  6  1  0  0  0  0
 19 10  2  0  0  0  0
 19 13  1  0  0  0  0
 20 21  1  0  0  0  0
 20  3  2  0  0  0  0
 21 16  2  0  0  0  0
 23 22  1  1  0  0  0
 23 14  1  0  0  0  0
 24 28  1  0  0  0  0
 26 29  1  0  0  0  0
 27 24  1  0  0  0  0
 28 25  2  0  0  0  0
 29 30  2  0  0  0  0
 30 23  1  0  0  0  0
 30 25  1  0  0  0  0
 31 29  1  0  0  0  0
 31 24  2  0  0  0  0
M  END
>  <MODEL>
9

>  <REMARK>
 VINA RESULT:      -9.9      2.946      5.192
  Name = 
  2 active torsions:
  status: ('A' for Active; 'I' for Inactive)
    1  A    between atoms: C_5  and  N_16
    2  A    between atoms: C_5  and  C_30
                            x       y       z     vdW  Elec       q    Type
                         _______ _______ _______ _____ _____    ______ ____

>  <TORSDO>
F 2

$$$$
