=
 OpenBabel11122412183D

 34 40  0  0  1  0  0  0  0  0999 V2000
  182.3610  178.7690  143.5090 C   0  0  0  0  0  0  0  0  0  0  0  0
  183.9900  178.8860  145.4820 C   0  0  0  0  0  3  0  0  0  0  0  0
  180.6600  180.4850  138.3970 O   0  0  0  0  0  0  0  0  0  0  0  0
  180.8850  178.5800  141.5600 C   0  0  2  0  0  3  0  0  0  0  0  0
  181.8120  177.9530  139.3360 C   0  0  0  0  0  0  0  0  0  0  0  0
  182.1740  179.0860  137.1490 C   0  0  0  0  0  2  0  0  0  0  0  0
  181.0890  180.1610  137.1020 C   0  0  0  0  0  2  0  0  0  0  0  0
  178.9370  178.7700  138.4060 C   0  0  0  0  0  2  0  0  0  0  0  0
  184.7360  178.3510  143.2910 C   0  0  0  0  0  0  0  0  0  0  0  0
  187.6560  178.1590  142.4580 C   0  0  0  0  0  3  0  0  0  0  0  0
  183.0270  177.8870  139.8820 C   0  0  0  0  0  3  0  0  0  0  0  0
  179.2900  178.0450  139.7040 C   0  0  0  0  0  2  0  0  0  0  0  0
  184.6580  177.9680  141.8550 C   0  0  0  0  0  0  0  0  0  0  0  0
  185.4230  178.5910  145.4390 N   0  0  0  0  0  0  0  0  0  0  0  0
  180.6680  178.2710  140.1640 N   0  0  0  0  0  0  0  0  0  0  0  0
  179.2740  180.2640  138.4190 C   0  0  0  0  0  2  0  0  0  0  0  0
  187.1510  177.9130  143.6770 C   0  0  0  0  0  0  0  0  0  0  0  0
  182.1870  178.4950  142.1180 C   0  0  0  0  0  0  0  0  0  0  0  0
  181.7030  177.8080  137.8480 C   0  0  0  0  0  2  0  0  0  0  0  0
  183.2410  178.1460  141.3180 C   0  0  0  0  0  0  0  0  0  0  0  0
  179.9860  179.2060  143.7340 C   0  0  0  0  0  3  0  0  0  0  0  0
  186.9660  178.7790  141.3040 C   0  0  0  0  0  3  0  0  0  0  0  0
  179.8010  178.9380  142.3800 C   0  0  0  0  0  3  0  0  0  0  0  0
  185.6550  178.7420  141.0460 C   0  0  0  0  0  3  0  0  0  0  0  0
  185.7840  178.2950  144.0890 C   0  0  0  0  0  0  0  0  0  0  0  0
  181.2570  179.1190  144.2960 C   0  0  0  0  0  3  0  0  0  0  0  0
  183.5750  178.6920  144.0610 C   0  0  0  0  0  0  0  0  0  0  0  0
  188.0750  177.3260  144.6900 C   0  0  0  0  0  2  0  0  0  0  0  0
  189.4910  177.2550  144.1370 C   0  0  0  0  0  2  0  0  0  0  0  0
  190.7620  176.5880  147.3870 C   0  0  0  0  0  2  0  0  0  0  0  0
  191.4710  176.4840  145.1020 C   0  0  0  0  0  2  0  0  0  0  0  0
  190.4570  177.5220  145.1890 N   0  0  0  0  0  0  0  0  0  0  0  0
  191.9130  176.1640  146.5100 C   0  0  0  0  0  2  0  0  0  0  0  0
  189.7920  177.3010  146.4670 C   0  0  0  0  0  2  0  0  0  0  0  0
  1 27  1  0  0  0  0
  1 26  2  0  0  0  0
  3 16  1  0  0  0  0
  4 18  1  0  0  0  0
  4 23  1  1  0  0  0
  5 11  2  0  0  0  0
  5 15  1  0  0  0  0
  6 19  1  0  0  0  0
  7  6  1  0  0  0  0
  7  3  1  0  0  0  0
  8 16  1  0  0  0  0
  8 12  1  0  0  0  0
  9 27  1  0  0  0  0
  9 25  1  0  0  0  0
 10 17  2  0  0  0  0
 11 20  1  0  0  0  0
 12 15  1  0  0  0  0
 13  9  2  0  0  0  0
 14  2  1  0  0  0  0
 15  4  1  0  0  0  0
 17 25  1  0  0  0  0
 17 28  1  0  0  0  0
 18  1  1  0  0  0  0
 19  5  1  0  0  0  0
 20 13  1  0  0  0  0
 20 18  2  0  0  0  0
 21 26  1  0  0  0  0
 22 10  1  0  0  0  0
 23 21  2  0  0  0  0
 24 22  2  0  0  0  0
 24 13  1  0  0  0  0
 25 14  2  0  0  0  0
 27  2  2  0  0  0  0
 29 28  1  0  0  0  0
 29 32  1  0  0  0  0
 31 32  1  0  0  0  0
 31 33  1  0  0  0  0
 32 34  1  0  0  0  0
 33 30  1  0  0  0  0
 34 30  1  0  0  0  0
M  END
>  <MODEL>
1

>  <REMARK>
 VINA RESULT:      -9.7      0.000      0.000
  Name = 
  3 active torsions:
  status: ('A' for Active; 'I' for Inactive)
    1  A    between atoms: C_17  and  C_28
    2  A    between atoms: C_28  and  C_29
    3  A    between atoms: C_29  and  N_32
                            x       y       z     vdW  Elec       q    Type
                         _______ _______ _______ _____ _____    ______ ____

>  <TORSDO>
F 3

$$$$
=
 OpenBabel11122412183D

 34 40  0  0  1  0  0  0  0  0999 V2000
  186.3840  178.3860  140.4670 C   0  0  0  0  0  0  0  0  0  0  0  0
  184.1340  179.1500  139.5100 C   0  0  0  0  0  3  0  0  0  0  0  0
  190.6690  178.9960  144.1040 O   0  0  0  0  0  0  0  0  0  0  0  0
  188.4720  177.5950  141.4780 C   0  0  0  0  0  0  0  0  0  0  0  0
  188.5480  176.9760  143.8880 C   0  0  0  0  0  0  0  0  0  0  0  0
  189.5800  177.9030  145.9560 C   0  0  0  0  0  2  0  0  0  0  0  0
  190.8180  178.6460  145.4550 C   0  0  0  0  0  2  0  0  0  0  0  0
  191.6250  176.9060  143.3120 C   0  0  0  0  0  2  0  0  0  0  0  0
  184.3720  178.5760  141.8030 C   0  0  0  0  0  0  0  0  0  0  0  0
  182.2540  179.0530  143.9330 C   0  0  0  0  0  3  0  0  0  0  0  0
  187.2570  177.2910  143.9910 C   0  0  0  0  0  3  0  0  0  0  0  0
  190.5210  176.4520  142.3580 C   0  0  0  0  0  2  0  0  0  0  0  0
  184.9960  178.0220  143.0350 C   0  0  1  0  0  3  0  0  0  0  0  0
  182.8670  179.2340  140.2390 N   0  0  0  0  0  0  0  0  0  0  0  0
  189.2150  177.0810  142.6070 N   0  0  0  0  0  0  0  0  0  0  0  0
  191.7590  178.4270  143.4280 C   0  0  0  0  0  2  0  0  0  0  0  0
  182.0420  178.8280  142.6280 C   0  0  0  0  0  0  0  0  0  0  0  0
  187.0970  177.9170  141.6120 C   0  0  0  0  0  0  0  0  0  0  0  0
  189.2890  176.6360  145.1460 C   0  0  0  0  0  2  0  0  0  0  0  0
  186.4840  177.7630  142.8260 C   0  0  0  0  0  0  0  0  0  0  0  0
  188.3960  178.2150  139.1250 C   0  0  0  0  0  3  0  0  0  0  0  0
  183.5440  179.3340  144.6030 C   0  0  0  0  0  3  0  0  0  0  0  0
  189.1030  177.7530  140.2320 C   0  0  0  0  0  3  0  0  0  0  0  0
  184.7530  178.9290  144.2040 C   0  0  0  0  0  3  0  0  0  0  0  0
  183.1070  178.8870  141.6040 C   0  0  0  0  0  0  0  0  0  0  0  0
  187.0440  178.5270  139.2400 C   0  0  0  0  0  3  0  0  0  0  0  0
  185.0860  178.6910  140.5640 C   0  0  0  0  0  0  0  0  0  0  0  0
  180.6300  178.6230  142.1920 C   0  0  0  0  0  2  0  0  0  0  0  0
  179.8640  179.9360  142.2480 C   0  0  0  0  0  2  0  0  0  0  0  0
  179.7320  180.6930  138.7800 C   0  0  0  0  0  2  0  0  0  0  0  0
  179.2100  178.8910  140.2670 C   0  0  0  0  0  2  0  0  0  0  0  0
  179.0940  180.1220  141.0290 N   0  0  0  0  0  0  0  0  0  0  0  0
  179.2470  179.2650  138.8050 C   0  0  0  0  0  2  0  0  0  0  0  0
  179.7720  181.1340  140.2280 C   0  0  0  0  0  2  0  0  0  0  0  0
  1 27  2  0  0  0  0
  1 18  1  0  0  0  0
  2 14  2  0  0  0  0
  2 27  1  0  0  0  0
  3  7  1  0  0  0  0
  4 18  1  0  0  0  0
  4 15  1  0  0  0  0
  5 11  2  0  0  0  0
  5 19  1  0  0  0  0
  7  6  1  0  0  0  0
  8 16  1  0  0  0  0
  9 13  1  0  0  0  0
 10 22  1  0  0  0  0
 12 15  1  0  0  0  0
 12  8  1  0  0  0  0
 13 24  1  1  0  0  0
 14 25  1  0  0  0  0
 15  5  1  0  0  0  0
 16  3  1  0  0  0  0
 17 10  2  0  0  0  0
 18 20  2  0  0  0  0
 19  6  1  0  0  0  0
 20 13  1  0  0  0  0
 20 11  1  0  0  0  0
 21 26  2  0  0  0  0
 21 23  1  0  0  0  0
 23  4  2  0  0  0  0
 24 22  2  0  0  0  0
 25  9  2  0  0  0  0
 25 17  1  0  0  0  0
 26  1  1  0  0  0  0
 27  9  1  0  0  0  0
 28 29  1  0  0  0  0
 28 17  1  0  0  0  0
 30 33  1  0  0  0  0
 30 34  1  0  0  0  0
 31 32  1  0  0  0  0
 32 29  1  0  0  0  0
 33 31  1  0  0  0  0
 34 32  1  0  0  0  0
M  END
>  <MODEL>
2

>  <REMARK>
 VINA RESULT:      -9.3      2.670      9.230
  Name = 
  3 active torsions:
  status: ('A' for Active; 'I' for Inactive)
    1  A    between atoms: C_17  and  C_28
    2  A    between atoms: C_28  and  C_29
    3  A    between atoms: C_29  and  N_32
                            x       y       z     vdW  Elec       q    Type
                         _______ _______ _______ _____ _____    ______ ____

>  <TORSDO>
F 3

$$$$
=
 OpenBabel11122412183D

 34 40  0  0  1  0  0  0  0  0999 V2000
  186.4760  178.4240  140.3280 C   0  0  0  0  0  0  0  0  0  0  0  0
  184.3090  179.2250  139.2240 C   0  0  0  0  0  3  0  0  0  0  0  0
  190.5170  178.9620  144.2460 O   0  0  0  0  0  0  0  0  0  0  0  0
  188.4790  177.5980  141.4760 C   0  0  0  0  0  0  0  0  0  0  0  0
  188.3830  176.9780  143.8850 C   0  0  0  0  0  0  0  0  0  0  0  0
  189.2890  177.8860  146.0180 C   0  0  0  0  0  2  0  0  0  0  0  0
  190.5700  178.6090  145.6020 C   0  0  0  0  0  2  0  0  0  0  0  0
  191.4890  176.8560  143.5170 C   0  0  0  0  0  2  0  0  0  0  0  0
  184.3830  178.6470  141.5260 C   0  0  0  0  0  0  0  0  0  0  0  0
  182.1350  179.1590  143.5110 C   0  0  0  0  0  3  0  0  0  0  0  0
  187.0930  177.3140  143.9010 C   0  0  0  0  0  3  0  0  0  0  0  0
  190.4450  176.4210  142.4900 C   0  0  0  0  0  2  0  0  0  0  0  0
  184.9130  178.0820  142.7970 C   0  0  1  0  0  3  0  0  0  0  0  0
  182.9980  179.3300  139.8660 N   0  0  0  0  0  0  0  0  0  0  0  0
  189.1350  177.0710  142.6520 N   0  0  0  0  0  0  0  0  0  0  0  0
  191.6410  178.3750  143.6430 C   0  0  0  0  0  2  0  0  0  0  0  0
  182.0080  178.9380  142.1930 C   0  0  0  0  0  0  0  0  0  0  0  0
  187.1040  177.9430  141.5180 C   0  0  0  0  0  0  0  0  0  0  0  0
  189.0320  176.6250  145.1890 C   0  0  0  0  0  2  0  0  0  0  0  0
  186.4080  177.7990  142.6880 C   0  0  0  0  0  0  0  0  0  0  0  0
  188.5720  178.2190  139.1240 C   0  0  0  0  0  3  0  0  0  0  0  0
  183.3820  179.4190  144.2660 C   0  0  0  0  0  3  0  0  0  0  0  0
  189.1950  177.7460  140.2760 C   0  0  0  0  0  3  0  0  0  0  0  0
  184.6080  178.9930  143.9480 C   0  0  0  0  0  3  0  0  0  0  0  0
  183.1400  178.9790  141.2430 C   0  0  0  0  0  0  0  0  0  0  0  0
  187.2190  178.5540  139.1490 C   0  0  0  0  0  3  0  0  0  0  0  0
  185.1810  178.7500  140.3390 C   0  0  0  0  0  0  0  0  0  0  0  0
  180.6250  178.7560  141.6640 C   0  0  0  0  0  2  0  0  0  0  0  0
  180.2410  177.2840  141.6820 C   0  0  0  0  0  2  0  0  0  0  0  0
  180.1810  177.8240  138.1710 C   0  0  0  0  0  2  0  0  0  0  0  0
  181.0570  176.2540  139.7530 C   0  0  0  0  0  2  0  0  0  0  0  0
  179.8690  176.8440  140.3470 N   0  0  0  0  0  0  0  0  0  0  0  0
  181.0410  176.5900  138.2810 C   0  0  0  0  0  2  0  0  0  0  0  0
  179.5920  178.0330  139.5510 C   0  0  0  0  0  2  0  0  0  0  0  0
  1 27  2  0  0  0  0
  1 18  1  0  0  0  0
  2 14  2  0  0  0  0
  2 27  1  0  0  0  0
  3  7  1  0  0  0  0
  4 18  1  0  0  0  0
  4 15  1  0  0  0  0
  5 11  2  0  0  0  0
  5 19  1  0  0  0  0
  7  6  1  0  0  0  0
  8 16  1  0  0  0  0
  9 13  1  0  0  0  0
 10 22  1  0  0  0  0
 12 15  1  0  0  0  0
 12  8  1  0  0  0  0
 13 24  1  1  0  0  0
 14 25  1  0  0  0  0
 15  5  1  0  0  0  0
 16  3  1  0  0  0  0
 17 10  2  0  0  0  0
 18 20  2  0  0  0  0
 19  6  1  0  0  0  0
 20 13  1  0  0  0  0
 20 11  1  0  0  0  0
 21 26  2  0  0  0  0
 21 23  1  0  0  0  0
 23  4  2  0  0  0  0
 24 22  2  0  0  0  0
 25  9  2  0  0  0  0
 25 17  1  0  0  0  0
 26  1  1  0  0  0  0
 27  9  1  0  0  0  0
 28 29  1  0  0  0  0
 28 17  1  0  0  0  0
 30 33  1  0  0  0  0
 30 34  1  0  0  0  0
 31 32  1  0  0  0  0
 32 29  1  0  0  0  0
 33 31  1  0  0  0  0
 34 32  1  0  0  0  0
M  END
>  <MODEL>
3

>  <REMARK>
 VINA RESULT:      -9.0      2.643      9.029
  Name = 
  3 active torsions:
  status: ('A' for Active; 'I' for Inactive)
    1  A    between atoms: C_17  and  C_28
    2  A    between atoms: C_28  and  C_29
    3  A    between atoms: C_29  and  N_32
                            x       y       z     vdW  Elec       q    Type
                         _______ _______ _______ _____ _____    ______ ____

>  <TORSDO>
F 3

$$$$
=
 OpenBabel11122412183D

 34 40  0  0  1  0  0  0  0  0999 V2000
  187.2600  178.0340  139.5240 C   0  0  0  0  0  0  0  0  0  0  0  0
  189.6360  177.5880  140.3710 C   0  0  0  0  0  3  0  0  0  0  0  0
  181.7570  176.7500  139.3400 O   0  0  0  0  0  0  0  0  0  0  0  0
  184.9620  178.5240  138.8240 C   0  0  2  0  0  3  0  0  0  0  0  0
  183.2070  179.0140  140.5210 C   0  0  0  0  0  0  0  0  0  0  0  0
  181.1710  177.8740  141.3890 C   0  0  0  0  0  2  0  0  0  0  0  0
  180.6960  177.0150  140.2180 C   0  0  0  0  0  2  0  0  0  0  0  0
  181.3460  178.7480  138.0180 C   0  0  0  0  0  2  0  0  0  0  0  0
  187.8470  178.0190  141.8730 C   0  0  0  0  0  0  0  0  0  0  0  0
  188.0110  177.6940  144.8930 C   0  0  0  0  0  3  0  0  0  0  0  0
  184.1160  178.8490  141.4820 C   0  0  0  0  0  3  0  0  0  0  0  0
  182.7390  179.3740  138.0390 C   0  0  0  0  0  2  0  0  0  0  0  0
  186.4960  178.4370  142.3360 C   0  0  0  0  0  0  0  0  0  0  0  0
  190.0770  177.6190  141.7660 N   0  0  0  0  0  0  0  0  0  0  0  0
  183.5980  178.8930  139.1320 N   0  0  0  0  0  0  0  0  0  0  0  0
  181.3510  177.2180  138.0800 C   0  0  0  0  0  2  0  0  0  0  0  0
  189.0190  178.0050  144.0640 C   0  0  0  0  0  0  0  0  0  0  0  0
  185.9120  178.3610  139.8650 C   0  0  0  0  0  0  0  0  0  0  0  0
  181.7790  179.2040  140.9320 C   0  0  0  0  0  2  0  0  0  0  0  0
  185.5220  178.5280  141.1660 C   0  0  0  0  0  0  0  0  0  0  0  0
  186.6780  178.0310  137.1690 C   0  0  0  0  0  3  0  0  0  0  0  0
  186.6520  177.2310  144.5290 C   0  0  0  0  0  3  0  0  0  0  0  0
  185.3610  178.3520  137.4870 C   0  0  0  0  0  3  0  0  0  0  0  0
  185.9920  177.5090  143.4010 C   0  0  0  0  0  3  0  0  0  0  0  0
  188.9400  177.8690  142.5940 C   0  0  0  0  0  0  0  0  0  0  0  0
  187.6230  177.8750  138.1810 C   0  0  0  0  0  3  0  0  0  0  0  0
  188.1760  177.8800  140.4840 C   0  0  0  0  0  0  0  0  0  0  0  0
  190.3170  178.3950  144.6870 C   0  0  0  0  0  2  0  0  0  0  0  0
  190.3960  177.8760  146.1150 C   0  0  0  0  0  2  0  0  0  0  0  0
  192.3160  175.3540  147.7200 C   0  0  0  0  0  2  0  0  0  0  0  0
  191.6900  176.0300  145.5090 C   0  0  0  0  0  2  0  0  0  0  0  0
  191.6740  177.2210  146.3430 N   0  0  0  0  0  0  0  0  0  0  0  0
  192.4310  174.9560  146.2700 C   0  0  0  0  0  2  0  0  0  0  0  0
  191.6800  176.7290  147.7140 C   0  0  0  0  0  2  0  0  0  0  0  0
  1 18  1  0  0  0  0
  1 27  1  0  0  0  0
  2 27  2  0  0  0  0
  2 14  1  0  0  0  0
  3  7  1  0  0  0  0
  4 23  1  6  0  0  0
  4 15  1  0  0  0  0
  4 18  1  0  0  0  0
  5 19  1  0  0  0  0
  5 11  2  0  0  0  0
  7  6  1  0  0  0  0
  8 12  1  0  0  0  0
  8 16  1  0  0  0  0
  9 13  2  0  0  0  0
  9 25  1  0  0  0  0
 12 15  1  0  0  0  0
 13 24  1  0  0  0  0
 14 25  2  0  0  0  0
 15  5  1  0  0  0  0
 16  3  1  0  0  0  0
 17 28  1  0  0  0  0
 17 10  2  0  0  0  0
 18 20  2  0  0  0  0
 19  6  1  0  0  0  0
 20 11  1  0  0  0  0
 20 13  1  0  0  0  0
 21 23  2  0  0  0  0
 21 26  1  0  0  0  0
 22 10  1  0  0  0  0
 24 22  2  0  0  0  0
 25 17  1  0  0  0  0
 26  1  2  0  0  0  0
 27  9  1  0  0  0  0
 28 29  1  0  0  0  0
 29 32  1  0  0  0  0
 31 33  1  0  0  0  0
 31 32  1  0  0  0  0
 32 34  1  0  0  0  0
 33 30  1  0  0  0  0
 34 30  1  0  0  0  0
M  END
>  <MODEL>
4

>  <REMARK>
 VINA RESULT:      -8.4      2.117      4.373
  Name = 
  3 active torsions:
  status: ('A' for Active; 'I' for Inactive)
    1  A    between atoms: C_17  and  C_28
    2  A    between atoms: C_28  and  C_29
    3  A    between atoms: C_29  and  N_32
                            x       y       z     vdW  Elec       q    Type
                         _______ _______ _______ _____ _____    ______ ____

>  <TORSDO>
F 3

$$$$
=
 OpenBabel11122412183D

 34 40  0  0  0  0  0  0  0  0999 V2000
  190.2700  177.3650  142.8700 C   0  0  0  0  0  0  0  0  0  0  0  0
  191.0640  177.5650  140.4430 C   0  0  0  0  0  3  0  0  0  0  0  0
  187.5020  179.4260  147.3480 O   0  0  0  0  0  0  0  0  0  0  0  0
  189.3950  177.1320  145.1480 C   0  0  0  0  0  0  0  0  0  0  0  0
  186.9410  177.1630  145.5630 C   0  0  0  0  0  0  0  0  0  0  0  0
  185.3130  178.7100  146.6380 C   0  0  0  0  0  2  0  0  0  0  0  0
  186.1410  179.4530  147.6860 C   0  0  0  0  0  2  0  0  0  0  0  0
  187.8980  177.3420  148.5380 C   0  0  0  0  0  2  0  0  0  0  0  0
  188.7560  177.6310  140.9980 C   0  0  0  0  0  0  0  0  0  0  0  0
  186.5310  178.3600  139.0560 C   0  0  0  0  0  3  0  0  0  0  0  0
  186.7400  177.3260  144.2550 C   0  0  0  0  0  3  0  0  0  0  0  0
  188.5570  176.5230  147.4290 C   0  0  0  0  0  2  0  0  0  0  0  0
  187.5240  177.4930  141.8220 C   0  0  0  0  0  0  0  0  0  0  0  0
  190.2110  177.6700  139.2590 N   0  0  0  0  0  0  0  0  0  0  0  0
  188.2880  177.0220  146.0720 N   0  0  0  0  0  0  0  0  0  0  0  0
  188.1670  178.8470  148.4410 C   0  0  0  0  0  2  0  0  0  0  0  0
  187.7040  177.7840  138.7520 C   0  0  0  0  0  0  0  0  0  0  0  0
  189.1550  177.2990  143.7600 C   0  0  0  0  0  0  0  0  0  0  0  0
  185.7510  177.2530  146.4700 C   0  0  0  0  0  2  0  0  0  0  0  0
  187.8670  177.3820  143.3040 C   0  0  0  0  0  0  0  0  0  0  0  0
  191.7950  177.1160  144.7390 C   0  0  0  0  0  3  0  0  0  0  0  0
  186.1300  178.9660  140.3460 C   0  0  0  0  0  3  0  0  0  0  0  0
  190.7170  177.0460  145.6180 C   0  0  0  0  0  2  0  0  0  0  0  0
  186.5820  178.6300  141.5580 C   0  0  0  0  0  3  0  0  0  0  0  0
  188.8480  177.7160  139.6860 C   0  0  0  0  0  0  0  0  0  0  0  0
  191.5730  177.2720  143.3720 C   0  0  0  0  0  3  0  0  0  0  0  0
  190.0720  177.5160  141.5570 C   0  0  0  0  0  0  0  0  0  0  0  0
  187.8810  177.2960  137.3540 C   0  0  0  0  0  2  0  0  0  0  0  0
  187.7990  175.7780  137.3090 C   0  0  0  0  0  2  0  0  0  0  0  0
  191.0380  176.0600  135.8780 C   0  0  0  0  0  2  0  0  0  0  0  0
  189.8200  174.6120  137.3460 C   0  0  0  0  0  2  0  0  0  0  0  0
  188.8520  175.2400  136.4630 N   0  0  0  0  0  0  0  0  0  0  0  0
  191.1890  174.8390  136.7510 C   0  0  0  0  0  2  0  0  0  0  0  0
  189.5550  176.3670  135.8630 C   0  0  0  0  0  2  0  0  0  0  0  0
  1 26  1  0  0  0  0
  1 18  1  0  0  0  0
  2 27  1  0  0  0  0
  3  7  1  0  0  0  0
  3 16  1  0  0  0  0
  4 23  1  0  0  0  0
  4 15  1  0  0  0  0
  5 15  1  0  0  0  0
  5 19  1  0  0  0  0
  6  7  1  0  0  0  0
  9 27  1  0  0  0  0
  9 13  1  0  0  0  0
 10 22  1  0  0  0  0
 11  5  2  0  0  0  0
 12  8  1  0  0  0  0
 13 20  2  0  0  0  0
 14 25  1  0  0  0  0
 14  2  2  0  0  0  0
 15 12  1  0  0  0  0
 16  8  1  0  0  0  0
 17 10  2  0  0  0  0
 17 25  1  0  0  0  0
 18  4  2  0  0  0  0
 19  6  1  0  0  0  0
 20 18  1  0  0  0  0
 20 11  1  0  0  0  0
 21 23  1  0  0  0  0
 22 24  2  0  0  0  0
 24 13  1  0  0  0  0
 25  9  2  0  0  0  0
 26 21  2  0  0  0  0
 27  1  2  0  0  0  0
 28 17  1  0  0  0  0
 29 28  1  0  0  0  0
 30 33  1  0  0  0  0
 32 29  1  0  0  0  0
 32 31  1  0  0  0  0
 33 31  1  0  0  0  0
 34 30  1  0  0  0  0
 34 32  1  0  0  0  0
M  END
>  <MODEL>
5

>  <REMARK>
 VINA RESULT:      -8.1      4.620      8.867
  Name = 
  3 active torsions:
  status: ('A' for Active; 'I' for Inactive)
    1  A    between atoms: C_17  and  C_28
    2  A    between atoms: C_28  and  C_29
    3  A    between atoms: C_29  and  N_32
                            x       y       z     vdW  Elec       q    Type
                         _______ _______ _______ _____ _____    ______ ____

>  <TORSDO>
F 3

$$$$
=
 OpenBabel11122412183D

 34 40  0  0  0  0  0  0  0  0999 V2000
  184.5040  178.5060  144.4890 C   0  0  0  0  0  0  0  0  0  0  0  0
  181.9540  178.6950  144.3440 C   0  0  0  0  0  3  0  0  0  0  0  0
  189.3490  175.9100  143.1670 O   0  0  0  0  0  0  0  0  0  0  0  0
  186.9520  178.3860  144.5130 C   0  0  0  0  0  0  0  0  0  0  0  0
  188.2400  178.5150  142.3860 C   0  0  0  0  0  0  0  0  0  0  0  0
  189.6110  176.9560  141.0120 C   0  0  0  0  0  2  0  0  0  0  0  0
  190.1610  175.9510  142.0230 C   0  0  0  0  0  2  0  0  0  0  0  0
  190.5890  177.6810  144.2790 C   0  0  0  0  0  2  0  0  0  0  0  0
  183.3110  178.7500  142.3950 C   0  0  0  0  0  0  0  0  0  0  0  0
  182.2520  178.6220  139.5460 C   0  0  0  0  0  3  0  0  0  0  0  0
  187.0910  178.6230  141.7190 C   0  0  0  0  0  3  0  0  0  0  0  0
  189.4440  178.6280  144.6320 C   0  0  0  0  0  2  0  0  0  0  0  0
  184.5440  178.8470  141.5670 C   0  0  0  0  0  0  0  0  0  0  0  0
  181.1690  178.9010  143.1250 N   0  0  0  0  0  0  0  0  0  0  0  0
  188.2270  178.4250  143.8310 N   0  0  0  0  0  0  0  0  0  0  0  0
  190.1880  176.2030  144.2540 C   0  0  0  0  0  2  0  0  0  0  0  0
  181.6190  179.1290  140.6160 C   0  0  0  0  0  0  0  0  0  0  0  0
  185.7440  178.5100  143.7800 C   0  0  0  0  0  0  0  0  0  0  0  0
  189.5020  178.3700  141.5900 C   0  0  0  0  0  2  0  0  0  0  0  0
  185.7920  178.6400  142.4190 C   0  0  0  0  0  0  0  0  0  0  0  0
  185.6880  178.2460  146.5890 C   0  0  0  0  0  3  0  0  0  0  0  0
  183.4990  177.8240  139.5290 C   0  0  0  0  0  3  0  0  0  0  0  0
  186.9050  178.2520  145.9110 C   0  0  0  0  0  2  0  0  0  0  0  0
  184.4900  177.8780  140.4240 C   0  0  0  0  0  3  0  0  0  0  0  0
  182.0610  178.9070  142.0090 C   0  0  0  0  0  0  0  0  0  0  0  0
  184.4950  178.3750  145.8820 C   0  0  0  0  0  3  0  0  0  0  0  0
  183.3520  178.6280  143.8230 C   0  0  0  0  0  0  0  0  0  0  0  0
  180.3390  179.8540  140.3690 C   0  0  0  0  0  2  0  0  0  0  0  0
  180.3190  180.4270  138.9590 C   0  0  0  0  0  2  0  0  0  0  0  0
  180.8270  183.5240  137.2940 C   0  0  0  0  0  2  0  0  0  0  0  0
  179.1410  182.4040  138.5750 C   0  0  0  0  0  2  0  0  0  0  0  0
  180.4260  181.8760  139.0030 N   0  0  0  0  0  0  0  0  0  0  0  0
  179.4100  183.6660  137.7900 C   0  0  0  0  0  2  0  0  0  0  0  0
  181.3700  182.2810  137.9690 C   0  0  0  0  0  2  0  0  0  0  0  0
  1 26  1  0  0  0  0
  3 16  1  0  0  0  0
  4 23  1  0  0  0  0
  5 15  1  0  0  0  0
  6 19  1  0  0  0  0
  6  7  1  0  0  0  0
  7  3  1  0  0  0  0
  8 12  1  0  0  0  0
  9 27  1  0  0  0  0
 10 17  2  0  0  0  0
 11  5  2  0  0  0  0
 11 20  1  0  0  0  0
 13  9  1  0  0  0  0
 13 20  2  0  0  0  0
 14  2  2  0  0  0  0
 15  4  1  0  0  0  0
 15 12  1  0  0  0  0
 16  8  1  0  0  0  0
 17 25  1  0  0  0  0
 18  1  1  0  0  0  0
 18  4  2  0  0  0  0
 19  5  1  0  0  0  0
 20 18  1  0  0  0  0
 22 10  1  0  0  0  0
 22 24  2  0  0  0  0
 23 21  1  0  0  0  0
 24 13  1  0  0  0  0
 25  9  2  0  0  0  0
 25 14  1  0  0  0  0
 26 21  2  0  0  0  0
 27  2  1  0  0  0  0
 27  1  2  0  0  0  0
 28 17  1  0  0  0  0
 29 32  1  0  0  0  0
 29 28  1  0  0  0  0
 30 33  1  0  0  0  0
 30 34  1  0  0  0  0
 31 32  1  0  0  0  0
 33 31  1  0  0  0  0
 34 32  1  0  0  0  0
M  END
>  <MODEL>
6

>  <REMARK>
 VINA RESULT:      -8.1      2.623      8.821
  Name = 
  3 active torsions:
  status: ('A' for Active; 'I' for Inactive)
    1  A    between atoms: C_17  and  C_28
    2  A    between atoms: C_28  and  C_29
    3  A    between atoms: C_29  and  N_32
                            x       y       z     vdW  Elec       q    Type
                         _______ _______ _______ _____ _____    ______ ____

>  <TORSDO>
F 3

$$$$
=
 OpenBabel11122412183D

 34 40  0  0  0  0  0  0  0  0999 V2000
  190.3980  177.4180  143.3790 C   0  0  0  0  0  0  0  0  0  0  0  0
  192.4960  177.2550  141.9190 C   0  0  0  0  0  3  0  0  0  0  0  0
  185.7020  180.1180  144.9970 O   0  0  0  0  0  0  0  0  0  0  0  0
  188.3210  177.5250  144.6770 C   0  0  0  0  0  0  0  0  0  0  0  0
  186.1180  177.6130  143.5210 C   0  0  0  0  0  0  0  0  0  0  0  0
  184.3150  179.3000  143.2030 C   0  0  0  0  0  2  0  0  0  0  0  0
  184.4160  180.1920  144.4390 C   0  0  0  0  0  2  0  0  0  0  0  0
  185.1240  178.2360  146.4240 C   0  0  0  0  0  2  0  0  0  0  0  0
  190.3290  177.3980  140.9580 C   0  0  0  0  0  0  0  0  0  0  0  0
  189.7750  177.8250  137.9970 C   0  0  0  0  0  3  0  0  0  0  0  0
  186.7520  177.5790  142.3490 C   0  0  0  0  0  3  0  0  0  0  0  0
  186.2390  177.2620  146.0450 C   0  0  0  0  0  2  0  0  0  0  0  0
  188.8430  177.3820  140.8820 C   0  0  0  0  0  0  0  0  0  0  0  0
  192.5300  177.1800  140.4580 N   0  0  0  0  0  0  0  0  0  0  0  0
  186.8770  177.5520  144.7520 N   0  0  0  0  0  0  0  0  0  0  0  0
  185.5290  179.7100  146.3290 C   0  0  0  0  0  2  0  0  0  0  0  0
  190.8420  177.2130  138.5340 C   0  0  0  0  0  0  0  0  0  0  0  0
  188.9720  177.4820  143.4170 C   0  0  0  0  0  0  0  0  0  0  0  0
  184.6360  177.8340  143.5100 C   0  0  0  0  0  2  0  0  0  0  0  0
  188.2230  177.4950  142.2710 C   0  0  0  0  0  0  0  0  0  0  0  0
  190.4790  177.4530  145.8030 C   0  0  0  0  0  3  0  0  0  0  0  0
  188.7400  178.6160  138.7010 C   0  0  0  0  0  3  0  0  0  0  0  0
  189.0880  177.5130  145.8550 C   0  0  0  0  0  2  0  0  0  0  0  0
  188.3490  178.4650  139.9700 C   0  0  0  0  0  3  0  0  0  0  0  0
  191.1920  177.2870  139.9690 C   0  0  0  0  0  0  0  0  0  0  0  0
  191.1300  177.4030  144.5720 C   0  0  0  0  0  3  0  0  0  0  0  0
  191.0360  177.3710  142.2060 C   0  0  0  0  0  0  0  0  0  0  0  0
  191.7740  176.5220  137.5960 C   0  0  0  0  0  2  0  0  0  0  0  0
  191.5200  175.0220  137.6080 C   0  0  0  0  0  2  0  0  0  0  0  0
  194.3280  173.6370  135.9300 C   0  0  0  0  0  2  0  0  0  0  0  0
  193.8380  175.2920  137.5890 C   0  0  0  0  0  2  0  0  0  0  0  0
  192.7790  174.2980  137.6500 N   0  0  0  0  0  0  0  0  0  0  0  0
  194.9710  174.6990  136.7870 C   0  0  0  0  0  2  0  0  0  0  0  0
  192.8950  173.5390  136.4110 C   0  0  0  0  0  2  0  0  0  0  0  0
  1 18  1  0  0  0  0
  1 26  1  0  0  0  0
  2 27  1  0  0  0  0
  3 16  1  0  0  0  0
  4 15  1  0  0  0  0
  4 23  1  0  0  0  0
  5 15  1  0  0  0  0
  6 19  1  0  0  0  0
  6  7  1  0  0  0  0
  7  3  1  0  0  0  0
  9 27  1  0  0  0  0
 10 17  2  0  0  0  0
 10 22  1  0  0  0  0
 11  5  2  0  0  0  0
 12  8  1  0  0  0  0
 13  9  1  0  0  0  0
 13 20  2  0  0  0  0
 14  2  2  0  0  0  0
 15 12  1  0  0  0  0
 16  8  1  0  0  0  0
 17 25  1  0  0  0  0
 18  4  2  0  0  0  0
 19  5  1  0  0  0  0
 20 11  1  0  0  0  0
 20 18  1  0  0  0  0
 21 23  1  0  0  0  0
 22 24  2  0  0  0  0
 24 13  1  0  0  0  0
 25 14  1  0  0  0  0
 25  9  2  0  0  0  0
 26 21  2  0  0  0  0
 27  1  2  0  0  0  0
 28 29  1  0  0  0  0
 28 17  1  0  0  0  0
 29 32  1  0  0  0  0
 30 34  1  0  0  0  0
 30 33  1  0  0  0  0
 31 32  1  0  0  0  0
 33 31  1  0  0  0  0
 34 32  1  0  0  0  0
M  END
>  <MODEL>
7

>  <REMARK>
 VINA RESULT:      -8.1      4.636      8.046
  Name = 
  3 active torsions:
  status: ('A' for Active; 'I' for Inactive)
    1  A    between atoms: C_17  and  C_28
    2  A    between atoms: C_28  and  C_29
    3  A    between atoms: C_29  and  N_32
                            x       y       z     vdW  Elec       q    Type
                         _______ _______ _______ _____ _____    ______ ____

>  <TORSDO>
F 3

$$$$
=
 OpenBabel11122412183D

 34 40  0  0  1  0  0  0  0  0999 V2000
  186.3120  178.3100  140.1520 C   0  0  0  0  0  0  0  0  0  0  0  0
  188.7810  177.7900  140.5940 C   0  0  0  0  0  3  0  0  0  0  0  0
  180.8250  177.0700  140.7110 O   0  0  0  0  0  0  0  0  0  0  0  0
  183.9430  178.8620  139.8460 C   0  0  2  0  0  3  0  0  0  0  0  0
  182.4730  179.2320  141.8210 C   0  0  0  0  0  0  0  0  0  0  0  0
  180.5730  178.0410  142.9020 C   0  0  0  0  0  2  0  0  0  0  0  0
  179.9130  177.2740  141.7580 C   0  0  0  0  0  2  0  0  0  0  0  0
  180.2510  179.1630  139.6170 C   0  0  0  0  0  2  0  0  0  0  0  0
  187.2470  178.1170  142.3780 C   0  0  0  0  0  0  0  0  0  0  0  0
  187.8590  177.5660  145.3060 C   0  0  0  0  0  3  0  0  0  0  0  0
  183.5140  178.9910  142.6180 C   0  0  0  0  0  3  0  0  0  0  0  0
  181.6420  179.7790  139.4720 C   0  0  0  0  0  2  0  0  0  0  0  0
  185.9880  178.5050  143.0690 C   0  0  0  0  0  0  0  0  0  0  0  0
  189.4280  177.7140  141.9040 N   0  0  0  0  0  0  0  0  0  0  0  0
  182.6480  179.2130  140.3840 N   0  0  0  0  0  0  0  0  0  0  0  0
  180.2410  177.6330  139.5660 C   0  0  0  0  0  2  0  0  0  0  0  0
  188.7350  177.9330  144.3590 C   0  0  0  0  0  0  0  0  0  0  0  0
  185.0370  178.6170  140.7160 C   0  0  0  0  0  0  0  0  0  0  0  0
  181.1260  179.3980  142.4570 C   0  0  0  0  0  2  0  0  0  0  0  0
  184.8500  178.6880  142.0700 C   0  0  0  0  0  0  0  0  0  0  0  0
  185.3820  178.4850  137.9190 C   0  0  0  0  0  3  0  0  0  0  0  0
  186.4540  177.1390  145.1200 C   0  0  0  0  0  3  0  0  0  0  0  0
  184.1330  178.7880  138.4560 C   0  0  0  0  0  3  0  0  0  0  0  0
  185.6350  177.5040  144.1280 C   0  0  0  0  0  3  0  0  0  0  0  0
  188.4330  177.9080  142.9120 C   0  0  0  0  0  0  0  0  0  0  0  0
  186.4660  178.2490  138.7620 C   0  0  0  0  0  3  0  0  0  0  0  0
  187.3600  178.0800  140.9490 C   0  0  0  0  0  0  0  0  0  0  0  0
  190.1180  178.2700  144.8050 C   0  0  0  0  0  2  0  0  0  0  0  0
  190.3350  177.8210  146.2420 C   0  0  0  0  0  2  0  0  0  0  0  0
  192.3680  175.2550  147.6210 C   0  0  0  0  0  2  0  0  0  0  0  0
  191.6390  176.0420  145.4800 C   0  0  0  0  0  2  0  0  0  0  0  0
  191.6330  177.1830  146.3810 N   0  0  0  0  0  0  0  0  0  0  0  0
  192.4310  174.9430  146.1470 C   0  0  0  0  0  2  0  0  0  0  0  0
  191.7050  176.6130  147.7200 C   0  0  0  0  0  2  0  0  0  0  0  0
  1 18  1  0  0  0  0
  1 27  1  0  0  0  0
  2 27  2  0  0  0  0
  2 14  1  0  0  0  0
  3  7  1  0  0  0  0
  4 23  1  6  0  0  0
  4 15  1  0  0  0  0
  4 18  1  0  0  0  0
  5 19  1  0  0  0  0
  5 11  2  0  0  0  0
  7  6  1  0  0  0  0
  9 25  1  0  0  0  0
  9 13  2  0  0  0  0
 12  8  1  0  0  0  0
 12 15  1  0  0  0  0
 13 24  1  0  0  0  0
 14 25  2  0  0  0  0
 15  5  1  0  0  0  0
 16  8  1  0  0  0  0
 16  3  1  0  0  0  0
 17 28  1  0  0  0  0
 17 10  2  0  0  0  0
 18 20  2  0  0  0  0
 19  6  1  0  0  0  0
 20 11  1  0  0  0  0
 20 13  1  0  0  0  0
 21 23  2  0  0  0  0
 21 26  1  0  0  0  0
 22 10  1  0  0  0  0
 24 22  2  0  0  0  0
 25 17  1  0  0  0  0
 26  1  2  0  0  0  0
 27  9  1  0  0  0  0
 28 29  1  0  0  0  0
 29 32  1  0  0  0  0
 30 34  1  0  0  0  0
 31 33  1  0  0  0  0
 31 32  1  0  0  0  0
 32 34  1  0  0  0  0
 33 30  1  0  0  0  0
M  END
>  <MODEL>
8

>  <REMARK>
 VINA RESULT:      -8.0      1.853      4.017
  Name = 
  3 active torsions:
  status: ('A' for Active; 'I' for Inactive)
    1  A    between atoms: C_17  and  C_28
    2  A    between atoms: C_28  and  C_29
    3  A    between atoms: C_29  and  N_32
                            x       y       z     vdW  Elec       q    Type
                         _______ _______ _______ _____ _____    ______ ____

>  <TORSDO>
F 3

$$$$
=
 OpenBabel11122412183D

 34 40  0  0  1  0  0  0  0  0999 V2000
  188.0750  177.3400  143.0690 C   0  0  0  0  0  0  0  0  0  0  0  0
  186.2400  177.4700  144.8520 C   0  0  0  0  0  3  0  0  0  0  0  0
  190.0510  175.3870  138.1460 O   0  0  0  0  0  0  0  0  0  0  0  0
  189.7670  177.3060  141.2960 C   0  0  2  0  0  3  0  0  0  0  0  0
  189.1930  178.0640  138.9950 C   0  0  0  0  0  0  0  0  0  0  0  0
  188.9090  176.9980  136.7640 C   0  0  0  0  0  2  0  0  0  0  0  0
  189.8200  175.7720  136.8170 C   0  0  0  0  0  2  0  0  0  0  0  0
  191.9990  176.8250  138.3700 C   0  0  0  0  0  2  0  0  0  0  0  0
  185.8260  178.1100  142.6020 C   0  0  0  0  0  0  0  0  0  0  0  0
  183.0770  178.7370  141.4600 C   0  0  0  0  0  3  0  0  0  0  0  0
  187.9500  178.3120  139.4060 C   0  0  0  0  0  3  0  0  0  0  0  0
  191.6180  177.5950  139.6330 C   0  0  0  0  0  2  0  0  0  0  0  0
  186.1180  178.4770  141.1900 C   0  0  0  0  0  0  0  0  0  0  0  0
  184.8800  177.9760  144.6590 N   0  0  0  0  0  0  0  0  0  0  0  0
  190.1790  177.5780  139.9370 N   0  0  0  0  0  0  0  0  0  0  0  0
  191.4440  175.3980  138.3220 C   0  0  0  0  0  2  0  0  0  0  0  0
  183.4760  178.9050  142.7310 C   0  0  0  0  0  0  0  0  0  0  0  0
  188.4390  177.5850  141.7100 C   0  0  0  0  0  0  0  0  0  0  0  0
  189.4860  178.1910  137.5300 C   0  0  0  0  0  2  0  0  0  0  0  0
  187.5420  178.0880  140.8070 C   0  0  0  0  0  0  0  0  0  0  0  0
  190.3190  176.5520  143.5440 C   0  0  0  0  0  3  0  0  0  0  0  0
  183.7900  178.0210  140.3780 C   0  0  0  0  0  3  0  0  0  0  0  0
  190.6880  176.7890  142.2220 C   0  0  0  0  0  3  0  0  0  0  0  0
  185.1110  177.8600  140.2650 C   0  0  0  0  0  3  0  0  0  0  0  0
  184.7180  178.3230  143.2820 C   0  0  0  0  0  0  0  0  0  0  0  0
  189.0200  176.8290  143.9660 C   0  0  0  0  0  3  0  0  0  0  0  0
  186.8320  177.5990  143.4880 C   0  0  0  0  0  0  0  0  0  0  0  0
  182.5440  179.6240  143.6470 C   0  0  0  0  0  2  0  0  0  0  0  0
  181.5010  178.6650  144.2000 C   0  0  0  0  0  2  0  0  0  0  0  0
  179.4170  180.3040  141.8350 C   0  0  0  0  0  2  0  0  0  0  0  0
  179.8070  178.1040  142.6960 C   0  0  0  0  0  2  0  0  0  0  0  0
  180.1750  179.0440  143.7410 N   0  0  0  0  0  0  0  0  0  0  0  0
  179.0060  178.8630  141.6660 C   0  0  0  0  0  2  0  0  0  0  0  0
  180.2900  180.3340  143.0730 C   0  0  0  0  0  2  0  0  0  0  0  0
  1 27  1  0  0  0  0
  1 26  2  0  0  0  0
  3 16  1  0  0  0  0
  4 18  1  0  0  0  0
  4 23  1  1  0  0  0
  5 11  2  0  0  0  0
  5 15  1  0  0  0  0
  6  7  1  0  0  0  0
  6 19  1  0  0  0  0
  7  3  1  0  0  0  0
  8 12  1  0  0  0  0
  9 25  1  0  0  0  0
  9 27  1  0  0  0  0
 10 17  2  0  0  0  0
 11 20  1  0  0  0  0
 12 15  1  0  0  0  0
 13  9  2  0  0  0  0
 14  2  1  0  0  0  0
 15  4  1  0  0  0  0
 16  8  1  0  0  0  0
 17 25  1  0  0  0  0
 17 28  1  0  0  0  0
 18  1  1  0  0  0  0
 19  5  1  0  0  0  0
 20 13  1  0  0  0  0
 20 18  2  0  0  0  0
 21 26  1  0  0  0  0
 22 10  1  0  0  0  0
 23 21  2  0  0  0  0
 24 22  2  0  0  0  0
 24 13  1  0  0  0  0
 25 14  2  0  0  0  0
 27  2  2  0  0  0  0
 28 29  1  0  0  0  0
 30 34  1  0  0  0  0
 31 32  1  0  0  0  0
 32 29  1  0  0  0  0
 33 30  1  0  0  0  0
 33 31  1  0  0  0  0
 34 32  1  0  0  0  0
M  END
>  <MODEL>
9

>  <REMARK>
 VINA RESULT:      -8.0      3.395      8.372
  Name = 
  3 active torsions:
  status: ('A' for Active; 'I' for Inactive)
    1  A    between atoms: C_17  and  C_28
    2  A    between atoms: C_28  and  C_29
    3  A    between atoms: C_29  and  N_32
                            x       y       z     vdW  Elec       q    Type
                         _______ _______ _______ _____ _____    ______ ____

>  <TORSDO>
F 3

$$$$
