=
 OpenBabel11122411463D

 37 42  0  0  1  0  0  0  0  0999 V2000
  186.4690  178.6680  142.6550 C   0  0  1  0  0  3  0  0  0  0  0  0
  189.9180  178.4890  143.2630 C   0  0  0  0  0  2  0  0  0  0  0  0
  184.6220  179.0620  140.8500 C   0  0  2  0  0  3  0  0  0  0  0  0
  187.6570  177.7530  142.4100 C   0  0  2  0  0  3  0  0  0  0  0  0
  186.1120  179.1530  141.2440 C   0  0  2  0  0  3  0  0  0  0  0  0
  188.6800  177.6410  143.5530 C   0  0  2  0  0  3  0  0  0  0  0  0
  183.8810  178.0300  141.6880 C   0  0  0  0  0  2  0  0  0  0  0  0
  187.0710  178.4180  140.3240 C   0  0  0  0  0  2  0  0  0  0  0  0
  185.5850  177.7920  144.8360 C   0  0  0  0  0  2  0  0  0  0  0  0
  184.0970  178.3130  143.0410 O   0  0  0  0  0  0  0  0  0  0  0  0
  190.7780  176.4300  142.2380 O   0  0  0  0  0  0  0  0  0  0  0  0
  190.9660  177.8200  142.3470 C   0  0  1  0  0  3  0  0  0  0  0  0
  185.3770  177.8170  143.3260 C   0  0  1  0  0  3  0  0  0  0  0  0
  188.2510  178.1410  141.1380 N   0  0  2  0  0  0  0  0  0  0  0  0
  188.1020  177.8930  144.9610 C   0  0  1  0  0  3  0  0  0  0  0  0
  190.5360  177.1690  141.0590 C   0  0  2  0  0  3  0  0  0  0  0  0
  189.0540  177.0010  140.6750 C   0  0  2  0  0  3  0  0  0  0  0  0
  186.8570  177.0460  145.2270 C   0  0  0  0  0  2  0  0  0  0  0  0
  188.9420  178.1950  147.2970 C   0  0  0  0  0  3  0  0  0  0  0  0
  189.1230  177.6340  146.0290 C   0  0  0  0  0  0  0  0  0  0  0  0
  190.2540  176.8400  145.7760 C   0  0  0  0  0  3  0  0  0  0  0  0
  192.3100  175.8310  146.5340 O   0  0  0  0  0  1  0  0  0  0  0  0
  191.0060  177.1790  148.0520 C   0  0  0  0  0  3  0  0  0  0  0  0
  191.1930  176.6140  146.7870 C   0  0  0  0  0  0  0  0  0  0  0  0
  189.8810  177.9690  148.3070 C   0  0  0  0  0  3  0  0  0  0  0  0
  188.9900  176.7840  139.1490 C   0  0  0  0  0  2  0  0  0  0  0  0
  190.0180  177.5290  138.4080 N   0  0  0  0  0  0  0  0  0  0  0  0
  190.4660  175.2960  137.5450 C   0  0  0  0  0  1  0  0  0  0  0  0
  191.0690  176.6230  137.9640 C   0  0  0  0  0  2  0  0  0  0  0  0
  189.4290  178.1490  137.2250 C   0  0  0  0  0  2  0  0  0  0  0  0
  188.9150  179.4690  137.5550 N   0  0  0  0  0  2  0  0  0  0  0  0
  187.6850  179.5650  136.9970 O   0  0  0  0  0  1  0  0  0  0  0  0
  184.4540  178.7920  139.4800 O   0  0  0  0  0  0  0  0  0  0  0  0
  183.3530  179.5380  139.0160 C   0  0  0  0  0  0  0  0  0  0  0  0
  182.3200  179.5200  139.9410 F   0  0  0  0  0  0  0  0  0  0  0  0
  183.7210  180.8480  138.7500 F   0  0  0  0  0  0  0  0  0  0  0  0
  182.8980  178.9680  137.8440 F   0  0  0  0  0  0  0  0  0  0  0  0
  1 13  1  0  0  0  0
  2  6  1  0  0  0  0
  3  5  1  0  0  0  0
  3  7  1  0  0  0  0
  4  1  1  0  0  0  0
  4  6  1  0  0  0  0
  5  1  1  0  0  0  0
  6 15  1  0  0  0  0
  7 10  1  0  0  0  0
  8 14  1  0  0  0  0
  8  5  1  0  0  0  0
  9 18  1  0  0  0  0
 10 13  1  0  0  0  0
 11 12  1  0  0  0  0
 12  2  1  0  0  0  0
 13  9  1  0  0  0  0
 14  4  1  0  0  0  0
 15 18  1  0  0  0  0
 15 20  1  0  0  0  0
 16 11  1  0  0  0  0
 16 12  1  0  0  0  0
 17 16  1  0  0  0  0
 17 14  1  0  0  0  0
 19 25  1  0  0  0  0
 20 19  2  0  0  0  0
 21 20  1  0  0  0  0
 21 24  2  0  0  0  0
 22 24  1  0  0  0  0
 23 25  2  0  0  0  0
 24 23  1  0  0  0  0
 26 17  1  0  0  0  0
 27 26  1  0  0  0  0
 28 29  1  0  0  0  0
 29 27  1  0  0  0  0
 30 31  1  0  0  0  0
 30 27  1  0  0  0  0
 32 31  1  0  0  0  0
 33  3  1  0  0  0  0
 34 33  1  0  0  0  0
 34 35  1  0  0  0  0
 36 34  1  0  0  0  0
 37 34  1  0  0  0  0
M  END
>  <MODEL>
1

>  <REMARK>
 VINA RESULT:      -9.2      0.000      0.000
  Name = 
  8 active torsions:
  status: ('A' for Active; 'I' for Inactive)
    1  A    between atoms: C_1  and  N_4
    2  A    between atoms: C_1  and  C_27
    3  A    between atoms: C_2  and  O_22
    4  A    between atoms: N_4  and  C_12
    5  A    between atoms: N_4  and  C_37
    6  A    between atoms: C_6  and  O_22
    7  A    between atoms: N_8  and  C_12
    8  A    between atoms: C_23  and  C_30
                            x       y       z     vdW  Elec       q    Type
                         _______ _______ _______ _____ _____    ______ ____

>  <TORSDO>
F 8

$$$$
=
 OpenBabel11122411463D

 37 42  0  0  1  0  0  0  0  0999 V2000
  187.4240  177.4880  141.9920 C   0  0  1  0  0  3  0  0  0  0  0  0
  190.4850  175.7910  142.2210 C   0  0  0  0  0  2  0  0  0  0  0  0
  185.3190  178.3100  143.3020 C   0  0  2  0  0  3  0  0  0  0  0  0
  188.8350  177.6790  142.5250 C   0  0  2  0  0  3  0  0  0  0  0  0
  186.5800  177.4200  143.2720 C   0  0  2  0  0  3  0  0  0  0  0  0
  189.9740  177.1170  141.6580 C   0  0  2  0  0  3  0  0  0  0  0  0
  185.4300  179.4750  142.3280 C   0  0  0  0  0  2  0  0  0  0  0  0
  187.5660  177.6530  144.4030 C   0  0  0  0  0  2  0  0  0  0  0  0
  187.6150  178.4400  139.6770 C   0  0  0  0  0  2  0  0  0  0  0  0
  185.7400  178.9690  141.0600 O   0  0  0  0  0  0  0  0  0  0  0  0
  192.0660  177.2120  143.4510 O   0  0  0  0  0  0  0  0  0  0  0  0
  191.5100  175.9220  143.3690 C   0  0  1  0  0  3  0  0  0  0  0  0
  187.1150  178.6970  141.0940 C   0  0  1  0  0  3  0  0  0  0  0  0
  188.8530  177.1870  143.8950 N   0  0  2  0  0  0  0  0  0  0  0  0
  189.6600  177.0420  140.1500 C   0  0  1  0  0  3  0  0  0  0  0  0
  191.2300  176.8420  144.5280 C   0  0  2  0  0  3  0  0  0  0  0  0
  190.0190  177.7930  144.5520 C   0  0  2  0  0  3  0  0  0  0  0  0
  189.1370  178.3740  139.6090 C   0  0  0  0  0  2  0  0  0  0  0  0
  192.0970  177.2120  139.6180 C   0  0  0  0  0  3  0  0  0  0  0  0
  190.8600  176.6140  139.3580 C   0  0  0  0  0  0  0  0  0  0  0  0
  190.7600  175.6270  138.3650 C   0  0  0  0  0  3  0  0  0  0  0  0
  191.7900  174.2720  136.6560 O   0  0  0  0  0  1  0  0  0  0  0  0
  193.1260  175.8480  137.9010 C   0  0  0  0  0  3  0  0  0  0  0  0
  191.8920  175.2460  137.6380 C   0  0  0  0  0  0  0  0  0  0  0  0
  193.2280  176.8300  138.8910 C   0  0  0  0  0  3  0  0  0  0  0  0
  189.7630  178.1830  146.0220 C   0  0  0  0  0  2  0  0  0  0  0  0
  189.8680  177.0510  146.9550 N   0  0  0  0  0  0  0  0  0  0  0  0
  191.9550  176.0520  147.7130 C   0  0  0  0  0  1  0  0  0  0  0  0
  191.0140  177.2340  147.8360 C   0  0  0  0  0  2  0  0  0  0  0  0
  188.6700  176.9780  147.7870 C   0  0  0  0  0  2  0  0  0  0  0  0
  188.1650  178.3160  148.0540 N   0  0  0  0  0  2  0  0  0  0  0  0
  186.8390  178.3000  147.7810 O   0  0  0  0  0  1  0  0  0  0  0  0
  185.0380  178.7810  144.5970 O   0  0  0  0  0  0  0  0  0  0  0  0
  183.6550  179.0370  144.6810 C   0  0  0  0  0  0  0  0  0  0  0  0
  183.3680  180.3320  144.2760 F   0  0  0  0  0  0  0  0  0  0  0  0
  182.9380  178.1350  143.9110 F   0  0  0  0  0  0  0  0  0  0  0  0
  183.2610  178.8960  145.9970 F   0  0  0  0  0  0  0  0  0  0  0  0
  1  4  1  0  0  0  0
  1  5  1  0  0  0  0
  2 12  1  0  0  0  0
  3 33  1  0  0  0  0
  4 14  1  0  0  0  0
  5  3  1  0  0  0  0
  5  8  1  0  0  0  0
  6  2  1  0  0  0  0
  6  4  1  0  0  0  0
  7  3  1  0  0  0  0
  9 13  1  0  0  0  0
 10 13  1  0  0  0  0
 10  7  1  0  0  0  0
 11 16  1  0  0  0  0
 12 11  1  0  0  0  0
 12 16  1  0  0  0  0
 13  1  1  0  0  0  0
 14  8  1  0  0  0  0
 14 17  1  0  0  0  0
 15  6  1  0  0  0  0
 16 17  1  0  0  0  0
 17 26  1  0  0  0  0
 18  9  1  0  0  0  0
 18 15  1  0  0  0  0
 20 19  1  0  0  0  0
 20 15  1  0  0  0  0
 21 20  2  0  0  0  0
 22 24  1  0  0  0  0
 23 25  1  0  0  0  0
 24 23  2  0  0  0  0
 24 21  1  0  0  0  0
 25 19  2  0  0  0  0
 26 27  1  0  0  0  0
 27 30  1  0  0  0  0
 27 29  1  0  0  0  0
 28 29  1  0  0  0  0
 30 31  1  0  0  0  0
 32 31  1  0  0  0  0
 33 34  1  0  0  0  0
 34 37  1  0  0  0  0
 35 34  1  0  0  0  0
 36 34  1  0  0  0  0
M  END
>  <MODEL>
2

>  <REMARK>
 VINA RESULT:      -8.8      2.858      6.653
  Name = 
  8 active torsions:
  status: ('A' for Active; 'I' for Inactive)
    1  A    between atoms: C_1  and  N_4
    2  A    between atoms: C_1  and  C_27
    3  A    between atoms: C_2  and  O_22
    4  A    between atoms: N_4  and  C_12
    5  A    between atoms: N_4  and  C_37
    6  A    between atoms: C_6  and  O_22
    7  A    between atoms: N_8  and  C_12
    8  A    between atoms: C_23  and  C_30
                            x       y       z     vdW  Elec       q    Type
                         _______ _______ _______ _____ _____    ______ ____

>  <TORSDO>
F 8

$$$$
=
 OpenBabel11122411463D

 37 42  0  0  1  0  0  0  0  0999 V2000
  186.2390  177.5110  144.3260 C   0  0  1  0  0  3  0  0  0  0  0  0
  184.0830  177.6360  141.5620 C   0  0  0  0  0  2  0  0  0  0  0  0
  188.6670  176.9850  145.1350 C   0  0  2  0  0  3  0  0  0  0  0  0
  185.9630  178.3520  143.0900 C   0  0  2  0  0  3  0  0  0  0  0  0
  187.6070  176.8870  144.0170 C   0  0  2  0  0  3  0  0  0  0  0  0
  184.4840  178.5530  142.7170 C   0  0  2  0  0  3  0  0  0  0  0  0
  188.3670  178.1290  146.0940 C   0  0  0  0  0  2  0  0  0  0  0  0
  188.0160  177.4840  142.6820 C   0  0  0  0  0  2  0  0  0  0  0  0
  184.8180  178.6500  146.0530 C   0  0  0  0  0  2  0  0  0  0  0  0
  187.0560  177.9880  146.5630 O   0  0  0  0  0  0  0  0  0  0  0  0
  184.7380  179.5390  140.1560 O   0  0  0  0  0  0  0  0  0  0  0  0
  184.4420  178.1640  140.1560 C   0  0  1  0  0  3  0  0  0  0  0  0
  186.2380  178.4670  145.5300 C   0  0  1  0  0  3  0  0  0  0  0  0
  186.7640  177.8070  142.0030 N   0  0  2  0  0  0  0  0  0  0  0  0
  183.5050  178.4770  143.9060 C   0  0  1  0  0  3  0  0  0  0  0  0
  185.8270  178.6840  139.8770 C   0  0  2  0  0  3  0  0  0  0  0  0
  186.8800  178.8610  140.9860 C   0  0  2  0  0  3  0  0  0  0  0  0
  183.9310  179.3900  145.0570 C   0  0  0  0  0  2  0  0  0  0  0  0
  181.0420  178.5020  144.3420 C   0  0  0  0  0  3  0  0  0  0  0  0
  182.1040  178.8150  143.4880 C   0  0  0  0  0  0  0  0  0  0  0  0
  181.8450  179.4400  142.2570 C   0  0  0  0  0  3  0  0  0  0  0  0
  180.2770  180.3580  140.6710 O   0  0  0  0  0  1  0  0  0  0  0  0
  179.4740  179.4270  142.7460 C   0  0  0  0  0  3  0  0  0  0  0  0
  180.5310  179.7430  141.8880 C   0  0  0  0  0  0  0  0  0  0  0  0
  179.7290  178.8060  143.9730 C   0  0  0  0  0  3  0  0  0  0  0  0
  188.2650  178.9120  140.3090 C   0  0  0  0  0  2  0  0  0  0  0  0
  188.3090  178.2190  139.0130 N   0  0  0  0  0  0  0  0  0  0  0  0
  188.8130  178.4370  136.6400 C   0  0  0  0  0  1  0  0  0  0  0  0
  188.9360  179.0720  138.0120 C   0  0  0  0  0  2  0  0  0  0  0  0
  189.1050  177.0000  139.1260 C   0  0  0  0  0  2  0  0  0  0  0  0
  190.3690  177.2880  139.7860 N   0  0  0  0  0  2  0  0  0  0  0  0
  190.6050  176.2720  140.6500 O   0  0  0  0  0  1  0  0  0  0  0  0
  189.9690  177.1100  144.6180 O   0  0  0  0  0  0  0  0  0  0  0  0
  190.8760  176.6540  145.5950 C   0  0  0  0  0  0  0  0  0  0  0  0
  190.2020  176.1800  146.7110 F   0  0  0  0  0  0  0  0  0  0  0  0
  191.6930  175.6580  145.0830 F   0  0  0  0  0  0  0  0  0  0  0  0
  191.6720  177.7120  145.9840 F   0  0  0  0  0  0  0  0  0  0  0  0
  1 13  1  0  0  0  0
  2  6  1  0  0  0  0
  3  7  1  0  0  0  0
  4  1  1  0  0  0  0
  5  1  1  0  0  0  0
  5  3  1  0  0  0  0
  6  4  1  0  0  0  0
  6 15  1  0  0  0  0
  7 10  1  0  0  0  0
  8  5  1  0  0  0  0
 11 12  1  0  0  0  0
 12  2  1  0  0  0  0
 13  9  1  0  0  0  0
 13 10  1  0  0  0  0
 14  8  1  0  0  0  0
 14  4  1  0  0  0  0
 15 18  1  0  0  0  0
 16 11  1  0  0  0  0
 16 12  1  0  0  0  0
 16 17  1  0  0  0  0
 17 14  1  0  0  0  0
 18  9  1  0  0  0  0
 20 15  1  0  0  0  0
 20 19  2  0  0  0  0
 21 20  1  0  0  0  0
 22 24  1  0  0  0  0
 23 25  2  0  0  0  0
 24 21  2  0  0  0  0
 24 23  1  0  0  0  0
 25 19  1  0  0  0  0
 26 17  1  0  0  0  0
 27 30  1  0  0  0  0
 27 26  1  0  0  0  0
 28 29  1  0  0  0  0
 29 27  1  0  0  0  0
 30 31  1  0  0  0  0
 31 32  1  0  0  0  0
 33  3  1  0  0  0  0
 33 34  1  0  0  0  0
 34 37  1  0  0  0  0
 34 35  1  0  0  0  0
 36 34  1  0  0  0  0
M  END
>  <MODEL>
3

>  <REMARK>
 VINA RESULT:      -8.7      3.869      7.105
  Name = 
  8 active torsions:
  status: ('A' for Active; 'I' for Inactive)
    1  A    between atoms: C_1  and  N_4
    2  A    between atoms: C_1  and  C_27
    3  A    between atoms: C_2  and  O_22
    4  A    between atoms: N_4  and  C_12
    5  A    between atoms: N_4  and  C_37
    6  A    between atoms: C_6  and  O_22
    7  A    between atoms: N_8  and  C_12
    8  A    between atoms: C_23  and  C_30
                            x       y       z     vdW  Elec       q    Type
                         _______ _______ _______ _____ _____    ______ ____

>  <TORSDO>
F 8

$$$$
=
 OpenBabel11122411463D

 37 42  0  0  1  0  0  0  0  0999 V2000
  186.3750  178.6670  142.4340 C   0  0  1  0  0  3  0  0  0  0  0  0
  189.8460  178.4400  142.8850 C   0  0  0  0  0  2  0  0  0  0  0  0
  184.4540  179.1040  140.7180 C   0  0  2  0  0  3  0  0  0  0  0  0
  187.5400  177.7410  142.1260 C   0  0  2  0  0  3  0  0  0  0  0  0
  185.9620  179.1720  141.0450 C   0  0  2  0  0  3  0  0  0  0  0  0
  188.6110  177.6040  143.2210 C   0  0  2  0  0  3  0  0  0  0  0  0
  183.7390  178.0700  141.5760 C   0  0  0  0  0  2  0  0  0  0  0  0
  186.8700  178.4370  140.0760 C   0  0  0  0  0  2  0  0  0  0  0  0
  185.5790  177.7770  144.6420 C   0  0  0  0  0  2  0  0  0  0  0  0
  184.0190  178.3360  142.9220 O   0  0  0  0  0  0  0  0  0  0  0  0
  190.6340  176.3840  141.8000 O   0  0  0  0  0  0  0  0  0  0  0  0
  190.8440  177.7700  141.9150 C   0  0  1  0  0  3  0  0  0  0  0  0
  185.3040  177.8220  143.1440 C   0  0  1  0  0  3  0  0  0  0  0  0
  188.0810  178.1370  140.8330 N   0  0  2  0  0  0  0  0  0  0  0  0
  188.1000  177.8460  144.6560 C   0  0  1  0  0  3  0  0  0  0  0  0
  190.3480  177.1390  140.6410 C   0  0  2  0  0  3  0  0  0  0  0  0
  188.8490  176.9930  140.3220 C   0  0  2  0  0  3  0  0  0  0  0  0
  186.8580  177.0110  144.9680 C   0  0  0  0  0  2  0  0  0  0  0  0
  190.2900  176.8240  145.2980 C   0  0  0  0  0  3  0  0  0  0  0  0
  189.1650  177.5630  145.6740 C   0  0  0  0  0  0  0  0  0  0  0  0
  189.0490  178.0280  146.9940 C   0  0  0  0  0  3  0  0  0  0  0  0
  189.9350  178.2080  149.2310 O   0  0  0  0  0  1  0  0  0  0  0  0
  191.1750  177.0090  147.5440 C   0  0  0  0  0  3  0  0  0  0  0  0
  190.0530  177.7500  147.9270 C   0  0  0  0  0  0  0  0  0  0  0  0
  191.2940  176.5460  146.2300 C   0  0  0  0  0  3  0  0  0  0  0  0
  188.7140  176.7940  138.7990 C   0  0  0  0  0  2  0  0  0  0  0  0
  189.8800  177.2710  138.0400 N   0  0  0  0  0  0  0  0  0  0  0  0
  192.0800  176.4060  137.4510 C   0  0  0  0  0  1  0  0  0  0  0  0
  190.5860  176.1420  137.4480 C   0  0  0  0  0  2  0  0  0  0  0  0
  189.4470  178.1470  136.9570 C   0  0  0  0  0  2  0  0  0  0  0  0
  188.9800  179.4150  137.4960 N   0  0  0  0  0  2  0  0  0  0  0  0
  187.7640  179.6540  136.9500 O   0  0  0  0  0  1  0  0  0  0  0  0
  184.2230  178.8510  139.3540 O   0  0  0  0  0  0  0  0  0  0  0  0
  183.1300  179.6390  138.9400 C   0  0  0  0  0  0  0  0  0  0  0  0
  182.5990  179.1600  137.7520 F   0  0  0  0  0  0  0  0  0  0  0  0
  182.1460  179.6680  139.9160 F   0  0  0  0  0  0  0  0  0  0  0  0
  183.5730  180.9300  138.7300 F   0  0  0  0  0  0  0  0  0  0  0  0
  1 13  1  0  0  0  0
  2  6  1  0  0  0  0
  3  5  1  0  0  0  0
  3  7  1  0  0  0  0
  4  1  1  0  0  0  0
  4  6  1  0  0  0  0
  5  1  1  0  0  0  0
  6 15  1  0  0  0  0
  7 10  1  0  0  0  0
  8 14  1  0  0  0  0
  8  5  1  0  0  0  0
  9 18  1  0  0  0  0
 10 13  1  0  0  0  0
 11 12  1  0  0  0  0
 12  2  1  0  0  0  0
 13  9  1  0  0  0  0
 14  4  1  0  0  0  0
 15 18  1  0  0  0  0
 15 20  1  0  0  0  0
 16 11  1  0  0  0  0
 16 12  1  0  0  0  0
 17 16  1  0  0  0  0
 17 14  1  0  0  0  0
 19 20  2  0  0  0  0
 19 25  1  0  0  0  0
 20 21  1  0  0  0  0
 21 24  2  0  0  0  0
 23 24  1  0  0  0  0
 24 22  1  0  0  0  0
 25 23  2  0  0  0  0
 26 17  1  0  0  0  0
 27 26  1  0  0  0  0
 29 28  1  0  0  0  0
 29 27  1  0  0  0  0
 30 31  1  0  0  0  0
 30 27  1  0  0  0  0
 32 31  1  0  0  0  0
 33  3  1  0  0  0  0
 34 33  1  0  0  0  0
 34 36  1  0  0  0  0
 35 34  1  0  0  0  0
 37 34  1  0  0  0  0
M  END
>  <MODEL>
4

>  <REMARK>
 VINA RESULT:      -8.6      0.817      1.332
  Name = 
  8 active torsions:
  status: ('A' for Active; 'I' for Inactive)
    1  A    between atoms: C_1  and  N_4
    2  A    between atoms: C_1  and  C_27
    3  A    between atoms: C_2  and  O_22
    4  A    between atoms: N_4  and  C_12
    5  A    between atoms: N_4  and  C_37
    6  A    between atoms: C_6  and  O_22
    7  A    between atoms: N_8  and  C_12
    8  A    between atoms: C_23  and  C_30
                            x       y       z     vdW  Elec       q    Type
                         _______ _______ _______ _____ _____    ______ ____

>  <TORSDO>
F 8

$$$$
=
 OpenBabel11122411463D

 37 42  0  0  1  0  0  0  0  0999 V2000
  186.6070  178.6730  142.5920 C   0  0  1  0  0  3  0  0  0  0  0  0
  190.0510  178.4290  143.2090 C   0  0  0  0  0  2  0  0  0  0  0  0
  184.7730  179.0970  140.7820 C   0  0  2  0  0  3  0  0  0  0  0  0
  187.7790  177.7340  142.3530 C   0  0  2  0  0  3  0  0  0  0  0  0
  186.2640  179.1600  141.1780 C   0  0  2  0  0  3  0  0  0  0  0  0
  188.7970  177.6060  143.4990 C   0  0  2  0  0  3  0  0  0  0  0  0
  184.0110  178.0810  141.6200 C   0  0  0  0  0  2  0  0  0  0  0  0
  187.2110  178.4040  140.2630 C   0  0  0  0  0  2  0  0  0  0  0  0
  185.7020  177.8210  144.7730 C   0  0  0  0  0  2  0  0  0  0  0  0
  184.2280  178.3640  142.9730 O   0  0  0  0  0  0  0  0  0  0  0  0
  190.8740  176.3510  142.1920 O   0  0  0  0  0  0  0  0  0  0  0  0
  191.0890  177.7380  142.2970 C   0  0  1  0  0  3  0  0  0  0  0  0
  185.4980  177.8450  143.2630 C   0  0  1  0  0  3  0  0  0  0  0  0
  188.3830  178.1070  141.0810 N   0  0  2  0  0  0  0  0  0  0  0  0
  188.2200  177.8730  144.9040 C   0  0  1  0  0  3  0  0  0  0  0  0
  190.6490  177.0920  141.0110 C   0  0  2  0  0  3  0  0  0  0  0  0
  189.1650  176.9510  140.6240 C   0  0  2  0  0  3  0  0  0  0  0  0
  186.9580  177.0510  145.1700 C   0  0  0  0  0  2  0  0  0  0  0  0
  189.0580  178.1630  147.2430 C   0  0  0  0  0  3  0  0  0  0  0  0
  189.2340  177.5980  145.9760 C   0  0  0  0  0  0  0  0  0  0  0  0
  190.3520  176.7850  145.7270 C   0  0  0  0  0  3  0  0  0  0  0  0
  192.3880  175.7430  146.4920 O   0  0  0  0  0  1  0  0  0  0  0  0
  191.1030  177.1130  148.0050 C   0  0  0  0  0  3  0  0  0  0  0  0
  191.2840  176.5450  146.7410 C   0  0  0  0  0  0  0  0  0  0  0  0
  189.9900  177.9220  148.2560 C   0  0  0  0  0  3  0  0  0  0  0  0
  189.1010  176.7300  139.0980 C   0  0  0  0  0  2  0  0  0  0  0  0
  190.2920  176.0620  138.5520 N   0  0  0  0  0  0  0  0  0  0  0  0
  188.7220  175.5180  136.7710 C   0  0  0  0  0  1  0  0  0  0  0  0
  189.8940  175.0320  137.6020 C   0  0  0  0  0  2  0  0  0  0  0  0
  191.1250  177.0290  137.8440 C   0  0  0  0  0  2  0  0  0  0  0  0
  192.3270  176.3790  137.3420 N   0  0  0  0  0  2  0  0  0  0  0  0
  193.2060  176.3250  138.3700 O   0  0  0  0  0  1  0  0  0  0  0  0
  184.6040  178.8260  139.4120 O   0  0  0  0  0  0  0  0  0  0  0  0
  183.4940  179.5620  138.9510 C   0  0  0  0  0  0  0  0  0  0  0  0
  182.4520  179.5080  139.8650 F   0  0  0  0  0  0  0  0  0  0  0  0
  183.8430  180.8830  138.7160 F   0  0  0  0  0  0  0  0  0  0  0  0
  183.0610  179.0090  137.7630 F   0  0  0  0  0  0  0  0  0  0  0  0
  1 13  1  0  0  0  0
  2  6  1  0  0  0  0
  3  5  1  0  0  0  0
  3  7  1  0  0  0  0
  4  1  1  0  0  0  0
  4  6  1  0  0  0  0
  5  1  1  0  0  0  0
  6 15  1  0  0  0  0
  7 10  1  0  0  0  0
  8 14  1  0  0  0  0
  8  5  1  0  0  0  0
  9 18  1  0  0  0  0
 10 13  1  0  0  0  0
 11 12  1  0  0  0  0
 12  2  1  0  0  0  0
 13  9  1  0  0  0  0
 14  4  1  0  0  0  0
 15 18  1  0  0  0  0
 15 20  1  0  0  0  0
 16 11  1  0  0  0  0
 16 12  1  0  0  0  0
 17 16  1  0  0  0  0
 17 14  1  0  0  0  0
 19 25  1  0  0  0  0
 20 19  2  0  0  0  0
 21 20  1  0  0  0  0
 21 24  2  0  0  0  0
 22 24  1  0  0  0  0
 23 25  2  0  0  0  0
 24 23  1  0  0  0  0
 26 17  1  0  0  0  0
 27 26  1  0  0  0  0
 28 29  1  0  0  0  0
 29 27  1  0  0  0  0
 30 27  1  0  0  0  0
 31 30  1  0  0  0  0
 31 32  1  0  0  0  0
 33  3  1  0  0  0  0
 34 33  1  0  0  0  0
 34 35  1  0  0  0  0
 36 34  1  0  0  0  0
 37 34  1  0  0  0  0
M  END
>  <MODEL>
5

>  <REMARK>
 VINA RESULT:      -8.3      1.018      1.463
  Name = 
  8 active torsions:
  status: ('A' for Active; 'I' for Inactive)
    1  A    between atoms: C_1  and  N_4
    2  A    between atoms: C_1  and  C_27
    3  A    between atoms: C_2  and  O_22
    4  A    between atoms: N_4  and  C_12
    5  A    between atoms: N_4  and  C_37
    6  A    between atoms: C_6  and  O_22
    7  A    between atoms: N_8  and  C_12
    8  A    between atoms: C_23  and  C_30
                            x       y       z     vdW  Elec       q    Type
                         _______ _______ _______ _____ _____    ______ ____

>  <TORSDO>
F 8

$$$$
=
 OpenBabel11122411463D

 37 42  0  0  1  0  0  0  0  0999 V2000
  190.1020  176.9990  141.8920 C   0  0  1  0  0  3  0  0  0  0  0  0
  187.0400  177.0120  143.6020 C   0  0  0  0  0  2  0  0  0  0  0  0
  191.2640  176.7480  139.5660 C   0  0  2  0  0  3  0  0  0  0  0  0
  188.8740  177.8720  142.0940 C   0  0  2  0  0  3  0  0  0  0  0  0
  189.9880  176.5810  140.4200 C   0  0  2  0  0  3  0  0  0  0  0  0
  188.2810  177.9000  143.5120 C   0  0  2  0  0  3  0  0  0  0  0  0
  192.2090  177.7790  140.1640 C   0  0  0  0  0  2  0  0  0  0  0  0
  188.7600  177.3090  139.9010 C   0  0  0  0  0  2  0  0  0  0  0  0
  191.6280  177.8300  143.7040 C   0  0  0  0  0  2  0  0  0  0  0  0
  192.4580  177.4380  141.4980 O   0  0  0  0  0  0  0  0  0  0  0  0
  185.8350  179.0700  143.0150 O   0  0  0  0  0  0  0  0  0  0  0  0
  185.7310  177.6700  143.1120 C   0  0  1  0  0  3  0  0  0  0  0  0
  191.3300  177.8690  142.2100 C   0  0  1  0  0  3  0  0  0  0  0  0
  187.9060  177.5060  141.0690 N   0  0  2  0  0  0  0  0  0  0  0  0
  189.2950  177.6210  144.6400 C   0  0  1  0  0  3  0  0  0  0  0  0
  185.6970  178.3840  141.7880 C   0  0  2  0  0  3  0  0  0  0  0  0
  186.9650  178.6280  140.9490 C   0  0  2  0  0  3  0  0  0  0  0  0
  190.5360  178.5090  144.5250 C   0  0  0  0  0  2  0  0  0  0  0  0
  189.4290  177.5030  147.1340 C   0  0  0  0  0  3  0  0  0  0  0  0
  188.6750  177.7980  145.9940 C   0  0  0  0  0  0  0  0  0  0  0  0
  187.3540  178.2540  146.1340 C   0  0  0  0  0  3  0  0  0  0  0  0
  185.4910  178.8570  147.5430 O   0  0  0  0  0  1  0  0  0  0  0  0
  187.5560  178.1110  148.5430 C   0  0  0  0  0  3  0  0  0  0  0  0
  186.7970  178.4080  147.4070 C   0  0  0  0  0  0  0  0  0  0  0  0
  188.8710  177.6580  148.4060 C   0  0  0  0  0  3  0  0  0  0  0  0
  186.5190  178.9030  139.4980 C   0  0  0  0  0  2  0  0  0  0  0  0
  185.1190  178.5360  139.2370 N   0  0  0  0  0  0  0  0  0  0  0  0
  182.8350  179.3690  139.0880 C   0  0  0  0  0  1  0  0  0  0  0  0
  184.3060  179.7360  139.0930 C   0  0  0  0  0  2  0  0  0  0  0  0
  185.0260  177.7790  137.9920 C   0  0  0  0  0  2  0  0  0  0  0  0
  186.3200  177.7490  137.3280 N   0  0  0  0  0  2  0  0  0  0  0  0
  186.5610  176.4610  136.9890 O   0  0  0  0  0  1  0  0  0  0  0  0
  190.9640  177.0750  138.2310 O   0  0  0  0  0  0  0  0  0  0  0  0
  191.6980  176.2130  137.3920 C   0  0  0  0  0  0  0  0  0  0  0  0
  191.8400  174.9620  137.9730 F   0  0  0  0  0  0  0  0  0  0  0  0
  191.0860  176.0890  136.1550 F   0  0  0  0  0  0  0  0  0  0  0  0
  192.9560  176.7500  137.2020 F   0  0  0  0  0  0  0  0  0  0  0  0
  1  4  1  0  0  0  0
  1 13  1  0  0  0  0
  3  7  1  0  0  0  0
  3  5  1  0  0  0  0
  4  6  1  0  0  0  0
  5  1  1  0  0  0  0
  6  2  1  0  0  0  0
  6 15  1  0  0  0  0
  7 10  1  0  0  0  0
  8  5  1  0  0  0  0
  8 14  1  0  0  0  0
  9 18  1  0  0  0  0
 10 13  1  0  0  0  0
 11 12  1  0  0  0  0
 12  2  1  0  0  0  0
 13  9  1  0  0  0  0
 14  4  1  0  0  0  0
 15 20  1  0  0  0  0
 16 11  1  0  0  0  0
 16 12  1  0  0  0  0
 17 14  1  0  0  0  0
 17 16  1  0  0  0  0
 18 15  1  0  0  0  0
 19 25  1  0  0  0  0
 20 21  1  0  0  0  0
 20 19  2  0  0  0  0
 21 24  2  0  0  0  0
 24 22  1  0  0  0  0
 24 23  1  0  0  0  0
 25 23  2  0  0  0  0
 26 17  1  0  0  0  0
 27 26  1  0  0  0  0
 28 29  1  0  0  0  0
 29 27  1  0  0  0  0
 30 27  1  0  0  0  0
 31 30  1  0  0  0  0
 32 31  1  0  0  0  0
 33  3  1  0  0  0  0
 34 35  1  0  0  0  0
 34 33  1  0  0  0  0
 36 34  1  0  0  0  0
 37 34  1  0  0  0  0
M  END
>  <MODEL>
6

>  <REMARK>
 VINA RESULT:      -8.1      3.305      5.668
  Name = 
  8 active torsions:
  status: ('A' for Active; 'I' for Inactive)
    1  A    between atoms: C_1  and  N_4
    2  A    between atoms: C_1  and  C_27
    3  A    between atoms: C_2  and  O_22
    4  A    between atoms: N_4  and  C_12
    5  A    between atoms: N_4  and  C_37
    6  A    between atoms: C_6  and  O_22
    7  A    between atoms: N_8  and  C_12
    8  A    between atoms: C_23  and  C_30
                            x       y       z     vdW  Elec       q    Type
                         _______ _______ _______ _____ _____    ______ ____

>  <TORSDO>
F 8

$$$$
=
 OpenBabel11122411463D

 37 42  0  0  1  0  0  0  0  0999 V2000
  185.6080  178.9390  140.8430 C   0  0  1  0  0  3  0  0  0  0  0  0
  189.0310  178.7080  140.1150 C   0  0  0  0  0  2  0  0  0  0  0  0
  183.2170  179.2830  139.8470 C   0  0  2  0  0  3  0  0  0  0  0  0
  186.6130  177.9840  140.2210 C   0  0  2  0  0  3  0  0  0  0  0  0
  184.7460  179.3570  139.6440 C   0  0  2  0  0  3  0  0  0  0  0  0
  187.9910  177.9070  140.8990 C   0  0  2  0  0  3  0  0  0  0  0  0
  182.8450  178.3140  140.9600 C   0  0  0  0  0  2  0  0  0  0  0  0
  185.2850  178.5510  138.4750 C   0  0  0  0  0  2  0  0  0  0  0  0
  185.6100  178.2020  143.2420 C   0  0  0  0  0  2  0  0  0  0  0  0
  183.5560  178.6630  142.1130 O   0  0  0  0  0  0  0  0  0  0  0  0
  189.4340  176.5770  138.9630 O   0  0  0  0  0  0  0  0  0  0  0  0
  189.6540  177.9660  138.9120 C   0  0  1  0  0  3  0  0  0  0  0  0
  184.8480  178.1520  141.9230 C   0  0  1  0  0  3  0  0  0  0  0  0
  186.6840  178.2900  138.7990 N   0  0  2  0  0  0  0  0  0  0  0  0
  187.9890  178.2470  142.4040 C   0  0  1  0  0  3  0  0  0  0  0  0
  188.7670  177.2590  137.9220 C   0  0  2  0  0  3  0  0  0  0  0  0
  187.2500  177.1070  138.1350 C   0  0  2  0  0  3  0  0  0  0  0  0
  186.9330  177.4460  143.1680 C   0  0  0  0  0  2  0  0  0  0  0  0
  190.0540  179.1130  143.5170 C   0  0  0  0  0  3  0  0  0  0  0  0
  189.3370  178.0200  143.0220 C   0  0  0  0  0  0  0  0  0  0  0  0
  189.8870  176.7310  143.1110 C   0  0  0  0  0  3  0  0  0  0  0  0
  191.6890  175.2700  143.7730 O   0  0  0  0  0  1  0  0  0  0  0  0
  191.8580  177.6420  144.1810 C   0  0  0  0  0  3  0  0  0  0  0  0
  191.1460  176.5440  143.6890 C   0  0  0  0  0  0  0  0  0  0  0  0
  191.3120  178.9260  144.0950 C   0  0  0  0  0  3  0  0  0  0  0  0
  186.6140  176.8120  136.7610 C   0  0  0  0  0  2  0  0  0  0  0  0
  185.6210  175.7270  136.7960 N   0  0  0  0  0  0  0  0  0  0  0  0
  183.2110  175.9840  136.5560 C   0  0  0  0  0  1  0  0  0  0  0  0
  184.5510  175.9990  135.8460 C   0  0  0  0  0  2  0  0  0  0  0  0
  186.2470  174.4650  136.4180 C   0  0  0  0  0  2  0  0  0  0  0  0
  186.3710  173.6000  137.5810 N   0  0  0  0  0  2  0  0  0  0  0  0
  185.1360  173.1130  137.8460 O   0  0  0  0  0  1  0  0  0  0  0  0
  182.5440  178.9450  138.6590 O   0  0  0  0  0  0  0  0  0  0  0  0
  181.7380  180.0380  138.2840 C   0  0  0  0  0  0  0  0  0  0  0  0
  182.3640  181.2380  138.5830 F   0  0  0  0  0  0  0  0  0  0  0  0
  181.4380  179.9890  136.9310 F   0  0  0  0  0  0  0  0  0  0  0  0
  180.5550  179.9750  138.9930 F   0  0  0  0  0  0  0  0  0  0  0  0
  1 13  1  0  0  0  0
  2  6  1  0  0  0  0
  3  7  1  0  0  0  0
  4  1  1  0  0  0  0
  4  6  1  0  0  0  0
  5  3  1  0  0  0  0
  5  1  1  0  0  0  0
  6 15  1  0  0  0  0
  7 10  1  0  0  0  0
  8 14  1  0  0  0  0
  8  5  1  0  0  0  0
 12 11  1  0  0  0  0
 12  2  1  0  0  0  0
 13 10  1  0  0  0  0
 13  9  1  0  0  0  0
 14  4  1  0  0  0  0
 15 20  1  0  0  0  0
 15 18  1  0  0  0  0
 16 17  1  0  0  0  0
 16 12  1  0  0  0  0
 16 11  1  0  0  0  0
 17 14  1  0  0  0  0
 18  9  1  0  0  0  0
 19 25  1  0  0  0  0
 20 21  1  0  0  0  0
 20 19  2  0  0  0  0
 21 24  2  0  0  0  0
 24 22  1  0  0  0  0
 24 23  1  0  0  0  0
 25 23  2  0  0  0  0
 26 27  1  0  0  0  0
 26 17  1  0  0  0  0
 29 28  1  0  0  0  0
 29 27  1  0  0  0  0
 30 27  1  0  0  0  0
 30 31  1  0  0  0  0
 31 32  1  0  0  0  0
 33  3  1  0  0  0  0
 34 35  1  0  0  0  0
 34 33  1  0  0  0  0
 34 37  1  0  0  0  0
 36 34  1  0  0  0  0
M  END
>  <MODEL>
7

>  <REMARK>
 VINA RESULT:      -7.6      2.577      3.630
  Name = 
  8 active torsions:
  status: ('A' for Active; 'I' for Inactive)
    1  A    between atoms: C_1  and  N_4
    2  A    between atoms: C_1  and  C_27
    3  A    between atoms: C_2  and  O_22
    4  A    between atoms: N_4  and  C_12
    5  A    between atoms: N_4  and  C_37
    6  A    between atoms: C_6  and  O_22
    7  A    between atoms: N_8  and  C_12
    8  A    between atoms: C_23  and  C_30
                            x       y       z     vdW  Elec       q    Type
                         _______ _______ _______ _____ _____    ______ ____

>  <TORSDO>
F 8

$$$$
=
 OpenBabel11122411463D

 37 42  0  0  1  0  0  0  0  0999 V2000
  189.1950  177.0700  140.3510 C   0  0  1  0  0  3  0  0  0  0  0  0
  188.2940  176.1600  143.6160 C   0  0  0  0  0  2  0  0  0  0  0  0
  188.3140  177.8090  138.0050 C   0  0  2  0  0  3  0  0  0  0  0  0
  188.6770  177.6870  141.6410 C   0  0  2  0  0  3  0  0  0  0  0  0
  188.0020  177.2180  139.3970 C   0  0  2  0  0  3  0  0  0  0  0  0
  189.2670  177.1320  142.9480 C   0  0  2  0  0  3  0  0  0  0  0  0
  189.5950  178.6310  138.0180 C   0  0  0  0  0  2  0  0  0  0  0  0
  186.9510  177.9660  140.1980 C   0  0  0  0  0  2  0  0  0  0  0  0
  191.6780  177.3140  140.6250 C   0  0  0  0  0  2  0  0  0  0  0  0
  190.6250  177.8460  138.5470 O   0  0  0  0  0  0  0  0  0  0  0  0
  187.4890  178.1650  144.7840 O   0  0  0  0  0  0  0  0  0  0  0  0
  187.1930  176.8250  144.4710 C   0  0  1  0  0  3  0  0  0  0  0  0
  190.4390  177.8740  139.9370 C   0  0  1  0  0  3  0  0  0  0  0  0
  187.2220  177.6360  141.5940 N   0  0  2  0  0  0  0  0  0  0  0  0
  190.6900  176.5530  142.8170 C   0  0  1  0  0  3  0  0  0  0  0  0
  186.3950  177.9720  143.9120 C   0  0  2  0  0  3  0  0  0  0  0  0
  186.7280  178.6270  142.5590 C   0  0  2  0  0  3  0  0  0  0  0  0
  191.6450  177.5340  142.1340 C   0  0  0  0  0  2  0  0  0  0  0  0
  191.9050  174.9290  144.2810 C   0  0  0  0  0  3  0  0  0  0  0  0
  191.2480  176.1570  144.1520 C   0  0  0  0  0  0  0  0  0  0  0  0
  191.1220  176.9980  145.2710 C   0  0  0  0  0  3  0  0  0  0  0  0
  191.5200  177.4370  147.6090 O   0  0  0  0  0  1  0  0  0  0  0  0
  192.3020  175.3760  146.6270 C   0  0  0  0  0  3  0  0  0  0  0  0
  191.6480  176.6060  146.5050 C   0  0  0  0  0  0  0  0  0  0  0  0
  192.4310  174.5390  145.5150 C   0  0  0  0  0  3  0  0  0  0  0  0
  185.4670  179.3760  142.0800 C   0  0  0  0  0  2  0  0  0  0  0  0
  184.2460  178.5580  142.1320 N   0  0  0  0  0  0  0  0  0  0  0  0
  181.9080  178.9560  142.6840 C   0  0  0  0  0  1  0  0  0  0  0  0
  183.3450  179.0710  143.1550 C   0  0  0  0  0  2  0  0  0  0  0  0
  183.5510  178.6190  140.8500 C   0  0  0  0  0  2  0  0  0  0  0  0
  184.3400  179.3760  139.8890 N   0  0  0  0  0  2  0  0  0  0  0  0
  183.4960  180.2410  139.2790 O   0  0  0  0  0  1  0  0  0  0  0  0
  187.2460  178.5760  137.5070 O   0  0  0  0  0  0  0  0  0  0  0  0
  186.6800  177.8870  136.4160 C   0  0  0  0  0  0  0  0  0  0  0  0
  187.2920  176.6550  136.2410 F   0  0  0  0  0  0  0  0  0  0  0  0
  185.3170  177.7120  136.5960 F   0  0  0  0  0  0  0  0  0  0  0  0
  186.8750  178.6370  135.2730 F   0  0  0  0  0  0  0  0  0  0  0  0
  1  4  1  0  0  0  0
  2 12  1  0  0  0  0
  3  7  1  0  0  0  0
  3  5  1  0  0  0  0
  4  6  1  0  0  0  0
  5  8  1  0  0  0  0
  5  1  1  0  0  0  0
  6  2  1  0  0  0  0
  7 10  1  0  0  0  0
  8 14  1  0  0  0  0
  9 18  1  0  0  0  0
 10 13  1  0  0  0  0
 12 11  1  0  0  0  0
 13  1  1  0  0  0  0
 13  9  1  0  0  0  0
 14  4  1  0  0  0  0
 14 17  1  0  0  0  0
 15  6  1  0  0  0  0
 15 20  1  0  0  0  0
 16 12  1  0  0  0  0
 16 11  1  0  0  0  0
 17 16  1  0  0  0  0
 18 15  1  0  0  0  0
 19 25  1  0  0  0  0
 20 19  2  0  0  0  0
 20 21  1  0  0  0  0
 21 24  2  0  0  0  0
 24 23  1  0  0  0  0
 24 22  1  0  0  0  0
 25 23  2  0  0  0  0
 26 27  1  0  0  0  0
 26 17  1  0  0  0  0
 27 29  1  0  0  0  0
 28 29  1  0  0  0  0
 30 27  1  0  0  0  0
 31 30  1  0  0  0  0
 32 31  1  0  0  0  0
 33  3  1  0  0  0  0
 34 36  1  0  0  0  0
 34 33  1  0  0  0  0
 35 34  1  0  0  0  0
 37 34  1  0  0  0  0
M  END
>  <MODEL>
8

>  <REMARK>
 VINA RESULT:      -7.5      2.319      5.099
  Name = 
  8 active torsions:
  status: ('A' for Active; 'I' for Inactive)
    1  A    between atoms: C_1  and  N_4
    2  A    between atoms: C_1  and  C_27
    3  A    between atoms: C_2  and  O_22
    4  A    between atoms: N_4  and  C_12
    5  A    between atoms: N_4  and  C_37
    6  A    between atoms: C_6  and  O_22
    7  A    between atoms: N_8  and  C_12
    8  A    between atoms: C_23  and  C_30
                            x       y       z     vdW  Elec       q    Type
                         _______ _______ _______ _____ _____    ______ ____

>  <TORSDO>
F 8

$$$$
=
 OpenBabel11122411463D

 37 42  0  0  1  0  0  0  0  0999 V2000
  187.3100  178.5190  141.5760 C   0  0  1  0  0  3  0  0  0  0  0  0
  188.9640  178.7400  138.4910 C   0  0  0  0  0  2  0  0  0  0  0  0
  185.0930  179.0120  142.8660 C   0  0  2  0  0  3  0  0  0  0  0  0
  187.3200  177.8720  140.2010 C   0  0  2  0  0  3  0  0  0  0  0  0
  185.9560  179.2400  141.6060 C   0  0  2  0  0  3  0  0  0  0  0  0
  188.6990  177.6700  139.5500 C   0  0  2  0  0  3  0  0  0  0  0  0
  185.4680  177.7200  143.5780 C   0  0  0  0  0  2  0  0  0  0  0  0
  185.2910  178.8790  140.2900 C   0  0  0  0  0  2  0  0  0  0  0  0
  188.9170  177.0640  142.8410 C   0  0  0  0  0  2  0  0  0  0  0  0
  186.8460  177.7310  143.8260 O   0  0  0  0  0  0  0  0  0  0  0  0
  187.9570  177.1110  136.9550 O   0  0  0  0  0  0  0  0  0  0  0  0
  188.3420  178.4560  137.1070 C   0  0  1  0  0  3  0  0  0  0  0  0
  187.4460  177.3860  142.6070 C   0  0  1  0  0  3  0  0  0  0  0  0
  186.3880  178.6150  139.3630 N   0  0  2  0  0  0  0  0  0  0  0  0
  189.8650  177.5170  140.5480 C   0  0  1  0  0  3  0  0  0  0  0  0
  186.8980  178.0440  137.0000 C   0  0  2  0  0  3  0  0  0  0  0  0
  186.0330  177.7400  138.2370 C   0  0  2  0  0  3  0  0  0  0  0  0
  189.5740  176.4530  141.6070 C   0  0  0  0  0  2  0  0  0  0  0  0
  192.3620  177.5640  140.4340 C   0  0  0  0  0  3  0  0  0  0  0  0
  191.1500  177.1900  139.8460 C   0  0  0  0  0  0  0  0  0  0  0  0
  191.1530  176.5170  138.6140 C   0  0  0  0  0  3  0  0  0  0  0  0
  192.3650  175.5610  136.7590 O   0  0  0  0  0  1  0  0  0  0  0  0
  193.5730  176.6020  138.5700 C   0  0  0  0  0  3  0  0  0  0  0  0
  192.3640  176.2250  137.9780 C   0  0  0  0  0  0  0  0  0  0  0  0
  193.5720  177.2710  139.7970 C   0  0  0  0  0  3  0  0  0  0  0  0
  184.5550  177.8540  137.8120 C   0  0  0  0  0  2  0  0  0  0  0  0
  183.8240  176.5800  137.8850 N   0  0  0  0  0  0  0  0  0  0  0  0
  182.3360  176.6830  139.8100 C   0  0  0  0  0  1  0  0  0  0  0  0
  182.4490  176.8170  138.3040 C   0  0  0  0  0  2  0  0  0  0  0  0
  183.7910  175.9490  136.5700 C   0  0  0  0  0  2  0  0  0  0  0  0
  184.6810  174.7970  136.5450 N   0  0  0  0  0  2  0  0  0  0  0  0
  184.5490  174.1700  137.7380 O   0  0  0  0  0  1  0  0  0  0  0  0
  183.7170  179.0250  142.5700 O   0  0  0  0  0  0  0  0  0  0  0  0
  183.0200  179.3840  143.7410 C   0  0  0  0  0  0  0  0  0  0  0  0
  182.8360  178.2830  144.5630 F   0  0  0  0  0  0  0  0  0  0  0  0
  183.6950  180.3780  144.4320 F   0  0  0  0  0  0  0  0  0  0  0  0
  181.7790  179.8720  143.3810 F   0  0  0  0  0  0  0  0  0  0  0  0
  1  5  1  0  0  0  0
  1 13  1  0  0  0  0
  2  6  1  0  0  0  0
  3  7  1  0  0  0  0
  4  1  1  0  0  0  0
  5  3  1  0  0  0  0
  6  4  1  0  0  0  0
  6 15  1  0  0  0  0
  7 10  1  0  0  0  0
  8  5  1  0  0  0  0
 11 16  1  0  0  0  0
 11 12  1  0  0  0  0
 12  2  1  0  0  0  0
 13  9  1  0  0  0  0
 13 10  1  0  0  0  0
 14  4  1  0  0  0  0
 14  8  1  0  0  0  0
 15 18  1  0  0  0  0
 16 12  1  0  0  0  0
 16 17  1  0  0  0  0
 17 14  1  0  0  0  0
 18  9  1  0  0  0  0
 20 19  1  0  0  0  0
 20 15  1  0  0  0  0
 21 20  2  0  0  0  0
 22 24  1  0  0  0  0
 23 25  1  0  0  0  0
 24 23  2  0  0  0  0
 24 21  1  0  0  0  0
 25 19  2  0  0  0  0
 26 27  1  0  0  0  0
 26 17  1  0  0  0  0
 27 29  1  0  0  0  0
 29 28  1  0  0  0  0
 30 27  1  0  0  0  0
 31 30  1  0  0  0  0
 31 32  1  0  0  0  0
 33  3  1  0  0  0  0
 33 34  1  0  0  0  0
 34 36  1  0  0  0  0
 34 35  1  0  0  0  0
 37 34  1  0  0  0  0
M  END
>  <MODEL>
9

>  <REMARK>
 VINA RESULT:      -7.5      3.071      5.736
  Name = 
  8 active torsions:
  status: ('A' for Active; 'I' for Inactive)
    1  A    between atoms: C_1  and  N_4
    2  A    between atoms: C_1  and  C_27
    3  A    between atoms: C_2  and  O_22
    4  A    between atoms: N_4  and  C_12
    5  A    between atoms: N_4  and  C_37
    6  A    between atoms: C_6  and  O_22
    7  A    between atoms: N_8  and  C_12
    8  A    between atoms: C_23  and  C_30
                            x       y       z     vdW  Elec       q    Type
                         _______ _______ _______ _____ _____    ______ ____

>  <TORSDO>
F 8

$$$$
