=
 OpenBabel11122411393D

 37 42  0  0  1  0  0  0  0  0999 V2000
  188.7030  175.1100  136.1530 C   0  0  0  0  0  0  0  0  0  0  0  0
  186.6140  178.0670  138.3020 N   0  0  0  0  0  0  0  0  0  0  0  0
  184.1460  176.2610  138.6610 C   0  0  0  0  0  2  0  0  0  0  0  0
  188.7110  176.7410  138.0810 C   0  0  0  0  0  0  0  0  0  0  0  0
  185.3920  178.2460  137.5170 C   0  0  2  0  0  3  0  0  0  0  0  0
  182.2680  174.6410  136.2090 C   0  0  0  0  0  0  0  0  0  0  0  0
  187.4950  177.2970  137.5240 C   0  0  0  0  0  0  0  0  0  0  0  0
  184.1500  177.7520  138.2920 C   0  0  2  0  0  3  0  0  0  0  0  0
  188.9810  176.9920  139.3710 C   0  0  0  0  0  3  0  0  0  0  0  0
  181.2500  174.9120  135.2400 N   0  0  0  0  0  2  0  0  0  0  0  0
  186.9680  176.9400  136.3890 C   0  0  0  0  0  0  0  0  0  0  0  0
  187.9840  173.9590  136.8380 C   0  0  0  0  0  1  0  0  0  0  0  0
  185.8970  178.9600  140.5990 C   0  0  0  0  0  2  0  0  0  0  0  0
  188.0280  177.7850  140.2120 C   0  0  0  0  0  3  0  0  0  0  0  0
  187.6630  176.0080  135.4340 C   0  0  0  0  0  2  0  0  0  0  0  0
  183.3430  175.5720  136.4040 N   0  0  0  0  0  0  0  0  0  0  0  0
  184.3230  175.3210  137.4650 C   0  0  0  0  0  2  0  0  0  0  0  0
  186.8890  178.2900  139.6950 C   0  0  0  0  0  0  0  0  0  0  0  0
  185.6480  177.4710  136.2870 N   0  0  0  0  0  0  0  0  0  0  0  0
  189.5620  175.8760  137.1960 C   0  0  0  0  0  2  0  0  0  0  0  0
  183.8120  178.5990  139.5310 C   0  0  1  0  0  3  0  0  0  0  0  0
  189.6320  174.5260  135.1090 C   0  0  0  0  0  1  0  0  0  0  0  0
  183.3400  176.8310  135.6500 C   0  0  0  0  0  2  0  0  0  0  0  0
  182.2180  173.5820  136.8930 O   0  0  0  0  0  0  0  0  0  0  0  0
  184.7340  177.2400  135.1700 C   0  0  0  0  0  2  0  0  0  0  0  0
  184.8300  179.6040  139.8410 N   0  0  0  0  0  2  0  0  0  0  0  0
  181.3440  178.6410  139.9200 C   0  0  0  0  0  3  0  0  0  0  0  0
  182.4760  179.2480  139.3640 C   0  0  0  0  0  0  0  0  0  0  0  0
  182.3390  180.4450  138.6450 C   0  0  0  0  0  3  0  0  0  0  0  0
  180.9390  182.2960  137.7250 C   0  0  0  0  0  1  0  0  0  0  0  0
  179.9520  180.4190  139.0460 C   0  0  0  0  0  3  0  0  0  0  0  0
  181.0790  181.0280  138.4880 C   0  0  0  0  0  0  0  0  0  0  0  0
  180.0850  179.2250  139.7620 C   0  0  0  0  0  3  0  0  0  0  0  0
  179.2310  173.9090  136.1820 C   0  0  0  0  0  1  0  0  0  0  0  0
  180.1490  173.9970  134.9740 C   0  0  2  0  0  3  0  0  0  0  0  0
  179.9650  171.6170  135.2650 O   0  0  0  0  0  1  0  0  0  0  0  0
  180.6860  172.6190  134.6110 C   0  0  0  0  0  2  0  0  0  0  0  0
  1 12  1  0  0  0  0
  1 20  1  0  0  0  0
  2 18  1  0  0  0  0
  4  9  2  0  0  0  0
  5 19  1  6  0  0  0
  5  8  1  0  0  0  0
  5  2  1  0  0  0  0
  6 16  1  0  0  0  0
  6 24  2  0  0  0  0
  7  4  1  0  0  0  0
  7  2  1  0  0  0  0
  8  3  1  1  0  0  0
  8 21  1  0  0  0  0
  9 14  1  0  0  0  0
 10  6  1  0  0  0  0
 11  7  2  0  0  0  0
 15  1  1  0  0  0  0
 15 11  1  0  0  0  0
 16 17  1  0  0  0  0
 17  3  1  0  0  0  0
 18 14  2  0  0  0  0
 18 13  1  0  0  0  0
 19 11  1  0  0  0  0
 20  4  1  0  0  0  0
 21 28  1  6  0  0  0
 21 26  1  0  0  0  0
 22  1  1  0  0  0  0
 23 16  1  0  0  0  0
 25 23  1  0  0  0  0
 25 19  1  0  0  0  0
 26 13  1  0  0  0  0
 28 27  2  0  0  0  0
 29 28  1  0  0  0  0
 30 32  1  0  0  0  0
 31 33  2  0  0  0  0
 32 29  2  0  0  0  0
 32 31  1  0  0  0  0
 33 27  1  0  0  0  0
 35 10  1  0  0  0  0
 35 34  1  1  0  0  0
 37 35  1  0  0  0  0
 37 36  1  0  0  0  0
M  END
>  <MODEL>
1

>  <REMARK>
 VINA RESULT:      -5.4      0.000      0.000
  Name = 
  3 active torsions:
  status: ('A' for Active; 'I' for Inactive)
    1  A    between atoms: CA_4  and  N_12
    2  A    between atoms: CA_4  and  C_37
    3  A    between atoms: C_23  and  C_30
                            x       y       z     vdW  Elec       q    Type
                         _______ _______ _______ _____ _____    ______ ____

>  <TORSDO>
F 3

$$$$
=
 OpenBabel11122411393D

 37 42  0  0  1  0  0  0  0  0999 V2000
  188.0330  177.3710  137.8750 C   0  0  0  0  0  0  0  0  0  0  0  0
  185.7450  178.7520  141.1280 N   0  0  0  0  0  0  0  0  0  0  0  0
  183.4350  176.8120  140.5080 C   0  0  0  0  0  2  0  0  0  0  0  0
  187.9380  177.8650  140.3500 C   0  0  0  0  0  0  0  0  0  0  0  0
  184.5010  179.1930  140.4960 C   0  0  2  0  0  3  0  0  0  0  0  0
  181.6570  176.4360  137.5320 C   0  0  0  0  0  0  0  0  0  0  0  0
  186.6730  178.5240  140.0990 C   0  0  0  0  0  0  0  0  0  0  0  0
  183.3140  178.2910  140.9040 C   0  0  2  0  0  3  0  0  0  0  0  0
  188.2060  177.4820  141.6080 C   0  0  0  0  0  3  0  0  0  0  0  0
  180.6070  177.0610  136.7880 N   0  0  0  0  0  2  0  0  0  0  0  0
  186.1600  178.7190  138.9190 C   0  0  0  0  0  0  0  0  0  0  0  0
  187.4190  175.9810  137.9010 C   0  0  0  0  0  1  0  0  0  0  0  0
  184.9920  178.3670  143.5530 C   0  0  0  0  0  2  0  0  0  0  0  0
  187.2050  177.6950  142.7020 C   0  0  0  0  0  3  0  0  0  0  0  0
  186.9130  178.4210  137.6520 C   0  0  0  0  0  2  0  0  0  0  0  0
  182.6560  177.2370  138.1790 N   0  0  0  0  0  0  0  0  0  0  0  0
  183.6690  176.5830  139.0130 C   0  0  0  0  0  2  0  0  0  0  0  0
  186.0220  178.2960  142.4630 C   0  0  0  0  0  0  0  0  0  0  0  0
  184.8000  179.1290  139.0520 N   0  0  0  0  0  0  0  0  0  0  0  0
  188.8420  177.6030  139.1800 C   0  0  0  0  0  2  0  0  0  0  0  0
  182.9270  178.4060  142.3890 C   0  0  1  0  0  3  0  0  0  0  0  0
  188.9900  177.4380  136.7040 C   0  0  0  0  0  1  0  0  0  0  0  0
  182.5420  178.6990  138.1260 C   0  0  0  0  0  2  0  0  0  0  0  0
  181.7030  175.1780  137.6190 O   0  0  0  0  0  0  0  0  0  0  0  0
  183.8910  179.3960  137.9380 C   0  0  0  0  0  2  0  0  0  0  0  0
  183.8660  179.2120  143.1710 N   0  0  0  0  0  2  0  0  0  0  0  0
  180.8230  178.7160  143.7000 C   0  0  0  0  0  3  0  0  0  0  0  0
  181.5410  178.9490  142.5220 C   0  0  0  0  0  0  0  0  0  0  0  0
  180.9450  179.6710  141.4760 C   0  0  0  0  0  3  0  0  0  0  0  0
  179.0150  180.9220  140.5040 C   0  0  0  0  0  1  0  0  0  0  0  0
  178.9310  179.9250  142.7940 C   0  0  0  0  0  3  0  0  0  0  0  0
  179.6420  180.1580  141.6140 C   0  0  0  0  0  0  0  0  0  0  0  0
  179.5210  179.2040  143.8360 C   0  0  0  0  0  3  0  0  0  0  0  0
  180.1730  175.0510  135.4680 C   0  0  0  0  0  1  0  0  0  0  0  0
  179.5790  176.3060  136.0850 C   0  0  2  0  0  3  0  0  0  0  0  0
  179.4270  178.4760  135.0600 O   0  0  0  0  0  1  0  0  0  0  0  0
  178.9310  177.1710  135.0130 C   0  0  0  0  0  2  0  0  0  0  0  0
  1 12  1  0  0  0  0
  1 20  1  0  0  0  0
  2 18  1  0  0  0  0
  4  9  2  0  0  0  0
  5 19  1  6  0  0  0
  5  8  1  0  0  0  0
  5  2  1  0  0  0  0
  6 24  2  0  0  0  0
  6 16  1  0  0  0  0
  7  4  1  0  0  0  0
  7  2  1  0  0  0  0
  8  3  1  1  0  0  0
  8 21  1  0  0  0  0
  9 14  1  0  0  0  0
 10  6  1  0  0  0  0
 11 19  1  0  0  0  0
 11  7  2  0  0  0  0
 15  1  1  0  0  0  0
 15 11  1  0  0  0  0
 16 17  1  0  0  0  0
 17  3  1  0  0  0  0
 18 14  2  0  0  0  0
 18 13  1  0  0  0  0
 20  4  1  0  0  0  0
 21 28  1  6  0  0  0
 21 26  1  0  0  0  0
 22  1  1  0  0  0  0
 23 16  1  0  0  0  0
 25 23  1  0  0  0  0
 25 19  1  0  0  0  0
 26 13  1  0  0  0  0
 27 33  1  0  0  0  0
 28 27  2  0  0  0  0
 29 32  2  0  0  0  0
 29 28  1  0  0  0  0
 30 32  1  0  0  0  0
 31 33  2  0  0  0  0
 32 31  1  0  0  0  0
 35 34  1  6  0  0  0
 35 10  1  0  0  0  0
 37 36  1  0  0  0  0
 37 35  1  0  0  0  0
M  END
>  <MODEL>
2

>  <REMARK>
 VINA RESULT:      -4.8      2.364      3.250
  Name = 
  3 active torsions:
  status: ('A' for Active; 'I' for Inactive)
    1  A    between atoms: CA_4  and  N_12
    2  A    between atoms: CA_4  and  C_37
    3  A    between atoms: C_23  and  C_30
                            x       y       z     vdW  Elec       q    Type
                         _______ _______ _______ _____ _____    ______ ____

>  <TORSDO>
F 3

$$$$
=
 OpenBabel11122411393D

 37 42  0  0  1  0  0  0  0  0999 V2000
  184.5560  177.8760  137.6320 C   0  0  0  0  0  0  0  0  0  0  0  0
  187.8410  176.2340  135.5720 N   0  0  0  0  0  0  0  0  0  0  0  0
  189.1580  175.2460  138.1740 C   0  0  0  0  0  2  0  0  0  0  0  0
  185.3610  176.3630  135.7760 C   0  0  0  0  0  0  0  0  0  0  0  0
  188.9860  176.9150  136.1770 C   0  0  2  0  0  3  0  0  0  0  0  0
  189.9920  177.0840  141.0180 C   0  0  0  0  0  0  0  0  0  0  0  0
  186.6850  176.9060  136.0030 C   0  0  0  0  0  0  0  0  0  0  0  0
  189.8570  175.9310  136.9910 C   0  0  2  0  0  3  0  0  0  0  0  0
  185.2680  175.1930  135.1270 C   0  0  0  0  0  3  0  0  0  0  0  0
  190.9980  177.9830  141.4940 N   0  0  0  0  0  2  0  0  0  0  0  0
  186.9570  177.8780  136.8260 C   0  0  0  0  0  0  0  0  0  0  0  0
  184.6530  176.8870  138.7830 C   0  0  0  0  0  1  0  0  0  0  0  0
  188.9390  174.1300  134.5940 C   0  0  0  0  0  2  0  0  0  0  0  0
  186.4990  174.4580  134.6930 C   0  0  0  0  0  3  0  0  0  0  0  0
  185.8850  178.6680  137.5240 C   0  0  0  0  0  2  0  0  0  0  0  0
  189.4940  177.2050  139.6770 N   0  0  0  0  0  0  0  0  0  0  0  0
  188.5330  176.2170  139.1790 C   0  0  0  0  0  2  0  0  0  0  0  0
  187.7310  174.9580  134.9190 C   0  0  0  0  0  0  0  0  0  0  0  0
  188.3690  177.9630  137.0140 N   0  0  0  0  0  0  0  0  0  0  0  0
  184.1860  177.1160  136.3290 C   0  0  0  0  0  2  0  0  0  0  0  0
  190.5800  174.8810  136.1290 C   0  0  1  0  0  3  0  0  0  0  0  0
  183.4430  178.8520  137.9460 C   0  0  0  0  0  1  0  0  0  0  0  0
  190.0820  178.2130  138.7870 C   0  0  0  0  0  2  0  0  0  0  0  0
  189.5450  176.1820  141.7780 O   0  0  0  0  0  0  0  0  0  0  0  0
  189.0420  178.9070  137.9040 C   0  0  0  0  0  2  0  0  0  0  0  0
  190.1690  174.9020  134.7250 N   0  0  0  0  0  2  0  0  0  0  0  0
  192.7160  175.9280  135.3650 C   0  0  0  0  0  3  0  0  0  0  0  0
  192.0610  175.0540  136.2390 C   0  0  0  0  0  0  0  0  0  0  0  0
  192.8030  174.3400  137.1920 C   0  0  0  0  0  3  0  0  0  0  0  0
  194.9710  173.7460  138.2800 C   0  0  0  0  0  1  0  0  0  0  0  0
  194.8380  175.3810  136.3950 C   0  0  0  0  0  3  0  0  0  0  0  0
  194.1890  174.5050  137.2690 C   0  0  0  0  0  0  0  0  0  0  0  0
  194.1020  176.0920  135.4430 C   0  0  0  0  0  3  0  0  0  0  0  0
  191.7060  176.4890  143.2930 C   0  0  0  0  0  1  0  0  0  0  0  0
  191.5260  177.9320  142.8500 C   0  0  2  0  0  3  0  0  0  0  0  0
  191.1890  179.8490  144.2620 O   0  0  0  0  0  1  0  0  0  0  0  0
  190.5970  178.6700  143.8040 C   0  0  0  0  0  2  0  0  0  0  0  0
  1 22  1  0  0  0  0
  1 12  1  0  0  0  0
  2  7  1  0  0  0  0
  3 17  1  0  0  0  0
  4  7  1  0  0  0  0
  4 20  1  0  0  0  0
  5  2  1  1  0  0  0
  5  8  1  0  0  0  0
  5 19  1  0  0  0  0
  6 10  1  0  0  0  0
  6 24  2  0  0  0  0
  7 11  2  0  0  0  0
  8  3  1  1  0  0  0
  9  4  2  0  0  0  0
 10 35  1  0  0  0  0
 11 19  1  0  0  0  0
 11 15  1  0  0  0  0
 13 26  1  0  0  0  0
 13 18  1  0  0  0  0
 14 18  2  0  0  0  0
 14  9  1  0  0  0  0
 15  1  1  0  0  0  0
 16  6  1  0  0  0  0
 17 16  1  0  0  0  0
 18  2  1  0  0  0  0
 19 25  1  0  0  0  0
 20  1  1  0  0  0  0
 21 28  1  6  0  0  0
 21  8  1  0  0  0  0
 23 16  1  0  0  0  0
 25 23  1  0  0  0  0
 26 21  1  0  0  0  0
 27 33  2  0  0  0  0
 27 28  1  0  0  0  0
 28 29  2  0  0  0  0
 29 32  1  0  0  0  0
 31 32  2  0  0  0  0
 32 30  1  0  0  0  0
 33 31  1  0  0  0  0
 35 34  1  1  0  0  0
 35 37  1  0  0  0  0
 37 36  1  0  0  0  0
M  END
>  <MODEL>
3

>  <REMARK>
 VINA RESULT:      -4.1      3.963      9.576
  Name = 
  3 active torsions:
  status: ('A' for Active; 'I' for Inactive)
    1  A    between atoms: CA_4  and  N_12
    2  A    between atoms: CA_4  and  C_37
    3  A    between atoms: C_23  and  C_30
                            x       y       z     vdW  Elec       q    Type
                         _______ _______ _______ _____ _____    ______ ____

>  <TORSDO>
F 3

$$$$
=
 OpenBabel11122411393D

 37 42  0  0  1  0  0  0  0  0999 V2000
  189.5740  176.4630  136.6230 C   0  0  0  0  0  0  0  0  0  0  0  0
  186.6500  178.5320  138.8360 N   0  0  0  0  0  0  0  0  0  0  0  0
  184.7310  176.1240  138.8170 C   0  0  0  0  0  2  0  0  0  0  0  0
  189.0330  177.8220  138.6810 C   0  0  0  0  0  0  0  0  0  0  0  0
  185.4740  178.4750  137.9670 C   0  0  2  0  0  3  0  0  0  0  0  0
  183.5010  174.3510  136.0770 C   0  0  0  0  0  0  0  0  0  0  0  0
  187.7490  178.1040  138.0730 C   0  0  0  0  0  0  0  0  0  0  0  0
  184.3630  177.5960  138.5840 C   0  0  2  0  0  3  0  0  0  0  0  0
  189.1480  177.9920  140.0070 C   0  0  0  0  0  3  0  0  0  0  0  0
  182.5080  174.4540  135.0520 N   0  0  0  0  0  2  0  0  0  0  0  0
  187.4050  177.7480  136.8680 C   0  0  0  0  0  0  0  0  0  0  0  0
  189.1450  175.0990  137.1370 C   0  0  0  0  0  1  0  0  0  0  0  0
  185.5840  178.9550  141.1330 C   0  0  0  0  0  2  0  0  0  0  0  0
  187.9700  178.4180  140.8290 C   0  0  0  0  0  3  0  0  0  0  0  0
  188.3780  177.1360  135.8990 C   0  0  0  0  0  2  0  0  0  0  0  0
  184.2770  175.5000  136.4470 N   0  0  0  0  0  0  0  0  0  0  0  0
  185.2220  175.3960  137.5620 C   0  0  0  0  0  2  0  0  0  0  0  0
  186.7710  178.6660  140.2620 C   0  0  0  0  0  0  0  0  0  0  0  0
  186.0000  177.9290  136.7000 N   0  0  0  0  0  0  0  0  0  0  0  0
  190.1330  177.3070  137.8000 C   0  0  0  0  0  2  0  0  0  0  0  0
  183.7380  178.1880  139.8600 C   0  0  1  0  0  3  0  0  0  0  0  0
  190.6850  176.2560  135.6160 C   0  0  0  0  0  1  0  0  0  0  0  0
  183.9870  176.7900  135.8110 C   0  0  0  0  0  2  0  0  0  0  0  0
  183.6920  173.2470  136.6580 O   0  0  0  0  0  0  0  0  0  0  0  0
  185.2490  177.5940  135.4910 C   0  0  0  0  0  2  0  0  0  0  0  0
  184.4330  179.3810  140.3450 N   0  0  0  0  0  2  0  0  0  0  0  0
  181.8600  178.8810  138.3640 C   0  0  0  0  0  3  0  0  0  0  0  0
  182.2900  178.4860  139.6360 C   0  0  0  0  0  0  0  0  0  0  0  0
  181.3630  178.3930  140.6850 C   0  0  0  0  0  3  0  0  0  0  0  0
  179.0370  178.5890  141.5720 C   0  0  0  0  0  1  0  0  0  0  0  0
  179.5910  179.0820  139.1860 C   0  0  0  0  0  3  0  0  0  0  0  0
  180.0160  178.6900  140.4580 C   0  0  0  0  0  0  0  0  0  0  0  0
  180.5130  179.1780  138.1390 C   0  0  0  0  0  3  0  0  0  0  0  0
  180.2330  173.6900  134.5940 C   0  0  0  0  0  1  0  0  0  0  0  0
  181.7060  173.3210  134.6110 C   0  0  2  0  0  3  0  0  0  0  0  0
  180.9950  171.1260  135.2880 O   0  0  0  0  0  1  0  0  0  0  0  0
  181.9450  172.1230  135.5210 C   0  0  0  0  0  2  0  0  0  0  0  0
  1 12  1  0  0  0  0
  1 20  1  0  0  0  0
  2 18  1  0  0  0  0
  4  9  2  0  0  0  0
  5 19  1  6  0  0  0
  5  8  1  0  0  0  0
  5  2  1  0  0  0  0
  6 16  1  0  0  0  0
  6 24  2  0  0  0  0
  7  4  1  0  0  0  0
  7  2  1  0  0  0  0
  8  3  1  1  0  0  0
  8 21  1  0  0  0  0
  9 14  1  0  0  0  0
 10  6  1  0  0  0  0
 11  7  2  0  0  0  0
 15  1  1  0  0  0  0
 15 11  1  0  0  0  0
 16 17  1  0  0  0  0
 17  3  1  0  0  0  0
 18 14  2  0  0  0  0
 18 13  1  0  0  0  0
 19 11  1  0  0  0  0
 20  4  1  0  0  0  0
 21 28  1  6  0  0  0
 21 26  1  0  0  0  0
 22  1  1  0  0  0  0
 23 16  1  0  0  0  0
 25 23  1  0  0  0  0
 25 19  1  0  0  0  0
 26 13  1  0  0  0  0
 27 28  1  0  0  0  0
 28 29  2  0  0  0  0
 31 32  2  0  0  0  0
 32 29  1  0  0  0  0
 32 30  1  0  0  0  0
 33 27  2  0  0  0  0
 33 31  1  0  0  0  0
 35 34  1  1  0  0  0
 35 10  1  0  0  0  0
 35 37  1  0  0  0  0
 36 37  1  0  0  0  0
M  END
>  <MODEL>
4

>  <REMARK>
 VINA RESULT:      -3.4      1.221      1.670
  Name = 
  3 active torsions:
  status: ('A' for Active; 'I' for Inactive)
    1  A    between atoms: CA_4  and  N_12
    2  A    between atoms: CA_4  and  C_37
    3  A    between atoms: C_23  and  C_30
                            x       y       z     vdW  Elec       q    Type
                         _______ _______ _______ _____ _____    ______ ____

>  <TORSDO>
F 3

$$$$
=
 OpenBabel11122411393D

 37 42  0  0  1  0  0  0  0  0999 V2000
  184.9210  178.4460  142.3270 C   0  0  0  0  0  0  0  0  0  0  0  0
  186.9950  177.5710  145.8850 N   0  0  0  0  0  0  0  0  0  0  0  0
  189.6320  178.7300  144.7980 C   0  0  0  0  0  2  0  0  0  0  0  0
  185.0060  178.6510  144.8430 C   0  0  0  0  0  0  0  0  0  0  0  0
  188.0940  176.7210  145.4280 C   0  0  2  0  0  3  0  0  0  0  0  0
  191.3330  177.8810  141.8740 C   0  0  0  0  0  0  0  0  0  0  0  0
  186.0950  177.6960  144.8130 C   0  0  0  0  0  0  0  0  0  0  0  0
  189.4570  177.4290  145.5940 C   0  0  2  0  0  3  0  0  0  0  0  0
  184.8730  179.4150  145.9370 C   0  0  0  0  0  3  0  0  0  0  0  0
  192.2010  176.8670  141.3580 N   0  0  0  0  0  2  0  0  0  0  0  0
  186.5100  177.0770  143.7460 C   0  0  0  0  0  0  0  0  0  0  0  0
  185.8120  179.6260  141.9770 C   0  0  0  0  0  1  0  0  0  0  0  0
  187.9040  178.4470  148.1210 C   0  0  0  0  0  2  0  0  0  0  0  0
  185.8490  179.3080  147.0680 C   0  0  0  0  0  3  0  0  0  0  0  0
  185.7870  177.1630  142.4300 C   0  0  0  0  0  2  0  0  0  0  0  0
  190.2150  177.5210  142.6980 N   0  0  0  0  0  0  0  0  0  0  0  0
  189.3940  178.5790  143.2930 C   0  0  0  0  0  2  0  0  0  0  0  0
  186.8710  178.4280  147.0330 C   0  0  0  0  0  0  0  0  0  0  0  0
  187.7590  176.4430  144.0180 N   0  0  0  0  0  0  0  0  0  0  0  0
  184.1320  178.7610  143.6270 C   0  0  0  0  0  2  0  0  0  0  0  0
  189.8690  177.6520  147.0600 C   0  0  1  0  0  3  0  0  0  0  0  0
  183.9270  178.2600  141.2000 C   0  0  0  0  0  1  0  0  0  0  0  0
  190.0200  176.1110  143.0580 C   0  0  0  0  0  2  0  0  0  0  0  0
  191.5550  179.0940  141.6060 O   0  0  0  0  0  0  0  0  0  0  0  0
  188.5480  175.6910  143.0430 C   0  0  0  0  0  2  0  0  0  0  0  0
  188.8130  177.3110  148.0150 N   0  0  0  0  0  2  0  0  0  0  0  0
  191.5320  175.8740  146.4970 C   0  0  0  0  0  3  0  0  0  0  0  0
  191.1150  176.8860  147.3690 C   0  0  0  0  0  0  0  0  0  0  0  0
  191.8590  177.1550  148.5280 C   0  0  0  0  0  3  0  0  0  0  0  0
  193.7990  176.7070  150.0340 C   0  0  0  0  0  1  0  0  0  0  0  0
  193.4270  175.4110  147.9310 C   0  0  0  0  0  3  0  0  0  0  0  0
  193.0140  176.4180  148.8060 C   0  0  0  0  0  0  0  0  0  0  0  0
  192.6870  175.1390  146.7760 C   0  0  0  0  0  3  0  0  0  0  0  0
  192.9700  176.9270  139.0390 C   0  0  0  0  0  1  0  0  0  0  0  0
  193.3360  177.1630  140.4950 C   0  0  2  0  0  3  0  0  0  0  0  0
  195.1490  175.7650  139.7580 O   0  0  0  0  0  1  0  0  0  0  0  0
  194.5320  176.3060  140.8880 C   0  0  0  0  0  2  0  0  0  0  0  0
  1 15  1  0  0  0  0
  1 20  1  0  0  0  0
  2 18  1  0  0  0  0
  4  9  2  0  0  0  0
  5 19  1  6  0  0  0
  5  8  1  0  0  0  0
  5  2  1  0  0  0  0
  6 16  1  0  0  0  0
  7  4  1  0  0  0  0
  7  2  1  0  0  0  0
  8  3  1  6  0  0  0
  8 21  1  0  0  0  0
  9 14  1  0  0  0  0
 10  6  1  0  0  0  0
 11 19  1  0  0  0  0
 11  7  2  0  0  0  0
 12  1  1  0  0  0  0
 15 11  1  0  0  0  0
 16 23  1  0  0  0  0
 16 17  1  0  0  0  0
 17  3  1  0  0  0  0
 18 14  2  0  0  0  0
 18 13  1  0  0  0  0
 20  4  1  0  0  0  0
 21 28  1  1  0  0  0
 21 26  1  0  0  0  0
 22  1  1  0  0  0  0
 24  6  2  0  0  0  0
 25 23  1  0  0  0  0
 25 19  1  0  0  0  0
 26 13  1  0  0  0  0
 27 33  2  0  0  0  0
 27 28  1  0  0  0  0
 28 29  2  0  0  0  0
 29 32  1  0  0  0  0
 31 32  2  0  0  0  0
 32 30  1  0  0  0  0
 33 31  1  0  0  0  0
 35 34  1  6  0  0  0
 35 37  1  0  0  0  0
 35 10  1  0  0  0  0
 36 37  1  0  0  0  0
M  END
>  <MODEL>
5

>  <REMARK>
 VINA RESULT:      -3.4      6.728     11.161
  Name = 
  3 active torsions:
  status: ('A' for Active; 'I' for Inactive)
    1  A    between atoms: CA_4  and  N_12
    2  A    between atoms: CA_4  and  C_37
    3  A    between atoms: C_23  and  C_30
                            x       y       z     vdW  Elec       q    Type
                         _______ _______ _______ _____ _____    ______ ____

>  <TORSDO>
F 3

$$$$
=
 OpenBabel11122411393D

 37 42  0  0  1  0  0  0  0  0999 V2000
  192.1180  176.6120  138.6980 C   0  0  0  0  0  0  0  0  0  0  0  0
  188.0520  177.5900  139.1830 N   0  0  0  0  0  0  0  0  0  0  0  0
  188.6080  179.2440  141.7200 C   0  0  0  0  0  2  0  0  0  0  0  0
  190.0170  177.5460  137.6530 C   0  0  0  0  0  0  0  0  0  0  0  0
  187.7490  177.0910  140.5250 C   0  0  2  0  0  3  0  0  0  0  0  0
  190.2280  178.2530  144.6450 C   0  0  0  0  0  0  0  0  0  0  0  0
  189.3090  177.0740  138.8250 C   0  0  0  0  0  0  0  0  0  0  0  0
  187.4570  178.2520  141.5020 C   0  0  2  0  0  3  0  0  0  0  0  0
  189.4300  178.4930  136.9060 C   0  0  0  0  0  3  0  0  0  0  0  0
  189.9840  177.5100  145.8430 N   0  0  0  0  0  2  0  0  0  0  0  0
  189.8410  176.3640  139.7770 C   0  0  0  0  0  0  0  0  0  0  0  0
  192.6100  177.8780  139.3800 C   0  0  0  0  0  1  0  0  0  0  0  0
  186.1980  179.3320  138.8400 C   0  0  0  0  0  2  0  0  0  0  0  0
  188.1050  179.0680  137.3020 C   0  0  0  0  0  3  0  0  0  0  0  0
  191.2350  175.8070  139.6870 C   0  0  0  0  0  2  0  0  0  0  0  0
  189.7340  177.7720  143.3860 N   0  0  0  0  0  0  0  0  0  0  0  0
  189.9130  178.5940  142.1860 C   0  0  0  0  0  2  0  0  0  0  0  0
  187.4540  178.6380  138.4010 C   0  0  0  0  0  0  0  0  0  0  0  0
  188.9530  176.3200  140.8930 N   0  0  0  0  0  0  0  0  0  0  0  0
  191.3840  176.9860  137.3820 C   0  0  0  0  0  2  0  0  0  0  0  0
  186.1580  179.0170  141.1890 C   0  0  1  0  0  3  0  0  0  0  0  0
  193.3270  175.7710  138.3450 C   0  0  0  0  0  1  0  0  0  0  0  0
  188.9190  176.5520  143.3600 C   0  0  0  0  0  2  0  0  0  0  0  0
  190.8770  179.3340  144.6970 O   0  0  0  0  0  0  0  0  0  0  0  0
  189.2320  175.6520  142.1630 C   0  0  0  0  0  2  0  0  0  0  0  0
  185.5400  178.6140  139.9250 N   0  0  0  0  0  2  0  0  0  0  0  0
  183.8170  178.8000  142.0320 C   0  0  0  0  0  3  0  0  0  0  0  0
  185.1860  178.8670  142.3140 C   0  0  0  0  0  0  0  0  0  0  0  0
  185.6250  178.8120  143.6450 C   0  0  0  0  0  3  0  0  0  0  0  0
  185.1680  178.6280  146.0930 C   0  0  0  0  0  1  0  0  0  0  0  0
  183.3320  178.6170  144.3980 C   0  0  0  0  0  3  0  0  0  0  0  0
  184.6980  178.6860  144.6840 C   0  0  0  0  0  0  0  0  0  0  0  0
  182.8920  178.6730  143.0720 C   0  0  0  0  0  3  0  0  0  0  0  0
  191.4180  176.8780  147.7180 C   0  0  0  0  0  1  0  0  0  0  0  0
  190.4800  177.9280  147.1470 C   0  0  2  0  0  3  0  0  0  0  0  0
  188.3170  177.2160  147.9200 O   0  0  0  0  0  1  0  0  0  0  0  0
  189.3160  178.1760  148.0970 C   0  0  0  0  0  2  0  0  0  0  0  0
  1 12  1  0  0  0  0
  1 15  1  0  0  0  0
  3 17  1  0  0  0  0
  4  7  1  0  0  0  0
  5  2  1  6  0  0  0
  5 19  1  0  0  0  0
  5  8  1  0  0  0  0
  6 24  2  0  0  0  0
  6 10  1  0  0  0  0
  7  2  1  0  0  0  0
  7 11  2  0  0  0  0
  8  3  1  6  0  0  0
  9 14  1  0  0  0  0
  9  4  2  0  0  0  0
 10 35  1  0  0  0  0
 11 19  1  0  0  0  0
 13 26  1  0  0  0  0
 14 18  2  0  0  0  0
 15 11  1  0  0  0  0
 16  6  1  0  0  0  0
 17 16  1  0  0  0  0
 18 13  1  0  0  0  0
 18  2  1  0  0  0  0
 19 25  1  0  0  0  0
 20  4  1  0  0  0  0
 20  1  1  0  0  0  0
 21  8  1  0  0  0  0
 21 28  1  1  0  0  0
 22  1  1  0  0  0  0
 23 16  1  0  0  0  0
 25 23  1  0  0  0  0
 26 21  1  0  0  0  0
 27 28  2  0  0  0  0
 27 33  1  0  0  0  0
 28 29  1  0  0  0  0
 29 32  2  0  0  0  0
 31 32  1  0  0  0  0
 32 30  1  0  0  0  0
 33 31  2  0  0  0  0
 35 34  1  1  0  0  0
 35 37  1  0  0  0  0
 36 37  1  0  0  0  0
M  END
>  <MODEL>
6

>  <REMARK>
 VINA RESULT:      -3.2      5.538      8.264
  Name = 
  3 active torsions:
  status: ('A' for Active; 'I' for Inactive)
    1  A    between atoms: CA_4  and  N_12
    2  A    between atoms: CA_4  and  C_37
    3  A    between atoms: C_23  and  C_30
                            x       y       z     vdW  Elec       q    Type
                         _______ _______ _______ _____ _____    ______ ____

>  <TORSDO>
F 3

$$$$
=
 OpenBabel11122411393D

 37 42  0  0  1  0  0  0  0  0999 V2000
  186.7580  177.8960  143.1270 C   0  0  0  0  0  0  0  0  0  0  0  0
  183.0160  179.3840  141.9000 N   0  0  0  0  0  0  0  0  0  0  0  0
  182.4610  176.9250  140.1310 C   0  0  0  0  0  2  0  0  0  0  0  0
  184.5160  178.8350  143.8110 C   0  0  0  0  0  0  0  0  0  0  0  0
  183.1370  179.4250  140.4420 C   0  0  2  0  0  3  0  0  0  0  0  0
  184.4210  175.6130  137.5630 C   0  0  0  0  0  0  0  0  0  0  0  0
  184.3030  179.1550  142.4150 C   0  0  0  0  0  0  0  0  0  0  0  0
  182.1990  178.3940  139.7730 C   0  0  2  0  0  3  0  0  0  0  0  0
  183.4400  178.7700  144.6100 C   0  0  0  0  0  3  0  0  0  0  0  0
  184.7390  175.8490  136.1880 N   0  0  0  0  0  2  0  0  0  0  0  0
  185.1910  179.0050  141.4750 C   0  0  0  0  0  0  0  0  0  0  0  0
  186.3500  176.4420  142.9600 C   0  0  0  0  0  1  0  0  0  0  0  0
  180.4680  179.3340  142.2130 C   0  0  0  0  0  2  0  0  0  0  0  0
  182.0630  178.9810  144.0580 C   0  0  0  0  0  3  0  0  0  0  0  0
  186.6180  178.6270  141.7660 C   0  0  0  0  0  2  0  0  0  0  0  0
  184.3120  176.7140  138.4760 N   0  0  0  0  0  0  0  0  0  0  0  0
  183.8940  176.4600  139.8570 C   0  0  0  0  0  2  0  0  0  0  0  0
  181.8660  179.2660  142.7550 C   0  0  0  0  0  0  0  0  0  0  0  0
  184.5650  179.1420  140.2000 N   0  0  0  0  0  0  0  0  0  0  0  0
  185.9180  178.5420  144.2620 C   0  0  0  0  0  2  0  0  0  0  0  0
  180.7030  178.7160  139.9370 C   0  0  1  0  0  3  0  0  0  0  0  0
  188.2150  177.9290  143.5370 C   0  0  0  0  0  1  0  0  0  0  0  0
  184.4600  178.0820  137.9630 C   0  0  0  0  0  2  0  0  0  0  0  0
  184.2340  174.4330  137.9710 O   0  0  0  0  0  0  0  0  0  0  0  0
  185.2420  178.9920  138.9130 C   0  0  0  0  0  2  0  0  0  0  0  0
  180.4480  179.8360  140.8440 N   0  0  0  0  0  2  0  0  0  0  0  0
  179.5190  177.9110  137.8900 C   0  0  0  0  0  3  0  0  0  0  0  0
  180.0810  178.9760  138.6030 C   0  0  0  0  0  0  0  0  0  0  0  0
  180.0700  180.2650  138.0500 C   0  0  0  0  0  3  0  0  0  0  0  0
  179.4870  181.8520  136.2120 C   0  0  0  0  0  1  0  0  0  0  0  0
  178.9340  179.4180  136.0870 C   0  0  0  0  0  3  0  0  0  0  0  0
  179.4960  180.4840  136.7940 C   0  0  0  0  0  0  0  0  0  0  0  0
  178.9450  178.1320  136.6350 C   0  0  0  0  0  3  0  0  0  0  0  0
  183.5670  174.0600  135.0060 C   0  0  0  0  0  1  0  0  0  0  0  0
  184.8910  174.7740  135.2160 C   0  0  2  0  0  3  0  0  0  0  0  0
  187.2370  174.2840  135.4160 O   0  0  0  0  0  1  0  0  0  0  0  0
  185.9580  173.7920  135.6820 C   0  0  0  0  0  2  0  0  0  0  0  0
  1 22  1  0  0  0  0
  1 20  1  0  0  0  0
  2  7  1  0  0  0  0
  2 18  1  0  0  0  0
  4 20  1  0  0  0  0
  4  9  2  0  0  0  0
  5 19  1  1  0  0  0
  5  2  1  0  0  0  0
  6 24  2  0  0  0  0
  6 16  1  0  0  0  0
  7  4  1  0  0  0  0
  8 21  1  0  0  0  0
  8  3  1  1  0  0  0
  8  5  1  0  0  0  0
 10  6  1  0  0  0  0
 11 15  1  0  0  0  0
 11  7  2  0  0  0  0
 12  1  1  0  0  0  0
 13 18  1  0  0  0  0
 14  9  1  0  0  0  0
 15  1  1  0  0  0  0
 16 17  1  0  0  0  0
 17  3  1  0  0  0  0
 18 14  2  0  0  0  0
 19 11  1  0  0  0  0
 21 28  1  6  0  0  0
 21 26  1  0  0  0  0
 23 16  1  0  0  0  0
 23 25  1  0  0  0  0
 25 19  1  0  0  0  0
 26 13  1  0  0  0  0
 27 28  1  0  0  0  0
 29 28  2  0  0  0  0
 30 32  1  0  0  0  0
 31 33  1  0  0  0  0
 31 32  2  0  0  0  0
 32 29  1  0  0  0  0
 33 27  2  0  0  0  0
 35 34  1  1  0  0  0
 35 37  1  0  0  0  0
 35 10  1  0  0  0  0
 36 37  1  0  0  0  0
M  END
>  <MODEL>
7

>  <REMARK>
 VINA RESULT:      -2.7      2.653      5.129
  Name = 
  3 active torsions:
  status: ('A' for Active; 'I' for Inactive)
    1  A    between atoms: CA_4  and  N_12
    2  A    between atoms: CA_4  and  C_37
    3  A    between atoms: C_23  and  C_30
                            x       y       z     vdW  Elec       q    Type
                         _______ _______ _______ _____ _____    ______ ____

>  <TORSDO>
F 3

$$$$
