=
 OpenBabel11122411113D

 31 35  0  0  1  0  0  0  0  0999 V2000
  190.1780  176.1260  142.8060 C   0  0  0  0  0  0  0  0  0  0  0  0
  186.8120  177.0740  144.1650 C   0  0  2  0  0  3  0  0  0  0  0  0
  187.1190  177.7310  145.4990 C   0  0  0  0  0  0  0  0  0  0  0  0
  188.5470  177.9510  147.4570 C   0  0  0  0  0  0  0  0  0  0  0  0
  188.0120  177.0140  143.2430 C   0  0  0  0  0  0  0  0  0  0  0  0
  190.2890  176.8950  141.6470 C   0  0  0  0  0  3  0  0  0  0  0  0
  188.2940  177.4070  146.1960 C   0  0  0  0  0  3  0  0  0  0  0  0
  185.9350  178.9530  142.6890 C   0  0  2  0  0  3  0  0  0  0  0  0
  191.1920  175.3070  143.1740 F   0  0  0  0  0  0  0  0  0  0  0  0
  184.9000  178.9450  145.4180 C   0  0  0  0  0  2  0  0  0  0  0  0
  189.7210  177.6330  148.1260 O   0  0  0  0  0  1  0  0  0  0  0  0
  186.9260  178.6110  141.5810 C   0  0  0  0  0  2  0  0  0  0  0  0
  185.5750  177.6850  143.4760 C   0  0  2  0  0  3  0  0  0  0  0  0
  189.0550  176.2000  143.5680 N   0  0  0  0  0  0  0  0  0  0  0  0
  187.6180  178.8100  148.0470 C   0  0  0  0  0  3  0  0  0  0  0  0
  188.0890  177.8040  142.0760 C   0  0  0  0  0  0  0  0  0  0  0  0
  189.2330  177.7270  141.2800 C   0  0  0  0  0  3  0  0  0  0  0  0
  184.5010  177.9210  144.4490 N   0  0  0  0  0  2  0  0  0  0  0  0
  186.1670  178.5670  146.1210 C   0  0  0  0  0  0  0  0  0  0  0  0
  186.4310  179.1180  147.3790 C   0  0  0  0  0  3  0  0  0  0  0  0
  183.9750  177.5360  141.1630 O   0  0  0  0  0  0  0  0  0  0  0  0
  183.7870  178.7670  141.3560 C   0  0  0  0  0  0  0  0  0  0  0  0
  184.7350  179.5350  142.1030 N   0  0  0  0  0  2  0  0  0  0  0  0
  180.8140  177.5120  139.4060 C   0  0  1  0  0  3  0  0  0  0  0  0
  181.3170  178.8510  141.4510 C   0  0  0  0  0  3  0  0  0  0  0  0
  183.6690  179.7890  138.6790 C   0  0  0  0  0  1  0  0  0  0  0  0
  180.6790  176.0080  139.2900 C   0  0  0  0  0  1  0  0  0  0  0  0
  180.5500  177.9450  140.8270 C   0  0  0  0  0  3  0  0  0  0  0  0
  182.4430  179.3330  139.3190 N   0  0  0  0  0  0  0  0  0  0  0  0
  182.5500  179.4200  140.7920 C   0  0  2  0  0  3  0  0  0  0  0  0
  182.1960  177.9490  138.9160 C   0  0  0  0  0  2  0  0  0  0  0  0
  1  9  1  0  0  0  0
  1 14  1  0  0  0  0
  2  5  1  6  0  0  0
  2  3  1  0  0  0  0
  3 19  2  0  0  0  0
  3  7  1  0  0  0  0
  4 15  1  0  0  0  0
  4 11  1  0  0  0  0
  5 14  2  0  0  0  0
  6  1  2  0  0  0  0
  7  4  2  0  0  0  0
  8 23  1  6  0  0  0
  8 13  1  0  0  0  0
 10 19  1  0  0  0  0
 12 16  1  0  0  0  0
 12  8  1  0  0  0  0
 13  2  1  0  0  0  0
 13 18  1  1  0  0  0
 16  5  1  0  0  0  0
 17  6  1  0  0  0  0
 17 16  2  0  0  0  0
 18 10  1  0  0  0  0
 19 20  1  0  0  0  0
 20 15  2  0  0  0  0
 21 22  2  0  0  0  0
 22 23  1  0  0  0  0
 24 27  1  1  0  0  0
 24 28  1  0  0  0  0
 26 29  1  0  0  0  0
 28 25  2  0  0  0  0
 29 30  1  0  0  0  0
 30 22  1  1  0  0  0
 30 25  1  0  0  0  0
 31 29  1  0  0  0  0
 31 24  1  0  0  0  0
M  END
>  <MODEL>
1

>  <REMARK>
 VINA RESULT:      -9.2      0.000      0.000
  Name = 
  2 active torsions:
  status: ('A' for Active; 'I' for Inactive)
    1  A    between atoms: C_5  and  C_30
    2  A    between atoms: C_10  and  N_16
                            x       y       z     vdW  Elec       q    Type
                         _______ _______ _______ _____ _____    ______ ____

>  <TORSDO>
F 2

$$$$
=
 OpenBabel11122411113D

 31 35  0  0  1  0  0  0  0  0999 V2000
  190.1980  176.8510  146.3630 C   0  0  0  0  0  0  0  0  0  0  0  0
  187.7520  177.0810  143.5270 C   0  0  2  0  0  3  0  0  0  0  0  0
  186.6670  178.0090  144.0440 C   0  0  0  0  0  0  0  0  0  0  0  0
  185.3900  178.9250  145.9030 C   0  0  0  0  0  0  0  0  0  0  0  0
  189.0460  177.1900  144.3060 C   0  0  0  0  0  0  0  0  0  0  0  0
  191.3590  177.4170  145.8370 C   0  0  0  0  0  3  0  0  0  0  0  0
  186.4350  178.1310  145.4240 C   0  0  0  0  0  3  0  0  0  0  0  0
  188.9090  178.3860  141.6730 C   0  0  2  0  0  3  0  0  0  0  0  0
  190.1820  176.4050  147.6420 F   0  0  0  0  0  0  0  0  0  0  0  0
  185.9960  178.5580  141.6670 C   0  0  0  0  0  2  0  0  0  0  0  0
  185.1840  179.0470  147.2700 O   0  0  0  0  0  1  0  0  0  0  0  0
  190.2820  178.1400  142.2900 C   0  0  0  0  0  2  0  0  0  0  0  0
  187.9710  177.2170  142.0070 C   0  0  2  0  0  3  0  0  0  0  0  0
  189.0810  176.7490  145.5940 N   0  0  0  0  0  0  0  0  0  0  0  0
  184.5520  179.5920  145.0080 C   0  0  0  0  0  3  0  0  0  0  0  0
  190.2040  177.7660  143.7400 C   0  0  0  0  0  0  0  0  0  0  0  0
  191.3600  177.8650  144.5170 C   0  0  0  0  0  3  0  0  0  0  0  0
  186.6860  177.3170  141.3030 N   0  0  0  0  0  2  0  0  0  0  0  0
  185.7880  178.6540  143.1460 C   0  0  0  0  0  0  0  0  0  0  0  0
  184.7520  179.4560  143.6320 C   0  0  0  0  0  3  0  0  0  0  0  0
  190.2970  176.5680  139.9560 O   0  0  0  0  0  0  0  0  0  0  0  0
  189.7460  177.5680  139.4250 C   0  0  0  0  0  0  0  0  0  0  0  0
  189.0450  178.5210  140.2300 N   0  0  0  0  0  2  0  0  0  0  0  0
  187.2200  177.5520  136.6260 C   0  0  1  0  0  3  0  0  0  0  0  0
  189.0660  178.9790  137.5110 C   0  0  0  0  0  3  0  0  0  0  0  0
  190.0610  175.3610  137.6210 C   0  0  0  0  0  1  0  0  0  0  0  0
  185.7640  177.5540  137.0410 C   0  0  0  0  0  1  0  0  0  0  0  0
  187.8500  178.8830  136.9530 C   0  0  0  0  0  3  0  0  0  0  0  0
  189.3950  176.5690  137.1540 N   0  0  0  0  0  0  0  0  0  0  0  0
  189.8340  177.7490  137.9290 C   0  0  2  0  0  3  0  0  0  0  0  0
  187.9510  176.3870  137.2950 C   0  0  0  0  0  2  0  0  0  0  0  0
  1  9  1  0  0  0  0
  2  3  1  1  0  0  0
  2  5  1  0  0  0  0
  3  7  1  0  0  0  0
  4 11  1  0  0  0  0
  5 14  1  0  0  0  0
  6  1  1  0  0  0  0
  7  4  2  0  0  0  0
  8 23  1  6  0  0  0
  8 13  1  0  0  0  0
  8 12  1  0  0  0  0
 10 19  1  0  0  0  0
 12 16  1  0  0  0  0
 13 18  1  6  0  0  0
 13  2  1  0  0  0  0
 14  1  2  0  0  0  0
 15  4  1  0  0  0  0
 16  5  2  0  0  0  0
 16 17  1  0  0  0  0
 17  6  2  0  0  0  0
 18 10  1  0  0  0  0
 19 20  1  0  0  0  0
 19  3  2  0  0  0  0
 20 15  2  0  0  0  0
 22 21  2  0  0  0  0
 22 23  1  0  0  0  0
 24 28  1  0  0  0  0
 24 27  1  1  0  0  0
 24 31  1  0  0  0  0
 25 30  1  0  0  0  0
 28 25  2  0  0  0  0
 29 31  1  0  0  0  0
 29 26  1  0  0  0  0
 29 30  1  0  0  0  0
 30 22  1  1  0  0  0
M  END
>  <MODEL>
2

>  <REMARK>
 VINA RESULT:      -9.0      3.257      5.053
  Name = 
  2 active torsions:
  status: ('A' for Active; 'I' for Inactive)
    1  A    between atoms: C_5  and  C_30
    2  A    between atoms: C_10  and  N_16
                            x       y       z     vdW  Elec       q    Type
                         _______ _______ _______ _____ _____    ______ ____

>  <TORSDO>
F 2

$$$$
=
 OpenBabel11122411113D

 31 35  0  0  1  0  0  0  0  0999 V2000
  191.3160  176.7370  145.0990 C   0  0  0  0  0  0  0  0  0  0  0  0
  187.7730  177.0250  143.8990 C   0  0  2  0  0  3  0  0  0  0  0  0
  187.0670  177.7950  145.0000 C   0  0  0  0  0  0  0  0  0  0  0  0
  186.8680  178.4010  147.3490 C   0  0  0  0  0  0  0  0  0  0  0  0
  189.2800  177.1730  143.9440 C   0  0  0  0  0  0  0  0  0  0  0  0
  192.0410  177.4550  144.1480 C   0  0  0  0  0  3  0  0  0  0  0  0
  187.5540  177.7570  146.3170 C   0  0  0  0  0  3  0  0  0  0  0  0
  187.8080  178.6070  141.9050 C   0  0  2  0  0  3  0  0  0  0  0  0
  191.9560  176.1660  146.1470 F   0  0  0  0  0  0  0  0  0  0  0  0
  185.2790  178.5130  143.3600 C   0  0  0  0  0  2  0  0  0  0  0  0
  187.3710  178.3680  148.6420 O   0  0  0  0  0  1  0  0  0  0  0  0
  189.3120  178.4270  141.7250 C   0  0  0  0  0  2  0  0  0  0  0  0
  187.1970  177.3300  142.5010 C   0  0  2  0  0  3  0  0  0  0  0  0
  189.9690  176.6110  144.9760 N   0  0  0  0  0  0  0  0  0  0  0  0
  185.6750  179.0750  147.0810 C   0  0  0  0  0  3  0  0  0  0  0  0
  189.9820  177.9050  142.9610 C   0  0  0  0  0  0  0  0  0  0  0  0
  191.3680  178.0310  143.0720 C   0  0  0  0  0  3  0  0  0  0  0  0
  185.7300  177.3830  142.5430 N   0  0  0  0  0  2  0  0  0  0  0  0
  185.8390  178.4430  144.7470 C   0  0  0  0  0  0  0  0  0  0  0  0
  185.1620  179.0950  145.7820 C   0  0  0  0  0  3  0  0  0  0  0  0
  188.3040  177.1830  139.4740 O   0  0  0  0  0  0  0  0  0  0  0  0
  187.4820  178.1380  139.4350 C   0  0  0  0  0  0  0  0  0  0  0  0
  187.1980  178.8970  140.6140 N   0  0  0  0  0  2  0  0  0  0  0  0
  186.8440  176.2290  136.2470 C   0  0  1  0  0  3  0  0  0  0  0  0
  185.5980  177.5830  137.9330 C   0  0  0  0  0  3  0  0  0  0  0  0
  188.9080  179.1860  137.1780 C   0  0  0  0  0  1  0  0  0  0  0  0
  187.1460  174.7460  136.2850 C   0  0  0  0  0  1  0  0  0  0  0  0
  185.6370  176.5320  137.1000 C   0  0  0  0  0  3  0  0  0  0  0  0
  187.6960  178.4090  136.9530 N   0  0  0  0  0  0  0  0  0  0  0  0
  186.8020  178.4710  138.1300 C   0  0  2  0  0  3  0  0  0  0  0  0
  188.0760  177.0230  136.6860 C   0  0  0  0  0  2  0  0  0  0  0  0
  1  9  1  0  0  0  0
  2  5  1  6  0  0  0
  2  3  1  0  0  0  0
  3  7  1  0  0  0  0
  4 11  1  0  0  0  0
  5 14  2  0  0  0  0
  6  1  2  0  0  0  0
  7  4  2  0  0  0  0
  8 23  1  6  0  0  0
  8 13  1  0  0  0  0
 10 19  1  0  0  0  0
 12  8  1  0  0  0  0
 12 16  1  0  0  0  0
 13 18  1  1  0  0  0
 13  2  1  0  0  0  0
 14  1  1  0  0  0  0
 15  4  1  0  0  0  0
 16 17  2  0  0  0  0
 16  5  1  0  0  0  0
 17  6  1  0  0  0  0
 18 10  1  0  0  0  0
 19  3  2  0  0  0  0
 19 20  1  0  0  0  0
 20 15  2  0  0  0  0
 22 21  2  0  0  0  0
 22 23  1  0  0  0  0
 24 27  1  1  0  0  0
 24 31  1  0  0  0  0
 24 28  1  0  0  0  0
 25 30  1  0  0  0  0
 28 25  2  0  0  0  0
 29 26  1  0  0  0  0
 29 30  1  0  0  0  0
 30 22  1  1  0  0  0
 31 29  1  0  0  0  0
M  END
>  <MODEL>
3

>  <REMARK>
 VINA RESULT:      -8.9      2.966      3.781
  Name = 
  2 active torsions:
  status: ('A' for Active; 'I' for Inactive)
    1  A    between atoms: C_5  and  C_30
    2  A    between atoms: C_10  and  N_16
                            x       y       z     vdW  Elec       q    Type
                         _______ _______ _______ _____ _____    ______ ____

>  <TORSDO>
F 2

$$$$
=
 OpenBabel11122411113D

 31 35  0  0  1  0  0  0  0  0999 V2000
  189.1690  177.6610  143.6520 C   0  0  0  0  0  0  0  0  0  0  0  0
  186.8860  178.9490  140.9680 C   0  0  2  0  0  3  0  0  0  0  0  0
  187.2300  178.1110  139.7500 C   0  0  0  0  0  0  0  0  0  0  0  0
  188.8530  176.8220  138.4740 C   0  0  0  0  0  0  0  0  0  0  0  0
  187.3480  178.3250  142.2680 C   0  0  0  0  0  0  0  0  0  0  0  0
  188.2920  177.1280  144.5970 C   0  0  0  0  0  3  0  0  0  0  0  0
  188.5030  177.5310  139.6240 C   0  0  0  0  0  3  0  0  0  0  0  0
  184.5290  178.2360  141.6150 C   0  0  2  0  0  3  0  0  0  0  0  0
  190.5060  177.5960  143.8580 F   0  0  0  0  0  0  0  0  0  0  0  0
  184.9600  178.6150  138.7530 C   0  0  0  0  0  2  0  0  0  0  0  0
  190.1100  176.2410  138.3710 O   0  0  0  0  0  1  0  0  0  0  0  0
  184.9500  177.9800  143.0580 C   0  0  0  0  0  2  0  0  0  0  0  0
  185.3970  179.3490  141.0080 C   0  0  2  0  0  3  0  0  0  0  0  0
  188.6830  178.2430  142.5240 N   0  0  0  0  0  0  0  0  0  0  0  0
  187.9400  176.6990  137.4240 C   0  0  0  0  0  3  0  0  0  0  0  0
  186.4310  177.7980  143.2040 C   0  0  0  0  0  0  0  0  0  0  0  0
  186.9190  177.2090  144.3720 C   0  0  0  0  0  3  0  0  0  0  0  0
  184.9310  179.7530  139.6760 N   0  0  0  0  0  2  0  0  0  0  0  0
  186.3300  178.0170  138.6670 C   0  0  0  0  0  0  0  0  0  0  0  0
  186.6810  177.2960  137.5220 C   0  0  0  0  0  3  0  0  0  0  0  0
  182.4550  176.8480  140.2190 O   0  0  0  0  0  0  0  0  0  0  0  0
  182.1330  177.8780  140.8700 C   0  0  0  0  0  0  0  0  0  0  0  0
  183.1250  178.6230  141.5820 N   0  0  0  0  0  2  0  0  0  0  0  0
  179.0530  176.8460  138.9550 C   0  0  1  0  0  3  0  0  0  0  0  0
  179.8070  177.1670  141.3130 C   0  0  0  0  0  3  0  0  0  0  0  0
  181.1220  179.9360  139.1480 C   0  0  0  0  0  1  0  0  0  0  0  0
  179.1850  175.6050  138.0980 C   0  0  0  0  0  1  0  0  0  0  0  0
  179.0920  176.4700  140.4160 C   0  0  0  0  0  3  0  0  0  0  0  0
  180.2180  178.8930  139.6120 N   0  0  0  0  0  0  0  0  0  0  0  0
  180.6890  178.3150  140.8900 C   0  0  2  0  0  3  0  0  0  0  0  0
  180.1470  177.8510  138.5880 C   0  0  0  0  0  2  0  0  0  0  0  0
  1  9  1  0  0  0  0
  1  6  1  0  0  0  0
  2  3  1  6  0  0  0
  2 13  1  0  0  0  0
  2  5  1  0  0  0  0
  4  7  2  0  0  0  0
  5 14  1  0  0  0  0
  5 16  2  0  0  0  0
  7  3  1  0  0  0  0
  8 23  1  1  0  0  0
  8 12  1  0  0  0  0
 10 18  1  0  0  0  0
 11  4  1  0  0  0  0
 12 16  1  0  0  0  0
 13 18  1  6  0  0  0
 13  8  1  0  0  0  0
 14  1  2  0  0  0  0
 15 20  2  0  0  0  0
 15  4  1  0  0  0  0
 16 17  1  0  0  0  0
 17  6  2  0  0  0  0
 19 10  1  0  0  0  0
 19  3  2  0  0  0  0
 20 19  1  0  0  0  0
 21 22  2  0  0  0  0
 22 23  1  0  0  0  0
 24 27  1  6  0  0  0
 24 28  1  0  0  0  0
 26 29  1  0  0  0  0
 28 25  2  0  0  0  0
 29 30  1  0  0  0  0
 30 22  1  6  0  0  0
 30 25  1  0  0  0  0
 31 24  1  0  0  0  0
 31 29  1  0  0  0  0
M  END
>  <MODEL>
4

>  <REMARK>
 VINA RESULT:      -8.8      2.667      4.863
  Name = 
  2 active torsions:
  status: ('A' for Active; 'I' for Inactive)
    1  A    between atoms: C_5  and  C_30
    2  A    between atoms: C_10  and  N_16
                            x       y       z     vdW  Elec       q    Type
                         _______ _______ _______ _____ _____    ______ ____

>  <TORSDO>
F 2

$$$$
=
 OpenBabel11122411113D

 31 35  0  0  1  0  0  0  0  0999 V2000
  191.1630  176.4250  143.8390 C   0  0  0  0  0  0  0  0  0  0  0  0
  187.4530  176.9820  143.7910 C   0  0  2  0  0  3  0  0  0  0  0  0
  187.1640  177.6860  145.1050 C   0  0  0  0  0  0  0  0  0  0  0  0
  187.7180  178.0960  147.4390 C   0  0  0  0  0  0  0  0  0  0  0  0
  188.9110  177.0540  143.3880 C   0  0  0  0  0  0  0  0  0  0  0  0
  191.6200  177.1880  142.7640 C   0  0  0  0  0  3  0  0  0  0  0  0
  188.0170  177.5120  146.2060 C   0  0  0  0  0  3  0  0  0  0  0  0
  187.0030  178.7270  141.9930 C   0  0  2  0  0  3  0  0  0  0  0  0
  192.0440  175.7360  144.6030 F   0  0  0  0  0  0  0  0  0  0  0  0
  185.0240  178.6270  144.1360 C   0  0  0  0  0  2  0  0  0  0  0  0
  188.5800  177.9280  148.5140 O   0  0  0  0  0  1  0  0  0  0  0  0
  188.3680  178.4920  141.3550 C   0  0  0  0  0  2  0  0  0  0  0  0
  186.5090  177.4340  142.6580 C   0  0  2  0  0  3  0  0  0  0  0  0
  189.8340  176.3730  144.1220 N   0  0  0  0  0  0  0  0  0  0  0  0
  186.5500  178.8460  147.5920 C   0  0  0  0  0  3  0  0  0  0  0  0
  189.3380  177.8350  142.2910 C   0  0  0  0  0  0  0  0  0  0  0  0
  190.6990  177.8850  141.9850 C   0  0  0  0  0  3  0  0  0  0  0  0
  185.1300  177.5520  143.1460 N   0  0  0  0  0  2  0  0  0  0  0  0
  185.9650  178.4110  145.2800 C   0  0  0  0  0  0  0  0  0  0  0  0
  185.6760  179.0030  146.5130 C   0  0  0  0  0  3  0  0  0  0  0  0
  186.9200  177.7690  139.3000 O   0  0  0  0  0  0  0  0  0  0  0  0
  186.0640  178.6280  139.6410 C   0  0  0  0  0  0  0  0  0  0  0  0
  186.0580  179.1550  140.9710 N   0  0  0  0  0  2  0  0  0  0  0  0
  182.5100  177.6450  138.8520 C   0  0  1  0  0  3  0  0  0  0  0  0
  183.8530  179.6920  139.3350 C   0  0  0  0  0  3  0  0  0  0  0  0
  185.7690  177.3940  137.0680 C   0  0  0  0  0  1  0  0  0  0  0  0
  181.8380  176.7190  139.8440 C   0  0  0  0  0  1  0  0  0  0  0  0
  182.7080  179.0060  139.4710 C   0  0  0  0  0  3  0  0  0  0  0  0
  184.6180  178.0450  137.6790 N   0  0  0  0  0  0  0  0  0  0  0  0
  185.0450  179.0940  138.6300 C   0  0  2  0  0  3  0  0  0  0  0  0
  183.8280  177.0300  138.3760 C   0  0  0  0  0  2  0  0  0  0  0  0
  1 14  1  0  0  0  0
  1  9  1  0  0  0  0
  2  5  1  6  0  0  0
  2  3  1  0  0  0  0
  3 19  2  0  0  0  0
  3  7  1  0  0  0  0
  4 15  1  0  0  0  0
  4 11  1  0  0  0  0
  5 14  2  0  0  0  0
  6  1  2  0  0  0  0
  7  4  2  0  0  0  0
  8 23  1  6  0  0  0
  8 13  1  0  0  0  0
 10 19  1  0  0  0  0
 12  8  1  0  0  0  0
 12 16  1  0  0  0  0
 13 18  1  1  0  0  0
 13  2  1  0  0  0  0
 16  5  1  0  0  0  0
 17 16  2  0  0  0  0
 17  6  1  0  0  0  0
 18 10  1  0  0  0  0
 19 20  1  0  0  0  0
 20 15  2  0  0  0  0
 21 22  2  0  0  0  0
 22 23  1  0  0  0  0
 24 28  1  0  0  0  0
 24 27  1  1  0  0  0
 25 28  2  0  0  0  0
 26 29  1  0  0  0  0
 29 31  1  0  0  0  0
 29 30  1  0  0  0  0
 30 25  1  0  0  0  0
 30 22  1  1  0  0  0
 31 24  1  0  0  0  0
M  END
>  <MODEL>
5

>  <REMARK>
 VINA RESULT:      -8.8      1.562      1.925
  Name = 
  2 active torsions:
  status: ('A' for Active; 'I' for Inactive)
    1  A    between atoms: C_5  and  C_30
    2  A    between atoms: C_10  and  N_16
                            x       y       z     vdW  Elec       q    Type
                         _______ _______ _______ _____ _____    ______ ____

>  <TORSDO>
F 2

$$$$
=
 OpenBabel11122411113D

 31 35  0  0  1  0  0  0  0  0999 V2000
  188.7560  177.7380  143.8810 C   0  0  0  0  0  0  0  0  0  0  0  0
  186.7540  178.9400  140.9450 C   0  0  2  0  0  3  0  0  0  0  0  0
  187.2260  178.0740  139.7900 C   0  0  0  0  0  0  0  0  0  0  0  0
  188.9790  176.7670  138.7210 C   0  0  0  0  0  0  0  0  0  0  0  0
  187.0830  178.3520  142.3010 C   0  0  0  0  0  0  0  0  0  0  0  0
  187.7890  177.2220  144.7440 C   0  0  0  0  0  3  0  0  0  0  0  0
  188.5090  177.5020  139.8110 C   0  0  0  0  0  3  0  0  0  0  0  0
  184.3470  178.2250  141.3640 C   0  0  2  0  0  3  0  0  0  0  0  0
  190.0650  177.6900  144.2250 F   0  0  0  0  0  0  0  0  0  0  0  0
  185.0680  178.5350  138.5530 C   0  0  0  0  0  2  0  0  0  0  0  0
  190.2420  176.1940  138.7630 O   0  0  0  0  0  1  0  0  0  0  0  0
  184.6180  178.0080  142.8490 C   0  0  0  0  0  2  0  0  0  0  0  0
  185.2660  179.3280  140.8210 C   0  0  2  0  0  3  0  0  0  0  0  0
  188.3860  178.2870  142.6940 N   0  0  0  0  0  0  0  0  0  0  0  0
  188.1790  176.6110  137.5860 C   0  0  0  0  0  3  0  0  0  0  0  0
  186.0780  177.8410  143.1510 C   0  0  0  0  0  0  0  0  0  0  0  0
  186.4460  177.2860  144.3770 C   0  0  0  0  0  3  0  0  0  0  0  0
  184.9370  179.6950  139.4380 N   0  0  0  0  0  2  0  0  0  0  0  0
  186.4430  177.9460  138.6230 C   0  0  0  0  0  0  0  0  0  0  0  0
  186.9130  177.1990  137.5390 C   0  0  0  0  0  3  0  0  0  0  0  0
  182.4380  176.7910  139.7900 O   0  0  0  0  0  0  0  0  0  0  0  0
  182.0440  177.8310  140.3820 C   0  0  0  0  0  0  0  0  0  0  0  0
  182.9520  178.5990  141.1770 N   0  0  0  0  0  2  0  0  0  0  0  0
  179.3250  178.7350  142.8330 C   0  0  1  0  0  3  0  0  0  0  0  0
  180.4200  179.6520  140.7860 C   0  0  0  0  0  3  0  0  0  0  0  0
  179.8740  175.9560  140.4160 C   0  0  0  0  0  1  0  0  0  0  0  0
  179.7570  178.9080  144.2740 C   0  0  0  0  0  1  0  0  0  0  0  0
  179.8730  179.8620  141.9930 C   0  0  0  0  0  3  0  0  0  0  0  0
  179.6380  177.3230  140.8620 N   0  0  0  0  0  0  0  0  0  0  0  0
  180.6030  178.2560  140.2420 C   0  0  2  0  0  3  0  0  0  0  0  0
  179.7670  177.3630  142.3180 C   0  0  0  0  0  2  0  0  0  0  0  0
  1  9  1  0  0  0  0
  1  6  1  0  0  0  0
  2  3  1  6  0  0  0
  2  5  1  0  0  0  0
  3  7  1  0  0  0  0
  4 11  1  0  0  0  0
  4  7  2  0  0  0  0
  5 14  1  0  0  0  0
  5 16  2  0  0  0  0
  8 23  1  1  0  0  0
  8 12  1  0  0  0  0
 10 19  1  0  0  0  0
 10 18  1  0  0  0  0
 12 16  1  0  0  0  0
 13 18  1  6  0  0  0
 13  2  1  0  0  0  0
 13  8  1  0  0  0  0
 14  1  2  0  0  0  0
 15  4  1  0  0  0  0
 16 17  1  0  0  0  0
 17  6  2  0  0  0  0
 19  3  2  0  0  0  0
 20 15  2  0  0  0  0
 20 19  1  0  0  0  0
 21 22  2  0  0  0  0
 22 23  1  0  0  0  0
 24 27  1  1  0  0  0
 25 28  2  0  0  0  0
 26 29  1  0  0  0  0
 28 24  1  0  0  0  0
 29 31  1  0  0  0  0
 30 22  1  1  0  0  0
 30 25  1  0  0  0  0
 30 29  1  0  0  0  0
 31 24  1  0  0  0  0
M  END
>  <MODEL>
6

>  <REMARK>
 VINA RESULT:      -8.7      2.639      5.168
  Name = 
  2 active torsions:
  status: ('A' for Active; 'I' for Inactive)
    1  A    between atoms: C_5  and  C_30
    2  A    between atoms: C_10  and  N_16
                            x       y       z     vdW  Elec       q    Type
                         _______ _______ _______ _____ _____    ______ ____

>  <TORSDO>
F 2

$$$$
=
 OpenBabel11122411113D

 31 35  0  0  1  0  0  0  0  0999 V2000
  179.8710  178.9950  143.4650 C   0  0  0  0  0  0  0  0  0  0  0  0
  183.2230  179.3820  141.8250 C   0  0  2  0  0  3  0  0  0  0  0  0
  184.2060  178.8450  142.8510 C   0  0  0  0  0  0  0  0  0  0  0  0
  184.8100  178.4360  145.1730 C   0  0  0  0  0  0  0  0  0  0  0  0
  181.8010  178.9250  142.0700 C   0  0  0  0  0  0  0  0  0  0  0  0
  179.2090  178.0850  142.6410 C   0  0  0  0  0  3  0  0  0  0  0  0
  183.8830  178.8590  144.2180 C   0  0  0  0  0  3  0  0  0  0  0  0
  183.2910  177.7110  139.9060 C   0  0  2  0  0  3  0  0  0  0  0  0
  179.2540  179.4810  144.5680 F   0  0  0  0  0  0  0  0  0  0  0  0
  185.8960  178.4180  141.0170 C   0  0  0  0  0  2  0  0  0  0  0  0
  184.4710  178.4400  146.5190 O   0  0  0  0  0  1  0  0  0  0  0  0
  181.7730  177.5620  139.9180 C   0  0  0  0  0  2  0  0  0  0  0  0
  183.6800  179.1200  140.3760 C   0  0  2  0  0  3  0  0  0  0  0  0
  181.1360  179.3920  143.1640 N   0  0  0  0  0  0  0  0  0  0  0  0
  186.0790  178.0110  144.7750 C   0  0  0  0  0  3  0  0  0  0  0  0
  181.1600  178.0050  141.2120 C   0  0  0  0  0  0  0  0  0  0  0  0
  179.8570  177.5990  141.5060 C   0  0  0  0  0  3  0  0  0  0  0  0
  185.1180  179.3780  140.2290 N   0  0  0  0  0  2  0  0  0  0  0  0
  185.5050  178.4530  142.4620 C   0  0  0  0  0  0  0  0  0  0  0  0
  186.4250  178.0200  143.4210 C   0  0  0  0  0  3  0  0  0  0  0  0
  183.3080  175.1920  138.5520 O   0  0  0  0  0  0  0  0  0  0  0  0
  183.7600  176.1910  137.9330 C   0  0  0  0  0  0  0  0  0  0  0  0
  183.7900  177.4780  138.5580 N   0  0  0  0  0  2  0  0  0  0  0  0
  184.7960  173.2090  135.8720 C   0  0  1  0  0  3  0  0  0  0  0  0
  183.2940  175.1960  135.7180 C   0  0  0  0  0  3  0  0  0  0  0  0
  186.5580  176.1620  137.3000 C   0  0  0  0  0  1  0  0  0  0  0  0
  184.4820  171.8490  136.4600 C   0  0  0  0  0  1  0  0  0  0  0  0
  183.5190  173.8990  135.4590 C   0  0  0  0  0  3  0  0  0  0  0  0
  185.6290  175.4340  136.4460 N   0  0  0  0  0  0  0  0  0  0  0  0
  184.2710  176.0150  136.5240 C   0  0  2  0  0  3  0  0  0  0  0  0
  185.6020  174.0370  136.8750 C   0  0  0  0  0  2  0  0  0  0  0  0
  1  9  1  0  0  0  0
  2  5  1  1  0  0  0
  2  3  1  0  0  0  0
  3  7  1  0  0  0  0
  4 11  1  0  0  0  0
  5 14  2  0  0  0  0
  6  1  2  0  0  0  0
  7  4  2  0  0  0  0
  8 23  1  6  0  0  0
  8 12  1  0  0  0  0
  8 13  1  0  0  0  0
 10 19  1  0  0  0  0
 12 16  1  0  0  0  0
 13 18  1  1  0  0  0
 13  2  1  0  0  0  0
 14  1  1  0  0  0  0
 15  4  1  0  0  0  0
 16 17  2  0  0  0  0
 16  5  1  0  0  0  0
 17  6  1  0  0  0  0
 18 10  1  0  0  0  0
 19  3  2  0  0  0  0
 19 20  1  0  0  0  0
 20 15  2  0  0  0  0
 22 21  2  0  0  0  0
 22 23  1  0  0  0  0
 24 27  1  1  0  0  0
 24 31  1  0  0  0  0
 25 30  1  0  0  0  0
 28 25  2  0  0  0  0
 28 24  1  0  0  0  0
 29 30  1  0  0  0  0
 29 31  1  0  0  0  0
 29 26  1  0  0  0  0
 30 22  1  1  0  0  0
M  END
>  <MODEL>
7

>  <REMARK>
 VINA RESULT:      -8.2      3.965      6.424
  Name = 
  2 active torsions:
  status: ('A' for Active; 'I' for Inactive)
    1  A    between atoms: C_5  and  C_30
    2  A    between atoms: C_10  and  N_16
                            x       y       z     vdW  Elec       q    Type
                         _______ _______ _______ _____ _____    ______ ____

>  <TORSDO>
F 2

$$$$
=
 OpenBabel11122411113D

 31 35  0  0  1  0  0  0  0  0999 V2000
  185.0340  178.6400  139.2760 C   0  0  0  0  0  0  0  0  0  0  0  0
  188.7470  178.2130  139.6060 C   0  0  2  0  0  3  0  0  0  0  0  0
  188.9210  177.4530  140.9090 C   0  0  0  0  0  0  0  0  0  0  0  0
  188.1370  176.9040  143.1460 C   0  0  0  0  0  0  0  0  0  0  0  0
  187.3450  178.1120  139.0430 C   0  0  0  0  0  0  0  0  0  0  0  0
  184.7250  177.9180  138.1230 C   0  0  0  0  0  3  0  0  0  0  0  0
  187.9490  177.5400  141.9180 C   0  0  0  0  0  3  0  0  0  0  0  0
  189.4550  176.5800  137.7870 C   0  0  2  0  0  3  0  0  0  0  0  0
  184.0490  179.2580  139.9720 F   0  0  0  0  0  0  0  0  0  0  0  0
  191.1880  176.6370  140.1350 C   0  0  0  0  0  2  0  0  0  0  0  0
  187.1590  176.9870  144.1280 O   0  0  0  0  0  1  0  0  0  0  0  0
  188.1580  176.8000  137.0160 C   0  0  0  0  0  2  0  0  0  0  0  0
  189.8240  177.8530  138.5630 C   0  0  2  0  0  3  0  0  0  0  0  0
  186.3220  178.7220  139.7040 N   0  0  0  0  0  0  0  0  0  0  0  0
  189.3110  176.1880  143.3900 C   0  0  0  0  0  3  0  0  0  0  0  0
  187.0690  177.3750  137.8710 C   0  0  0  0  0  0  0  0  0  0  0  0
  185.7510  177.2940  137.4160 C   0  0  0  0  0  3  0  0  0  0  0  0
  191.1470  177.7570  139.1920 N   0  0  0  0  0  2  0  0  0  0  0  0
  190.1220  176.7610  141.1790 C   0  0  0  0  0  0  0  0  0  0  0  0
  190.3000  176.1170  142.4060 C   0  0  0  0  0  3  0  0  0  0  0  0
  190.9750  174.1580  137.8180 O   0  0  0  0  0  0  0  0  0  0  0  0
  191.2370  175.0010  136.9180 C   0  0  0  0  0  0  0  0  0  0  0  0
  190.5200  176.2370  136.8550 N   0  0  0  0  0  2  0  0  0  0  0  0
  194.5370  173.1850  137.0830 C   0  0  1  0  0  3  0  0  0  0  0  0
  192.4410  173.1980  135.7280 C   0  0  0  0  0  3  0  0  0  0  0  0
  193.5010  176.7140  136.5080 C   0  0  0  0  0  1  0  0  0  0  0  0
  194.8140  172.4180  138.3590 C   0  0  0  0  0  1  0  0  0  0  0  0
  193.4370  172.5070  136.3030 C   0  0  0  0  0  3  0  0  0  0  0  0
  193.6300  175.2900  136.2330 N   0  0  0  0  0  0  0  0  0  0  0  0
  192.3170  174.6910  135.9110 C   0  0  2  0  0  3  0  0  0  0  0  0
  194.2000  174.6400  137.4120 C   0  0  0  0  0  2  0  0  0  0  0  0
  1 14  1  0  0  0  0
  1  9  1  0  0  0  0
  2  5  1  6  0  0  0
  2  3  1  0  0  0  0
  3 19  2  0  0  0  0
  3  7  1  0  0  0  0
  4 15  1  0  0  0  0
  4 11  1  0  0  0  0
  5 14  2  0  0  0  0
  6  1  2  0  0  0  0
  7  4  2  0  0  0  0
  8 23  1  6  0  0  0
  8 13  1  0  0  0  0
 10 19  1  0  0  0  0
 12  8  1  0  0  0  0
 12 16  1  0  0  0  0
 13 18  1  1  0  0  0
 13  2  1  0  0  0  0
 16  5  1  0  0  0  0
 17 16  2  0  0  0  0
 17  6  1  0  0  0  0
 18 10  1  0  0  0  0
 19 20  1  0  0  0  0
 20 15  2  0  0  0  0
 22 21  2  0  0  0  0
 23 22  1  0  0  0  0
 24 31  1  0  0  0  0
 24 27  1  1  0  0  0
 25 30  1  0  0  0  0
 25 28  2  0  0  0  0
 28 24  1  0  0  0  0
 29 26  1  0  0  0  0
 29 31  1  0  0  0  0
 30 29  1  0  0  0  0
 30 22  1  1  0  0  0
M  END
>  <MODEL>
8

>  <REMARK>
 VINA RESULT:      -8.2      5.006      8.752
  Name = 
  2 active torsions:
  status: ('A' for Active; 'I' for Inactive)
    1  A    between atoms: C_5  and  C_30
    2  A    between atoms: C_10  and  N_16
                            x       y       z     vdW  Elec       q    Type
                         _______ _______ _______ _____ _____    ______ ____

>  <TORSDO>
F 2

$$$$
=
 OpenBabel11122411113D

 31 35  0  0  1  0  0  0  0  0999 V2000
  186.8330  178.0980  146.7600 C   0  0  0  0  0  0  0  0  0  0  0  0
  189.7740  178.2560  144.4360 C   0  0  2  0  0  3  0  0  0  0  0  0
  190.6300  177.0660  144.8340 C   0  0  0  0  0  0  0  0  0  0  0  0
  191.3950  175.4990  146.5320 C   0  0  0  0  0  0  0  0  0  0  0  0
  188.3440  178.1460  144.9190 C   0  0  0  0  0  0  0  0  0  0  0  0
  185.7530  177.8820  145.9030 C   0  0  0  0  0  3  0  0  0  0  0  0
  190.5590  176.5450  146.1360 C   0  0  0  0  0  3  0  0  0  0  0  0
  188.8970  177.6920  142.1140 C   0  0  2  0  0  3  0  0  0  0  0  0
  186.6310  178.1780  148.0970 F   0  0  0  0  0  0  0  0  0  0  0  0
  191.7160  177.0750  142.5490 C   0  0  0  0  0  2  0  0  0  0  0  0
  191.3020  174.9850  147.8180 O   0  0  0  0  0  1  0  0  0  0  0  0
  187.4590  177.9750  142.5350 C   0  0  0  0  0  2  0  0  0  0  0  0
  189.8610  178.5670  142.9280 C   0  0  2  0  0  3  0  0  0  0  0  0
  188.0890  178.2270  146.2550 N   0  0  0  0  0  0  0  0  0  0  0  0
  192.3280  174.9730  145.6350 C   0  0  0  0  0  3  0  0  0  0  0  0
  187.2740  177.9300  144.0230 C   0  0  0  0  0  0  0  0  0  0  0  0
  185.9790  177.8090  144.5300 C   0  0  0  0  0  3  0  0  0  0  0  0
  191.2460  178.4590  142.4530 N   0  0  0  0  0  2  0  0  0  0  0  0
  191.6040  176.5560  143.9490 C   0  0  0  0  0  0  0  0  0  0  0  0
  192.4300  175.5010  144.3460 C   0  0  0  0  0  3  0  0  0  0  0  0
  190.2160  176.0030  140.2210 O   0  0  0  0  0  0  0  0  0  0  0  0
  189.7130  177.0760  139.7950 C   0  0  0  0  0  0  0  0  0  0  0  0
  189.0490  177.9700  140.6920 N   0  0  0  0  0  2  0  0  0  0  0  0
  187.2230  177.3390  136.9760 C   0  0  1  0  0  3  0  0  0  0  0  0
  189.0540  178.6720  138.0240 C   0  0  0  0  0  3  0  0  0  0  0  0
  190.0580  175.0630  137.7810 C   0  0  0  0  0  1  0  0  0  0  0  0
  185.7620  177.2970  137.3700 C   0  0  0  0  0  1  0  0  0  0  0  0
  187.8450  178.6320  137.4440 C   0  0  0  0  0  3  0  0  0  0  0  0
  189.3940  176.3110  137.4300 N   0  0  0  0  0  0  0  0  0  0  0  0
  189.8200  177.4080  138.3270 C   0  0  2  0  0  3  0  0  0  0  0  0
  187.9490  176.1130  137.5330 C   0  0  0  0  0  2  0  0  0  0  0  0
  1  9  1  0  0  0  0
  2  3  1  6  0  0  0
  2  5  1  0  0  0  0
  3  7  1  0  0  0  0
  4 11  1  0  0  0  0
  5 14  2  0  0  0  0
  6  1  2  0  0  0  0
  7  4  2  0  0  0  0
  8 23  1  6  0  0  0
  8 12  1  0  0  0  0
  8 13  1  0  0  0  0
 10 19  1  0  0  0  0
 12 16  1  0  0  0  0
 13 18  1  6  0  0  0
 13  2  1  0  0  0  0
 14  1  1  0  0  0  0
 15  4  1  0  0  0  0
 16 17  2  0  0  0  0
 16  5  1  0  0  0  0
 17  6  1  0  0  0  0
 18 10  1  0  0  0  0
 19 20  1  0  0  0  0
 19  3  2  0  0  0  0
 20 15  2  0  0  0  0
 22 21  2  0  0  0  0
 22 23  1  0  0  0  0
 24 27  1  1  0  0  0
 24 28  1  0  0  0  0
 24 31  1  0  0  0  0
 25 30  1  0  0  0  0
 28 25  2  0  0  0  0
 29 31  1  0  0  0  0
 29 26  1  0  0  0  0
 29 30  1  0  0  0  0
 30 22  1  1  0  0  0
M  END
>  <MODEL>
9

>  <REMARK>
 VINA RESULT:      -7.6      3.748      5.808
  Name = 
  2 active torsions:
  status: ('A' for Active; 'I' for Inactive)
    1  A    between atoms: C_5  and  C_30
    2  A    between atoms: C_10  and  N_16
                            x       y       z     vdW  Elec       q    Type
                         _______ _______ _______ _____ _____    ______ ____

>  <TORSDO>
F 2

$$$$
