=
 OpenBabel11122411403D

 37 44  0  0  1  0  0  0  0  0999 V2000
  183.2190  179.4250  139.1000 C   0  0  0  0  0  2  0  0  0  0  0  0
  184.2540  179.0460  143.9640 C   0  0  0  0  0  0  0  0  0  0  0  0
  187.4880  178.7020  141.0750 C   0  0  1  0  0  3  0  0  0  0  0  0
  181.7350  179.1270  138.8660 C   0  0  2  0  0  3  0  0  0  0  0  0
  186.2030  177.3060  137.5820 O   0  0  0  0  0  0  0  0  0  0  0  0
  186.3880  177.8580  143.2300 C   0  0  1  0  0  3  0  0  0  0  0  0
  186.5800  178.2410  139.9530 C   0  0  0  0  0  0  0  0  0  0  0  0
  182.5540  177.7640  136.9220 C   0  0  0  0  0  0  0  0  0  0  0  0
  186.5680  179.0360  142.2570 C   0  0  2  0  0  3  0  0  0  0  0  0
  187.0900  177.7080  138.5980 C   0  0  0  0  0  0  0  0  0  0  0  0
  187.7080  177.2770  143.6850 C   0  0  0  0  0  2  0  0  0  0  0  0
  181.4910  177.9110  137.9670 C   0  0  0  0  0  2  0  0  0  0  0  0
  185.2230  179.3100  141.5910 C   0  0  2  0  0  3  0  0  0  0  0  0
  184.3990  180.5080  144.3460 C   0  0  0  0  0  1  0  0  0  0  0  0
  189.6070  177.3420  140.3710 C   0  0  0  0  0  2  0  0  0  0  0  0
  188.4010  176.7110  142.4600 C   0  0  0  0  0  2  0  0  0  0  0  0
  183.9970  178.9260  142.4530 C   0  0  0  0  0  2  0  0  0  0  0  0
  183.7930  176.9700  137.2180 C   0  0  1  0  0  3  0  0  0  0  0  0
  184.9060  177.8230  137.5670 C   0  0  1  0  0  3  0  0  0  0  0  0
  188.7150  177.8430  141.4920 C   0  0  2  0  0  3  0  0  0  0  0  0
  185.2940  178.5390  140.3080 C   0  0  0  0  0  0  0  0  0  0  0  0
  185.5130  178.2790  144.4080 C   0  0  0  0  0  2  0  0  0  0  0  0
  188.4100  177.6480  138.2750 C   0  0  0  0  0  0  0  0  0  0  0  0
  183.0590  178.4790  144.7010 C   0  0  0  0  0  1  0  0  0  0  0  0
  184.2210  177.0900  138.6370 N   0  0  1  0  0  0  0  0  0  0  0  0
  182.4150  178.2960  135.8330 O   0  0  0  0  0  0  0  0  0  0  0  0
  183.9980  178.1850  139.5870 C   0  0  2  0  0  3  0  0  0  0  0  0
  189.4760  178.2170  139.1500 C   0  0  0  0  0  2  0  0  0  0  0  0
  188.9950  177.8380  135.8470 C   0  0  0  0  0  3  0  0  0  0  0  0
  188.8760  177.0440  136.9990 C   0  0  0  0  0  0  0  0  0  0  0  0
  189.2600  175.6930  136.9330 C   0  0  0  0  0  3  0  0  0  0  0  0
  190.1190  173.7120  135.6790 C   0  0  0  0  0  1  0  0  0  0  0  0
  189.8270  175.9430  134.5940 C   0  0  0  0  0  3  0  0  0  0  0  0
  189.7260  175.1440  135.7350 C   0  0  0  0  0  0  0  0  0  0  0  0
  189.4630  177.2900  134.6500 C   0  0  0  0  0  3  0  0  0  0  0  0
  181.9500  181.5600  138.3560 C   0  0  0  0  0  1  0  0  0  0  0  0
  181.0430  180.3460  138.2780 C   0  0  0  0  0  2  0  0  0  0  0  0
  1 27  1  0  0  0  0
  2 14  1  0  0  0  0
  2 22  1  0  0  0  0
  2 24  1  0  0  0  0
  3  7  1  6  0  0  0
  3 20  1  0  0  0  0
  3  9  1  0  0  0  0
  4 37  1  6  0  0  0
  4  1  1  0  0  0  0
  5 10  1  0  0  0  0
  6 11  1  1  0  0  0
  6 22  1  0  0  0  0
  7 21  2  0  0  0  0
  8 18  1  0  0  0  0
  8 12  1  0  0  0  0
  9  6  1  0  0  0  0
 10  7  1  0  0  0  0
 12  4  1  0  0  0  0
 13  9  1  0  0  0  0
 13 17  1  0  0  0  0
 15 20  1  0  0  0  0
 16 11  1  0  0  0  0
 17  2  1  0  0  0  0
 18 19  1  0  0  0  0
 18 25  1  0  0  0  0
 19  5  1  0  0  0  0
 19 25  1  0  0  0  0
 20 16  1  0  0  0  0
 21 13  1  0  0  0  0
 23 10  2  0  0  0  0
 23 28  1  0  0  0  0
 25 27  1  0  0  0  0
 26  8  2  0  0  0  0
 27 21  1  0  0  0  0
 28 15  1  0  0  0  0
 29 30  1  0  0  0  0
 30 23  1  0  0  0  0
 31 30  2  0  0  0  0
 32 34  1  0  0  0  0
 33 35  1  0  0  0  0
 33 34  2  0  0  0  0
 34 31  1  0  0  0  0
 35 29  2  0  0  0  0
 37 36  1  0  0  0  0
M  END
>  <MODEL>
1

>  <REMARK>
 VINA RESULT:      -8.4      0.000      0.000
  Name = 
  2 active torsions:
  status: ('A' for Active; 'I' for Inactive)
    1  A    between atoms: C_4  and  C_37
    2  A    between atoms: C_23  and  C_30
                            x       y       z     vdW  Elec       q    Type
                         _______ _______ _______ _____ _____    ______ ____

>  <TORSDO>
F 2

$$$$
=
 OpenBabel11122411403D

 37 44  0  0  1  0  0  0  0  0999 V2000
  190.2120  177.9060  142.3730 C   0  0  0  0  0  2  0  0  0  0  0  0
  191.2040  175.9790  137.8800 C   0  0  0  0  0  0  0  0  0  0  0  0
  187.4240  178.0360  138.5180 C   0  0  1  0  0  3  0  0  0  0  0  0
  191.0790  177.2150  143.4300 C   0  0  2  0  0  3  0  0  0  0  0  0
  186.2520  177.8240  142.3110 O   0  0  0  0  0  0  0  0  0  0  0  0
  188.6840  176.0520  137.4960 C   0  0  1  0  0  3  0  0  0  0  0  0
  187.4130  177.7780  140.0120 C   0  0  0  0  0  0  0  0  0  0  0  0
  188.9670  177.1590  144.7890 C   0  0  0  0  0  0  0  0  0  0  0  0
  188.7680  177.5020  138.0040 C   0  0  2  0  0  3  0  0  0  0  0  0
  186.2040  178.0680  140.9260 C   0  0  0  0  0  0  0  0  0  0  0  0
  187.5730  175.8560  136.4900 C   0  0  0  0  0  2  0  0  0  0  0  0
  190.2670  176.4740  144.4960 C   0  0  0  0  0  2  0  0  0  0  0  0
  189.6530  177.5180  139.2470 C   0  0  2  0  0  3  0  0  0  0  0  0
  192.0100  177.1020  137.2530 C   0  0  0  0  0  1  0  0  0  0  0  0
  184.8380  177.9470  138.1450 C   0  0  0  0  0  2  0  0  0  0  0  0
  186.2620  176.1310  137.2000 C   0  0  0  0  0  2  0  0  0  0  0  0
  190.7240  176.4020  139.2790 C   0  0  0  0  0  2  0  0  0  0  0  0
  187.7420  176.8200  143.9910 C   0  0  1  0  0  3  0  0  0  0  0  0
  187.4900  177.7960  142.9550 C   0  0  1  0  0  3  0  0  0  0  0  0
  186.2220  177.5880  137.6390 C   0  0  2  0  0  3  0  0  0  0  0  0
  188.6790  177.4190  140.3820 C   0  0  0  0  0  0  0  0  0  0  0  0
  190.0380  175.6090  136.9460 C   0  0  0  0  0  2  0  0  0  0  0  0
  185.0500  178.6260  140.4720 C   0  0  0  0  0  0  0  0  0  0  0  0
  192.1050  174.7720  138.0270 C   0  0  0  0  0  1  0  0  0  0  0  0
  188.0570  176.4980  142.5740 N   0  0  1  0  0  0  0  0  0  0  0  0
  188.9080  178.0000  145.6720 O   0  0  0  0  0  0  0  0  0  0  0  0
  189.1790  176.9480  141.7430 C   0  0  2  0  0  3  0  0  0  0  0  0
  184.8980  179.1310  139.0760 C   0  0  0  0  0  2  0  0  0  0  0  0
  182.5790  178.8620  140.8040 C   0  0  0  0  0  3  0  0  0  0  0  0
  183.8680  178.8070  141.3570 C   0  0  0  0  0  0  0  0  0  0  0  0
  184.0100  178.8690  142.7530 C   0  0  0  0  0  3  0  0  0  0  0  0
  183.0550  179.0820  145.0510 C   0  0  0  0  0  1  0  0  0  0  0  0
  181.6120  179.0750  143.0120 C   0  0  0  0  0  3  0  0  0  0  0  0
  182.8880  179.0090  143.5760 C   0  0  0  0  0  0  0  0  0  0  0  0
  181.4570  179.0000  141.6270 C   0  0  0  0  0  3  0  0  0  0  0  0
  191.4040  179.6210  144.0030 C   0  0  0  0  0  1  0  0  0  0  0  0
  191.9950  178.2280  144.0980 C   0  0  0  0  0  2  0  0  0  0  0  0
  1  4  1  0  0  0  0
  2 24  1  0  0  0  0
  2 17  1  0  0  0  0
  3  7  1  1  0  0  0
  4 37  1  1  0  0  0
  4 12  1  0  0  0  0
  5 19  1  0  0  0  0
  6 11  1  6  0  0  0
  6  9  1  0  0  0  0
  7 21  2  0  0  0  0
  7 10  1  0  0  0  0
  8 26  2  0  0  0  0
  9  3  1  0  0  0  0
  9 13  1  0  0  0  0
 10  5  1  0  0  0  0
 11 16  1  0  0  0  0
 12  8  1  0  0  0  0
 13 17  1  0  0  0  0
 13 21  1  0  0  0  0
 14  2  1  0  0  0  0
 15 28  1  0  0  0  0
 16 20  1  0  0  0  0
 18  8  1  0  0  0  0
 19 18  1  0  0  0  0
 20 15  1  0  0  0  0
 20  3  1  0  0  0  0
 21 27  1  0  0  0  0
 22  6  1  0  0  0  0
 22  2  1  0  0  0  0
 23 10  2  0  0  0  0
 23 30  1  0  0  0  0
 25 19  1  0  0  0  0
 25 18  1  0  0  0  0
 27  1  1  0  0  0  0
 27 25  1  0  0  0  0
 28 23  1  0  0  0  0
 29 30  2  0  0  0  0
 29 35  1  0  0  0  0
 30 31  1  0  0  0  0
 31 34  2  0  0  0  0
 33 34  1  0  0  0  0
 34 32  1  0  0  0  0
 35 33  2  0  0  0  0
 36 37  1  0  0  0  0
M  END
>  <MODEL>
2

>  <REMARK>
 VINA RESULT:      -8.3      2.597      8.285
  Name = 
  2 active torsions:
  status: ('A' for Active; 'I' for Inactive)
    1  A    between atoms: C_4  and  C_37
    2  A    between atoms: C_23  and  C_30
                            x       y       z     vdW  Elec       q    Type
                         _______ _______ _______ _____ _____    ______ ____

>  <TORSDO>
F 2

$$$$
=
 OpenBabel11122411403D

 37 44  0  0  1  0  0  0  0  0999 V2000
  190.0740  177.9250  142.4880 C   0  0  0  0  0  2  0  0  0  0  0  0
  190.9190  176.1000  137.9240 C   0  0  0  0  0  0  0  0  0  0  0  0
  187.1570  178.1290  138.7350 C   0  0  1  0  0  3  0  0  0  0  0  0
  190.9790  177.2140  143.5010 C   0  0  2  0  0  3  0  0  0  0  0  0
  186.1140  177.8300  142.5590 O   0  0  0  0  0  0  0  0  0  0  0  0
  188.3870  176.1730  137.6270 C   0  0  1  0  0  3  0  0  0  0  0  0
  187.1970  177.8390  140.2220 C   0  0  0  0  0  0  0  0  0  0  0  0
  188.9140  177.1220  144.9290 C   0  0  0  0  0  0  0  0  0  0  0  0
  188.4840  177.6110  138.1640 C   0  0  2  0  0  3  0  0  0  0  0  0
  186.0190  178.1040  141.1820 C   0  0  0  0  0  0  0  0  0  0  0  0
  187.2430  175.9940  136.6550 C   0  0  0  0  0  2  0  0  0  0  0  0
  190.2050  176.4470  144.5770 C   0  0  0  0  0  2  0  0  0  0  0  0
  189.4100  177.6030  139.3760 C   0  0  2  0  0  3  0  0  0  0  0  0
  191.7000  177.2390  137.2950 C   0  0  0  0  0  1  0  0  0  0  0  0
  184.5600  178.0390  138.4470 C   0  0  0  0  0  2  0  0  0  0  0  0
  185.9560  176.2490  137.4150 C   0  0  0  0  0  2  0  0  0  0  0  0
  190.4850  176.4900  139.3470 C   0  0  0  0  0  2  0  0  0  0  0  0
  187.6640  176.7950  144.1660 C   0  0  1  0  0  3  0  0  0  0  0  0
  187.3740  177.7930  143.1600 C   0  0  1  0  0  3  0  0  0  0  0  0
  185.9270  177.6960  137.8860 C   0  0  2  0  0  3  0  0  0  0  0  0
  188.4770  177.4760  140.5410 C   0  0  0  0  0  0  0  0  0  0  0  0
  189.7230  175.7460  137.0220 C   0  0  0  0  0  2  0  0  0  0  0  0
  184.8490  178.6670  140.7800 C   0  0  0  0  0  0  0  0  0  0  0  0
  191.8280  174.8930  138.0130 C   0  0  0  0  0  1  0  0  0  0  0  0
  187.9310  176.5050  142.7320 N   0  0  1  0  0  0  0  0  0  0  0  0
  188.8820  177.9420  145.8320 O   0  0  0  0  0  0  0  0  0  0  0  0
  189.0230  176.9780  141.8740 C   0  0  2  0  0  3  0  0  0  0  0  0
  184.6480  179.2030  139.4010 C   0  0  0  0  0  2  0  0  0  0  0  0
  183.9210  179.1420  143.0570 C   0  0  0  0  0  3  0  0  0  0  0  0
  183.6970  178.8250  141.7070 C   0  0  0  0  0  0  0  0  0  0  0  0
  182.3740  178.7190  141.2460 C   0  0  0  0  0  3  0  0  0  0  0  0
  179.9050  178.7760  141.6220 C   0  0  0  0  0  1  0  0  0  0  0  0
  181.5360  179.2020  143.4650 C   0  0  0  0  0  3  0  0  0  0  0  0
  181.2990  178.9000  142.1220 C   0  0  0  0  0  0  0  0  0  0  0  0
  182.8460  179.3250  143.9320 C   0  0  0  0  0  3  0  0  0  0  0  0
  191.3730  179.6240  144.0100 C   0  0  0  0  0  1  0  0  0  0  0  0
  191.9140  178.2150  144.1590 C   0  0  0  0  0  2  0  0  0  0  0  0
  1  4  1  0  0  0  0
  2 24  1  0  0  0  0
  2 17  1  0  0  0  0
  3  7  1  1  0  0  0
  4 37  1  1  0  0  0
  4 12  1  0  0  0  0
  5 19  1  0  0  0  0
  6 11  1  6  0  0  0
  6  9  1  0  0  0  0
  7 21  2  0  0  0  0
  7 10  1  0  0  0  0
  8 26  2  0  0  0  0
  9  3  1  0  0  0  0
  9 13  1  0  0  0  0
 10  5  1  0  0  0  0
 11 16  1  0  0  0  0
 12  8  1  0  0  0  0
 13 21  1  0  0  0  0
 14  2  1  0  0  0  0
 15 28  1  0  0  0  0
 16 20  1  0  0  0  0
 17 13  1  0  0  0  0
 18  8  1  0  0  0  0
 19 18  1  0  0  0  0
 20 15  1  0  0  0  0
 20  3  1  0  0  0  0
 21 27  1  0  0  0  0
 22  6  1  0  0  0  0
 22  2  1  0  0  0  0
 23 10  2  0  0  0  0
 23 30  1  0  0  0  0
 25 19  1  0  0  0  0
 25 18  1  0  0  0  0
 27  1  1  0  0  0  0
 27 25  1  0  0  0  0
 28 23  1  0  0  0  0
 29 35  1  0  0  0  0
 30 29  2  0  0  0  0
 31 30  1  0  0  0  0
 31 34  2  0  0  0  0
 32 34  1  0  0  0  0
 33 35  2  0  0  0  0
 34 33  1  0  0  0  0
 36 37  1  0  0  0  0
M  END
>  <MODEL>
3

>  <REMARK>
 VINA RESULT:      -8.2      2.643      8.325
  Name = 
  2 active torsions:
  status: ('A' for Active; 'I' for Inactive)
    1  A    between atoms: C_4  and  C_37
    2  A    between atoms: C_23  and  C_30
                            x       y       z     vdW  Elec       q    Type
                         _______ _______ _______ _____ _____    ______ ____

>  <TORSDO>
F 2

$$$$
=
 OpenBabel11122411403D

 37 44  0  0  1  0  0  0  0  0999 V2000
  182.6820  179.3030  141.6280 C   0  0  0  0  0  2  0  0  0  0  0  0
  185.4250  178.3560  145.6850 C   0  0  0  0  0  0  0  0  0  0  0  0
  187.3890  178.6270  141.8130 C   0  0  1  0  0  3  0  0  0  0  0  0
  181.2200  178.9350  141.8990 C   0  0  2  0  0  3  0  0  0  0  0  0
  184.9440  177.6180  138.8450 O   0  0  0  0  0  0  0  0  0  0  0  0
  187.1640  177.4290  144.0670 C   0  0  1  0  0  3  0  0  0  0  0  0
  186.1430  178.2550  141.0340 C   0  0  0  0  0  0  0  0  0  0  0  0
  181.2990  177.9020  139.6100 C   0  0  0  0  0  0  0  0  0  0  0  0
  186.9570  178.7350  143.2810 C   0  0  2  0  0  3  0  0  0  0  0  0
  186.1330  177.9430  139.5230 C   0  0  0  0  0  0  0  0  0  0  0  0
  188.5690  176.8870  143.9270 C   0  0  0  0  0  2  0  0  0  0  0  0
  180.6860  177.8350  140.9760 C   0  0  0  0  0  2  0  0  0  0  0  0
  185.4580  179.0000  143.1890 C   0  0  2  0  0  3  0  0  0  0  0  0
  185.6740  179.7610  146.2020 C   0  0  0  0  0  1  0  0  0  0  0  0
  189.1290  177.5240  140.2030 C   0  0  0  0  0  2  0  0  0  0  0  0
  188.7790  176.5390  142.4660 C   0  0  0  0  0  2  0  0  0  0  0  0
  184.6360  178.4200  144.3650 C   0  0  0  0  0  2  0  0  0  0  0  0
  182.5730  177.1650  139.3220 C   0  0  1  0  0  3  0  0  0  0  0  0
  183.7220  178.0410  139.3720 C   0  0  1  0  0  3  0  0  0  0  0  0
  188.6990  177.8080  141.6290 C   0  0  2  0  0  3  0  0  0  0  0  0
  185.0700  178.4130  141.8670 C   0  0  0  0  0  0  0  0  0  0  0  0
  186.7710  177.6280  145.5290 C   0  0  0  0  0  2  0  0  0  0  0  0
  187.2450  178.0200  138.7440 C   0  0  0  0  0  0  0  0  0  0  0  0
  184.5910  177.6140  146.7070 C   0  0  0  0  0  1  0  0  0  0  0  0
  183.4870  177.1260  140.4950 N   0  0  1  0  0  0  0  0  0  0  0  0
  180.7630  178.5630  138.7350 O   0  0  0  0  0  0  0  0  0  0  0  0
  183.6060  178.0670  141.6130 C   0  0  2  0  0  3  0  0  0  0  0  0
  188.5480  178.5420  139.2540 C   0  0  0  0  0  2  0  0  0  0  0  0
  187.1520  178.6080  136.3120 C   0  0  0  0  0  3  0  0  0  0  0  0
  187.2260  177.6240  137.3110 C   0  0  0  0  0  0  0  0  0  0  0  0
  187.3370  176.2760  136.9290 C   0  0  0  0  0  3  0  0  0  0  0  0
  187.4570  174.4890  135.1890 C   0  0  0  0  0  1  0  0  0  0  0  0
  187.2620  176.9070  134.5940 C   0  0  0  0  0  3  0  0  0  0  0  0
  187.3480  175.9190  135.5770 C   0  0  0  0  0  0  0  0  0  0  0  0
  187.1650  178.2510  134.9600 C   0  0  0  0  0  3  0  0  0  0  0  0
  179.2680  180.1570  142.8580 C   0  0  0  0  0  1  0  0  0  0  0  0
  180.3410  180.1690  141.7850 C   0  0  0  0  0  2  0  0  0  0  0  0
  1  4  1  0  0  0  0
  2 14  1  0  0  0  0
  2 24  1  0  0  0  0
  3  7  1  6  0  0  0
  3  9  1  0  0  0  0
  4 37  1  6  0  0  0
  5 19  1  0  0  0  0
  5 10  1  0  0  0  0
  6 11  1  1  0  0  0
  6 22  1  0  0  0  0
  7 21  2  0  0  0  0
  8 12  1  0  0  0  0
  9  6  1  0  0  0  0
 10  7  1  0  0  0  0
 12  4  1  0  0  0  0
 13  9  1  0  0  0  0
 13 17  1  0  0  0  0
 15 20  1  0  0  0  0
 16 11  1  0  0  0  0
 17  2  1  0  0  0  0
 18 19  1  0  0  0  0
 18  8  1  0  0  0  0
 18 25  1  0  0  0  0
 19 25  1  0  0  0  0
 20  3  1  0  0  0  0
 20 16  1  0  0  0  0
 21 13  1  0  0  0  0
 22  2  1  0  0  0  0
 23 28  1  0  0  0  0
 23 10  2  0  0  0  0
 25 27  1  0  0  0  0
 26  8  2  0  0  0  0
 27  1  1  0  0  0  0
 27 21  1  0  0  0  0
 28 15  1  0  0  0  0
 29 30  1  0  0  0  0
 30 23  1  0  0  0  0
 31 30  2  0  0  0  0
 32 34  1  0  0  0  0
 33 35  1  0  0  0  0
 33 34  2  0  0  0  0
 34 31  1  0  0  0  0
 35 29  2  0  0  0  0
 37 36  1  0  0  0  0
M  END
>  <MODEL>
4

>  <REMARK>
 VINA RESULT:      -7.4      1.890      2.271
  Name = 
  2 active torsions:
  status: ('A' for Active; 'I' for Inactive)
    1  A    between atoms: C_4  and  C_37
    2  A    between atoms: C_23  and  C_30
                            x       y       z     vdW  Elec       q    Type
                         _______ _______ _______ _____ _____    ______ ____

>  <TORSDO>
F 2

$$$$
=
 OpenBabel11122411403D

 37 44  0  0  1  0  0  0  0  0999 V2000
  188.0770  178.5760  140.1290 C   0  0  0  0  0  2  0  0  0  0  0  0
  183.1740  178.7810  139.2400 C   0  0  0  0  0  0  0  0  0  0  0  0
  184.6280  179.4740  143.2810 C   0  0  1  0  0  3  0  0  0  0  0  0
  188.7660  177.7680  139.0240 C   0  0  2  0  0  3  0  0  0  0  0  0
  188.0530  177.5760  143.9630 O   0  0  0  0  0  0  0  0  0  0  0  0
  182.8900  178.3860  141.7440 C   0  0  1  0  0  3  0  0  0  0  0  0
  185.9010  178.6790  143.0750 C   0  0  0  0  0  0  0  0  0  0  0  0
  190.0290  176.7000  140.9160 C   0  0  0  0  0  0  0  0  0  0  0  0
  183.9240  179.5130  141.9180 C   0  0  2  0  0  3  0  0  0  0  0  0
  186.8750  178.3040  144.2110 C   0  0  0  0  0  0  0  0  0  0  0  0
  181.9050  178.3230  142.8890 C   0  0  0  0  0  2  0  0  0  0  0  0
  189.4700  176.5080  139.5390 C   0  0  0  0  0  2  0  0  0  0  0  0
  185.0590  179.2710  140.9280 C   0  0  2  0  0  3  0  0  0  0  0  0
  183.0230  180.2150  138.7670 C   0  0  0  0  0  1  0  0  0  0  0  0
  184.2910  178.9150  145.8120 C   0  0  0  0  0  2  0  0  0  0  0  0
  182.6880  177.9880  144.1440 C   0  0  0  0  0  2  0  0  0  0  0  0
  184.6340  178.5170  139.6450 C   0  0  0  0  0  2  0  0  0  0  0  0
  189.1820  176.4020  142.1180 C   0  0  1  0  0  3  0  0  0  0  0  0
  188.6140  177.6060  142.6850 C   0  0  1  0  0  3  0  0  0  0  0  0
  183.6620  179.1170  144.4470 C   0  0  2  0  0  3  0  0  0  0  0  0
  186.0800  178.5220  141.7280 C   0  0  0  0  0  0  0  0  0  0  0  0
  182.1890  178.5220  140.3940 C   0  0  0  0  0  2  0  0  0  0  0  0
  186.6950  178.6970  145.5010 C   0  0  0  0  0  0  0  0  0  0  0  0
  182.8210  177.8610  138.0900 C   0  0  0  0  0  1  0  0  0  0  0  0
  187.7470  176.7230  141.8970 N   0  0  1  0  0  0  0  0  0  0  0  0
  191.1710  177.1050  141.0580 O   0  0  0  0  0  0  0  0  0  0  0  0
  187.1400  177.7080  140.9950 C   0  0  2  0  0  3  0  0  0  0  0  0
  185.6110  179.6390  145.9080 C   0  0  0  0  0  2  0  0  0  0  0  0
  187.1860  178.3370  147.9290 C   0  0  0  0  0  3  0  0  0  0  0  0
  187.5980  178.2430  146.5900 C   0  0  0  0  0  0  0  0  0  0  0  0
  188.8470  177.6640  146.3040 C   0  0  0  0  0  3  0  0  0  0  0  0
  190.9960  176.6110  147.0190 C   0  0  0  0  0  1  0  0  0  0  0  0
  189.2580  177.3240  148.6650 C   0  0  0  0  0  3  0  0  0  0  0  0
  189.6750  177.2130  147.3370 C   0  0  0  0  0  0  0  0  0  0  0  0
  188.0130  177.8840  148.9620 C   0  0  0  0  0  3  0  0  0  0  0  0
  189.0910  179.3290  137.1060 C   0  0  0  0  0  1  0  0  0  0  0  0
  189.7620  178.6420  138.2800 C   0  0  0  0  0  2  0  0  0  0  0  0
  1 27  1  0  0  0  0
  2 17  1  0  0  0  0
  2 22  1  0  0  0  0
  3  7  1  6  0  0  0
  3 20  1  0  0  0  0
  4 37  1  1  0  0  0
  4 12  1  0  0  0  0
  4  1  1  0  0  0  0
  5 10  1  0  0  0  0
  6 22  1  6  0  0  0
  6  9  1  0  0  0  0
  6 11  1  0  0  0  0
  7 10  1  0  0  0  0
  8 26  2  0  0  0  0
  8 18  1  0  0  0  0
  9  3  1  0  0  0  0
 10 23  2  0  0  0  0
 11 16  1  0  0  0  0
 12  8  1  0  0  0  0
 13 21  1  0  0  0  0
 13  9  1  0  0  0  0
 14  2  1  0  0  0  0
 15 28  1  0  0  0  0
 16 20  1  0  0  0  0
 17 13  1  0  0  0  0
 18 19  1  0  0  0  0
 19  5  1  0  0  0  0
 20 15  1  0  0  0  0
 21  7  2  0  0  0  0
 23 28  1  0  0  0  0
 23 30  1  0  0  0  0
 24  2  1  0  0  0  0
 25 18  1  0  0  0  0
 25 19  1  0  0  0  0
 27 21  1  0  0  0  0
 27 25  1  0  0  0  0
 29 35  1  0  0  0  0
 30 29  2  0  0  0  0
 31 30  1  0  0  0  0
 31 34  2  0  0  0  0
 32 34  1  0  0  0  0
 33 35  2  0  0  0  0
 34 33  1  0  0  0  0
 36 37  1  0  0  0  0
M  END
>  <MODEL>
5

>  <REMARK>
 VINA RESULT:      -6.9      2.775      7.637
  Name = 
  2 active torsions:
  status: ('A' for Active; 'I' for Inactive)
    1  A    between atoms: C_4  and  C_37
    2  A    between atoms: C_23  and  C_30
                            x       y       z     vdW  Elec       q    Type
                         _______ _______ _______ _____ _____    ______ ____

>  <TORSDO>
F 2

$$$$
=
 OpenBabel11122411403D

 37 44  0  0  1  0  0  0  0  0999 V2000
  188.7490  176.7220  141.3110 C   0  0  0  0  0  2  0  0  0  0  0  0
  185.1530  178.2520  138.2130 C   0  0  0  0  0  0  0  0  0  0  0  0
  188.4700  175.9260  136.6280 C   0  0  1  0  0  3  0  0  0  0  0  0
  188.7510  177.5990  142.5680 C   0  0  2  0  0  3  0  0  0  0  0  0
  191.7780  176.4230  138.7750 O   0  0  0  0  0  0  0  0  0  0  0  0
  186.8610  177.9020  136.3520 C   0  0  1  0  0  3  0  0  0  0  0  0
  189.4250  176.3370  137.7300 C   0  0  0  0  0  0  0  0  0  0  0  0
  191.2470  177.5970  142.2810 C   0  0  0  0  0  0  0  0  0  0  0  0
  187.1080  176.5270  136.9980 C   0  0  2  0  0  3  0  0  0  0  0  0
  190.9370  176.0320  137.7160 C   0  0  0  0  0  0  0  0  0  0  0  0
  187.0860  177.8860  134.8560 C   0  0  0  0  0  2  0  0  0  0  0  0
  190.0600  178.3680  142.7730 C   0  0  0  0  0  2  0  0  0  0  0  0
  187.2080  176.7260  138.5080 C   0  0  2  0  0  3  0  0  0  0  0  0
  184.1240  177.1510  138.3930 C   0  0  0  0  0  1  0  0  0  0  0  0
  190.2370  175.7310  134.7110 C   0  0  0  0  0  2  0  0  0  0  0  0
  188.5490  177.5640  134.6210 C   0  0  0  0  0  2  0  0  0  0  0  0
  186.4070  177.9350  139.0450 C   0  0  0  0  0  2  0  0  0  0  0  0
  191.6940  177.7330  140.8550 C   0  0  1  0  0  3  0  0  0  0  0  0
  191.2270  176.6350  140.0400 C   0  0  1  0  0  3  0  0  0  0  0  0
  188.8470  176.1640  135.1380 C   0  0  2  0  0  3  0  0  0  0  0  0
  188.6810  176.8500  138.7560 C   0  0  0  0  0  0  0  0  0  0  0  0
  185.4680  178.4110  136.7140 C   0  0  0  0  0  2  0  0  0  0  0  0
  191.5410  175.3230  136.7250 C   0  0  0  0  0  0  0  0  0  0  0  0
  184.5560  179.5480  138.7190 C   0  0  0  0  0  1  0  0  0  0  0  0
  190.5560  177.9340  139.9190 N   0  0  1  0  0  0  0  0  0  0  0  0
  191.8460  176.8520  143.0400 O   0  0  0  0  0  0  0  0  0  0  0  0
  189.1580  177.5070  140.0470 C   0  0  2  0  0  3  0  0  0  0  0  0
  190.7720  174.6610  135.6300 C   0  0  0  0  0  2  0  0  0  0  0  0
  193.8140  175.9440  135.8780 C   0  0  0  0  0  3  0  0  0  0  0  0
  193.0130  175.1250  136.6900 C   0  0  0  0  0  0  0  0  0  0  0  0
  193.6360  174.1620  137.5030 C   0  0  0  0  0  3  0  0  0  0  0  0
  195.6670  172.9770  138.3440 C   0  0  0  0  0  1  0  0  0  0  0  0
  195.8080  174.8190  136.6630 C   0  0  0  0  0  3  0  0  0  0  0  0
  195.0250  174.0050  137.4840 C   0  0  0  0  0  0  0  0  0  0  0  0
  195.2030  175.7890  135.8600 C   0  0  0  0  0  3  0  0  0  0  0  0
  188.7230  177.5450  145.0620 C   0  0  0  0  0  1  0  0  0  0  0  0
  188.4570  176.7530  143.7960 C   0  0  0  0  0  2  0  0  0  0  0  0
  1  4  1  0  0  0  0
  2 14  1  0  0  0  0
  2 24  1  0  0  0  0
  2 17  1  0  0  0  0
  3  9  1  0  0  0  0
  3  7  1  1  0  0  0
  4 12  1  0  0  0  0
  4 37  1  1  0  0  0
  5 19  1  0  0  0  0
  6 11  1  6  0  0  0
  6 22  1  0  0  0  0
  6  9  1  0  0  0  0
  7 21  2  0  0  0  0
  8 12  1  0  0  0  0
  8 26  2  0  0  0  0
  9 13  1  0  0  0  0
 10  7  1  0  0  0  0
 10  5  1  0  0  0  0
 13 21  1  0  0  0  0
 13 17  1  0  0  0  0
 15 20  1  0  0  0  0
 15 28  1  0  0  0  0
 16 11  1  0  0  0  0
 16 20  1  0  0  0  0
 18  8  1  0  0  0  0
 19 18  1  0  0  0  0
 20  3  1  0  0  0  0
 21 27  1  0  0  0  0
 22  2  1  0  0  0  0
 23 10  2  0  0  0  0
 25 19  1  0  0  0  0
 25 27  1  0  0  0  0
 25 18  1  0  0  0  0
 27  1  1  0  0  0  0
 28 23  1  0  0  0  0
 29 30  1  0  0  0  0
 30 23  1  0  0  0  0
 30 31  2  0  0  0  0
 33 34  2  0  0  0  0
 34 31  1  0  0  0  0
 34 32  1  0  0  0  0
 35 29  2  0  0  0  0
 35 33  1  0  0  0  0
 37 36  1  0  0  0  0
M  END
>  <MODEL>
6

>  <REMARK>
 VINA RESULT:      -6.5      3.212      6.870
  Name = 
  2 active torsions:
  status: ('A' for Active; 'I' for Inactive)
    1  A    between atoms: C_4  and  C_37
    2  A    between atoms: C_23  and  C_30
                            x       y       z     vdW  Elec       q    Type
                         _______ _______ _______ _____ _____    ______ ____

>  <TORSDO>
F 2

$$$$
=
 OpenBabel11122411403D

 37 44  0  0  1  0  0  0  0  0999 V2000
  185.2840  177.4550  139.0420 C   0  0  0  0  0  2  0  0  0  0  0  0
  189.6470  177.1540  136.6440 C   0  0  0  0  0  0  0  0  0  0  0  0
  189.5190  176.3730  140.9220 C   0  0  1  0  0  3  0  0  0  0  0  0
  184.3100  178.3140  138.2290 C   0  0  2  0  0  3  0  0  0  0  0  0
  186.5500  178.3350  142.6910 O   0  0  0  0  0  0  0  0  0  0  0  0
  190.7190  177.4640  138.9370 C   0  0  1  0  0  3  0  0  0  0  0  0
  188.2730  177.2060  141.1460 C   0  0  0  0  0  0  0  0  0  0  0  0
  183.7440  179.3550  140.4450 C   0  0  0  0  0  0  0  0  0  0  0  0
  189.7560  176.3590  139.4060 C   0  0  2  0  0  3  0  0  0  0  0  0
  187.7210  177.5700  142.5390 C   0  0  0  0  0  0  0  0  0  0  0  0
  192.0160  177.4670  139.7140 C   0  0  0  0  0  2  0  0  0  0  0  0
  183.8470  179.5750  138.9660 C   0  0  0  0  0  2  0  0  0  0  0  0
  188.3750  176.6600  138.8300 C   0  0  2  0  0  3  0  0  0  0  0  0
  189.5930  175.7320  136.1170 C   0  0  0  0  0  1  0  0  0  0  0  0
  190.6560  176.8450  143.2280 C   0  0  0  0  0  2  0  0  0  0  0  0
  191.6810  177.7830  141.1580 C   0  0  0  0  0  2  0  0  0  0  0  0
  188.3990  177.4420  137.4950 C   0  0  0  0  0  2  0  0  0  0  0  0
  184.9370  179.5930  141.3240 C   0  0  1  0  0  3  0  0  0  0  0  0
  185.6130  178.3590  141.6560 C   0  0  1  0  0  3  0  0  0  0  0  0
  190.8150  176.6700  141.7300 C   0  0  2  0  0  3  0  0  0  0  0  0
  187.6840  177.4090  139.9290 C   0  0  0  0  0  0  0  0  0  0  0  0
  190.9540  177.3530  137.4330 C   0  0  0  0  0  2  0  0  0  0  0  0
  188.2850  177.1330  143.6970 C   0  0  0  0  0  0  0  0  0  0  0  0
  189.6500  178.1000  135.4620 C   0  0  0  0  0  1  0  0  0  0  0  0
  186.2180  179.2440  140.6540 N   0  0  1  0  0  0  0  0  0  0  0  0
  182.6920  178.9740  140.9320 O   0  0  0  0  0  0  0  0  0  0  0  0
  186.4750  178.2720  139.5860 C   0  0  2  0  0  3  0  0  0  0  0  0
  189.4100  176.1520  143.7200 C   0  0  0  0  0  2  0  0  0  0  0  0
  186.4200  177.8360  145.2130 C   0  0  0  0  0  3  0  0  0  0  0  0
  187.7870  177.5760  145.0260 C   0  0  0  0  0  0  0  0  0  0  0  0
  188.6540  177.6860  146.1260 C   0  0  0  0  0  3  0  0  0  0  0  0
  189.1000  178.1950  148.5300 C   0  0  0  0  0  1  0  0  0  0  0  0
  186.8080  178.3420  147.5470 C   0  0  0  0  0  3  0  0  0  0  0  0
  188.1690  178.0740  147.3780 C   0  0  0  0  0  0  0  0  0  0  0  0
  185.9340  178.2210  146.4650 C   0  0  0  0  0  3  0  0  0  0  0  0
  183.0680  176.1810  138.5870 C   0  0  0  0  0  1  0  0  0  0  0  0
  183.1010  177.4890  137.8190 C   0  0  0  0  0  2  0  0  0  0  0  0
  1 27  1  0  0  0  0
  2 22  1  0  0  0  0
  2 17  1  0  0  0  0
  3  7  1  6  0  0  0
  3 20  1  0  0  0  0
  4 37  1  1  0  0  0
  4 12  1  0  0  0  0
  4  1  1  0  0  0  0
  6 22  1  6  0  0  0
  6  9  1  0  0  0  0
  6 11  1  0  0  0  0
  7 10  1  0  0  0  0
  8 26  2  0  0  0  0
  8 18  1  0  0  0  0
  9  3  1  0  0  0  0
 10  5  1  0  0  0  0
 10 23  2  0  0  0  0
 11 16  1  0  0  0  0
 12  8  1  0  0  0  0
 13  9  1  0  0  0  0
 13 21  1  0  0  0  0
 14  2  1  0  0  0  0
 15 28  1  0  0  0  0
 16 20  1  0  0  0  0
 17 13  1  0  0  0  0
 18 19  1  0  0  0  0
 19  5  1  0  0  0  0
 20 15  1  0  0  0  0
 21  7  2  0  0  0  0
 23 28  1  0  0  0  0
 23 30  1  0  0  0  0
 24  2  1  0  0  0  0
 25 18  1  0  0  0  0
 25 19  1  0  0  0  0
 27 21  1  0  0  0  0
 27 25  1  0  0  0  0
 29 35  1  0  0  0  0
 30 29  2  0  0  0  0
 30 31  1  0  0  0  0
 31 34  2  0  0  0  0
 34 33  1  0  0  0  0
 34 32  1  0  0  0  0
 35 33  2  0  0  0  0
 37 36  1  0  0  0  0
M  END
>  <MODEL>
7

>  <REMARK>
 VINA RESULT:      -6.5      2.247      7.011
  Name = 
  2 active torsions:
  status: ('A' for Active; 'I' for Inactive)
    1  A    between atoms: C_4  and  C_37
    2  A    between atoms: C_23  and  C_30
                            x       y       z     vdW  Elec       q    Type
                         _______ _______ _______ _____ _____    ______ ____

>  <TORSDO>
F 2

$$$$
=
 OpenBabel11122411403D

 37 44  0  0  1  0  0  0  0  0999 V2000
  189.2710  176.7290  140.2040 C   0  0  0  0  0  2  0  0  0  0  0  0
  189.5700  177.4830  145.1250 C   0  0  0  0  0  0  0  0  0  0  0  0
  185.6640  177.5060  143.2100 C   0  0  1  0  0  3  0  0  0  0  0  0
  190.6220  177.0430  139.5540 C   0  0  2  0  0  3  0  0  0  0  0  0
  185.8940  178.6400  139.4070 O   0  0  0  0  0  0  0  0  0  0  0  0
  187.2650  178.5530  144.9160 C   0  0  1  0  0  3  0  0  0  0  0  0
  186.2130  177.8960  141.8520 C   0  0  0  0  0  0  0  0  0  0  0  0
  189.2460  178.2200  137.8120 C   0  0  0  0  0  0  0  0  0  0  0  0
  186.8830  177.2940  144.1170 C   0  0  2  0  0  3  0  0  0  0  0  0
  185.3330  178.3020  140.6520 C   0  0  0  0  0  0  0  0  0  0  0  0
  186.0910  179.1370  145.6690 C   0  0  0  0  0  2  0  0  0  0  0  0
  190.5580  178.1860  138.5350 C   0  0  0  0  0  2  0  0  0  0  0  0
  188.0100  176.9990  143.1310 C   0  0  2  0  0  3  0  0  0  0  0  0
  189.6010  176.0550  145.6380 C   0  0  0  0  0  1  0  0  0  0  0  0
  183.3740  178.7500  143.0130 C   0  0  0  0  0  2  0  0  0  0  0  0
  185.0670  179.5820  144.6430 C   0  0  0  0  0  2  0  0  0  0  0  0
  189.4040  177.4840  143.5960 C   0  0  0  0  0  2  0  0  0  0  0  0
  188.0980  179.0050  138.3760 C   0  0  1  0  0  3  0  0  0  0  0  0
  187.1600  178.1550  139.0770 C   0  0  1  0  0  3  0  0  0  0  0  0
  184.5560  178.3670  143.8820 C   0  0  2  0  0  3  0  0  0  0  0  0
  187.5600  177.6600  141.8640 C   0  0  0  0  0  0  0  0  0  0  0  0
  188.4440  178.2530  145.8380 C   0  0  0  0  0  2  0  0  0  0  0  0
  183.9740  178.3020  140.6980 C   0  0  0  0  0  0  0  0  0  0  0  0
  190.8920  178.1390  145.4650 C   0  0  0  0  0  1  0  0  0  0  0  0
  188.0740  178.9910  139.8630 N   0  0  1  0  0  0  0  0  0  0  0  0
  189.1100  177.6030  136.7680 O   0  0  0  0  0  0  0  0  0  0  0  0
  188.5960  177.9850  140.7940 C   0  0  2  0  0  3  0  0  0  0  0  0
  183.2100  177.7810  141.8700 C   0  0  0  0  0  2  0  0  0  0  0  0
  182.7300  177.8890  138.5640 C   0  0  0  0  0  3  0  0  0  0  0  0
  183.1530  178.7870  139.5570 C   0  0  0  0  0  0  0  0  0  0  0  0
  182.7390  180.1280  139.4790 C   0  0  0  0  0  3  0  0  0  0  0  0
  181.5190  181.9880  138.3440 C   0  0  0  0  0  1  0  0  0  0  0  0
  181.5380  179.6640  137.4300 C   0  0  0  0  0  3  0  0  0  0  0  0
  181.9410  180.5650  138.4170 C   0  0  0  0  0  0  0  0  0  0  0  0
  181.9300  178.3260  137.5030 C   0  0  0  0  0  3  0  0  0  0  0  0
  192.3390  176.1590  137.9740 C   0  0  0  0  0  1  0  0  0  0  0  0
  191.1840  175.7970  138.8890 C   0  0  0  0  0  2  0  0  0  0  0  0
  1 27  1  0  0  0  0
  2 24  1  0  0  0  0
  2 14  1  0  0  0  0
  2 22  1  0  0  0  0
  3  7  1  6  0  0  0
  3 20  1  0  0  0  0
  3  9  1  0  0  0  0
  4 37  1  6  0  0  0
  4  1  1  0  0  0  0
  5 10  1  0  0  0  0
  6 11  1  1  0  0  0
  6 22  1  0  0  0  0
  7 21  2  0  0  0  0
  8 18  1  0  0  0  0
  8 12  1  0  0  0  0
  9  6  1  0  0  0  0
 10 23  2  0  0  0  0
 10  7  1  0  0  0  0
 12  4  1  0  0  0  0
 13 17  1  0  0  0  0
 13  9  1  0  0  0  0
 15 20  1  0  0  0  0
 16 11  1  0  0  0  0
 17  2  1  0  0  0  0
 18 19  1  0  0  0  0
 18 25  1  0  0  0  0
 19  5  1  0  0  0  0
 19 25  1  0  0  0  0
 20 16  1  0  0  0  0
 21 13  1  0  0  0  0
 23 28  1  0  0  0  0
 25 27  1  0  0  0  0
 26  8  2  0  0  0  0
 27 21  1  0  0  0  0
 28 15  1  0  0  0  0
 29 30  1  0  0  0  0
 30 23  1  0  0  0  0
 31 30  2  0  0  0  0
 32 34  1  0  0  0  0
 33 35  1  0  0  0  0
 33 34  2  0  0  0  0
 34 31  1  0  0  0  0
 35 29  2  0  0  0  0
 36 37  1  0  0  0  0
M  END
>  <MODEL>
8

>  <REMARK>
 VINA RESULT:      -6.4      2.043      6.625
  Name = 
  2 active torsions:
  status: ('A' for Active; 'I' for Inactive)
    1  A    between atoms: C_4  and  C_37
    2  A    between atoms: C_23  and  C_30
                            x       y       z     vdW  Elec       q    Type
                         _______ _______ _______ _____ _____    ______ ____

>  <TORSDO>
F 2

$$$$
=
 OpenBabel11122411403D

 37 44  0  0  1  0  0  0  0  0999 V2000
  190.4020  177.8730  140.2710 C   0  0  0  0  0  2  0  0  0  0  0  0
  188.9780  176.3350  135.7450 C   0  0  0  0  0  0  0  0  0  0  0  0
  186.0950  178.3500  138.3040 C   0  0  1  0  0  3  0  0  0  0  0  0
  191.6420  177.0890  140.7130 C   0  0  2  0  0  3  0  0  0  0  0  0
  186.9180  177.8190  142.1570 O   0  0  0  0  0  0  0  0  0  0  0  0
  186.5990  176.4550  136.6550 C   0  0  1  0  0  3  0  0  0  0  0  0
  186.8030  177.9650  139.5880 C   0  0  0  0  0  0  0  0  0  0  0  0
  190.4640  176.9280  142.9260 C   0  0  0  0  0  0  0  0  0  0  0  0
  186.9890  177.8550  137.1590 C   0  0  2  0  0  3  0  0  0  0  0  0
  186.2110  178.1810  140.9960 C   0  0  0  0  0  0  0  0  0  0  0  0
  185.1290  176.3530  136.3130 C   0  0  0  0  0  2  0  0  0  0  0  0
  191.4200  176.2630  141.9840 C   0  0  0  0  0  2  0  0  0  0  0  0
  188.3680  177.7590  137.8050 C   0  0  2  0  0  3  0  0  0  0  0  0
  189.4260  177.5030  134.8860 C   0  0  0  0  0  1  0  0  0  0  0  0
  183.6560  178.3080  139.2440 C   0  0  0  0  0  2  0  0  0  0  0  0
  184.3480  176.5730  137.5930 C   0  0  0  0  0  2  0  0  0  0  0  0
  189.2640  176.6380  137.2260 C   0  0  0  0  0  2  0  0  0  0  0  0
  188.9910  176.6660  142.8110 C   0  0  1  0  0  3  0  0  0  0  0  0
  188.3100  177.7290  142.1050 C   0  0  1  0  0  3  0  0  0  0  0  0
  184.5970  177.9870  138.0980 C   0  0  2  0  0  3  0  0  0  0  0  0
  188.0710  177.5680  139.2610 C   0  0  0  0  0  0  0  0  0  0  0  0
  187.4880  176.0530  135.4800 C   0  0  0  0  0  2  0  0  0  0  0  0
  185.0100  178.7830  141.2090 C   0  0  0  0  0  0  0  0  0  0  0  0
  189.7780  175.1140  135.3420 C   0  0  0  0  0  1  0  0  0  0  0  0
  188.5570  176.4650  141.4030 N   0  0  1  0  0  0  0  0  0  0  0  0
  190.8840  177.6900  143.7820 O   0  0  0  0  0  0  0  0  0  0  0  0
  189.1490  176.9790  140.1630 C   0  0  2  0  0  3  0  0  0  0  0  0
  184.2190  179.4080  140.1080 C   0  0  0  0  0  2  0  0  0  0  0  0
  183.0280  178.9310  142.7320 C   0  0  0  0  0  3  0  0  0  0  0  0
  184.4220  178.8940  142.5700 C   0  0  0  0  0  0  0  0  0  0  0  0
  185.2380  178.9070  143.7140 C   0  0  0  0  0  3  0  0  0  0  0  0
  185.5480  179.0030  146.1910 C   0  0  0  0  0  1  0  0  0  0  0  0
  183.2830  179.0290  145.1370 C   0  0  0  0  0  3  0  0  0  0  0  0
  184.6720  178.9810  144.9900 C   0  0  0  0  0  0  0  0  0  0  0  0
  182.4620  179.0030  144.0080 C   0  0  0  0  0  3  0  0  0  0  0  0
  194.0520  177.5030  140.2190 C   0  0  0  0  0  1  0  0  0  0  0  0
  192.8140  178.0350  140.9160 C   0  0  0  0  0  2  0  0  0  0  0  0
  1  4  1  0  0  0  0
  2 17  1  0  0  0  0
  3  7  1  1  0  0  0
  4 37  1  1  0  0  0
  4 12  1  0  0  0  0
  6 22  1  6  0  0  0
  6  9  1  0  0  0  0
  7 10  1  0  0  0  0
  8 26  2  0  0  0  0
  9 13  1  0  0  0  0
  9  3  1  0  0  0  0
 10 23  2  0  0  0  0
 10  5  1  0  0  0  0
 11  6  1  0  0  0  0
 11 16  1  0  0  0  0
 12  8  1  0  0  0  0
 13 21  1  0  0  0  0
 14  2  1  0  0  0  0
 15 28  1  0  0  0  0
 16 20  1  0  0  0  0
 17 13  1  0  0  0  0
 18  8  1  0  0  0  0
 19  5  1  0  0  0  0
 19 18  1  0  0  0  0
 20  3  1  0  0  0  0
 20 15  1  0  0  0  0
 21  7  2  0  0  0  0
 21 27  1  0  0  0  0
 22  2  1  0  0  0  0
 23 30  1  0  0  0  0
 24  2  1  0  0  0  0
 25 19  1  0  0  0  0
 25 18  1  0  0  0  0
 27  1  1  0  0  0  0
 27 25  1  0  0  0  0
 28 23  1  0  0  0  0
 29 35  1  0  0  0  0
 30 29  2  0  0  0  0
 30 31  1  0  0  0  0
 31 34  2  0  0  0  0
 34 33  1  0  0  0  0
 34 32  1  0  0  0  0
 35 33  2  0  0  0  0
 36 37  1  0  0  0  0
M  END
>  <MODEL>
9

>  <REMARK>
 VINA RESULT:      -6.3      2.285      8.473
  Name = 
  2 active torsions:
  status: ('A' for Active; 'I' for Inactive)
    1  A    between atoms: C_4  and  C_37
    2  A    between atoms: C_23  and  C_30
                            x       y       z     vdW  Elec       q    Type
                         _______ _______ _______ _____ _____    ______ ____

>  <TORSDO>
F 2

$$$$
