=
 OpenBabel11122411543D

 28 32  0  0  1  0  0  0  0  0999 V2000
  189.1680  178.0050  138.1770 C   0  0  0  0  0  0  0  0  0  0  0  0
  192.9470  176.4470  135.5660 O   0  0  0  0  0  0  0  0  0  0  0  0
  186.4810  173.9510  137.1260 C   0  0  0  0  0  1  0  0  0  0  0  0
  189.7000  177.0810  140.7700 C   0  0  0  0  0  3  0  0  0  0  0  0
  188.7580  173.0750  136.5600 C   0  0  2  0  0  3  0  0  0  0  0  0
  188.7510  178.4670  136.8190 C   0  0  0  0  0  2  0  0  0  0  0  0
  193.9600  176.6490  137.7920 O   0  0  0  0  0  0  0  0  0  0  0  0
  193.2050  175.7380  136.8670 S   0  0  0  0  0  0  0  0  0  0  0  0
  193.2850  173.3250  135.8390 C   0  0  0  0  0  0  0  0  0  0  0  0
  191.7060  175.2580  137.6170 N   0  0  2  0  0  0  0  0  0  0  0  0
  185.9120  177.2350  134.9710 O   0  0  0  0  0  1  0  0  0  0  0  0
  189.6580  175.2090  136.4380 C   0  0  1  0  0  3  0  0  0  0  0  0
  191.8880  173.2890  136.1230 N   0  0  0  0  0  2  0  0  0  0  0  0
  194.1650  174.2800  136.5570 C   0  0  0  0  0  2  0  0  0  0  0  0
  187.2580  177.4700  135.2510 C   0  0  2  0  0  3  0  0  0  0  0  0
  189.9740  176.8580  138.3580 C   0  0  0  0  0  0  0  0  0  0  0  0
  187.6730  174.1130  136.2000 C   0  0  2  0  0  3  0  0  0  0  0  0
  193.8820  172.4560  134.5940 S   0  0  0  0  0  0  0  0  0  0  0  0
  188.0430  176.1640  135.0870 C   0  0  0  0  0  2  0  0  0  0  0  0
  190.2240  176.4060  139.6660 C   0  0  0  0  0  3  0  0  0  0  0  0
  188.6470  178.6740  139.2920 C   0  0  0  0  0  3  0  0  0  0  0  0
  188.9160  178.2190  140.5830 C   0  0  0  0  0  3  0  0  0  0  0  0
  187.3760  178.0420  136.5890 N   0  0  0  0  0  2  0  0  0  0  0  0
  189.7940  173.9680  137.1890 C   0  0  2  0  0  3  0  0  0  0  0  0
  188.2360  175.4710  136.3560 N   0  0  2  0  0  0  0  0  0  0  0  0
  191.2920  173.8500  137.3420 C   0  0  2  0  0  3  0  0  0  0  0  0
  189.2440  172.3980  135.2870 C   0  0  0  0  0  1  0  0  0  0  0  0
  190.6020  176.1420  137.1770 C   0  0  1  0  0  3  0  0  0  0  0  0
  1 16  2  0  0  0  0
  1 21  1  0  0  0  0
  2  8  2  0  0  0  0
  5 27  1  6  0  0  0
  5 24  1  0  0  0  0
  6  1  1  0  0  0  0
  8  7  2  0  0  0  0
  9 13  1  0  0  0  0
  9 14  1  0  0  0  0
 10  8  1  6  0  0  0
 11 15  1  0  0  0  0
 12 28  1  0  0  0  0
 12 24  1  0  0  0  0
 13 26  1  0  0  0  0
 14  8  1  0  0  0  0
 15 23  1  0  0  0  0
 16 20  1  0  0  0  0
 17 25  1  0  0  0  0
 17  5  1  0  0  0  0
 17  3  1  0  0  0  0
 18  9  2  0  0  0  0
 19 15  1  0  0  0  0
 19 25  1  0  0  0  0
 20  4  2  0  0  0  0
 21 22  2  0  0  0  0
 22  4  1  0  0  0  0
 23  6  1  0  0  0  0
 24 26  1  0  0  0  0
 25 12  1  0  0  0  0
 26 10  1  0  0  0  0
 28 10  1  0  0  0  0
 28 16  1  0  0  0  0
M  END
>  <MODEL>
1

>  <REMARK>
 VINA RESULT:      -6.1      0.000      0.000
  Name = 
  0 active torsions:
  status: ('A' for Active; 'I' for Inactive)
                            x       y       z     vdW  Elec       q    Type
                         _______ _______ _______ _____ _____    ______ ____

>  <TORSDO>
F 0

$$$$
=
 OpenBabel11122411543D

 28 32  0  0  1  0  0  0  0  0999 V2000
  191.6390  174.7120  137.5360 C   0  0  0  0  0  0  0  0  0  0  0  0
  189.0760  175.7650  141.5180 O   0  0  0  0  0  0  0  0  0  0  0  0
  188.5400  177.2610  134.5940 C   0  0  0  0  0  1  0  0  0  0  0  0
  193.5660  176.7430  137.4050 C   0  0  0  0  0  3  0  0  0  0  0  0
  187.9130  178.2710  136.7980 C   0  0  2  0  0  3  0  0  0  0  0  0
  190.6030  173.6380  137.4670 C   0  0  0  0  0  2  0  0  0  0  0  0
  191.2530  176.7510  142.0800 O   0  0  0  0  0  0  0  0  0  0  0  0
  189.9300  176.9980  141.4110 S   0  0  0  0  0  0  0  0  0  0  0  0
  187.9330  178.6980  141.3700 C   0  0  0  0  0  0  0  0  0  0  0  0
  190.1940  177.4240  139.7410 N   0  0  2  0  0  0  0  0  0  0  0  0
  188.0720  173.3340  134.9190 O   0  0  0  0  0  1  0  0  0  0  0  0
  188.8880  176.5320  137.9840 C   0  0  1  0  0  3  0  0  0  0  0  0
  188.0000  178.5560  139.9520 N   0  0  0  0  0  2  0  0  0  0  0  0
  189.1070  178.3500  142.2070 C   0  0  0  0  0  2  0  0  0  0  0  0
  188.5870  173.5310  136.2000 C   0  0  2  0  0  3  0  0  0  0  0  0
  191.3710  175.9670  138.1270 C   0  0  0  0  0  0  0  0  0  0  0  0
  187.9410  176.9750  135.9580 C   0  0  2  0  0  3  0  0  0  0  0  0
  186.5090  179.0570  142.0820 S   0  0  0  0  0  0  0  0  0  0  0  0
  187.9390  174.7750  136.8180 C   0  0  0  0  0  2  0  0  0  0  0  0
  192.3480  176.9760  138.0450 C   0  0  0  0  0  3  0  0  0  0  0  0
  192.8650  174.4890  136.8970 C   0  0  0  0  0  3  0  0  0  0  0  0
  193.8280  175.4970  136.8360 C   0  0  0  0  0  3  0  0  0  0  0  0
  190.0410  173.6240  136.1230 N   0  0  0  0  0  2  0  0  0  0  0  0
  188.9990  177.9720  137.7970 C   0  0  2  0  0  3  0  0  0  0  0  0
  188.7650  175.9670  136.6570 N   0  0  2  0  0  0  0  0  0  0  0  0
  189.2590  178.4580  139.2040 C   0  0  2  0  0  3  0  0  0  0  0  0
  186.5400  178.4250  137.4350 C   0  0  0  0  0  1  0  0  0  0  0  0
  190.0770  176.2260  138.8770 C   0  0  1  0  0  3  0  0  0  0  0  0
  1 16  1  0  0  0  0
  3 17  1  0  0  0  0
  4 20  1  0  0  0  0
  5 27  1  1  0  0  0
  5 24  1  0  0  0  0
  6  1  1  0  0  0  0
  8  2  2  0  0  0  0
  8  7  2  0  0  0  0
  8 14  1  0  0  0  0
  9 18  2  0  0  0  0
  9 14  1  0  0  0  0
 10  8  1  1  0  0  0
 11 15  1  0  0  0  0
 12 28  1  0  0  0  0
 13  9  1  0  0  0  0
 15 19  1  0  0  0  0
 16 28  1  0  0  0  0
 17 25  1  0  0  0  0
 17  5  1  0  0  0  0
 20 16  2  0  0  0  0
 21  1  2  0  0  0  0
 22 21  1  0  0  0  0
 22  4  2  0  0  0  0
 23 15  1  0  0  0  0
 23  6  1  0  0  0  0
 24 12  1  0  0  0  0
 24 26  1  0  0  0  0
 25 19  1  0  0  0  0
 25 12  1  0  0  0  0
 26 10  1  0  0  0  0
 26 13  1  0  0  0  0
 28 10  1  0  0  0  0
M  END
>  <MODEL>
2

>  <REMARK>
 VINA RESULT:      -5.6      3.066      5.646
  Name = 
  0 active torsions:
  status: ('A' for Active; 'I' for Inactive)
                            x       y       z     vdW  Elec       q    Type
                         _______ _______ _______ _____ _____    ______ ____

>  <TORSDO>
F 0

$$$$
=
 OpenBabel11122411543D

 28 32  0  0  1  0  0  0  0  0999 V2000
  181.5400  179.3190  137.6830 C   0  0  0  0  0  0  0  0  0  0  0  0
  180.7890  174.5810  138.4020 O   0  0  0  0  0  0  0  0  0  0  0  0
  186.3660  178.6330  136.6840 C   0  0  0  0  0  1  0  0  0  0  0  0
  180.9480  179.7020  134.9700 C   0  0  0  0  0  3  0  0  0  0  0  0
  185.5510  176.2920  136.3270 C   0  0  2  0  0  3  0  0  0  0  0  0
  181.9600  179.2060  139.1120 C   0  0  0  0  0  2  0  0  0  0  0  0
  179.2490  175.0290  136.5440 O   0  0  0  0  0  0  0  0  0  0  0  0
  180.6580  174.6530  136.9050 S   0  0  0  0  0  0  0  0  0  0  0  0
  182.5020  172.8590  136.3940 C   0  0  0  0  0  0  0  0  0  0  0  0
  181.7620  175.8290  136.2440 N   0  0  2  0  0  0  0  0  0  0  0  0
  185.3050  179.7040  140.3550 O   0  0  0  0  0  1  0  0  0  0  0  0
  183.5800  176.6960  137.4810 C   0  0  1  0  0  3  0  0  0  0  0  0
  183.3970  173.9690  136.3460 N   0  0  0  0  0  2  0  0  0  0  0  0
  181.0450  173.0700  136.2080 C   0  0  0  0  0  2  0  0  0  0  0  0
  184.1370  179.0030  140.0600 C   0  0  2  0  0  3  0  0  0  0  0  0
  181.6750  178.2400  136.7800 C   0  0  0  0  0  0  0  0  0  0  0  0
  185.7360  177.4280  137.3570 C   0  0  2  0  0  3  0  0  0  0  0  0
  183.0550  171.3910  136.8430 S   0  0  0  0  0  0  0  0  0  0  0  0
  184.5010  177.6920  139.3540 C   0  0  0  0  0  2  0  0  0  0  0  0
  181.3790  178.4540  135.4210 C   0  0  0  0  0  3  0  0  0  0  0  0
  181.1060  180.5670  137.2190 C   0  0  0  0  0  3  0  0  0  0  0  0
  180.8050  180.7580  135.8690 C   0  0  0  0  0  3  0  0  0  0  0  0
  183.2560  179.8530  139.2650 N   0  0  0  0  0  2  0  0  0  0  0  0
  184.0550  176.3180  136.1570 C   0  0  2  0  0  3  0  0  0  0  0  0
  184.4140  177.8020  137.9020 N   0  0  2  0  0  0  0  0  0  0  0  0
  183.0530  175.2650  135.7470 C   0  0  2  0  0  3  0  0  0  0  0  0
  186.0640  174.9880  136.9220 C   0  0  0  0  0  1  0  0  0  0  0  0
  182.0870  176.8590  137.2570 C   0  0  1  0  0  3  0  0  0  0  0  0
  1  6  1  0  0  0  0
  3 17  1  0  0  0  0
  4 20  2  0  0  0  0
  4 22  1  0  0  0  0
  5 27  1  1  0  0  0
  5 17  1  0  0  0  0
  6 23  1  0  0  0  0
  7  8  2  0  0  0  0
  8  2  2  0  0  0  0
  9 18  2  0  0  0  0
 10  8  1  1  0  0  0
 10 28  1  0  0  0  0
 12 25  1  0  0  0  0
 13  9  1  0  0  0  0
 14  9  1  0  0  0  0
 14  8  1  0  0  0  0
 15 11  1  0  0  0  0
 16 28  1  0  0  0  0
 16  1  2  0  0  0  0
 17 25  1  0  0  0  0
 19 15  1  0  0  0  0
 20 16  1  0  0  0  0
 21  1  1  0  0  0  0
 22 21  2  0  0  0  0
 23 15  1  0  0  0  0
 24  5  1  0  0  0  0
 24 12  1  0  0  0  0
 25 19  1  0  0  0  0
 26 24  1  0  0  0  0
 26 10  1  0  0  0  0
 26 13  1  0  0  0  0
 28 12  1  0  0  0  0
M  END
>  <MODEL>
3

>  <REMARK>
 VINA RESULT:      -5.0      5.977      8.754
  Name = 
  0 active torsions:
  status: ('A' for Active; 'I' for Inactive)
                            x       y       z     vdW  Elec       q    Type
                         _______ _______ _______ _____ _____    ______ ____

>  <TORSDO>
F 0

$$$$
=
 OpenBabel11122411543D

 28 32  0  0  1  0  0  0  0  0999 V2000
  181.3690  176.0470  136.4530 C   0  0  0  0  0  0  0  0  0  0  0  0
  186.0420  175.1120  137.3570 O   0  0  0  0  0  0  0  0  0  0  0  0
  181.0380  179.2380  140.2580 C   0  0  0  0  0  1  0  0  0  0  0  0
  181.4370  178.1440  134.5940 C   0  0  0  0  0  3  0  0  0  0  0  0
  183.5280  179.1890  139.9970 C   0  0  2  0  0  3  0  0  0  0  0  0
  181.2230  174.9940  137.5020 C   0  0  0  0  0  2  0  0  0  0  0  0
  186.1700  176.0040  135.0740 O   0  0  0  0  0  0  0  0  0  0  0  0
  186.1700  176.3630  136.5320 S   0  0  0  0  0  0  0  0  0  0  0  0
  187.5390  177.7140  138.3170 C   0  0  0  0  0  0  0  0  0  0  0  0
  184.8540  177.4580  136.8620 N   0  0  2  0  0  0  0  0  0  0  0  0
  179.8350  175.4930  140.7900 O   0  0  0  0  0  1  0  0  0  0  0  0
  183.4600  177.2290  138.7580 C   0  0  1  0  0  3  0  0  0  0  0  0
  186.2660  178.1710  138.7700 N   0  0  0  0  0  2  0  0  0  0  0  0
  187.6890  177.1790  136.9410 C   0  0  0  0  0  2  0  0  0  0  0  0
  180.8140  175.2030  139.8410 C   0  0  2  0  0  3  0  0  0  0  0  0
  182.4820  176.9180  136.4230 C   0  0  0  0  0  0  0  0  0  0  0  0
  182.2730  178.3590  140.3430 C   0  0  2  0  0  3  0  0  0  0  0  0
  188.7810  177.6010  139.3680 S   0  0  0  0  0  0  0  0  0  0  0  0
  182.0770  176.0130  140.1550 C   0  0  0  0  0  2  0  0  0  0  0  0
  182.4950  177.9680  135.4870 C   0  0  0  0  0  3  0  0  0  0  0  0
  180.3130  176.2340  135.5520 C   0  0  0  0  0  3  0  0  0  0  0  0
  180.3480  177.2730  134.6210 C   0  0  0  0  0  3  0  0  0  0  0  0
  180.2820  175.4710  138.5080 N   0  0  0  0  0  2  0  0  0  0  0  0
  183.8650  178.6230  138.6430 C   0  0  2  0  0  3  0  0  0  0  0  0
  182.1520  177.2450  139.3790 N   0  0  2  0  0  0  0  0  0  0  0  0
  185.1590  178.5180  137.8700 C   0  0  2  0  0  3  0  0  0  0  0  0
  184.6050  178.9260  141.0400 C   0  0  0  0  0  1  0  0  0  0  0  0
  183.6690  176.7120  137.3460 C   0  0  1  0  0  3  0  0  0  0  0  0
  1  6  1  0  0  0  0
  3 17  1  0  0  0  0
  4 22  2  0  0  0  0
  4 20  1  0  0  0  0
  5 17  1  0  0  0  0
  5 27  1  1  0  0  0
  6 23  1  0  0  0  0
  7  8  2  0  0  0  0
  8 14  1  0  0  0  0
  8  2  2  0  0  0  0
  9 13  1  0  0  0  0
  9 18  2  0  0  0  0
 10  8  1  1  0  0  0
 10 28  1  0  0  0  0
 10 26  1  0  0  0  0
 12 25  1  0  0  0  0
 14  9  1  0  0  0  0
 15 19  1  0  0  0  0
 15 11  1  0  0  0  0
 16  1  1  0  0  0  0
 16 28  1  0  0  0  0
 20 16  2  0  0  0  0
 21  1  2  0  0  0  0
 22 21  1  0  0  0  0
 23 15  1  0  0  0  0
 24 12  1  0  0  0  0
 24  5  1  0  0  0  0
 25 19  1  0  0  0  0
 25 17  1  0  0  0  0
 26 24  1  0  0  0  0
 26 13  1  0  0  0  0
 28 12  1  0  0  0  0
M  END
>  <MODEL>
4

>  <REMARK>
 VINA RESULT:      -4.8      5.380      8.208
  Name = 
  0 active torsions:
  status: ('A' for Active; 'I' for Inactive)
                            x       y       z     vdW  Elec       q    Type
                         _______ _______ _______ _____ _____    ______ ____

>  <TORSDO>
F 0

$$$$
=
 OpenBabel11122411543D

 28 32  0  0  1  0  0  0  0  0999 V2000
  182.5470  179.6520  138.7040 C   0  0  0  0  0  0  0  0  0  0  0  0
  181.0810  175.2160  140.0080 O   0  0  0  0  0  0  0  0  0  0  0  0
  184.8050  177.9470  134.6100 C   0  0  0  0  0  1  0  0  0  0  0  0
  180.4080  180.6660  137.2020 C   0  0  0  0  0  3  0  0  0  0  0  0
  183.3000  176.0000  135.0710 C   0  0  2  0  0  3  0  0  0  0  0  0
  183.7710  179.1740  139.4130 C   0  0  0  0  0  2  0  0  0  0  0  0
  178.9310  176.3770  139.7760 O   0  0  0  0  0  0  0  0  0  0  0  0
  179.9850  175.5920  139.0480 S   0  0  0  0  0  0  0  0  0  0  0  0
  180.2840  173.5110  137.4800 C   0  0  0  0  0  0  0  0  0  0  0  0
  180.6170  176.5470  137.7340 N   0  0  2  0  0  0  0  0  0  0  0  0
  186.9740  178.5610  137.8770 O   0  0  0  0  0  1  0  0  0  0  0  0
  182.9300  176.6770  137.2590 C   0  0  1  0  0  3  0  0  0  0  0  0
  181.1810  174.3450  136.7470 N   0  0  0  0  0  2  0  0  0  0  0  0
  179.2680  174.1200  138.3730 C   0  0  0  0  0  2  0  0  0  0  0  0
  185.7870  178.2490  138.5400 C   0  0  2  0  0  3  0  0  0  0  0  0
  181.6780  178.7590  138.0350 C   0  0  0  0  0  0  0  0  0  0  0  0
  184.4830  176.8410  135.5970 C   0  0  2  0  0  3  0  0  0  0  0  0
  180.5010  171.8940  137.4830 S   0  0  0  0  0  0  0  0  0  0  0  0
  185.1320  177.0420  137.8600 C   0  0  0  0  0  2  0  0  0  0  0  0
  180.6140  179.2880  137.2810 C   0  0  0  0  0  3  0  0  0  0  0  0
  182.3300  181.0330  138.6160 C   0  0  0  0  0  3  0  0  0  0  0  0
  181.2620  181.5390  137.8730 C   0  0  0  0  0  3  0  0  0  0  0  0
  184.9270  179.4280  138.5620 N   0  0  0  0  0  2  0  0  0  0  0  0
  182.2110  176.4390  136.0150 C   0  0  2  0  0  3  0  0  0  0  0  0
  184.1090  177.4360  136.8980 N   0  0  2  0  0  0  0  0  0  0  0  0
  180.9450  175.7720  136.4990 C   0  0  2  0  0  3  0  0  0  0  0  0
  183.6410  174.5230  135.1970 C   0  0  0  0  0  1  0  0  0  0  0  0
  181.8480  177.2560  138.1540 C   0  0  1  0  0  3  0  0  0  0  0  0
  1  6  1  0  0  0  0
  3 17  1  0  0  0  0
  4 20  2  0  0  0  0
  4 22  1  0  0  0  0
  5 27  1  1  0  0  0
  5 17  1  0  0  0  0
  5 24  1  0  0  0  0
  8  7  2  0  0  0  0
  8  2  2  0  0  0  0
  9 18  2  0  0  0  0
  9 14  1  0  0  0  0
 10 28  1  0  0  0  0
 10  8  1  1  0  0  0
 11 15  1  0  0  0  0
 12 28  1  0  0  0  0
 13  9  1  0  0  0  0
 14  8  1  0  0  0  0
 15 23  1  0  0  0  0
 16 28  1  0  0  0  0
 16  1  2  0  0  0  0
 17 25  1  0  0  0  0
 19 15  1  0  0  0  0
 20 16  1  0  0  0  0
 21  1  1  0  0  0  0
 22 21  2  0  0  0  0
 23  6  1  0  0  0  0
 24 26  1  0  0  0  0
 24 12  1  0  0  0  0
 25 12  1  0  0  0  0
 25 19  1  0  0  0  0
 26 13  1  0  0  0  0
 26 10  1  0  0  0  0
M  END
>  <MODEL>
5

>  <REMARK>
 VINA RESULT:      -4.7      6.569      9.234
  Name = 
  0 active torsions:
  status: ('A' for Active; 'I' for Inactive)
                            x       y       z     vdW  Elec       q    Type
                         _______ _______ _______ _____ _____    ______ ____

>  <TORSDO>
F 0

$$$$
=
 OpenBabel11122411543D

 28 32  0  0  1  0  0  0  0  0999 V2000
  182.6530  178.1180  137.3420 C   0  0  0  0  0  0  0  0  0  0  0  0
  186.7980  178.2410  134.8260 O   0  0  0  0  0  0  0  0  0  0  0  0
  182.5190  173.1430  137.3120 C   0  0  0  0  0  1  0  0  0  0  0  0
  183.4750  178.1620  140.0210 C   0  0  0  0  0  3  0  0  0  0  0  0
  184.9410  173.4780  136.7680 C   0  0  2  0  0  3  0  0  0  0  0  0
  182.1150  178.0040  135.9530 C   0  0  0  0  0  2  0  0  0  0  0  0
  187.4610  179.3940  136.8890 O   0  0  0  0  0  0  0  0  0  0  0  0
  187.3320  178.0550  136.2200 S   0  0  0  0  0  0  0  0  0  0  0  0
  188.7010  175.8810  135.6890 C   0  0  0  0  0  0  0  0  0  0  0  0
  186.2710  177.0360  137.1560 N   0  0  2  0  0  0  0  0  0  0  0  0
  180.4160  175.1300  134.5950 O   0  0  0  0  0  1  0  0  0  0  0  0
  184.6020  175.6910  136.1610 C   0  0  1  0  0  3  0  0  0  0  0  0
  187.5160  175.1870  136.0740 N   0  0  0  0  0  2  0  0  0  0  0  0
  188.9230  177.2780  136.1380 C   0  0  0  0  0  2  0  0  0  0  0  0
  181.4290  176.0790  134.7250 C   0  0  2  0  0  3  0  0  0  0  0  0
  183.9290  177.6200  137.6880 C   0  0  0  0  0  0  0  0  0  0  0  0
  183.4910  173.7040  136.2890 C   0  0  2  0  0  3  0  0  0  0  0  0
  189.7170  175.2120  134.6010 S   0  0  0  0  0  0  0  0  0  0  0  0
  182.7860  175.3670  134.7670 C   0  0  0  0  0  2  0  0  0  0  0  0
  184.3220  177.6450  139.0390 C   0  0  0  0  0  3  0  0  0  0  0  0
  181.8120  178.6330  138.3360 C   0  0  0  0  0  3  0  0  0  0  0  0
  182.2220  178.6620  139.6690 C   0  0  0  0  0  3  0  0  0  0  0  0
  181.1740  176.8920  135.9110 N   0  0  0  0  0  2  0  0  0  0  0  0
  185.3310  174.8860  137.1320 C   0  0  2  0  0  3  0  0  0  0  0  0
  183.2570  175.1550  136.1310 N   0  0  2  0  0  0  0  0  0  0  0  0
  186.6640  175.5950  137.1970 C   0  0  2  0  0  3  0  0  0  0  0  0
  185.7630  172.9050  135.6240 C   0  0  0  0  0  1  0  0  0  0  0  0
  184.8890  177.1060  136.6300 C   0  0  1  0  0  3  0  0  0  0  0  0
  1 16  2  0  0  0  0
  1 21  1  0  0  0  0
  2  8  2  0  0  0  0
  5 27  1  6  0  0  0
  5 24  1  0  0  0  0
  6  1  1  0  0  0  0
  8  7  2  0  0  0  0
  9 13  1  0  0  0  0
  9 14  1  0  0  0  0
 10  8  1  6  0  0  0
 10 26  1  0  0  0  0
 11 15  1  0  0  0  0
 12 28  1  0  0  0  0
 12 24  1  0  0  0  0
 13 26  1  0  0  0  0
 14  8  1  0  0  0  0
 15 19  1  0  0  0  0
 15 23  1  0  0  0  0
 16 20  1  0  0  0  0
 17  5  1  0  0  0  0
 17  3  1  0  0  0  0
 18  9  2  0  0  0  0
 19 25  1  0  0  0  0
 20  4  2  0  0  0  0
 21 22  2  0  0  0  0
 22  4  1  0  0  0  0
 23  6  1  0  0  0  0
 24 26  1  0  0  0  0
 25 12  1  0  0  0  0
 25 17  1  0  0  0  0
 28 10  1  0  0  0  0
 28 16  1  0  0  0  0
M  END
>  <MODEL>
6

>  <REMARK>
 VINA RESULT:      -4.6      4.165      5.684
  Name = 
  0 active torsions:
  status: ('A' for Active; 'I' for Inactive)
                            x       y       z     vdW  Elec       q    Type
                         _______ _______ _______ _____ _____    ______ ____

>  <TORSDO>
F 0

$$$$
=
 OpenBabel11122411543D

 28 32  0  0  1  0  0  0  0  0999 V2000
  189.9700  174.4480  136.2730 C   0  0  0  0  0  0  0  0  0  0  0  0
  189.0550  176.0070  140.7740 O   0  0  0  0  0  0  0  0  0  0  0  0
  185.5060  175.8970  134.6210 C   0  0  0  0  0  1  0  0  0  0  0  0
  191.2270  176.6260  135.0360 C   0  0  0  0  0  3  0  0  0  0  0  0
  185.6200  177.2720  136.7120 C   0  0  2  0  0  3  0  0  0  0  0  0
  189.2350  173.2640  136.8110 C   0  0  0  0  0  2  0  0  0  0  0  0
  191.0250  177.3540  140.1970 O   0  0  0  0  0  0  0  0  0  0  0  0
  189.5250  177.2840  140.1350 S   0  0  0  0  0  0  0  0  0  0  0  0
  187.3770  178.6730  140.7160 C   0  0  0  0  0  0  0  0  0  0  0  0
  189.0070  177.3690  138.4720 N   0  0  2  0  0  0  0  0  0  0  0  0
  186.0180  172.1050  135.6740 O   0  0  0  0  0  1  0  0  0  0  0  0
  187.3190  175.9640  137.5970 C   0  0  1  0  0  3  0  0  0  0  0  0
  186.8990  178.2390  139.4440 N   0  0  0  0  0  2  0  0  0  0  0  0
  188.8320  178.6630  141.0060 C   0  0  0  0  0  2  0  0  0  0  0  0
  186.9490  172.6360  136.5660 C   0  0  2  0  0  3  0  0  0  0  0  0
  189.7110  175.7580  136.7350 C   0  0  0  0  0  0  0  0  0  0  0  0
  185.5730  175.8400  136.1360 C   0  0  2  0  0  3  0  0  0  0  0  0
  186.3160  178.9970  141.9130 S   0  0  0  0  0  0  0  0  0  0  0  0
  186.3630  173.8940  137.2180 C   0  0  0  0  0  2  0  0  0  0  0  0
  190.3460  176.8390  136.0970 C   0  0  0  0  0  3  0  0  0  0  0  0
  190.8560  174.2470  135.2070 C   0  0  0  0  0  3  0  0  0  0  0  0
  191.4870  175.3300  134.5940 C   0  0  0  0  0  3  0  0  0  0  0  0
  188.1990  172.8910  135.8570 N   0  0  0  0  0  2  0  0  0  0  0  0
  187.0510  177.3330  137.1760 C   0  0  2  0  0  3  0  0  0  0  0  0
  186.7940  175.1160  136.5480 N   0  0  2  0  0  0  0  0  0  0  0  0
  187.7460  178.1390  138.2490 C   0  0  2  0  0  3  0  0  0  0  0  0
  184.6160  177.3880  137.8490 C   0  0  0  0  0  1  0  0  0  0  0  0
  188.8020  176.0090  137.9240 C   0  0  1  0  0  3  0  0  0  0  0  0
  1 16  1  0  0  0  0
  1  6  1  0  0  0  0
  3 17  1  0  0  0  0
  4 20  1  0  0  0  0
  5 24  1  0  0  0  0
  5 27  1  1  0  0  0
  8  7  2  0  0  0  0
  8  2  2  0  0  0  0
  8 14  1  0  0  0  0
  9 14  1  0  0  0  0
  9 18  2  0  0  0  0
 10  8  1  1  0  0  0
 11 15  1  0  0  0  0
 12 28  1  0  0  0  0
 13  9  1  0  0  0  0
 15 19  1  0  0  0  0
 16 28  1  0  0  0  0
 17 25  1  0  0  0  0
 17  5  1  0  0  0  0
 20 16  2  0  0  0  0
 21  1  2  0  0  0  0
 22  4  2  0  0  0  0
 22 21  1  0  0  0  0
 23 15  1  0  0  0  0
 23  6  1  0  0  0  0
 24 12  1  0  0  0  0
 24 26  1  0  0  0  0
 25 19  1  0  0  0  0
 25 12  1  0  0  0  0
 26 10  1  0  0  0  0
 26 13  1  0  0  0  0
 28 10  1  0  0  0  0
M  END
>  <MODEL>
7

>  <REMARK>
 VINA RESULT:      -4.5      3.144      5.697
  Name = 
  0 active torsions:
  status: ('A' for Active; 'I' for Inactive)
                            x       y       z     vdW  Elec       q    Type
                         _______ _______ _______ _____ _____    ______ ____

>  <TORSDO>
F 0

$$$$
=
 OpenBabel11122411543D

 28 32  0  0  1  0  0  0  0  0999 V2000
  186.3240  174.7850  136.0240 C   0  0  0  0  0  0  0  0  0  0  0  0
  182.4050  177.2600  134.5940 O   0  0  0  0  0  0  0  0  0  0  0  0
  187.2160  177.9280  139.7780 C   0  0  0  0  0  1  0  0  0  0  0  0
  185.3080  172.8480  137.7780 C   0  0  0  0  0  3  0  0  0  0  0  0
  184.8190  178.5040  139.3400 C   0  0  2  0  0  3  0  0  0  0  0  0
  186.9740  175.8280  135.1760 C   0  0  0  0  0  2  0  0  0  0  0  0
  181.4240  175.0660  135.0950 O   0  0  0  0  0  0  0  0  0  0  0  0
  181.8050  176.4000  135.6720 S   0  0  0  0  0  0  0  0  0  0  0  0
  180.8260  178.3890  137.0760 C   0  0  0  0  0  0  0  0  0  0  0  0
  182.9360  176.1680  136.9780 N   0  0  2  0  0  0  0  0  0  0  0  0
  189.1870  178.4120  136.3670 O   0  0  0  0  0  1  0  0  0  0  0  0
  184.8600  177.5150  137.2420 C   0  0  1  0  0  3  0  0  0  0  0  0
  182.0710  178.3510  137.7710 N   0  0  0  0  0  2  0  0  0  0  0  0
  180.3620  177.1990  136.3200 C   0  0  0  0  0  2  0  0  0  0  0  0
  188.0340  177.8700  135.7990 C   0  0  2  0  0  3  0  0  0  0  0  0
  185.1160  175.0330  136.7150 C   0  0  0  0  0  0  0  0  0  0  0  0
  186.2490  178.5010  138.7590 C   0  0  2  0  0  3  0  0  0  0  0  0
  180.0080  179.7950  136.9530 S   0  0  0  0  0  0  0  0  0  0  0  0
  186.8030  178.4980  136.4620 C   0  0  0  0  0  2  0  0  0  0  0  0
  184.6260  174.0520  137.5950 C   0  0  0  0  0  3  0  0  0  0  0  0
  187.0000  173.5740  136.2160 C   0  0  0  0  0  3  0  0  0  0  0  0
  186.4930  172.6060  137.0840 C   0  0  0  0  0  3  0  0  0  0  0  0
  188.0730  176.4170  135.9300 N   0  0  0  0  0  2  0  0  0  0  0  0
  184.1920  177.3990  138.5310 C   0  0  2  0  0  3  0  0  0  0  0  0
  186.2700  177.6690  137.5370 N   0  0  2  0  0  0  0  0  0  0  0  0
  182.7660  177.1080  138.1270 C   0  0  2  0  0  3  0  0  0  0  0  0
  184.1800  179.8630  139.0930 C   0  0  0  0  0  1  0  0  0  0  0  0
  184.3270  176.3100  136.4890 C   0  0  1  0  0  3  0  0  0  0  0  0
  1 21  2  0  0  0  0
  1 16  1  0  0  0  0
  2  8  2  0  0  0  0
  5 27  1  6  0  0  0
  6 23  1  0  0  0  0
  6  1  1  0  0  0  0
  7  8  2  0  0  0  0
  8 14  1  0  0  0  0
  9 13  1  0  0  0  0
 10  8  1  6  0  0  0
 10 26  1  0  0  0  0
 12 25  1  0  0  0  0
 12 24  1  0  0  0  0
 13 26  1  0  0  0  0
 14  9  1  0  0  0  0
 15 23  1  0  0  0  0
 15 11  1  0  0  0  0
 15 19  1  0  0  0  0
 16 20  2  0  0  0  0
 17  5  1  0  0  0  0
 17  3  1  0  0  0  0
 18  9  2  0  0  0  0
 19 25  1  0  0  0  0
 20  4  1  0  0  0  0
 21 22  1  0  0  0  0
 22  4  2  0  0  0  0
 24  5  1  0  0  0  0
 25 17  1  0  0  0  0
 26 24  1  0  0  0  0
 28 16  1  0  0  0  0
 28 10  1  0  0  0  0
 28 12  1  0  0  0  0
M  END
>  <MODEL>
8

>  <REMARK>
 VINA RESULT:      -4.5      4.829      8.289
  Name = 
  0 active torsions:
  status: ('A' for Active; 'I' for Inactive)
                            x       y       z     vdW  Elec       q    Type
                         _______ _______ _______ _____ _____    ______ ____

>  <TORSDO>
F 0

$$$$
=
 OpenBabel11122411543D

 28 32  0  0  1  0  0  0  0  0999 V2000
  188.4460  177.3630  137.6890 C   0  0  0  0  0  0  0  0  0  0  0  0
  187.0040  172.7410  137.9690 O   0  0  0  0  0  0  0  0  0  0  0  0
  192.4400  176.1880  134.9630 C   0  0  0  0  0  1  0  0  0  0  0  0
  187.1040  178.3640  135.4410 C   0  0  0  0  0  3  0  0  0  0  0  0
  191.0880  174.1120  134.6000 C   0  0  2  0  0  3  0  0  0  0  0  0
  189.2710  176.9060  138.8470 C   0  0  0  0  0  2  0  0  0  0  0  0
  185.0750  173.7730  136.8560 O   0  0  0  0  0  0  0  0  0  0  0  0
  186.4150  173.1280  136.6400 S   0  0  0  0  0  0  0  0  0  0  0  0
  187.5830  171.2220  135.2690 C   0  0  0  0  0  0  0  0  0  0  0  0
  187.4650  174.2380  135.8000 N   0  0  2  0  0  0  0  0  0  0  0  0
  192.8660  176.6480  138.8820 O   0  0  0  0  0  1  0  0  0  0  0  0
  189.7230  174.5630  136.4210 C   0  0  1  0  0  3  0  0  0  0  0  0
  188.6240  172.1760  135.0610 N   0  0  0  0  0  2  0  0  0  0  0  0
  186.2210  171.6780  135.6410 C   0  0  0  0  0  2  0  0  0  0  0  0
  191.5460  176.1990  138.9260 C   0  0  2  0  0  3  0  0  0  0  0  0
  188.0560  176.4790  136.6570 C   0  0  0  0  0  0  0  0  0  0  0  0
  191.8260  174.9790  135.6440 C   0  0  2  0  0  3  0  0  0  0  0  0
  187.9350  169.6290  135.2870 S   0  0  0  0  0  0  0  0  0  0  0  0
  191.3830  175.0170  137.9640 C   0  0  0  0  0  2  0  0  0  0  0  0
  187.3900  177.0010  135.5340 C   0  0  0  0  0  3  0  0  0  0  0  0
  188.1540  178.7290  137.5840 C   0  0  0  0  0  3  0  0  0  0  0  0
  187.4810  179.2280  136.4680 C   0  0  0  0  0  3  0  0  0  0  0  0
  190.6520  177.3120  138.6190 N   0  0  0  0  0  2  0  0  0  0  0  0
  189.6570  174.3910  134.9760 C   0  0  2  0  0  3  0  0  0  0  0  0
  190.8580  175.4280  136.6670 N   0  0  2  0  0  0  0  0  0  0  0  0
  188.3810  173.6010  134.8060 C   0  0  2  0  0  3  0  0  0  0  0  0
  191.4840  172.6550  134.7900 C   0  0  0  0  0  1  0  0  0  0  0  0
  188.3050  174.9860  136.7630 C   0  0  1  0  0  3  0  0  0  0  0  0
  1  6  1  0  0  0  0
  3 17  1  0  0  0  0
  4 20  2  0  0  0  0
  4 22  1  0  0  0  0
  5 27  1  1  0  0  0
  5 24  1  0  0  0  0
  5 17  1  0  0  0  0
  8  7  2  0  0  0  0
  8  2  2  0  0  0  0
  9 18  2  0  0  0  0
  9 14  1  0  0  0  0
 10  8  1  1  0  0  0
 10 28  1  0  0  0  0
 11 15  1  0  0  0  0
 12 25  1  0  0  0  0
 12 28  1  0  0  0  0
 13  9  1  0  0  0  0
 14  8  1  0  0  0  0
 16 28  1  0  0  0  0
 16  1  2  0  0  0  0
 17 25  1  0  0  0  0
 19 15  1  0  0  0  0
 20 16  1  0  0  0  0
 21  1  1  0  0  0  0
 22 21  2  0  0  0  0
 23  6  1  0  0  0  0
 23 15  1  0  0  0  0
 24 12  1  0  0  0  0
 25 19  1  0  0  0  0
 26 24  1  0  0  0  0
 26 13  1  0  0  0  0
 26 10  1  0  0  0  0
M  END
>  <MODEL>
9

>  <REMARK>
 VINA RESULT:      -4.5      2.834      5.107
  Name = 
  0 active torsions:
  status: ('A' for Active; 'I' for Inactive)
                            x       y       z     vdW  Elec       q    Type
                         _______ _______ _______ _____ _____    ______ ____

>  <TORSDO>
F 0

$$$$
