=
 OpenBabel11122410343D

 30 35  0  0  1  0  0  0  0  0999 V2000
  186.3850  178.3510  141.7010 C   0  0  2  0  0  3  0  0  0  0  0  0
  184.4510  178.9710  140.1420 C   0  0  0  0  0  0  0  0  0  0  0  0
  184.5270  179.4890  144.7940 N   0  0  0  0  0  2  0  0  0  0  0  0
  186.8680  178.4930  143.1010 N   0  0  2  0  0  0  0  0  0  0  0  0
  187.2720  178.9710  140.8030 O   0  0  0  0  0  0  0  0  0  0  0  0
  190.4030  177.7570  142.0440 O   0  0  0  0  0  1  0  0  0  0  0  0
  188.2930  176.7880  145.4050 C   0  0  2  0  0  3  0  0  0  0  0  0
  189.1980  178.4690  142.0240 C   0  0  1  0  0  3  0  0  0  0  0  0
  187.7140  178.0610  145.8280 N   0  0  2  0  0  0  0  0  0  0  0  0
  185.5560  179.2880  145.7450 C   0  0  0  0  0  0  0  0  0  0  0  0
  188.4190  178.1790  140.7600 C   0  0  2  0  0  3  0  0  0  0  0  0
  188.3170  178.1280  143.2350 C   0  0  2  0  0  3  0  0  0  0  0  0
  183.0530  178.7330  139.9420 N   0  0  0  0  0  0  0  0  0  0  0  0
  187.9050  178.0540  147.2720 C   0  0  0  0  0  2  0  0  0  0  0  0
  189.5000  176.5440  146.2740 C   0  0  0  0  0  2  0  0  0  0  0  0
  185.1780  179.2080  139.1420 O   0  0  0  0  0  0  0  0  0  0  0  0
  184.5340  178.2970  143.9630 C   0  0  2  0  0  3  0  0  0  0  0  0
  182.2600  178.4340  140.9240 C   0  0  0  0  0  3  0  0  0  0  0  0
  185.0220  179.0490  141.5450 C   0  0  1  0  0  3  0  0  0  0  0  0
  185.9660  177.7420  144.0300 C   0  0  2  0  0  3  0  0  0  0  0  0
  185.7760  180.0900  146.6910 O   0  0  0  0  0  0  0  0  0  0  0  0
  186.2830  178.0080  145.5240 C   0  0  1  0  0  3  0  0  0  0  0  0
  189.1790  177.2760  147.5580 C   0  0  0  0  0  2  0  0  0  0  0  0
  188.0210  175.7240  143.2640 O   0  0  0  0  0  1  0  0  0  0  0  0
  182.7720  178.2970  142.2940 C   0  0  0  0  0  3  0  0  0  0  0  0
  184.0530  178.5430  142.5800 C   0  0  0  0  0  0  0  0  0  0  0  0
  188.6500  176.7850  143.9170 C   0  0  2  0  0  3  0  0  0  0  0  0
  189.2380  178.5490  139.5350 C   0  0  0  0  0  2  0  0  0  0  0  0
  188.9650  178.9660  137.1110 C   0  0  0  0  0  1  0  0  0  0  0  0
  188.5200  178.1050  138.2750 C   0  0  0  0  0  2  0  0  0  0  0  0
  1  5  1  6  0  0  0
  1  4  1  0  0  0  0
  2 19  1  0  0  0  0
  3 10  1  0  0  0  0
  4 12  1  0  0  0  0
  4 20  1  0  0  0  0
  7  9  1  0  0  0  0
  7 15  1  0  0  0  0
  8  6  1  0  0  0  0
  8 12  1  0  0  0  0
  9 14  1  0  0  0  0
 10 21  2  0  0  0  0
 11  5  1  0  0  0  0
 11  8  1  0  0  0  0
 12 27  1  0  0  0  0
 13  2  1  0  0  0  0
 13 18  2  0  0  0  0
 14 23  1  0  0  0  0
 15 23  1  0  0  0  0
 16  2  2  0  0  0  0
 17 20  1  0  0  0  0
 17  3  1  0  0  0  0
 18 25  1  0  0  0  0
 19  1  1  0  0  0  0
 19 26  1  0  0  0  0
 20 22  1  0  0  0  0
 22 10  1  0  0  0  0
 22  9  1  0  0  0  0
 24 27  1  0  0  0  0
 25 26  2  0  0  0  0
 26 17  1  0  0  0  0
 27  7  1  0  0  0  0
 28 11  1  0  0  0  0
 29 30  1  0  0  0  0
 30 28  1  0  0  0  0
M  END
>  <MODEL>
1

>  <REMARK>
 VINA RESULT:      -9.0      0.000      0.000
  Name = 
  2 active torsions:
  status: ('A' for Active; 'I' for Inactive)
    1  A    between atoms: C_11  and  C_28
    2  A    between atoms: C_28  and  C_30
                            x       y       z     vdW  Elec       q    Type
                         _______ _______ _______ _____ _____    ______ ____

>  <TORSDO>
F 2

$$$$
=
 OpenBabel11122410343D

 30 35  0  0  1  0  0  0  0  0999 V2000
  188.3960  177.5120  139.8230 C   0  0  2  0  0  3  0  0  0  0  0  0
  187.4040  178.0130  142.1290 C   0  0  0  0  0  0  0  0  0  0  0  0
  191.9510  177.5520  141.1170 N   0  0  0  0  0  2  0  0  0  0  0  0
  189.6800  177.4580  139.0730 N   0  0  2  0  0  0  0  0  0  0  0  0
  187.5390  178.4820  139.2730 O   0  0  0  0  0  0  0  0  0  0  0  0
  187.8700  177.7370  135.7870 O   0  0  0  0  0  1  0  0  0  0  0  0
  191.2020  175.6570  136.9090 C   0  0  2  0  0  3  0  0  0  0  0  0
  188.2400  178.1610  137.0680 C   0  0  1  0  0  3  0  0  0  0  0  0
  192.0220  176.6580  137.5860 N   0  0  2  0  0  0  0  0  0  0  0  0
  192.6260  177.3820  139.8840 C   0  0  0  0  0  0  0  0  0  0  0  0
  187.1010  177.9810  138.0470 C   0  0  2  0  0  3  0  0  0  0  0  0
  189.4630  177.3930  137.5900 C   0  0  2  0  0  3  0  0  0  0  0  0
  187.4000  177.5280  143.4760 N   0  0  0  0  0  0  0  0  0  0  0  0
  193.3630  176.3900  137.0830 C   0  0  0  0  0  2  0  0  0  0  0  0
  191.7580  175.5010  135.5170 C   0  0  0  0  0  2  0  0  0  0  0  0
  186.3820  178.6050  141.6910 O   0  0  0  0  0  0  0  0  0  0  0  0
  190.8620  176.5890  141.0920 C   0  0  2  0  0  3  0  0  0  0  0  0
  188.4000  176.8670  143.9710 C   0  0  0  0  0  3  0  0  0  0  0  0
  188.6600  177.9170  141.2840 C   0  0  1  0  0  3  0  0  0  0  0  0
  190.5370  176.3540  139.6080 C   0  0  2  0  0  3  0  0  0  0  0  0
  193.6880  177.9960  139.5990 O   0  0  0  0  0  0  0  0  0  0  0  0
  191.9710  176.3630  139.0190 C   0  0  1  0  0  3  0  0  0  0  0  0
  193.2190  175.8620  135.6660 C   0  0  0  0  0  2  0  0  0  0  0  0
  188.9460  175.0300  137.4640 O   0  0  0  0  0  1  0  0  0  0  0  0
  189.5820  176.5600  143.1530 C   0  0  0  0  0  3  0  0  0  0  0  0
  189.6900  177.0100  141.9020 C   0  0  0  0  0  0  0  0  0  0  0  0
  189.7210  176.0410  136.8940 C   0  0  2  0  0  3  0  0  0  0  0  0
  185.8810  178.7660  137.5930 C   0  0  0  0  0  2  0  0  0  0  0  0
  184.0730  179.5080  139.1100 C   0  0  0  0  0  1  0  0  0  0  0  0
  184.6570  178.3230  138.3700 C   0  0  0  0  0  2  0  0  0  0  0  0
  1  5  1  6  0  0  0
  1 19  1  0  0  0  0
  2 13  1  0  0  0  0
  4 20  1  0  0  0  0
  4  1  1  0  0  0  0
  6  8  1  0  0  0  0
  7  9  1  0  0  0  0
  8 12  1  0  0  0  0
  8 11  1  0  0  0  0
  9 22  1  0  0  0  0
 10  3  1  0  0  0  0
 11  5  1  0  0  0  0
 12  4  1  0  0  0  0
 13 18  2  0  0  0  0
 14  9  1  0  0  0  0
 15 23  1  0  0  0  0
 15  7  1  0  0  0  0
 16  2  2  0  0  0  0
 17  3  1  0  0  0  0
 17 26  1  0  0  0  0
 19 26  1  0  0  0  0
 19  2  1  0  0  0  0
 20 17  1  0  0  0  0
 21 10  2  0  0  0  0
 22 20  1  0  0  0  0
 22 10  1  0  0  0  0
 23 14  1  0  0  0  0
 25 18  1  0  0  0  0
 26 25  2  0  0  0  0
 27  7  1  0  0  0  0
 27 24  1  0  0  0  0
 27 12  1  0  0  0  0
 28 11  1  0  0  0  0
 28 30  1  0  0  0  0
 30 29  1  0  0  0  0
M  END
>  <MODEL>
2

>  <REMARK>
 VINA RESULT:      -7.5      3.435      7.153
  Name = 
  2 active torsions:
  status: ('A' for Active; 'I' for Inactive)
    1  A    between atoms: C_11  and  C_28
    2  A    between atoms: C_28  and  C_30
                            x       y       z     vdW  Elec       q    Type
                         _______ _______ _______ _____ _____    ______ ____

>  <TORSDO>
F 2

$$$$
=
 OpenBabel11122410343D

 30 35  0  0  1  0  0  0  0  0999 V2000
  187.4630  178.0690  142.3510 C   0  0  2  0  0  3  0  0  0  0  0  0
  185.1610  179.0230  141.7670 C   0  0  0  0  0  0  0  0  0  0  0  0
  187.0120  178.7000  146.0540 N   0  0  0  0  0  2  0  0  0  0  0  0
  188.4450  177.9410  143.4630 N   0  0  2  0  0  0  0  0  0  0  0  0
  188.0100  178.8080  141.2880 O   0  0  0  0  0  0  0  0  0  0  0  0
  191.2400  177.2850  141.0320 O   0  0  0  0  0  1  0  0  0  0  0  0
  190.4460  175.8050  144.7560 C   0  0  2  0  0  3  0  0  0  0  0  0
  190.1920  178.0300  141.5850 C   0  0  1  0  0  3  0  0  0  0  0  0
  190.1960  177.0010  145.5570 N   0  0  2  0  0  0  0  0  0  0  0  0
  188.2960  178.2960  146.4950 C   0  0  0  0  0  0  0  0  0  0  0  0
  188.9740  177.9970  140.6880 C   0  0  2  0  0  3  0  0  0  0  0  0
  189.7950  177.5080  142.9740 C   0  0  2  0  0  3  0  0  0  0  0  0
  183.7730  178.8730  142.0850 N   0  0  0  0  0  0  0  0  0  0  0  0
  190.9090  176.7290  146.7980 C   0  0  0  0  0  2  0  0  0  0  0  0
  191.8590  175.3670  145.0480 C   0  0  0  0  0  2  0  0  0  0  0  0
  185.4840  179.4090  140.6130 O   0  0  0  0  0  0  0  0  0  0  0  0
  186.5910  177.6750  145.1140 C   0  0  2  0  0  3  0  0  0  0  0  0
  183.3760  178.4310  143.2380 C   0  0  0  0  0  3  0  0  0  0  0  0
  186.2170  178.8290  142.8380 C   0  0  1  0  0  3  0  0  0  0  0  0
  187.8830  177.0680  144.5410 C   0  0  2  0  0  3  0  0  0  0  0  0
  188.9310  178.9080  147.3940 O   0  0  0  0  0  0  0  0  0  0  0  0
  188.7570  177.0520  145.8210 C   0  0  1  0  0  3  0  0  0  0  0  0
  192.1130  175.8690  146.4520 C   0  0  0  0  0  2  0  0  0  0  0  0
  189.2930  175.1490  142.7490 O   0  0  0  0  0  1  0  0  0  0  0  0
  184.3450  178.0340  144.2690 C   0  0  0  0  0  3  0  0  0  0  0  0
  185.6570  178.1810  144.0750 C   0  0  0  0  0  0  0  0  0  0  0  0
  190.2220  176.0550  143.2630 C   0  0  2  0  0  3  0  0  0  0  0  0
  189.3110  178.5510  139.3140 C   0  0  0  0  0  2  0  0  0  0  0  0
  188.5300  178.8060  136.9800 C   0  0  0  0  0  1  0  0  0  0  0  0
  188.2490  178.1430  138.3120 C   0  0  0  0  0  2  0  0  0  0  0  0
  1  5  1  6  0  0  0
  1 19  1  0  0  0  0
  1  4  1  0  0  0  0
  2 13  1  0  0  0  0
  2 19  1  0  0  0  0
  3 10  1  0  0  0  0
  4 20  1  0  0  0  0
  6  8  1  0  0  0  0
  7 15  1  0  0  0  0
  7  9  1  0  0  0  0
  8 12  1  0  0  0  0
  9 22  1  0  0  0  0
  9 14  1  0  0  0  0
 10 21  2  0  0  0  0
 11  5  1  0  0  0  0
 11  8  1  0  0  0  0
 12 27  1  0  0  0  0
 12  4  1  0  0  0  0
 13 18  2  0  0  0  0
 15 23  1  0  0  0  0
 16  2  2  0  0  0  0
 17  3  1  0  0  0  0
 18 25  1  0  0  0  0
 19 26  1  0  0  0  0
 20 17  1  0  0  0  0
 20 22  1  0  0  0  0
 22 10  1  0  0  0  0
 23 14  1  0  0  0  0
 24 27  1  0  0  0  0
 26 25  2  0  0  0  0
 26 17  1  0  0  0  0
 27  7  1  0  0  0  0
 28 11  1  0  0  0  0
 29 30  1  0  0  0  0
 30 28  1  0  0  0  0
M  END
>  <MODEL>
3

>  <REMARK>
 VINA RESULT:      -7.4      1.551      2.166
  Name = 
  2 active torsions:
  status: ('A' for Active; 'I' for Inactive)
    1  A    between atoms: C_11  and  C_28
    2  A    between atoms: C_28  and  C_30
                            x       y       z     vdW  Elec       q    Type
                         _______ _______ _______ _____ _____    ______ ____

>  <TORSDO>
F 2

$$$$
=
 OpenBabel11122410343D

 30 35  0  0  1  0  0  0  0  0999 V2000
  188.0230  177.8300  143.7360 C   0  0  2  0  0  3  0  0  0  0  0  0
  187.0550  178.2030  141.3960 C   0  0  0  0  0  0  0  0  0  0  0  0
  190.7350  175.5160  142.4690 N   0  0  0  0  0  2  0  0  0  0  0  0
  188.9910  176.9930  144.4970 N   0  0  2  0  0  0  0  0  0  0  0  0
  186.7160  177.6400  144.2180 O   0  0  0  0  0  0  0  0  0  0  0  0
  187.2900  177.8340  147.7460 O   0  0  0  0  0  1  0  0  0  0  0  0
  191.2170  177.2550  146.7810 C   0  0  2  0  0  3  0  0  0  0  0  0
  187.3500  177.3260  146.4430 C   0  0  1  0  0  3  0  0  0  0  0  0
  191.2100  175.9910  146.0490 N   0  0  2  0  0  0  0  0  0  0  0  0
  191.2970  175.1470  143.7150 C   0  0  0  0  0  0  0  0  0  0  0  0
  186.6560  178.2530  145.4690 C   0  0  2  0  0  3  0  0  0  0  0  0
  188.8000  177.1220  145.9800 C   0  0  2  0  0  3  0  0  0  0  0  0
  187.4340  178.6280  140.0810 N   0  0  0  0  0  0  0  0  0  0  0  0
  192.3710  175.2890  146.5780 C   0  0  0  0  0  2  0  0  0  0  0  0
  191.6730  176.9470  148.1850 C   0  0  0  0  0  2  0  0  0  0  0  0
  185.8770  178.4120  141.7880 O   0  0  0  0  0  0  0  0  0  0  0  0
  190.5460  176.9550  142.5450 C   0  0  2  0  0  3  0  0  0  0  0  0
  188.6440  178.4890  139.6370 C   0  0  0  0  0  3  0  0  0  0  0  0
  188.0240  177.4140  142.2540 C   0  0  1  0  0  3  0  0  0  0  0  0
  190.3850  177.2830  144.0390 C   0  0  2  0  0  3  0  0  0  0  0  0
  191.6810  173.9750  143.9680 O   0  0  0  0  0  0  0  0  0  0  0  0
  191.4320  176.3080  144.6370 C   0  0  1  0  0  3  0  0  0  0  0  0
  192.5430  175.7210  148.0240 C   0  0  0  0  0  2  0  0  0  0  0  0
  189.9550  179.2340  146.2500 O   0  0  0  0  0  1  0  0  0  0  0  0
  189.6970  177.9070  140.4810 C   0  0  0  0  0  3  0  0  0  0  0  0
  189.4240  177.4440  141.7030 C   0  0  0  0  0  0  0  0  0  0  0  0
  189.8480  177.9400  146.7620 C   0  0  2  0  0  3  0  0  0  0  0  0
  185.2010  178.4460  145.8640 C   0  0  0  0  0  2  0  0  0  0  0  0
  183.2250  178.7380  144.4040 C   0  0  0  0  0  1  0  0  0  0  0  0
  184.5130  179.3750  144.8830 C   0  0  0  0  0  2  0  0  0  0  0  0
  1  5  1  1  0  0  0
  1  4  1  0  0  0  0
  2 16  2  0  0  0  0
  2 19  1  0  0  0  0
  3 17  1  0  0  0  0
  3 10  1  0  0  0  0
  4 12  1  0  0  0  0
  5 11  1  0  0  0  0
  7 15  1  0  0  0  0
  8  6  1  0  0  0  0
  9 14  1  0  0  0  0
  9  7  1  0  0  0  0
 10 21  2  0  0  0  0
 10 22  1  0  0  0  0
 11 28  1  0  0  0  0
 11  8  1  0  0  0  0
 12  8  1  0  0  0  0
 12 27  1  0  0  0  0
 13  2  1  0  0  0  0
 14 23  1  0  0  0  0
 17 20  1  0  0  0  0
 18 13  2  0  0  0  0
 18 25  1  0  0  0  0
 19  1  1  0  0  0  0
 20  4  1  0  0  0  0
 20 22  1  0  0  0  0
 22  9  1  0  0  0  0
 23 15  1  0  0  0  0
 24 27  1  0  0  0  0
 25 26  2  0  0  0  0
 26 19  1  0  0  0  0
 26 17  1  0  0  0  0
 27  7  1  0  0  0  0
 29 30  1  0  0  0  0
 30 28  1  0  0  0  0
M  END
>  <MODEL>
4

>  <REMARK>
 VINA RESULT:      -7.4      2.447      5.490
  Name = 
  2 active torsions:
  status: ('A' for Active; 'I' for Inactive)
    1  A    between atoms: C_11  and  C_28
    2  A    between atoms: C_28  and  C_30
                            x       y       z     vdW  Elec       q    Type
                         _______ _______ _______ _____ _____    ______ ____

>  <TORSDO>
F 2

$$$$
=
 OpenBabel11122410343D

 30 35  0  0  1  0  0  0  0  0999 V2000
  188.3590  177.7070  143.7220 C   0  0  2  0  0  3  0  0  0  0  0  0
  185.9790  178.2240  144.5110 C   0  0  0  0  0  0  0  0  0  0  0  0
  187.3150  177.4260  140.0970 N   0  0  0  0  0  2  0  0  0  0  0  0
  189.1420  177.2530  142.5410 N   0  0  2  0  0  0  0  0  0  0  0  0
  188.4840  176.7930  144.7830 O   0  0  0  0  0  0  0  0  0  0  0  0
  192.0180  176.2240  144.7370 O   0  0  0  0  0  1  0  0  0  0  0  0
  191.8790  177.8780  141.0040 C   0  0  2  0  0  3  0  0  0  0  0  0
  190.6900  176.2000  144.2970 C   0  0  1  0  0  3  0  0  0  0  0  0
  190.9320  177.0300  140.2860 N   0  0  2  0  0  0  0  0  0  0  0  0
  188.5600  177.0310  139.5490 C   0  0  0  0  0  0  0  0  0  0  0  0
  189.7840  176.9190  145.2720 C   0  0  2  0  0  3  0  0  0  0  0  0
  190.5380  176.8490  142.9130 C   0  0  2  0  0  3  0  0  0  0  0  0
  184.8950  179.1310  144.2820 N   0  0  0  0  0  0  0  0  0  0  0  0
  191.5630  176.8450  138.9860 C   0  0  0  0  0  2  0  0  0  0  0  0
  193.2610  177.4400  140.5940 C   0  0  0  0  0  2  0  0  0  0  0  0
  186.1270  177.7280  145.6590 O   0  0  0  0  0  0  0  0  0  0  0  0
  187.6270  178.5130  141.0090 C   0  0  2  0  0  3  0  0  0  0  0  0
  184.7190  179.7150  143.1370 C   0  0  0  0  0  3  0  0  0  0  0  0
  186.8650  177.7820  143.3620 C   0  0  1  0  0  3  0  0  0  0  0  0
  189.0790  178.2860  141.4600 C   0  0  2  0  0  3  0  0  0  0  0  0
  188.6600  176.1630  138.6410 O   0  0  0  0  0  0  0  0  0  0  0  0
  189.6970  177.8000  140.1240 C   0  0  1  0  0  3  0  0  0  0  0  0
  193.0670  176.8760  139.2040 C   0  0  0  0  0  2  0  0  0  0  0  0
  191.4720  179.0800  143.0490 O   0  0  0  0  0  1  0  0  0  0  0  0
  185.6500  179.4900  142.0230 C   0  0  0  0  0  3  0  0  0  0  0  0
  186.6630  178.6280  142.1340 C   0  0  0  0  0  0  0  0  0  0  0  0
  191.6820  177.8060  142.5200 C   0  0  2  0  0  3  0  0  0  0  0  0
  189.8670  176.2780  146.6470 C   0  0  0  0  0  2  0  0  0  0  0  0
  189.0510  178.1140  148.0910 C   0  0  0  0  0  1  0  0  0  0  0  0
  188.7180  176.7530  147.5150 C   0  0  0  0  0  2  0  0  0  0  0  0
  1  5  1  1  0  0  0
  2 16  2  0  0  0  0
  3 17  1  0  0  0  0
  4 12  1  0  0  0  0
  4  1  1  0  0  0  0
  5 11  1  0  0  0  0
  7 27  1  0  0  0  0
  8  6  1  0  0  0  0
  8 11  1  0  0  0  0
  9  7  1  0  0  0  0
 10  3  1  0  0  0  0
 10 22  1  0  0  0  0
 11 28  1  0  0  0  0
 12  8  1  0  0  0  0
 13  2  1  0  0  0  0
 14 23  1  0  0  0  0
 14  9  1  0  0  0  0
 15  7  1  0  0  0  0
 17 20  1  0  0  0  0
 17 26  1  0  0  0  0
 18 13  2  0  0  0  0
 19  1  1  0  0  0  0
 19  2  1  0  0  0  0
 20  4  1  0  0  0  0
 21 10  2  0  0  0  0
 22  9  1  0  0  0  0
 22 20  1  0  0  0  0
 23 15  1  0  0  0  0
 25 26  2  0  0  0  0
 25 18  1  0  0  0  0
 26 19  1  0  0  0  0
 27 12  1  0  0  0  0
 27 24  1  0  0  0  0
 28 30  1  0  0  0  0
 30 29  1  0  0  0  0
M  END
>  <MODEL>
5

>  <REMARK>
 VINA RESULT:      -7.2      2.369      5.952
  Name = 
  2 active torsions:
  status: ('A' for Active; 'I' for Inactive)
    1  A    between atoms: C_11  and  C_28
    2  A    between atoms: C_28  and  C_30
                            x       y       z     vdW  Elec       q    Type
                         _______ _______ _______ _____ _____    ______ ____

>  <TORSDO>
F 2

$$$$
=
 OpenBabel11122410343D

 30 35  0  0  1  0  0  0  0  0999 V2000
  187.8620  177.5920  143.7250 C   0  0  2  0  0  3  0  0  0  0  0  0
  187.3150  177.6420  146.2250 C   0  0  0  0  0  0  0  0  0  0  0  0
  184.2380  177.9950  142.7150 N   0  0  0  0  0  2  0  0  0  0  0  0
  187.2350  177.5020  142.3770 N   0  0  2  0  0  0  0  0  0  0  0  0
  188.7000  176.4870  143.9570 O   0  0  0  0  0  0  0  0  0  0  0  0
  190.4780  176.3580  140.8520 O   0  0  0  0  0  1  0  0  0  0  0  0
  187.4910  178.7640  139.4470 C   0  0  2  0  0  3  0  0  0  0  0  0
  189.3980  176.2760  141.7380 C   0  0  1  0  0  3  0  0  0  0  0  0
  186.2780  177.9900  139.6970 N   0  0  2  0  0  0  0  0  0  0  0  0
  184.3950  177.8780  141.3130 C   0  0  0  0  0  0  0  0  0  0  0  0
  189.8190  176.6540  143.1410 C   0  0  2  0  0  3  0  0  0  0  0  0
  188.2410  177.1910  141.3090 C   0  0  2  0  0  3  0  0  0  0  0  0
  186.6580  178.4440  147.2120 N   0  0  0  0  0  0  0  0  0  0  0  0
  185.5060  178.1710  138.4750 C   0  0  0  0  0  2  0  0  0  0  0  0
  187.8310  178.5910  137.9890 C   0  0  0  0  0  2  0  0  0  0  0  0
  188.2910  176.9260  146.5720 O   0  0  0  0  0  0  0  0  0  0  0  0
  185.3040  178.8840  143.1470 C   0  0  2  0  0  3  0  0  0  0  0  0
  185.6810  179.2420  146.9090 C   0  0  0  0  0  3  0  0  0  0  0  0
  186.7720  177.5700  144.8110 C   0  0  1  0  0  3  0  0  0  0  0  0
  186.4270  178.7330  142.1090 C   0  0  2  0  0  3  0  0  0  0  0  0
  183.5800  177.2490  140.5870 O   0  0  0  0  0  0  0  0  0  0  0  0
  185.5800  178.6280  140.8150 C   0  0  1  0  0  3  0  0  0  0  0  0
  186.4950  178.3280  137.3320 C   0  0  0  0  0  2  0  0  0  0  0  0
  189.1340  179.4310  141.0740 O   0  0  0  0  0  1  0  0  0  0  0  0
  185.2180  179.3770  145.5210 C   0  0  0  0  0  3  0  0  0  0  0  0
  185.7440  178.6350  144.5440 C   0  0  0  0  0  0  0  0  0  0  0  0
  188.6440  178.3380  140.3590 C   0  0  2  0  0  3  0  0  0  0  0  0
  190.9330  175.7390  143.6250 C   0  0  0  0  0  2  0  0  0  0  0  0
  191.6800  177.8930  144.5860 C   0  0  0  0  0  1  0  0  0  0  0  0
  191.6800  176.3900  144.7730 C   0  0  0  0  0  2  0  0  0  0  0  0
  1  5  1  1  0  0  0
  1 19  1  0  0  0  0
  2 16  2  0  0  0  0
  2 13  1  0  0  0  0
  3 17  1  0  0  0  0
  4  1  1  0  0  0  0
  6  8  1  0  0  0  0
  7  9  1  0  0  0  0
  7 27  1  0  0  0  0
  8 11  1  0  0  0  0
  9 22  1  0  0  0  0
 10  3  1  0  0  0  0
 11 28  1  0  0  0  0
 11  5  1  0  0  0  0
 12  8  1  0  0  0  0
 12  4  1  0  0  0  0
 14  9  1  0  0  0  0
 15  7  1  0  0  0  0
 17 26  1  0  0  0  0
 18 13  2  0  0  0  0
 19  2  1  0  0  0  0
 20  4  1  0  0  0  0
 20 17  1  0  0  0  0
 21 10  2  0  0  0  0
 22 10  1  0  0  0  0
 22 20  1  0  0  0  0
 23 15  1  0  0  0  0
 23 14  1  0  0  0  0
 25 18  1  0  0  0  0
 26 19  1  0  0  0  0
 26 25  2  0  0  0  0
 27 24  1  0  0  0  0
 27 12  1  0  0  0  0
 28 30  1  0  0  0  0
 29 30  1  0  0  0  0
M  END
>  <MODEL>
6

>  <REMARK>
 VINA RESULT:      -6.9      1.891      5.667
  Name = 
  2 active torsions:
  status: ('A' for Active; 'I' for Inactive)
    1  A    between atoms: C_11  and  C_28
    2  A    between atoms: C_28  and  C_30
                            x       y       z     vdW  Elec       q    Type
                         _______ _______ _______ _____ _____    ______ ____

>  <TORSDO>
F 2

$$$$
=
 OpenBabel11122410343D

 30 35  0  0  1  0  0  0  0  0999 V2000
  185.7880  178.5380  140.0090 C   0  0  2  0  0  3  0  0  0  0  0  0
  186.6670  178.5220  137.6050 C   0  0  0  0  0  0  0  0  0  0  0  0
  188.8730  176.8180  141.3660 N   0  0  0  0  0  2  0  0  0  0  0  0
  186.0530  177.9960  141.3700 N   0  0  2  0  0  0  0  0  0  0  0  0
  184.5440  178.0900  139.5290 O   0  0  0  0  0  0  0  0  0  0  0  0
  182.4980  178.6500  142.4130 O   0  0  0  0  0  1  0  0  0  0  0  0
  186.0370  178.9110  144.4370 C   0  0  2  0  0  3  0  0  0  0  0  0
  183.4990  178.0810  141.6180 C   0  0  1  0  0  3  0  0  0  0  0  0
  186.6860  177.6320  144.1630 N   0  0  2  0  0  0  0  0  0  0  0  0
  188.4580  176.6720  142.7120 C   0  0  0  0  0  0  0  0  0  0  0  0
  183.5660  178.7570  140.2660 C   0  0  2  0  0  3  0  0  0  0  0  0
  184.8790  178.1790  142.2860 C   0  0  2  0  0  3  0  0  0  0  0  0
  187.7940  178.9300  136.8210 N   0  0  0  0  0  0  0  0  0  0  0  0
  187.2340  177.2490  145.4580 C   0  0  0  0  0  2  0  0  0  0  0  0
  185.4300  178.8120  145.8130 C   0  0  0  0  0  2  0  0  0  0  0  0
  185.5300  178.4840  137.0650 O   0  0  0  0  0  0  0  0  0  0  0  0
  188.5150  178.1790  141.0010 C   0  0  2  0  0  3  0  0  0  0  0  0
  188.9810  179.0390  137.3300 C   0  0  0  0  0  3  0  0  0  0  0  0
  186.8600  178.0330  139.0270 C   0  0  1  0  0  3  0  0  0  0  0  0
  187.3310  178.5620  141.9040 C   0  0  2  0  0  3  0  0  0  0  0  0
  188.6950  175.6370  143.3890 O   0  0  0  0  0  0  0  0  0  0  0  0
  187.7810  177.8930  143.2280 C   0  0  1  0  0  3  0  0  0  0  0  0
  186.3070  177.8070  146.5250 C   0  0  0  0  0  2  0  0  0  0  0  0
  185.2680  180.5110  142.8130 O   0  0  0  0  0  1  0  0  0  0  0  0
  189.2200  178.7700  138.7550 C   0  0  0  0  0  3  0  0  0  0  0  0
  188.2370  178.3420  139.5500 C   0  0  0  0  0  0  0  0  0  0  0  0
  184.9920  179.2650  143.3760 C   0  0  2  0  0  3  0  0  0  0  0  0
  182.2310  178.6420  139.5480 C   0  0  0  0  0  2  0  0  0  0  0  0
  181.5460  180.8160  138.5850 C   0  0  0  0  0  1  0  0  0  0  0  0
  182.2370  179.4990  138.2970 C   0  0  0  0  0  2  0  0  0  0  0  0
  1  5  1  6  0  0  0
  1  4  1  0  0  0  0
  2 19  1  0  0  0  0
  3 10  1  0  0  0  0
  4 20  1  0  0  0  0
  4 12  1  0  0  0  0
  5 11  1  0  0  0  0
  7 15  1  0  0  0  0
  8 12  1  0  0  0  0
  8  6  1  0  0  0  0
  9  7  1  0  0  0  0
  9 14  1  0  0  0  0
 10 22  1  0  0  0  0
 10 21  2  0  0  0  0
 11  8  1  0  0  0  0
 12 27  1  0  0  0  0
 13 18  2  0  0  0  0
 13  2  1  0  0  0  0
 14 23  1  0  0  0  0
 15 23  1  0  0  0  0
 16  2  2  0  0  0  0
 17  3  1  0  0  0  0
 17 20  1  0  0  0  0
 18 25  1  0  0  0  0
 19 26  1  0  0  0  0
 19  1  1  0  0  0  0
 20 22  1  0  0  0  0
 22  9  1  0  0  0  0
 24 27  1  0  0  0  0
 25 26  2  0  0  0  0
 26 17  1  0  0  0  0
 27  7  1  0  0  0  0
 28 11  1  0  0  0  0
 30 29  1  0  0  0  0
 30 28  1  0  0  0  0
M  END
>  <MODEL>
7

>  <REMARK>
 VINA RESULT:      -6.6      2.064      4.973
  Name = 
  2 active torsions:
  status: ('A' for Active; 'I' for Inactive)
    1  A    between atoms: C_11  and  C_28
    2  A    between atoms: C_28  and  C_30
                            x       y       z     vdW  Elec       q    Type
                         _______ _______ _______ _____ _____    ______ ____

>  <TORSDO>
F 2

$$$$
=
 OpenBabel11122410343D

 30 35  0  0  1  0  0  0  0  0999 V2000
  188.6260  176.7270  138.2380 C   0  0  2  0  0  3  0  0  0  0  0  0
  187.9180  178.2530  140.1680 C   0  0  0  0  0  0  0  0  0  0  0  0
  192.3090  177.1280  139.0010 N   0  0  0  0  0  2  0  0  0  0  0  0
  189.8120  176.2720  137.4610 N   0  0  2  0  0  0  0  0  0  0  0  0
  187.7150  177.4020  137.4050 O   0  0  0  0  0  0  0  0  0  0  0  0
  187.6250  175.1750  134.6040 O   0  0  0  0  0  1  0  0  0  0  0  0
  191.0550  173.6150  136.1830 C   0  0  2  0  0  3  0  0  0  0  0  0
  188.1470  176.0990  135.5150 C   0  0  1  0  0  3  0  0  0  0  0  0
  191.9550  174.7620  136.2530 N   0  0  2  0  0  0  0  0  0  0  0  0
  192.8330  176.3910  137.9110 C   0  0  0  0  0  0  0  0  0  0  0  0
  187.1310  176.4380  136.5840 C   0  0  2  0  0  3  0  0  0  0  0  0
  189.4190  175.5710  136.1950 C   0  0  2  0  0  3  0  0  0  0  0  0
  188.0710  178.4150  141.5820 N   0  0  0  0  0  0  0  0  0  0  0  0
  193.2250  174.2220  135.7860 C   0  0  0  0  0  2  0  0  0  0  0  0
  191.4400  172.8270  134.9570 C   0  0  0  0  0  2  0  0  0  0  0  0
  186.8550  178.6480  139.6200 O   0  0  0  0  0  0  0  0  0  0  0  0
  191.2200  176.3180  139.5220 C   0  0  2  0  0  3  0  0  0  0  0  0
  189.1190  177.9830  142.2130 C   0  0  0  0  0  3  0  0  0  0  0  0
  189.0640  177.7200  139.3290 C   0  0  1  0  0  3  0  0  0  0  0  0
  190.7190  175.4710  138.3410 C   0  0  2  0  0  3  0  0  0  0  0  0
  193.8560  176.7530  137.2730 O   0  0  0  0  0  0  0  0  0  0  0  0
  192.0730  175.1350  137.6640 C   0  0  1  0  0  3  0  0  0  0  0  0
  192.9100  173.1310  134.7770 C   0  0  0  0  0  2  0  0  0  0  0  0
  188.8770  173.4300  137.1900 O   0  0  0  0  0  1  0  0  0  0  0  0
  190.1930  177.2780  141.5000 C   0  0  0  0  0  3  0  0  0  0  0  0
  190.1550  177.1220  140.1750 C   0  0  0  0  0  0  0  0  0  0  0  0
  189.5840  174.0380  136.1520 C   0  0  2  0  0  3  0  0  0  0  0  0
  185.8710  177.0100  135.9570 C   0  0  0  0  0  2  0  0  0  0  0  0
  184.1370  177.5080  137.6510 C   0  0  0  0  0  1  0  0  0  0  0  0
  184.6440  176.4730  136.6680 C   0  0  0  0  0  2  0  0  0  0  0  0
  1  5  1  6  0  0  0
  1 19  1  0  0  0  0
  2 13  1  0  0  0  0
  3 17  1  0  0  0  0
  4  1  1  0  0  0  0
  4 20  1  0  0  0  0
  6  8  1  0  0  0  0
  7  9  1  0  0  0  0
  8 12  1  0  0  0  0
  8 11  1  0  0  0  0
  9 22  1  0  0  0  0
 10  3  1  0  0  0  0
 11  5  1  0  0  0  0
 12  4  1  0  0  0  0
 13 18  2  0  0  0  0
 14  9  1  0  0  0  0
 15  7  1  0  0  0  0
 16  2  2  0  0  0  0
 17 26  1  0  0  0  0
 19  2  1  0  0  0  0
 19 26  1  0  0  0  0
 20 17  1  0  0  0  0
 21 10  2  0  0  0  0
 22 10  1  0  0  0  0
 22 20  1  0  0  0  0
 23 15  1  0  0  0  0
 23 14  1  0  0  0  0
 25 18  1  0  0  0  0
 26 25  2  0  0  0  0
 27  7  1  0  0  0  0
 27 12  1  0  0  0  0
 27 24  1  0  0  0  0
 28 11  1  0  0  0  0
 28 30  1  0  0  0  0
 30 29  1  0  0  0  0
M  END
>  <MODEL>
8

>  <REMARK>
 VINA RESULT:      -6.6      4.695      8.240
  Name = 
  2 active torsions:
  status: ('A' for Active; 'I' for Inactive)
    1  A    between atoms: C_11  and  C_28
    2  A    between atoms: C_28  and  C_30
                            x       y       z     vdW  Elec       q    Type
                         _______ _______ _______ _____ _____    ______ ____

>  <TORSDO>
F 2

$$$$
=
 OpenBabel11122410343D

 30 35  0  0  1  0  0  0  0  0999 V2000
  187.5390  177.8740  142.5520 C   0  0  2  0  0  3  0  0  0  0  0  0
  186.5870  177.9560  144.9260 C   0  0  0  0  0  0  0  0  0  0  0  0
  184.1100  177.8810  140.9550 N   0  0  0  0  0  2  0  0  0  0  0  0
  187.1540  177.6770  141.1270 N   0  0  2  0  0  0  0  0  0  0  0  0
  188.4270  176.8670  142.9700 O   0  0  0  0  0  0  0  0  0  0  0  0
  190.6960  176.8090  140.2020 O   0  0  0  0  0  1  0  0  0  0  0  0
  187.7710  178.8580  138.2170 C   0  0  2  0  0  3  0  0  0  0  0  0
  189.4960  176.6510  140.9050 C   0  0  1  0  0  3  0  0  0  0  0  0
  186.6100  177.9760  138.3080 N   0  0  2  0  0  0  0  0  0  0  0  0
  184.5050  177.7330  139.6030 C   0  0  0  0  0  0  0  0  0  0  0  0
  189.6440  177.1150  142.3380 C   0  0  2  0  0  3  0  0  0  0  0  0
  188.3470  177.4310  140.2510 C   0  0  2  0  0  3  0  0  0  0  0  0
  185.7050  178.7220  145.7540 N   0  0  0  0  0  0  0  0  0  0  0  0
  186.0370  178.0380  136.9700 C   0  0  0  0  0  2  0  0  0  0  0  0
  188.3620  178.6690  136.8430 C   0  0  0  0  0  2  0  0  0  0  0  0
  187.5540  177.3520  145.4610 O   0  0  0  0  0  0  0  0  0  0  0  0
  185.0030  178.8860  141.5070 C   0  0  2  0  0  3  0  0  0  0  0  0
  184.7210  179.4080  145.2590 C   0  0  0  0  0  3  0  0  0  0  0  0
  186.2930  177.7810  143.4490 C   0  0  1  0  0  3  0  0  0  0  0  0
  186.2920  178.8120  140.6710 C   0  0  2  0  0  3  0  0  0  0  0  0
  183.8830  177.0020  138.7880 O   0  0  0  0  0  0  0  0  0  0  0  0
  185.6820  178.5800  139.2650 C   0  0  1  0  0  3  0  0  0  0  0  0
  187.1810  178.2530  135.9940 C   0  0  0  0  0  2  0  0  0  0  0  0
  189.0560  179.7390  140.0510 O   0  0  0  0  0  1  0  0  0  0  0  0
  184.4830  179.4490  143.8090 C   0  0  0  0  0  3  0  0  0  0  0  0
  185.2280  178.7300  142.9670 C   0  0  0  0  0  0  0  0  0  0  0  0
  188.7930  178.5790  139.3220 C   0  0  2  0  0  3  0  0  0  0  0  0
  190.7430  176.3330  143.0390 C   0  0  0  0  0  2  0  0  0  0  0  0
  191.3070  178.5640  143.9470 C   0  0  0  0  0  1  0  0  0  0  0  0
  191.2170  177.0870  144.2660 C   0  0  0  0  0  2  0  0  0  0  0  0
  1  5  1  1  0  0  0
  1 19  1  0  0  0  0
  2 16  2  0  0  0  0
  2 13  1  0  0  0  0
  3 17  1  0  0  0  0
  4  1  1  0  0  0  0
  6  8  1  0  0  0  0
  7  9  1  0  0  0  0
  7 27  1  0  0  0  0
  8 11  1  0  0  0  0
  9 22  1  0  0  0  0
 10  3  1  0  0  0  0
 11  5  1  0  0  0  0
 11 28  1  0  0  0  0
 12  8  1  0  0  0  0
 12  4  1  0  0  0  0
 14  9  1  0  0  0  0
 15  7  1  0  0  0  0
 17 26  1  0  0  0  0
 18 13  2  0  0  0  0
 19  2  1  0  0  0  0
 20  4  1  0  0  0  0
 20 17  1  0  0  0  0
 21 10  2  0  0  0  0
 22 10  1  0  0  0  0
 22 20  1  0  0  0  0
 23 15  1  0  0  0  0
 23 14  1  0  0  0  0
 25 18  1  0  0  0  0
 26 19  1  0  0  0  0
 26 25  2  0  0  0  0
 27 24  1  0  0  0  0
 27 12  1  0  0  0  0
 28 30  1  0  0  0  0
 29 30  1  0  0  0  0
M  END
>  <MODEL>
9

>  <REMARK>
 VINA RESULT:      -6.4      1.896      5.826
  Name = 
  2 active torsions:
  status: ('A' for Active; 'I' for Inactive)
    1  A    between atoms: C_11  and  C_28
    2  A    between atoms: C_28  and  C_30
                            x       y       z     vdW  Elec       q    Type
                         _______ _______ _______ _____ _____    ______ ____

>  <TORSDO>
F 2

$$$$
