=
 OpenBabel11122411553D

 28 32  0  0  1  0  0  0  0  0999 V2000
  182.4770  177.8830  136.7090 C   0  0  0  0  0  0  0  0  0  0  0  0
  184.6350  177.4520  141.2840 F   0  0  0  0  0  0  0  0  0  0  0  0
  178.9310  175.8540  138.7310 O   0  0  0  0  0  0  0  0  0  0  0  0
  180.7980  180.1200  136.8470 C   0  0  0  0  0  3  0  0  0  0  0  0
  179.8190  177.2350  140.5020 C   0  0  1  0  0  3  0  0  0  0  0  0
  183.2680  176.6950  136.6470 N   0  0  0  0  0  2  0  0  0  0  0  0
  185.3680  179.4500  140.5420 O   0  0  0  0  0  1  0  0  0  0  0  0
  184.3070  178.7980  141.1690 C   0  0  1  0  0  0  0  0  0  0  0  0
  183.0300  178.7160  143.0420 C   0  0  1  0  0  3  0  0  0  0  0  0
  183.0380  179.0080  140.3120 C   0  0  2  0  0  3  0  0  0  0  0  0
  180.5660  174.6530  136.2040 O   0  0  0  0  0  0  0  0  0  0  0  0
  182.1600  176.7860  139.8370 C   0  0  1  0  0  3  0  0  0  0  0  0
  181.8410  179.2210  142.4890 O   0  0  0  0  0  0  0  0  0  0  0  0
  184.1370  179.3540  142.4540 O   0  0  0  0  0  0  0  0  0  0  0  0
  181.5870  174.9640  136.7950 C   0  0  0  0  0  0  0  0  0  0  0  0
  182.2900  178.5350  137.9410 C   0  0  0  0  0  0  0  0  0  0  0  0
  179.9270  176.3550  139.3170 C   0  0  0  0  0  0  0  0  0  0  0  0
  183.0380  178.9680  144.5360 C   0  0  0  0  0  1  0  0  0  0  0  0
  181.6480  174.8400  138.2860 C   0  0  0  0  0  2  0  0  0  0  0  0
  181.4380  179.6530  137.9970 C   0  0  0  0  0  3  0  0  0  0  0  0
  181.8160  178.3440  135.5630 C   0  0  0  0  0  3  0  0  0  0  0  0
  180.9860  179.4640  135.6300 C   0  0  0  0  0  3  0  0  0  0  0  0
  182.7640  175.4810  136.0240 C   0  0  0  0  0  2  0  0  0  0  0  0
  181.2900  177.3750  140.9560 C   0  0  1  0  0  3  0  0  0  0  0  0
  181.2620  176.0930  138.9240 N   0  0  0  0  0  0  0  0  0  0  0  0
  181.7550  178.8190  141.1360 C   0  0  2  0  0  3  0  0  0  0  0  0
  179.2650  178.4600  140.1190 O   0  0  0  0  0  1  0  0  0  0  0  0
  182.9270  177.9670  139.1990 C   0  0  1  0  0  3  0  0  0  0  0  0
  1 16  1  0  0  0  0
  3 17  2  0  0  0  0
  4 20  1  0  0  0  0
  5 27  1  6  0  0  0
  5 24  1  0  0  0  0
  6  1  1  0  0  0  0
  8  7  1  6  0  0  0
  8  2  1  0  0  0  0
  8 14  1  0  0  0  0
  9 18  1  1  0  0  0
 10 26  1  0  0  0  0
 10  8  1  0  0  0  0
 11 15  2  0  0  0  0
 12 24  1  0  0  0  0
 13  9  1  0  0  0  0
 14  9  1  0  0  0  0
 15 19  1  0  0  0  0
 16 20  2  0  0  0  0
 16 28  1  0  0  0  0
 17  5  1  0  0  0  0
 19 25  1  0  0  0  0
 21 22  1  0  0  0  0
 21  1  2  0  0  0  0
 22  4  2  0  0  0  0
 23  6  1  0  0  0  0
 23 15  1  0  0  0  0
 24 26  1  0  0  0  0
 25 17  1  0  0  0  0
 25 12  1  0  0  0  0
 26 13  1  0  0  0  0
 28 12  1  0  0  0  0
 28 10  1  0  0  0  0
M  END
>  <MODEL>
1

>  <REMARK>
 VINA RESULT:      -5.9      0.000      0.000
  Name = 
  0 active torsions:
  status: ('A' for Active; 'I' for Inactive)
                            x       y       z     vdW  Elec       q    Type
                         _______ _______ _______ _____ _____    ______ ____

>  <TORSDO>
F 0

$$$$
=
 OpenBabel11122411553D

 28 32  0  0  1  0  0  0  0  0999 V2000
  181.3030  177.7730  136.3750 C   0  0  0  0  0  0  0  0  0  0  0  0
  185.8680  176.7570  138.3490 F   0  0  0  0  0  0  0  0  0  0  0  0
  179.8430  177.0480  140.6330 O   0  0  0  0  0  0  0  0  0  0  0  0
  180.7440  180.4360  137.0360 C   0  0  0  0  0  3  0  0  0  0  0  0
  181.9870  178.1010  140.9900 C   0  0  1  0  0  3  0  0  0  0  0  0
  181.5390  176.3910  136.0990 N   0  0  0  0  0  2  0  0  0  0  0  0
  186.2920  178.3930  136.8570 O   0  0  0  0  0  1  0  0  0  0  0  0
  185.8610  178.1340  138.1570 C   0  0  1  0  0  0  0  0  0  0  0  0
  186.2750  178.5090  140.3550 C   0  0  1  0  0  3  0  0  0  0  0  0
  184.4430  178.7270  138.3230 C   0  0  2  0  0  3  0  0  0  0  0  0
  178.9360  175.3290  138.0380 O   0  0  0  0  0  0  0  0  0  0  0  0
  183.0230  176.9020  139.0900 C   0  0  1  0  0  3  0  0  0  0  0  0
  185.1880  179.3610  140.6160 O   0  0  0  0  0  0  0  0  0  0  0  0
  186.7620  178.7410  139.0560 O   0  0  0  0  0  0  0  0  0  0  0  0
  180.1130  175.3040  137.7200 C   0  0  0  0  0  0  0  0  0  0  0  0
  182.1760  178.4750  137.2250 C   0  0  0  0  0  0  0  0  0  0  0  0
  181.0420  177.2100  140.2810 C   0  0  0  0  0  0  0  0  0  0  0  0
  187.3760  178.7750  141.3610 C   0  0  0  0  0  1  0  0  0  0  0  0
  181.1660  175.1960  138.7790 C   0  0  0  0  0  2  0  0  0  0  0  0
  181.8790  179.8100  137.5530 C   0  0  0  0  0  3  0  0  0  0  0  0
  180.1540  178.4010  135.8750 C   0  0  0  0  0  3  0  0  0  0  0  0
  179.8800  179.7310  136.1970 C   0  0  0  0  0  3  0  0  0  0  0  0
  180.4930  175.3940  136.2730 C   0  0  0  0  0  2  0  0  0  0  0  0
  183.3380  177.7640  140.3200 C   0  0  1  0  0  3  0  0  0  0  0  0
  181.6220  176.5200  139.1890 N   0  0  0  0  0  0  0  0  0  0  0  0
  184.0990  178.9820  139.7980 C   0  0  2  0  0  3  0  0  0  0  0  0
  181.6110  179.4320  140.7840 O   0  0  0  0  0  1  0  0  0  0  0  0
  183.3620  177.7560  137.8470 C   0  0  1  0  0  3  0  0  0  0  0  0
  1 16  1  0  0  0  0
  4 20  1  0  0  0  0
  5 27  1  6  0  0  0
  6 23  1  0  0  0  0
  6  1  1  0  0  0  0
  8  7  1  6  0  0  0
  8 10  1  0  0  0  0
  8  2  1  0  0  0  0
  8 14  1  0  0  0  0
  9 13  1  0  0  0  0
  9 18  1  1  0  0  0
 10 26  1  0  0  0  0
 12 25  1  0  0  0  0
 12 24  1  0  0  0  0
 14  9  1  0  0  0  0
 15 11  2  0  0  0  0
 15 19  1  0  0  0  0
 16 20  2  0  0  0  0
 16 28  1  0  0  0  0
 17  3  2  0  0  0  0
 17  5  1  0  0  0  0
 19 25  1  0  0  0  0
 21 22  1  0  0  0  0
 21  1  2  0  0  0  0
 22  4  2  0  0  0  0
 23 15  1  0  0  0  0
 24  5  1  0  0  0  0
 25 17  1  0  0  0  0
 26 24  1  0  0  0  0
 26 13  1  0  0  0  0
 28 10  1  0  0  0  0
 28 12  1  0  0  0  0
M  END
>  <MODEL>
2

>  <REMARK>
 VINA RESULT:      -5.4      1.754      2.587
  Name = 
  0 active torsions:
  status: ('A' for Active; 'I' for Inactive)
                            x       y       z     vdW  Elec       q    Type
                         _______ _______ _______ _____ _____    ______ ____

>  <TORSDO>
F 0

$$$$
=
 OpenBabel11122411553D

 28 32  0  0  1  0  0  0  0  0999 V2000
  189.6350  178.0820  138.0890 C   0  0  0  0  0  0  0  0  0  0  0  0
  193.0240  176.5010  134.6550 F   0  0  0  0  0  0  0  0  0  0  0  0
  187.1340  174.6210  136.4930 O   0  0  0  0  0  0  0  0  0  0  0  0
  189.9080  176.3780  140.2940 C   0  0  0  0  0  3  0  0  0  0  0  0
  189.3790  173.7400  136.3710 C   0  0  1  0  0  3  0  0  0  0  0  0
  189.4300  178.9080  136.9420 N   0  0  0  0  0  2  0  0  0  0  0  0
  194.3000  177.1280  136.4040 O   0  0  0  0  0  1  0  0  0  0  0  0
  193.5370  176.0860  135.8790 C   0  0  1  0  0  0  0  0  0  0  0  0
  193.5710  173.9200  135.2080 C   0  0  1  0  0  3  0  0  0  0  0  0
  192.4130  175.7560  136.8880 C   0  0  2  0  0  3  0  0  0  0  0  0
  186.2680  177.7430  136.3900 O   0  0  0  0  0  0  0  0  0  0  0  0
  190.3180  175.9140  135.6550 C   0  0  1  0  0  3  0  0  0  0  0  0
  192.8190  173.3770  136.2640 O   0  0  0  0  0  0  0  0  0  0  0  0
  194.3760  174.9700  135.6870 O   0  0  0  0  0  0  0  0  0  0  0  0
  187.4030  177.9810  136.0100 C   0  0  0  0  0  0  0  0  0  0  0  0
  190.4930  176.9710  138.0050 C   0  0  0  0  0  0  0  0  0  0  0  0
  188.3600  174.8080  136.2730 C   0  0  0  0  0  0  0  0  0  0  0  0
  194.4520  172.8430  134.6090 C   0  0  0  0  0  1  0  0  0  0  0  0
  188.0980  177.0170  135.0990 C   0  0  0  0  0  2  0  0  0  0  0  0
  190.6150  176.1200  139.1190 C   0  0  0  0  0  3  0  0  0  0  0  0
  188.9130  178.3240  139.2650 C   0  0  0  0  0  3  0  0  0  0  0  0
  189.0560  177.4800  140.3670 C   0  0  0  0  0  3  0  0  0  0  0  0
  188.0930  179.2300  136.4690 C   0  0  0  0  0  2  0  0  0  0  0  0
  190.6400  174.4200  135.7900 C   0  0  1  0  0  3  0  0  0  0  0  0
  188.8850  176.0590  135.8670 N   0  0  0  0  0  0  0  0  0  0  0  0
  191.8690  174.3330  136.6930 C   0  0  2  0  0  3  0  0  0  0  0  0
  189.5420  173.3780  137.7110 O   0  0  0  0  0  1  0  0  0  0  0  0
  191.1920  176.6550  136.6930 C   0  0  1  0  0  3  0  0  0  0  0  0
  1 21  1  0  0  0  0
  4 22  1  0  0  0  0
  5 27  1  1  0  0  0
  6  1  1  0  0  0  0
  8  2  1  6  0  0  0
  8  7  1  0  0  0  0
  8 10  1  0  0  0  0
  9 18  1  1  0  0  0
  9 14  1  0  0  0  0
  9 13  1  0  0  0  0
 12 24  1  0  0  0  0
 12 25  1  0  0  0  0
 12 28  1  0  0  0  0
 13 26  1  0  0  0  0
 14  8  1  0  0  0  0
 15 11  2  0  0  0  0
 15 23  1  0  0  0  0
 16  1  2  0  0  0  0
 16 20  1  0  0  0  0
 17  5  1  0  0  0  0
 17  3  2  0  0  0  0
 19 25  1  0  0  0  0
 19 15  1  0  0  0  0
 20  4  2  0  0  0  0
 21 22  2  0  0  0  0
 23  6  1  0  0  0  0
 24  5  1  0  0  0  0
 24 26  1  0  0  0  0
 25 17  1  0  0  0  0
 26 10  1  0  0  0  0
 28 10  1  0  0  0  0
 28 16  1  0  0  0  0
M  END
>  <MODEL>
3

>  <REMARK>
 VINA RESULT:      -5.3      8.029     10.167
  Name = 
  0 active torsions:
  status: ('A' for Active; 'I' for Inactive)
                            x       y       z     vdW  Elec       q    Type
                         _______ _______ _______ _____ _____    ______ ____

>  <TORSDO>
F 0

$$$$
=
 OpenBabel11122411553D

 28 32  0  0  1  0  0  0  0  0999 V2000
  183.4380  177.2170  136.1030 C   0  0  0  0  0  0  0  0  0  0  0  0
  184.6370  177.6630  141.0150 F   0  0  0  0  0  0  0  0  0  0  0  0
  180.1710  174.4420  137.6560 O   0  0  0  0  0  0  0  0  0  0  0  0
  181.2620  178.9260  135.6740 C   0  0  0  0  0  3  0  0  0  0  0  0
  180.2990  176.1170  139.3900 C   0  0  1  0  0  3  0  0  0  0  0  0
  184.4960  176.2820  136.3240 N   0  0  0  0  0  2  0  0  0  0  0  0
  184.9850  179.7350  140.1980 O   0  0  0  0  0  1  0  0  0  0  0  0
  184.0150  178.8630  140.6900 C   0  0  1  0  0  0  0  0  0  0  0  0
  182.4390  178.5580  142.2920 C   0  0  1  0  0  3  0  0  0  0  0  0
  182.9390  178.6710  139.5960 C   0  0  2  0  0  3  0  0  0  0  0  0
  182.5430  173.5680  135.6260 O   0  0  0  0  0  0  0  0  0  0  0  0
  182.7630  176.2700  139.2230 C   0  0  1  0  0  3  0  0  0  0  0  0
  181.3030  178.6900  141.4760 O   0  0  0  0  0  0  0  0  0  0  0  0
  183.4480  179.4320  141.8490 O   0  0  0  0  0  0  0  0  0  0  0  0
  183.3080  174.1780  136.3560 C   0  0  0  0  0  0  0  0  0  0  0  0
  182.8420  177.8700  137.1970 C   0  0  0  0  0  0  0  0  0  0  0  0
  180.8670  175.2270  138.3540 C   0  0  0  0  0  0  0  0  0  0  0  0
  182.0740  178.8950  143.7230 C   0  0  0  0  0  1  0  0  0  0  0  0
  183.0880  174.1660  137.8370 C   0  0  0  0  0  2  0  0  0  0  0  0
  181.7460  178.7210  136.9670 C   0  0  0  0  0  3  0  0  0  0  0  0
  182.9350  177.4120  134.8100 C   0  0  0  0  0  3  0  0  0  0  0  0
  181.8560  178.2710  134.5950 C   0  0  0  0  0  3  0  0  0  0  0  0
  184.4520  174.9410  135.7610 C   0  0  0  0  0  2  0  0  0  0  0  0
  181.5610  176.6730  140.0880 C   0  0  1  0  0  3  0  0  0  0  0  0
  182.2770  175.3080  138.2460 N   0  0  0  0  0  0  0  0  0  0  0  0
  181.6020  178.1970  140.1850 C   0  0  2  0  0  3  0  0  0  0  0  0
  179.5480  177.1230  138.7750 O   0  0  0  0  0  1  0  0  0  0  0  0
  183.3260  177.5720  138.6070 C   0  0  1  0  0  3  0  0  0  0  0  0
  1  6  1  0  0  0  0
  1 16  1  0  0  0  0
  3 17  2  0  0  0  0
  4 20  1  0  0  0  0
  5 27  1  6  0  0  0
  5 24  1  0  0  0  0
  8  7  1  6  0  0  0
  8  2  1  0  0  0  0
  8 14  1  0  0  0  0
  9 18  1  1  0  0  0
 10 26  1  0  0  0  0
 10  8  1  0  0  0  0
 11 15  2  0  0  0  0
 12 24  1  0  0  0  0
 13  9  1  0  0  0  0
 14  9  1  0  0  0  0
 15 19  1  0  0  0  0
 16 28  1  0  0  0  0
 17  5  1  0  0  0  0
 19 25  1  0  0  0  0
 20 16  2  0  0  0  0
 21  1  2  0  0  0  0
 22 21  1  0  0  0  0
 22  4  2  0  0  0  0
 23  6  1  0  0  0  0
 23 15  1  0  0  0  0
 24 26  1  0  0  0  0
 25 17  1  0  0  0  0
 25 12  1  0  0  0  0
 26 13  1  0  0  0  0
 28 12  1  0  0  0  0
 28 10  1  0  0  0  0
M  END
>  <MODEL>
4

>  <REMARK>
 VINA RESULT:      -5.3      1.190      1.438
  Name = 
  0 active torsions:
  status: ('A' for Active; 'I' for Inactive)
                            x       y       z     vdW  Elec       q    Type
                         _______ _______ _______ _____ _____    ______ ____

>  <TORSDO>
F 0

$$$$
=
 OpenBabel11122411553D

 28 32  0  0  1  0  0  0  0  0999 V2000
  182.9330  177.2260  137.3750 C   0  0  0  0  0  0  0  0  0  0  0  0
  186.0170  173.2440  138.0110 F   0  0  0  0  0  0  0  0  0  0  0  0
  186.8270  179.5370  136.8500 O   0  0  0  0  0  0  0  0  0  0  0  0
  182.7520  177.6380  134.6110 C   0  0  0  0  0  3  0  0  0  0  0  0
  187.3440  177.4090  135.8330 C   0  0  1  0  0  3  0  0  0  0  0  0
  183.0780  177.0780  138.7880 N   0  0  0  0  0  2  0  0  0  0  0  0
  184.2780  172.3850  136.8620 O   0  0  0  0  0  1  0  0  0  0  0  0
  185.4800  173.0800  136.7390 C   0  0  1  0  0  0  0  0  0  0  0  0
  187.5430  173.0590  135.7980 C   0  0  1  0  0  3  0  0  0  0  0  0
  185.1850  174.4380  136.0620 C   0  0  2  0  0  3  0  0  0  0  0  0
  184.6320  180.0950  139.1690 O   0  0  0  0  0  0  0  0  0  0  0  0
  186.0790  176.1500  137.5470 C   0  0  1  0  0  3  0  0  0  0  0  0
  187.3400  174.0870  134.8610 O   0  0  0  0  0  0  0  0  0  0  0  0
  186.3610  172.3130  135.9490 O   0  0  0  0  0  0  0  0  0  0  0  0
  184.5860  178.8860  139.3310 C   0  0  0  0  0  0  0  0  0  0  0  0
  183.7370  176.4660  136.5060 C   0  0  0  0  0  0  0  0  0  0  0  0
  186.7060  178.2830  136.8420 C   0  0  0  0  0  0  0  0  0  0  0  0
  188.6550  172.1500  135.3150 C   0  0  0  0  0  1  0  0  0  0  0  0
  185.8350  178.0710  139.1910 C   0  0  0  0  0  2  0  0  0  0  0  0
  183.6400  176.6890  135.1200 C   0  0  0  0  0  3  0  0  0  0  0  0
  182.0570  178.1900  136.8580 C   0  0  0  0  0  3  0  0  0  0  0  0
  181.9610  178.3890  135.4800 C   0  0  0  0  0  3  0  0  0  0  0  0
  183.2780  178.2290  139.6550 C   0  0  0  0  0  2  0  0  0  0  0  0
  187.0830  175.9940  136.3970 C   0  0  1  0  0  3  0  0  0  0  0  0
  185.9760  177.5740  137.8270 N   0  0  0  0  0  0  0  0  0  0  0  0
  186.4380  175.0320  135.4010 C   0  0  2  0  0  3  0  0  0  0  0  0
  186.7280  177.6060  134.5940 O   0  0  0  0  0  1  0  0  0  0  0  0
  184.7580  175.4970  137.0790 C   0  0  1  0  0  3  0  0  0  0  0  0
  1  6  1  0  0  0  0
  4 20  2  0  0  0  0
  4 22  1  0  0  0  0
  5 27  1  6  0  0  0
  5 24  1  0  0  0  0
  5 17  1  0  0  0  0
  6 23  1  0  0  0  0
  8  7  1  1  0  0  0
  8  2  1  0  0  0  0
  9 18  1  6  0  0  0
  9 14  1  0  0  0  0
 10  8  1  0  0  0  0
 10 28  1  0  0  0  0
 11 15  2  0  0  0  0
 12 25  1  0  0  0  0
 13 26  1  0  0  0  0
 13  9  1  0  0  0  0
 14  8  1  0  0  0  0
 15 23  1  0  0  0  0
 16 28  1  0  0  0  0
 16  1  2  0  0  0  0
 17  3  2  0  0  0  0
 17 25  1  0  0  0  0
 19 15  1  0  0  0  0
 20 16  1  0  0  0  0
 21  1  1  0  0  0  0
 22 21  2  0  0  0  0
 24 12  1  0  0  0  0
 25 19  1  0  0  0  0
 26 10  1  0  0  0  0
 26 24  1  0  0  0  0
 28 12  1  0  0  0  0
M  END
>  <MODEL>
5

>  <REMARK>
 VINA RESULT:      -4.9      3.871      6.941
  Name = 
  0 active torsions:
  status: ('A' for Active; 'I' for Inactive)
                            x       y       z     vdW  Elec       q    Type
                         _______ _______ _______ _____ _____    ______ ____

>  <TORSDO>
F 0

$$$$
=
 OpenBabel11122411553D

 28 32  0  0  1  0  0  0  0  0999 V2000
  181.1240  178.8180  137.3850 C   0  0  0  0  0  0  0  0  0  0  0  0
  181.0360  173.9430  138.7980 F   0  0  0  0  0  0  0  0  0  0  0  0
  185.6290  178.1600  137.1450 O   0  0  0  0  0  0  0  0  0  0  0  0
  181.3520  178.8160  134.5940 C   0  0  0  0  0  3  0  0  0  0  0  0
  184.7530  176.0310  136.4150 C   0  0  1  0  0  3  0  0  0  0  0  0
  181.0880  178.8350  138.8130 N   0  0  0  0  0  2  0  0  0  0  0  0
  179.1890  174.1550  137.5230 O   0  0  0  0  0  1  0  0  0  0  0  0
  180.5670  173.9430  137.4890 C   0  0  1  0  0  0  0  0  0  0  0  0
  182.2070  172.5230  136.8290 C   0  0  1  0  0  3  0  0  0  0  0  0
  181.2080  175.0740  136.6510 C   0  0  2  0  0  3  0  0  0  0  0  0
  184.1630  180.2930  139.0960 O   0  0  0  0  0  0  0  0  0  0  0  0
  182.9100  176.0910  138.0660 C   0  0  1  0  0  3  0  0  0  0  0  0
  182.7250  173.2990  135.7780 O   0  0  0  0  0  0  0  0  0  0  0  0
  180.8120  172.6870  136.8980 O   0  0  0  0  0  0  0  0  0  0  0  0
  183.3690  179.4070  139.3670 C   0  0  0  0  0  0  0  0  0  0  0  0
  181.3170  177.6020  136.7050 C   0  0  0  0  0  0  0  0  0  0  0  0
  184.7550  177.2570  137.2430 C   0  0  0  0  0  0  0  0  0  0  0  0
  182.5310  171.0630  136.5850 C   0  0  0  0  0  1  0  0  0  0  0  0
  183.8450  177.9910  139.4700 C   0  0  0  0  0  2  0  0  0  0  0  0
  181.4370  177.6170  135.3030 C   0  0  0  0  0  3  0  0  0  0  0  0
  181.0600  180.0200  136.6670 C   0  0  0  0  0  3  0  0  0  0  0  0
  181.1650  180.0180  135.2760 C   0  0  0  0  0  3  0  0  0  0  0  0
  181.9240  179.7440  139.5810 C   0  0  0  0  0  2  0  0  0  0  0  0
  183.6460  175.1780  137.0750 C   0  0  1  0  0  3  0  0  0  0  0  0
  183.7030  177.3060  138.1900 N   0  0  0  0  0  0  0  0  0  0  0  0
  182.5840  174.6680  136.1030 C   0  0  2  0  0  3  0  0  0  0  0  0
  184.4440  176.3660  135.0930 O   0  0  0  0  0  1  0  0  0  0  0  0
  181.4900  176.3160  137.4960 C   0  0  1  0  0  3  0  0  0  0  0  0
  1  6  1  0  0  0  0
  3 17  2  0  0  0  0
  4 22  2  0  0  0  0
  4 20  1  0  0  0  0
  5 27  1  6  0  0  0
  5 24  1  0  0  0  0
  5 17  1  0  0  0  0
  6 23  1  0  0  0  0
  8  7  1  1  0  0  0
  8  2  1  0  0  0  0
  9 18  1  6  0  0  0
  9 14  1  0  0  0  0
 10  8  1  0  0  0  0
 10 28  1  0  0  0  0
 11 15  2  0  0  0  0
 12 25  1  0  0  0  0
 13 26  1  0  0  0  0
 13  9  1  0  0  0  0
 14  8  1  0  0  0  0
 15 19  1  0  0  0  0
 15 23  1  0  0  0  0
 16  1  1  0  0  0  0
 16 28  1  0  0  0  0
 17 25  1  0  0  0  0
 20 16  2  0  0  0  0
 21  1  2  0  0  0  0
 22 21  1  0  0  0  0
 24 12  1  0  0  0  0
 25 19  1  0  0  0  0
 26 10  1  0  0  0  0
 26 24  1  0  0  0  0
 28 12  1  0  0  0  0
M  END
>  <MODEL>
6

>  <REMARK>
 VINA RESULT:      -4.6      2.659      5.988
  Name = 
  0 active torsions:
  status: ('A' for Active; 'I' for Inactive)
                            x       y       z     vdW  Elec       q    Type
                         _______ _______ _______ _____ _____    ______ ____

>  <TORSDO>
F 0

$$$$
=
 OpenBabel11122411553D

 28 32  0  0  1  0  0  0  0  0999 V2000
  181.7580  179.8980  139.0890 C   0  0  0  0  0  0  0  0  0  0  0  0
  185.6870  178.1470  136.3930 F   0  0  0  0  0  0  0  0  0  0  0  0
  179.3290  177.0630  136.4740 O   0  0  0  0  0  0  0  0  0  0  0  0
  181.2250  177.9590  141.0380 C   0  0  0  0  0  3  0  0  0  0  0  0
  181.3940  175.8490  136.7770 C   0  0  1  0  0  3  0  0  0  0  0  0
  181.9680  180.8580  138.0520 N   0  0  0  0  0  2  0  0  0  0  0  0
  186.5350  178.3810  138.4680 O   0  0  0  0  0  1  0  0  0  0  0  0
  185.8060  177.5340  137.6360 C   0  0  1  0  0  0  0  0  0  0  0  0
  185.7310  175.4700  136.7000 C   0  0  1  0  0  3  0  0  0  0  0  0
  184.4250  177.2890  138.2870 C   0  0  2  0  0  3  0  0  0  0  0  0
  178.9330  180.2780  136.5960 O   0  0  0  0  0  0  0  0  0  0  0  0
  182.7620  177.9050  136.6170 C   0  0  1  0  0  3  0  0  0  0  0  0
  184.6670  174.9510  137.4570 O   0  0  0  0  0  0  0  0  0  0  0  0
  186.5130  176.3230  137.5000 O   0  0  0  0  0  0  0  0  0  0  0  0
  180.1490  180.3680  136.5390 C   0  0  0  0  0  0  0  0  0  0  0  0
  182.4570  178.6780  139.0630 C   0  0  0  0  0  0  0  0  0  0  0  0
  180.5840  177.0720  136.5850 C   0  0  0  0  0  0  0  0  0  0  0  0
  186.5900  174.3300  136.1900 C   0  0  0  0  0  1  0  0  0  0  0  0
  180.9250  179.4010  135.6990 C   0  0  0  0  0  2  0  0  0  0  0  0
  182.1730  177.7100  140.0450 C   0  0  0  0  0  3  0  0  0  0  0  0
  180.7930  180.1340  140.0780 C   0  0  0  0  0  3  0  0  0  0  0  0
  180.5330  179.1710  141.0540 C   0  0  0  0  0  3  0  0  0  0  0  0
  180.8520  181.4370  137.3190 C   0  0  0  0  0  2  0  0  0  0  0  0
  182.8400  176.3730  136.6190 C   0  0  1  0  0  3  0  0  0  0  0  0
  181.3550  178.2570  136.4950 N   0  0  0  0  0  0  0  0  0  0  0  0
  183.7710  175.9990  137.7710 C   0  0  2  0  0  3  0  0  0  0  0  0
  181.1560  175.3320  138.0540 O   0  0  0  0  0  1  0  0  0  0  0  0
  183.4250  178.3880  137.9280 C   0  0  1  0  0  3  0  0  0  0  0  0
  1 21  1  0  0  0  0
  3 17  2  0  0  0  0
  4 22  1  0  0  0  0
  5 27  1  1  0  0  0
  6  1  1  0  0  0  0
  8  2  1  6  0  0  0
  8 10  1  0  0  0  0
  8  7  1  0  0  0  0
  9 18  1  1  0  0  0
  9 13  1  0  0  0  0
  9 14  1  0  0  0  0
 12 24  1  0  0  0  0
 12 28  1  0  0  0  0
 13 26  1  0  0  0  0
 14  8  1  0  0  0  0
 15 11  2  0  0  0  0
 15 23  1  0  0  0  0
 16  1  2  0  0  0  0
 16 20  1  0  0  0  0
 17  5  1  0  0  0  0
 19 25  1  0  0  0  0
 19 15  1  0  0  0  0
 20  4  2  0  0  0  0
 21 22  2  0  0  0  0
 23  6  1  0  0  0  0
 24  5  1  0  0  0  0
 24 26  1  0  0  0  0
 25 17  1  0  0  0  0
 25 12  1  0  0  0  0
 26 10  1  0  0  0  0
 28 10  1  0  0  0  0
 28 16  1  0  0  0  0
M  END
>  <MODEL>
7

>  <REMARK>
 VINA RESULT:      -4.6      2.599      4.943
  Name = 
  0 active torsions:
  status: ('A' for Active; 'I' for Inactive)
                            x       y       z     vdW  Elec       q    Type
                         _______ _______ _______ _____ _____    ______ ____

>  <TORSDO>
F 0

$$$$
=
 OpenBabel11122411553D

 28 32  0  0  1  0  0  0  0  0999 V2000
  181.9450  178.0730  138.1190 C   0  0  0  0  0  0  0  0  0  0  0  0
  186.6230  178.4900  136.1920 F   0  0  0  0  0  0  0  0  0  0  0  0
  181.3360  175.1030  134.7140 O   0  0  0  0  0  0  0  0  0  0  0  0
  181.9430  175.7350  139.6600 C   0  0  0  0  0  3  0  0  0  0  0  0
  183.6390  174.7210  135.3320 C   0  0  1  0  0  3  0  0  0  0  0  0
  181.9080  179.2240  137.2730 N   0  0  0  0  0  2  0  0  0  0  0  0
  186.9570  178.6160  138.4180 O   0  0  0  0  0  1  0  0  0  0  0  0
  186.7800  177.7370  137.3500 C   0  0  1  0  0  0  0  0  0  0  0  0
  187.7050  176.0220  136.1890 C   0  0  1  0  0  3  0  0  0  0  0  0
  185.5340  176.8690  137.6410 C   0  0  2  0  0  3  0  0  0  0  0  0
  179.6510  177.8430  135.1150 O   0  0  0  0  0  0  0  0  0  0  0  0
  184.0560  177.1290  135.7230 C   0  0  1  0  0  3  0  0  0  0  0  0
  186.8380  175.0040  136.6220 O   0  0  0  0  0  0  0  0  0  0  0  0
  187.9320  176.9320  137.2380 O   0  0  0  0  0  0  0  0  0  0  0  0
  180.7150  178.3920  135.3430 C   0  0  0  0  0  0  0  0  0  0  0  0
  183.0740  177.2350  138.1090 C   0  0  0  0  0  0  0  0  0  0  0  0
  182.4430  175.5620  135.1050 C   0  0  0  0  0  0  0  0  0  0  0  0
  189.0230  175.4120  135.7570 C   0  0  0  0  0  1  0  0  0  0  0  0
  181.9430  177.9730  134.5940 C   0  0  0  0  0  2  0  0  0  0  0  0
  183.0560  176.0600  138.8830 C   0  0  0  0  0  3  0  0  0  0  0  0
  180.8220  177.7300  138.8850 C   0  0  0  0  0  3  0  0  0  0  0  0
  180.8250  176.5700  139.6600 C   0  0  0  0  0  3  0  0  0  0  0  0
  180.7870  179.4730  136.3800 C   0  0  0  0  0  2  0  0  0  0  0  0
  184.7500  175.7690  135.5650 C   0  0  1  0  0  3  0  0  0  0  0  0
  182.6670  176.9420  135.3280 N   0  0  0  0  0  0  0  0  0  0  0  0
  185.5550  175.5550  136.8460 C   0  0  2  0  0  3  0  0  0  0  0  0
  183.4300  173.9130  136.4540 O   0  0  0  0  0  1  0  0  0  0  0  0
  184.2450  177.5580  137.1960 C   0  0  1  0  0  3  0  0  0  0  0  0
  1 21  1  0  0  0  0
  3 17  2  0  0  0  0
  5 24  1  0  0  0  0
  5 27  1  1  0  0  0
  6  1  1  0  0  0  0
  8  2  1  6  0  0  0
  8 10  1  0  0  0  0
  8  7  1  0  0  0  0
  9 18  1  1  0  0  0
  9 13  1  0  0  0  0
  9 14  1  0  0  0  0
 11 15  2  0  0  0  0
 12 28  1  0  0  0  0
 13 26  1  0  0  0  0
 14  8  1  0  0  0  0
 15 23  1  0  0  0  0
 16  1  2  0  0  0  0
 16 20  1  0  0  0  0
 17 25  1  0  0  0  0
 17  5  1  0  0  0  0
 19 25  1  0  0  0  0
 19 15  1  0  0  0  0
 20  4  2  0  0  0  0
 21 22  2  0  0  0  0
 22  4  1  0  0  0  0
 23  6  1  0  0  0  0
 24 12  1  0  0  0  0
 24 26  1  0  0  0  0
 25 12  1  0  0  0  0
 26 10  1  0  0  0  0
 28 10  1  0  0  0  0
 28 16  1  0  0  0  0
M  END
>  <MODEL>
8

>  <REMARK>
 VINA RESULT:      -4.5      3.131      5.496
  Name = 
  0 active torsions:
  status: ('A' for Active; 'I' for Inactive)
                            x       y       z     vdW  Elec       q    Type
                         _______ _______ _______ _____ _____    ______ ____

>  <TORSDO>
F 0

$$$$
=
 OpenBabel11122411553D

 28 32  0  0  1  0  0  0  0  0999 V2000
  180.5970  176.8320  136.6980 C   0  0  0  0  0  0  0  0  0  0  0  0
  185.4480  175.4400  137.2520 F   0  0  0  0  0  0  0  0  0  0  0  0
  181.0100  178.2140  141.0220 O   0  0  0  0  0  0  0  0  0  0  0  0
  180.6300  179.5890  136.2070 C   0  0  0  0  0  3  0  0  0  0  0  0
  183.1940  178.6940  140.1130 C   0  0  1  0  0  3  0  0  0  0  0  0
  180.5600  175.4420  137.0250 N   0  0  0  0  0  2  0  0  0  0  0  0
  185.3580  176.2010  135.1320 O   0  0  0  0  0  1  0  0  0  0  0  0
  185.4930  176.5850  136.4650 C   0  0  1  0  0  0  0  0  0  0  0  0
  186.8310  177.6410  137.9620 C   0  0  1  0  0  3  0  0  0  0  0  0
  184.3420  177.5600  136.8060 C   0  0  2  0  0  3  0  0  0  0  0  0
  178.9310  175.9540  139.9820 O   0  0  0  0  0  0  0  0  0  0  0  0
  183.2110  176.6270  138.7510 C   0  0  1  0  0  3  0  0  0  0  0  0
  186.0440  178.7900  138.1500 O   0  0  0  0  0  0  0  0  0  0  0  0
  186.7430  177.2180  136.6230 O   0  0  0  0  0  0  0  0  0  0  0  0
  179.8550  175.4890  139.3360 C   0  0  0  0  0  0  0  0  0  0  0  0
  181.8120  177.5380  136.7800 C   0  0  0  0  0  0  0  0  0  0  0  0
  181.9570  177.8950  140.2560 C   0  0  0  0  0  0  0  0  0  0  0  0
  188.2740  177.9580  138.2970 C   0  0  0  0  0  1  0  0  0  0  0  0
  181.2410  175.5100  139.9030 C   0  0  0  0  0  2  0  0  0  0  0  0
  181.8110  178.9230  136.5380 C   0  0  0  0  0  3  0  0  0  0  0  0
  179.4120  177.5100  136.3840 C   0  0  0  0  0  3  0  0  0  0  0  0
  179.4290  178.8820  136.1310 C   0  0  0  0  0  3  0  0  0  0  0  0
  179.5950  174.9130  137.9770 C   0  0  0  0  0  2  0  0  0  0  0  0
  184.0970  177.7720  139.2620 C   0  0  1  0  0  3  0  0  0  0  0  0
  181.9530  176.7110  139.4790 N   0  0  0  0  0  0  0  0  0  0  0  0
  184.6800  178.4410  138.0180 C   0  0  2  0  0  3  0  0  0  0  0  0
  182.8970  179.8930  139.4590 O   0  0  0  0  0  1  0  0  0  0  0  0
  183.0740  176.8160  137.2230 C   0  0  1  0  0  3  0  0  0  0  0  0
  1 16  1  0  0  0  0
  1  6  1  0  0  0  0
  4 20  1  0  0  0  0
  5 27  1  6  0  0  0
  5 17  1  0  0  0  0
  6 23  1  0  0  0  0
  8  7  1  6  0  0  0
  8 14  1  0  0  0  0
  8 10  1  0  0  0  0
  8  2  1  0  0  0  0
  9 13  1  0  0  0  0
  9 18  1  6  0  0  0
 10 28  1  0  0  0  0
 10 26  1  0  0  0  0
 12 24  1  0  0  0  0
 12 25  1  0  0  0  0
 14  9  1  0  0  0  0
 15 19  1  0  0  0  0
 15 11  2  0  0  0  0
 16 28  1  0  0  0  0
 17  3  2  0  0  0  0
 20 16  2  0  0  0  0
 21  1  2  0  0  0  0
 22  4  2  0  0  0  0
 22 21  1  0  0  0  0
 23 15  1  0  0  0  0
 24  5  1  0  0  0  0
 25 19  1  0  0  0  0
 25 17  1  0  0  0  0
 26 13  1  0  0  0  0
 26 24  1  0  0  0  0
 28 12  1  0  0  0  0
M  END
>  <MODEL>
9

>  <REMARK>
 VINA RESULT:      -4.5      2.564      4.061
  Name = 
  0 active torsions:
  status: ('A' for Active; 'I' for Inactive)
                            x       y       z     vdW  Elec       q    Type
                         _______ _______ _______ _____ _____    ______ ____

>  <TORSDO>
F 0

$$$$
