=
 OpenBabel11122410283D

 30 35  0  0  1  0  0  0  0  0999 V2000
  185.7170  178.5280  142.1260 C   0  0  0  0  0  0  0  0  0  0  0  0
  186.5050  177.8730  144.5130 C   0  0  0  0  0  0  0  0  0  0  0  0
  181.4580  178.8960  143.8990 S   0  0  0  0  0  0  0  0  0  0  0  0
  184.4950  178.4570  141.2810 C   0  0  0  0  0  0  0  0  0  0  0  0
  186.9040  178.6080  141.5230 C   0  0  0  0  0  3  0  0  0  0  0  0
  186.1840  178.2050  137.7960 C   0  0  0  0  0  1  0  0  0  0  0  0
  182.6040  176.8330  139.5400 C   0  0  1  0  0  3  0  0  0  0  0  0
  185.9890  178.3250  139.2780 C   0  0  0  0  0  0  0  0  0  0  0  0
  181.5920  177.3840  140.5510 C   0  0  2  0  0  3  0  0  0  0  0  0
  181.0020  179.1730  142.1920 C   0  0  0  0  0  0  0  0  0  0  0  0
  187.0650  178.5050  140.0610 C   0  0  0  0  0  0  0  0  0  0  0  0
  184.6620  178.2400  139.8500 N   0  0  0  0  0  0  0  0  0  0  0  0
  186.2270  177.7650  145.8180 C   0  0  0  0  0  3  0  0  0  0  0  0
  180.2730  177.4480  139.8070 C   0  0  0  0  0  2  0  0  0  0  0  0
  181.7960  176.1730  138.4330 C   0  0  0  0  0  2  0  0  0  0  0  0
  188.0270  177.1830  143.9690 Cl  0  0  0  0  0  0  0  0  0  0  0  0
  183.1540  178.8140  143.3250 C   0  0  0  0  0  0  0  0  0  0  0  0
  184.9910  178.3260  146.3990 C   0  0  0  0  0  3  0  0  0  0  0  0
  185.6280  178.7510  143.6240 C   0  0  2  0  0  3  0  0  0  0  0  0
  183.2930  178.6460  141.8720 C   0  0  0  0  0  0  0  0  0  0  0  0
  179.9820  179.7730  141.8980 O   0  0  0  0  0  0  0  0  0  0  0  0
  181.9860  178.7370  141.1510 C   0  0  1  0  0  3  0  0  0  0  0  0
  180.3340  176.3140  138.8100 C   0  0  0  0  0  2  0  0  0  0  0  0
  182.9010  179.1010  138.3260 C   0  0  0  0  0  1  0  0  0  0  0  0
  184.0260  178.8090  145.6140 C   0  0  0  0  0  3  0  0  0  0  0  0
  184.2080  178.8100  144.1520 C   0  0  0  0  0  0  0  0  0  0  0  0
  183.5650  177.8730  138.9430 C   0  0  2  0  0  3  0  0  0  0  0  0
  188.3390  178.5890  139.4860 O   0  0  0  0  0  0  0  0  0  0  0  0
  189.7490  176.7900  138.7680 C   0  0  0  0  0  1  0  0  0  0  0  0
  189.4160  177.7550  139.8860 C   0  0  0  0  0  2  0  0  0  0  0  0
  2 13  2  0  0  0  0
  4 20  2  0  0  0  0
  4  1  1  0  0  0  0
  5  1  2  0  0  0  0
  6  8  1  0  0  0  0
  7 15  1  6  0  0  0
  7  9  1  0  0  0  0
  8 12  1  0  0  0  0
  8 11  2  0  0  0  0
  9 14  1  6  0  0  0
  9 22  1  0  0  0  0
 10  3  1  0  0  0  0
 11  5  1  0  0  0  0
 12  4  1  0  0  0  0
 13 18  1  0  0  0  0
 15 23  1  0  0  0  0
 16  2  1  0  0  0  0
 17  3  1  0  0  0  0
 17 26  2  0  0  0  0
 19  1  1  6  0  0  0
 19 26  1  0  0  0  0
 19  2  1  0  0  0  0
 20 17  1  0  0  0  0
 21 10  2  0  0  0  0
 22 20  1  1  0  0  0
 22 10  1  0  0  0  0
 23 14  1  0  0  0  0
 25 18  2  0  0  0  0
 26 25  1  0  0  0  0
 27 24  1  1  0  0  0
 27  7  1  0  0  0  0
 27 12  1  0  0  0  0
 28 30  1  0  0  0  0
 28 11  1  0  0  0  0
 29 30  1  0  0  0  0
M  END
>  <MODEL>
1

>  <REMARK>
 VINA RESULT:      -9.2      0.000      0.000
  Name = 
  2 active torsions:
  status: ('A' for Active; 'I' for Inactive)
    1  A    between atoms: C_11  and  O_28
    2  A    between atoms: O_28  and  C_30
                            x       y       z     vdW  Elec       q    Type
                         _______ _______ _______ _____ _____    ______ ____

>  <TORSDO>
F 2

$$$$
=
 OpenBabel11122410283D

 30 35  0  0  1  0  0  0  0  0999 V2000
  184.6850  178.5670  141.3080 C   0  0  0  0  0  0  0  0  0  0  0  0
  185.9480  178.1990  143.5480 C   0  0  0  0  0  0  0  0  0  0  0  0
  180.8130  178.8750  143.8250 S   0  0  0  0  0  0  0  0  0  0  0  0
  183.3350  178.3450  140.7230 C   0  0  0  0  0  0  0  0  0  0  0  0
  185.7300  178.6510  140.4850 C   0  0  0  0  0  3  0  0  0  0  0  0
  184.3630  177.8390  137.0140 C   0  0  0  0  0  1  0  0  0  0  0  0
  181.2780  176.4530  139.5260 C   0  0  1  0  0  3  0  0  0  0  0  0
  184.4380  178.0960  138.4900 C   0  0  0  0  0  0  0  0  0  0  0  0
  180.4340  177.0460  140.6600 C   0  0  2  0  0  3  0  0  0  0  0  0
  180.0300  178.9540  142.2200 C   0  0  0  0  0  0  0  0  0  0  0  0
  185.6240  178.4120  139.0340 C   0  0  0  0  0  0  0  0  0  0  0  0
  183.2500  177.9950  139.3110 N   0  0  0  0  0  0  0  0  0  0  0  0
  185.9250  178.2060  144.8870 C   0  0  0  0  0  3  0  0  0  0  0  0
  178.9990  176.9620  140.1790 C   0  0  0  0  0  2  0  0  0  0  0  0
  180.3290  175.6420  138.6570 C   0  0  0  0  0  2  0  0  0  0  0  0
  187.3890  177.5420  142.7860 Cl  0  0  0  0  0  0  0  0  0  0  0  0
  182.3750  178.8290  142.9470 C   0  0  0  0  0  0  0  0  0  0  0  0
  184.7810  178.7540  145.6420 C   0  0  0  0  0  3  0  0  0  0  0  0
  184.8590  178.9330  142.7700 C   0  0  2  0  0  3  0  0  0  0  0  0
  182.2540  178.5250  141.5150 C   0  0  0  0  0  0  0  0  0  0  0  0
  178.9310  179.4640  142.0750 O   0  0  0  0  0  0  0  0  0  0  0  0
  180.8320  178.4720  141.0520 C   0  0  1  0  0  3  0  0  0  0  0  0
  178.9560  175.7390  139.2930 C   0  0  0  0  0  2  0  0  0  0  0  0
  181.1790  178.6020  138.0830 C   0  0  0  0  0  1  0  0  0  0  0  0
  183.6550  179.1020  145.0180 C   0  0  0  0  0  3  0  0  0  0  0  0
  183.5620  178.9660  143.5540 C   0  0  0  0  0  0  0  0  0  0  0  0
  182.0330  177.4800  138.6670 C   0  0  2  0  0  3  0  0  0  0  0  0
  186.7590  178.5080  138.2200 O   0  0  0  0  0  0  0  0  0  0  0  0
  189.1040  178.7400  137.7810 C   0  0  0  0  0  1  0  0  0  0  0  0
  188.0470  178.0920  138.6510 C   0  0  0  0  0  2  0  0  0  0  0  0
  2 13  2  0  0  0  0
  4  1  1  0  0  0  0
  4 20  2  0  0  0  0
  5  1  2  0  0  0  0
  6  8  1  0  0  0  0
  7 15  1  6  0  0  0
  7  9  1  0  0  0  0
  8 11  2  0  0  0  0
  8 12  1  0  0  0  0
  9 14  1  6  0  0  0
  9 22  1  0  0  0  0
 10  3  1  0  0  0  0
 11  5  1  0  0  0  0
 12  4  1  0  0  0  0
 13 18  1  0  0  0  0
 15 23  1  0  0  0  0
 16  2  1  0  0  0  0
 17 26  2  0  0  0  0
 17  3  1  0  0  0  0
 19  1  1  6  0  0  0
 19  2  1  0  0  0  0
 19 26  1  0  0  0  0
 20 17  1  0  0  0  0
 21 10  2  0  0  0  0
 22 20  1  1  0  0  0
 22 10  1  0  0  0  0
 23 14  1  0  0  0  0
 25 18  2  0  0  0  0
 26 25  1  0  0  0  0
 27 24  1  1  0  0  0
 27 12  1  0  0  0  0
 27  7  1  0  0  0  0
 28 30  1  0  0  0  0
 28 11  1  0  0  0  0
 29 30  1  0  0  0  0
M  END
>  <MODEL>
2

>  <REMARK>
 VINA RESULT:      -8.4      1.237      1.431
  Name = 
  2 active torsions:
  status: ('A' for Active; 'I' for Inactive)
    1  A    between atoms: C_11  and  O_28
    2  A    between atoms: O_28  and  C_30
                            x       y       z     vdW  Elec       q    Type
                         _______ _______ _______ _____ _____    ______ ____

>  <TORSDO>
F 2

$$$$
=
 OpenBabel11122410283D

 30 35  0  0  1  0  0  0  0  0999 V2000
  187.9350  177.9580  140.9400 C   0  0  0  0  0  0  0  0  0  0  0  0
  187.7010  177.2780  143.4360 C   0  0  0  0  0  0  0  0  0  0  0  0
  183.4420  179.0610  141.0720 S   0  0  0  0  0  0  0  0  0  0  0  0
  187.1010  178.0490  139.7120 C   0  0  0  0  0  0  0  0  0  0  0  0
  189.2550  177.8260  140.8060 C   0  0  0  0  0  3  0  0  0  0  0  0
  189.8620  177.4000  137.0610 C   0  0  0  0  0  1  0  0  0  0  0  0
  185.7230  176.6780  137.3730 C   0  0  1  0  0  3  0  0  0  0  0  0
  189.1720  177.6060  138.3770 C   0  0  0  0  0  0  0  0  0  0  0  0
  184.5200  177.4200  137.9650 C   0  0  2  0  0  3  0  0  0  0  0  0
  183.6780  179.3410  139.3230 C   0  0  0  0  0  0  0  0  0  0  0  0
  189.9100  177.6440  139.4970 C   0  0  0  0  0  0  0  0  0  0  0  0
  187.7330  177.7530  138.4320 N   0  0  0  0  0  0  0  0  0  0  0  0
  186.9600  177.2650  144.5520 C   0  0  0  0  0  3  0  0  0  0  0  0
  183.5840  177.6630  136.7980 C   0  0  0  0  0  2  0  0  0  0  0  0
  185.2700  176.1120  136.0360 C   0  0  0  0  0  2  0  0  0  0  0  0
  189.1840  176.3360  143.4610 Cl  0  0  0  0  0  0  0  0  0  0  0  0
  185.1940  178.6900  141.1450 C   0  0  0  0  0  0  0  0  0  0  0  0
  185.7060  178.0360  144.6620 C   0  0  0  0  0  3  0  0  0  0  0  0
  187.3530  178.2490  142.3100 C   0  0  2  0  0  3  0  0  0  0  0  0
  185.8150  178.4470  139.8350 C   0  0  0  0  0  0  0  0  0  0  0  0
  182.9420  180.0830  138.6940 O   0  0  0  0  0  0  0  0  0  0  0  0
  184.8850  178.7160  138.6950 C   0  0  1  0  0  3  0  0  0  0  0  0
  183.8140  176.4970  135.8650 C   0  0  0  0  0  2  0  0  0  0  0  0
  186.7970  178.8230  136.3950 C   0  0  0  0  0  1  0  0  0  0  0  0
  185.1770  178.6350  143.5940 C   0  0  0  0  0  3  0  0  0  0  0  0
  185.8680  178.5510  142.2950 C   0  0  0  0  0  0  0  0  0  0  0  0
  186.9890  177.5300  137.1830 C   0  0  2  0  0  3  0  0  0  0  0  0
  191.3010  177.5030  139.4200 O   0  0  0  0  0  0  0  0  0  0  0  0
  193.5510  177.1480  140.1620 C   0  0  0  0  0  1  0  0  0  0  0  0
  192.1330  177.4870  140.5700 C   0  0  0  0  0  2  0  0  0  0  0  0
  2 16  1  0  0  0  0
  2 13  2  0  0  0  0
  3 17  1  0  0  0  0
  4 20  2  0  0  0  0
  4  1  1  0  0  0  0
  5  1  2  0  0  0  0
  6  8  1  0  0  0  0
  7 15  1  6  0  0  0
  7  9  1  0  0  0  0
  8 12  1  0  0  0  0
  8 11  2  0  0  0  0
  9 14  1  6  0  0  0
  9 22  1  0  0  0  0
 10  3  1  0  0  0  0
 11  5  1  0  0  0  0
 12  4  1  0  0  0  0
 13 18  1  0  0  0  0
 17 26  2  0  0  0  0
 19  1  1  6  0  0  0
 19  2  1  0  0  0  0
 20 17  1  0  0  0  0
 21 10  2  0  0  0  0
 22 10  1  1  0  0  0
 22 20  1  0  0  0  0
 23 15  1  0  0  0  0
 23 14  1  0  0  0  0
 25 18  2  0  0  0  0
 26 19  1  0  0  0  0
 26 25  1  0  0  0  0
 27 24  1  1  0  0  0
 27  7  1  0  0  0  0
 27 12  1  0  0  0  0
 28 11  1  0  0  0  0
 28 30  1  0  0  0  0
 29 30  1  0  0  0  0
M  END
>  <MODEL>
3

>  <REMARK>
 VINA RESULT:      -7.7      2.325      3.341
  Name = 
  2 active torsions:
  status: ('A' for Active; 'I' for Inactive)
    1  A    between atoms: C_11  and  O_28
    2  A    between atoms: O_28  and  C_30
                            x       y       z     vdW  Elec       q    Type
                         _______ _______ _______ _____ _____    ______ ____

>  <TORSDO>
F 2

$$$$
=
 OpenBabel11122410283D

 30 35  0  0  1  0  0  0  0  0999 V2000
  188.3300  178.0890  141.3930 C   0  0  0  0  0  0  0  0  0  0  0  0
  186.2920  178.1030  143.0040 C   0  0  0  0  0  0  0  0  0  0  0  0
  185.2730  178.2520  137.9210 S   0  0  0  0  0  0  0  0  0  0  0  0
  188.6720  177.6620  140.0090 C   0  0  0  0  0  0  0  0  0  0  0  0
  189.3120  178.1950  142.2890 C   0  0  0  0  0  3  0  0  0  0  0  0
  192.4350  176.8700  140.5390 C   0  0  0  0  0  1  0  0  0  0  0  0
  189.3540  175.4420  138.0470 C   0  0  1  0  0  3  0  0  0  0  0  0
  191.0190  177.2920  140.7970 C   0  0  0  0  0  0  0  0  0  0  0  0
  188.1600  176.0600  137.3110 C   0  0  2  0  0  3  0  0  0  0  0  0
  186.7350  178.0720  136.9080 C   0  0  0  0  0  0  0  0  0  0  0  0
  190.7000  177.7900  142.0020 C   0  0  0  0  0  0  0  0  0  0  0  0
  190.0160  177.1540  139.7630 N   0  0  0  0  0  0  0  0  0  0  0  0
  184.9730  178.2530  143.1760 C   0  0  0  0  0  3  0  0  0  0  0  0
  188.3990  175.7720  135.8420 C   0  0  0  0  0  2  0  0  0  0  0  0
  189.9860  174.4450  137.0880 C   0  0  0  0  0  2  0  0  0  0  0  0
  187.2090  177.5260  144.3880 Cl  0  0  0  0  0  0  0  0  0  0  0  0
  186.3780  178.2790  139.3320 C   0  0  0  0  0  0  0  0  0  0  0  0
  184.1000  178.7530  142.0960 C   0  0  0  0  0  3  0  0  0  0  0  0
  186.9530  178.6280  141.7320 C   0  0  0  0  0  0  0  0  0  0  0  0
  187.7400  177.8090  139.0410 C   0  0  0  0  0  0  0  0  0  0  0  0
  186.7510  178.4430  135.7460 O   0  0  0  0  0  0  0  0  0  0  0  0
  187.9670  177.5540  137.5840 C   0  0  1  0  0  3  0  0  0  0  0  0
  189.1540  174.4630  135.8210 C   0  0  0  0  0  2  0  0  0  0  0  0
  190.9530  177.3990  137.4760 C   0  0  0  0  0  1  0  0  0  0  0  0
  184.5680  178.9090  140.8570 C   0  0  0  0  0  2  0  0  0  0  0  0
  185.9810  178.6060  140.5690 C   0  0  0  0  0  0  0  0  0  0  0  0
  190.4110  176.4450  138.5370 C   0  0  2  0  0  3  0  0  0  0  0  0
  191.6870  177.9190  142.9860 O   0  0  0  0  0  0  0  0  0  0  0  0
  191.3070  176.9090  145.1250 C   0  0  0  0  0  1  0  0  0  0  0  0
  191.3830  178.2030  144.3430 C   0  0  0  0  0  2  0  0  0  0  0  0
  1 19  1  0  0  0  0
  1  5  2  0  0  0  0
  2 13  1  0  0  0  0
  2 16  1  0  0  0  0
  3 17  1  0  0  0  0
  4  1  1  0  0  0  0
  6  8  1  0  0  0  0
  7 15  1  6  0  0  0
  7 27  1  0  0  0  0
  8 11  2  0  0  0  0
  9 14  1  6  0  0  0
  9 22  1  0  0  0  0
  9  7  1  0  0  0  0
 10  3  1  0  0  0  0
 11  5  1  0  0  0  0
 11 28  1  0  0  0  0
 12  4  1  0  0  0  0
 12  8  1  0  0  0  0
 17 26  2  0  0  0  0
 18 13  2  0  0  0  0
 19  2  2  0  0  0  0
 20 17  1  0  0  0  0
 20  4  2  0  0  0  0
 21 10  2  0  0  0  0
 22 10  1  6  0  0  0
 22 20  1  0  0  0  0
 23 14  1  0  0  0  0
 23 15  1  0  0  0  0
 25 18  1  0  0  0  0
 26 25  1  0  0  0  0
 26 19  1  0  0  0  0
 27 24  1  6  0  0  0
 27 12  1  0  0  0  0
 28 30  1  0  0  0  0
 30 29  1  0  0  0  0
M  END
>  <MODEL>
4

>  <REMARK>
 VINA RESULT:      -7.4      3.389      6.048
  Name = 
  2 active torsions:
  status: ('A' for Active; 'I' for Inactive)
    1  A    between atoms: C_11  and  O_28
    2  A    between atoms: O_28  and  C_30
                            x       y       z     vdW  Elec       q    Type
                         _______ _______ _______ _____ _____    ______ ____

>  <TORSDO>
F 2

$$$$
=
 OpenBabel11122410283D

 30 35  0  0  1  0  0  0  0  0999 V2000
  188.8170  177.5350  140.3500 C   0  0  0  0  0  0  0  0  0  0  0  0
  188.9620  176.7760  142.8300 C   0  0  0  0  0  0  0  0  0  0  0  0
  184.5130  178.9520  141.2890 S   0  0  0  0  0  0  0  0  0  0  0  0
  187.7950  177.7330  139.2870 C   0  0  0  0  0  0  0  0  0  0  0  0
  190.0810  177.3130  139.9850 C   0  0  0  0  0  3  0  0  0  0  0  0
  190.0020  176.9930  136.1820 C   0  0  0  0  0  1  0  0  0  0  0  0
  185.9350  176.5590  137.1890 C   0  0  1  0  0  3  0  0  0  0  0  0
  189.5650  177.1960  137.6020 C   0  0  0  0  0  0  0  0  0  0  0  0
  184.9120  177.3610  138.0000 C   0  0  2  0  0  3  0  0  0  0  0  0
  184.4660  179.2830  139.5330 C   0  0  0  0  0  0  0  0  0  0  0  0
  190.4850  177.1370  138.5780 C   0  0  0  0  0  0  0  0  0  0  0  0
  188.1730  177.4440  137.9100 N   0  0  0  0  0  0  0  0  0  0  0  0
  188.4240  176.7720  144.0570 C   0  0  0  0  0  3  0  0  0  0  0  0
  183.8110  177.7170  137.0200 C   0  0  0  0  0  2  0  0  0  0  0  0
  185.2170  176.0800  135.9360 C   0  0  0  0  0  2  0  0  0  0  0  0
  190.3490  175.7290  142.5720 Cl  0  0  0  0  0  0  0  0  0  0  0  0
  186.2170  178.4530  141.0470 C   0  0  0  0  0  0  0  0  0  0  0  0
  187.2710  177.6260  144.4030 C   0  0  0  0  0  3  0  0  0  0  0  0
  188.5030  177.8120  141.8070 C   0  0  2  0  0  3  0  0  0  0  0  0
  186.5830  178.2180  139.6430 C   0  0  0  0  0  0  0  0  0  0  0  0
  183.6930  180.1000  139.0620 O   0  0  0  0  0  0  0  0  0  0  0  0
  185.4960  178.5980  138.6890 C   0  0  1  0  0  3  0  0  0  0  0  0
  183.7870  176.5740  136.0310 C   0  0  0  0  0  2  0  0  0  0  0  0
  186.9880  178.6580  136.0960 C   0  0  0  0  0  1  0  0  0  0  0  0
  186.6150  178.3030  143.4590 C   0  0  0  0  0  3  0  0  0  0  0  0
  187.0640  178.2210  142.0580 C   0  0  0  0  0  0  0  0  0  0  0  0
  187.2110  177.3250  136.8040 C   0  0  2  0  0  3  0  0  0  0  0  0
  191.8270  176.9000  138.2570 O   0  0  0  0  0  0  0  0  0  0  0  0
  193.8710  175.8860  138.9890 C   0  0  0  0  0  1  0  0  0  0  0  0
  192.8730  177.0020  139.2120 C   0  0  0  0  0  2  0  0  0  0  0  0
  2 13  2  0  0  0  0
  4 20  2  0  0  0  0
  4  1  1  0  0  0  0
  5  1  2  0  0  0  0
  6  8  1  0  0  0  0
  7 15  1  6  0  0  0
  7  9  1  0  0  0  0
  8 12  1  0  0  0  0
  8 11  2  0  0  0  0
  9 14  1  6  0  0  0
  9 22  1  0  0  0  0
 10  3  1  0  0  0  0
 11  5  1  0  0  0  0
 12  4  1  0  0  0  0
 13 18  1  0  0  0  0
 15 23  1  0  0  0  0
 16  2  1  0  0  0  0
 17  3  1  0  0  0  0
 17 26  2  0  0  0  0
 19  1  1  6  0  0  0
 19 26  1  0  0  0  0
 19  2  1  0  0  0  0
 20 17  1  0  0  0  0
 21 10  2  0  0  0  0
 22 10  1  1  0  0  0
 22 20  1  0  0  0  0
 23 14  1  0  0  0  0
 25 18  2  0  0  0  0
 26 25  1  0  0  0  0
 27 24  1  1  0  0  0
 27  7  1  0  0  0  0
 27 12  1  0  0  0  0
 28 11  1  0  0  0  0
 28 30  1  0  0  0  0
 29 30  1  0  0  0  0
M  END
>  <MODEL>
5

>  <REMARK>
 VINA RESULT:      -7.1      2.850      3.967
  Name = 
  2 active torsions:
  status: ('A' for Active; 'I' for Inactive)
    1  A    between atoms: C_11  and  O_28
    2  A    between atoms: O_28  and  C_30
                            x       y       z     vdW  Elec       q    Type
                         _______ _______ _______ _____ _____    ______ ____

>  <TORSDO>
F 2

$$$$
=
 OpenBabel11122410283D

 30 35  0  0  1  0  0  0  0  0999 V2000
  187.2630  177.7040  138.3840 C   0  0  0  0  0  0  0  0  0  0  0  0
  186.9010  176.2740  136.2450 C   0  0  0  0  0  0  0  0  0  0  0  0
  191.6870  176.3500  138.2440 S   0  0  0  0  0  0  0  0  0  0  0  0
  188.1450  177.7410  139.5810 C   0  0  0  0  0  0  0  0  0  0  0  0
  186.0660  178.2870  138.4560 C   0  0  0  0  0  3  0  0  0  0  0  0
  185.6810  179.3780  142.0940 C   0  0  0  0  0  1  0  0  0  0  0  0
  188.8880  176.6560  142.3230 C   0  0  1  0  0  3  0  0  0  0  0  0
  186.2580  178.8050  140.8330 C   0  0  0  0  0  0  0  0  0  0  0  0
  190.2390  176.4880  141.6200 C   0  0  2  0  0  3  0  0  0  0  0  0
  191.7820  177.2270  139.7990 C   0  0  0  0  0  0  0  0  0  0  0  0
  185.5310  178.8590  139.7060 C   0  0  0  0  0  0  0  0  0  0  0  0
  187.5730  178.2000  140.8400 N   0  0  0  0  0  0  0  0  0  0  0  0
  187.4330  175.5590  135.2450 C   0  0  0  0  0  3  0  0  0  0  0  0
  191.2790  176.5800  142.7190 C   0  0  0  0  0  2  0  0  0  0  0  0
  189.1290  176.3780  143.7990 C   0  0  0  0  0  2  0  0  0  0  0  0
  185.1520  176.2290  136.4060 Cl  0  0  0  0  0  0  0  0  0  0  0  0
  189.9790  176.8880  138.1630 C   0  0  0  0  0  0  0  0  0  0  0  0
  188.8880  175.5370  134.9940 C   0  0  0  0  0  3  0  0  0  0  0  0
  187.7820  177.2370  137.0370 C   0  0  0  0  0  0  0  0  0  0  0  0
  189.4440  177.3940  139.4340 C   0  0  0  0  0  0  0  0  0  0  0  0
  192.8420  177.6600  140.2190 O   0  0  0  0  0  0  0  0  0  0  0  0
  190.4880  177.5030  140.5000 C   0  0  1  0  0  3  0  0  0  0  0  0
  190.5960  176.0260  143.9470 C   0  0  0  0  0  2  0  0  0  0  0  0
  189.0970  179.2310  142.5070 C   0  0  0  0  0  1  0  0  0  0  0  0
  189.7390  176.0900  135.8590 C   0  0  0  0  0  2  0  0  0  0  0  0
  189.2200  176.7570  137.0660 C   0  0  0  0  0  0  0  0  0  0  0  0
  188.2250  178.0320  142.1470 C   0  0  2  0  0  3  0  0  0  0  0  0
  184.2640  179.4530  139.7210 O   0  0  0  0  0  0  0  0  0  0  0  0
  182.8280  177.5930  140.1930 C   0  0  0  0  0  1  0  0  0  0  0  0
  183.0950  178.7750  139.2850 C   0  0  0  0  0  2  0  0  0  0  0  0
  1  5  2  0  0  0  0
  1  4  1  0  0  0  0
  2 16  1  0  0  0  0
  2 19  2  0  0  0  0
  3 10  1  0  0  0  0
  4 12  1  0  0  0  0
  5 11  1  0  0  0  0
  7 15  1  1  0  0  0
  8 12  1  0  0  0  0
  8  6  1  0  0  0  0
  9  7  1  0  0  0  0
  9 14  1  1  0  0  0
 10 21  2  0  0  0  0
 10 22  1  0  0  0  0
 11 28  1  0  0  0  0
 11  8  2  0  0  0  0
 12 27  1  0  0  0  0
 13  2  1  0  0  0  0
 14 23  1  0  0  0  0
 15 23  1  0  0  0  0
 17  3  1  0  0  0  0
 17 20  1  0  0  0  0
 18 13  2  0  0  0  0
 18 25  1  0  0  0  0
 19 26  1  0  0  0  0
 19  1  1  0  0  0  0
 20  4  2  0  0  0  0
 22 20  1  6  0  0  0
 22  9  1  0  0  0  0
 25 26  1  0  0  0  0
 26 17  2  0  0  0  0
 27  7  1  0  0  0  0
 27 24  1  6  0  0  0
 30 28  1  0  0  0  0
 30 29  1  0  0  0  0
M  END
>  <MODEL>
6

>  <REMARK>
 VINA RESULT:      -6.8      3.619      8.279
  Name = 
  2 active torsions:
  status: ('A' for Active; 'I' for Inactive)
    1  A    between atoms: C_11  and  O_28
    2  A    between atoms: O_28  and  C_30
                            x       y       z     vdW  Elec       q    Type
                         _______ _______ _______ _____ _____    ______ ____

>  <TORSDO>
F 2

$$$$
=
 OpenBabel11122410283D

 30 35  0  0  1  0  0  0  0  0999 V2000
  188.1040  177.5580  139.1110 C   0  0  0  0  0  0  0  0  0  0  0  0
  189.4920  175.9590  137.6060 C   0  0  0  0  0  0  0  0  0  0  0  0
  191.6810  177.5030  142.0480 S   0  0  0  0  0  0  0  0  0  0  0  0
  187.9600  177.9150  140.5480 C   0  0  0  0  0  0  0  0  0  0  0  0
  187.0760  177.7830  138.2920 C   0  0  0  0  0  3  0  0  0  0  0  0
  184.2160  178.9380  140.5410 C   0  0  0  0  0  1  0  0  0  0  0  0
  186.8970  177.2510  143.3180 C   0  0  1  0  0  3  0  0  0  0  0  0
  185.5660  178.4770  140.0800 C   0  0  0  0  0  0  0  0  0  0  0  0
  188.3790  177.4300  143.6620 C   0  0  2  0  0  3  0  0  0  0  0  0
  190.5770  178.4630  143.0750 C   0  0  0  0  0  0  0  0  0  0  0  0
  185.7630  178.2550  138.7710 C   0  0  0  0  0  0  0  0  0  0  0  0
  186.6330  178.2690  141.0360 N   0  0  0  0  0  0  0  0  0  0  0  0
  190.6640  175.3640  137.3460 C   0  0  0  0  0  3  0  0  0  0  0  0
  188.4060  177.8780  145.1100 C   0  0  0  0  0  2  0  0  0  0  0  0
  186.1540  177.1420  144.6410 C   0  0  0  0  0  2  0  0  0  0  0  0
  188.1100  175.4310  136.6570 Cl  0  0  0  0  0  0  0  0  0  0  0  0
  190.3860  177.5310  140.8080 C   0  0  0  0  0  0  0  0  0  0  0  0
  191.9000  175.7380  138.0610 C   0  0  0  0  0  3  0  0  0  0  0  0
  189.4500  177.1770  138.5250 C   0  0  2  0  0  3  0  0  0  0  0  0
  189.0710  177.9410  141.3190 C   0  0  0  0  0  0  0  0  0  0  0  0
  191.0040  179.2020  143.9460 O   0  0  0  0  0  0  0  0  0  0  0  0
  189.1190  178.4040  142.7400 C   0  0  1  0  0  3  0  0  0  0  0  0
  187.1950  177.2280  145.7400 C   0  0  0  0  0  2  0  0  0  0  0  0
  186.4780  179.7870  142.9950 C   0  0  0  0  0  1  0  0  0  0  0  0
  191.8610  176.5600  139.1110 C   0  0  0  0  0  3  0  0  0  0  0  0
  190.5710  177.1250  139.5450 C   0  0  0  0  0  0  0  0  0  0  0  0
  186.2840  178.3710  142.4600 C   0  0  2  0  0  3  0  0  0  0  0  0
  184.7190  178.4670  137.8630 O   0  0  0  0  0  0  0  0  0  0  0  0
  183.6470  176.3260  137.7600 C   0  0  0  0  0  1  0  0  0  0  0  0
  184.2640  177.4610  136.9700 C   0  0  0  0  0  2  0  0  0  0  0  0
  1  4  1  0  0  0  0
  3 10  1  0  0  0  0
  4 12  1  0  0  0  0
  4 20  2  0  0  0  0
  5 11  1  0  0  0  0
  5  1  2  0  0  0  0
  7  9  1  0  0  0  0
  7 15  1  1  0  0  0
  8  6  1  0  0  0  0
  8 12  1  0  0  0  0
  9 14  1  1  0  0  0
 10 21  2  0  0  0  0
 11  8  2  0  0  0  0
 12 27  1  0  0  0  0
 13  2  2  0  0  0  0
 13 18  1  0  0  0  0
 14 23  1  0  0  0  0
 15 23  1  0  0  0  0
 16  2  1  0  0  0  0
 17 20  1  0  0  0  0
 17  3  1  0  0  0  0
 18 25  2  0  0  0  0
 19  2  1  1  0  0  0
 19  1  1  0  0  0  0
 19 26  1  0  0  0  0
 22 20  1  6  0  0  0
 22 10  1  0  0  0  0
 22  9  1  0  0  0  0
 25 26  1  0  0  0  0
 26 17  2  0  0  0  0
 27 24  1  1  0  0  0
 27  7  1  0  0  0  0
 28 11  1  0  0  0  0
 30 29  1  0  0  0  0
 30 28  1  0  0  0  0
M  END
>  <MODEL>
7

>  <REMARK>
 VINA RESULT:      -6.7      3.402      7.244
  Name = 
  2 active torsions:
  status: ('A' for Active; 'I' for Inactive)
    1  A    between atoms: C_11  and  O_28
    2  A    between atoms: O_28  and  C_30
                            x       y       z     vdW  Elec       q    Type
                         _______ _______ _______ _____ _____    ______ ____

>  <TORSDO>
F 2

$$$$
=
 OpenBabel11122410283D

 30 35  0  0  1  0  0  0  0  0999 V2000
  184.4760  178.2910  139.9160 C   0  0  0  0  0  0  0  0  0  0  0  0
  184.7090  178.6130  142.4830 C   0  0  0  0  0  0  0  0  0  0  0  0
  179.9790  177.5030  140.6700 S   0  0  0  0  0  0  0  0  0  0  0  0
  183.6220  177.5580  138.9430 C   0  0  0  0  0  0  0  0  0  0  0  0
  185.7070  178.6450  139.5430 C   0  0  0  0  0  3  0  0  0  0  0  0
  186.2290  177.0580  136.1110 C   0  0  0  0  0  1  0  0  0  0  0  0
  182.8730  174.9600  137.5520 C   0  0  1  0  0  3  0  0  0  0  0  0
  185.5940  177.4760  137.4040 C   0  0  0  0  0  0  0  0  0  0  0  0
  181.5000  175.3390  138.1180 C   0  0  2  0  0  3  0  0  0  0  0  0
  179.9660  177.1410  138.9200 C   0  0  0  0  0  0  0  0  0  0  0  0
  186.2990  178.2360  138.2560 C   0  0  0  0  0  0  0  0  0  0  0  0
  184.2460  177.0570  137.7250 N   0  0  0  0  0  0  0  0  0  0  0  0
  184.1160  178.7500  143.6760 C   0  0  0  0  0  3  0  0  0  0  0  0
  180.4900  174.7170  137.1740 C   0  0  0  0  0  2  0  0  0  0  0  0
  182.6460  173.7870  136.6110 C   0  0  0  0  0  2  0  0  0  0  0  0
  186.4560  178.4190  142.4860 Cl  0  0  0  0  0  0  0  0  0  0  0  0
  181.7130  177.9080  140.4700 C   0  0  0  0  0  0  0  0  0  0  0  0
  182.6580  178.9440  143.8010 C   0  0  0  0  0  3  0  0  0  0  0  0
  183.9030  178.8430  141.2070 C   0  0  2  0  0  3  0  0  0  0  0  0
  182.3020  177.4340  139.2110 C   0  0  0  0  0  0  0  0  0  0  0  0
  178.9420  177.2230  138.2620 O   0  0  0  0  0  0  0  0  0  0  0  0
  181.2880  176.8470  138.2810 C   0  0  1  0  0  3  0  0  0  0  0  0
  181.1640  173.4700  136.6510 C   0  0  0  0  0  2  0  0  0  0  0  0
  182.8200  176.7820  135.7110 C   0  0  0  0  0  1  0  0  0  0  0  0
  181.8590  178.8160  142.7410 C   0  0  0  0  0  3  0  0  0  0  0  0
  182.4400  178.5070  141.4230 C   0  0  0  0  0  0  0  0  0  0  0  0
  183.6120  176.0900  136.8170 C   0  0  2  0  0  3  0  0  0  0  0  0
  187.6000  178.6330  137.9240 O   0  0  0  0  0  0  0  0  0  0  0  0
  189.2950  178.1340  139.5420 C   0  0  0  0  0  1  0  0  0  0  0  0
  188.7360  177.8190  138.1710 C   0  0  0  0  0  2  0  0  0  0  0  0
  2 16  1  0  0  0  0
  2 13  2  0  0  0  0
  4 20  2  0  0  0  0
  4  1  1  0  0  0  0
  5  1  2  0  0  0  0
  6  8  1  0  0  0  0
  7 15  1  6  0  0  0
  7  9  1  0  0  0  0
  8 12  1  0  0  0  0
  8 11  2  0  0  0  0
  9 14  1  6  0  0  0
  9 22  1  0  0  0  0
 10  3  1  0  0  0  0
 11  5  1  0  0  0  0
 12  4  1  0  0  0  0
 13 18  1  0  0  0  0
 15 23  1  0  0  0  0
 17  3  1  0  0  0  0
 17 26  2  0  0  0  0
 19  1  1  6  0  0  0
 19 26  1  0  0  0  0
 19  2  1  0  0  0  0
 20 17  1  0  0  0  0
 21 10  2  0  0  0  0
 22 10  1  1  0  0  0
 22 20  1  0  0  0  0
 23 14  1  0  0  0  0
 25 18  2  0  0  0  0
 26 25  1  0  0  0  0
 27 24  1  1  0  0  0
 27  7  1  0  0  0  0
 27 12  1  0  0  0  0
 28 30  1  0  0  0  0
 28 11  1  0  0  0  0
 30 29  1  0  0  0  0
M  END
>  <MODEL>
8

>  <REMARK>
 VINA RESULT:      -6.5      1.934      3.027
  Name = 
  2 active torsions:
  status: ('A' for Active; 'I' for Inactive)
    1  A    between atoms: C_11  and  O_28
    2  A    between atoms: O_28  and  C_30
                            x       y       z     vdW  Elec       q    Type
                         _______ _______ _______ _____ _____    ______ ____

>  <TORSDO>
F 2

$$$$
=
 OpenBabel11122410283D

 30 35  0  0  1  0  0  0  0  0999 V2000
  186.4810  177.9580  138.5910 C   0  0  0  0  0  0  0  0  0  0  0  0
  188.3550  178.1370  136.8000 C   0  0  0  0  0  0  0  0  0  0  0  0
  183.6330  176.7780  135.1390 S   0  0  0  0  0  0  0  0  0  0  0  0
  185.0030  178.0940  138.6960 C   0  0  0  0  0  0  0  0  0  0  0  0
  187.2170  178.1350  139.6880 C   0  0  0  0  0  3  0  0  0  0  0  0
  184.7700  179.2880  142.3820 C   0  0  0  0  0  1  0  0  0  0  0  0
  182.5410  179.8690  138.8550 C   0  0  1  0  0  3  0  0  0  0  0  0
  185.3250  178.8200  141.0690 C   0  0  0  0  0  0  0  0  0  0  0  0
  182.1430  179.0070  137.6520 C   0  0  2  0  0  3  0  0  0  0  0  0
  182.3920  176.8470  136.4230 C   0  0  0  0  0  0  0  0  0  0  0  0
  186.6420  178.5780  140.9720 C   0  0  0  0  0  0  0  0  0  0  0  0
  184.4520  178.6410  139.9290 N   0  0  0  0  0  0  0  0  0  0  0  0
  188.7560  177.9210  135.5400 C   0  0  0  0  0  3  0  0  0  0  0  0
  180.6270  178.9800  137.6600 C   0  0  0  0  0  2  0  0  0  0  0  0
  181.3090  180.6760  139.2370 C   0  0  0  0  0  2  0  0  0  0  0  0
  189.4290  179.0800  137.8210 Cl  0  0  0  0  0  0  0  0  0  0  0  0
  184.8310  177.1560  136.4170 C   0  0  0  0  0  0  0  0  0  0  0  0
  187.9500  177.1230  134.5940 C   0  0  0  0  0  3  0  0  0  0  0  0
  187.1330  177.3980  137.3410 C   0  0  0  0  0  0  0  0  0  0  0  0
  184.2420  177.6580  137.6660 C   0  0  0  0  0  0  0  0  0  0  0  0
  181.3440  176.2290  136.3270 O   0  0  0  0  0  0  0  0  0  0  0  0
  182.7480  177.6010  137.6670 C   0  0  1  0  0  3  0  0  0  0  0  0
  180.2170  180.3090  138.2520 C   0  0  0  0  0  2  0  0  0  0  0  0
  182.1500  177.9720  140.5750 C   0  0  0  0  0  1  0  0  0  0  0  0
  186.7140  176.7350  134.9090 C   0  0  0  0  0  2  0  0  0  0  0  0
  186.1550  177.0800  136.2270 C   0  0  0  0  0  0  0  0  0  0  0  0
  183.0600  179.0910  140.0750 C   0  0  2  0  0  3  0  0  0  0  0  0
  187.4670  178.7520  142.0890 O   0  0  0  0  0  0  0  0  0  0  0  0
  187.8820  176.6750  143.2090 C   0  0  0  0  0  1  0  0  0  0  0  0
  188.4880  177.8290  142.4390 C   0  0  0  0  0  2  0  0  0  0  0  0
  1  4  1  0  0  0  0
  1  5  2  0  0  0  0
  2 19  2  0  0  0  0
  2 16  1  0  0  0  0
  3 17  1  0  0  0  0
  3 10  1  0  0  0  0
  4 12  1  0  0  0  0
  5 11  1  0  0  0  0
  7 15  1  1  0  0  0
  7 27  1  0  0  0  0
  8  6  1  0  0  0  0
  9 14  1  1  0  0  0
  9 22  1  0  0  0  0
  9  7  1  0  0  0  0
 11  8  2  0  0  0  0
 11 28  1  0  0  0  0
 12 27  1  0  0  0  0
 12  8  1  0  0  0  0
 13  2  1  0  0  0  0
 14 23  1  0  0  0  0
 17 20  1  0  0  0  0
 18 25  1  0  0  0  0
 18 13  2  0  0  0  0
 19  1  1  0  0  0  0
 20 22  1  0  0  0  0
 20  4  2  0  0  0  0
 21 10  2  0  0  0  0
 22 10  1  6  0  0  0
 23 15  1  0  0  0  0
 25 26  1  0  0  0  0
 26 17  2  0  0  0  0
 26 19  1  0  0  0  0
 27 24  1  6  0  0  0
 28 30  1  0  0  0  0
 30 29  1  0  0  0  0
M  END
>  <MODEL>
9

>  <REMARK>
 VINA RESULT:      -6.2      3.086      5.869
  Name = 
  2 active torsions:
  status: ('A' for Active; 'I' for Inactive)
    1  A    between atoms: C_11  and  O_28
    2  A    between atoms: O_28  and  C_30
                            x       y       z     vdW  Elec       q    Type
                         _______ _______ _______ _____ _____    ______ ____

>  <TORSDO>
F 2

$$$$
