=
 OpenBabel11122411443D

 37 42  0  0  1  0  0  0  0  0999 V2000
  190.6280  176.3210  138.0910 C   0  0  0  0  0  0  0  0  0  0  0  0
  187.3330  178.0960  137.3010 C   0  0  1  0  0  3  0  0  0  0  0  0
  185.3730  179.3780  139.5900 O   0  0  0  0  0  0  0  0  0  0  0  0
  189.7120  177.8130  136.3730 N   0  0  2  0  0  0  0  0  0  0  0  0
  186.9160  177.7210  138.7230 C   0  0  2  0  0  3  0  0  0  0  0  0
  188.8430  178.3890  137.4160 C   0  0  2  0  0  3  0  0  0  0  0  0
  185.4610  178.0700  139.0920 C   0  0  2  0  0  3  0  0  0  0  0  0
  189.0500  177.8760  135.0700 C   0  0  0  0  0  2  0  0  0  0  0  0
  189.2760  178.0450  138.8480 C   0  0  2  0  0  3  0  0  0  0  0  0
  191.7440  177.1250  138.2800 F   0  0  0  0  0  0  0  0  0  0  0  0
  185.5620  176.9890  135.9870 N   0  0  0  0  0  2  0  0  0  0  0  0
  187.7730  177.0290  135.0090 C   0  0  0  0  0  2  0  0  0  0  0  0
  189.5920  176.6700  138.9820 O   0  0  0  0  0  0  0  0  0  0  0  0
  185.7150  178.4950  141.8710 C   0  0  0  0  0  2  0  0  0  0  0  0
  184.8400  179.2920  140.8920 C   0  0  0  0  0  2  0  0  0  0  0  0
  186.9840  176.9620  136.3220 C   0  0  1  0  0  3  0  0  0  0  0  0
  187.9900  178.3380  139.6210 C   0  0  2  0  0  3  0  0  0  0  0  0
  190.1200  176.4360  136.6620 C   0  0  0  0  0  2  0  0  0  0  0  0
  184.4270  177.8120  137.9730 C   0  0  1  0  0  3  0  0  0  0  0  0
  190.9890  175.0080  138.3200 F   0  0  0  0  0  0  0  0  0  0  0  0
  187.1800  178.8770  141.7530 C   0  0  0  0  0  2  0  0  0  0  0  0
  187.9160  177.8530  141.0140 N   0  0  0  0  0  0  0  0  0  0  0  0
  184.7700  176.5820  137.1400 C   0  0  0  0  0  2  0  0  0  0  0  0
  182.8220  176.5060  139.4330 C   0  0  0  0  0  2  0  0  0  0  0  0
  182.9900  177.6960  138.4900 C   0  0  2  0  0  3  0  0  0  0  0  0
  181.9590  177.7230  137.3870 C   0  0  0  0  0  3  0  0  0  0  0  0
  179.8940  177.1550  136.4230 O   0  0  0  0  0  1  0  0  0  0  0  0
  180.4950  176.1270  138.6130 C   0  0  0  0  0  2  0  0  0  0  0  0
  180.8050  177.0510  137.4650 C   0  0  0  0  0  0  0  0  0  0  0  0
  181.3600  176.3990  139.8430 C   0  0  0  0  0  2  0  0  0  0  0  0
  189.2400  177.8160  141.6410 C   0  0  0  0  0  2  0  0  0  0  0  0
  189.2410  176.9930  142.9370 C   0  0  1  0  0  3  0  0  0  0  0  0
  191.1700  175.7760  143.5440 O   0  0  0  0  0  0  0  0  0  0  0  0
  190.1640  175.8200  142.8550 C   0  0  0  0  0  3  0  0  0  0  0  0
  189.5880  177.8410  144.1520 C   0  0  0  0  0  2  0  0  0  0  0  0
  188.6690  177.5200  145.3170 C   0  0  0  0  0  2  0  0  0  0  0  0
  187.4180  177.1260  144.8430 O   0  0  0  0  0  1  0  0  0  0  0  0
  1 10  1  0  0  0  0
  1 20  1  0  0  0  0
  1 13  1  0  0  0  0
  2  6  1  0  0  0  0
  2  5  1  0  0  0  0
  3 15  1  0  0  0  0
  4 18  1  0  0  0  0
  4  6  1  0  0  0  0
  5  7  1  0  0  0  0
  5 17  1  0  0  0  0
  6  9  1  0  0  0  0
  7  3  1  0  0  0  0
  8  4  1  0  0  0  0
  9 13  1  0  0  0  0
  9 17  1  0  0  0  0
 11 16  1  0  0  0  0
 11 23  1  0  0  0  0
 12  8  1  0  0  0  0
 12 16  1  0  0  0  0
 15 14  1  0  0  0  0
 16  2  1  0  0  0  0
 17 22  1  0  0  0  0
 18  1  1  0  0  0  0
 19 25  1  0  0  0  0
 19  7  1  0  0  0  0
 21 14  1  0  0  0  0
 22 31  1  0  0  0  0
 22 21  1  0  0  0  0
 23 19  1  0  0  0  0
 24 30  1  0  0  0  0
 25 24  1  0  0  0  0
 26 29  2  0  0  0  0
 26 25  1  0  0  0  0
 27 29  1  0  0  0  0
 28 30  1  0  0  0  0
 29 28  1  0  0  0  0
 31 32  1  0  0  0  0
 32 35  1  0  0  0  0
 34 32  1  0  0  0  0
 34 33  2  0  0  0  0
 35 36  1  0  0  0  0
 37 36  1  0  0  0  0
M  END
>  <MODEL>
1

>  <REMARK>
 VINA RESULT:      -7.3      0.000      0.000
  Name = 
  6 active torsions:
  status: ('A' for Active; 'I' for Inactive)
    1  A    between atoms: C_1  and  C_4
    2  A    between atoms: C_1  and  N_27
    3  A    between atoms: C_4  and  C_12
    4  A    between atoms: C_4  and  C_37
    5  A    between atoms: C_8  and  C_12
    6  A    between atoms: C_23  and  C_30
                            x       y       z     vdW  Elec       q    Type
                         _______ _______ _______ _____ _____    ______ ____

>  <TORSDO>
F 6

$$$$
=
 OpenBabel11122411443D

 37 42  0  0  1  0  0  0  0  0999 V2000
  190.2660  178.7080  143.7830 C   0  0  0  0  0  0  0  0  0  0  0  0
  186.6390  177.5260  144.0680 C   0  0  1  0  0  3  0  0  0  0  0  0
  184.5650  177.4230  141.5360 O   0  0  0  0  0  0  0  0  0  0  0  0
  188.9780  177.0100  144.9970 N   0  0  2  0  0  0  0  0  0  0  0  0
  186.3770  178.3820  142.8290 C   0  0  2  0  0  3  0  0  0  0  0  0
  188.0580  176.9650  143.8450 C   0  0  2  0  0  3  0  0  0  0  0  0
  184.9010  178.4770  142.3980 C   0  0  2  0  0  3  0  0  0  0  0  0
  188.2570  176.7100  146.2340 C   0  0  0  0  0  2  0  0  0  0  0  0
  188.6210  177.6130  142.5720 C   0  0  2  0  0  3  0  0  0  0  0  0
  191.1970  177.7760  143.3450 F   0  0  0  0  0  0  0  0  0  0  0  0
  185.0790  178.5510  145.6820 N   0  0  0  0  0  2  0  0  0  0  0  0
  187.1830  177.7550  146.5650 C   0  0  0  0  0  2  0  0  0  0  0  0
  189.2240  178.8660  142.8470 O   0  0  0  0  0  0  0  0  0  0  0  0
  185.1910  178.8420  139.6140 C   0  0  0  0  0  2  0  0  0  0  0  0
  184.1240  177.9980  140.3270 C   0  0  0  0  0  2  0  0  0  0  0  0
  186.4890  178.3710  145.3450 C   0  0  1  0  0  3  0  0  0  0  0  0
  187.3400  177.8410  141.7700 C   0  0  2  0  0  3  0  0  0  0  0  0
  189.6780  178.2900  145.1230 C   0  0  0  0  0  2  0  0  0  0  0  0
  183.8920  178.6090  143.5610 C   0  0  1  0  0  3  0  0  0  0  0  0
  190.9040  179.9210  143.9470 F   0  0  0  0  0  0  0  0  0  0  0  0
  186.5360  178.1380  139.5890 C   0  0  0  0  0  2  0  0  0  0  0  0
  187.4350  178.7180  140.5850 N   0  0  0  0  0  0  0  0  0  0  0  0
  184.4440  179.4380  144.7160 C   0  0  0  0  0  2  0  0  0  0  0  0
  181.4630  178.9530  144.1900 C   0  0  0  0  0  2  0  0  0  0  0  0
  182.5360  179.1760  143.1260 C   0  0  2  0  0  3  0  0  0  0  0  0
  182.1110  178.7090  141.7540 C   0  0  0  0  0  3  0  0  0  0  0  0
  180.5170  178.1270  140.1310 O   0  0  0  0  0  1  0  0  0  0  0  0
  179.7170  178.6590  142.4310 C   0  0  0  0  0  2  0  0  0  0  0  0
  180.8290  178.5240  141.4240 C   0  0  0  0  0  0  0  0  0  0  0  0
  180.1280  179.4630  143.6640 C   0  0  0  0  0  2  0  0  0  0  0  0
  188.7660  178.6530  139.9740 C   0  0  0  0  0  2  0  0  0  0  0  0
  188.7840  177.7550  138.7280 C   0  0  1  0  0  3  0  0  0  0  0  0
  188.9900  179.7530  137.4890 O   0  0  0  0  0  0  0  0  0  0  0  0
  189.0460  178.5340  137.4800 C   0  0  0  0  0  3  0  0  0  0  0  0
  189.7960  176.6250  138.8550 C   0  0  0  0  0  2  0  0  0  0  0  0
  190.9620  177.0390  139.7350 C   0  0  0  0  0  2  0  0  0  0  0  0
  192.1630  176.8700  139.0460 O   0  0  0  0  0  1  0  0  0  0  0  0
  1 20  1  0  0  0  0
  1 18  1  0  0  0  0
  2 16  1  0  0  0  0
  3  7  1  0  0  0  0
  4 18  1  0  0  0  0
  4  8  1  0  0  0  0
  5  2  1  0  0  0  0
  6  2  1  0  0  0  0
  6  4  1  0  0  0  0
  7  5  1  0  0  0  0
  7 19  1  0  0  0  0
  8 12  1  0  0  0  0
  9 13  1  0  0  0  0
  9  6  1  0  0  0  0
 10  1  1  0  0  0  0
 13  1  1  0  0  0  0
 14 15  1  0  0  0  0
 15  3  1  0  0  0  0
 16 11  1  0  0  0  0
 16 12  1  0  0  0  0
 17  9  1  0  0  0  0
 17  5  1  0  0  0  0
 19 23  1  0  0  0  0
 21 14  1  0  0  0  0
 21 22  1  0  0  0  0
 22 17  1  0  0  0  0
 23 11  1  0  0  0  0
 25 19  1  0  0  0  0
 25 24  1  0  0  0  0
 26 25  1  0  0  0  0
 27 29  1  0  0  0  0
 28 30  1  0  0  0  0
 29 26  2  0  0  0  0
 29 28  1  0  0  0  0
 30 24  1  0  0  0  0
 31 22  1  0  0  0  0
 32 35  1  0  0  0  0
 32 31  1  0  0  0  0
 34 33  2  0  0  0  0
 34 32  1  0  0  0  0
 35 36  1  0  0  0  0
 37 36  1  0  0  0  0
M  END
>  <MODEL>
2

>  <REMARK>
 VINA RESULT:      -7.3      2.895      6.121
  Name = 
  6 active torsions:
  status: ('A' for Active; 'I' for Inactive)
    1  A    between atoms: C_1  and  C_4
    2  A    between atoms: C_1  and  N_27
    3  A    between atoms: C_4  and  C_12
    4  A    between atoms: C_4  and  C_37
    5  A    between atoms: C_8  and  C_12
    6  A    between atoms: C_23  and  C_30
                            x       y       z     vdW  Elec       q    Type
                         _______ _______ _______ _____ _____    ______ ____

>  <TORSDO>
F 6

$$$$
=
 OpenBabel11122411443D

 37 42  0  0  1  0  0  0  0  0999 V2000
  190.1490  175.7220  142.9800 C   0  0  0  0  0  0  0  0  0  0  0  0
  188.0400  178.5330  141.4700 C   0  0  1  0  0  3  0  0  0  0  0  0
  185.4990  179.9140  143.0050 O   0  0  0  0  0  0  0  0  0  0  0  0
  190.4710  177.7090  141.5780 N   0  0  2  0  0  0  0  0  0  0  0  0
  186.9280  178.0520  142.4020 C   0  0  2  0  0  3  0  0  0  0  0  0
  189.3320  178.3240  142.2850 C   0  0  2  0  0  3  0  0  0  0  0  0
  185.5700  178.7550  142.2190 C   0  0  2  0  0  3  0  0  0  0  0  0
  190.5440  178.2070  140.2050 C   0  0  0  0  0  2  0  0  0  0  0  0
  188.9490  177.6090  143.5890 C   0  0  2  0  0  3  0  0  0  0  0  0
  191.1640  176.0980  143.8510 F   0  0  0  0  0  0  0  0  0  0  0  0
  186.9500  178.2790  139.2710 N   0  0  0  0  0  2  0  0  0  0  0  0
  189.3200  177.8170  139.3640 C   0  0  0  0  0  2  0  0  0  0  0  0
  188.8990  176.2030  143.4190 O   0  0  0  0  0  0  0  0  0  0  0  0
  184.5280  178.5710  144.8360 C   0  0  0  0  0  2  0  0  0  0  0  0
  184.3990  179.7610  143.8740 C   0  0  0  0  0  2  0  0  0  0  0  0
  188.0010  177.7570  140.1420 C   0  0  1  0  0  3  0  0  0  0  0  0
  187.5310  178.1370  143.8060 C   0  0  2  0  0  3  0  0  0  0  0  0
  190.4240  176.2450  141.5780 C   0  0  0  0  0  2  0  0  0  0  0  0
  185.1750  179.0350  140.7510 C   0  0  1  0  0  3  0  0  0  0  0  0
  190.1030  174.3440  142.9290 F   0  0  0  0  0  0  0  0  0  0  0  0
  185.9110  178.5010  145.4590 C   0  0  0  0  0  2  0  0  0  0  0  0
  186.7060  177.4530  144.8220 N   0  0  0  0  0  0  0  0  0  0  0  0
  185.6400  177.9310  139.8060 C   0  0  0  0  0  2  0  0  0  0  0  0
  182.8410  178.1410  141.1610 C   0  0  0  0  0  2  0  0  0  0  0  0
  183.6730  179.2720  140.5610 C   0  0  2  0  0  3  0  0  0  0  0  0
  183.2980  179.5830  139.1310 C   0  0  0  0  0  3  0  0  0  0  0  0
  181.8410  179.5770  137.2900 O   0  0  0  0  0  1  0  0  0  0  0  0
  181.1330  178.3790  139.3580 C   0  0  0  0  0  2  0  0  0  0  0  0
  182.1250  179.2220  138.6010 C   0  0  0  0  0  0  0  0  0  0  0  0
  181.3700  178.3950  140.8670 C   0  0  0  0  0  2  0  0  0  0  0  0
  187.5310  176.8990  145.9000 C   0  0  0  0  0  2  0  0  0  0  0  0
  188.0380  177.9900  146.8540 C   0  0  1  0  0  3  0  0  0  0  0  0
  188.2110  178.2170  149.1970 O   0  0  0  0  0  0  0  0  0  0  0  0
  187.5770  177.7650  148.2580 C   0  0  0  0  0  3  0  0  0  0  0  0
  189.5550  178.1160  146.8220 C   0  0  0  0  0  2  0  0  0  0  0  0
  190.2140  176.7570  146.9810 C   0  0  0  0  0  2  0  0  0  0  0  0
  191.5390  176.9140  147.3860 O   0  0  0  0  0  1  0  0  0  0  0  0
  1 13  1  0  0  0  0
  1 10  1  0  0  0  0
  2  6  1  0  0  0  0
  2  5  1  0  0  0  0
  3 15  1  0  0  0  0
  4  6  1  0  0  0  0
  5 17  1  0  0  0  0
  6  9  1  0  0  0  0
  7  5  1  0  0  0  0
  7  3  1  0  0  0  0
  8  4  1  0  0  0  0
  9 17  1  0  0  0  0
 11 23  1  0  0  0  0
 11 16  1  0  0  0  0
 12 16  1  0  0  0  0
 12  8  1  0  0  0  0
 13  9  1  0  0  0  0
 14 21  1  0  0  0  0
 15 14  1  0  0  0  0
 16  2  1  0  0  0  0
 17 22  1  0  0  0  0
 18  4  1  0  0  0  0
 18  1  1  0  0  0  0
 19  7  1  0  0  0  0
 20  1  1  0  0  0  0
 22 21  1  0  0  0  0
 22 31  1  0  0  0  0
 23 19  1  0  0  0  0
 25 19  1  0  0  0  0
 25 24  1  0  0  0  0
 26 25  1  0  0  0  0
 27 29  1  0  0  0  0
 28 30  1  0  0  0  0
 29 26  2  0  0  0  0
 29 28  1  0  0  0  0
 30 24  1  0  0  0  0
 31 32  1  0  0  0  0
 32 34  1  0  0  0  0
 34 33  2  0  0  0  0
 35 32  1  0  0  0  0
 35 36  1  0  0  0  0
 36 37  1  0  0  0  0
M  END
>  <MODEL>
3

>  <REMARK>
 VINA RESULT:      -7.2      2.745      4.143
  Name = 
  6 active torsions:
  status: ('A' for Active; 'I' for Inactive)
    1  A    between atoms: C_1  and  C_4
    2  A    between atoms: C_1  and  N_27
    3  A    between atoms: C_4  and  C_12
    4  A    between atoms: C_4  and  C_37
    5  A    between atoms: C_8  and  C_12
    6  A    between atoms: C_23  and  C_30
                            x       y       z     vdW  Elec       q    Type
                         _______ _______ _______ _____ _____    ______ ____

>  <TORSDO>
F 6

$$$$
=
 OpenBabel11122411443D

 37 42  0  0  1  0  0  0  0  0999 V2000
  190.0520  176.8950  141.2630 C   0  0  0  0  0  0  0  0  0  0  0  0
  187.4770  178.1280  138.7170 C   0  0  1  0  0  3  0  0  0  0  0  0
  184.5720  179.3890  139.5470 O   0  0  0  0  0  0  0  0  0  0  0  0
  190.0160  178.0560  139.1020 N   0  0  2  0  0  0  0  0  0  0  0  0
  186.4360  177.8620  139.8040 C   0  0  2  0  0  3  0  0  0  0  0  0
  188.7130  178.6260  139.4930 C   0  0  2  0  0  3  0  0  0  0  0  0
  184.9710  178.0570  139.3700 C   0  0  2  0  0  3  0  0  0  0  0  0
  190.0810  177.8880  137.6500 C   0  0  0  0  0  2  0  0  0  0  0  0
  188.4040  178.5010  140.9920 C   0  0  2  0  0  3  0  0  0  0  0  0
  190.8800  177.8530  141.8320 F   0  0  0  0  0  0  0  0  0  0  0  0
  186.6540  176.6620  136.9120 N   0  0  0  0  0  2  0  0  0  0  0  0
  189.0520  176.8800  137.1210 C   0  0  0  0  0  2  0  0  0  0  0  0
  188.6940  177.2020  141.4790 O   0  0  0  0  0  0  0  0  0  0  0  0
  183.7950  178.8160  141.8210 C   0  0  0  0  0  2  0  0  0  0  0  0
  183.4720  179.3800  140.4300 C   0  0  0  0  0  2  0  0  0  0  0  0
  187.7240  176.8570  137.8870 C   0  0  1  0  0  3  0  0  0  0  0  0
  186.8890  178.7090  140.9950 C   0  0  2  0  0  3  0  0  0  0  0  0
  190.3100  176.7840  139.7670 C   0  0  0  0  0  2  0  0  0  0  0  0
  184.6400  177.5450  137.9490 C   0  0  1  0  0  3  0  0  0  0  0  0
  190.3300  175.6740  141.8430 F   0  0  0  0  0  0  0  0  0  0  0  0
  185.1030  179.3700  142.3600 C   0  0  0  0  0  2  0  0  0  0  0  0
  186.1660  178.3750  142.2390 N   0  0  0  0  0  0  0  0  0  0  0  0
  185.4210  176.2850  137.5910 C   0  0  0  0  0  2  0  0  0  0  0  0
  182.5680  176.3320  138.7560 C   0  0  0  0  0  2  0  0  0  0  0  0
  183.1440  177.3010  137.7250 C   0  0  2  0  0  3  0  0  0  0  0  0
  182.8140  176.9140  136.3030 C   0  0  0  0  0  3  0  0  0  0  0  0
  181.5440  175.8090  134.6650 O   0  0  0  0  0  1  0  0  0  0  0  0
  180.9940  175.3950  137.0610 C   0  0  0  0  0  2  0  0  0  0  0  0
  181.8060  176.0890  135.9990 C   0  0  0  0  0  0  0  0  0  0  0  0
  181.1060  176.0690  138.4280 C   0  0  0  0  0  2  0  0  0  0  0  0
  187.0090  178.5800  143.4220 C   0  0  0  0  0  2  0  0  0  0  0  0
  187.0920  177.3210  144.2950 C   0  0  1  0  0  3  0  0  0  0  0  0
  189.3260  177.9670  144.6990 O   0  0  0  0  0  0  0  0  0  0  0  0
  188.4580  177.1260  144.8690 C   0  0  0  0  0  3  0  0  0  0  0  0
  186.0580  177.3320  145.4120 C   0  0  0  0  0  2  0  0  0  0  0  0
  185.7910  178.7490  145.8880 C   0  0  0  0  0  2  0  0  0  0  0  0
  184.4190  179.0040  145.8830 O   0  0  0  0  0  1  0  0  0  0  0  0
  1 13  1  0  0  0  0
  1 10  1  0  0  0  0
  1 20  1  0  0  0  0
  2  6  1  0  0  0  0
  2  5  1  0  0  0  0
  3 15  1  0  0  0  0
  4  6  1  0  0  0  0
  4 18  1  0  0  0  0
  5 17  1  0  0  0  0
  6  9  1  0  0  0  0
  7  3  1  0  0  0  0
  7  5  1  0  0  0  0
  8  4  1  0  0  0  0
  9 17  1  0  0  0  0
  9 13  1  0  0  0  0
 11 23  1  0  0  0  0
 11 16  1  0  0  0  0
 12  8  1  0  0  0  0
 12 16  1  0  0  0  0
 14 21  1  0  0  0  0
 15 14  1  0  0  0  0
 16  2  1  0  0  0  0
 17 22  1  0  0  0  0
 18  1  1  0  0  0  0
 19  7  1  0  0  0  0
 22 21  1  0  0  0  0
 22 31  1  0  0  0  0
 23 19  1  0  0  0  0
 25 19  1  0  0  0  0
 25 24  1  0  0  0  0
 26 25  1  0  0  0  0
 27 29  1  0  0  0  0
 28 30  1  0  0  0  0
 29 26  2  0  0  0  0
 29 28  1  0  0  0  0
 30 24  1  0  0  0  0
 31 32  1  0  0  0  0
 32 34  1  0  0  0  0
 32 35  1  0  0  0  0
 33 34  2  0  0  0  0
 35 36  1  0  0  0  0
 37 36  1  0  0  0  0
M  END
>  <MODEL>
4

>  <REMARK>
 VINA RESULT:      -6.8      1.891      2.372
  Name = 
  6 active torsions:
  status: ('A' for Active; 'I' for Inactive)
    1  A    between atoms: C_1  and  C_4
    2  A    between atoms: C_1  and  N_27
    3  A    between atoms: C_4  and  C_12
    4  A    between atoms: C_4  and  C_37
    5  A    between atoms: C_8  and  C_12
    6  A    between atoms: C_23  and  C_30
                            x       y       z     vdW  Elec       q    Type
                         _______ _______ _______ _____ _____    ______ ____

>  <TORSDO>
F 6

$$$$
=
 OpenBabel11122411443D

 37 42  0  0  1  0  0  0  0  0999 V2000
  182.8920  176.8480  137.0690 C   0  0  0  0  0  0  0  0  0  0  0  0
  183.8910  179.1500  139.9560 C   0  0  1  0  0  3  0  0  0  0  0  0
  186.9780  179.5370  140.9770 O   0  0  0  0  0  0  0  0  0  0  0  0
  182.2410  179.0250  137.9910 N   0  0  2  0  0  0  0  0  0  0  0  0
  185.1190  178.2500  140.1050 C   0  0  2  0  0  3  0  0  0  0  0  0
  183.6370  179.1920  138.4360 C   0  0  2  0  0  3  0  0  0  0  0  0
  186.0220  178.5680  141.3120 C   0  0  2  0  0  3  0  0  0  0  0  0
  181.3320  179.7160  138.9060 C   0  0  0  0  0  2  0  0  0  0  0  0
  184.6230  178.2210  137.7710 C   0  0  2  0  0  3  0  0  0  0  0  0
  183.0180  177.3610  135.7850 F   0  0  0  0  0  0  0  0  0  0  0  0
  182.8720  178.9210  142.1910 N   0  0  0  0  0  2  0  0  0  0  0  0
  181.3520  179.1260  140.3230 C   0  0  0  0  0  2  0  0  0  0  0  0
  184.1210  176.8950  137.7590 O   0  0  0  0  0  0  0  0  0  0  0  0
  188.5290  177.7290  140.3250 C   0  0  0  0  0  2  0  0  0  0  0  0
  188.2470  178.9620  141.1960 C   0  0  0  0  0  2  0  0  0  0  0  0
  182.7150  178.5920  140.7760 C   0  0  1  0  0  3  0  0  0  0  0  0
  185.8050  178.2970  138.7370 C   0  0  2  0  0  3  0  0  0  0  0  0
  181.8450  177.6210  137.8560 C   0  0  0  0  0  2  0  0  0  0  0  0
  185.2670  178.9340  142.6100 C   0  0  1  0  0  3  0  0  0  0  0  0
  182.4840  175.5330  136.9770 F   0  0  0  0  0  0  0  0  0  0  0  0
  188.1190  177.9570  138.8810 C   0  0  0  0  0  2  0  0  0  0  0  0
  186.8600  177.2730  138.5940 N   0  0  0  0  0  0  0  0  0  0  0  0
  183.9670  178.1500  142.7650 C   0  0  0  0  0  2  0  0  0  0  0  0
  186.8780  177.4460  143.8760 C   0  0  0  0  0  2  0  0  0  0  0  0
  186.1170  178.7710  143.8730 C   0  0  2  0  0  3  0  0  0  0  0  0
  185.3380  179.0040  145.1460 C   0  0  0  0  0  3  0  0  0  0  0  0
  184.8730  178.6550  147.4210 O   0  0  0  0  0  1  0  0  0  0  0  0
  186.6460  177.2650  146.3540 C   0  0  0  0  0  2  0  0  0  0  0  0
  185.6120  178.3580  146.2850 C   0  0  0  0  0  0  0  0  0  0  0  0
  187.6340  177.3090  145.1890 C   0  0  0  0  0  2  0  0  0  0  0  0
  186.9850  176.8220  137.2050 C   0  0  0  0  0  2  0  0  0  0  0  0
  187.5330  175.3910  137.1120 C   0  0  1  0  0  3  0  0  0  0  0  0
  185.6310  174.7240  135.8820 O   0  0  0  0  0  0  0  0  0  0  0  0
  186.4790  174.4120  136.7030 C   0  0  0  0  0  3  0  0  0  0  0  0
  188.7220  175.2950  136.1670 C   0  0  0  0  0  2  0  0  0  0  0  0
  190.0300  175.3300  136.9380 C   0  0  0  0  0  2  0  0  0  0  0  0
  190.1930  174.1430  137.6530 O   0  0  0  0  0  1  0  0  0  0  0  0
  1 13  1  0  0  0  0
  1 18  1  0  0  0  0
  2  5  1  0  0  0  0
  2 16  1  0  0  0  0
  3 15  1  0  0  0  0
  3  7  1  0  0  0  0
  4  6  1  0  0  0  0
  4  8  1  0  0  0  0
  5  7  1  0  0  0  0
  6  2  1  0  0  0  0
  7 19  1  0  0  0  0
  8 12  1  0  0  0  0
  9  6  1  0  0  0  0
  9 17  1  0  0  0  0
 10  1  1  0  0  0  0
 11 23  1  0  0  0  0
 12 16  1  0  0  0  0
 13  9  1  0  0  0  0
 14 15  1  0  0  0  0
 16 11  1  0  0  0  0
 17  5  1  0  0  0  0
 18  4  1  0  0  0  0
 19 23  1  0  0  0  0
 19 25  1  0  0  0  0
 20  1  1  0  0  0  0
 21 14  1  0  0  0  0
 22 17  1  0  0  0  0
 22 21  1  0  0  0  0
 24 30  1  0  0  0  0
 25 24  1  0  0  0  0
 25 26  1  0  0  0  0
 26 29  2  0  0  0  0
 29 28  1  0  0  0  0
 29 27  1  0  0  0  0
 30 28  1  0  0  0  0
 31 22  1  0  0  0  0
 32 31  1  0  0  0  0
 33 34  2  0  0  0  0
 34 32  1  0  0  0  0
 35 36  1  0  0  0  0
 35 32  1  0  0  0  0
 36 37  1  0  0  0  0
M  END
>  <MODEL>
5

>  <REMARK>
 VINA RESULT:      -6.7      3.133      6.989
  Name = 
  6 active torsions:
  status: ('A' for Active; 'I' for Inactive)
    1  A    between atoms: C_1  and  C_4
    2  A    between atoms: C_1  and  N_27
    3  A    between atoms: C_4  and  C_12
    4  A    between atoms: C_4  and  C_37
    5  A    between atoms: C_8  and  C_12
    6  A    between atoms: C_23  and  C_30
                            x       y       z     vdW  Elec       q    Type
                         _______ _______ _______ _____ _____    ______ ____

>  <TORSDO>
F 6

$$$$
=
 OpenBabel11122411443D

 37 42  0  0  1  0  0  0  0  0999 V2000
  182.6090  176.8590  138.8150 C   0  0  0  0  0  0  0  0  0  0  0  0
  185.2100  178.8360  140.8040 C   0  0  1  0  0  3  0  0  0  0  0  0
  188.3030  179.2620  139.8170 O   0  0  0  0  0  0  0  0  0  0  0  0
  182.7080  178.8660  140.2200 N   0  0  2  0  0  0  0  0  0  0  0  0
  186.2530  177.9930  140.0690 C   0  0  2  0  0  3  0  0  0  0  0  0
  184.0970  179.0520  139.7590 C   0  0  2  0  0  3  0  0  0  0  0  0
  187.7080  178.2080  140.5260 C   0  0  2  0  0  3  0  0  0  0  0  0
  182.5510  179.3880  141.5780 C   0  0  0  0  0  2  0  0  0  0  0  0
  184.4570  178.2260  138.5160 C   0  0  2  0  0  3  0  0  0  0  0  0
  181.9560  177.5330  137.7920 F   0  0  0  0  0  0  0  0  0  0  0  0
  185.7270  178.2770  143.1510 N   0  0  0  0  0  2  0  0  0  0  0  0
  183.3980  178.6290  142.6080 C   0  0  0  0  0  2  0  0  0  0  0  0
  184.0060  176.8870  138.6320 O   0  0  0  0  0  0  0  0  0  0  0  0
  189.0970  177.6350  138.1360 C   0  0  0  0  0  2  0  0  0  0  0  0
  189.4310  178.7340  139.1560 C   0  0  0  0  0  2  0  0  0  0  0  0
  184.7430  178.1180  142.0820 C   0  0  1  0  0  3  0  0  0  0  0  0
  185.9840  178.2470  138.5840 C   0  0  2  0  0  3  0  0  0  0  0  0
  182.2670  177.4710  140.1650 C   0  0  0  0  0  2  0  0  0  0  0  0
  187.8940  178.3690  142.0520 C   0  0  1  0  0  3  0  0  0  0  0  0
  182.1870  175.5440  138.8130 F   0  0  0  0  0  0  0  0  0  0  0  0
  187.9100  178.0170  137.2700 C   0  0  0  0  0  2  0  0  0  0  0  0
  186.7100  177.3070  137.7060 N   0  0  0  0  0  0  0  0  0  0  0  0
  186.9230  177.5020  142.8480 C   0  0  0  0  0  2  0  0  0  0  0  0
  189.8910  176.8200  141.9030 C   0  0  0  0  0  2  0  0  0  0  0  0
  189.3260  178.0970  142.5210 C   0  0  2  0  0  3  0  0  0  0  0  0
  189.4760  178.1390  144.0240 C   0  0  0  0  0  3  0  0  0  0  0  0
  190.4570  177.4980  146.0590 O   0  0  0  0  0  1  0  0  0  0  0  0
  191.1870  176.3330  143.9800 C   0  0  0  0  0  2  0  0  0  0  0  0
  190.3560  177.3760  144.6800 C   0  0  0  0  0  0  0  0  0  0  0  0
  191.2800  176.5630  142.4720 C   0  0  0  0  0  2  0  0  0  0  0  0
  185.9630  177.0380  136.4730 C   0  0  0  0  0  2  0  0  0  0  0  0
  186.0410  175.5610  136.0630 C   0  0  1  0  0  3  0  0  0  0  0  0
  188.1470  175.2070  135.0560 O   0  0  0  0  0  0  0  0  0  0  0  0
  186.9460  175.3520  134.8910 C   0  0  0  0  0  3  0  0  0  0  0  0
  186.4760  174.6710  137.2180 C   0  0  0  0  0  2  0  0  0  0  0  0
  185.9450  173.2590  137.0430 C   0  0  0  0  0  2  0  0  0  0  0  0
  184.9310  173.0120  137.9690 O   0  0  0  0  0  1  0  0  0  0  0  0
  1 18  1  0  0  0  0
  2 16  1  0  0  0  0
  3  7  1  0  0  0  0
  4  8  1  0  0  0  0
  5  7  1  0  0  0  0
  5  2  1  0  0  0  0
  6  4  1  0  0  0  0
  6  2  1  0  0  0  0
  7 19  1  0  0  0  0
  8 12  1  0  0  0  0
  9 17  1  0  0  0  0
  9 13  1  0  0  0  0
  9  6  1  0  0  0  0
 10  1  1  0  0  0  0
 13  1  1  0  0  0  0
 14 15  1  0  0  0  0
 15  3  1  0  0  0  0
 16 12  1  0  0  0  0
 16 11  1  0  0  0  0
 17  5  1  0  0  0  0
 18  4  1  0  0  0  0
 19 25  1  0  0  0  0
 19 23  1  0  0  0  0
 20  1  1  0  0  0  0
 21 22  1  0  0  0  0
 21 14  1  0  0  0  0
 22 17  1  0  0  0  0
 23 11  1  0  0  0  0
 24 30  1  0  0  0  0
 24 25  1  0  0  0  0
 25 26  1  0  0  0  0
 26 29  2  0  0  0  0
 28 29  1  0  0  0  0
 29 27  1  0  0  0  0
 30 28  1  0  0  0  0
 31 22  1  0  0  0  0
 32 31  1  0  0  0  0
 32 35  1  0  0  0  0
 34 33  2  0  0  0  0
 34 32  1  0  0  0  0
 36 35  1  0  0  0  0
 36 37  1  0  0  0  0
M  END
>  <MODEL>
6

>  <REMARK>
 VINA RESULT:      -6.6      3.087      7.726
  Name = 
  6 active torsions:
  status: ('A' for Active; 'I' for Inactive)
    1  A    between atoms: C_1  and  C_4
    2  A    between atoms: C_1  and  N_27
    3  A    between atoms: C_4  and  C_12
    4  A    between atoms: C_4  and  C_37
    5  A    between atoms: C_8  and  C_12
    6  A    between atoms: C_23  and  C_30
                            x       y       z     vdW  Elec       q    Type
                         _______ _______ _______ _____ _____    ______ ____

>  <TORSDO>
F 6

$$$$
=
 OpenBabel11122411443D

 37 42  0  0  1  0  0  0  0  0999 V2000
  181.2180  176.8890  137.5960 C   0  0  0  0  0  0  0  0  0  0  0  0
  182.7610  179.2010  140.2250 C   0  0  1  0  0  3  0  0  0  0  0  0
  185.9870  179.5830  140.6290 O   0  0  0  0  0  0  0  0  0  0  0  0
  180.7620  179.0720  138.6160 N   0  0  2  0  0  0  0  0  0  0  0  0
  183.9920  178.2980  140.1380 C   0  0  2  0  0  3  0  0  0  0  0  0
  182.2180  179.2370  138.7820 C   0  0  2  0  0  3  0  0  0  0  0  0
  185.1110  178.6190  141.1470 C   0  0  2  0  0  3  0  0  0  0  0  0
  180.0480  179.7700  139.6860 C   0  0  0  0  0  2  0  0  0  0  0  0
  183.0550  178.2590  137.9440 C   0  0  2  0  0  3  0  0  0  0  0  0
  181.0950  177.3960  136.3100 F   0  0  0  0  0  0  0  0  0  0  0  0
  182.1910  178.9850  142.6160 N   0  0  0  0  0  2  0  0  0  0  0  0
  180.3400  179.1870  141.0750 C   0  0  0  0  0  2  0  0  0  0  0  0
  182.5570  176.9350  138.0360 O   0  0  0  0  0  0  0  0  0  0  0  0
  187.3800  177.7670  139.6990 C   0  0  0  0  0  2  0  0  0  0  0  0
  187.2730  179.0050  140.6020 C   0  0  0  0  0  2  0  0  0  0  0  0
  181.7630  178.6500  141.2590 C   0  0  1  0  0  3  0  0  0  0  0  0
  184.4010  178.3370  138.6640 C   0  0  2  0  0  3  0  0  0  0  0  0
  180.3440  177.6690  138.5670 C   0  0  0  0  0  2  0  0  0  0  0  0
  184.6210  178.9930  142.5640 C   0  0  1  0  0  3  0  0  0  0  0  0
  180.7970  175.5740  137.5920 F   0  0  0  0  0  0  0  0  0  0  0  0
  186.6980  177.9890  138.3600 C   0  0  0  0  0  2  0  0  0  0  0  0
  185.4060  177.3080  138.3250 N   0  0  0  0  0  0  0  0  0  0  0  0
  183.3750  178.2140  142.9710 C   0  0  0  0  0  2  0  0  0  0  0  0
  186.3570  177.4550  143.5820 C   0  0  0  0  0  2  0  0  0  0  0  0
  185.7000  178.8330  143.6410 C   0  0  2  0  0  3  0  0  0  0  0  0
  185.2140  179.1940  145.0240 C   0  0  0  0  0  3  0  0  0  0  0  0
  185.2010  179.0050  147.3650 O   0  0  0  0  0  1  0  0  0  0  0  0
  186.6240  177.4270  146.0630 C   0  0  0  0  0  2  0  0  0  0  0  0
  185.6710  178.5910  146.1270 C   0  0  0  0  0  0  0  0  0  0  0  0
  187.3550  177.3310  144.7240 C   0  0  0  0  0  2  0  0  0  0  0  0
  185.2600  176.8500  136.9400 C   0  0  0  0  0  2  0  0  0  0  0  0
  185.1020  175.3260  136.8520 C   0  0  1  0  0  3  0  0  0  0  0  0
  183.2170  174.4060  135.7700 O   0  0  0  0  0  0  0  0  0  0  0  0
  184.3200  174.9120  135.6470 C   0  0  0  0  0  3  0  0  0  0  0  0
  186.4460  174.6110  136.8680 C   0  0  0  0  0  2  0  0  0  0  0  0
  186.2670  173.1290  137.1470 C   0  0  0  0  0  2  0  0  0  0  0  0
  185.3890  172.9470  138.2150 O   0  0  0  0  0  1  0  0  0  0  0  0
  1 13  1  0  0  0  0
  1 18  1  0  0  0  0
  2 16  1  0  0  0  0
  3  7  1  0  0  0  0
  4  6  1  0  0  0  0
  4  8  1  0  0  0  0
  5  2  1  0  0  0  0
  5  7  1  0  0  0  0
  6  2  1  0  0  0  0
  7 19  1  0  0  0  0
  8 12  1  0  0  0  0
  9 13  1  0  0  0  0
  9 17  1  0  0  0  0
  9  6  1  0  0  0  0
 10  1  1  0  0  0  0
 11 23  1  0  0  0  0
 12 16  1  0  0  0  0
 14 15  1  0  0  0  0
 15  3  1  0  0  0  0
 16 11  1  0  0  0  0
 17  5  1  0  0  0  0
 18  4  1  0  0  0  0
 19 23  1  0  0  0  0
 19 25  1  0  0  0  0
 20  1  1  0  0  0  0
 21 14  1  0  0  0  0
 22 21  1  0  0  0  0
 22 17  1  0  0  0  0
 24 25  1  0  0  0  0
 24 30  1  0  0  0  0
 25 26  1  0  0  0  0
 26 29  2  0  0  0  0
 28 29  1  0  0  0  0
 29 27  1  0  0  0  0
 30 28  1  0  0  0  0
 31 22  1  0  0  0  0
 32 35  1  0  0  0  0
 32 31  1  0  0  0  0
 34 33  2  0  0  0  0
 34 32  1  0  0  0  0
 35 36  1  0  0  0  0
 36 37  1  0  0  0  0
M  END
>  <MODEL>
7

>  <REMARK>
 VINA RESULT:      -6.5      3.647      7.708
  Name = 
  6 active torsions:
  status: ('A' for Active; 'I' for Inactive)
    1  A    between atoms: C_1  and  C_4
    2  A    between atoms: C_1  and  N_27
    3  A    between atoms: C_4  and  C_12
    4  A    between atoms: C_4  and  C_37
    5  A    between atoms: C_8  and  C_12
    6  A    between atoms: C_23  and  C_30
                            x       y       z     vdW  Elec       q    Type
                         _______ _______ _______ _____ _____    ______ ____

>  <TORSDO>
F 6

$$$$
=
 OpenBabel11122411443D

 37 42  0  0  1  0  0  0  0  0999 V2000
  183.7760  177.8810  140.8440 C   0  0  0  0  0  0  0  0  0  0  0  0
  186.7550  178.8430  143.0420 C   0  0  1  0  0  3  0  0  0  0  0  0
  189.8560  178.8420  141.9880 O   0  0  0  0  0  0  0  0  0  0  0  0
  184.3060  179.4900  142.6170 N   0  0  2  0  0  0  0  0  0  0  0  0
  187.5920  177.9820  142.0950 C   0  0  2  0  0  3  0  0  0  0  0  0
  185.6960  179.4890  142.1260 C   0  0  2  0  0  3  0  0  0  0  0  0
  189.0670  177.8030  142.5030 C   0  0  2  0  0  3  0  0  0  0  0  0
  184.2780  179.7380  144.0590 C   0  0  0  0  0  2  0  0  0  0  0  0
  185.8610  178.8850  140.7240 C   0  0  2  0  0  3  0  0  0  0  0  0
  183.2610  178.8700  140.0160 F   0  0  0  0  0  0  0  0  0  0  0  0
  187.1780  177.7150  145.1950 N   0  0  0  0  0  2  0  0  0  0  0  0
  184.9640  178.6280  144.8660 C   0  0  0  0  0  2  0  0  0  0  0  0
  185.1460  177.6690  140.5930 O   0  0  0  0  0  0  0  0  0  0  0  0
  190.2740  177.4770  139.9730 C   0  0  0  0  0  2  0  0  0  0  0  0
  190.8410  178.2500  141.1720 C   0  0  0  0  0  2  0  0  0  0  0  0
  186.1680  177.9810  144.1730 C   0  0  1  0  0  3  0  0  0  0  0  0
  187.3600  178.5880  140.7090 C   0  0  2  0  0  3  0  0  0  0  0  0
  183.5860  178.2530  142.3070 C   0  0  0  0  0  2  0  0  0  0  0  0
  189.3020  177.6020  144.0170 C   0  0  1  0  0  3  0  0  0  0  0  0
  183.0920  176.7070  140.6020 F   0  0  0  0  0  0  0  0  0  0  0  0
  189.1800  178.2600  139.2690 C   0  0  0  0  0  2  0  0  0  0  0  0
  187.8650  177.7270  139.6190 N   0  0  0  0  0  0  0  0  0  0  0  0
  188.1850  176.7990  144.6750 C   0  0  0  0  0  2  0  0  0  0  0  0
  190.7280  175.5160  143.8430 C   0  0  0  0  0  2  0  0  0  0  0  0
  190.6540  176.9590  144.3410 C   0  0  2  0  0  3  0  0  0  0  0  0
  191.0460  177.1010  145.7930 C   0  0  0  0  0  3  0  0  0  0  0  0
  192.1150  176.3970  147.7610 O   0  0  0  0  0  1  0  0  0  0  0  0
  192.1450  174.8680  145.7920 C   0  0  0  0  0  2  0  0  0  0  0  0
  191.7660  176.1760  146.4370 C   0  0  0  0  0  0  0  0  0  0  0  0
  192.0590  174.9110  144.2670 C   0  0  0  0  0  2  0  0  0  0  0  0
  187.0620  177.8760  138.4020 C   0  0  0  0  0  2  0  0  0  0  0  0
  187.7280  177.2100  137.1890 C   0  0  1  0  0  3  0  0  0  0  0  0
  186.2480  175.3770  137.0370 O   0  0  0  0  0  0  0  0  0  0  0  0
  187.4080  175.7530  137.1040 C   0  0  0  0  0  3  0  0  0  0  0  0
  187.3550  177.8990  135.8840 C   0  0  0  0  0  2  0  0  0  0  0  0
  187.9690  177.1780  134.6970 C   0  0  0  0  0  2  0  0  0  0  0  0
  189.3280  177.4810  134.6060 O   0  0  0  0  0  1  0  0  0  0  0  0
  1 18  1  0  0  0  0
  2 16  1  0  0  0  0
  3  7  1  0  0  0  0
  4  8  1  0  0  0  0
  5  7  1  0  0  0  0
  5  2  1  0  0  0  0
  6  4  1  0  0  0  0
  6  2  1  0  0  0  0
  7 19  1  0  0  0  0
  8 12  1  0  0  0  0
  9  6  1  0  0  0  0
 10  1  1  0  0  0  0
 13  9  1  0  0  0  0
 13  1  1  0  0  0  0
 14 15  1  0  0  0  0
 15  3  1  0  0  0  0
 16 12  1  0  0  0  0
 16 11  1  0  0  0  0
 17  9  1  0  0  0  0
 17  5  1  0  0  0  0
 18  4  1  0  0  0  0
 19 25  1  0  0  0  0
 19 23  1  0  0  0  0
 20  1  1  0  0  0  0
 21 22  1  0  0  0  0
 21 14  1  0  0  0  0
 22 17  1  0  0  0  0
 23 11  1  0  0  0  0
 24 30  1  0  0  0  0
 24 25  1  0  0  0  0
 25 26  1  0  0  0  0
 26 29  2  0  0  0  0
 28 29  1  0  0  0  0
 29 27  1  0  0  0  0
 30 28  1  0  0  0  0
 31 22  1  0  0  0  0
 32 31  1  0  0  0  0
 33 34  2  0  0  0  0
 34 32  1  0  0  0  0
 35 32  1  0  0  0  0
 36 35  1  0  0  0  0
 37 36  1  0  0  0  0
M  END
>  <MODEL>
8

>  <REMARK>
 VINA RESULT:      -6.4      3.274      8.516
  Name = 
  6 active torsions:
  status: ('A' for Active; 'I' for Inactive)
    1  A    between atoms: C_1  and  C_4
    2  A    between atoms: C_1  and  N_27
    3  A    between atoms: C_4  and  C_12
    4  A    between atoms: C_4  and  C_37
    5  A    between atoms: C_8  and  C_12
    6  A    between atoms: C_23  and  C_30
                            x       y       z     vdW  Elec       q    Type
                         _______ _______ _______ _____ _____    ______ ____

>  <TORSDO>
F 6

$$$$
=
 OpenBabel11122411443D

 37 42  0  0  1  0  0  0  0  0999 V2000
  182.4680  177.1290  139.2680 C   0  0  0  0  0  0  0  0  0  0  0  0
  185.3970  178.7400  141.1280 C   0  0  1  0  0  3  0  0  0  0  0  0
  188.4100  179.0060  139.8750 O   0  0  0  0  0  0  0  0  0  0  0  0
  182.8630  179.0060  140.7960 N   0  0  2  0  0  0  0  0  0  0  0  0
  186.2940  177.8810  140.2360 C   0  0  2  0  0  3  0  0  0  0  0  0
  184.2140  179.1220  140.2150 C   0  0  2  0  0  3  0  0  0  0  0  0
  187.7980  177.9480  140.5620 C   0  0  2  0  0  3  0  0  0  0  0  0
  182.8750  179.4290  142.1970 C   0  0  0  0  0  2  0  0  0  0  0  0
  184.3870  178.3720  138.8880 C   0  0  2  0  0  3  0  0  0  0  0  0
  181.7810  177.9300  138.3650 F   0  0  0  0  0  0  0  0  0  0  0  0
  186.0800  177.9600  143.3670 N   0  0  0  0  0  2  0  0  0  0  0  0
  183.7480  178.5300  143.0820 C   0  0  0  0  0  2  0  0  0  0  0  0
  183.8400  177.0660  138.9510 O   0  0  0  0  0  0  0  0  0  0  0  0
  188.9070  177.4620  138.0120 C   0  0  0  0  0  2  0  0  0  0  0  0
  189.4240  178.4480  139.0700 C   0  0  0  0  0  2  0  0  0  0  0  0
  184.9920  177.9610  142.3910 C   0  0  1  0  0  3  0  0  0  0  0  0
  185.9100  178.2710  138.8060 C   0  0  2  0  0  3  0  0  0  0  0  0
  182.3040  177.6570  140.6850 C   0  0  0  0  0  2  0  0  0  0  0  0
  188.1360  177.9740  142.0700 C   0  0  1  0  0  3  0  0  0  0  0  0
  181.9390  175.8550  139.2140 F   0  0  0  0  0  0  0  0  0  0  0  0
  187.6810  178.0000  137.2960 C   0  0  0  0  0  2  0  0  0  0  0  0
  186.4720  177.3510  137.7960 N   0  0  0  0  0  0  0  0  0  0  0  0
  187.1740  177.1230  142.8930 C   0  0  0  0  0  2  0  0  0  0  0  0
  189.6360  176.2330  143.1340 C   0  0  0  0  0  2  0  0  0  0  0  0
  189.5780  177.5570  142.3750 C   0  0  2  0  0  3  0  0  0  0  0  0
  190.3830  178.6500  143.0370 C   0  0  0  0  0  3  0  0  0  0  0  0
  192.0710  179.4520  144.4590 O   0  0  0  0  0  1  0  0  0  0  0  0
  191.6420  176.9980  144.4070 C   0  0  0  0  0  2  0  0  0  0  0  0
  191.3540  178.3940  143.9210 C   0  0  0  0  0  0  0  0  0  0  0  0
  191.0850  175.9190  143.4780 C   0  0  0  0  0  2  0  0  0  0  0  0
  185.5950  177.2380  136.6260 C   0  0  0  0  0  2  0  0  0  0  0  0
  185.5650  175.8100  136.0650 C   0  0  1  0  0  3  0  0  0  0  0  0
  184.8930  174.1370  137.5890 O   0  0  0  0  0  0  0  0  0  0  0  0
  185.8160  174.7860  137.1250 C   0  0  0  0  0  3  0  0  0  0  0  0
  184.2560  175.5050  135.3510 C   0  0  0  0  0  2  0  0  0  0  0  0
  183.2460  176.6160  135.5750 C   0  0  0  0  0  2  0  0  0  0  0  0
  182.0020  176.0730  135.8940 O   0  0  0  0  0  1  0  0  0  0  0  0
  1 18  1  0  0  0  0
  2 16  1  0  0  0  0
  3  7  1  0  0  0  0
  4  8  1  0  0  0  0
  5  7  1  0  0  0  0
  5  2  1  0  0  0  0
  6  4  1  0  0  0  0
  6  2  1  0  0  0  0
  7 19  1  0  0  0  0
  8 12  1  0  0  0  0
  9 13  1  0  0  0  0
  9  6  1  0  0  0  0
 10  1  1  0  0  0  0
 13  1  1  0  0  0  0
 14 15  1  0  0  0  0
 15  3  1  0  0  0  0
 16 12  1  0  0  0  0
 16 11  1  0  0  0  0
 17  9  1  0  0  0  0
 17  5  1  0  0  0  0
 18  4  1  0  0  0  0
 19 25  1  0  0  0  0
 19 23  1  0  0  0  0
 20  1  1  0  0  0  0
 21 22  1  0  0  0  0
 21 14  1  0  0  0  0
 22 17  1  0  0  0  0
 23 11  1  0  0  0  0
 24 30  1  0  0  0  0
 25 26  1  0  0  0  0
 25 24  1  0  0  0  0
 26 29  2  0  0  0  0
 29 28  1  0  0  0  0
 29 27  1  0  0  0  0
 30 28  1  0  0  0  0
 31 22  1  0  0  0  0
 32 31  1  0  0  0  0
 32 34  1  0  0  0  0
 34 33  2  0  0  0  0
 35 36  1  0  0  0  0
 35 32  1  0  0  0  0
 36 37  1  0  0  0  0
M  END
>  <MODEL>
9

>  <REMARK>
 VINA RESULT:      -6.4      3.050      8.048
  Name = 
  6 active torsions:
  status: ('A' for Active; 'I' for Inactive)
    1  A    between atoms: C_1  and  C_4
    2  A    between atoms: C_1  and  N_27
    3  A    between atoms: C_4  and  C_12
    4  A    between atoms: C_4  and  C_37
    5  A    between atoms: C_8  and  C_12
    6  A    between atoms: C_23  and  C_30
                            x       y       z     vdW  Elec       q    Type
                         _______ _______ _______ _____ _____    ______ ____

>  <TORSDO>
F 6

$$$$
