=
 OpenBabel11122411583D

 28 32  0  0  1  0  0  0  0  0999 V2000
  180.3760  179.2510  141.6770 C   0  0  0  0  0  0  0  0  0  0  0  0
  180.6780  175.1960  138.6890 C   0  0  0  0  0  1  0  0  0  0  0  0
  185.3690  179.8290  140.9310 O   0  0  0  0  0  0  0  0  0  0  0  0
  180.0830  181.4570  139.8700 C   0  0  0  0  0  2  0  0  0  0  0  0
  184.6960  178.3770  139.1490 C   0  0  0  0  0  0  0  0  0  0  0  0
  180.7430  178.3190  142.6940 N   0  0  0  0  0  2  0  0  0  0  0  0
  179.0320  176.9640  138.1830 C   0  0  0  0  0  1  0  0  0  0  0  0
  180.4580  176.5040  137.9390 C   0  0  0  0  0  0  0  0  0  0  0  0
  181.9110  176.2190  136.0100 C   0  0  0  0  0  0  0  0  0  0  0  0
  181.4440  177.6050  138.4040 C   0  0  2  0  0  3  0  0  0  0  0  0
  183.4020  180.1490  143.6740 O   0  0  0  0  0  0  0  0  0  0  0  0
  182.8930  177.3470  140.3300 C   0  0  1  0  0  3  0  0  0  0  0  0
  183.0710  176.4080  136.9290 C   0  0  0  0  0  2  0  0  0  0  0  0
  180.6290  176.2820  136.5430 O   0  0  0  0  0  0  0  0  0  0  0  0
  182.9260  179.0570  143.4130 C   0  0  0  0  0  0  0  0  0  0  0  0
  181.1270  179.2430  140.3600 C   0  0  2  0  0  3  0  0  0  0  0  0
  184.6090  178.9370  140.4660 C   0  0  0  0  0  0  0  0  0  0  0  0
  182.0870  175.9800  134.7880 O   0  0  0  0  0  0  0  0  0  0  0  0
  183.7270  178.0610  142.6370 C   0  0  0  0  0  2  0  0  0  0  0  0
  180.4380  180.0990  139.2860 C   0  0  0  0  0  2  0  0  0  0  0  0
  179.5120  180.2300  141.9800 C   0  0  0  0  0  3  0  0  0  0  0  0
  179.0610  181.2600  140.9830 C   0  0  0  0  0  2  0  0  0  0  0  0
  181.5330  178.7280  143.8450 C   0  0  0  0  0  2  0  0  0  0  0  0
  183.7100  177.2700  139.0200 C   0  0  1  0  0  3  0  0  0  0  0  0
  183.5860  178.3020  141.2070 N   0  0  0  0  0  0  0  0  0  0  0  0
  182.8280  177.5030  137.8800 N   0  0  2  0  0  0  0  0  0  0  0  0
  185.5190  178.7290  138.2620 O   0  0  0  0  0  0  0  0  0  0  0  0
  181.4870  177.8040  139.9180 C   0  0  1  0  0  3  0  0  0  0  0  0
  1 21  2  0  0  0  0
  1  6  1  0  0  0  0
  4 22  1  0  0  0  0
  5 17  1  0  0  0  0
  6 23  1  0  0  0  0
  8  7  1  0  0  0  0
  8  2  1  0  0  0  0
  9 14  1  0  0  0  0
  9 13  1  0  0  0  0
 10  8  1  1  0  0  0
 10 28  1  0  0  0  0
 12 25  1  1  0  0  0
 14  8  1  0  0  0  0
 15 11  2  0  0  0  0
 15 23  1  0  0  0  0
 16 20  1  6  0  0  0
 16  1  1  0  0  0  0
 17  3  2  0  0  0  0
 17 25  1  0  0  0  0
 18  9  2  0  0  0  0
 19 15  1  0  0  0  0
 20  4  1  0  0  0  0
 22 21  1  0  0  0  0
 24  5  1  1  0  0  0
 24 12  1  0  0  0  0
 25 19  1  0  0  0  0
 26 13  1  6  0  0  0
 26 10  1  0  0  0  0
 26 24  1  0  0  0  0
 27  5  2  0  0  0  0
 28 12  1  0  0  0  0
 28 16  1  0  0  0  0
M  END
>  <MODEL>
1

>  <REMARK>
 VINA RESULT:      -5.6      0.000      0.000
  Name = 
  0 active torsions:
  status: ('A' for Active; 'I' for Inactive)
                            x       y       z     vdW  Elec       q    Type
                         _______ _______ _______ _____ _____    ______ ____

>  <TORSDO>
F 0

$$$$
=
 OpenBabel11122411583D

 28 32  0  0  1  0  0  0  0  0999 V2000
  189.2150  178.3140  138.9380 C   0  0  0  0  0  0  0  0  0  0  0  0
  193.4000  176.6830  136.6380 C   0  0  0  0  0  1  0  0  0  0  0  0
  186.8560  174.3130  136.8780 O   0  0  0  0  0  0  0  0  0  0  0  0
  189.1110  176.8250  141.3850 C   0  0  0  0  0  2  0  0  0  0  0  0
  189.1770  173.7430  136.7180 C   0  0  0  0  0  0  0  0  0  0  0  0
  188.9830  178.9600  137.6870 N   0  0  0  0  0  2  0  0  0  0  0  0
  193.4330  177.1160  139.0680 C   0  0  0  0  0  1  0  0  0  0  0  0
  193.1630  176.0620  138.0100 C   0  0  0  0  0  0  0  0  0  0  0  0
  193.8080  173.7490  137.6230 C   0  0  0  0  0  0  0  0  0  0  0  0
  191.7130  175.5370  138.1600 C   0  0  2  0  0  3  0  0  0  0  0  0
  185.9430  177.5500  137.3070 O   0  0  0  0  0  0  0  0  0  0  0  0
  189.9740  175.9880  136.5330 C   0  0  1  0  0  3  0  0  0  0  0  0
  192.5560  173.5930  136.8290 C   0  0  0  0  0  2  0  0  0  0  0  0
  194.0730  174.9840  138.2030 O   0  0  0  0  0  0  0  0  0  0  0  0
  187.0100  177.8760  136.8150 C   0  0  0  0  0  0  0  0  0  0  0  0
  189.6590  176.8650  138.9500 C   0  0  2  0  0  3  0  0  0  0  0  0
  188.0650  174.6480  136.7640 C   0  0  0  0  0  0  0  0  0  0  0  0
  194.6190  172.7960  137.7440 O   0  0  0  0  0  0  0  0  0  0  0  0
  187.7060  176.9550  135.8650 C   0  0  0  0  0  2  0  0  0  0  0  0
  190.1310  176.4060  140.3390 C   0  0  0  0  0  2  0  0  0  0  0  0
  188.8510  178.9400  140.0660 C   0  0  0  0  0  3  0  0  0  0  0  0
  189.0510  178.3470  141.4320 C   0  0  0  0  0  2  0  0  0  0  0  0
  187.6340  179.1820  137.1890 C   0  0  0  0  0  2  0  0  0  0  0  0
  190.4240  174.5110  136.4530 C   0  0  1  0  0  3  0  0  0  0  0  0
  188.5060  175.9820  136.5960 N   0  0  0  0  0  0  0  0  0  0  0  0
  191.4150  174.2460  137.4910 N   0  0  2  0  0  0  0  0  0  0  0  0
  189.1000  172.4910  136.8260 O   0  0  0  0  0  0  0  0  0  0  0  0
  190.6400  176.5580  137.7920 C   0  0  1  0  0  3  0  0  0  0  0  0
  1 16  1  0  0  0  0
  1 21  2  0  0  0  0
  2  8  1  0  0  0  0
  4 22  1  0  0  0  0
  5 17  1  0  0  0  0
  5 27  2  0  0  0  0
  6  1  1  0  0  0  0
  8 14  1  0  0  0  0
  8  7  1  0  0  0  0
  9 18  2  0  0  0  0
  9 14  1  0  0  0  0
 10  8  1  6  0  0  0
 12 25  1  1  0  0  0
 12 28  1  0  0  0  0
 13  9  1  0  0  0  0
 15 23  1  0  0  0  0
 15 11  2  0  0  0  0
 16 20  1  1  0  0  0
 17  3  2  0  0  0  0
 19 25  1  0  0  0  0
 19 15  1  0  0  0  0
 20  4  1  0  0  0  0
 21 22  1  0  0  0  0
 23  6  1  0  0  0  0
 24 12  1  0  0  0  0
 24  5  1  1  0  0  0
 24 26  1  0  0  0  0
 25 17  1  0  0  0  0
 26 13  1  6  0  0  0
 26 10  1  0  0  0  0
 28 10  1  0  0  0  0
 28 16  1  0  0  0  0
M  END
>  <MODEL>
2

>  <REMARK>
 VINA RESULT:      -5.5      6.927      9.888
  Name = 
  0 active torsions:
  status: ('A' for Active; 'I' for Inactive)
                            x       y       z     vdW  Elec       q    Type
                         _______ _______ _______ _____ _____    ______ ____

>  <TORSDO>
F 0

$$$$
=
 OpenBabel11122411583D

 28 32  0  0  1  0  0  0  0  0999 V2000
  182.4550  179.2560  138.8530 C   0  0  0  0  0  0  0  0  0  0  0  0
  180.5370  175.6130  135.9360 C   0  0  0  0  0  1  0  0  0  0  0  0
  179.0770  177.8340  142.3730 O   0  0  0  0  0  0  0  0  0  0  0  0
  184.3860  177.9210  140.4970 C   0  0  0  0  0  2  0  0  0  0  0  0
  179.1610  175.9610  140.8820 C   0  0  0  0  0  0  0  0  0  0  0  0
  181.3910  180.0280  138.2970 N   0  0  0  0  0  2  0  0  0  0  0  0
  182.9670  175.6830  136.3600 C   0  0  0  0  0  1  0  0  0  0  0  0
  181.6450  175.1410  136.8700 C   0  0  0  0  0  0  0  0  0  0  0  0
  180.7900  172.9850  137.6020 C   0  0  0  0  0  0  0  0  0  0  0  0
  181.4140  175.6240  138.3250 C   0  0  2  0  0  3  0  0  0  0  0  0
  180.1660  180.8690  141.3250 O   0  0  0  0  0  0  0  0  0  0  0  0
  179.6930  177.2220  138.9240 C   0  0  1  0  0  3  0  0  0  0  0  0
  179.7860  173.7260  138.4200 C   0  0  0  0  0  2  0  0  0  0  0  0
  181.7030  173.7180  136.8530 O   0  0  0  0  0  0  0  0  0  0  0  0
  179.9570  180.5050  140.1790 C   0  0  0  0  0  0  0  0  0  0  0  0
  182.1680  177.8550  139.3540 C   0  0  2  0  0  3  0  0  0  0  0  0
  179.2540  177.3510  141.2220 C   0  0  0  0  0  0  0  0  0  0  0  0
  180.7940  171.7280  137.5670 O   0  0  0  0  0  0  0  0  0  0  0  0
  178.9310  179.4540  139.9060 C   0  0  0  0  0  2  0  0  0  0  0  0
  183.4510  177.0650  139.6580 C   0  0  0  0  0  2  0  0  0  0  0  0
  183.6300  179.8550  139.0940 C   0  0  0  0  0  3  0  0  0  0  0  0
  184.8120  179.1320  139.6770 C   0  0  0  0  0  2  0  0  0  0  0  0
  180.7510  181.0910  139.0560 C   0  0  0  0  0  2  0  0  0  0  0  0
  179.3130  175.8050  139.4100 C   0  0  1  0  0  3  0  0  0  0  0  0
  179.5100  178.1260  140.0670 N   0  0  0  0  0  0  0  0  0  0  0  0
  180.3970  174.8760  139.1050 N   0  0  2  0  0  0  0  0  0  0  0  0
  178.9310  175.0270  141.6960 O   0  0  0  0  0  0  0  0  0  0  0  0
  181.1480  177.1220  138.4490 C   0  0  1  0  0  3  0  0  0  0  0  0
  1 21  2  0  0  0  0
  1 16  1  0  0  0  0
  2  8  1  0  0  0  0
  5 17  1  0  0  0  0
  5 27  2  0  0  0  0
  6  1  1  0  0  0  0
  6 23  1  0  0  0  0
  7  8  1  0  0  0  0
  9 13  1  0  0  0  0
 10  8  1  6  0  0  0
 10 28  1  0  0  0  0
 10 26  1  0  0  0  0
 12 24  1  0  0  0  0
 12 25  1  1  0  0  0
 14  8  1  0  0  0  0
 14  9  1  0  0  0  0
 15 11  2  0  0  0  0
 16 20  1  6  0  0  0
 17  3  2  0  0  0  0
 18  9  2  0  0  0  0
 19 25  1  0  0  0  0
 19 15  1  0  0  0  0
 20  4  1  0  0  0  0
 21 22  1  0  0  0  0
 22  4  1  0  0  0  0
 23 15  1  0  0  0  0
 24  5  1  1  0  0  0
 25 17  1  0  0  0  0
 26 13  1  6  0  0  0
 26 24  1  0  0  0  0
 28 12  1  0  0  0  0
 28 16  1  0  0  0  0
M  END
>  <MODEL>
3

>  <REMARK>
 VINA RESULT:      -5.4      2.620      4.683
  Name = 
  0 active torsions:
  status: ('A' for Active; 'I' for Inactive)
                            x       y       z     vdW  Elec       q    Type
                         _______ _______ _______ _____ _____    ______ ____

>  <TORSDO>
F 0

$$$$
=
 OpenBabel11122411583D

 28 32  0  0  1  0  0  0  0  0999 V2000
  189.1680  177.9630  137.8560 C   0  0  0  0  0  0  0  0  0  0  0  0
  192.5710  175.6590  134.9280 C   0  0  0  0  0  1  0  0  0  0  0  0
  186.1690  173.9390  137.0600 O   0  0  0  0  0  0  0  0  0  0  0  0
  189.5870  176.8470  140.4630 C   0  0  0  0  0  2  0  0  0  0  0  0
  188.3460  173.1480  136.4540 C   0  0  0  0  0  0  0  0  0  0  0  0
  188.6710  178.4460  136.6080 N   0  0  0  0  0  2  0  0  0  0  0  0
  193.2200  176.4230  137.1830 C   0  0  0  0  0  1  0  0  0  0  0  0
  192.6450  175.2600  136.3970 C   0  0  0  0  0  0  0  0  0  0  0  0
  193.0510  172.8670  136.2400 C   0  0  0  0  0  0  0  0  0  0  0  0
  191.2490  174.8920  136.9630 C   0  0  2  0  0  3  0  0  0  0  0  0
  185.5600  177.2730  137.1760 O   0  0  0  0  0  0  0  0  0  0  0  0
  189.1920  175.2650  135.7370 C   0  0  1  0  0  3  0  0  0  0  0  0
  191.6370  172.7140  135.7940 C   0  0  0  0  0  2  0  0  0  0  0  0
  193.5160  174.1430  136.5400 O   0  0  0  0  0  0  0  0  0  0  0  0
  186.4910  177.4300  136.4040 C   0  0  0  0  0  0  0  0  0  0  0  0
  189.5240  176.4960  137.9920 C   0  0  2  0  0  3  0  0  0  0  0  0
  187.3290  174.1460  136.6160 C   0  0  0  0  0  0  0  0  0  0  0  0
  193.8160  171.8720  136.3150 O   0  0  0  0  0  0  0  0  0  0  0  0
  186.8830  176.3270  135.4740 C   0  0  0  0  0  2  0  0  0  0  0  0
  190.2970  176.1960  139.2870 C   0  0  0  0  0  2  0  0  0  0  0  0
  189.1240  178.7710  138.9250 C   0  0  0  0  0  3  0  0  0  0  0  0
  189.6210  178.3590  140.2820 C   0  0  0  0  0  2  0  0  0  0  0  0
  187.2550  178.7150  136.4110 C   0  0  0  0  0  2  0  0  0  0  0  0
  189.5300  173.7570  135.7880 C   0  0  1  0  0  3  0  0  0  0  0  0
  187.7850  175.3990  136.1420 N   0  0  0  0  0  0  0  0  0  0  0  0
  190.7290  173.5520  136.5940 N   0  0  2  0  0  0  0  0  0  0  0  0
  188.2320  171.9350  136.7730 O   0  0  0  0  0  0  0  0  0  0  0  0
  190.1740  175.9440  136.7000 C   0  0  1  0  0  3  0  0  0  0  0  0
  1 16  1  0  0  0  0
  1 21  2  0  0  0  0
  2  8  1  0  0  0  0
  5 17  1  0  0  0  0
  5 27  2  0  0  0  0
  6  1  1  0  0  0  0
  8 14  1  0  0  0  0
  8  7  1  0  0  0  0
  9 18  2  0  0  0  0
  9 14  1  0  0  0  0
 10  8  1  6  0  0  0
 12 24  1  0  0  0  0
 12 25  1  1  0  0  0
 12 28  1  0  0  0  0
 13  9  1  0  0  0  0
 15 23  1  0  0  0  0
 15 11  2  0  0  0  0
 16 20  1  1  0  0  0
 17  3  2  0  0  0  0
 19 25  1  0  0  0  0
 19 15  1  0  0  0  0
 20  4  1  0  0  0  0
 21 22  1  0  0  0  0
 22  4  1  0  0  0  0
 23  6  1  0  0  0  0
 24  5  1  1  0  0  0
 24 26  1  0  0  0  0
 25 17  1  0  0  0  0
 26 13  1  6  0  0  0
 26 10  1  0  0  0  0
 28 10  1  0  0  0  0
 28 16  1  0  0  0  0
M  END
>  <MODEL>
4

>  <REMARK>
 VINA RESULT:      -5.4      6.920      9.832
  Name = 
  0 active torsions:
  status: ('A' for Active; 'I' for Inactive)
                            x       y       z     vdW  Elec       q    Type
                         _______ _______ _______ _____ _____    ______ ____

>  <TORSDO>
F 0

$$$$
=
 OpenBabel11122411583D

 28 32  0  0  1  0  0  0  0  0999 V2000
  189.1180  173.7360  135.3030 C   0  0  0  0  0  0  0  0  0  0  0  0
  186.0910  177.7400  134.7820 C   0  0  0  0  0  1  0  0  0  0  0  0
  190.9110  175.9850  139.4920 O   0  0  0  0  0  0  0  0  0  0  0  0
  187.7180  172.0050  137.1080 C   0  0  0  0  0  2  0  0  0  0  0  0
  188.8390  177.1150  139.0880 C   0  0  0  0  0  0  0  0  0  0  0  0
  190.0450  174.5580  134.5940 N   0  0  0  0  0  2  0  0  0  0  0  0
  185.1220  175.4700  134.7880 C   0  0  0  0  0  1  0  0  0  0  0  0
  185.5190  176.6400  135.6690 C   0  0  0  0  0  0  0  0  0  0  0  0
  184.4880  177.9310  137.4540 C   0  0  0  0  0  0  0  0  0  0  0  0
  186.5450  176.1660  136.7290 C   0  0  2  0  0  3  0  0  0  0  0  0
  192.4120  174.2730  136.9800 O   0  0  0  0  0  0  0  0  0  0  0  0
  188.8690  176.8540  136.7130 C   0  0  1  0  0  3  0  0  0  0  0  0
  185.8620  178.2440  137.9420 C   0  0  0  0  0  2  0  0  0  0  0  0
  184.3540  177.1250  136.3290 O   0  0  0  0  0  0  0  0  0  0  0  0
  191.8070  174.9780  136.1900 C   0  0  0  0  0  0  0  0  0  0  0  0
  188.3270  174.3340  136.4490 C   0  0  2  0  0  3  0  0  0  0  0  0
  190.0220  176.4030  138.7030 C   0  0  0  0  0  0  0  0  0  0  0  0
  183.4740  178.4070  138.0260 O   0  0  0  0  0  0  0  0  0  0  0  0
  191.3700  176.3490  136.5960 C   0  0  0  0  0  2  0  0  0  0  0  0
  187.1870  173.4160  136.9180 C   0  0  0  0  0  2  0  0  0  0  0  0
  189.1110  172.4170  135.0660 C   0  0  0  0  0  3  0  0  0  0  0  0
  188.1760  171.4660  135.7580 C   0  0  0  0  0  2  0  0  0  0  0  0
  191.4780  174.4570  134.8280 C   0  0  0  0  0  2  0  0  0  0  0  0
  188.1040  177.5440  137.8660 C   0  0  1  0  0  3  0  0  0  0  0  0
  190.0930  176.2870  137.2950 N   0  0  0  0  0  0  0  0  0  0  0  0
  186.7290  177.0560  137.9010 N   0  0  2  0  0  0  0  0  0  0  0  0
  188.5050  177.3850  140.2730 O   0  0  0  0  0  0  0  0  0  0  0  0
  187.9100  175.7960  136.1530 C   0  0  1  0  0  3  0  0  0  0  0  0
  1 16  1  0  0  0  0
  2  8  1  0  0  0  0
  5 27  2  0  0  0  0
  6 23  1  0  0  0  0
  6  1  1  0  0  0  0
  7  8  1  0  0  0  0
  8 14  1  0  0  0  0
  9 13  1  0  0  0  0
  9 18  2  0  0  0  0
 10  8  1  6  0  0  0
 10 26  1  0  0  0  0
 12 25  1  1  0  0  0
 12 24  1  0  0  0  0
 14  9  1  0  0  0  0
 15 19  1  0  0  0  0
 15 11  2  0  0  0  0
 16 20  1  6  0  0  0
 17  5  1  0  0  0  0
 17  3  2  0  0  0  0
 19 25  1  0  0  0  0
 20  4  1  0  0  0  0
 21  1  2  0  0  0  0
 21 22  1  0  0  0  0
 22  4  1  0  0  0  0
 23 15  1  0  0  0  0
 24 26  1  0  0  0  0
 24  5  1  1  0  0  0
 25 17  1  0  0  0  0
 26 13  1  6  0  0  0
 28 16  1  0  0  0  0
 28 12  1  0  0  0  0
 28 10  1  0  0  0  0
M  END
>  <MODEL>
5

>  <REMARK>
 VINA RESULT:      -5.3      5.668      8.893
  Name = 
  0 active torsions:
  status: ('A' for Active; 'I' for Inactive)
                            x       y       z     vdW  Elec       q    Type
                         _______ _______ _______ _____ _____    ______ ____

>  <TORSDO>
F 0

$$$$
=
 OpenBabel11122411583D

 28 32  0  0  1  0  0  0  0  0999 V2000
  185.1790  175.7710  135.7790 C   0  0  0  0  0  0  0  0  0  0  0  0
  181.5060  178.9160  137.2230 C   0  0  0  0  0  1  0  0  0  0  0  0
  188.0610  177.9340  139.3610 O   0  0  0  0  0  0  0  0  0  0  0  0
  184.9880  173.5590  137.5920 C   0  0  0  0  0  2  0  0  0  0  0  0
  185.8310  178.5430  139.9870 C   0  0  0  0  0  0  0  0  0  0  0  0
  185.5640  176.8710  134.9550 N   0  0  0  0  0  2  0  0  0  0  0  0
  181.0700  176.4880  137.1370 C   0  0  0  0  0  1  0  0  0  0  0  0
  181.5620  177.6180  138.0220 C   0  0  0  0  0  0  0  0  0  0  0  0
  181.1230  178.4080  140.2790 C   0  0  0  0  0  0  0  0  0  0  0  0
  183.0000  177.3060  138.5090 C   0  0  2  0  0  3  0  0  0  0  0  0
  188.7040  176.9360  136.1850 O   0  0  0  0  0  0  0  0  0  0  0  0
  184.9410  178.5550  137.7690 C   0  0  1  0  0  3  0  0  0  0  0  0
  182.4910  179.0030  140.2760 C   0  0  0  0  0  2  0  0  0  0  0  0
  180.6990  177.7200  139.1490 O   0  0  0  0  0  0  0  0  0  0  0  0
  187.7090  177.5470  135.8330 C   0  0  0  0  0  0  0  0  0  0  0  0
  184.8250  176.0240  137.2300 C   0  0  2  0  0  3  0  0  0  0  0  0
  186.8670  178.1970  139.0580 C   0  0  0  0  0  0  0  0  0  0  0  0
  180.3600  178.5490  141.2690 O   0  0  0  0  0  0  0  0  0  0  0  0
  187.2250  178.7110  136.6360 C   0  0  0  0  0  2  0  0  0  0  0  0
  184.1690  174.8030  137.8960 C   0  0  0  0  0  2  0  0  0  0  0  0
  185.3250  174.5260  135.3040 C   0  0  0  0  0  3  0  0  0  0  0  0
  184.9500  173.3020  136.0900 C   0  0  0  0  0  2  0  0  0  0  0  0
  186.9590  177.1090  134.6160 C   0  0  0  0  0  2  0  0  0  0  0  0
  184.5970  178.9020  139.2360 C   0  0  1  0  0  3  0  0  0  0  0  0
  186.3800  178.2550  137.7310 N   0  0  0  0  0  0  0  0  0  0  0  0
  183.4740  178.0830  139.6810 N   0  0  2  0  0  0  0  0  0  0  0  0
  185.9640  178.5910  141.2390 O   0  0  0  0  0  0  0  0  0  0  0  0
  184.0560  177.3560  137.4070 C   0  0  1  0  0  3  0  0  0  0  0  0
  1 16  1  0  0  0  0
  2  8  1  0  0  0  0
  4 20  1  0  0  0  0
  5 27  2  0  0  0  0
  6  1  1  0  0  0  0
  7  8  1  0  0  0  0
  8 14  1  0  0  0  0
  9 18  2  0  0  0  0
 10  8  1  6  0  0  0
 10 26  1  0  0  0  0
 12 25  1  1  0  0  0
 12 24  1  0  0  0  0
 13  9  1  0  0  0  0
 14  9  1  0  0  0  0
 15 11  2  0  0  0  0
 15 19  1  0  0  0  0
 16 28  1  0  0  0  0
 16 20  1  6  0  0  0
 17  3  2  0  0  0  0
 17  5  1  0  0  0  0
 19 25  1  0  0  0  0
 21  1  2  0  0  0  0
 21 22  1  0  0  0  0
 22  4  1  0  0  0  0
 23  6  1  0  0  0  0
 23 15  1  0  0  0  0
 24 26  1  0  0  0  0
 24  5  1  1  0  0  0
 25 17  1  0  0  0  0
 26 13  1  6  0  0  0
 28 12  1  0  0  0  0
 28 10  1  0  0  0  0
M  END
>  <MODEL>
6

>  <REMARK>
 VINA RESULT:      -5.0      2.746      6.310
  Name = 
  0 active torsions:
  status: ('A' for Active; 'I' for Inactive)
                            x       y       z     vdW  Elec       q    Type
                         _______ _______ _______ _____ _____    ______ ____

>  <TORSDO>
F 0

$$$$
=
 OpenBabel11122411583D

 28 32  0  0  1  0  0  0  0  0999 V2000
  185.4540  174.8220  136.9010 C   0  0  0  0  0  0  0  0  0  0  0  0
  183.4300  177.9460  140.3080 C   0  0  0  0  0  1  0  0  0  0  0  0
  180.9130  174.8130  134.6200 O   0  0  0  0  0  0  0  0  0  0  0  0
  186.2740  176.5330  134.7520 C   0  0  0  0  0  2  0  0  0  0  0  0
  180.8330  176.7470  136.0300 C   0  0  0  0  0  0  0  0  0  0  0  0
  184.9100  173.8140  137.7520 N   0  0  0  0  0  2  0  0  0  0  0  0
  185.5120  178.5880  139.1490 C   0  0  0  0  0  1  0  0  0  0  0  0
  183.9980  178.6490  139.0810 C   0  0  0  0  0  0  0  0  0  0  0  0
  182.3200  180.3620  138.6730 C   0  0  0  0  0  0  0  0  0  0  0  0
  183.5110  177.9900  137.7650 C   0  0  2  0  0  3  0  0  0  0  0  0
  183.1760  172.3670  135.2460 O   0  0  0  0  0  0  0  0  0  0  0  0
  182.2980  175.8930  137.7130 C   0  0  1  0  0  3  0  0  0  0  0  0
  181.4110  179.2790  138.2000 C   0  0  0  0  0  2  0  0  0  0  0  0
  183.5990  180.0160  139.0940 O   0  0  0  0  0  0  0  0  0  0  0  0
  183.2130  172.7510  136.4030 C   0  0  0  0  0  0  0  0  0  0  0  0
  184.5980  176.0160  136.5280 C   0  0  2  0  0  3  0  0  0  0  0  0
  181.2600  175.4290  135.6630 C   0  0  0  0  0  0  0  0  0  0  0  0
  181.9310  181.5580  138.7190 O   0  0  0  0  0  0  0  0  0  0  0  0
  182.0340  173.4560  136.9930 C   0  0  0  0  0  2  0  0  0  0  0  0
  185.4090  177.1310  135.8490 C   0  0  0  0  0  2  0  0  0  0  0  0
  186.6310  174.5940  136.3000 C   0  0  0  0  0  3  0  0  0  0  0  0
  187.2890  175.5900  135.3870 C   0  0  0  0  0  2  0  0  0  0  0  0
  184.4490  172.5410  137.2180 C   0  0  0  0  0  2  0  0  0  0  0  0
  181.3570  177.0750  137.3850 C   0  0  1  0  0  3  0  0  0  0  0  0
  182.0820  174.8770  136.6740 N   0  0  0  0  0  0  0  0  0  0  0  0
  182.1250  178.3150  137.3470 N   0  0  2  0  0  0  0  0  0  0  0  0
  180.0840  177.4880  135.3390 O   0  0  0  0  0  0  0  0  0  0  0  0
  183.7160  176.4780  137.7140 C   0  0  1  0  0  3  0  0  0  0  0  0
  1  6  1  0  0  0  0
  3 17  2  0  0  0  0
  4 22  1  0  0  0  0
  4 20  1  0  0  0  0
  8 14  1  0  0  0  0
  8  7  1  0  0  0  0
  8  2  1  0  0  0  0
  9 18  2  0  0  0  0
  9 14  1  0  0  0  0
 10  8  1  1  0  0  0
 11 15  2  0  0  0  0
 12 25  1  6  0  0  0
 12 28  1  0  0  0  0
 13  9  1  0  0  0  0
 15 19  1  0  0  0  0
 15 23  1  0  0  0  0
 16 20  1  1  0  0  0
 16  1  1  0  0  0  0
 16 28  1  0  0  0  0
 17  5  1  0  0  0  0
 17 25  1  0  0  0  0
 21  1  2  0  0  0  0
 22 21  1  0  0  0  0
 23  6  1  0  0  0  0
 24  5  1  6  0  0  0
 24 12  1  0  0  0  0
 25 19  1  0  0  0  0
 26 24  1  0  0  0  0
 26 10  1  0  0  0  0
 26 13  1  1  0  0  0
 27  5  2  0  0  0  0
 28 10  1  0  0  0  0
M  END
>  <MODEL>
7

>  <REMARK>
 VINA RESULT:      -4.8      2.740      7.014
  Name = 
  0 active torsions:
  status: ('A' for Active; 'I' for Inactive)
                            x       y       z     vdW  Elec       q    Type
                         _______ _______ _______ _____ _____    ______ ____

>  <TORSDO>
F 0

$$$$
=
 OpenBabel11122411583D

 28 32  0  0  1  0  0  0  0  0999 V2000
  183.1450  177.4530  136.2860 C   0  0  0  0  0  0  0  0  0  0  0  0
  187.9580  177.5440  134.7710 C   0  0  0  0  0  1  0  0  0  0  0  0
  183.8420  172.5200  137.2840 O   0  0  0  0  0  0  0  0  0  0  0  0
  183.2760  177.8110  139.1260 C   0  0  0  0  0  2  0  0  0  0  0  0
  186.0700  173.3870  137.1470 C   0  0  0  0  0  0  0  0  0  0  0  0
  182.9070  177.0380  134.9410 N   0  0  0  0  0  2  0  0  0  0  0  0
  187.1820  179.1590  136.4680 C   0  0  0  0  0  1  0  0  0  0  0  0
  187.7730  177.7770  136.2660 C   0  0  0  0  0  0  0  0  0  0  0  0
  189.6190  176.4970  137.1980 C   0  0  0  0  0  0  0  0  0  0  0  0
  186.8380  176.7160  136.9010 C   0  0  2  0  0  3  0  0  0  0  0  0
  181.2750  174.2430  135.8920 O   0  0  0  0  0  0  0  0  0  0  0  0
  185.5670  175.1250  135.5860 C   0  0  1  0  0  3  0  0  0  0  0  0
  188.8710  175.2600  136.8310 C   0  0  0  0  0  2  0  0  0  0  0  0
  189.0410  177.7280  136.9120 O   0  0  0  0  0  0  0  0  0  0  0  0
  182.0850  174.7780  135.1540 C   0  0  0  0  0  0  0  0  0  0  0  0
  184.2740  176.8120  137.0680 C   0  0  2  0  0  3  0  0  0  0  0  0
  184.6740  173.3460  136.8230 C   0  0  0  0  0  0  0  0  0  0  0  0
  190.7580  176.4300  137.7270 O   0  0  0  0  0  0  0  0  0  0  0  0
  183.3650  174.0800  134.8210 C   0  0  0  0  0  2  0  0  0  0  0  0
  184.5750  177.5550  138.3790 C   0  0  0  0  0  2  0  0  0  0  0  0
  182.2500  178.2520  136.8830 C   0  0  0  0  0  3  0  0  0  0  0  0
  182.4070  178.7450  138.2940 C   0  0  0  0  0  2  0  0  0  0  0  0
  181.8090  176.1420  134.6090 C   0  0  0  0  0  2  0  0  0  0  0  0
  186.7380  174.4210  136.3090 C   0  0  1  0  0  3  0  0  0  0  0  0
  184.3610  174.3290  135.8540 N   0  0  0  0  0  0  0  0  0  0  0  0
  187.4400  175.3840  137.1530 N   0  0  2  0  0  0  0  0  0  0  0  0
  186.6490  172.6280  137.9680 O   0  0  0  0  0  0  0  0  0  0  0  0
  185.5080  176.5420  136.1710 C   0  0  1  0  0  3  0  0  0  0  0  0
  1 21  2  0  0  0  0
  1 16  1  0  0  0  0
  2  8  1  0  0  0  0
  5 27  2  0  0  0  0
  6  1  1  0  0  0  0
  8  7  1  0  0  0  0
  8 14  1  0  0  0  0
  9 18  2  0  0  0  0
 10  8  1  6  0  0  0
 10 26  1  0  0  0  0
 12 25  1  1  0  0  0
 12 28  1  0  0  0  0
 12 24  1  0  0  0  0
 13  9  1  0  0  0  0
 14  9  1  0  0  0  0
 15 11  2  0  0  0  0
 16 20  1  1  0  0  0
 17  5  1  0  0  0  0
 17  3  2  0  0  0  0
 19 15  1  0  0  0  0
 19 25  1  0  0  0  0
 20  4  1  0  0  0  0
 21 22  1  0  0  0  0
 22  4  1  0  0  0  0
 23  6  1  0  0  0  0
 23 15  1  0  0  0  0
 24  5  1  1  0  0  0
 24 26  1  0  0  0  0
 25 17  1  0  0  0  0
 26 13  1  6  0  0  0
 28 10  1  0  0  0  0
 28 16  1  0  0  0  0
M  END
>  <MODEL>
8

>  <REMARK>
 VINA RESULT:      -4.6      4.063      7.162
  Name = 
  0 active torsions:
  status: ('A' for Active; 'I' for Inactive)
                            x       y       z     vdW  Elec       q    Type
                         _______ _______ _______ _____ _____    ______ ____

>  <TORSDO>
F 0

$$$$
=
 OpenBabel11122411583D

 28 32  0  0  1  0  0  0  0  0999 V2000
  182.4410  178.2470  137.1950 C   0  0  0  0  0  0  0  0  0  0  0  0
  186.8450  177.2190  134.9570 C   0  0  0  0  0  1  0  0  0  0  0  0
  181.6420  173.2300  137.3040 O   0  0  0  0  0  0  0  0  0  0  0  0
  182.9790  177.9900  139.9980 C   0  0  0  0  0  2  0  0  0  0  0  0
  184.0010  173.4170  136.9440 C   0  0  0  0  0  0  0  0  0  0  0  0
  181.9420  178.1900  135.8580 N   0  0  0  0  0  2  0  0  0  0  0  0
  186.8050  178.6280  136.9830 C   0  0  0  0  0  1  0  0  0  0  0  0
  186.9030  177.2000  136.4800 C   0  0  0  0  0  0  0  0  0  0  0  0
  188.3370  175.2800  136.8960 C   0  0  0  0  0  0  0  0  0  0  0  0
  185.7530  176.3570  137.0880 C   0  0  2  0  0  3  0  0  0  0  0  0
  179.6200  175.8660  136.6230 O   0  0  0  0  0  0  0  0  0  0  0  0
  183.9120  175.4960  135.7680 C   0  0  1  0  0  3  0  0  0  0  0  0
  187.2010  174.4120  136.4710 C   0  0  0  0  0  2  0  0  0  0  0  0
  188.1520  176.6570  136.8980 O   0  0  0  0  0  0  0  0  0  0  0  0
  180.4750  176.2730  135.8540 C   0  0  0  0  0  0  0  0  0  0  0  0
  183.3850  177.1650  137.6780 C   0  0  2  0  0  3  0  0  0  0  0  0
  182.6380  173.8500  136.8460 C   0  0  0  0  0  0  0  0  0  0  0  0
  189.4460  174.7810  137.2190 O   0  0  0  0  0  0  0  0  0  0  0  0
  181.4250  175.3100  135.2170 C   0  0  0  0  0  2  0  0  0  0  0  0
  184.0430  177.5160  139.0220 C   0  0  0  0  0  2  0  0  0  0  0  0
  181.9140  179.1410  138.0430 C   0  0  0  0  0  3  0  0  0  0  0  0
  182.3670  179.2820  139.4690 C   0  0  0  0  0  2  0  0  0  0  0  0
  180.5890  177.7370  135.5750 C   0  0  0  0  0  2  0  0  0  0  0  0
  184.8700  174.3530  136.1770 C   0  0  1  0  0  3  0  0  0  0  0  0
  182.5520  175.0500  136.1020 N   0  0  0  0  0  0  0  0  0  0  0  0
  185.9260  174.8840  137.0330 N   0  0  2  0  0  0  0  0  0  0  0  0
  184.3940  172.3770  137.5360 O   0  0  0  0  0  0  0  0  0  0  0  0
  184.3670  176.7250  136.5640 C   0  0  1  0  0  3  0  0  0  0  0  0
  1 16  1  0  0  0  0
  1 21  2  0  0  0  0
  2  8  1  0  0  0  0
  5 27  2  0  0  0  0
  6  1  1  0  0  0  0
  8 14  1  0  0  0  0
  8  7  1  0  0  0  0
  9 14  1  0  0  0  0
  9 18  2  0  0  0  0
 10  8  1  6  0  0  0
 12 25  1  1  0  0  0
 12 24  1  0  0  0  0
 12 28  1  0  0  0  0
 13  9  1  0  0  0  0
 15 11  2  0  0  0  0
 16 20  1  1  0  0  0
 17  5  1  0  0  0  0
 17  3  2  0  0  0  0
 19 15  1  0  0  0  0
 19 25  1  0  0  0  0
 20  4  1  0  0  0  0
 21 22  1  0  0  0  0
 22  4  1  0  0  0  0
 23 15  1  0  0  0  0
 23  6  1  0  0  0  0
 24  5  1  1  0  0  0
 24 26  1  0  0  0  0
 25 17  1  0  0  0  0
 26 13  1  6  0  0  0
 26 10  1  0  0  0  0
 28 10  1  0  0  0  0
 28 16  1  0  0  0  0
M  END
>  <MODEL>
9

>  <REMARK>
 VINA RESULT:      -4.5      3.557      6.367
  Name = 
  0 active torsions:
  status: ('A' for Active; 'I' for Inactive)
                            x       y       z     vdW  Elec       q    Type
                         _______ _______ _______ _____ _____    ______ ____

>  <TORSDO>
F 0

$$$$
