=
 OpenBabel11122411243D

 37 43  0  0  1  0  0  0  0  0999 V2000
  187.4850  177.2180  138.1510 C   0  0  0  0  0  2  0  0  0  0  0  0
  182.2490  175.9900  138.0430 C   0  0  0  0  0  0  0  0  0  0  0  0
  185.4400  173.7940  136.5440 C   0  0  0  0  0  0  0  0  0  0  0  0
  188.1200  178.5710  138.4700 C   0  0  2  0  0  3  0  0  0  0  0  0
  187.9370  175.2850  134.5940 C   0  0  0  0  0  2  0  0  0  0  0  0
  183.1050  173.8360  137.1320 C   0  0  0  0  0  0  0  0  0  0  0  0
  186.4240  174.7770  136.4510 C   0  0  0  0  0  0  0  0  0  0  0  0
  189.5700  178.0490  136.3870 C   0  0  2  0  0  3  0  0  0  0  0  0
  184.3120  174.4400  136.9160 C   0  0  0  0  0  0  0  0  0  0  0  0
  187.8390  174.6050  135.9490 C   0  0  1  0  0  3  0  0  0  0  0  0
  183.0330  172.4440  136.9430 C   0  0  0  0  0  3  0  0  0  0  0  0
  189.0220  179.1120  137.3500 C   0  0  0  0  0  2  0  0  0  0  0  0
  184.5660  175.7500  137.0660 C   0  0  0  0  0  0  0  0  0  0  0  0
  182.4650  175.9170  139.5430 C   0  0  0  0  0  1  0  0  0  0  0  0
  186.6990  171.6610  136.0990 C   0  0  0  0  0  2  0  0  0  0  0  0
  184.2070  171.7270  136.5820 C   0  0  0  0  0  3  0  0  0  0  0  0
  183.4700  176.7200  137.4000 C   0  0  0  0  0  2  0  0  0  0  0  0
  188.5610  177.5600  135.4310 N   0  0  1  0  0  0  0  0  0  0  0  0
  188.9660  176.4060  134.6180 C   0  0  0  0  0  2  0  0  0  0  0  0
  185.4400  172.4040  136.4000 C   0  0  0  0  0  0  0  0  0  0  0  0
  185.8670  175.9860  136.7730 N   0  0  0  0  0  0  0  0  0  0  0  0
  182.0360  174.6480  137.5350 O   0  0  0  0  0  0  0  0  0  0  0  0
  188.3190  173.1490  135.7870 C   0  0  2  0  0  3  0  0  0  0  0  0
  181.0050  176.8120  137.7850 C   0  0  0  0  0  1  0  0  0  0  0  0
  187.1240  177.8260  135.6410 C   0  0  0  0  0  2  0  0  0  0  0  0
  190.1690  176.9940  137.0860 O   0  0  0  0  0  1  0  0  0  0  0  0
  186.5400  177.2710  136.9540 C   0  0  2  0  0  3  0  0  0  0  0  0
  187.7750  172.2840  136.7450 O   0  0  0  0  0  0  0  0  0  0  0  0
  190.5180  172.3650  134.8380 C   0  0  0  0  0  3  0  0  0  0  0  0
  189.8130  173.0780  135.8180 C   0  0  0  0  0  0  0  0  0  0  0  0
  190.5100  173.7120  136.8510 C   0  0  0  0  0  3  0  0  0  0  0  0
  192.5770  174.2560  137.9060 F   0  0  0  0  0  0  0  0  0  0  0  0
  192.6070  172.9300  135.9250 C   0  0  0  0  0  3  0  0  0  0  0  0
  191.9050  173.6400  136.9050 C   0  0  0  0  0  0  0  0  0  0  0  0
  191.9140  172.2920  134.8930 C   0  0  0  0  0  3  0  0  0  0  0  0
  187.9430  178.3610  140.7920 C   0  0  0  0  0  1  0  0  0  0  0  0
  188.8920  178.4660  139.6970 N   0  0  0  0  0  2  0  0  0  0  0  0
  1  4  1  0  0  0  0
  2 14  1  0  0  0  0
  3  9  1  0  0  0  0
  4 37  1  1  0  0  0
  5 19  1  0  0  0  0
  6 22  1  0  0  0  0
  7  3  2  0  0  0  0
  7 21  1  0  0  0  0
  8 26  1  1  0  0  0
  8 12  1  0  0  0  0
  9 13  2  0  0  0  0
  9  6  1  0  0  0  0
 10  5  1  6  0  0  0
 10  7  1  0  0  0  0
 11  6  2  0  0  0  0
 12  4  1  0  0  0  0
 13 17  1  0  0  0  0
 15 20  1  0  0  0  0
 15 28  1  0  0  0  0
 16 11  1  0  0  0  0
 17  2  1  0  0  0  0
 18 19  1  1  0  0  0
 18 25  1  0  0  0  0
 18  8  1  0  0  0  0
 20  3  1  0  0  0  0
 20 16  2  0  0  0  0
 21 27  1  0  0  0  0
 21 13  1  0  0  0  0
 22  2  1  0  0  0  0
 23 30  1  1  0  0  0
 23 10  1  0  0  0  0
 23 28  1  0  0  0  0
 24  2  1  0  0  0  0
 27 25  1  6  0  0  0
 27  1  1  0  0  0  0
 29 35  2  0  0  0  0
 29 30  1  0  0  0  0
 30 31  2  0  0  0  0
 31 34  1  0  0  0  0
 33 34  2  0  0  0  0
 34 32  1  0  0  0  0
 35 33  1  0  0  0  0
 37 36  1  0  0  0  0
M  END
>  <MODEL>
1

>  <REMARK>
 VINA RESULT:      -6.8      0.000      0.000
  Name = 
  2 active torsions:
  status: ('A' for Active; 'I' for Inactive)
    1  A    between atoms: C_4  and  N_37
    2  A    between atoms: C_23  and  C_30
                            x       y       z     vdW  Elec       q    Type
                         _______ _______ _______ _____ _____    ______ ____

>  <TORSDO>
F 2

$$$$
=
 OpenBabel11122411243D

 37 43  0  0  1  0  0  0  0  0999 V2000
  183.1190  175.8990  137.5380 C   0  0  0  0  0  2  0  0  0  0  0  0
  188.3070  176.8000  136.4350 C   0  0  0  0  0  0  0  0  0  0  0  0
  186.0430  178.3020  139.5770 C   0  0  0  0  0  0  0  0  0  0  0  0
  182.0640  175.2770  136.6220 C   0  0  2  0  0  3  0  0  0  0  0  0
  182.8620  179.6700  139.0560 C   0  0  0  0  0  2  0  0  0  0  0  0
  188.2320  177.9780  138.6280 C   0  0  0  0  0  0  0  0  0  0  0  0
  184.7490  178.1110  139.0940 C   0  0  0  0  0  0  0  0  0  0  0  0
  180.6040  177.2460  137.4590 C   0  0  2  0  0  3  0  0  0  0  0  0
  186.8680  177.9490  138.5660 C   0  0  0  0  0  0  0  0  0  0  0  0
  183.4560  178.4760  139.7830 C   0  0  1  0  0  3  0  0  0  0  0  0
  188.8180  178.4180  139.8300 C   0  0  0  0  0  3  0  0  0  0  0  0
  180.8430  176.1770  136.3830 C   0  0  0  0  0  2  0  0  0  0  0  0
  186.1440  177.5430  137.5090 C   0  0  0  0  0  0  0  0  0  0  0  0
  188.4010  175.3220  136.7650 C   0  0  0  0  0  1  0  0  0  0  0  0
  185.6790  178.9760  141.9740 C   0  0  0  0  0  2  0  0  0  0  0  0
  187.9820  178.7680  140.9260 C   0  0  0  0  0  3  0  0  0  0  0  0
  186.8050  177.1650  136.2150 C   0  0  0  0  0  2  0  0  0  0  0  0
  181.5420  178.3800  137.3660 N   0  0  1  0  0  0  0  0  0  0  0  0
  181.4940  179.3350  138.4810 C   0  0  0  0  0  2  0  0  0  0  0  0
  186.5710  178.6900  140.8120 C   0  0  0  0  0  0  0  0  0  0  0  0
  184.8270  177.6430  137.8080 N   0  0  0  0  0  0  0  0  0  0  0  0
  188.9430  177.5580  137.4960 O   0  0  0  0  0  0  0  0  0  0  0  0
  183.5740  178.8400  141.2770 C   0  0  2  0  0  3  0  0  0  0  0  0
  189.0560  177.0440  135.1430 C   0  0  0  0  0  1  0  0  0  0  0  0
  182.7660  178.2860  136.5480 C   0  0  0  0  0  2  0  0  0  0  0  0
  180.6050  176.6840  138.7410 O   0  0  0  0  0  1  0  0  0  0  0  0
  183.7420  177.1650  136.9540 C   0  0  2  0  0  3  0  0  0  0  0  0
  184.5730  178.1150  141.9390 O   0  0  0  0  0  0  0  0  0  0  0  0
  182.0990  179.0360  143.3120 C   0  0  0  0  0  3  0  0  0  0  0  0
  182.2610  178.6570  141.9710 C   0  0  0  0  0  0  0  0  0  0  0  0
  181.1920  178.0780  141.2790 C   0  0  0  0  0  3  0  0  0  0  0  0
  178.9310  177.3250  141.2460 F   0  0  0  0  0  0  0  0  0  0  0  0
  179.8040  178.2650  143.2550 C   0  0  0  0  0  3  0  0  0  0  0  0
  179.9650  177.8840  141.9190 C   0  0  0  0  0  0  0  0  0  0  0  0
  180.8710  178.8400  143.9510 C   0  0  0  0  0  3  0  0  0  0  0  0
  182.6430  173.0250  136.8650 C   0  0  0  0  0  1  0  0  0  0  0  0
  181.6240  174.0100  137.1820 N   0  0  0  0  0  2  0  0  0  0  0  0
  2 14  1  0  0  0  0
  2 22  1  0  0  0  0
  3 20  1  0  0  0  0
  4 37  1  1  0  0  0
  4  1  1  0  0  0  0
  6 11  2  0  0  0  0
  7  3  2  0  0  0  0
  7 10  1  0  0  0  0
  8 26  1  1  0  0  0
  9  6  1  0  0  0  0
  9  3  1  0  0  0  0
 10  5  1  6  0  0  0
 10 23  1  0  0  0  0
 11 16  1  0  0  0  0
 12  4  1  0  0  0  0
 12  8  1  0  0  0  0
 13 21  1  0  0  0  0
 13  9  2  0  0  0  0
 17  2  1  0  0  0  0
 17 13  1  0  0  0  0
 18 25  1  1  0  0  0
 18  8  1  0  0  0  0
 18 19  1  0  0  0  0
 19  5  1  0  0  0  0
 20 16  2  0  0  0  0
 20 15  1  0  0  0  0
 21  7  1  0  0  0  0
 22  6  1  0  0  0  0
 23 28  1  0  0  0  0
 23 30  1  1  0  0  0
 24  2  1  0  0  0  0
 27 25  1  1  0  0  0
 27  1  1  0  0  0  0
 27 21  1  0  0  0  0
 28 15  1  0  0  0  0
 29 35  1  0  0  0  0
 30 29  2  0  0  0  0
 31 34  2  0  0  0  0
 31 30  1  0  0  0  0
 32 34  1  0  0  0  0
 33 35  2  0  0  0  0
 34 33  1  0  0  0  0
 36 37  1  0  0  0  0
M  END
>  <MODEL>
2

>  <REMARK>
 VINA RESULT:      -6.4      3.698      8.843
  Name = 
  2 active torsions:
  status: ('A' for Active; 'I' for Inactive)
    1  A    between atoms: C_4  and  N_37
    2  A    between atoms: C_23  and  C_30
                            x       y       z     vdW  Elec       q    Type
                         _______ _______ _______ _____ _____    ______ ____

>  <TORSDO>
F 2

$$$$
=
 OpenBabel11122411243D

 37 43  0  0  1  0  0  0  0  0999 V2000
  188.8290  176.1590  138.5960 C   0  0  0  0  0  2  0  0  0  0  0  0
  189.0850  177.9120  143.6750 C   0  0  0  0  0  0  0  0  0  0  0  0
  185.9160  178.2060  141.0050 C   0  0  0  0  0  0  0  0  0  0  0  0
  189.9870  175.7040  137.7050 C   0  0  2  0  0  3  0  0  0  0  0  0
  186.3880  179.2980  137.7110 C   0  0  0  0  0  2  0  0  0  0  0  0
  186.6760  178.4100  143.2810 C   0  0  0  0  0  0  0  0  0  0  0  0
  186.5690  178.0140  139.7880 C   0  0  0  0  0  0  0  0  0  0  0  0
  188.8110  177.1820  135.9310 C   0  0  2  0  0  3  0  0  0  0  0  0
  186.8900  178.2460  141.9410 C   0  0  0  0  0  0  0  0  0  0  0  0
  185.9500  178.0220  138.4110 C   0  0  1  0  0  3  0  0  0  0  0  0
  185.3450  178.5570  143.7120 C   0  0  0  0  0  3  0  0  0  0  0  0
  190.1040  176.4920  136.3920 C   0  0  0  0  0  2  0  0  0  0  0  0
  188.0890  178.0740  141.3590 C   0  0  0  0  0  0  0  0  0  0  0  0
  189.1560  176.4210  143.9480 C   0  0  0  0  0  1  0  0  0  0  0  0
  183.4790  178.1340  140.3800 C   0  0  0  0  0  2  0  0  0  0  0  0
  184.2910  178.4890  142.7590 C   0  0  0  0  0  3  0  0  0  0  0  0
  189.3580  178.1520  142.1570 C   0  0  0  0  0  2  0  0  0  0  0  0
  188.4950  178.3940  136.7070 N   0  0  1  0  0  0  0  0  0  0  0  0
  187.1760  178.9860  136.4480 C   0  0  0  0  0  2  0  0  0  0  0  0
  184.5730  178.2880  141.3840 C   0  0  0  0  0  0  0  0  0  0  0  0
  187.9170  177.9370  140.0230 N   0  0  0  0  0  0  0  0  0  0  0  0
  187.7960  178.4080  144.1230 O   0  0  0  0  0  0  0  0  0  0  0  0
  184.4100  177.9630  138.3690 C   0  0  2  0  0  3  0  0  0  0  0  0
  190.1740  178.5910  144.4750 C   0  0  0  0  0  1  0  0  0  0  0  0
  189.1710  178.6720  137.9890 C   0  0  0  0  0  2  0  0  0  0  0  0
  187.7360  176.2860  135.9170 O   0  0  0  0  0  1  0  0  0  0  0  0
  188.9790  177.5990  139.0780 C   0  0  2  0  0  3  0  0  0  0  0  0
  183.8640  177.1990  139.4090 O   0  0  0  0  0  0  0  0  0  0  0  0
  182.7950  177.9820  136.4340 C   0  0  0  0  0  3  0  0  0  0  0  0
  183.9360  177.4450  137.0480 C   0  0  0  0  0  0  0  0  0  0  0  0
  184.6280  176.3980  136.4310 C   0  0  0  0  0  3  0  0  0  0  0  0
  184.8600  174.8790  134.6090 F   0  0  0  0  0  0  0  0  0  0  0  0
  183.0500  176.4300  134.5940 C   0  0  0  0  0  3  0  0  0  0  0  0
  184.1870  175.8920  135.2050 C   0  0  0  0  0  0  0  0  0  0  0  0
  182.3540  177.4740  135.2080 C   0  0  0  0  0  3  0  0  0  0  0  0
  191.0970  173.8390  136.8380 C   0  0  0  0  0  1  0  0  0  0  0  0
  189.8380  174.2900  137.4050 N   0  0  0  0  0  2  0  0  0  0  0  0
  1 27  1  0  0  0  0
  2 14  1  0  0  0  0
  2 22  1  0  0  0  0
  2 24  1  0  0  0  0
  3 20  1  0  0  0  0
  3  9  1  0  0  0  0
  4 37  1  6  0  0  0
  4  1  1  0  0  0  0
  6 11  2  0  0  0  0
  6 22  1  0  0  0  0
  7 21  1  0  0  0  0
  7  3  2  0  0  0  0
  8 26  1  1  0  0  0
  8 12  1  0  0  0  0
  8 18  1  0  0  0  0
  9  6  1  0  0  0  0
 10  5  1  1  0  0  0
 10  7  1  0  0  0  0
 12  4  1  0  0  0  0
 13  9  2  0  0  0  0
 13 17  1  0  0  0  0
 15 20  1  0  0  0  0
 16 11  1  0  0  0  0
 17  2  1  0  0  0  0
 18 19  1  1  0  0  0
 18 25  1  0  0  0  0
 19  5  1  0  0  0  0
 20 16  2  0  0  0  0
 21 13  1  0  0  0  0
 23 30  1  6  0  0  0
 23 10  1  0  0  0  0
 23 28  1  0  0  0  0
 27 25  1  6  0  0  0
 27 21  1  0  0  0  0
 28 15  1  0  0  0  0
 29 30  1  0  0  0  0
 31 30  2  0  0  0  0
 32 34  1  0  0  0  0
 33 34  2  0  0  0  0
 33 35  1  0  0  0  0
 34 31  1  0  0  0  0
 35 29  2  0  0  0  0
 36 37  1  0  0  0  0
M  END
>  <MODEL>
3

>  <REMARK>
 VINA RESULT:      -6.2      3.014      6.974
  Name = 
  2 active torsions:
  status: ('A' for Active; 'I' for Inactive)
    1  A    between atoms: C_4  and  N_37
    2  A    between atoms: C_23  and  C_30
                            x       y       z     vdW  Elec       q    Type
                         _______ _______ _______ _____ _____    ______ ____

>  <TORSDO>
F 2

$$$$
=
 OpenBabel11122411243D

 37 43  0  0  1  0  0  0  0  0999 V2000
  188.6570  175.1950  137.5150 C   0  0  0  0  0  2  0  0  0  0  0  0
  190.3190  177.4390  142.1130 C   0  0  0  0  0  0  0  0  0  0  0  0
  186.7960  178.1440  140.0290 C   0  0  0  0  0  0  0  0  0  0  0  0
  189.4850  174.3770  136.5230 C   0  0  2  0  0  3  0  0  0  0  0  0
  186.7880  178.6890  136.5700 C   0  0  0  0  0  2  0  0  0  0  0  0
  188.0370  178.4370  142.0710 C   0  0  0  0  0  0  0  0  0  0  0  0
  187.1270  177.6590  138.7650 C   0  0  0  0  0  0  0  0  0  0  0  0
  188.2980  175.8640  134.7640 C   0  0  2  0  0  3  0  0  0  0  0  0
  187.9300  178.0670  140.7600 C   0  0  0  0  0  0  0  0  0  0  0  0
  186.2510  177.6460  137.5350 C   0  0  1  0  0  3  0  0  0  0  0  0
  186.8850  178.9440  142.6990 C   0  0  0  0  0  3  0  0  0  0  0  0
  189.4870  174.9500  135.0970 C   0  0  0  0  0  2  0  0  0  0  0  0
  188.9190  177.5500  140.0130 C   0  0  0  0  0  0  0  0  0  0  0  0
  190.1370  176.0170  142.6110 C   0  0  0  0  0  1  0  0  0  0  0  0
  184.3220  178.5720  139.8610 C   0  0  0  0  0  2  0  0  0  0  0  0
  185.6660  179.0110  141.9700 C   0  0  0  0  0  3  0  0  0  0  0  0
  190.3150  177.4230  140.5520 C   0  0  0  0  0  2  0  0  0  0  0  0
  188.4070  177.2000  135.3740 N   0  0  1  0  0  0  0  0  0  0  0  0
  187.2150  178.0500  135.2560 C   0  0  0  0  0  2  0  0  0  0  0  0
  185.6080  178.5840  140.6190 C   0  0  0  0  0  0  0  0  0  0  0  0
  188.4490  177.2970  138.7680 N   0  0  0  0  0  0  0  0  0  0  0  0
  189.2830  178.2740  142.6920 O   0  0  0  0  0  0  0  0  0  0  0  0
  184.7580  177.9450  137.7750 C   0  0  2  0  0  3  0  0  0  0  0  0
  191.6680  177.9350  142.5860 C   0  0  0  0  0  1  0  0  0  0  0  0
  189.3780  177.4650  136.4530 C   0  0  0  0  0  2  0  0  0  0  0  0
  187.0820  175.2500  135.0860 O   0  0  0  0  0  1  0  0  0  0  0  0
  189.1990  176.6070  137.7200 C   0  0  2  0  0  3  0  0  0  0  0  0
  184.2940  177.4620  139.0050 O   0  0  0  0  0  0  0  0  0  0  0  0
  182.8590  178.1400  136.1280 C   0  0  0  0  0  3  0  0  0  0  0  0
  183.9230  177.3980  136.6600 C   0  0  0  0  0  0  0  0  0  0  0  0
  184.1950  176.1200  136.1610 C   0  0  0  0  0  3  0  0  0  0  0  0
  183.6800  174.3500  134.6490 F   0  0  0  0  0  0  0  0  0  0  0  0
  182.3540  176.3310  134.6010 C   0  0  0  0  0  3  0  0  0  0  0  0
  183.4130  175.5880  135.1320 C   0  0  0  0  0  0  0  0  0  0  0  0
  182.0760  177.6070  135.1000 C   0  0  0  0  0  3  0  0  0  0  0  0
  189.5160  172.3930  135.2850 C   0  0  0  0  0  1  0  0  0  0  0  0
  188.9880  173.0110  136.4890 N   0  0  0  0  0  2  0  0  0  0  0  0
  1 27  1  0  0  0  0
  2 24  1  0  0  0  0
  2 14  1  0  0  0  0
  2 22  1  0  0  0  0
  3 20  1  0  0  0  0
  3  9  1  0  0  0  0
  4 37  1  6  0  0  0
  4  1  1  0  0  0  0
  6 22  1  0  0  0  0
  6 11  2  0  0  0  0
  7 21  1  0  0  0  0
  7  3  2  0  0  0  0
  8 26  1  1  0  0  0
  8 12  1  0  0  0  0
  8 18  1  0  0  0  0
  9  6  1  0  0  0  0
 10  5  1  6  0  0  0
 10 23  1  0  0  0  0
 10  7  1  0  0  0  0
 12  4  1  0  0  0  0
 13 17  1  0  0  0  0
 13  9  2  0  0  0  0
 15 20  1  0  0  0  0
 16 11  1  0  0  0  0
 17  2  1  0  0  0  0
 18 19  1  1  0  0  0
 18 25  1  0  0  0  0
 19  5  1  0  0  0  0
 20 16  2  0  0  0  0
 21 13  1  0  0  0  0
 23 30  1  6  0  0  0
 23 28  1  0  0  0  0
 27 25  1  6  0  0  0
 27 21  1  0  0  0  0
 28 15  1  0  0  0  0
 29 30  1  0  0  0  0
 31 30  2  0  0  0  0
 32 34  1  0  0  0  0
 33 35  1  0  0  0  0
 33 34  2  0  0  0  0
 34 31  1  0  0  0  0
 35 29  2  0  0  0  0
 36 37  1  0  0  0  0
M  END
>  <MODEL>
4

>  <REMARK>
 VINA RESULT:      -6.1      2.845      7.101
  Name = 
  2 active torsions:
  status: ('A' for Active; 'I' for Inactive)
    1  A    between atoms: C_4  and  N_37
    2  A    between atoms: C_23  and  C_30
                            x       y       z     vdW  Elec       q    Type
                         _______ _______ _______ _____ _____    ______ ____

>  <TORSDO>
F 2

$$$$
=
 OpenBabel11122411243D

 37 43  0  0  1  0  0  0  0  0999 V2000
  187.9930  175.0990  136.5520 C   0  0  0  0  0  2  0  0  0  0  0  0
  193.3690  174.9670  136.4010 C   0  0  0  0  0  0  0  0  0  0  0  0
  190.9170  177.1110  138.9790 C   0  0  0  0  0  0  0  0  0  0  0  0
  187.0160  174.5970  135.4870 C   0  0  2  0  0  3  0  0  0  0  0  0
  188.1950  178.9720  137.7980 C   0  0  0  0  0  2  0  0  0  0  0  0
  193.1360  176.3230  138.4770 C   0  0  0  0  0  0  0  0  0  0  0  0
  189.7150  177.1120  138.2710 C   0  0  0  0  0  0  0  0  0  0  0  0
  185.8340  176.8590  135.9320 C   0  0  2  0  0  3  0  0  0  0  0  0
  191.8240  176.5310  138.1600 C   0  0  0  0  0  0  0  0  0  0  0  0
  188.4150  177.7580  138.6850 C   0  0  1  0  0  3  0  0  0  0  0  0
  193.5750  176.7530  139.7430 C   0  0  0  0  0  3  0  0  0  0  0  0
  186.0500  175.6770  134.9770 C   0  0  0  0  0  2  0  0  0  0  0  0
  191.2330  176.1710  137.0090 C   0  0  0  0  0  0  0  0  0  0  0  0
  193.1210  173.5290  136.8190 C   0  0  0  0  0  1  0  0  0  0  0  0
  190.2730  178.0420  141.2260 C   0  0  0  0  0  2  0  0  0  0  0  0
  192.6420  177.3390  140.6430 C   0  0  0  0  0  3  0  0  0  0  0  0
  192.0260  175.5720  135.8840 C   0  0  0  0  0  2  0  0  0  0  0  0
  186.9710  177.7960  135.9580 N   0  0  1  0  0  0  0  0  0  0  0  0
  186.9110  178.8360  136.9930 C   0  0  0  0  0  2  0  0  0  0  0  0
  191.2830  177.5030  140.2690 C   0  0  0  0  0  0  0  0  0  0  0  0
  189.9270  176.5290  137.0490 N   0  0  0  0  0  0  0  0  0  0  0  0
  193.9420  175.6880  137.5220 O   0  0  0  0  0  0  0  0  0  0  0  0
  188.3360  178.2220  140.1530 C   0  0  2  0  0  3  0  0  0  0  0  0
  194.3660  174.9620  135.2630 C   0  0  0  0  0  1  0  0  0  0  0  0
  188.2800  177.4170  135.3910 C   0  0  0  0  0  2  0  0  0  0  0  0
  185.5030  176.4180  137.2180 O   0  0  0  0  0  1  0  0  0  0  0  0
  188.9380  176.1790  136.0320 C   0  0  2  0  0  3  0  0  0  0  0  0
  189.0470  177.3910  141.0280 O   0  0  0  0  0  0  0  0  0  0  0  0
  185.8940  178.6270  139.6760 C   0  0  0  0  0  3  0  0  0  0  0  0
  186.9110  178.3350  140.5960 C   0  0  0  0  0  0  0  0  0  0  0  0
  186.5960  178.1690  141.9480 C   0  0  0  0  0  3  0  0  0  0  0  0
  184.9700  178.1280  143.6910 F   0  0  0  0  0  0  0  0  0  0  0  0
  184.2590  178.5790  141.4610 C   0  0  0  0  0  3  0  0  0  0  0  0
  185.2720  178.2900  142.3810 C   0  0  0  0  0  0  0  0  0  0  0  0
  184.5700  178.7490  140.1090 C   0  0  0  0  0  3  0  0  0  0  0  0
  186.9380  173.0250  137.2160 C   0  0  0  0  0  1  0  0  0  0  0  0
  186.2520  173.4820  136.0200 N   0  0  0  0  0  2  0  0  0  0  0  0
  2 14  1  0  0  0  0
  2 22  1  0  0  0  0
  3 20  1  0  0  0  0
  4 37  1  1  0  0  0
  4  1  1  0  0  0  0
  6 11  2  0  0  0  0
  7 10  1  0  0  0  0
  7  3  2  0  0  0  0
  8 18  1  0  0  0  0
  8 26  1  1  0  0  0
  9  6  1  0  0  0  0
  9  3  1  0  0  0  0
 10  5  1  6  0  0  0
 10 23  1  0  0  0  0
 11 16  1  0  0  0  0
 12  4  1  0  0  0  0
 12  8  1  0  0  0  0
 13 21  1  0  0  0  0
 13  9  2  0  0  0  0
 17  2  1  0  0  0  0
 17 13  1  0  0  0  0
 18 25  1  1  0  0  0
 18 19  1  0  0  0  0
 19  5  1  0  0  0  0
 20 16  2  0  0  0  0
 20 15  1  0  0  0  0
 21  7  1  0  0  0  0
 22  6  1  0  0  0  0
 23 30  1  1  0  0  0
 23 28  1  0  0  0  0
 24  2  1  0  0  0  0
 27 25  1  1  0  0  0
 27  1  1  0  0  0  0
 27 21  1  0  0  0  0
 28 15  1  0  0  0  0
 29 35  2  0  0  0  0
 29 30  1  0  0  0  0
 30 31  2  0  0  0  0
 31 34  1  0  0  0  0
 33 34  2  0  0  0  0
 34 32  1  0  0  0  0
 35 33  1  0  0  0  0
 37 36  1  0  0  0  0
M  END
>  <MODEL>
5

>  <REMARK>
 VINA RESULT:      -6.1      3.113      8.018
  Name = 
  2 active torsions:
  status: ('A' for Active; 'I' for Inactive)
    1  A    between atoms: C_4  and  N_37
    2  A    between atoms: C_23  and  C_30
                            x       y       z     vdW  Elec       q    Type
                         _______ _______ _______ _____ _____    ______ ____

>  <TORSDO>
F 2

$$$$
=
 OpenBabel11122411243D

 37 43  0  0  1  0  0  0  0  0999 V2000
  187.4020  177.6880  138.6660 C   0  0  0  0  0  2  0  0  0  0  0  0
  182.1920  178.6860  139.5570 C   0  0  0  0  0  0  0  0  0  0  0  0
  183.8840  175.5770  137.3820 C   0  0  0  0  0  0  0  0  0  0  0  0
  188.5860  178.6280  138.8990 C   0  0  2  0  0  3  0  0  0  0  0  0
  186.4110  176.1500  135.0270 C   0  0  0  0  0  2  0  0  0  0  0  0
  181.9110  176.4860  138.4220 C   0  0  0  0  0  0  0  0  0  0  0  0
  185.1570  176.0860  137.1290 C   0  0  0  0  0  0  0  0  0  0  0  0
  189.3180  177.8050  136.5540 C   0  0  2  0  0  3  0  0  0  0  0  0
  183.2050  176.5750  137.9920 C   0  0  0  0  0  0  0  0  0  0  0  0
  186.2670  175.4190  136.3510 C   0  0  1  0  0  3  0  0  0  0  0  0
  181.2360  175.2710  138.2040 C   0  0  0  0  0  3  0  0  0  0  0  0
  189.4300  178.8840  137.6410 C   0  0  0  0  0  2  0  0  0  0  0  0
  184.0010  177.6480  138.1320 C   0  0  0  0  0  0  0  0  0  0  0  0
  182.6050  178.3640  140.9810 C   0  0  0  0  0  1  0  0  0  0  0  0
  184.0490  173.1830  136.6250 C   0  0  0  0  0  2  0  0  0  0  0  0
  181.9280  174.1890  137.5940 C   0  0  0  0  0  3  0  0  0  0  0  0
  183.4800  178.9320  138.7100 C   0  0  0  0  0  2  0  0  0  0  0  0
  188.0540  177.8730  135.8010 N   0  0  1  0  0  0  0  0  0  0  0  0
  187.8010  176.7530  134.8850 C   0  0  0  0  0  2  0  0  0  0  0  0
  183.2820  174.3310  137.1940 C   0  0  0  0  0  0  0  0  0  0  0  0
  185.2140  177.3730  137.5960 N   0  0  0  0  0  0  0  0  0  0  0  0
  181.3590  177.6080  139.0560 O   0  0  0  0  0  0  0  0  0  0  0  0
  186.0640  173.9210  136.0480 C   0  0  2  0  0  3  0  0  0  0  0  0
  181.3780  179.9620  139.5780 C   0  0  0  0  0  1  0  0  0  0  0  0
  186.9150  178.6680  136.2990 C   0  0  0  0  0  2  0  0  0  0  0  0
  189.5320  176.5270  137.0840 O   0  0  0  0  0  1  0  0  0  0  0  0
  186.3800  178.2510  137.6830 C   0  0  2  0  0  3  0  0  0  0  0  0
  185.3780  173.2450  137.0650 O   0  0  0  0  0  0  0  0  0  0  0  0
  187.4810  172.2380  134.8190 C   0  0  0  0  0  3  0  0  0  0  0  0
  187.3760  173.2540  135.7800 C   0  0  0  0  0  0  0  0  0  0  0  0
  188.5030  173.6330  136.5160 C   0  0  0  0  0  3  0  0  0  0  0  0
  190.8220  173.3770  137.0020 F   0  0  0  0  0  0  0  0  0  0  0  0
  189.8350  171.9950  135.3290 C   0  0  0  0  0  3  0  0  0  0  0  0
  189.7320  173.0060  136.2900 C   0  0  0  0  0  0  0  0  0  0  0  0
  188.7100  171.6100  134.5940 C   0  0  0  0  0  3  0  0  0  0  0  0
  188.6180  177.9520  141.1370 C   0  0  0  0  0  1  0  0  0  0  0  0
  189.4370  178.0840  139.9450 N   0  0  0  0  0  2  0  0  0  0  0  0
  1  4  1  0  0  0  0
  2 24  1  0  0  0  0
  2 14  1  0  0  0  0
  3  9  1  0  0  0  0
  4 37  1  1  0  0  0
  6 22  1  0  0  0  0
  7  3  2  0  0  0  0
  7 21  1  0  0  0  0
  8 26  1  1  0  0  0
  8 12  1  0  0  0  0
  9 13  2  0  0  0  0
  9  6  1  0  0  0  0
 10  5  1  6  0  0  0
 10  7  1  0  0  0  0
 11  6  2  0  0  0  0
 12  4  1  0  0  0  0
 13 17  1  0  0  0  0
 15 28  1  0  0  0  0
 15 20  1  0  0  0  0
 16 11  1  0  0  0  0
 17  2  1  0  0  0  0
 18 19  1  1  0  0  0
 18 25  1  0  0  0  0
 18  8  1  0  0  0  0
 19  5  1  0  0  0  0
 20  3  1  0  0  0  0
 20 16  2  0  0  0  0
 21 27  1  0  0  0  0
 21 13  1  0  0  0  0
 22  2  1  0  0  0  0
 23 30  1  1  0  0  0
 23 10  1  0  0  0  0
 23 28  1  0  0  0  0
 27 25  1  6  0  0  0
 27  1  1  0  0  0  0
 29 30  1  0  0  0  0
 30 31  2  0  0  0  0
 33 34  2  0  0  0  0
 34 31  1  0  0  0  0
 34 32  1  0  0  0  0
 35 29  2  0  0  0  0
 35 33  1  0  0  0  0
 37 36  1  0  0  0  0
M  END
>  <MODEL>
6

>  <REMARK>
 VINA RESULT:      -5.9      1.577      2.350
  Name = 
  2 active torsions:
  status: ('A' for Active; 'I' for Inactive)
    1  A    between atoms: C_4  and  N_37
    2  A    between atoms: C_23  and  C_30
                            x       y       z     vdW  Elec       q    Type
                         _______ _______ _______ _____ _____    ______ ____

>  <TORSDO>
F 2

$$$$
=
 OpenBabel11122411243D

 37 43  0  0  1  0  0  0  0  0999 V2000
  186.0520  177.0090  137.6800 C   0  0  0  0  0  2  0  0  0  0  0  0
  181.6690  174.2870  136.1560 C   0  0  0  0  0  0  0  0  0  0  0  0
  185.6480  173.1300  135.8700 C   0  0  0  0  0  0  0  0  0  0  0  0
  186.1510  178.4910  138.0440 C   0  0  2  0  0  3  0  0  0  0  0  0
  188.1000  175.2890  134.6070 C   0  0  0  0  0  2  0  0  0  0  0  0
  183.3330  172.4810  135.7410 C   0  0  0  0  0  0  0  0  0  0  0  0
  186.2960  174.3600  135.9770 C   0  0  0  0  0  0  0  0  0  0  0  0
  188.2560  178.4160  136.5350 C   0  0  2  0  0  3  0  0  0  0  0  0
  184.3270  173.4140  135.8320 C   0  0  0  0  0  0  0  0  0  0  0  0
  187.7840  174.6130  135.9300 C   0  0  1  0  0  3  0  0  0  0  0  0
  183.7160  171.1290  135.6680 C   0  0  0  0  0  3  0  0  0  0  0  0
  187.1630  179.2720  137.1920 C   0  0  0  0  0  2  0  0  0  0  0  0
  184.1430  174.7410  135.9280 C   0  0  0  0  0  0  0  0  0  0  0  0
  181.4250  174.2840  137.6540 C   0  0  0  0  0  1  0  0  0  0  0  0
  187.5280  171.4640  136.0130 C   0  0  0  0  0  2  0  0  0  0  0  0
  185.0960  170.7910  135.7360 C   0  0  0  0  0  3  0  0  0  0  0  0
  182.7720  175.3440  135.8340 C   0  0  0  0  0  2  0  0  0  0  0  0
  187.7700  177.6480  135.3750 N   0  0  1  0  0  0  0  0  0  0  0  0
  188.7120  176.6640  134.8270 C   0  0  0  0  0  2  0  0  0  0  0  0
  186.0820  171.8020  135.8610 C   0  0  0  0  0  0  0  0  0  0  0  0
  185.3500  175.3510  136.0090 N   0  0  0  0  0  0  0  0  0  0  0  0
  182.0090  172.9400  135.7350 O   0  0  0  0  0  0  0  0  0  0  0  0
  188.6790  173.3640  136.0520 C   0  0  2  0  0  3  0  0  0  0  0  0
  180.3860  174.7040  135.4700 C   0  0  0  0  0  1  0  0  0  0  0  0
  186.3250  177.4780  135.1290 C   0  0  0  0  0  2  0  0  0  0  0  0
  188.8820  177.5860  137.4740 O   0  0  0  0  0  1  0  0  0  0  0  0
  185.5450  176.7780  136.2590 C   0  0  2  0  0  3  0  0  0  0  0  0
  188.1340  172.3790  136.8850 O   0  0  0  0  0  0  0  0  0  0  0  0
  191.1840  173.0810  136.0320 C   0  0  0  0  0  3  0  0  0  0  0  0
  190.0480  173.7380  136.5260 C   0  0  0  0  0  0  0  0  0  0  0  0
  190.1910  174.7400  137.4910 C   0  0  0  0  0  3  0  0  0  0  0  0
  191.5980  176.0600  138.8920 F   0  0  0  0  0  0  0  0  0  0  0  0
  192.5940  174.4330  137.4620 C   0  0  0  0  0  3  0  0  0  0  0  0
  191.4620  175.0890  137.9580 C   0  0  0  0  0  0  0  0  0  0  0  0
  192.4550  173.4290  136.4990 C   0  0  0  0  0  3  0  0  0  0  0  0
  185.2630  178.6540  140.2010 C   0  0  0  0  0  1  0  0  0  0  0  0
  186.5050  178.6200  139.4480 N   0  0  0  0  0  2  0  0  0  0  0  0
  1  4  1  0  0  0  0
  2 14  1  0  0  0  0
  3  7  2  0  0  0  0
  4 37  1  1  0  0  0
  5 19  1  0  0  0  0
  6  9  1  0  0  0  0
  7 21  1  0  0  0  0
  8 12  1  0  0  0  0
  8 26  1  1  0  0  0
  9  3  1  0  0  0  0
  9 13  2  0  0  0  0
 10  5  1  6  0  0  0
 10  7  1  0  0  0  0
 10 23  1  0  0  0  0
 11 16  1  0  0  0  0
 11  6  2  0  0  0  0
 12  4  1  0  0  0  0
 13 21  1  0  0  0  0
 15 28  1  0  0  0  0
 16 20  2  0  0  0  0
 17 13  1  0  0  0  0
 17  2  1  0  0  0  0
 18 19  1  1  0  0  0
 18  8  1  0  0  0  0
 20  3  1  0  0  0  0
 20 15  1  0  0  0  0
 21 27  1  0  0  0  0
 22  6  1  0  0  0  0
 22  2  1  0  0  0  0
 23 30  1  1  0  0  0
 23 28  1  0  0  0  0
 24  2  1  0  0  0  0
 25 18  1  0  0  0  0
 27 25  1  6  0  0  0
 27  1  1  0  0  0  0
 29 35  2  0  0  0  0
 29 30  1  0  0  0  0
 30 31  2  0  0  0  0
 31 34  1  0  0  0  0
 33 34  2  0  0  0  0
 34 32  1  0  0  0  0
 35 33  1  0  0  0  0
 37 36  1  0  0  0  0
M  END
>  <MODEL>
7

>  <REMARK>
 VINA RESULT:      -5.4      1.492      1.709
  Name = 
  2 active torsions:
  status: ('A' for Active; 'I' for Inactive)
    1  A    between atoms: C_4  and  N_37
    2  A    between atoms: C_23  and  C_30
                            x       y       z     vdW  Elec       q    Type
                         _______ _______ _______ _____ _____    ______ ____

>  <TORSDO>
F 2

$$$$
=
 OpenBabel11122411243D

 37 43  0  0  1  0  0  0  0  0999 V2000
  184.6260  175.9290  137.8810 C   0  0  0  0  0  2  0  0  0  0  0  0
  189.7330  176.0840  136.1990 C   0  0  0  0  0  0  0  0  0  0  0  0
  188.0930  177.7930  139.6110 C   0  0  0  0  0  0  0  0  0  0  0  0
  183.3930  175.5040  137.0830 C   0  0  2  0  0  3  0  0  0  0  0  0
  185.1190  179.6390  139.4890 C   0  0  0  0  0  2  0  0  0  0  0  0
  190.0860  177.1800  138.4070 C   0  0  0  0  0  0  0  0  0  0  0  0
  186.7390  177.8150  139.2780 C   0  0  0  0  0  0  0  0  0  0  0  0
  182.3540  177.6390  138.1210 C   0  0  2  0  0  3  0  0  0  0  0  0
  188.7350  177.3570  138.5030 C   0  0  0  0  0  0  0  0  0  0  0  0
  185.6020  178.3450  140.1200 C   0  0  1  0  0  3  0  0  0  0  0  0
  190.8640  177.4840  139.5400 C   0  0  0  0  0  3  0  0  0  0  0  0
  182.3040  176.5850  137.0050 C   0  0  0  0  0  2  0  0  0  0  0  0
  187.8440  177.1020  137.5310 C   0  0  0  0  0  0  0  0  0  0  0  0
  189.6380  174.5970  136.4880 C   0  0  0  0  0  1  0  0  0  0  0  0
  188.1080  178.4280  142.0450 C   0  0  0  0  0  2  0  0  0  0  0  0
  190.2190  177.9150  140.7330 C   0  0  0  0  0  3  0  0  0  0  0  0
  188.2900  176.6770  136.1620 C   0  0  0  0  0  2  0  0  0  0  0  0
  183.4360  178.6220  137.9400 N   0  0  1  0  0  0  0  0  0  0  0  0
  183.6600  179.5330  139.0700 C   0  0  0  0  0  2  0  0  0  0  0  0
  188.8090  178.0530  140.7820 C   0  0  0  0  0  0  0  0  0  0  0  0
  186.6000  177.3870  137.9830 N   0  0  0  0  0  0  0  0  0  0  0  0
  190.5930  176.6990  137.1920 O   0  0  0  0  0  0  0  0  0  0  0  0
  185.9410  178.6330  141.5960 C   0  0  2  0  0  3  0  0  0  0  0  0
  190.3620  176.2590  134.8330 C   0  0  0  0  0  1  0  0  0  0  0  0
  184.5330  178.3760  136.9840 C   0  0  0  0  0  2  0  0  0  0  0  0
  182.4130  177.0370  139.3840 O   0  0  0  0  0  1  0  0  0  0  0  0
  185.3650  177.1070  137.2530 C   0  0  2  0  0  3  0  0  0  0  0  0
  186.8870  177.7440  142.1240 O   0  0  0  0  0  0  0  0  0  0  0  0
  183.4320  178.6240  141.8400 C   0  0  0  0  0  3  0  0  0  0  0  0
  184.7020  178.6230  142.4350 C   0  0  0  0  0  0  0  0  0  0  0  0
  184.8150  178.6370  143.8290 C   0  0  0  0  0  3  0  0  0  0  0  0
  183.7800  178.6580  145.9750 F   0  0  0  0  0  0  0  0  0  0  0  0
  182.4020  178.6450  144.0300 C   0  0  0  0  0  3  0  0  0  0  0  0
  183.6670  178.6460  144.6260 C   0  0  0  0  0  0  0  0  0  0  0  0
  182.2840  178.6340  142.6370 C   0  0  0  0  0  3  0  0  0  0  0  0
  181.4220  174.2670  137.3130 C   0  0  0  0  0  1  0  0  0  0  0  0
  182.8300  174.2980  137.6680 N   0  0  0  0  0  2  0  0  0  0  0  0
  2 14  1  0  0  0  0
  2 22  1  0  0  0  0
  3 20  1  0  0  0  0
  4 37  1  1  0  0  0
  4  1  1  0  0  0  0
  6  9  1  0  0  0  0
  6 11  2  0  0  0  0
  7  3  2  0  0  0  0
  7 10  1  0  0  0  0
  8 26  1  1  0  0  0
  9  3  1  0  0  0  0
 10  5  1  6  0  0  0
 10 23  1  0  0  0  0
 11 16  1  0  0  0  0
 12  4  1  0  0  0  0
 12  8  1  0  0  0  0
 13 21  1  0  0  0  0
 13  9  2  0  0  0  0
 15 28  1  0  0  0  0
 16 20  2  0  0  0  0
 17  2  1  0  0  0  0
 17 13  1  0  0  0  0
 18 25  1  1  0  0  0
 18  8  1  0  0  0  0
 18 19  1  0  0  0  0
 19  5  1  0  0  0  0
 20 15  1  0  0  0  0
 21  7  1  0  0  0  0
 22  6  1  0  0  0  0
 23 28  1  0  0  0  0
 23 30  1  1  0  0  0
 24  2  1  0  0  0  0
 27 25  1  1  0  0  0
 27  1  1  0  0  0  0
 27 21  1  0  0  0  0
 29 30  2  0  0  0  0
 29 35  1  0  0  0  0
 30 31  1  0  0  0  0
 31 34  2  0  0  0  0
 33 34  1  0  0  0  0
 34 32  1  0  0  0  0
 35 33  2  0  0  0  0
 36 37  1  0  0  0  0
M  END
>  <MODEL>
8

>  <REMARK>
 VINA RESULT:      -5.1      3.483      8.266
  Name = 
  2 active torsions:
  status: ('A' for Active; 'I' for Inactive)
    1  A    between atoms: C_4  and  N_37
    2  A    between atoms: C_23  and  C_30
                            x       y       z     vdW  Elec       q    Type
                         _______ _______ _______ _____ _____    ______ ____

>  <TORSDO>
F 2

$$$$
=
 OpenBabel11122411243D

 37 43  0  0  1  0  0  0  0  0999 V2000
  186.1250  174.8740  137.3110 C   0  0  0  0  0  2  0  0  0  0  0  0
  191.3220  174.7580  135.9280 C   0  0  0  0  0  0  0  0  0  0  0  0
  189.4830  177.0810  138.8400 C   0  0  0  0  0  0  0  0  0  0  0  0
  184.9410  174.2880  136.5410 C   0  0  2  0  0  3  0  0  0  0  0  0
  186.5210  178.8320  138.1890 C   0  0  0  0  0  2  0  0  0  0  0  0
  191.5440  176.2680  137.8970 C   0  0  0  0  0  0  0  0  0  0  0  0
  188.1510  177.0210  138.4320 C   0  0  0  0  0  0  0  0  0  0  0  0
  183.8420  176.5710  137.0810 C   0  0  2  0  0  3  0  0  0  0  0  0
  190.1890  176.4450  137.8780 C   0  0  0  0  0  0  0  0  0  0  0  0
  186.9670  177.6910  139.0870 C   0  0  1  0  0  3  0  0  0  0  0  0
  192.2530  176.7960  138.9920 C   0  0  0  0  0  3  0  0  0  0  0  0
  183.8580  175.3200  136.1910 C   0  0  0  0  0  2  0  0  0  0  0  0
  189.3570  175.9940  136.9250 C   0  0  0  0  0  0  0  0  0  0  0  0
  191.2100  173.3560  136.4970 C   0  0  0  0  0  1  0  0  0  0  0  0
  189.3540  178.1780  141.1010 C   0  0  0  0  0  2  0  0  0  0  0  0
  191.5400  177.4440  140.0380 C   0  0  0  0  0  3  0  0  0  0  0  0
  189.8830  175.3160  135.6940 C   0  0  0  0  0  2  0  0  0  0  0  0
  184.9330  177.5130  136.7740 N   0  0  1  0  0  0  0  0  0  0  0  0
  185.0900  178.6290  137.7160 C   0  0  0  0  0  2  0  0  0  0  0  0
  190.1280  177.5720  139.9780 C   0  0  0  0  0  0  0  0  0  0  0  0
  188.0890  176.3480  137.2400 N   0  0  0  0  0  0  0  0  0  0  0  0
  192.1220  175.5660  136.8310 O   0  0  0  0  0  0  0  0  0  0  0  0
  187.2180  178.2650  140.4960 C   0  0  2  0  0  3  0  0  0  0  0  0
  192.0300  174.6720  134.5940 C   0  0  0  0  0  1  0  0  0  0  0  0
  186.0840  177.0980  135.9490 C   0  0  0  0  0  2  0  0  0  0  0  0
  183.8260  176.2270  138.4380 O   0  0  0  0  0  1  0  0  0  0  0  0
  186.8990  175.9160  136.5090 C   0  0  2  0  0  3  0  0  0  0  0  0
  188.1310  177.5070  141.2410 O   0  0  0  0  0  0  0  0  0  0  0  0
  185.9290  178.6030  142.6360 C   0  0  0  0  0  3  0  0  0  0  0  0
  185.9310  178.4040  141.2480 C   0  0  0  0  0  0  0  0  0  0  0  0
  184.7190  178.3120  140.5580 C   0  0  0  0  0  3  0  0  0  0  0  0
  182.3350  178.3330  140.5780 F   0  0  0  0  0  0  0  0  0  0  0  0
  183.5080  178.6220  142.6330 C   0  0  0  0  0  3  0  0  0  0  0  0
  183.5080  178.4220  141.2480 C   0  0  0  0  0  0  0  0  0  0  0  0
  184.7180  178.7120  143.3260 C   0  0  0  0  0  3  0  0  0  0  0  0
  184.4790  171.9960  136.5350 C   0  0  0  0  0  1  0  0  0  0  0  0
  184.3450  173.2120  137.3170 N   0  0  0  0  0  2  0  0  0  0  0  0
  2 14  1  0  0  0  0
  2 22  1  0  0  0  0
  3 20  1  0  0  0  0
  4  1  1  0  0  0  0
  4 37  1  1  0  0  0
  6 11  2  0  0  0  0
  7  3  2  0  0  0  0
  7 10  1  0  0  0  0
  8 26  1  1  0  0  0
  9  6  1  0  0  0  0
  9  3  1  0  0  0  0
 10  5  1  6  0  0  0
 10 23  1  0  0  0  0
 11 16  1  0  0  0  0
 12  4  1  0  0  0  0
 12  8  1  0  0  0  0
 13 21  1  0  0  0  0
 13  9  2  0  0  0  0
 15 28  1  0  0  0  0
 17  2  1  0  0  0  0
 17 13  1  0  0  0  0
 18 25  1  1  0  0  0
 18  8  1  0  0  0  0
 18 19  1  0  0  0  0
 19  5  1  0  0  0  0
 20 16  2  0  0  0  0
 20 15  1  0  0  0  0
 21  7  1  0  0  0  0
 22  6  1  0  0  0  0
 23 28  1  0  0  0  0
 23 30  1  1  0  0  0
 24  2  1  0  0  0  0
 27 25  1  1  0  0  0
 27 21  1  0  0  0  0
 27  1  1  0  0  0  0
 29 35  1  0  0  0  0
 30 29  2  0  0  0  0
 31 30  1  0  0  0  0
 31 34  2  0  0  0  0
 32 34  1  0  0  0  0
 33 35  2  0  0  0  0
 34 33  1  0  0  0  0
 36 37  1  0  0  0  0
M  END
>  <MODEL>
9

>  <REMARK>
 VINA RESULT:      -5.1      3.009      7.892
  Name = 
  2 active torsions:
  status: ('A' for Active; 'I' for Inactive)
    1  A    between atoms: C_4  and  N_37
    2  A    between atoms: C_23  and  C_30
                            x       y       z     vdW  Elec       q    Type
                         _______ _______ _______ _____ _____    ______ ____

>  <TORSDO>
F 2

$$$$
