=
 OpenBabel11122411523D

 28 32  0  0  1  0  0  0  0  0999 V2000
  187.2900  177.6230  136.4020 C   0  0  0  0  0  0  0  0  0  0  0  0
  183.2790  176.8990  136.2550 O   0  0  0  0  0  1  0  0  0  0  0  0
  186.9080  177.8230  142.5490 O   0  0  0  0  0  1  0  0  0  0  0  0
  186.4940  175.0460  135.6310 C   0  0  0  0  0  3  0  0  0  0  0  0
  185.3550  179.1450  141.2460 C   0  0  1  0  0  3  0  0  0  0  0  0
  187.8610  178.9400  136.8280 C   0  0  0  0  0  2  0  0  0  0  0  0
  182.6040  176.4300  138.4790 C   0  0  0  0  0  1  0  0  0  0  0  0
  183.0230  177.5050  137.4850 C   0  0  1  0  0  0  0  0  0  0  0  0
  181.8810  179.7300  138.1840 C   0  0  0  0  0  0  0  0  0  0  0  0
  184.2770  178.2590  137.9570 C   0  0  1  0  0  3  0  0  0  0  0  0
  190.3850  177.3260  138.9020 N   0  0  0  0  0  1  0  0  0  0  0  0
  186.2540  178.5900  139.1470 C   0  0  1  0  0  3  0  0  0  0  0  0
  183.0260  180.0340  138.9920 N   0  0  0  0  0  2  0  0  0  0  0  0
  181.8570  178.5040  137.2890 C   0  0  0  0  0  2  0  0  0  0  0  0
  189.0850  177.7730  138.6400 N   0  0  0  0  0  0  0  0  0  0  0  0
  186.2880  176.9440  137.1450 C   0  0  0  0  0  0  0  0  0  0  0  0
  186.7930  178.7060  141.4730 C   0  0  2  0  0  3  0  0  0  0  0  0
  180.9180  180.6300  138.0620 C   0  0  0  0  0  2  0  0  0  0  0  0
  188.6300  178.4560  139.8430 C   0  0  0  0  0  2  0  0  0  0  0  0
  185.9140  175.6530  136.7460 C   0  0  0  0  0  3  0  0  0  0  0  0
  187.8650  177.0030  135.2850 C   0  0  0  0  0  3  0  0  0  0  0  0
  187.4650  175.7250  134.8960 C   0  0  0  0  0  3  0  0  0  0  0  0
  189.1910  178.7580  137.5660 C   0  0  0  0  0  2  0  0  0  0  0  0
  185.2380  179.4270  139.8030 N   0  0  1  0  0  0  0  0  0  0  0  0
  187.2070  178.0340  140.1870 C   0  0  2  0  0  3  0  0  0  0  0  0
  183.9680  178.9620  139.2460 C   0  0  2  0  0  3  0  0  0  0  0  0
  184.4690  178.1390  141.6660 O   0  0  0  0  0  1  0  0  0  0  0  0
  185.5340  177.5130  138.3330 C   0  0  2  0  0  3  0  0  0  0  0  0
  1  6  1  0  0  0  0
  1 16  1  0  0  0  0
  2  8  1  0  0  0  0
  4 20  1  0  0  0  0
  5 17  1  0  0  0  0
  5 27  1  6  0  0  0
  6 23  1  0  0  0  0
  8 10  1  0  0  0  0
  8  7  1  1  0  0  0
  9 13  1  0  0  0  0
 10 28  1  0  0  0  0
 10 26  1  0  0  0  0
 12 24  1  0  0  0  0
 12 25  1  0  0  0  0
 13 26  1  0  0  0  0
 14  8  1  0  0  0  0
 14  9  1  0  0  0  0
 15 11  1  0  0  0  0
 15 19  1  0  0  0  0
 16 28  1  0  0  0  0
 17  3  1  0  0  0  0
 18  9  2  0  0  0  0
 19 25  1  0  0  0  0
 20 16  2  0  0  0  0
 21  1  2  0  0  0  0
 22 21  1  0  0  0  0
 22  4  2  0  0  0  0
 23 15  1  0  0  0  0
 24  5  1  0  0  0  0
 25 17  1  0  0  0  0
 26 24  1  0  0  0  0
 28 12  1  0  0  0  0
M  END
>  <MODEL>
1

>  <REMARK>
 VINA RESULT:      -6.7      0.000      0.000
  Name = 
  0 active torsions:
  status: ('A' for Active; 'I' for Inactive)
                            x       y       z     vdW  Elec       q    Type
                         _______ _______ _______ _____ _____    ______ ____

>  <TORSDO>
F 0

$$$$
=
 OpenBabel11122411523D

 28 32  0  0  1  0  0  0  0  0999 V2000
  186.4430  177.4410  142.9740 C   0  0  0  0  0  0  0  0  0  0  0  0
  187.0580  178.0120  138.9820 O   0  0  0  0  0  1  0  0  0  0  0  0
  192.3130  179.0240  143.9810 O   0  0  0  0  0  1  0  0  0  0  0  0
  185.2000  179.6670  141.8050 C   0  0  0  0  0  3  0  0  0  0  0  0
  191.8350  177.3510  142.2990 C   0  0  1  0  0  3  0  0  0  0  0  0
  187.0700  176.3160  143.7370 C   0  0  0  0  0  2  0  0  0  0  0  0
  189.1580  179.0930  138.7780 C   0  0  0  0  0  1  0  0  0  0  0  0
  188.4310  177.7840  139.0580 C   0  0  1  0  0  0  0  0  0  0  0  0
  189.9700  175.8360  138.2980 C   0  0  0  0  0  0  0  0  0  0  0  0
  188.7820  177.2240  140.4470 C   0  0  1  0  0  3  0  0  0  0  0  0
  187.9550  178.5110  146.5070 N   0  0  0  0  0  1  0  0  0  0  0  0
  189.5140  177.2910  142.6590 C   0  0  1  0  0  3  0  0  0  0  0  0
  190.5340  175.8010  139.6150 N   0  0  0  0  0  2  0  0  0  0  0  0
  188.8020  176.7490  137.9700 C   0  0  0  0  0  2  0  0  0  0  0  0
  188.1440  177.9820  145.2260 N   0  0  0  0  0  0  0  0  0  0  0  0
  187.1850  178.2870  142.1050 C   0  0  0  0  0  0  0  0  0  0  0  0
  191.5830  177.8650  143.7080 C   0  0  2  0  0  3  0  0  0  0  0  0
  190.3340  174.9200  137.4140 C   0  0  0  0  0  2  0  0  0  0  0  0
  189.5610  177.6680  145.1090 C   0  0  0  0  0  2  0  0  0  0  0  0
  186.5440  179.3980  141.5410 C   0  0  0  0  0  3  0  0  0  0  0  0
  185.0950  177.7220  143.2300 C   0  0  0  0  0  3  0  0  0  0  0  0
  184.4740  178.8240  142.6440 C   0  0  0  0  0  3  0  0  0  0  0  0
  187.3910  176.7300  145.1770 C   0  0  0  0  0  2  0  0  0  0  0  0
  190.5970  176.6600  141.8900 N   0  0  1  0  0  0  0  0  0  0  0  0
  190.1020  178.1440  143.7670 C   0  0  2  0  0  3  0  0  0  0  0  0
  190.2510  176.9190  140.4930 C   0  0  2  0  0  3  0  0  0  0  0  0
  192.1570  178.4180  141.4440 O   0  0  0  0  0  1  0  0  0  0  0  0
  188.6270  178.0720  141.6860 C   0  0  2  0  0  3  0  0  0  0  0  0
  1 21  1  0  0  0  0
  1  6  1  0  0  0  0
  2  8  1  0  0  0  0
  4 22  1  0  0  0  0
  5 27  1  6  0  0  0
  5 17  1  0  0  0  0
  6 23  1  0  0  0  0
  8  7  1  6  0  0  0
  8 10  1  0  0  0  0
  9 13  1  0  0  0  0
 10 26  1  0  0  0  0
 10 28  1  0  0  0  0
 12 25  1  0  0  0  0
 13 26  1  0  0  0  0
 14  9  1  0  0  0  0
 14  8  1  0  0  0  0
 15 11  1  0  0  0  0
 16  1  2  0  0  0  0
 17 25  1  0  0  0  0
 17  3  1  0  0  0  0
 18  9  2  0  0  0  0
 19 15  1  0  0  0  0
 20  4  2  0  0  0  0
 20 16  1  0  0  0  0
 22 21  2  0  0  0  0
 23 15  1  0  0  0  0
 24  5  1  0  0  0  0
 24 12  1  0  0  0  0
 25 19  1  0  0  0  0
 26 24  1  0  0  0  0
 28 16  1  0  0  0  0
 28 12  1  0  0  0  0
M  END
>  <MODEL>
2

>  <REMARK>
 VINA RESULT:      -6.5      3.892      6.969
  Name = 
  0 active torsions:
  status: ('A' for Active; 'I' for Inactive)
                            x       y       z     vdW  Elec       q    Type
                         _______ _______ _______ _____ _____    ______ ____

>  <TORSDO>
F 0

$$$$
=
 OpenBabel11122411523D

 28 32  0  0  1  0  0  0  0  0999 V2000
  188.3320  177.0020  142.0400 C   0  0  0  0  0  0  0  0  0  0  0  0
  186.7640  176.7790  138.2810 O   0  0  0  0  0  1  0  0  0  0  0  0
  193.8360  178.2070  139.5440 O   0  0  0  0  0  1  0  0  0  0  0  0
  186.6210  179.0810  141.2550 C   0  0  0  0  0  3  0  0  0  0  0  0
  192.5810  176.3050  138.7260 C   0  0  1  0  0  3  0  0  0  0  0  0
  189.2850  175.9830  142.5820 C   0  0  0  0  0  2  0  0  0  0  0  0
  188.4300  177.6110  136.8130 C   0  0  0  0  0  1  0  0  0  0  0  0
  187.9800  176.4450  137.6860 C   0  0  1  0  0  0  0  0  0  0  0  0
  188.9320  174.2610  136.6550 C   0  0  0  0  0  0  0  0  0  0  0  0
  189.0140  176.1190  138.7760 C   0  0  1  0  0  3  0  0  0  0  0  0
  191.4440  178.5570  143.9930 N   0  0  0  0  0  1  0  0  0  0  0  0
  190.7900  176.5210  140.2310 C   0  0  1  0  0  3  0  0  0  0  0  0
  190.1010  174.4160  137.4700 N   0  0  0  0  0  2  0  0  0  0  0  0
  187.7470  175.2000  136.7970 C   0  0  0  0  0  2  0  0  0  0  0  0
  190.9460  177.7880  142.9350 N   0  0  0  0  0  0  0  0  0  0  0  0
  188.4960  177.6050  140.7640 C   0  0  0  0  0  0  0  0  0  0  0  0
  193.0920  177.0880  139.9260 C   0  0  2  0  0  3  0  0  0  0  0  0
  188.7990  173.1710  135.9160 C   0  0  0  0  0  2  0  0  0  0  0  0
  192.1010  177.3320  142.1730 C   0  0  0  0  0  2  0  0  0  0  0  0
  187.6350  178.6480  140.3990 C   0  0  0  0  0  3  0  0  0  0  0  0
  187.3100  177.4450  142.8900 C   0  0  0  0  0  3  0  0  0  0  0  0
  186.4540  178.4730  142.4980 C   0  0  0  0  0  3  0  0  0  0  0  0
  190.3020  176.6210  143.5340 C   0  0  0  0  0  2  0  0  0  0  0  0
  191.3250  175.6660  139.1600 N   0  0  1  0  0  0  0  0  0  0  0  0
  191.8530  177.5050  140.6800 C   0  0  2  0  0  3  0  0  0  0  0  0
  190.2960  175.6960  138.1210 C   0  0  2  0  0  3  0  0  0  0  0  0
  192.3900  177.1660  137.6320 O   0  0  0  0  0  1  0  0  0  0  0  0
  189.5120  177.1880  139.7170 C   0  0  2  0  0  3  0  0  0  0  0  0
  1  6  1  0  0  0  0
  1 21  1  0  0  0  0
  3 17  1  0  0  0  0
  4 22  1  0  0  0  0
  5 27  1  6  0  0  0
  5 24  1  0  0  0  0
  5 17  1  0  0  0  0
  6 23  1  0  0  0  0
  8  7  1  6  0  0  0
  8  2  1  0  0  0  0
  8 10  1  0  0  0  0
  9 14  1  0  0  0  0
  9 13  1  0  0  0  0
 10 28  1  0  0  0  0
 12 25  1  0  0  0  0
 13 26  1  0  0  0  0
 14  8  1  0  0  0  0
 15 23  1  0  0  0  0
 15 11  1  0  0  0  0
 16  1  2  0  0  0  0
 17 25  1  0  0  0  0
 18  9  2  0  0  0  0
 19 15  1  0  0  0  0
 20 16  1  0  0  0  0
 20  4  2  0  0  0  0
 22 21  2  0  0  0  0
 24 12  1  0  0  0  0
 25 19  1  0  0  0  0
 26 10  1  0  0  0  0
 26 24  1  0  0  0  0
 28 12  1  0  0  0  0
 28 16  1  0  0  0  0
M  END
>  <MODEL>
3

>  <REMARK>
 VINA RESULT:      -6.3      3.934      6.719
  Name = 
  0 active torsions:
  status: ('A' for Active; 'I' for Inactive)
                            x       y       z     vdW  Elec       q    Type
                         _______ _______ _______ _____ _____    ______ ____

>  <TORSDO>
F 0

$$$$
=
 OpenBabel11122411523D

 28 32  0  0  1  0  0  0  0  0999 V2000
  185.0950  175.0170  136.8450 C   0  0  0  0  0  0  0  0  0  0  0  0
  186.0470  178.6280  138.4870 O   0  0  0  0  0  1  0  0  0  0  0  0
  179.1470  176.2480  137.8850 O   0  0  0  0  0  1  0  0  0  0  0  0
  186.0320  176.9980  135.0950 C   0  0  0  0  0  3  0  0  0  0  0  0
  180.7230  176.5200  139.7010 C   0  0  1  0  0  3  0  0  0  0  0  0
  184.5530  173.8790  137.6520 C   0  0  0  0  0  2  0  0  0  0  0  0
  184.0070  179.8130  138.7180 C   0  0  0  0  0  1  0  0  0  0  0  0
  184.8890  178.6950  139.2590 C   0  0  1  0  0  0  0  0  0  0  0  0
  184.4130  178.4600  141.8010 C   0  0  0  0  0  0  0  0  0  0  0  0
  184.1690  177.3360  139.2250 C   0  0  1  0  0  3  0  0  0  0  0  0
  182.0300  173.1230  135.1340 N   0  0  0  0  0  1  0  0  0  0  0  0
  182.6040  175.7610  138.5160 C   0  0  1  0  0  3  0  0  0  0  0  0
  183.3900  177.5030  141.4950 N   0  0  0  0  0  2  0  0  0  0  0  0
  185.3050  179.0280  140.7120 C   0  0  0  0  0  2  0  0  0  0  0  0
  182.5420  173.8680  136.2020 N   0  0  0  0  0  0  0  0  0  0  0  0
  184.5730  176.3360  136.9310 C   0  0  0  0  0  0  0  0  0  0  0  0
  180.2170  175.6540  138.5580 C   0  0  2  0  0  3  0  0  0  0  0  0
  184.7170  178.6990  143.0670 C   0  0  0  0  0  2  0  0  0  0  0  0
  181.4480  174.0460  137.1470 C   0  0  0  0  0  2  0  0  0  0  0  0
  185.0500  177.3060  136.0380 C   0  0  0  0  0  3  0  0  0  0  0  0
  186.0800  174.7210  135.8940 C   0  0  0  0  0  3  0  0  0  0  0  0
  186.5520  175.7070  135.0280 C   0  0  0  0  0  3  0  0  0  0  0  0
  183.5650  173.0380  136.8360 C   0  0  0  0  0  2  0  0  0  0  0  0
  182.1580  176.2100  139.8440 N   0  0  1  0  0  0  0  0  0  0  0  0
  181.4000  175.4880  137.6360 C   0  0  2  0  0  3  0  0  0  0  0  0
  182.9610  177.4010  140.1140 C   0  0  2  0  0  3  0  0  0  0  0  0
  180.4970  177.8770  139.4170 O   0  0  0  0  0  1  0  0  0  0  0  0
  183.5550  176.8160  137.9480 C   0  0  2  0  0  3  0  0  0  0  0  0
  1 16  1  0  0  0  0
  1  6  1  0  0  0  0
  2  8  1  0  0  0  0
  3 17  1  0  0  0  0
  4 20  1  0  0  0  0
  5 27  1  6  0  0  0
  5 24  1  0  0  0  0
  8  7  1  6  0  0  0
  8 14  1  0  0  0  0
  9 18  2  0  0  0  0
 10  8  1  0  0  0  0
 10 26  1  0  0  0  0
 11 15  1  0  0  0  0
 12 24  1  0  0  0  0
 13  9  1  0  0  0  0
 14  9  1  0  0  0  0
 15 23  1  0  0  0  0
 15 19  1  0  0  0  0
 16 28  1  0  0  0  0
 17  5  1  0  0  0  0
 19 25  1  0  0  0  0
 20 16  2  0  0  0  0
 21  1  2  0  0  0  0
 22  4  2  0  0  0  0
 22 21  1  0  0  0  0
 23  6  1  0  0  0  0
 24 26  1  0  0  0  0
 25 12  1  0  0  0  0
 25 17  1  0  0  0  0
 26 13  1  0  0  0  0
 28 12  1  0  0  0  0
 28 10  1  0  0  0  0
M  END
>  <MODEL>
4

>  <REMARK>
 VINA RESULT:      -5.5      3.036      5.392
  Name = 
  0 active torsions:
  status: ('A' for Active; 'I' for Inactive)
                            x       y       z     vdW  Elec       q    Type
                         _______ _______ _______ _____ _____    ______ ____

>  <TORSDO>
F 0

$$$$
=
 OpenBabel11122411523D

 28 32  0  0  1  0  0  0  0  0999 V2000
  183.8480  175.0090  137.0820 C   0  0  0  0  0  0  0  0  0  0  0  0
  187.6130  176.5780  137.0110 O   0  0  0  0  0  1  0  0  0  0  0  0
  181.6390  180.6670  138.1240 O   0  0  0  0  0  1  0  0  0  0  0  0
  185.1390  175.0960  134.5940 C   0  0  0  0  0  3  0  0  0  0  0  0
  183.4550  179.8570  139.5050 C   0  0  1  0  0  3  0  0  0  0  0  0
  183.0280  174.9300  138.3320 C   0  0  0  0  0  2  0  0  0  0  0  0
  187.3520  178.9340  136.9450 C   0  0  0  0  0  1  0  0  0  0  0  0
  187.2780  177.6760  137.8020 C   0  0  1  0  0  0  0  0  0  0  0  0
  187.8070  178.3470  140.2540 C   0  0  0  0  0  0  0  0  0  0  0  0
  185.8740  177.4740  138.3950 C   0  0  1  0  0  3  0  0  0  0  0  0
  180.0430  176.1080  136.6050 N   0  0  0  0  0  1  0  0  0  0  0  0
  183.5610  177.7140  138.5480 C   0  0  1  0  0  3  0  0  0  0  0  0
  186.4080  178.5720  140.4670 N   0  0  0  0  0  2  0  0  0  0  0  0
  188.3180  177.7730  138.9440 C   0  0  0  0  0  2  0  0  0  0  0  0
  181.2850  176.2990  137.2220 N   0  0  0  0  0  0  0  0  0  0  0  0
  184.5160  176.1960  136.6770 C   0  0  0  0  0  0  0  0  0  0  0  0
  182.1020  179.5800  138.8700 C   0  0  2  0  0  3  0  0  0  0  0  0
  188.6430  178.4490  141.2760 C   0  0  0  0  0  2  0  0  0  0  0  0
  181.1340  177.4370  138.1170 C   0  0  0  0  0  2  0  0  0  0  0  0
  185.1450  176.2180  135.4240 C   0  0  0  0  0  3  0  0  0  0  0  0
  183.8490  173.8900  136.2400 C   0  0  0  0  0  3  0  0  0  0  0  0
  184.4960  173.9290  135.0050 C   0  0  0  0  0  3  0  0  0  0  0  0
  181.5360  175.1080  138.0310 C   0  0  0  0  0  2  0  0  0  0  0  0
  184.1290  178.5500  139.6160 N   0  0  1  0  0  0  0  0  0  0  0  0
  182.3230  178.3810  137.9810 C   0  0  2  0  0  3  0  0  0  0  0  0
  185.5540  178.6290  139.2980 C   0  0  2  0  0  3  0  0  0  0  0  0
  184.1820  180.7660  138.7190 O   0  0  0  0  0  1  0  0  0  0  0  0
  184.6530  177.4580  137.5080 C   0  0  2  0  0  3  0  0  0  0  0  0
  1  6  1  0  0  0  0
  2  8  1  0  0  0  0
  3 17  1  0  0  0  0
  4 22  2  0  0  0  0
  4 20  1  0  0  0  0
  5 27  1  6  0  0  0
  5 24  1  0  0  0  0
  8  7  1  6  0  0  0
  8 10  1  0  0  0  0
  8 14  1  0  0  0  0
  9 13  1  0  0  0  0
  9 18  2  0  0  0  0
 10 26  1  0  0  0  0
 11 15  1  0  0  0  0
 12 24  1  0  0  0  0
 14  9  1  0  0  0  0
 15 23  1  0  0  0  0
 15 19  1  0  0  0  0
 16  1  1  0  0  0  0
 16 28  1  0  0  0  0
 17  5  1  0  0  0  0
 20 16  2  0  0  0  0
 21  1  2  0  0  0  0
 22 21  1  0  0  0  0
 23  6  1  0  0  0  0
 25 19  1  0  0  0  0
 25 12  1  0  0  0  0
 25 17  1  0  0  0  0
 26 24  1  0  0  0  0
 26 13  1  0  0  0  0
 28 10  1  0  0  0  0
 28 12  1  0  0  0  0
M  END
>  <MODEL>
5

>  <REMARK>
 VINA RESULT:      -5.5      2.355      5.413
  Name = 
  0 active torsions:
  status: ('A' for Active; 'I' for Inactive)
                            x       y       z     vdW  Elec       q    Type
                         _______ _______ _______ _____ _____    ______ ____

>  <TORSDO>
F 0

$$$$
=
 OpenBabel11122411523D

 28 32  0  0  1  0  0  0  0  0999 V2000
  181.7300  177.0190  139.0820 C   0  0  0  0  0  0  0  0  0  0  0  0
  180.3880  174.1530  136.5090 O   0  0  0  0  0  1  0  0  0  0  0  0
  186.7180  177.7050  135.5290 O   0  0  0  0  0  1  0  0  0  0  0  0
  179.5150  177.6780  137.4940 C   0  0  0  0  0  3  0  0  0  0  0  0
  186.0830  175.4740  136.2210 C   0  0  1  0  0  3  0  0  0  0  0  0
  182.9220  176.8200  139.9660 C   0  0  0  0  0  2  0  0  0  0  0  0
  181.7820  174.2710  134.5940 C   0  0  0  0  0  1  0  0  0  0  0  0
  181.6630  173.8290  136.0470 C   0  0  1  0  0  0  0  0  0  0  0  0
  183.2290  171.7860  136.3910 C   0  0  0  0  0  0  0  0  0  0  0  0
  182.7200  174.5060  136.9350 C   0  0  1  0  0  3  0  0  0  0  0  0
  184.2140  180.1380  139.1960 N   0  0  0  0  0  1  0  0  0  0  0  0
  184.2680  176.1340  137.5580 C   0  0  1  0  0  3  0  0  0  0  0  0
  184.2830  172.6870  136.7540 N   0  0  0  0  0  2  0  0  0  0  0  0
  181.8210  172.2920  136.1290 C   0  0  0  0  0  2  0  0  0  0  0  0
  183.9860  178.7900  138.9020 N   0  0  0  0  0  0  0  0  0  0  0  0
  181.7470  176.7220  137.6930 C   0  0  0  0  0  0  0  0  0  0  0  0
  186.3170  176.9240  136.6150 C   0  0  2  0  0  3  0  0  0  0  0  0
  183.4330  170.4810  136.4820 C   0  0  0  0  0  2  0  0  0  0  0  0
  185.2410  178.2560  138.3930 C   0  0  0  0  0  2  0  0  0  0  0  0
  180.6320  177.0700  136.9180 C   0  0  0  0  0  3  0  0  0  0  0  0
  180.6040  177.6290  139.6480 C   0  0  0  0  0  3  0  0  0  0  0  0
  179.4980  177.9510  138.8610 C   0  0  0  0  0  3  0  0  0  0  0  0
  183.6890  178.1310  140.1720 C   0  0  0  0  0  2  0  0  0  0  0  0
  185.0530  174.9610  137.1430 N   0  0  1  0  0  0  0  0  0  0  0  0
  184.9930  177.4030  137.1550 C   0  0  2  0  0  3  0  0  0  0  0  0
  184.0860  174.0940  136.4700 C   0  0  2  0  0  3  0  0  0  0  0  0
  185.6820  175.3970  134.8760 O   0  0  0  0  0  1  0  0  0  0  0  0
  182.8660  176.0080  136.9580 C   0  0  2  0  0  3  0  0  0  0  0  0
  1 21  1  0  0  0  0
  1  6  1  0  0  0  0
  3 17  1  0  0  0  0
  4 22  1  0  0  0  0
  5 27  1  6  0  0  0
  5 17  1  0  0  0  0
  5 24  1  0  0  0  0
  6 23  1  0  0  0  0
  8  7  1  6  0  0  0
  8 14  1  0  0  0  0
  8  2  1  0  0  0  0
  8 10  1  0  0  0  0
  9 18  2  0  0  0  0
  9 13  1  0  0  0  0
 10 28  1  0  0  0  0
 14  9  1  0  0  0  0
 15 11  1  0  0  0  0
 15 23  1  0  0  0  0
 16  1  2  0  0  0  0
 17 25  1  0  0  0  0
 19 15  1  0  0  0  0
 20  4  2  0  0  0  0
 20 16  1  0  0  0  0
 22 21  2  0  0  0  0
 24 12  1  0  0  0  0
 25 12  1  0  0  0  0
 25 19  1  0  0  0  0
 26 13  1  0  0  0  0
 26 10  1  0  0  0  0
 26 24  1  0  0  0  0
 28 12  1  0  0  0  0
 28 16  1  0  0  0  0
M  END
>  <MODEL>
6

>  <REMARK>
 VINA RESULT:      -5.3      3.189      6.231
  Name = 
  0 active torsions:
  status: ('A' for Active; 'I' for Inactive)
                            x       y       z     vdW  Elec       q    Type
                         _______ _______ _______ _____ _____    ______ ____

>  <TORSDO>
F 0

$$$$
=
 OpenBabel11122411523D

 28 32  0  0  1  0  0  0  0  0999 V2000
  182.0710  178.4040  140.3210 C   0  0  0  0  0  0  0  0  0  0  0  0
  180.0350  177.9940  136.8100 O   0  0  0  0  0  1  0  0  0  0  0  0
  187.3010  178.8690  137.0950 O   0  0  0  0  0  1  0  0  0  0  0  0
  180.4500  180.5540  139.5370 C   0  0  0  0  0  3  0  0  0  0  0  0
  185.8040  177.0260  136.6210 C   0  0  1  0  0  3  0  0  0  0  0  0
  182.9980  177.3530  140.8470 C   0  0  0  0  0  2  0  0  0  0  0  0
  181.5670  178.5350  135.0840 C   0  0  0  0  0  1  0  0  0  0  0  0
  181.1360  177.4980  136.1130 C   0  0  1  0  0  0  0  0  0  0  0  0
  181.7730  175.1520  135.2010 C   0  0  0  0  0  0  0  0  0  0  0  0
  182.2680  177.1760  137.1030 C   0  0  1  0  0  3  0  0  0  0  0  0
  185.5170  179.8310  141.7350 N   0  0  0  0  0  1  0  0  0  0  0  0
  184.2380  177.5390  138.2940 C   0  0  1  0  0  3  0  0  0  0  0  0
  183.0420  175.2710  135.8550 N   0  0  0  0  0  2  0  0  0  0  0  0
  180.6950  176.2060  135.3850 C   0  0  0  0  0  2  0  0  0  0  0  0
  184.8320  179.0210  140.8230 N   0  0  0  0  0  0  0  0  0  0  0  0
  182.1240  178.8730  138.9810 C   0  0  0  0  0  0  0  0  0  0  0  0
  186.5220  177.8610  137.6690 C   0  0  2  0  0  3  0  0  0  0  0  0
  181.4600  174.0180  134.5940 C   0  0  0  0  0  2  0  0  0  0  0  0
  185.8420  178.3950  139.9810 C   0  0  0  0  0  2  0  0  0  0  0  0
  181.3110  179.9560  138.6160 C   0  0  0  0  0  3  0  0  0  0  0  0
  181.2030  179.0130  141.2350 C   0  0  0  0  0  3  0  0  0  0  0  0
  180.3900  180.0770  140.8460 C   0  0  0  0  0  3  0  0  0  0  0  0
  184.1740  177.9760  141.6050 C   0  0  0  0  0  2  0  0  0  0  0  0
  184.5640  176.5470  137.2590 N   0  0  1  0  0  0  0  0  0  0  0  0
  185.4250  178.4560  138.5170 C   0  0  2  0  0  3  0  0  0  0  0  0
  183.4200  176.5800  136.3490 C   0  0  2  0  0  3  0  0  0  0  0  0
  185.5490  177.8000  135.4760 O   0  0  0  0  0  1  0  0  0  0  0  0
  182.9640  178.2730  137.8690 C   0  0  2  0  0  3  0  0  0  0  0  0
  1  6  1  0  0  0  0
  1 21  1  0  0  0  0
  3 17  1  0  0  0  0
  4 22  1  0  0  0  0
  5 27  1  6  0  0  0
  5 24  1  0  0  0  0
  5 17  1  0  0  0  0
  6 23  1  0  0  0  0
  8  7  1  6  0  0  0
  8  2  1  0  0  0  0
  8 10  1  0  0  0  0
  9 14  1  0  0  0  0
  9 13  1  0  0  0  0
 10 28  1  0  0  0  0
 12 25  1  0  0  0  0
 13 26  1  0  0  0  0
 14  8  1  0  0  0  0
 15 23  1  0  0  0  0
 15 11  1  0  0  0  0
 16  1  2  0  0  0  0
 17 25  1  0  0  0  0
 18  9  2  0  0  0  0
 19 15  1  0  0  0  0
 20 16  1  0  0  0  0
 20  4  2  0  0  0  0
 22 21  2  0  0  0  0
 24 12  1  0  0  0  0
 25 19  1  0  0  0  0
 26 10  1  0  0  0  0
 26 24  1  0  0  0  0
 28 12  1  0  0  0  0
 28 16  1  0  0  0  0
M  END
>  <MODEL>
7

>  <REMARK>
 VINA RESULT:      -5.3      2.669      5.561
  Name = 
  0 active torsions:
  status: ('A' for Active; 'I' for Inactive)
                            x       y       z     vdW  Elec       q    Type
                         _______ _______ _______ _____ _____    ______ ____

>  <TORSDO>
F 0

$$$$
=
 OpenBabel11122411523D

 28 32  0  0  1  0  0  0  0  0999 V2000
  185.7330  175.1370  136.2240 C   0  0  0  0  0  0  0  0  0  0  0  0
  181.8620  173.8960  136.5620 O   0  0  0  0  0  1  0  0  0  0  0  0
  184.6400  179.3450  140.5920 O   0  0  0  0  0  1  0  0  0  0  0  0
  185.3040  172.6280  137.4010 C   0  0  0  0  0  3  0  0  0  0  0  0
  183.1130  179.1920  138.7190 C   0  0  1  0  0  3  0  0  0  0  0  0
  186.1090  176.4670  135.6480 C   0  0  0  0  0  2  0  0  0  0  0  0
  180.9930  174.9430  138.5050 C   0  0  0  0  0  1  0  0  0  0  0  0
  181.4060  175.1210  137.0490 C   0  0  1  0  0  0  0  0  0  0  0  0
  179.9650  177.0290  136.0370 C   0  0  0  0  0  0  0  0  0  0  0  0
  182.5130  176.1780  136.8980 C   0  0  1  0  0  3  0  0  0  0  0  0
  188.5390  177.0740  138.2950 N   0  0  0  0  0  1  0  0  0  0  0  0
  184.2960  177.5210  137.5680 C   0  0  1  0  0  3  0  0  0  0  0  0
  180.9730  177.9670  136.4360 N   0  0  0  0  0  2  0  0  0  0  0  0
  180.1720  175.5350  136.2140 C   0  0  0  0  0  2  0  0  0  0  0  0
  187.2370  177.0230  137.7840 N   0  0  0  0  0  0  0  0  0  0  0  0
  184.7290  174.9890  137.2190 C   0  0  0  0  0  0  0  0  0  0  0  0
  184.5550  179.2470  139.2010 C   0  0  2  0  0  3  0  0  0  0  0  0
  178.9320  177.4520  135.3250 C   0  0  0  0  0  2  0  0  0  0  0  0
  186.5800  178.2560  138.1970 C   0  0  0  0  0  2  0  0  0  0  0  0
  184.5410  173.7270  137.7990 C   0  0  0  0  0  3  0  0  0  0  0  0
  186.4910  174.0270  135.8330 C   0  0  0  0  0  3  0  0  0  0  0  0
  186.2740  172.7770  136.4120 C   0  0  0  0  0  3  0  0  0  0  0  0
  187.3600  177.0350  136.3280 C   0  0  0  0  0  2  0  0  0  0  0  0
  183.1300  178.4110  137.4680 N   0  0  1  0  0  0  0  0  0  0  0  0
  185.1790  177.9610  138.7200 C   0  0  2  0  0  3  0  0  0  0  0  0
  181.9870  177.5050  137.3620 C   0  0  2  0  0  3  0  0  0  0  0  0
  182.2960  178.6070  139.7020 O   0  0  0  0  0  1  0  0  0  0  0  0
  183.7910  176.0820  137.6950 C   0  0  2  0  0  3  0  0  0  0  0  0
  1 16  1  0  0  0  0
  2  8  1  0  0  0  0
  4 20  1  0  0  0  0
  5 17  1  0  0  0  0
  5 27  1  1  0  0  0
  6  1  1  0  0  0  0
  6 23  1  0  0  0  0
  8  7  1  1  0  0  0
  9 14  1  0  0  0  0
  9 13  1  0  0  0  0
 10  8  1  0  0  0  0
 10 26  1  0  0  0  0
 10 28  1  0  0  0  0
 12 28  1  0  0  0  0
 12 25  1  0  0  0  0
 13 26  1  0  0  0  0
 14  8  1  0  0  0  0
 15 19  1  0  0  0  0
 15 11  1  0  0  0  0
 16 28  1  0  0  0  0
 16 20  2  0  0  0  0
 17  3  1  0  0  0  0
 18  9  2  0  0  0  0
 19 25  1  0  0  0  0
 21  1  2  0  0  0  0
 21 22  1  0  0  0  0
 22  4  2  0  0  0  0
 23 15  1  0  0  0  0
 24 12  1  0  0  0  0
 24  5  1  0  0  0  0
 25 17  1  0  0  0  0
 26 24  1  0  0  0  0
M  END
>  <MODEL>
8

>  <REMARK>
 VINA RESULT:      -5.0      2.143      3.100
  Name = 
  0 active torsions:
  status: ('A' for Active; 'I' for Inactive)
                            x       y       z     vdW  Elec       q    Type
                         _______ _______ _______ _____ _____    ______ ____

>  <TORSDO>
F 0

$$$$
=
 OpenBabel11122411523D

 28 32  0  0  1  0  0  0  0  0999 V2000
  182.7040  178.1200  137.1410 C   0  0  0  0  0  0  0  0  0  0  0  0
  186.5580  179.1330  138.0160 O   0  0  0  0  0  1  0  0  0  0  0  0
  184.2890  172.1820  137.5920 O   0  0  0  0  0  1  0  0  0  0  0  0
  183.1740  179.2700  139.6560 C   0  0  0  0  0  3  0  0  0  0  0  0
  185.6370  173.6420  136.2100 C   0  0  1  0  0  3  0  0  0  0  0  0
  182.3110  177.4690  135.8520 C   0  0  0  0  0  2  0  0  0  0  0  0
  187.6220  177.1420  138.7410 C   0  0  0  0  0  1  0  0  0  0  0  0
  187.0850  177.9290  137.5510 C   0  0  1  0  0  0  0  0  0  0  0  0
  188.4780  177.2680  135.4620 C   0  0  0  0  0  0  0  0  0  0  0  0
  185.9960  177.1470  136.7980 C   0  0  1  0  0  3  0  0  0  0  0  0
  180.1440  175.0900  137.5620 N   0  0  0  0  0  1  0  0  0  0  0  0
  184.3140  175.5600  136.5070 C   0  0  1  0  0  3  0  0  0  0  0  0
  187.5340  176.2240  135.1940 N   0  0  0  0  0  2  0  0  0  0  0  0
  188.2500  178.2610  136.5890 C   0  0  0  0  0  2  0  0  0  0  0  0
  181.3930  175.5640  137.1460 N   0  0  0  0  0  0  0  0  0  0  0  0
  183.7890  177.6590  137.9350 C   0  0  0  0  0  0  0  0  0  0  0  0
  184.2470  173.1730  136.6080 C   0  0  2  0  0  3  0  0  0  0  0  0
  189.4530  177.4970  134.5960 C   0  0  0  0  0  2  0  0  0  0  0  0
  182.1160  174.4180  136.6110 C   0  0  0  0  0  2  0  0  0  0  0  0
  183.9970  178.2420  139.1920 C   0  0  0  0  0  3  0  0  0  0  0  0
  181.8860  179.1520  137.6170 C   0  0  0  0  0  3  0  0  0  0  0  0
  182.1220  179.7300  138.8640 C   0  0  0  0  0  3  0  0  0  0  0  0
  181.1410  176.4990  136.0520 C   0  0  0  0  0  2  0  0  0  0  0  0
  185.4890  175.0470  135.7860 N   0  0  1  0  0  0  0  0  0  0  0  0
  183.5490  174.4070  137.1260 C   0  0  2  0  0  3  0  0  0  0  0  0
  186.5950  175.8860  136.2450 C   0  0  2  0  0  3  0  0  0  0  0  0
  186.5240  173.5020  137.2910 O   0  0  0  0  0  1  0  0  0  0  0  0
  184.7930  176.5980  137.5240 C   0  0  2  0  0  3  0  0  0  0  0  0
  1 21  2  0  0  0  0
  1 16  1  0  0  0  0
  5 17  1  0  0  0  0
  5 27  1  1  0  0  0
  6 23  1  0  0  0  0
  6  1  1  0  0  0  0
  8  2  1  0  0  0  0
  8  7  1  1  0  0  0
  9 14  1  0  0  0  0
 10 28  1  0  0  0  0
 10  8  1  0  0  0  0
 12 25  1  0  0  0  0
 12 28  1  0  0  0  0
 13  9  1  0  0  0  0
 13 26  1  0  0  0  0
 14  8  1  0  0  0  0
 15 11  1  0  0  0  0
 16 20  2  0  0  0  0
 17 25  1  0  0  0  0
 17  3  1  0  0  0  0
 18  9  2  0  0  0  0
 19 25  1  0  0  0  0
 19 15  1  0  0  0  0
 20  4  1  0  0  0  0
 21 22  1  0  0  0  0
 22  4  2  0  0  0  0
 23 15  1  0  0  0  0
 24  5  1  0  0  0  0
 24 26  1  0  0  0  0
 24 12  1  0  0  0  0
 26 10  1  0  0  0  0
 28 16  1  0  0  0  0
M  END
>  <MODEL>
9

>  <REMARK>
 VINA RESULT:      -5.0      2.847      6.553
  Name = 
  0 active torsions:
  status: ('A' for Active; 'I' for Inactive)
                            x       y       z     vdW  Elec       q    Type
                         _______ _______ _______ _____ _____    ______ ____

>  <TORSDO>
F 0

$$$$
