=
 OpenBabel11122412063D

 34 40  0  0  1  0  0  0  0  0999 V2000
  188.4480  177.3470  144.5460 C   0  0  2  0  0  3  0  0  0  0  0  0
  190.7760  176.6680  143.9770 C   0  0  0  0  0  2  0  0  0  0  0  0
  182.1850  178.4100  142.2470 C   0  0  2  0  0  3  0  0  0  0  0  0
  185.9930  177.9420  144.5560 C   0  0  0  0  0  0  0  0  0  0  0  0
  184.7770  178.3510  142.4770 C   0  0  0  0  0  0  0  0  0  0  0  0
  183.6790  179.1430  140.5250 O   0  0  0  0  0  0  0  0  0  0  0  0
  181.1250  178.2710  141.1670 C   0  0  0  0  0  1  0  0  0  0  0  0
  182.8090  179.7080  144.3560 C   0  0  0  0  0  2  0  0  0  0  0  0
  189.6970  178.1730  142.3890 C   0  0  2  0  0  3  0  0  0  0  0  0
  190.5870  177.8910  139.4780 O   0  0  0  0  0  0  0  0  0  0  0  0
  185.9770  178.1810  141.7780 C   0  0  0  0  0  3  0  0  0  0  0  0
  183.5320  178.4170  144.7200 C   0  0  0  0  0  2  0  0  0  0  0  0
  188.4490  177.6430  141.6410 C   0  0  1  0  0  3  0  0  0  0  0  0
  191.7820  176.9350  142.8830 C   0  0  0  0  0  2  0  0  0  0  0  0
  184.7840  178.2400  143.8930 C   0  0  0  0  0  0  0  0  0  0  0  0
  181.7770  179.4890  143.2480 C   0  0  0  0  0  2  0  0  0  0  0  0
  191.0510  177.0220  140.4700 C   0  0  2  0  0  3  0  0  0  0  0  0
  187.1950  177.8000  143.8280 C   0  0  0  0  0  0  0  0  0  0  0  0
  183.5580  178.6540  141.6830 C   0  0  0  0  0  0  0  0  0  0  0  0
  187.1880  177.9180  142.4310 C   0  0  0  0  0  0  0  0  0  0  0  0
  187.1630  177.6310  146.6880 C   0  0  0  0  0  3  0  0  0  0  0  0
  189.2560  177.5270  139.2630 C   0  0  0  0  0  2  0  0  0  0  0  0
  186.0140  177.7240  146.0200 C   0  0  0  0  0  3  0  0  0  0  0  0
  188.3590  178.2640  140.2410 C   0  0  0  0  0  2  0  0  0  0  0  0
  191.0730  177.7570  141.8160 C   0  0  1  0  0  3  0  0  0  0  0  0
  188.4760  177.8450  145.9950 C   0  0  0  0  0  2  0  0  0  0  0  0
  189.7530  177.7740  143.8680 C   0  0  1  0  0  3  0  0  0  0  0  0
  192.3350  176.5890  140.1290 O   0  0  0  0  0  0  0  0  0  0  0  0
  192.4870  176.9490  138.7880 C   0  0  0  0  0  2  0  0  0  0  0  0
  192.2210  174.4110  136.3080 O   0  0  0  0  0  0  0  0  0  0  0  0
  193.6240  176.2740  136.6880 C   0  0  0  0  0  2  0  0  0  0  0  0
  193.0970  175.7970  138.0090 C   0  0  2  0  0  3  0  0  0  0  0  0
  192.7990  175.5190  135.6730 C   0  0  0  0  0  2  0  0  0  0  0  0
  192.0140  174.8140  137.6340 C   0  0  0  0  0  2  0  0  0  0  0  0
  1 26  1  1  0  0  0
  3  7  1  6  0  0  0
  3 16  1  0  0  0  0
  4 23  1  0  0  0  0
  5 15  2  0  0  0  0
  6 19  2  0  0  0  0
  8 12  1  0  0  0  0
  9 27  1  0  0  0  0
 10 17  1  0  0  0  0
 11 20  2  0  0  0  0
 11  5  1  0  0  0  0
 13  9  1  0  0  0  0
 13 20  1  0  0  0  0
 14  2  1  0  0  0  0
 15  4  1  0  0  0  0
 15 12  1  0  0  0  0
 16  8  1  0  0  0  0
 17 25  1  0  0  0  0
 18  1  1  0  0  0  0
 18  4  2  0  0  0  0
 19  3  1  0  0  0  0
 19  5  1  0  0  0  0
 20 18  1  0  0  0  0
 22 10  1  0  0  0  0
 22 24  1  0  0  0  0
 23 21  2  0  0  0  0
 24 13  1  0  0  0  0
 25  9  1  0  0  0  0
 25 14  1  0  0  0  0
 26 21  1  0  0  0  0
 27  2  1  0  0  0  0
 27  1  1  0  0  0  0
 28 17  1  0  0  0  0
 29 28  1  0  0  0  0
 30 34  1  0  0  0  0
 31 32  1  0  0  0  0
 32 29  1  0  0  0  0
 33 30  1  0  0  0  0
 33 31  1  0  0  0  0
 34 32  1  0  0  0  0
M  END
>  <MODEL>
1

>  <REMARK>
 VINA RESULT:     -10.3      0.000      0.000
  Name = 
  3 active torsions:
  status: ('A' for Active; 'I' for Inactive)
    1  A    between atoms: C_17  and  O_28
    2  A    between atoms: O_28  and  C_29
    3  A    between atoms: C_29  and  C_32
                            x       y       z     vdW  Elec       q    Type
                         _______ _______ _______ _____ _____    ______ ____

>  <TORSDO>
F 3

$$$$
=
 OpenBabel11122412063D

 34 40  0  0  1  0  0  0  0  0999 V2000
  188.8800  177.2300  143.8420 C   0  0  2  0  0  3  0  0  0  0  0  0
  191.0800  176.5140  142.9200 C   0  0  0  0  0  2  0  0  0  0  0  0
  182.3660  178.4490  142.5290 C   0  0  2  0  0  3  0  0  0  0  0  0
  186.4680  177.8720  144.2310 C   0  0  0  0  0  0  0  0  0  0  0  0
  184.9610  178.3360  142.3640 C   0  0  0  0  0  0  0  0  0  0  0  0
  183.5990  179.1780  140.6100 O   0  0  0  0  0  0  0  0  0  0  0  0
  181.1530  178.3460  141.6210 C   0  0  0  0  0  1  0  0  0  0  0  0
  183.3300  179.7030  144.5350 C   0  0  0  0  0  2  0  0  0  0  0  0
  189.8070  178.0630  141.5310 C   0  0  2  0  0  3  0  0  0  0  0  0
  190.2410  177.8070  138.5160 O   0  0  0  0  0  0  0  0  0  0  0  0
  186.0380  178.1530  141.4900 C   0  0  0  0  0  3  0  0  0  0  0  0
  184.0710  178.3930  144.7700 C   0  0  0  0  0  2  0  0  0  0  0  0
  188.4490  177.5690  140.9740 C   0  0  1  0  0  3  0  0  0  0  0  0
  191.9150  176.7780  141.6910 C   0  0  0  0  0  2  0  0  0  0  0  0
  185.1790  178.2040  143.7620 C   0  0  0  0  0  0  0  0  0  0  0  0
  182.1370  179.5210  143.5930 C   0  0  0  0  0  2  0  0  0  0  0  0
  190.8310  176.9150  139.4160 C   0  0  2  0  0  3  0  0  0  0  0  0
  187.5430  177.7180  143.3270 C   0  0  0  0  0  0  0  0  0  0  0  0
  183.6430  178.6750  141.7670 C   0  0  0  0  0  0  0  0  0  0  0  0
  187.3280  177.8570  141.9500 C   0  0  0  0  0  0  0  0  0  0  0  0
  187.9400  177.5070  146.1570 C   0  0  0  0  0  3  0  0  0  0  0  0
  188.8860  177.4730  138.5010 C   0  0  0  0  0  2  0  0  0  0  0  0
  186.7050  177.6320  145.6720 C   0  0  0  0  0  3  0  0  0  0  0  0
  188.1620  178.2120  139.6120 C   0  0  0  0  0  2  0  0  0  0  0  0
  191.0720  177.6290  140.7530 C   0  0  1  0  0  3  0  0  0  0  0  0
  189.1370  177.7060  145.2760 C   0  0  0  0  0  2  0  0  0  0  0  0
  190.0770  177.6420  142.9800 C   0  0  1  0  0  3  0  0  0  0  0  0
  192.0390  176.4620  138.8810 O   0  0  0  0  0  0  0  0  0  0  0  0
  191.6890  175.3560  138.1010 C   0  0  0  0  0  2  0  0  0  0  0  0
  194.9680  175.8630  136.8120 O   0  0  0  0  0  0  0  0  0  0  0  0
  193.6290  173.9950  137.3650 C   0  0  0  0  0  2  0  0  0  0  0  0
  192.7260  175.1410  137.0140 C   0  0  2  0  0  3  0  0  0  0  0  0
  194.9950  174.6300  137.4780 C   0  0  0  0  0  2  0  0  0  0  0  0
  193.6540  176.3310  136.9610 C   0  0  0  0  0  2  0  0  0  0  0  0
  1 26  1  1  0  0  0
  2 27  1  0  0  0  0
  3  7  1  6  0  0  0
  3 16  1  0  0  0  0
  4 23  1  0  0  0  0
  5 15  2  0  0  0  0
  6 19  2  0  0  0  0
  8 12  1  0  0  0  0
  9 27  1  0  0  0  0
 10 17  1  0  0  0  0
 11 20  2  0  0  0  0
 11  5  1  0  0  0  0
 13  9  1  0  0  0  0
 13 20  1  0  0  0  0
 14  2  1  0  0  0  0
 15  4  1  0  0  0  0
 15 12  1  0  0  0  0
 16  8  1  0  0  0  0
 17 25  1  0  0  0  0
 18  1  1  0  0  0  0
 18  4  2  0  0  0  0
 19  5  1  0  0  0  0
 19  3  1  0  0  0  0
 20 18  1  0  0  0  0
 22 10  1  0  0  0  0
 22 24  1  0  0  0  0
 23 21  2  0  0  0  0
 24 13  1  0  0  0  0
 25  9  1  0  0  0  0
 25 14  1  0  0  0  0
 26 21  1  0  0  0  0
 27  1  1  0  0  0  0
 28 17  1  0  0  0  0
 29 28  1  0  0  0  0
 30 34  1  0  0  0  0
 30 33  1  0  0  0  0
 31 33  1  0  0  0  0
 32 31  1  0  0  0  0
 32 29  1  0  0  0  0
 34 32  1  0  0  0  0
M  END
>  <MODEL>
2

>  <REMARK>
 VINA RESULT:     -10.0      1.014      1.234
  Name = 
  3 active torsions:
  status: ('A' for Active; 'I' for Inactive)
    1  A    between atoms: C_17  and  O_28
    2  A    between atoms: O_28  and  C_29
    3  A    between atoms: C_29  and  C_32
                            x       y       z     vdW  Elec       q    Type
                         _______ _______ _______ _____ _____    ______ ____

>  <TORSDO>
F 3

$$$$
=
 OpenBabel11122412063D

 34 40  0  0  1  0  0  0  0  0999 V2000
  186.7650  178.6070  141.5050 C   0  0  2  0  0  3  0  0  0  0  0  0
  188.9990  178.5720  142.6070 C   0  0  0  0  0  2  0  0  0  0  0  0
  180.1210  179.5340  142.3030 C   0  0  2  0  0  3  0  0  0  0  0  0
  184.3130  178.7750  140.9230 C   0  0  0  0  0  0  0  0  0  0  0  0
  182.5950  178.8070  142.6590 C   0  0  0  0  0  0  0  0  0  0  0  0
  180.9010  178.4350  144.2830 O   0  0  0  0  0  0  0  0  0  0  0  0
  178.9370  180.0150  143.1250 C   0  0  0  0  0  1  0  0  0  0  0  0
  180.7890  178.0510  140.3340 C   0  0  0  0  0  2  0  0  0  0  0  0
  187.1920  177.5040  143.8500 C   0  0  2  0  0  3  0  0  0  0  0  0
  187.4460  177.5870  146.8950 O   0  0  0  0  0  0  0  0  0  0  0  0
  183.6020  178.6290  143.6150 C   0  0  0  0  0  3  0  0  0  0  0  0
  181.9260  179.0550  140.1950 C   0  0  0  0  0  2  0  0  0  0  0  0
  186.0240  178.4040  144.3220 C   0  0  1  0  0  3  0  0  0  0  0  0
  189.6060  178.0460  143.8850 C   0  0  0  0  0  2  0  0  0  0  0  0
  182.9540  178.8720  141.2860 C   0  0  0  0  0  0  0  0  0  0  0  0
  179.6460  178.6000  141.1920 C   0  0  0  0  0  2  0  0  0  0  0  0
  188.3590  178.2480  146.0690 C   0  0  2  0  0  3  0  0  0  0  0  0
  185.3060  178.5710  141.9060 C   0  0  0  0  0  0  0  0  0  0  0  0
  181.1950  178.9050  143.1480 C   0  0  0  0  0  0  0  0  0  0  0  0
  184.9500  178.4980  143.2600 C   0  0  0  0  0  0  0  0  0  0  0  0
  185.9720  178.6620  139.1210 C   0  0  0  0  0  3  0  0  0  0  0  0
  186.2720  178.3380  146.8220 C   0  0  0  0  0  2  0  0  0  0  0  0
  184.7280  178.9370  139.5110 C   0  0  0  0  0  3  0  0  0  0  0  0
  185.4400  177.8780  145.6390 C   0  0  0  0  0  2  0  0  0  0  0  0
  188.4640  177.5040  144.7310 C   0  0  1  0  0  3  0  0  0  0  0  0
  186.9690  178.0830  140.0790 C   0  0  0  0  0  2  0  0  0  0  0  0
  187.6960  177.8260  142.4380 C   0  0  1  0  0  3  0  0  0  0  0  0
  189.6030  178.2860  146.7050 O   0  0  0  0  0  0  0  0  0  0  0  0
  189.9340  176.9450  146.9150 C   0  0  0  0  0  2  0  0  0  0  0  0
  192.8110  174.8540  147.0420 O   0  0  0  0  0  0  0  0  0  0  0  0
  191.7640  176.2060  145.4110 C   0  0  0  0  0  2  0  0  0  0  0  0
  191.4330  176.7540  146.7680 C   0  0  2  0  0  3  0  0  0  0  0  0
  192.3940  174.8650  145.7040 C   0  0  0  0  0  2  0  0  0  0  0  0
  191.8990  175.6770  147.7180 C   0  0  0  0  0  2  0  0  0  0  0  0
  1 26  1  6  0  0  0
  1 18  1  0  0  0  0
  1 27  1  0  0  0  0
  2 14  1  0  0  0  0
  3  7  1  1  0  0  0
  3 19  1  0  0  0  0
  4 15  2  0  0  0  0
  4 18  1  0  0  0  0
  5 19  1  0  0  0  0
  5 11  2  0  0  0  0
  8 16  1  0  0  0  0
  9 13  1  0  0  0  0
  9 25  1  0  0  0  0
 12  8  1  0  0  0  0
 12 15  1  0  0  0  0
 13 24  1  0  0  0  0
 14 25  1  0  0  0  0
 15  5  1  0  0  0  0
 16  3  1  0  0  0  0
 17 28  1  0  0  0  0
 17 10  1  0  0  0  0
 18 20  2  0  0  0  0
 19  6  2  0  0  0  0
 20 11  1  0  0  0  0
 20 13  1  0  0  0  0
 21 23  2  0  0  0  0
 21 26  1  0  0  0  0
 22 10  1  0  0  0  0
 23  4  1  0  0  0  0
 24 22  1  0  0  0  0
 25 17  1  0  0  0  0
 27  2  1  0  0  0  0
 27  9  1  0  0  0  0
 28 29  1  0  0  0  0
 30 34  1  0  0  0  0
 31 33  1  0  0  0  0
 31 32  1  0  0  0  0
 32 29  1  0  0  0  0
 32 34  1  0  0  0  0
 33 30  1  0  0  0  0
M  END
>  <MODEL>
3

>  <REMARK>
 VINA RESULT:      -9.8      3.935      5.916
  Name = 
  3 active torsions:
  status: ('A' for Active; 'I' for Inactive)
    1  A    between atoms: C_17  and  O_28
    2  A    between atoms: O_28  and  C_29
    3  A    between atoms: C_29  and  C_32
                            x       y       z     vdW  Elec       q    Type
                         _______ _______ _______ _____ _____    ______ ____

>  <TORSDO>
F 3

$$$$
=
 OpenBabel11122412063D

 34 40  0  0  1  0  0  0  0  0999 V2000
  190.3750  176.7140  141.5390 C   0  0  2  0  0  3  0  0  0  0  0  0
  190.7250  176.3820  139.0950 C   0  0  0  0  0  2  0  0  0  0  0  0
  185.8980  177.8340  146.4720 C   0  0  2  0  0  3  0  0  0  0  0  0
  189.4610  177.0960  143.8630 C   0  0  0  0  0  0  0  0  0  0  0  0
  187.1880  177.9200  144.2130 C   0  0  0  0  0  0  0  0  0  0  0  0
  185.1520  179.0900  144.5740 O   0  0  0  0  0  0  0  0  0  0  0  0
  184.4660  177.8890  146.9790 C   0  0  0  0  0  1  0  0  0  0  0  0
  188.2830  178.6040  146.9660 C   0  0  0  0  0  2  0  0  0  0  0  0
  189.1590  178.1500  139.7070 C   0  0  2  0  0  3  0  0  0  0  0  0
  186.9070  178.6790  137.7090 O   0  0  0  0  0  0  0  0  0  0  0  0
  187.0450  178.0240  142.8250 C   0  0  0  0  0  3  0  0  0  0  0  0
  188.6570  177.3230  146.2310 C   0  0  0  0  0  2  0  0  0  0  0  0
  187.8650  177.7310  140.4460 C   0  0  1  0  0  3  0  0  0  0  0  0
  190.2370  176.9930  137.8040 C   0  0  0  0  0  2  0  0  0  0  0  0
  188.4210  177.4570  144.7450 C   0  0  0  0  0  0  0  0  0  0  0  0
  186.8220  178.5920  147.4230 C   0  0  0  0  0  2  0  0  0  0  0  0
  187.8100  177.6280  137.5280 C   0  0  2  0  0  3  0  0  0  0  0  0
  189.2980  177.2350  142.4660 C   0  0  0  0  0  0  0  0  0  0  0  0
  186.0290  178.3180  145.0540 C   0  0  0  0  0  0  0  0  0  0  0  0
  188.0840  177.7000  141.9440 C   0  0  0  0  0  0  0  0  0  0  0  0
  191.7800  176.3500  143.5900 C   0  0  0  0  0  3  0  0  0  0  0  0
  186.0820  178.2800  138.7620 C   0  0  0  0  0  2  0  0  0  0  0  0
  190.7210  176.5190  144.3810 C   0  0  0  0  0  3  0  0  0  0  0  0
  186.7120  178.6750  140.0850 C   0  0  0  0  0  2  0  0  0  0  0  0
  189.1550  178.0000  138.1670 C   0  0  1  0  0  3  0  0  0  0  0  0
  191.7660  176.8330  142.1710 C   0  0  0  0  0  2  0  0  0  0  0  0
  190.4130  177.3980  140.1680 C   0  0  1  0  0  3  0  0  0  0  0  0
  187.9680  177.3950  136.1590 O   0  0  0  0  0  0  0  0  0  0  0  0
  187.1040  176.3330  135.8790 C   0  0  0  0  0  2  0  0  0  0  0  0
  186.1270  173.1980  137.2500 O   0  0  0  0  0  0  0  0  0  0  0  0
  188.1550  174.1850  136.5430 C   0  0  0  0  0  2  0  0  0  0  0  0
  187.2140  175.2760  136.9630 C   0  0  2  0  0  3  0  0  0  0  0  0
  187.2840  172.9520  136.4970 C   0  0  0  0  0  2  0  0  0  0  0  0
  185.8870  174.5720  137.1160 C   0  0  0  0  0  2  0  0  0  0  0  0
  1 26  1  1  0  0  0
  1 18  1  0  0  0  0
  2 27  1  0  0  0  0
  3  7  1  1  0  0  0
  3 16  1  0  0  0  0
  4 23  1  0  0  0  0
  4 15  1  0  0  0  0
  5 15  2  0  0  0  0
  5 19  1  0  0  0  0
  6 19  2  0  0  0  0
  8 16  1  0  0  0  0
  9 27  1  0  0  0  0
  9 13  1  0  0  0  0
 10 22  1  0  0  0  0
 11  5  1  0  0  0  0
 12  8  1  0  0  0  0
 13 20  1  0  0  0  0
 14 25  1  0  0  0  0
 14  2  1  0  0  0  0
 15 12  1  0  0  0  0
 17 10  1  0  0  0  0
 17 25  1  0  0  0  0
 18  4  2  0  0  0  0
 19  3  1  0  0  0  0
 20 18  1  0  0  0  0
 20 11  2  0  0  0  0
 21 23  2  0  0  0  0
 22 24  1  0  0  0  0
 24 13  1  0  0  0  0
 25  9  1  0  0  0  0
 26 21  1  0  0  0  0
 27  1  1  0  0  0  0
 28 17  1  0  0  0  0
 29 28  1  0  0  0  0
 29 32  1  0  0  0  0
 31 32  1  0  0  0  0
 32 34  1  0  0  0  0
 33 31  1  0  0  0  0
 33 30  1  0  0  0  0
 34 30  1  0  0  0  0
M  END
>  <MODEL>
4

>  <REMARK>
 VINA RESULT:      -9.7      2.809      4.764
  Name = 
  3 active torsions:
  status: ('A' for Active; 'I' for Inactive)
    1  A    between atoms: C_17  and  O_28
    2  A    between atoms: O_28  and  C_29
    3  A    between atoms: C_29  and  C_32
                            x       y       z     vdW  Elec       q    Type
                         _______ _______ _______ _____ _____    ______ ____

>  <TORSDO>
F 3

$$$$
=
 OpenBabel11122412063D

 34 40  0  0  1  0  0  0  0  0999 V2000
  182.4980  178.7320  143.6480 C   0  0  2  0  0  3  0  0  0  0  0  0
  183.7700  178.5080  145.7780 C   0  0  0  0  0  2  0  0  0  0  0  0
  182.4090  177.5180  137.0030 C   0  0  2  0  0  3  0  0  0  0  0  0
  181.6690  178.6850  141.2630 C   0  0  0  0  0  0  0  0  0  0  0  0
  183.1700  178.1630  139.4070 C   0  0  0  0  0  0  0  0  0  0  0  0
  184.6720  178.0610  137.5690 O   0  0  0  0  0  0  0  0  0  0  0  0
  182.9620  176.8160  135.7740 C   0  0  0  0  0  1  0  0  0  0  0  0
  180.9710  179.4820  137.7740 C   0  0  0  0  0  2  0  0  0  0  0  0
  185.0790  179.1760  143.8320 C   0  0  2  0  0  3  0  0  0  0  0  0
  188.0050  178.2890  143.8320 O   0  0  0  0  0  0  0  0  0  0  0  0
  184.2270  178.0970  140.3220 C   0  0  0  0  0  3  0  0  0  0  0  0
  180.6770  178.5700  138.9590 C   0  0  0  0  0  2  0  0  0  0  0  0
  185.1880  178.1630  142.6650 C   0  0  1  0  0  3  0  0  0  0  0  0
  185.1910  178.6840  146.2540 C   0  0  0  0  0  2  0  0  0  0  0  0
  181.8670  178.4730  139.8820 C   0  0  0  0  0  0  0  0  0  0  0  0
  181.5450  178.7060  136.5870 C   0  0  0  0  0  2  0  0  0  0  0  0
  187.1200  177.8860  144.8360 C   0  0  2  0  0  3  0  0  0  0  0  0
  182.7580  178.6360  142.1600 C   0  0  0  0  0  0  0  0  0  0  0  0
  183.4850  177.9160  137.9760 C   0  0  0  0  0  0  0  0  0  0  0  0
  184.0440  178.3390  141.6890 C   0  0  0  0  0  0  0  0  0  0  0  0
  180.1210  179.3010  143.0610 C   0  0  0  0  0  3  0  0  0  0  0  0
  187.6290  177.5650  142.6990 C   0  0  0  0  0  2  0  0  0  0  0  0
  180.3090  178.9130  141.8010 C   0  0  0  0  0  3  0  0  0  0  0  0
  186.5370  178.3100  141.9520 C   0  0  0  0  0  2  0  0  0  0  0  0
  186.0430  178.9620  145.0240 C   0  0  1  0  0  3  0  0  0  0  0  0
  181.2860  179.6200  143.9500 C   0  0  0  0  0  2  0  0  0  0  0  0
  183.6850  179.2500  144.4660 C   0  0  1  0  0  3  0  0  0  0  0  0
  187.8360  177.7000  146.0230 O   0  0  0  0  0  0  0  0  0  0  0  0
  188.8740  176.8320  145.6790 C   0  0  0  0  0  2  0  0  0  0  0  0
  191.7390  176.7500  147.7880 O   0  0  0  0  0  0  0  0  0  0  0  0
  191.3420  176.6950  145.4590 C   0  0  0  0  0  2  0  0  0  0  0  0
  190.2040  177.4160  146.1190 C   0  0  2  0  0  3  0  0  0  0  0  0
  192.1010  176.0800  146.6120 C   0  0  0  0  0  2  0  0  0  0  0  0
  190.4090  177.1470  147.5910 C   0  0  0  0  0  2  0  0  0  0  0  0
  1 26  1  6  0  0  0
  1 27  1  0  0  0  0
  2 14  1  0  0  0  0
  3  7  1  6  0  0  0
  3 19  1  0  0  0  0
  4 23  1  0  0  0  0
  4 18  1  0  0  0  0
  5 15  1  0  0  0  0
  5 11  2  0  0  0  0
  6 19  2  0  0  0  0
  8 12  1  0  0  0  0
  9 27  1  0  0  0  0
  9 25  1  0  0  0  0
 10 17  1  0  0  0  0
 11 20  1  0  0  0  0
 12 15  1  0  0  0  0
 13  9  1  0  0  0  0
 15  4  2  0  0  0  0
 16  3  1  0  0  0  0
 16  8  1  0  0  0  0
 17 25  1  0  0  0  0
 17 28  1  0  0  0  0
 18  1  1  0  0  0  0
 19  5  1  0  0  0  0
 20 18  2  0  0  0  0
 20 13  1  0  0  0  0
 21 26  1  0  0  0  0
 22 10  1  0  0  0  0
 23 21  2  0  0  0  0
 24 13  1  0  0  0  0
 24 22  1  0  0  0  0
 25 14  1  0  0  0  0
 27  2  1  0  0  0  0
 29 28  1  0  0  0  0
 29 32  1  0  0  0  0
 31 32  1  0  0  0  0
 31 33  1  0  0  0  0
 32 34  1  0  0  0  0
 33 30  1  0  0  0  0
 34 30  1  0  0  0  0
M  END
>  <MODEL>
5

>  <REMARK>
 VINA RESULT:      -9.6      3.956      6.621
  Name = 
  3 active torsions:
  status: ('A' for Active; 'I' for Inactive)
    1  A    between atoms: C_17  and  O_28
    2  A    between atoms: O_28  and  C_29
    3  A    between atoms: C_29  and  C_32
                            x       y       z     vdW  Elec       q    Type
                         _______ _______ _______ _____ _____    ______ ____

>  <TORSDO>
F 3

$$$$
=
 OpenBabel11122412063D

 34 40  0  0  1  0  0  0  0  0999 V2000
  183.8970  178.9560  144.1060 C   0  0  2  0  0  3  0  0  0  0  0  0
  181.7910  179.6560  142.9770 C   0  0  0  0  0  2  0  0  0  0  0  0
  190.5530  177.9830  143.4800 C   0  0  2  0  0  3  0  0  0  0  0  0
  186.2710  178.3620  144.7340 C   0  0  0  0  0  0  0  0  0  0  0  0
  187.9900  178.0330  143.0290 C   0  0  0  0  0  0  0  0  0  0  0  0
  189.5660  177.3180  141.4020 O   0  0  0  0  0  0  0  0  0  0  0  0
  191.8560  178.1650  142.7190 C   0  0  0  0  0  1  0  0  0  0  0  0
  189.4150  176.6050  145.3040 C   0  0  0  0  0  2  0  0  0  0  0  0
  183.2610  178.2140  141.6690 C   0  0  2  0  0  3  0  0  0  0  0  0
  183.1560  178.6080  138.6400 O   0  0  0  0  0  0  0  0  0  0  0  0
  187.0110  178.2300  142.0490 C   0  0  0  0  0  3  0  0  0  0  0  0
  188.6090  177.8810  145.5150 C   0  0  0  0  0  2  0  0  0  0  0  0
  184.6550  178.7730  141.2920 C   0  0  1  0  0  3  0  0  0  0  0  0
  181.1070  179.4310  141.6500 C   0  0  0  0  0  2  0  0  0  0  0  0
  187.6140  178.0900  144.3980 C   0  0  0  0  0  0  0  0  0  0  0  0
  190.6980  176.8670  144.5120 C   0  0  0  0  0  2  0  0  0  0  0  0
  182.4410  179.4370  139.5080 C   0  0  2  0  0  3  0  0  0  0  0  0
  185.2990  178.5310  143.7230 C   0  0  0  0  0  0  0  0  0  0  0  0
  189.3770  177.7610  142.5690 C   0  0  0  0  0  0  0  0  0  0  0  0
  185.6700  178.4670  142.3730 C   0  0  0  0  0  0  0  0  0  0  0  0
  184.5830  178.5900  146.4970 C   0  0  0  0  0  3  0  0  0  0  0  0
  184.4930  178.9790  138.7930 C   0  0  0  0  0  2  0  0  0  0  0  0
  185.8670  178.5230  146.1480 C   0  0  0  0  0  3  0  0  0  0  0  0
  185.1130  178.2060  139.9430 C   0  0  0  0  0  2  0  0  0  0  0  0
  182.0770  178.6510  140.7740 C   0  0  1  0  0  3  0  0  0  0  0  0
  183.4980  178.4020  145.4790 C   0  0  0  0  0  2  0  0  0  0  0  0
  182.8170  178.5550  143.0970 C   0  0  1  0  0  3  0  0  0  0  0  0
  181.2850  179.8830  138.8610 O   0  0  0  0  0  0  0  0  0  0  0  0
  181.5780  181.1930  138.4750 C   0  0  0  0  0  2  0  0  0  0  0  0
  180.4560  183.3410  135.8680 O   0  0  0  0  0  0  0  0  0  0  0  0
  180.4130  181.0160  136.2910 C   0  0  0  0  0  2  0  0  0  0  0  0
  180.4600  181.7380  137.6050 C   0  0  2  0  0  3  0  0  0  0  0  0
  180.6960  182.0950  135.2730 C   0  0  0  0  0  2  0  0  0  0  0  0
  180.7690  183.1660  137.2240 C   0  0  0  0  0  2  0  0  0  0  0  0
  1 26  1  1  0  0  0
  2 27  1  0  0  0  0
  3  7  1  6  0  0  0
  3 16  1  0  0  0  0
  4 23  1  0  0  0  0
  5 15  2  0  0  0  0
  6 19  2  0  0  0  0
  8 12  1  0  0  0  0
  9 27  1  0  0  0  0
 10 22  1  0  0  0  0
 10 17  1  0  0  0  0
 11 20  2  0  0  0  0
 11  5  1  0  0  0  0
 13  9  1  0  0  0  0
 13 20  1  0  0  0  0
 14  2  1  0  0  0  0
 15  4  1  0  0  0  0
 15 12  1  0  0  0  0
 16  8  1  0  0  0  0
 17 25  1  0  0  0  0
 18  1  1  0  0  0  0
 18  4  2  0  0  0  0
 19  5  1  0  0  0  0
 19  3  1  0  0  0  0
 20 18  1  0  0  0  0
 22 24  1  0  0  0  0
 23 21  2  0  0  0  0
 24 13  1  0  0  0  0
 25 14  1  0  0  0  0
 25  9  1  0  0  0  0
 26 21  1  0  0  0  0
 27  1  1  0  0  0  0
 28 17  1  0  0  0  0
 29 28  1  0  0  0  0
 30 34  1  0  0  0  0
 31 32  1  0  0  0  0
 32 29  1  0  0  0  0
 33 30  1  0  0  0  0
 33 31  1  0  0  0  0
 34 32  1  0  0  0  0
M  END
>  <MODEL>
6

>  <REMARK>
 VINA RESULT:      -9.6      2.906      8.332
  Name = 
  3 active torsions:
  status: ('A' for Active; 'I' for Inactive)
    1  A    between atoms: C_17  and  O_28
    2  A    between atoms: O_28  and  C_29
    3  A    between atoms: C_29  and  C_32
                            x       y       z     vdW  Elec       q    Type
                         _______ _______ _______ _____ _____    ______ ____

>  <TORSDO>
F 3

$$$$
=
 OpenBabel11122412063D

 34 40  0  0  1  0  0  0  0  0999 V2000
  186.6610  177.9340  140.0770 C   0  0  2  0  0  3  0  0  0  0  0  0
  184.7430  178.0410  138.4920 C   0  0  0  0  0  2  0  0  0  0  0  0
  188.6110  177.0850  146.4890 C   0  0  2  0  0  3  0  0  0  0  0  0
  188.1900  177.7310  142.0780 C   0  0  0  0  0  0  0  0  0  0  0  0
  187.3160  177.8290  144.3580 C   0  0  0  0  0  0  0  0  0  0  0  0
  186.5610  178.3210  146.5560 O   0  0  0  0  0  0  0  0  0  0  0  0
  188.3210  176.6680  147.9220 C   0  0  0  0  0  1  0  0  0  0  0  0
  190.2220  178.4210  145.0260 C   0  0  0  0  0  2  0  0  0  0  0  0
  184.4250  179.2000  140.6150 C   0  0  2  0  0  3  0  0  0  0  0  0
  181.5470  179.3360  141.6350 O   0  0  0  0  0  0  0  0  0  0  0  0
  186.0440  178.0720  143.8270 C   0  0  0  0  0  3  0  0  0  0  0  0
  189.8160  177.4060  143.9640 C   0  0  0  0  0  2  0  0  0  0  0  0
  184.4180  178.3400  141.9020 C   0  0  1  0  0  3  0  0  0  0  0  0
  183.3650  178.6560  138.4460 C   0  0  0  0  0  2  0  0  0  0  0  0
  188.4130  177.6650  143.4700 C   0  0  0  0  0  0  0  0  0  0  0  0
  189.8760  177.9380  146.4360 C   0  0  0  0  0  2  0  0  0  0  0  0
  181.8800  178.6140  140.4860 C   0  0  2  0  0  3  0  0  0  0  0  0
  186.9000  178.0030  141.5700 C   0  0  0  0  0  0  0  0  0  0  0  0
  187.4410  177.7700  145.8370 C   0  0  0  0  0  0  0  0  0  0  0  0
  185.8210  178.1730  142.4480 C   0  0  0  0  0  0  0  0  0  0  0  0
  189.1520  177.7100  139.8240 C   0  0  0  0  0  3  0  0  0  0  0  0
  182.0480  178.5840  142.7000 C   0  0  0  0  0  2  0  0  0  0  0  0
  189.2920  177.4680  141.1270 C   0  0  0  0  0  3  0  0  0  0  0  0
  183.4950  178.9610  142.9570 C   0  0  0  0  0  2  0  0  0  0  0  0
  183.1000  179.2610  139.8170 C   0  0  1  0  0  3  0  0  0  0  0  0
  187.9080  178.3540  139.2900 C   0  0  0  0  0  2  0  0  0  0  0  0
  185.4800  178.7770  139.5860 C   0  0  1  0  0  3  0  0  0  0  0  0
  180.7870  178.6190  139.6140 O   0  0  0  0  0  0  0  0  0  0  0  0
  180.0150  177.5230  140.0080 C   0  0  0  0  0  2  0  0  0  0  0  0
  179.9270  174.0460  139.2540 O   0  0  0  0  0  0  0  0  0  0  0  0
  180.7020  176.0000  138.1730 C   0  0  0  0  0  2  0  0  0  0  0  0
  180.7310  176.2320  139.6550 C   0  0  2  0  0  3  0  0  0  0  0  0
  179.9240  174.7140  138.0220 C   0  0  0  0  0  2  0  0  0  0  0  0
  179.9650  175.0600  140.2210 C   0  0  0  0  0  2  0  0  0  0  0  0
  1 26  1  6  0  0  0
  1 18  1  0  0  0  0
  2 27  1  0  0  0  0
  3  7  1  1  0  0  0
  4 15  1  0  0  0  0
  5 19  1  0  0  0  0
  8 16  1  0  0  0  0
  9 13  1  0  0  0  0
 10 22  1  0  0  0  0
 11  5  1  0  0  0  0
 12  8  1  0  0  0  0
 13 20  1  0  0  0  0
 13 24  1  0  0  0  0
 14  2  1  0  0  0  0
 14 25  1  0  0  0  0
 15 12  1  0  0  0  0
 15  5  2  0  0  0  0
 16  3  1  0  0  0  0
 17 10  1  0  0  0  0
 18  4  2  0  0  0  0
 18 20  1  0  0  0  0
 19  3  1  0  0  0  0
 19  6  2  0  0  0  0
 20 11  2  0  0  0  0
 21 23  2  0  0  0  0
 22 24  1  0  0  0  0
 23  4  1  0  0  0  0
 25 17  1  0  0  0  0
 25  9  1  0  0  0  0
 26 21  1  0  0  0  0
 27  1  1  0  0  0  0
 27  9  1  0  0  0  0
 28 29  1  0  0  0  0
 28 17  1  0  0  0  0
 30 34  1  0  0  0  0
 31 32  1  0  0  0  0
 32 29  1  0  0  0  0
 32 34  1  0  0  0  0
 33 31  1  0  0  0  0
 33 30  1  0  0  0  0
M  END
>  <MODEL>
7

>  <REMARK>
 VINA RESULT:      -9.4      3.693      8.244
  Name = 
  3 active torsions:
  status: ('A' for Active; 'I' for Inactive)
    1  A    between atoms: C_17  and  O_28
    2  A    between atoms: O_28  and  C_29
    3  A    between atoms: C_29  and  C_32
                            x       y       z     vdW  Elec       q    Type
                         _______ _______ _______ _____ _____    ______ ____

>  <TORSDO>
F 3

$$$$
=
 OpenBabel11122412063D

 34 40  0  0  1  0  0  0  0  0999 V2000
  186.6980  177.8780  140.1420 C   0  0  2  0  0  3  0  0  0  0  0  0
  184.7880  177.9790  138.5470 C   0  0  0  0  0  2  0  0  0  0  0  0
  188.6110  177.1290  146.5770 C   0  0  2  0  0  3  0  0  0  0  0  0
  188.2160  177.6940  142.1530 C   0  0  0  0  0  0  0  0  0  0  0  0
  187.3340  177.8480  144.4270 C   0  0  0  0  0  0  0  0  0  0  0  0
  186.5770  178.3930  146.6110 O   0  0  0  0  0  0  0  0  0  0  0  0
  188.3100  176.7440  148.0160 C   0  0  0  0  0  1  0  0  0  0  0  0
  190.2460  178.4140  145.0940 C   0  0  0  0  0  2  0  0  0  0  0  0
  184.4770  179.1840  140.6450 C   0  0  2  0  0  3  0  0  0  0  0  0
  181.5970  179.3770  141.6510 O   0  0  0  0  0  0  0  0  0  0  0  0
  186.0680  178.0970  143.8850 C   0  0  0  0  0  3  0  0  0  0  0  0
  189.8300  177.3850  144.0510 C   0  0  0  0  0  2  0  0  0  0  0  0
  184.4540  178.3490  141.9490 C   0  0  1  0  0  3  0  0  0  0  0  0
  183.4180  178.6110  138.4830 C   0  0  0  0  0  2  0  0  0  0  0  0
  188.4320  177.6520  143.5460 C   0  0  0  0  0  0  0  0  0  0  0  0
  189.8880  177.9640  146.5130 C   0  0  0  0  0  2  0  0  0  0  0  0
  181.9240  178.6290  140.5170 C   0  0  2  0  0  3  0  0  0  0  0  0
  186.9320  177.9730  141.6340 C   0  0  0  0  0  0  0  0  0  0  0  0
  187.4530  177.8160  145.9070 C   0  0  0  0  0  0  0  0  0  0  0  0
  185.8510  178.1740  142.5040 C   0  0  0  0  0  0  0  0  0  0  0  0
  189.1870  177.6160  139.9030 C   0  0  0  0  0  3  0  0  0  0  0  0
  182.0830  178.6400  142.7320 C   0  0  0  0  0  2  0  0  0  0  0  0
  189.3180  177.3980  141.2110 C   0  0  0  0  0  3  0  0  0  0  0  0
  183.5350  179.0030  142.9880 C   0  0  0  0  0  2  0  0  0  0  0  0
  183.1560  179.2460  139.8410 C   0  0  1  0  0  3  0  0  0  0  0  0
  187.9530  178.2650  139.3520 C   0  0  0  0  0  2  0  0  0  0  0  0
  185.5300  178.7260  139.6300 C   0  0  1  0  0  3  0  0  0  0  0  0
  180.8350  178.6310  139.6410 O   0  0  0  0  0  0  0  0  0  0  0  0
  180.0580  179.7190  140.0440 C   0  0  0  0  0  2  0  0  0  0  0  0
  180.7310  181.8880  137.3030 O   0  0  0  0  0  0  0  0  0  0  0  0
  179.8430  179.7150  137.5720 C   0  0  0  0  0  2  0  0  0  0  0  0
  179.5830  180.4940  138.8280 C   0  0  2  0  0  3  0  0  0  0  0  0
  180.8060  180.5830  136.7970 C   0  0  0  0  0  2  0  0  0  0  0  0
  180.4230  181.7380  138.6630 C   0  0  0  0  0  2  0  0  0  0  0  0
  1 26  1  6  0  0  0
  1 18  1  0  0  0  0
  2 27  1  0  0  0  0
  3  7  1  1  0  0  0
  4 15  1  0  0  0  0
  5 19  1  0  0  0  0
  8 16  1  0  0  0  0
  9 13  1  0  0  0  0
 10 22  1  0  0  0  0
 11  5  1  0  0  0  0
 12  8  1  0  0  0  0
 13 20  1  0  0  0  0
 13 24  1  0  0  0  0
 14  2  1  0  0  0  0
 14 25  1  0  0  0  0
 15 12  1  0  0  0  0
 15  5  2  0  0  0  0
 16  3  1  0  0  0  0
 17 10  1  0  0  0  0
 18  4  2  0  0  0  0
 18 20  1  0  0  0  0
 19  3  1  0  0  0  0
 19  6  2  0  0  0  0
 20 11  2  0  0  0  0
 21 23  2  0  0  0  0
 22 24  1  0  0  0  0
 23  4  1  0  0  0  0
 25 17  1  0  0  0  0
 25  9  1  0  0  0  0
 26 21  1  0  0  0  0
 27  1  1  0  0  0  0
 27  9  1  0  0  0  0
 28 29  1  0  0  0  0
 28 17  1  0  0  0  0
 30 34  1  0  0  0  0
 31 32  1  0  0  0  0
 32 29  1  0  0  0  0
 33 30  1  0  0  0  0
 33 31  1  0  0  0  0
 34 32  1  0  0  0  0
M  END
>  <MODEL>
8

>  <REMARK>
 VINA RESULT:      -9.2      3.698      8.491
  Name = 
  3 active torsions:
  status: ('A' for Active; 'I' for Inactive)
    1  A    between atoms: C_17  and  O_28
    2  A    between atoms: O_28  and  C_29
    3  A    between atoms: C_29  and  C_32
                            x       y       z     vdW  Elec       q    Type
                         _______ _______ _______ _____ _____    ______ ____

>  <TORSDO>
F 3

$$$$
=
 OpenBabel11122412063D

 34 40  0  0  1  0  0  0  0  0999 V2000
  189.7560  176.9160  141.7970 C   0  0  2  0  0  3  0  0  0  0  0  0
  191.0520  176.3800  139.7390 C   0  0  0  0  0  2  0  0  0  0  0  0
  183.6880  178.3330  144.4060 C   0  0  2  0  0  3  0  0  0  0  0  0
  187.9920  177.4750  143.5170 C   0  0  0  0  0  0  0  0  0  0  0  0
  185.7740  178.2560  142.8520 C   0  0  0  0  0  0  0  0  0  0  0  0
  183.7730  179.3910  142.2590 O   0  0  0  0  0  0  0  0  0  0  0  0
  182.1730  178.3890  144.2920 C   0  0  0  0  0  1  0  0  0  0  0  0
  185.6810  179.2150  145.7360 C   0  0  0  0  0  2  0  0  0  0  0  0
  189.3860  178.1460  139.5070 C   0  0  2  0  0  3  0  0  0  0  0  0
  188.1260  178.4260  136.7360 O   0  0  0  0  0  0  0  0  0  0  0  0
  186.2000  178.2330  141.5190 C   0  0  0  0  0  3  0  0  0  0  0  0
  186.3090  177.8860  145.3340 C   0  0  0  0  0  2  0  0  0  0  0  0
  187.9010  177.7540  139.7040 C   0  0  1  0  0  3  0  0  0  0  0  0
  191.1260  176.8580  138.3090 C   0  0  0  0  0  2  0  0  0  0  0  0
  186.6880  177.8800  143.8730 C   0  0  0  0  0  0  0  0  0  0  0  0
  184.1600  179.1990  145.5710 C   0  0  0  0  0  2  0  0  0  0  0  0
  189.0170  177.3910  137.0300 C   0  0  2  0  0  3  0  0  0  0  0  0
  188.4020  177.4840  142.1650 C   0  0  0  0  0  0  0  0  0  0  0  0
  184.3790  178.6920  143.1190 C   0  0  0  0  0  0  0  0  0  0  0  0
  187.5020  177.8640  141.1600 C   0  0  0  0  0  0  0  0  0  0  0  0
  190.2210  176.7790  144.2640 C   0  0  0  0  0  3  0  0  0  0  0  0
  186.9460  178.0970  137.4050 C   0  0  0  0  0  2  0  0  0  0  0  0
  188.9350  176.9850  144.5460 C   0  0  0  0  0  3  0  0  0  0  0  0
  186.9960  178.6270  138.8260 C   0  0  0  0  0  2  0  0  0  0  0  0
  189.9970  177.8590  138.1140 C   0  0  1  0  0  3  0  0  0  0  0  0
  190.7790  177.1330  142.9180 C   0  0  0  0  0  2  0  0  0  0  0  0
  190.3450  177.4770  140.4990 C   0  0  1  0  0  3  0  0  0  0  0  0
  189.7080  177.0420  135.8670 O   0  0  0  0  0  0  0  0  0  0  0  0
  188.9120  176.0680  135.2600 C   0  0  0  0  0  2  0  0  0  0  0  0
  191.8740  174.1640  135.7790 O   0  0  0  0  0  0  0  0  0  0  0  0
  189.5690  173.8720  136.2110 C   0  0  0  0  0  2  0  0  0  0  0  0
  189.7200  174.8010  135.0430 C   0  0  2  0  0  3  0  0  0  0  0  0
  190.9680  173.7560  136.7680 C   0  0  0  0  0  2  0  0  0  0  0  0
  191.1920  175.1380  135.0360 C   0  0  0  0  0  2  0  0  0  0  0  0
  1 18  1  0  0  0  0
  1 26  1  1  0  0  0
  2 27  1  0  0  0  0
  3  7  1  6  0  0  0
  3 16  1  0  0  0  0
  4 15  1  0  0  0  0
  4 23  1  0  0  0  0
  5 19  1  0  0  0  0
  5 15  2  0  0  0  0
  6 19  2  0  0  0  0
  9 13  1  0  0  0  0
  9 27  1  0  0  0  0
 10 17  1  0  0  0  0
 10 22  1  0  0  0  0
 11  5  1  0  0  0  0
 12  8  1  0  0  0  0
 13 20  1  0  0  0  0
 14  2  1  0  0  0  0
 15 12  1  0  0  0  0
 16  8  1  0  0  0  0
 17 25  1  0  0  0  0
 18  4  2  0  0  0  0
 19  3  1  0  0  0  0
 20 11  2  0  0  0  0
 20 18  1  0  0  0  0
 21 23  2  0  0  0  0
 22 24  1  0  0  0  0
 24 13  1  0  0  0  0
 25 14  1  0  0  0  0
 25  9  1  0  0  0  0
 26 21  1  0  0  0  0
 27  1  1  0  0  0  0
 28 17  1  0  0  0  0
 29 28  1  0  0  0  0
 30 33  1  0  0  0  0
 31 33  1  0  0  0  0
 32 29  1  0  0  0  0
 32 31  1  0  0  0  0
 34 32  1  0  0  0  0
 34 30  1  0  0  0  0
M  END
>  <MODEL>
9

>  <REMARK>
 VINA RESULT:      -9.0      1.816      3.227
  Name = 
  3 active torsions:
  status: ('A' for Active; 'I' for Inactive)
    1  A    between atoms: C_17  and  O_28
    2  A    between atoms: O_28  and  C_29
    3  A    between atoms: C_29  and  C_32
                            x       y       z     vdW  Elec       q    Type
                         _______ _______ _______ _____ _____    ______ ____

>  <TORSDO>
F 3

$$$$
