=
 OpenBabel11122410593D

 31 35  0  0  1  0  0  0  0  0999 V2000
  189.8270  175.7590  142.7920 C   0  0  0  0  0  0  0  0  0  0  0  0
  186.5450  177.1480  144.0080 C   0  0  2  0  0  3  0  0  0  0  0  0
  186.6570  177.8820  145.3300 C   0  0  0  0  0  0  0  0  0  0  0  0
  187.8440  178.3490  147.3990 C   0  0  0  0  0  0  0  0  0  0  0  0
  187.8690  177.0250  143.3090 C   0  0  0  0  0  0  0  0  0  0  0  0
  190.3440  176.8110  141.9130 C   0  0  0  0  0  3  0  0  0  0  0  0
  187.7640  177.6880  146.1710 C   0  0  0  0  0  3  0  0  0  0  0  0
  186.0500  179.0790  142.4040 C   0  0  2  0  0  3  0  0  0  0  0  0
  190.4850  174.7010  142.9650 O   0  0  0  0  0  0  0  0  0  0  0  0
  184.4690  178.8890  144.9650 O   0  0  0  0  0  0  0  0  0  0  0  0
  189.0270  178.1470  148.2750 C   0  0  0  0  0  1  0  0  0  0  0  0
  187.3360  178.7840  141.6330 C   0  0  0  0  0  2  0  0  0  0  0  0
  185.5080  177.7930  143.0590 C   0  0  2  0  0  3  0  0  0  0  0  0
  188.5570  175.9270  143.4280 N   0  0  0  0  0  0  0  0  0  0  0  0
  186.8140  179.2010  147.8040 C   0  0  0  0  0  3  0  0  0  0  0  0
  188.4070  178.2300  142.5640 C   0  0  2  0  0  3  0  0  0  0  0  0
  189.6680  177.9520  141.7880 C   0  0  0  0  0  3  0  0  0  0  0  0
  184.2170  178.0590  143.8330 C   0  0  0  0  0  2  0  0  0  0  0  0
  185.6040  178.7140  145.7630 C   0  0  0  0  0  0  0  0  0  0  0  0
  185.6940  179.3820  146.9870 C   0  0  0  0  0  3  0  0  0  0  0  0
  185.0680  179.6400  141.4860 N   0  0  0  0  0  2  0  0  0  0  0  0
  183.5600  178.0050  140.8040 O   0  0  0  0  0  1  0  0  0  0  0  0
  184.7720  178.6230  140.4860 C   0  0  1  0  0  3  0  0  0  0  0  0
  183.5760  177.2750  137.2250 N   0  0  0  0  0  0  0  0  0  0  0  0
  183.2350  179.2870  138.5970 C   0  0  0  0  0  2  0  0  0  0  0  0
  186.8700  178.4030  138.3930 O   0  0  0  0  0  1  0  0  0  0  0  0
  183.0680  175.9340  137.0060 C   0  0  0  0  0  1  0  0  0  0  0  0
  182.7420  177.8740  138.2670 C   0  0  0  0  0  2  0  0  0  0  0  0
  185.5290  178.5070  138.0220 C   0  0  2  0  0  3  0  0  0  0  0  0
  184.6910  179.2470  139.0810 C   0  0  2  0  0  3  0  0  0  0  0  0
  184.9390  177.1300  137.7330 C   0  0  0  0  0  2  0  0  0  0  0  0
  1  9  2  0  0  0  0
  1 14  1  0  0  0  0
  2  5  1  6  0  0  0
  2  3  1  0  0  0  0
  3 19  2  0  0  0  0
  3  7  1  0  0  0  0
  4 15  1  0  0  0  0
  4 11  1  0  0  0  0
  5 14  2  0  0  0  0
  6  1  1  0  0  0  0
  7  4  2  0  0  0  0
  8 21  1  6  0  0  0
  8 13  1  0  0  0  0
 10 19  1  0  0  0  0
 12  8  1  0  0  0  0
 13 18  1  1  0  0  0
 13  2  1  0  0  0  0
 16 12  1  6  0  0  0
 16  5  1  0  0  0  0
 17  6  2  0  0  0  0
 17 16  1  0  0  0  0
 18 10  1  0  0  0  0
 19 20  1  0  0  0  0
 20 15  2  0  0  0  0
 23 22  1  1  0  0  0
 23 21  1  0  0  0  0
 24 31  1  0  0  0  0
 24 28  1  0  0  0  0
 25 30  1  0  0  0  0
 27 24  1  0  0  0  0
 28 25  1  0  0  0  0
 29 26  1  1  0  0  0
 29 30  1  0  0  0  0
 30 23  1  1  0  0  0
 31 29  1  0  0  0  0
M  END
>  <MODEL>
1

>  <REMARK>
 VINA RESULT:      -9.0      0.000      0.000
  Name = 
  3 active torsions:
  status: ('A' for Active; 'I' for Inactive)
    1  A    between atoms: C_5  and  N_16
    2  A    between atoms: C_5  and  C_30
    3  A    between atoms: C_10  and  N_16
                            x       y       z     vdW  Elec       q    Type
                         _______ _______ _______ _____ _____    ______ ____

>  <TORSDO>
F 3

$$$$
=
 OpenBabel11122410593D

 31 35  0  0  1  0  0  0  0  0999 V2000
  191.3640  175.9970  143.9810 C   0  0  0  0  0  0  0  0  0  0  0  0
  187.7330  176.9370  143.6480 C   0  0  2  0  0  3  0  0  0  0  0  0
  187.1800  177.6390  144.8730 C   0  0  0  0  0  0  0  0  0  0  0  0
  187.3050  178.1850  147.2380 C   0  0  0  0  0  0  0  0  0  0  0  0
  189.2320  176.9970  143.5830 C   0  0  0  0  0  0  0  0  0  0  0  0
  192.0710  177.1300  143.3790 C   0  0  0  0  0  3  0  0  0  0  0  0
  187.8380  177.5560  146.1100 C   0  0  0  0  0  3  0  0  0  0  0  0
  187.7330  178.8400  141.9370 C   0  0  2  0  0  3  0  0  0  0  0  0
  192.0110  175.0230  144.4440 O   0  0  0  0  0  0  0  0  0  0  0  0
  185.2490  178.3800  143.5850 O   0  0  0  0  0  0  0  0  0  0  0  0
  188.0180  178.1040  148.5390 C   0  0  0  0  0  1  0  0  0  0  0  0
  189.2490  178.7280  141.7950 C   0  0  0  0  0  2  0  0  0  0  0  0
  187.1270  177.4780  142.3320 C   0  0  2  0  0  3  0  0  0  0  0  0
  189.9340  175.9890  144.0110 N   0  0  0  0  0  0  0  0  0  0  0  0
  186.1040  178.8930  147.1430 C   0  0  0  0  0  3  0  0  0  0  0  0
  189.8820  178.2810  143.1070 C   0  0  2  0  0  3  0  0  0  0  0  0
  191.3770  178.1830  142.9500 C   0  0  0  0  0  3  0  0  0  0  0  0
  185.6070  177.5610  142.4750 C   0  0  0  0  0  2  0  0  0  0  0  0
  185.9480  178.3220  144.7940 C   0  0  0  0  0  0  0  0  0  0  0  0
  185.4260  178.9590  145.9230 C   0  0  0  0  0  3  0  0  0  0  0  0
  187.1730  179.3030  140.6740 N   0  0  0  0  0  2  0  0  0  0  0  0
  186.3930  178.2800  138.7360 O   0  0  0  0  0  1  0  0  0  0  0  0
  187.4250  178.2710  139.6790 C   0  0  1  0  0  3  0  0  0  0  0  0
  188.7920  177.0680  136.4280 N   0  0  0  0  0  0  0  0  0  0  0  0
  188.5670  179.2020  137.6290 C   0  0  0  0  0  2  0  0  0  0  0  0
  189.8010  176.5010  139.9130 O   0  0  0  0  0  1  0  0  0  0  0  0
  188.1020  176.1940  135.4980 C   0  0  0  0  0  1  0  0  0  0  0  0
  187.9330  178.2360  136.6220 C   0  0  0  0  0  2  0  0  0  0  0  0
  189.5820  177.2160  138.7350 C   0  0  2  0  0  3  0  0  0  0  0  0
  188.7770  178.5050  138.9800 C   0  0  2  0  0  3  0  0  0  0  0  0
  188.8950  176.3400  137.6910 C   0  0  0  0  0  2  0  0  0  0  0  0
  1 14  1  0  0  0  0
  1  9  2  0  0  0  0
  2  5  1  6  0  0  0
  2  3  1  0  0  0  0
  3  7  1  0  0  0  0
  4 11  1  0  0  0  0
  5 14  2  0  0  0  0
  6  1  1  0  0  0  0
  7  4  2  0  0  0  0
  8 21  1  6  0  0  0
  8 13  1  0  0  0  0
 10 19  1  0  0  0  0
 12  8  1  0  0  0  0
 13 18  1  1  0  0  0
 13  2  1  0  0  0  0
 15  4  1  0  0  0  0
 16 12  1  6  0  0  0
 16  5  1  0  0  0  0
 17 16  1  0  0  0  0
 17  6  2  0  0  0  0
 18 10  1  0  0  0  0
 19  3  2  0  0  0  0
 19 20  1  0  0  0  0
 20 15  2  0  0  0  0
 23 22  1  6  0  0  0
 23 21  1  0  0  0  0
 24 28  1  0  0  0  0
 24 31  1  0  0  0  0
 25 30  1  0  0  0  0
 27 24  1  0  0  0  0
 28 25  1  0  0  0  0
 29 30  1  0  0  0  0
 29 26  1  1  0  0  0
 30 23  1  6  0  0  0
 31 29  1  0  0  0  0
M  END
>  <MODEL>
2

>  <REMARK>
 VINA RESULT:      -8.2      2.397      2.871
  Name = 
  3 active torsions:
  status: ('A' for Active; 'I' for Inactive)
    1  A    between atoms: C_5  and  N_16
    2  A    between atoms: C_5  and  C_30
    3  A    between atoms: C_10  and  N_16
                            x       y       z     vdW  Elec       q    Type
                         _______ _______ _______ _____ _____    ______ ____

>  <TORSDO>
F 3

$$$$
=
 OpenBabel11122410593D

 31 35  0  0  1  0  0  0  0  0999 V2000
  183.9740  178.4240  142.5160 C   0  0  0  0  0  0  0  0  0  0  0  0
  182.8430  177.6500  139.0090 C   0  0  2  0  0  3  0  0  0  0  0  0
  181.9630  178.7300  138.4100 C   0  0  0  0  0  0  0  0  0  0  0  0
  180.4980  180.6520  138.6670 C   0  0  0  0  0  0  0  0  0  0  0  0
  183.6600  178.1540  140.1650 C   0  0  0  0  0  0  0  0  0  0  0  0
  185.2750  179.0690  142.3260 C   0  0  0  0  0  3  0  0  0  0  0  0
  181.3270  179.6780  139.2270 C   0  0  0  0  0  3  0  0  0  0  0  0
  184.9640  177.8930  137.6000 C   0  0  2  0  0  3  0  0  0  0  0  0
  183.5160  178.2550  143.6760 O   0  0  0  0  0  0  0  0  0  0  0  0
  182.3000  177.7840  136.1910 O   0  0  0  0  0  0  0  0  0  0  0  0
  179.8410  181.6600  139.5400 C   0  0  0  0  0  1  0  0  0  0  0  0
  185.7710  178.2330  138.8510 C   0  0  0  0  0  2  0  0  0  0  0  0
  183.7670  176.9900  137.9600 C   0  0  2  0  0  3  0  0  0  0  0  0
  183.2400  177.9580  141.3800 N   0  0  0  0  0  0  0  0  0  0  0  0
  180.2870  180.6830  137.2860 C   0  0  0  0  0  3  0  0  0  0  0  0
  184.9050  178.9650  139.8680 C   0  0  2  0  0  3  0  0  0  0  0  0
  185.7190  179.2990  141.0910 C   0  0  0  0  0  3  0  0  0  0  0  0
  182.9450  176.6290  136.7220 C   0  0  0  0  0  2  0  0  0  0  0  0
  181.7150  178.7440  137.0220 C   0  0  0  0  0  0  0  0  0  0  0  0
  180.8940  179.7290  136.4660 C   0  0  0  0  0  3  0  0  0  0  0  0
  185.8370  177.2280  136.6410 N   0  0  0  0  0  2  0  0  0  0  0  0
  186.9380  175.3790  137.5260 O   0  0  0  0  0  1  0  0  0  0  0  0
  187.0120  176.7660  137.3670 C   0  0  1  0  0  3  0  0  0  0  0  0
  190.5180  177.2710  138.5220 N   0  0  0  0  0  0  0  0  0  0  0  0
  189.3470  176.0250  136.7560 C   0  0  0  0  0  2  0  0  0  0  0  0
  188.0470  179.5290  137.0120 O   0  0  0  0  0  1  0  0  0  0  0  0
  190.9740  177.1640  139.8950 C   0  0  0  0  0  1  0  0  0  0  0  0
  189.8990  175.9900  138.1850 C   0  0  0  0  0  2  0  0  0  0  0  0
  188.9390  178.4590  137.0860 C   0  0  2  0  0  3  0  0  0  0  0  0
  188.3010  177.1400  136.6130 C   0  0  2  0  0  3  0  0  0  0  0  0
  189.4940  178.3140  138.5000 C   0  0  0  0  0  2  0  0  0  0  0  0
  1  9  2  0  0  0  0
  2  3  1  6  0  0  0
  2  5  1  0  0  0  0
  3  7  1  0  0  0  0
  4  7  2  0  0  0  0
  4 11  1  0  0  0  0
  5 14  2  0  0  0  0
  6  1  1  0  0  0  0
  8 21  1  6  0  0  0
  8 13  1  0  0  0  0
  8 12  1  0  0  0  0
 10 18  1  0  0  0  0
 10 19  1  0  0  0  0
 13 18  1  6  0  0  0
 13  2  1  0  0  0  0
 14  1  1  0  0  0  0
 15  4  1  0  0  0  0
 16 12  1  6  0  0  0
 16  5  1  0  0  0  0
 16 17  1  0  0  0  0
 17  6  2  0  0  0  0
 19  3  2  0  0  0  0
 20 19  1  0  0  0  0
 20 15  2  0  0  0  0
 21 23  1  0  0  0  0
 23 22  1  6  0  0  0
 24 27  1  0  0  0  0
 25 28  1  0  0  0  0
 28 24  1  0  0  0  0
 29 26  1  1  0  0  0
 29 31  1  0  0  0  0
 30 25  1  0  0  0  0
 30 29  1  0  0  0  0
 30 23  1  1  0  0  0
 31 24  1  0  0  0  0
M  END
>  <MODEL>
3

>  <REMARK>
 VINA RESULT:      -7.4      3.366      7.410
  Name = 
  3 active torsions:
  status: ('A' for Active; 'I' for Inactive)
    1  A    between atoms: C_5  and  N_16
    2  A    between atoms: C_5  and  C_30
    3  A    between atoms: C_10  and  N_16
                            x       y       z     vdW  Elec       q    Type
                         _______ _______ _______ _____ _____    ______ ____

>  <TORSDO>
F 3

$$$$
=
 OpenBabel11122410593D

 31 35  0  0  1  0  0  0  0  0999 V2000
  192.8670  176.1880  136.3380 C   0  0  0  0  0  0  0  0  0  0  0  0
  189.1710  176.6920  136.8460 C   0  0  2  0  0  3  0  0  0  0  0  0
  188.3710  175.4070  136.7520 C   0  0  0  0  0  0  0  0  0  0  0  0
  188.1540  173.0960  136.0330 C   0  0  0  0  0  0  0  0  0  0  0  0
  190.6260  176.4410  137.1210 C   0  0  0  0  0  0  0  0  0  0  0  0
  193.3850  176.0260  137.6980 C   0  0  0  0  0  3  0  0  0  0  0  0
  188.9100  174.2660  136.1370 C   0  0  0  0  0  3  0  0  0  0  0  0
  188.9500  177.2380  139.3360 C   0  0  2  0  0  3  0  0  0  0  0  0
  193.6500  176.1430  135.3540 O   0  0  0  0  0  0  0  0  0  0  0  0
  186.4640  176.5090  137.7930 O   0  0  0  0  0  0  0  0  0  0  0  0
  188.7400  171.8890  135.3930 C   0  0  0  0  0  1  0  0  0  0  0  0
  190.4640  177.1330  139.5060 C   0  0  0  0  0  2  0  0  0  0  0  0
  188.5970  177.6700  137.8980 C   0  0  2  0  0  3  0  0  0  0  0  0
  191.4720  176.4310  136.1340 N   0  0  0  0  0  0  0  0  0  0  0  0
  186.8500  173.0570  136.5310 C   0  0  0  0  0  3  0  0  0  0  0  0
  191.0450  176.1080  138.5390 C   0  0  2  0  0  3  0  0  0  0  0  0
  192.5370  176.0130  138.7250 C   0  0  0  0  0  3  0  0  0  0  0  0
  187.0850  177.7880  137.7040 C   0  0  0  0  0  2  0  0  0  0  0  0
  187.0400  175.3720  137.2180 C   0  0  0  0  0  0  0  0  0  0  0  0
  186.2940  174.1950  137.1210 C   0  0  0  0  0  3  0  0  0  0  0  0
  188.4320  178.1990  140.3020 N   0  0  0  0  0  2  0  0  0  0  0  0
  189.0000  179.0710  142.3820 O   0  0  0  0  0  1  0  0  0  0  0  0
  189.0840  177.9320  141.5770 C   0  0  1  0  0  3  0  0  0  0  0  0
  188.6790  177.0890  145.1830 N   0  0  0  0  0  0  0  0  0  0  0  0
  187.2670  177.2130  143.1740 C   0  0  0  0  0  2  0  0  0  0  0  0
  190.4960  175.4620  142.4370 O   0  0  0  0  0  1  0  0  0  0  0  0
  189.1730  177.8830  146.2920 C   0  0  0  0  0  1  0  0  0  0  0  0
  187.8050  177.9600  144.3990 C   0  0  0  0  0  2  0  0  0  0  0  0
  189.3940  175.9190  143.1610 C   0  0  2  0  0  3  0  0  0  0  0  0
  188.4250  176.7360  142.2870 C   0  0  2  0  0  3  0  0  0  0  0  0
  189.8430  176.7310  144.3730 C   0  0  0  0  0  2  0  0  0  0  0  0
  1  6  1  0  0  0  0
  2  3  1  1  0  0  0
  2  5  1  0  0  0  0
  2 13  1  0  0  0  0
  3 19  1  0  0  0  0
  4  7  1  0  0  0  0
  4 15  2  0  0  0  0
  5 16  1  0  0  0  0
  6 17  2  0  0  0  0
  7  3  2  0  0  0  0
  8 12  1  0  0  0  0
  8 21  1  1  0  0  0
  9  1  2  0  0  0  0
 11  4  1  0  0  0  0
 13 18  1  1  0  0  0
 13  8  1  0  0  0  0
 14  1  1  0  0  0  0
 14  5  2  0  0  0  0
 15 20  1  0  0  0  0
 16 17  1  6  0  0  0
 16 12  1  0  0  0  0
 18 10  1  0  0  0  0
 19 10  1  0  0  0  0
 20 19  2  0  0  0  0
 21 23  1  0  0  0  0
 23 22  1  1  0  0  0
 24 27  1  0  0  0  0
 25 28  1  0  0  0  0
 28 24  1  0  0  0  0
 29 26  1  6  0  0  0
 29 31  1  0  0  0  0
 30 23  1  1  0  0  0
 30 29  1  0  0  0  0
 30 25  1  0  0  0  0
 31 24  1  0  0  0  0
M  END
>  <MODEL>
4

>  <REMARK>
 VINA RESULT:      -7.2      4.006      8.141
  Name = 
  3 active torsions:
  status: ('A' for Active; 'I' for Inactive)
    1  A    between atoms: C_5  and  N_16
    2  A    between atoms: C_5  and  C_30
    3  A    between atoms: C_10  and  N_16
                            x       y       z     vdW  Elec       q    Type
                         _______ _______ _______ _____ _____    ______ ____

>  <TORSDO>
F 3

$$$$
=
 OpenBabel11122410593D

 31 35  0  0  1  0  0  0  0  0999 V2000
  179.7910  178.6670  141.1540 C   0  0  0  0  0  0  0  0  0  0  0  0
  183.3480  179.0760  139.9870 C   0  0  2  0  0  3  0  0  0  0  0  0
  184.3710  178.7860  141.0680 C   0  0  0  0  0  0  0  0  0  0  0  0
  184.9630  178.5390  143.4120 C   0  0  0  0  0  0  0  0  0  0  0  0
  182.0080  178.4680  140.2910 C   0  0  0  0  0  0  0  0  0  0  0  0
  179.4620  177.2880  140.7870 C   0  0  0  0  0  3  0  0  0  0  0  0
  184.0070  178.7820  142.4240 C   0  0  0  0  0  3  0  0  0  0  0  0
  183.7180  177.1010  138.4040 C   0  0  2  0  0  3  0  0  0  0  0  0
  178.9330  179.3920  141.7220 O   0  0  0  0  0  0  0  0  0  0  0  0
  186.1220  178.6380  139.3810 O   0  0  0  0  0  0  0  0  0  0  0  0
  184.5640  178.5220  144.8440 C   0  0  0  0  0  1  0  0  0  0  0  0
  182.2810  176.6350  138.6300 C   0  0  0  0  0  2  0  0  0  0  0  0
  183.8240  178.6280  138.5860 C   0  0  2  0  0  3  0  0  0  0  0  0
  181.0810  179.1980  140.8360 N   0  0  0  0  0  0  0  0  0  0  0  0
  186.2950  178.3100  143.0570 C   0  0  0  0  0  3  0  0  0  0  0  0
  181.8150  176.9860  140.0370 C   0  0  2  0  0  3  0  0  0  0  0  0
  180.4000  176.5130  140.2440 C   0  0  0  0  0  3  0  0  0  0  0  0
  185.2530  179.1220  138.3590 C   0  0  0  0  0  2  0  0  0  0  0  0
  185.7240  178.5920  140.7200 C   0  0  0  0  0  0  0  0  0  0  0  0
  186.6740  178.3390  141.7130 C   0  0  0  0  0  3  0  0  0  0  0  0
  184.1340  176.7140  137.0620 N   0  0  0  0  0  2  0  0  0  0  0  0
  184.5820  174.4990  137.6150 O   0  0  0  0  0  1  0  0  0  0  0  0
  185.1690  175.6980  137.2010 C   0  0  1  0  0  3  0  0  0  0  0  0
  188.7720  175.1880  136.4050 N   0  0  0  0  0  0  0  0  0  0  0  0
  186.6210  174.1290  135.8600 C   0  0  0  0  0  2  0  0  0  0  0  0
  186.3940  177.8570  135.5660 O   0  0  0  0  0  1  0  0  0  0  0  0
  189.8520  175.1650  137.3750 C   0  0  0  0  0  1  0  0  0  0  0  0
  187.8240  174.1500  136.8090 C   0  0  0  0  0  2  0  0  0  0  0  0
  186.9520  176.5780  135.5570 C   0  0  2  0  0  3  0  0  0  0  0  0
  185.9100  175.4880  135.8680 C   0  0  2  0  0  3  0  0  0  0  0  0
  188.1270  176.4940  136.5270 C   0  0  0  0  0  2  0  0  0  0  0  0
  1  9  2  0  0  0  0
  2  5  1  1  0  0  0
  2  3  1  0  0  0  0
  3  7  1  0  0  0  0
  4 11  1  0  0  0  0
  5 14  2  0  0  0  0
  6  1  1  0  0  0  0
  7  4  2  0  0  0  0
  8 21  1  6  0  0  0
  8 13  1  0  0  0  0
  8 12  1  0  0  0  0
 10 19  1  0  0  0  0
 13 18  1  1  0  0  0
 13  2  1  0  0  0  0
 14  1  1  0  0  0  0
 15  4  1  0  0  0  0
 16 12  1  6  0  0  0
 16 17  1  0  0  0  0
 16  5  1  0  0  0  0
 17  6  2  0  0  0  0
 18 10  1  0  0  0  0
 19  3  2  0  0  0  0
 19 20  1  0  0  0  0
 20 15  2  0  0  0  0
 21 23  1  0  0  0  0
 23 22  1  6  0  0  0
 24 31  1  0  0  0  0
 24 28  1  0  0  0  0
 24 27  1  0  0  0  0
 25 30  1  0  0  0  0
 25 28  1  0  0  0  0
 29 26  1  1  0  0  0
 29 30  1  0  0  0  0
 29 31  1  0  0  0  0
 30 23  1  1  0  0  0
M  END
>  <MODEL>
5

>  <REMARK>
 VINA RESULT:      -7.1      3.187      6.522
  Name = 
  3 active torsions:
  status: ('A' for Active; 'I' for Inactive)
    1  A    between atoms: C_5  and  N_16
    2  A    between atoms: C_5  and  C_30
    3  A    between atoms: C_10  and  N_16
                            x       y       z     vdW  Elec       q    Type
                         _______ _______ _______ _____ _____    ______ ____

>  <TORSDO>
F 3

$$$$
=
 OpenBabel11122410593D

 31 35  0  0  1  0  0  0  0  0999 V2000
  184.5560  172.6980  135.3660 C   0  0  0  0  0  0  0  0  0  0  0  0
  185.1790  176.2550  136.4300 C   0  0  2  0  0  3  0  0  0  0  0  0
  184.3200  176.6900  137.6020 C   0  0  0  0  0  0  0  0  0  0  0  0
  182.3620  176.4060  139.0130 C   0  0  0  0  0  0  0  0  0  0  0  0
  185.2840  174.7610  136.3230 C   0  0  0  0  0  0  0  0  0  0  0  0
  185.5640  171.9340  136.1040 C   0  0  0  0  0  3  0  0  0  0  0  0
  183.1590  175.9810  137.9480 C   0  0  0  0  0  3  0  0  0  0  0  0
  187.4990  176.1900  137.5070 C   0  0  2  0  0  3  0  0  0  0  0  0
  183.7570  172.1080  134.5940 O   0  0  0  0  0  0  0  0  0  0  0  0
  185.7670  178.6180  137.9570 O   0  0  0  0  0  0  0  0  0  0  0  0
  181.1430  175.6380  139.3800 C   0  0  0  0  0  1  0  0  0  0  0  0
  187.6070  174.6960  137.2100 C   0  0  0  0  0  2  0  0  0  0  0  0
  186.5920  176.8810  136.4690 C   0  0  2  0  0  3  0  0  0  0  0  0
  184.5050  174.1210  135.5010 N   0  0  0  0  0  0  0  0  0  0  0  0
  182.7090  177.5500  139.7340 C   0  0  0  0  0  3  0  0  0  0  0  0
  186.2350  174.0360  137.2540 C   0  0  2  0  0  3  0  0  0  0  0  0
  186.3630  172.5630  136.9650 C   0  0  0  0  0  3  0  0  0  0  0  0
  186.4710  178.3810  136.7400 C   0  0  0  0  0  2  0  0  0  0  0  0
  184.6420  177.8660  138.3100 C   0  0  0  0  0  0  0  0  0  0  0  0
  183.8470  178.2800  139.3820 C   0  0  0  0  0  3  0  0  0  0  0  0
  188.8340  176.7730  137.4910 N   0  0  0  0  0  2  0  0  0  0  0  0
  190.5430  175.5780  138.5230 O   0  0  0  0  0  1  0  0  0  0  0  0
  189.4700  176.4430  138.7590 C   0  0  1  0  0  3  0  0  0  0  0  0
  190.0770  177.2210  142.3520 N   0  0  0  0  0  0  0  0  0  0  0  0
  191.2770  177.4330  140.2170 C   0  0  0  0  0  2  0  0  0  0  0  0
  187.7250  178.5720  139.8760 O   0  0  0  0  0  1  0  0  0  0  0  0
  189.8520  176.3100  143.4580 C   0  0  0  0  0  1  0  0  0  0  0  0
  191.0120  176.5560  141.4450 C   0  0  0  0  0  2  0  0  0  0  0  0
  188.9590  178.3050  140.4690 C   0  0  2  0  0  3  0  0  0  0  0  0
  189.9680  177.7150  139.4670 C   0  0  2  0  0  3  0  0  0  0  0  0
  188.7920  177.3820  141.6740 C   0  0  0  0  0  2  0  0  0  0  0  0
  1 14  1  0  0  0  0
  1  6  1  0  0  0  0
  2  5  1  1  0  0  0
  2 13  1  0  0  0  0
  2  3  1  0  0  0  0
  3  7  2  0  0  0  0
  3 19  1  0  0  0  0
  4 11  1  0  0  0  0
  4 15  2  0  0  0  0
  5 16  1  0  0  0  0
  6 17  2  0  0  0  0
  7  4  1  0  0  0  0
  8 21  1  6  0  0  0
  9  1  2  0  0  0  0
 10 19  1  0  0  0  0
 12 16  1  0  0  0  0
 12  8  1  0  0  0  0
 13 18  1  1  0  0  0
 13  8  1  0  0  0  0
 14  5  2  0  0  0  0
 16 17  1  6  0  0  0
 18 10  1  0  0  0  0
 19 20  2  0  0  0  0
 20 15  1  0  0  0  0
 21 23  1  0  0  0  0
 23 22  1  6  0  0  0
 24 27  1  0  0  0  0
 25 28  1  0  0  0  0
 28 24  1  0  0  0  0
 29 26  1  6  0  0  0
 29 31  1  0  0  0  0
 30 23  1  1  0  0  0
 30 25  1  0  0  0  0
 30 29  1  0  0  0  0
 31 24  1  0  0  0  0
M  END
>  <MODEL>
6

>  <REMARK>
 VINA RESULT:      -7.1      3.521      7.963
  Name = 
  3 active torsions:
  status: ('A' for Active; 'I' for Inactive)
    1  A    between atoms: C_5  and  N_16
    2  A    between atoms: C_5  and  C_30
    3  A    between atoms: C_10  and  N_16
                            x       y       z     vdW  Elec       q    Type
                         _______ _______ _______ _____ _____    ______ ____

>  <TORSDO>
F 3

$$$$
=
 OpenBabel11122410593D

 31 35  0  0  1  0  0  0  0  0999 V2000
  189.5500  177.2320  136.6060 C   0  0  0  0  0  0  0  0  0  0  0  0
  185.8700  177.5730  137.3250 C   0  0  2  0  0  3  0  0  0  0  0  0
  185.1530  176.2410  137.4310 C   0  0  0  0  0  0  0  0  0  0  0  0
  185.0440  173.8530  136.9890 C   0  0  0  0  0  0  0  0  0  0  0  0
  187.3530  177.4400  137.5180 C   0  0  0  0  0  0  0  0  0  0  0  0
  190.1660  177.2570  137.9340 C   0  0  0  0  0  3  0  0  0  0  0  0
  185.7250  175.0700  136.9080 C   0  0  0  0  0  3  0  0  0  0  0  0
  185.7780  178.3860  139.7490 C   0  0  2  0  0  3  0  0  0  0  0  0
  190.2680  177.1200  135.5790 O   0  0  0  0  0  0  0  0  0  0  0  0
  183.2490  177.3400  138.4810 O   0  0  0  0  0  0  0  0  0  0  0  0
  185.6650  172.6170  136.4450 C   0  0  0  0  0  1  0  0  0  0  0  0
  187.3040  178.3900  139.8180 C   0  0  0  0  0  2  0  0  0  0  0  0
  185.3030  178.6290  138.3020 C   0  0  2  0  0  3  0  0  0  0  0  0
  188.1310  177.3670  136.4790 N   0  0  0  0  0  0  0  0  0  0  0  0
  183.7810  173.7960  137.5820 C   0  0  0  0  0  3  0  0  0  0  0  0
  187.8860  177.2980  138.9300 C   0  0  2  0  0  3  0  0  0  0  0  0
  189.3900  177.3130  139.0160 C   0  0  0  0  0  3  0  0  0  0  0  0
  183.7770  178.6360  138.2060 C   0  0  0  0  0  2  0  0  0  0  0  0
  183.8610  176.1810  137.9940 C   0  0  0  0  0  0  0  0  0  0  0  0
  183.1900  174.9590  138.0830 C   0  0  0  0  0  3  0  0  0  0  0  0
  185.2620  179.4190  140.6380 N   0  0  0  0  0  2  0  0  0  0  0  0
  185.6470  180.3500  142.7350 O   0  0  0  0  0  1  0  0  0  0  0  0
  185.8820  179.2240  141.9410 C   0  0  1  0  0  3  0  0  0  0  0  0
  185.4460  178.3350  145.5330 N   0  0  0  0  0  0  0  0  0  0  0  0
  184.0930  178.3280  143.4800 C   0  0  0  0  0  2  0  0  0  0  0  0
  187.4980  176.9000  142.8470 O   0  0  0  0  0  1  0  0  0  0  0  0
  185.8240  179.1700  146.6570 C   0  0  0  0  0  1  0  0  0  0  0  0
  184.5170  179.1210  144.7210 C   0  0  0  0  0  2  0  0  0  0  0  0
  186.3350  177.2460  143.5350 C   0  0  2  0  0  3  0  0  0  0  0  0
  185.3190  177.9680  142.6300 C   0  0  2  0  0  3  0  0  0  0  0  0
  186.6640  178.0940  144.7610 C   0  0  0  0  0  2  0  0  0  0  0  0
  1  6  1  0  0  0  0
  2  3  1  1  0  0  0
  2  5  1  0  0  0  0
  2 13  1  0  0  0  0
  3 19  1  0  0  0  0
  4 15  2  0  0  0  0
  5 16  1  0  0  0  0
  6 17  2  0  0  0  0
  7  4  1  0  0  0  0
  7  3  2  0  0  0  0
  8 12  1  0  0  0  0
  8 21  1  1  0  0  0
  9  1  2  0  0  0  0
 11  4  1  0  0  0  0
 13 18  1  1  0  0  0
 13  8  1  0  0  0  0
 14  1  1  0  0  0  0
 14  5  2  0  0  0  0
 15 20  1  0  0  0  0
 16 17  1  6  0  0  0
 16 12  1  0  0  0  0
 18 10  1  0  0  0  0
 19 20  2  0  0  0  0
 19 10  1  0  0  0  0
 21 23  1  0  0  0  0
 23 22  1  1  0  0  0
 24 27  1  0  0  0  0
 25 28  1  0  0  0  0
 28 24  1  0  0  0  0
 29 26  1  6  0  0  0
 29 31  1  0  0  0  0
 30 23  1  1  0  0  0
 30 25  1  0  0  0  0
 30 29  1  0  0  0  0
 31 24  1  0  0  0  0
M  END
>  <MODEL>
7

>  <REMARK>
 VINA RESULT:      -6.9      2.531      7.139
  Name = 
  3 active torsions:
  status: ('A' for Active; 'I' for Inactive)
    1  A    between atoms: C_5  and  N_16
    2  A    between atoms: C_5  and  C_30
    3  A    between atoms: C_10  and  N_16
                            x       y       z     vdW  Elec       q    Type
                         _______ _______ _______ _____ _____    ______ ____

>  <TORSDO>
F 3

$$$$
=
 OpenBabel11122410593D

 31 35  0  0  1  0  0  0  0  0999 V2000
  185.4240  178.3980  138.3100 C   0  0  0  0  0  0  0  0  0  0  0  0
  189.0760  178.0400  139.1520 C   0  0  2  0  0  3  0  0  0  0  0  0
  189.3200  177.4100  140.5100 C   0  0  0  0  0  0  0  0  0  0  0  0
  188.5480  176.8070  142.7340 C   0  0  0  0  0  0  0  0  0  0  0  0
  187.7000  177.7490  138.6260 C   0  0  0  0  0  0  0  0  0  0  0  0
  185.1220  177.1810  137.5540 C   0  0  0  0  0  3  0  0  0  0  0  0
  188.3040  177.3670  141.4770 C   0  0  0  0  0  3  0  0  0  0  0  0
  189.9010  176.1930  137.5860 C   0  0  2  0  0  3  0  0  0  0  0  0
  184.5230  179.2520  138.5180 O   0  0  0  0  0  0  0  0  0  0  0  0
  191.6450  177.0010  139.9100 O   0  0  0  0  0  0  0  0  0  0  0  0
  187.4610  176.7530  143.7460 C   0  0  0  0  0  1  0  0  0  0  0  0
  188.5070  176.0700  136.9770 C   0  0  0  0  0  2  0  0  0  0  0  0
  190.1380  177.6240  138.1070 C   0  0  2  0  0  3  0  0  0  0  0  0
  186.7540  178.6280  138.7830 N   0  0  0  0  0  0  0  0  0  0  0  0
  189.8120  176.2970  143.0400 C   0  0  0  0  0  3  0  0  0  0  0  0
  187.4350  176.3890  138.0120 C   0  0  2  0  0  3  0  0  0  0  0  0
  186.0670  176.2560  137.3940 C   0  0  0  0  0  3  0  0  0  0  0  0
  191.5310  177.7760  138.7190 C   0  0  0  0  0  2  0  0  0  0  0  0
  190.6040  176.9280  140.8390 C   0  0  0  0  0  0  0  0  0  0  0  0
  190.8390  176.3590  142.0940 C   0  0  0  0  0  3  0  0  0  0  0  0
  190.8910  175.8450  136.5750 N   0  0  0  0  0  2  0  0  0  0  0  0
  190.8550  173.7530  137.5930 O   0  0  0  0  0  1  0  0  0  0  0  0
  191.6990  174.7570  137.1100 C   0  0  1  0  0  3  0  0  0  0  0  0
  195.3330  173.9360  137.1240 N   0  0  0  0  0  0  0  0  0  0  0  0
  193.2240  172.8460  136.4840 C   0  0  0  0  0  2  0  0  0  0  0  0
  193.3410  176.3760  135.2360 O   0  0  0  0  0  1  0  0  0  0  0  0
  196.2340  174.1280  138.2450 C   0  0  0  0  0  1  0  0  0  0  0  0
  194.2530  173.0710  137.5970 C   0  0  0  0  0  2  0  0  0  0  0  0
  193.7910  175.1210  135.6450 C   0  0  2  0  0  3  0  0  0  0  0  0
  192.6300  174.1840  136.0260 C   0  0  2  0  0  3  0  0  0  0  0  0
  194.7810  175.2500  136.8000 C   0  0  0  0  0  2  0  0  0  0  0  0
  1  9  2  0  0  0  0
  1 14  1  0  0  0  0
  2  5  1  6  0  0  0
  2  3  1  0  0  0  0
  3 19  2  0  0  0  0
  3  7  1  0  0  0  0
  4 15  1  0  0  0  0
  4 11  1  0  0  0  0
  5 14  2  0  0  0  0
  6  1  1  0  0  0  0
  7  4  2  0  0  0  0
  8 21  1  6  0  0  0
  8 13  1  0  0  0  0
 10 19  1  0  0  0  0
 12  8  1  0  0  0  0
 13 18  1  1  0  0  0
 13  2  1  0  0  0  0
 16 12  1  6  0  0  0
 16  5  1  0  0  0  0
 17  6  2  0  0  0  0
 17 16  1  0  0  0  0
 18 10  1  0  0  0  0
 19 20  1  0  0  0  0
 20 15  2  0  0  0  0
 21 23  1  0  0  0  0
 23 22  1  6  0  0  0
 24 28  1  0  0  0  0
 24 27  1  0  0  0  0
 25 28  1  0  0  0  0
 29 26  1  1  0  0  0
 29 30  1  0  0  0  0
 29 31  1  0  0  0  0
 30 25  1  0  0  0  0
 30 23  1  1  0  0  0
 31 24  1  0  0  0  0
M  END
>  <MODEL>
8

>  <REMARK>
 VINA RESULT:      -6.9      4.703      8.133
  Name = 
  3 active torsions:
  status: ('A' for Active; 'I' for Inactive)
    1  A    between atoms: C_5  and  N_16
    2  A    between atoms: C_5  and  C_30
    3  A    between atoms: C_10  and  N_16
                            x       y       z     vdW  Elec       q    Type
                         _______ _______ _______ _____ _____    ______ ____

>  <TORSDO>
F 3

$$$$
=
 OpenBabel11122410593D

 31 35  0  0  1  0  0  0  0  0999 V2000
  192.1540  176.7590  138.2660 C   0  0  0  0  0  0  0  0  0  0  0  0
  189.1000  177.0100  136.0780 C   0  0  2  0  0  3  0  0  0  0  0  0
  188.5890  175.6630  135.6040 C   0  0  0  0  0  0  0  0  0  0  0  0
  188.9370  173.2960  135.1800 C   0  0  0  0  0  0  0  0  0  0  0  0
  189.9790  176.8930  137.2900 C   0  0  0  0  0  0  0  0  0  0  0  0
  191.6070  176.7370  139.6240 C   0  0  0  0  0  3  0  0  0  0  0  0
  189.4100  174.5260  135.6430 C   0  0  0  0  0  3  0  0  0  0  0  0
  187.2370  177.7180  137.6830 C   0  0  2  0  0  3  0  0  0  0  0  0
  193.3980  176.7020  138.0850 O   0  0  0  0  0  0  0  0  0  0  0  0
  186.4760  176.6870  134.9520 O   0  0  0  0  0  0  0  0  0  0  0  0
  189.8100  172.0940  135.2400 C   0  0  0  0  0  1  0  0  0  0  0  0
  188.2300  177.7430  138.8430 C   0  0  0  0  0  2  0  0  0  0  0  0
  187.9570  178.0140  136.3520 C   0  0  2  0  0  3  0  0  0  0  0  0
  191.2710  176.8770  137.1460 N   0  0  0  0  0  0  0  0  0  0  0  0
  187.6430  173.1930  134.6630 C   0  0  0  0  0  3  0  0  0  0  0  0
  189.3210  176.6990  138.6420 C   0  0  2  0  0  3  0  0  0  0  0  0
  190.2860  176.7340  139.7980 C   0  0  0  0  0  3  0  0  0  0  0  0
  186.9830  178.0010  135.1730 C   0  0  0  0  0  2  0  0  0  0  0  0
  187.2980  175.5600  135.0460 C   0  0  0  0  0  0  0  0  0  0  0  0
  186.8260  174.3240  134.5940 C   0  0  0  0  0  3  0  0  0  0  0  0
  186.1940  178.7030  137.9330 N   0  0  0  0  0  2  0  0  0  0  0  0
  185.1560  176.6240  137.8300 O   0  0  0  0  0  1  0  0  0  0  0  0
  184.9210  177.9960  137.9610 C   0  0  1  0  0  3  0  0  0  0  0  0
  181.2940  178.3630  138.7260 N   0  0  0  0  0  0  0  0  0  0  0  0
  183.2220  177.1170  139.6070 C   0  0  0  0  0  2  0  0  0  0  0  0
  184.1280  180.6890  138.9340 O   0  0  0  0  0  1  0  0  0  0  0  0
  180.2180  178.2810  137.7560 C   0  0  0  0  0  1  0  0  0  0  0  0
  182.0320  177.1030  138.6410 C   0  0  0  0  0  2  0  0  0  0  0  0
  183.3460  179.5780  139.2530 C   0  0  2  0  0  3  0  0  0  0  0  0
  184.1690  178.2770  139.2740 C   0  0  2  0  0  3  0  0  0  0  0  0
  182.1650  179.4550  138.2950 C   0  0  0  0  0  2  0  0  0  0  0  0
  1  6  1  0  0  0  0
  2  3  1  1  0  0  0
  2 13  1  0  0  0  0
  2  5  1  0  0  0  0
  3  7  1  0  0  0  0
  4 11  1  0  0  0  0
  4  7  2  0  0  0  0
  5 16  1  0  0  0  0
  6 17  2  0  0  0  0
  8 21  1  1  0  0  0
  8 12  1  0  0  0  0
  9  1  2  0  0  0  0
 10 19  1  0  0  0  0
 10 18  1  0  0  0  0
 13 18  1  6  0  0  0
 13  8  1  0  0  0  0
 14  5  2  0  0  0  0
 14  1  1  0  0  0  0
 15  4  1  0  0  0  0
 16 12  1  1  0  0  0
 16 17  1  0  0  0  0
 19  3  2  0  0  0  0
 20 15  2  0  0  0  0
 20 19  1  0  0  0  0
 21 23  1  0  0  0  0
 23 22  1  1  0  0  0
 27 24  1  0  0  0  0
 28 24  1  0  0  0  0
 28 25  1  0  0  0  0
 29 26  1  6  0  0  0
 29 30  1  0  0  0  0
 30 23  1  6  0  0  0
 30 25  1  0  0  0  0
 31 24  1  0  0  0  0
 31 29  1  0  0  0  0
M  END
>  <MODEL>
9

>  <REMARK>
 VINA RESULT:      -6.9      4.865      7.530
  Name = 
  3 active torsions:
  status: ('A' for Active; 'I' for Inactive)
    1  A    between atoms: C_5  and  N_16
    2  A    between atoms: C_5  and  C_30
    3  A    between atoms: C_10  and  N_16
                            x       y       z     vdW  Elec       q    Type
                         _______ _______ _______ _____ _____    ______ ____

>  <TORSDO>
F 3

$$$$
