=
 OpenBabel11122410533D

 31 35  0  0  1  0  0  0  0  0999 V2000
  190.0290  175.9020  142.7630 C   0  0  0  0  0  0  0  0  0  0  0  0
  186.6630  177.0680  144.1010 C   0  0  2  0  0  3  0  0  0  0  0  0
  186.9490  177.7870  145.4150 C   0  0  0  0  0  0  0  0  0  0  0  0
  188.3990  178.1300  147.3440 C   0  0  0  0  0  0  0  0  0  0  0  0
  187.8780  176.9410  143.2090 C   0  0  0  0  0  0  0  0  0  0  0  0
  190.1960  176.7160  141.6420 C   0  0  0  0  0  3  0  0  0  0  0  0
  188.1510  177.5460  146.1000 C   0  0  0  0  0  3  0  0  0  0  0  0
  185.8850  178.9570  142.6150 C   0  0  2  0  0  3  0  0  0  0  0  0
  191.0120  174.9840  143.1070 O   0  0  0  0  0  1  0  0  0  0  0  0
  184.6580  178.9090  145.3720 C   0  0  0  0  0  2  0  0  0  0  0  0
  189.6010  177.8920  147.9950 O   0  0  0  0  0  1  0  0  0  0  0  0
  186.9510  178.6530  141.5640 C   0  0  0  0  0  2  0  0  0  0  0  0
  185.4680  177.6670  143.3380 C   0  0  2  0  0  3  0  0  0  0  0  0
  188.8740  176.0110  143.5410 C   0  0  0  0  0  3  0  0  0  0  0  0
  187.4370  178.9490  147.9320 C   0  0  0  0  0  3  0  0  0  0  0  0
  188.0460  177.7580  142.0680 C   0  0  0  0  0  0  0  0  0  0  0  0
  189.2020  177.6320  141.2910 C   0  0  0  0  0  3  0  0  0  0  0  0
  184.2970  177.8880  144.2970 C   0  0  0  0  0  2  0  0  0  0  0  0
  185.9630  178.5890  146.0400 C   0  0  0  0  0  0  0  0  0  0  0  0
  186.2240  179.1780  147.2810 C   0  0  0  0  0  3  0  0  0  0  0  0
  184.0200  177.6050  140.9370 O   0  0  0  0  0  0  0  0  0  0  0  0
  183.8320  178.8350  141.1440 C   0  0  0  0  0  0  0  0  0  0  0  0
  184.7340  179.5730  141.9690 N   0  0  0  0  0  2  0  0  0  0  0  0
  181.7980  177.6230  138.5370 C   0  0  0  0  0  0  0  0  0  0  0  0
  181.3530  178.8220  140.6950 C   0  0  0  0  0  2  0  0  0  0  0  0
  184.1270  180.6000  138.7990 N   0  0  0  0  0  1  0  0  0  0  0  0
  181.5300  176.4630  137.6430 C   0  0  0  0  0  1  0  0  0  0  0  0
  181.1500  177.6960  139.7110 C   0  0  0  0  0  3  0  0  0  0  0  0
  182.9000  179.8500  139.0080 C   0  0  2  0  0  3  0  0  0  0  0  0
  182.6820  179.5540  140.4970 C   0  0  2  0  0  3  0  0  0  0  0  0
  182.9130  178.5720  138.1700 C   0  0  0  0  0  2  0  0  0  0  0  0
  1  9  1  0  0  0  0
  1 14  1  0  0  0  0
  2  5  1  6  0  0  0
  2  3  1  0  0  0  0
  3 19  2  0  0  0  0
  3  7  1  0  0  0  0
  4 15  1  0  0  0  0
  4 11  1  0  0  0  0
  5 14  2  0  0  0  0
  6  1  2  0  0  0  0
  7  4  2  0  0  0  0
  8 23  1  6  0  0  0
  8 13  1  0  0  0  0
 10 19  1  0  0  0  0
 12 16  1  0  0  0  0
 12  8  1  0  0  0  0
 13  2  1  0  0  0  0
 13 18  1  1  0  0  0
 16  5  1  0  0  0  0
 17  6  1  0  0  0  0
 17 16  2  0  0  0  0
 18 10  1  0  0  0  0
 19 20  1  0  0  0  0
 20 15  2  0  0  0  0
 21 22  2  0  0  0  0
 22 23  1  0  0  0  0
 24 28  2  0  0  0  0
 27 24  1  0  0  0  0
 28 25  1  0  0  0  0
 29 26  1  1  0  0  0
 29 30  1  0  0  0  0
 30 25  1  0  0  0  0
 30 22  1  6  0  0  0
 31 24  1  0  0  0  0
 31 29  1  0  0  0  0
M  END
>  <MODEL>
1

>  <REMARK>
 VINA RESULT:      -9.4      0.000      0.000
  Name = 
  2 active torsions:
  status: ('A' for Active; 'I' for Inactive)
    1  A    between atoms: C_5  and  C_30
    2  A    between atoms: C_10  and  N_16
                            x       y       z     vdW  Elec       q    Type
                         _______ _______ _______ _____ _____    ______ ____

>  <TORSDO>
F 2

$$$$
=
 OpenBabel11122410533D

 31 35  0  0  1  0  0  0  0  0999 V2000
  191.1010  176.3170  143.6520 C   0  0  0  0  0  0  0  0  0  0  0  0
  187.3650  177.0400  143.7320 C   0  0  2  0  0  3  0  0  0  0  0  0
  187.1030  177.8000  145.0270 C   0  0  0  0  0  0  0  0  0  0  0  0
  187.7660  178.3470  147.3080 C   0  0  0  0  0  0  0  0  0  0  0  0
  188.8160  177.0670  143.3030 C   0  0  0  0  0  0  0  0  0  0  0  0
  191.5340  177.1380  142.6100 C   0  0  0  0  0  3  0  0  0  0  0  0
  188.0250  177.7260  146.0840 C   0  0  0  0  0  3  0  0  0  0  0  0
  186.9090  178.7970  141.9760 C   0  0  2  0  0  3  0  0  0  0  0  0
  192.0140  175.5400  144.3510 O   0  0  0  0  0  1  0  0  0  0  0  0
  184.8420  178.6090  144.1660 C   0  0  0  0  0  2  0  0  0  0  0  0
  188.6980  178.2750  148.3330 O   0  0  0  0  0  1  0  0  0  0  0  0
  188.2960  178.6280  141.3570 C   0  0  0  0  0  2  0  0  0  0  0  0
  186.4330  177.4700  142.5850 C   0  0  2  0  0  3  0  0  0  0  0  0
  189.7470  176.2790  143.9950 C   0  0  0  0  0  3  0  0  0  0  0  0
  186.5700  179.0370  147.4990 C   0  0  0  0  0  3  0  0  0  0  0  0
  189.2580  177.8890  142.2420 C   0  0  0  0  0  0  0  0  0  0  0  0
  190.6140  177.9120  141.9010 C   0  0  0  0  0  3  0  0  0  0  0  0
  184.9910  177.5420  143.0870 C   0  0  0  0  0  2  0  0  0  0  0  0
  185.8740  178.4710  145.2460 C   0  0  0  0  0  0  0  0  0  0  0  0
  185.6290  179.0990  146.4710 C   0  0  0  0  0  3  0  0  0  0  0  0
  186.6630  177.6840  139.3640 O   0  0  0  0  0  0  0  0  0  0  0  0
  185.8990  178.6430  139.6630 C   0  0  0  0  0  0  0  0  0  0  0  0
  185.9770  179.2510  140.9530 N   0  0  0  0  0  2  0  0  0  0  0  0
  182.5380  177.6720  139.2580 C   0  0  0  0  0  0  0  0  0  0  0  0
  183.7310  179.8790  139.3210 C   0  0  0  0  0  2  0  0  0  0  0  0
  185.5460  177.5150  136.9610 N   0  0  0  0  0  1  0  0  0  0  0  0
  181.4560  176.7920  139.7790 C   0  0  0  0  0  1  0  0  0  0  0  0
  182.6650  178.9080  139.7680 C   0  0  0  0  0  3  0  0  0  0  0  0
  184.4310  178.1440  137.6490 C   0  0  2  0  0  3  0  0  0  0  0  0
  184.9240  179.1880  138.6580 C   0  0  2  0  0  3  0  0  0  0  0  0
  183.5550  177.0810  138.3130 C   0  0  0  0  0  2  0  0  0  0  0  0
  1 14  1  0  0  0  0
  1  9  1  0  0  0  0
  2  5  1  6  0  0  0
  2  3  1  0  0  0  0
  3 19  2  0  0  0  0
  3  7  1  0  0  0  0
  4 15  1  0  0  0  0
  4 11  1  0  0  0  0
  5 14  2  0  0  0  0
  6  1  2  0  0  0  0
  7  4  2  0  0  0  0
  8 23  1  6  0  0  0
  8 13  1  0  0  0  0
 10 19  1  0  0  0  0
 12  8  1  0  0  0  0
 12 16  1  0  0  0  0
 13 18  1  1  0  0  0
 13  2  1  0  0  0  0
 16  5  1  0  0  0  0
 17 16  2  0  0  0  0
 17  6  1  0  0  0  0
 18 10  1  0  0  0  0
 19 20  1  0  0  0  0
 20 15  2  0  0  0  0
 21 22  2  0  0  0  0
 22 23  1  0  0  0  0
 24 28  2  0  0  0  0
 24 27  1  0  0  0  0
 25 28  1  0  0  0  0
 29 26  1  1  0  0  0
 29 31  1  0  0  0  0
 29 30  1  0  0  0  0
 30 25  1  0  0  0  0
 30 22  1  1  0  0  0
 31 24  1  0  0  0  0
M  END
>  <MODEL>
2

>  <REMARK>
 VINA RESULT:      -9.1      1.458      1.772
  Name = 
  2 active torsions:
  status: ('A' for Active; 'I' for Inactive)
    1  A    between atoms: C_5  and  C_30
    2  A    between atoms: C_10  and  N_16
                            x       y       z     vdW  Elec       q    Type
                         _______ _______ _______ _____ _____    ______ ____

>  <TORSDO>
F 2

$$$$
=
 OpenBabel11122410533D

 31 35  0  0  1  0  0  0  0  0999 V2000
  191.3250  176.7080  145.0910 C   0  0  0  0  0  0  0  0  0  0  0  0
  187.7050  177.0460  143.9650 C   0  0  2  0  0  3  0  0  0  0  0  0
  186.9930  177.8490  145.0480 C   0  0  0  0  0  0  0  0  0  0  0  0
  186.8660  178.5910  147.3660 C   0  0  0  0  0  0  0  0  0  0  0  0
  189.2100  177.1980  143.9980 C   0  0  0  0  0  0  0  0  0  0  0  0
  191.9950  177.5070  144.1640 C   0  0  0  0  0  3  0  0  0  0  0  0
  187.5410  177.9300  146.3380 C   0  0  0  0  0  3  0  0  0  0  0  0
  187.6810  178.6440  142.0080 C   0  0  2  0  0  3  0  0  0  0  0  0
  192.0340  176.0700  146.0990 O   0  0  0  0  0  1  0  0  0  0  0  0
  185.0550  178.3710  143.4720 C   0  0  0  0  0  2  0  0  0  0  0  0
  187.4340  178.6740  148.6280 O   0  0  0  0  0  1  0  0  0  0  0  0
  189.2000  178.5830  141.8590 C   0  0  0  0  0  2  0  0  0  0  0  0
  187.1460  177.3120  142.5560 C   0  0  2  0  0  3  0  0  0  0  0  0
  189.9400  176.5510  145.0060 C   0  0  0  0  0  3  0  0  0  0  0  0
  185.6190  179.1650  147.1230 C   0  0  0  0  0  3  0  0  0  0  0  0
  189.8940  177.9990  143.0550 C   0  0  0  0  0  0  0  0  0  0  0  0
  191.2820  178.1410  143.1440 C   0  0  0  0  0  3  0  0  0  0  0  0
  185.6180  177.2640  142.5850 C   0  0  0  0  0  2  0  0  0  0  0  0
  185.7070  178.4010  144.8220 C   0  0  0  0  0  0  0  0  0  0  0  0
  185.0430  179.0700  145.8550 C   0  0  0  0  0  3  0  0  0  0  0  0
  188.3010  177.3160  139.5640 O   0  0  0  0  0  0  0  0  0  0  0  0
  187.4320  178.2300  139.5260 C   0  0  0  0  0  0  0  0  0  0  0  0
  187.0810  178.9400  140.7140 N   0  0  0  0  0  2  0  0  0  0  0  0
  187.1660  176.2330  136.6380 C   0  0  0  0  0  0  0  0  0  0  0  0
  185.5840  177.7230  137.8910 C   0  0  0  0  0  2  0  0  0  0  0  0
  188.8690  179.5490  137.3130 N   0  0  0  0  0  1  0  0  0  0  0  0
  187.4660  174.8970  136.0520 C   0  0  0  0  0  1  0  0  0  0  0  0
  185.9870  176.4150  137.2550 C   0  0  0  0  0  3  0  0  0  0  0  0
  187.7520  178.6590  137.0420 C   0  0  2  0  0  3  0  0  0  0  0  0
  186.7810  178.6150  138.2280 C   0  0  2  0  0  3  0  0  0  0  0  0
  188.2640  177.2670  136.6740 C   0  0  0  0  0  2  0  0  0  0  0  0
  1  9  1  0  0  0  0
  2  5  1  6  0  0  0
  2  3  1  0  0  0  0
  3  7  1  0  0  0  0
  4 11  1  0  0  0  0
  5 14  2  0  0  0  0
  6  1  2  0  0  0  0
  7  4  2  0  0  0  0
  8 23  1  6  0  0  0
  8 13  1  0  0  0  0
 10 19  1  0  0  0  0
 12  8  1  0  0  0  0
 12 16  1  0  0  0  0
 13 18  1  1  0  0  0
 13  2  1  0  0  0  0
 14  1  1  0  0  0  0
 15  4  1  0  0  0  0
 16 17  2  0  0  0  0
 16  5  1  0  0  0  0
 17  6  1  0  0  0  0
 18 10  1  0  0  0  0
 19  3  2  0  0  0  0
 19 20  1  0  0  0  0
 20 15  2  0  0  0  0
 22 21  2  0  0  0  0
 22 23  1  0  0  0  0
 24 31  1  0  0  0  0
 24 28  2  0  0  0  0
 25 30  1  0  0  0  0
 27 24  1  0  0  0  0
 28 25  1  0  0  0  0
 29 26  1  1  0  0  0
 29 30  1  0  0  0  0
 30 22  1  1  0  0  0
 31 29  1  0  0  0  0
M  END
>  <MODEL>
3

>  <REMARK>
 VINA RESULT:      -9.1      2.873      3.476
  Name = 
  2 active torsions:
  status: ('A' for Active; 'I' for Inactive)
    1  A    between atoms: C_5  and  C_30
    2  A    between atoms: C_10  and  N_16
                            x       y       z     vdW  Elec       q    Type
                         _______ _______ _______ _____ _____    ______ ____

>  <TORSDO>
F 2

$$$$
=
 OpenBabel11122410533D

 31 35  0  0  1  0  0  0  0  0999 V2000
  190.4980  176.8440  146.4000 C   0  0  0  0  0  0  0  0  0  0  0  0
  187.8600  177.1190  143.6700 C   0  0  2  0  0  3  0  0  0  0  0  0
  186.8020  178.0840  144.1920 C   0  0  0  0  0  0  0  0  0  0  0  0
  185.6810  179.1460  146.0780 C   0  0  0  0  0  0  0  0  0  0  0  0
  189.1850  177.2330  144.3920 C   0  0  0  0  0  0  0  0  0  0  0  0
  191.5900  177.4880  145.8170 C   0  0  0  0  0  3  0  0  0  0  0  0
  186.6940  178.3300  145.5710 C   0  0  0  0  0  3  0  0  0  0  0  0
  188.8900  178.4280  141.7700 C   0  0  2  0  0  3  0  0  0  0  0  0
  190.5980  176.3340  147.6870 O   0  0  0  0  0  1  0  0  0  0  0  0
  185.8720  178.4320  141.8420 C   0  0  0  0  0  2  0  0  0  0  0  0
  185.6030  179.3880  147.4420 O   0  0  0  0  0  1  0  0  0  0  0  0
  190.2920  178.3060  142.3630 C   0  0  0  0  0  2  0  0  0  0  0  0
  188.0450  177.2000  142.1440 C   0  0  2  0  0  3  0  0  0  0  0  0
  189.3020  176.7140  145.6900 C   0  0  0  0  0  3  0  0  0  0  0  0
  184.7450  179.7130  145.2140 C   0  0  0  0  0  3  0  0  0  0  0  0
  190.2960  177.8760  143.8010 C   0  0  0  0  0  0  0  0  0  0  0  0
  191.4920  177.9920  144.5180 C   0  0  0  0  0  3  0  0  0  0  0  0
  186.6800  177.1980  141.4550 C   0  0  0  0  0  2  0  0  0  0  0  0
  185.8230  178.6330  143.3270 C   0  0  0  0  0  0  0  0  0  0  0  0
  184.8180  179.4570  143.8440 C   0  0  0  0  0  3  0  0  0  0  0  0
  190.3090  176.6510  140.0530 O   0  0  0  0  0  0  0  0  0  0  0  0
  189.7110  177.6250  139.5180 C   0  0  0  0  0  0  0  0  0  0  0  0
  188.9870  178.5560  140.3230 N   0  0  0  0  0  2  0  0  0  0  0  0
  187.0760  177.2420  137.2130 C   0  0  0  0  0  0  0  0  0  0  0  0
  188.8570  178.9730  137.5680 C   0  0  0  0  0  2  0  0  0  0  0  0
  190.4230  175.5080  137.5910 N   0  0  0  0  0  1  0  0  0  0  0  0
  185.6320  176.9100  137.0610 C   0  0  0  0  0  1  0  0  0  0  0  0
  187.4260  178.5260  137.3940 C   0  0  0  0  0  3  0  0  0  0  0  0
  189.5160  176.5780  137.2100 C   0  0  2  0  0  3  0  0  0  0  0  0
  189.7800  177.8440  138.0330 C   0  0  2  0  0  3  0  0  0  0  0  0
  188.0660  176.1100  137.3370 C   0  0  0  0  0  2  0  0  0  0  0  0
  1  9  1  0  0  0  0
  2  3  1  1  0  0  0
  2  5  1  0  0  0  0
  3  7  1  0  0  0  0
  4 11  1  0  0  0  0
  5 14  1  0  0  0  0
  6  1  1  0  0  0  0
  7  4  2  0  0  0  0
  8 23  1  6  0  0  0
  8 13  1  0  0  0  0
  8 12  1  0  0  0  0
 10 19  1  0  0  0  0
 12 16  1  0  0  0  0
 13 18  1  6  0  0  0
 13  2  1  0  0  0  0
 14  1  2  0  0  0  0
 15  4  1  0  0  0  0
 16  5  2  0  0  0  0
 16 17  1  0  0  0  0
 17  6  2  0  0  0  0
 18 10  1  0  0  0  0
 19 20  1  0  0  0  0
 19  3  2  0  0  0  0
 20 15  2  0  0  0  0
 22 21  2  0  0  0  0
 22 23  1  0  0  0  0
 24 31  1  0  0  0  0
 24 28  2  0  0  0  0
 25 30  1  0  0  0  0
 27 24  1  0  0  0  0
 28 25  1  0  0  0  0
 29 31  1  0  0  0  0
 29 26  1  1  0  0  0
 29 30  1  0  0  0  0
 30 22  1  1  0  0  0
M  END
>  <MODEL>
4

>  <REMARK>
 VINA RESULT:      -8.5      3.059      4.743
  Name = 
  2 active torsions:
  status: ('A' for Active; 'I' for Inactive)
    1  A    between atoms: C_5  and  C_30
    2  A    between atoms: C_10  and  N_16
                            x       y       z     vdW  Elec       q    Type
                         _______ _______ _______ _____ _____    ______ ____

>  <TORSDO>
F 2

$$$$
=
 OpenBabel11122410533D

 31 35  0  0  1  0  0  0  0  0999 V2000
  193.5340  175.3250  135.7750 C   0  0  0  0  0  0  0  0  0  0  0  0
  190.2330  176.8530  136.8930 C   0  0  2  0  0  3  0  0  0  0  0  0
  189.1740  175.7720  136.7050 C   0  0  0  0  0  0  0  0  0  0  0  0
  188.4290  173.7400  135.5840 C   0  0  0  0  0  0  0  0  0  0  0  0
  191.6440  176.3090  136.9430 C   0  0  0  0  0  0  0  0  0  0  0  0
  194.2270  175.2130  136.9800 C   0  0  0  0  0  3  0  0  0  0  0  0
  189.4150  174.6970  135.8340 C   0  0  0  0  0  3  0  0  0  0  0  0
  190.3310  177.0760  139.4080 C   0  0  2  0  0  3  0  0  0  0  0  0
  194.1190  174.8890  134.5940 O   0  0  0  0  0  1  0  0  0  0  0  0
  187.5510  177.0100  138.2350 C   0  0  0  0  0  2  0  0  0  0  0  0
  188.6940  172.6770  134.7320 O   0  0  0  0  0  1  0  0  0  0  0  0
  191.8330  176.7970  139.4370 C   0  0  0  0  0  2  0  0  0  0  0  0
  189.9440  177.7720  138.0940 C   0  0  2  0  0  3  0  0  0  0  0  0
  192.2500  175.8740  135.7550 C   0  0  0  0  0  3  0  0  0  0  0  0
  187.1780  173.8550  136.1880 C   0  0  0  0  0  3  0  0  0  0  0  0
  192.3530  176.2020  138.1610 C   0  0  0  0  0  0  0  0  0  0  0  0
  193.6420  175.6600  138.1670 C   0  0  0  0  0  3  0  0  0  0  0  0
  188.4790  178.2090  138.0730 C   0  0  0  0  0  2  0  0  0  0  0  0
  187.8870  175.9010  137.2830 C   0  0  0  0  0  0  0  0  0  0  0  0
  186.9100  174.9320  137.0350 C   0  0  0  0  0  3  0  0  0  0  0  0
  190.1810  176.1870  142.1110 O   0  0  0  0  0  0  0  0  0  0  0  0
  189.9230  177.4010  141.8820 C   0  0  0  0  0  0  0  0  0  0  0  0
  189.9730  177.9090  140.5480 N   0  0  0  0  0  2  0  0  0  0  0  0
  190.8990  177.1600  145.2570 C   0  0  0  0  0  0  0  0  0  0  0  0
  190.7220  179.0470  143.6140 C   0  0  0  0  0  2  0  0  0  0  0  0
  187.5230  176.9930  143.5470 N   0  0  0  0  0  1  0  0  0  0  0  0
  191.7210  176.3920  146.2330 C   0  0  0  0  0  1  0  0  0  0  0  0
  191.4590  178.2060  144.6270 C   0  0  0  0  0  3  0  0  0  0  0  0
  188.7030  177.6380  144.0990 C   0  0  2  0  0  3  0  0  0  0  0  0
  189.5220  178.3230  142.9980 C   0  0  2  0  0  3  0  0  0  0  0  0
  189.5380  176.6260  144.8840 C   0  0  0  0  0  2  0  0  0  0  0  0
  1  6  1  0  0  0  0
  2  3  1  1  0  0  0
  2  5  1  0  0  0  0
  2 13  1  0  0  0  0
  3 19  1  0  0  0  0
  4  7  1  0  0  0  0
  4 15  2  0  0  0  0
  5 16  2  0  0  0  0
  6 17  2  0  0  0  0
  7  3  2  0  0  0  0
  8 12  1  0  0  0  0
  8 23  1  1  0  0  0
  9  1  1  0  0  0  0
 11  4  1  0  0  0  0
 13 18  1  1  0  0  0
 13  8  1  0  0  0  0
 14  1  2  0  0  0  0
 14  5  1  0  0  0  0
 15 20  1  0  0  0  0
 16 17  1  0  0  0  0
 16 12  1  0  0  0  0
 18 10  1  0  0  0  0
 19 10  1  0  0  0  0
 20 19  2  0  0  0  0
 22 21  2  0  0  0  0
 23 22  1  0  0  0  0
 24 27  1  0  0  0  0
 25 28  1  0  0  0  0
 28 24  2  0  0  0  0
 29 26  1  6  0  0  0
 29 31  1  0  0  0  0
 30 22  1  6  0  0  0
 30 25  1  0  0  0  0
 30 29  1  0  0  0  0
 31 24  1  0  0  0  0
M  END
>  <MODEL>
5

>  <REMARK>
 VINA RESULT:      -8.5      4.859      9.012
  Name = 
  2 active torsions:
  status: ('A' for Active; 'I' for Inactive)
    1  A    between atoms: C_5  and  C_30
    2  A    between atoms: C_10  and  N_16
                            x       y       z     vdW  Elec       q    Type
                         _______ _______ _______ _____ _____    ______ ____

>  <TORSDO>
F 2

$$$$
=
 OpenBabel11122410533D

 31 35  0  0  1  0  0  0  0  0999 V2000
  188.8030  178.1210  142.5500 C   0  0  0  0  0  0  0  0  0  0  0  0
  186.0200  179.0030  140.1080 C   0  0  2  0  0  3  0  0  0  0  0  0
  186.1620  178.0430  138.9320 C   0  0  0  0  0  0  0  0  0  0  0  0
  187.5600  176.5710  137.5840 C   0  0  0  0  0  0  0  0  0  0  0  0
  186.7230  178.5260  141.3600 C   0  0  0  0  0  0  0  0  0  0  0  0
  188.0910  177.5790  143.6200 C   0  0  0  0  0  3  0  0  0  0  0  0
  187.3830  177.3910  138.7010 C   0  0  0  0  0  3  0  0  0  0  0  0
  183.8470  178.2530  141.1550 C   0  0  2  0  0  3  0  0  0  0  0  0
  190.1890  178.1880  142.5990 O   0  0  0  0  0  1  0  0  0  0  0  0
  183.7860  178.5520  138.1520 C   0  0  0  0  0  2  0  0  0  0  0  0
  188.7700  175.9230  137.3840 O   0  0  0  0  0  1  0  0  0  0  0  0
  184.5050  178.0300  142.5150 C   0  0  0  0  0  2  0  0  0  0  0  0
  184.5570  179.3850  140.3980 C   0  0  2  0  0  3  0  0  0  0  0  0
  188.1220  178.5960  141.4270 C   0  0  0  0  0  3  0  0  0  0  0  0
  186.5220  176.4090  136.6690 C   0  0  0  0  0  3  0  0  0  0  0  0
  186.0050  177.9840  142.4510 C   0  0  0  0  0  0  0  0  0  0  0  0
  186.6970  177.5210  143.5750 C   0  0  0  0  0  3  0  0  0  0  0  0
  183.8480  179.7510  139.0940 C   0  0  0  0  0  2  0  0  0  0  0  0
  185.1260  177.9020  137.9750 C   0  0  0  0  0  0  0  0  0  0  0  0
  185.3090  177.0710  136.8650 C   0  0  0  0  0  3  0  0  0  0  0  0
  181.6580  176.7490  140.1230 O   0  0  0  0  0  0  0  0  0  0  0  0
  181.3880  177.7730  140.8080 C   0  0  0  0  0  0  0  0  0  0  0  0
  182.4390  178.5750  141.3480 N   0  0  0  0  0  2  0  0  0  0  0  0
  179.5560  180.1090  138.9140 C   0  0  0  0  0  0  0  0  0  0  0  0
  179.0580  177.8360  139.8540 C   0  0  0  0  0  2  0  0  0  0  0  0
  180.6090  180.0210  142.5520 N   0  0  0  0  0  1  0  0  0  0  0  0
  179.5980  181.0210  137.7380 C   0  0  0  0  0  1  0  0  0  0  0  0
  179.1320  178.8470  138.7350 C   0  0  0  0  0  3  0  0  0  0  0  0
  179.8040  179.6730  141.3920 C   0  0  2  0  0  3  0  0  0  0  0  0
  179.9630  178.1900  141.0360 C   0  0  2  0  0  3  0  0  0  0  0  0
  180.1560  180.5820  140.2140 C   0  0  0  0  0  2  0  0  0  0  0  0
  1  9  1  0  0  0  0
  1  6  1  0  0  0  0
  2  3  1  6  0  0  0
  2 13  1  0  0  0  0
  2  5  1  0  0  0  0
  4  7  2  0  0  0  0
  5 14  1  0  0  0  0
  5 16  2  0  0  0  0
  7  3  1  0  0  0  0
  8 23  1  1  0  0  0
  8 12  1  0  0  0  0
 10 18  1  0  0  0  0
 11  4  1  0  0  0  0
 13 18  1  6  0  0  0
 13  8  1  0  0  0  0
 14  1  2  0  0  0  0
 15 20  2  0  0  0  0
 15  4  1  0  0  0  0
 16 12  1  0  0  0  0
 16 17  1  0  0  0  0
 17  6  2  0  0  0  0
 19 10  1  0  0  0  0
 19  3  2  0  0  0  0
 20 19  1  0  0  0  0
 21 22  2  0  0  0  0
 22 23  1  0  0  0  0
 24 31  1  0  0  0  0
 25 30  1  0  0  0  0
 27 24  1  0  0  0  0
 28 24  2  0  0  0  0
 28 25  1  0  0  0  0
 29 26  1  1  0  0  0
 30 22  1  6  0  0  0
 30 29  1  0  0  0  0
 31 29  1  0  0  0  0
M  END
>  <MODEL>
6

>  <REMARK>
 VINA RESULT:      -7.7      2.591      5.557
  Name = 
  2 active torsions:
  status: ('A' for Active; 'I' for Inactive)
    1  A    between atoms: C_5  and  C_30
    2  A    between atoms: C_10  and  N_16
                            x       y       z     vdW  Elec       q    Type
                         _______ _______ _______ _____ _____    ______ ____

>  <TORSDO>
F 2

$$$$
=
 OpenBabel11122410533D

 31 35  0  0  1  0  0  0  0  0999 V2000
  185.3500  178.6050  145.4310 C   0  0  0  0  0  0  0  0  0  0  0  0
  188.9880  178.5840  144.3130 C   0  0  2  0  0  3  0  0  0  0  0  0
  189.7080  177.5870  145.2150 C   0  0  0  0  0  0  0  0  0  0  0  0
  189.8270  176.3780  147.3270 C   0  0  0  0  0  0  0  0  0  0  0  0
  187.4870  178.3990  144.2910 C   0  0  0  0  0  0  0  0  0  0  0  0
  184.7090  178.0050  144.3470 C   0  0  0  0  0  3  0  0  0  0  0  0
  189.1470  177.2260  146.4510 C   0  0  0  0  0  3  0  0  0  0  0  0
  189.0700  177.4340  142.0660 C   0  0  2  0  0  3  0  0  0  0  0  0
  184.6160  179.0030  146.5390 O   0  0  0  0  0  1  0  0  0  0  0  0
  191.6730  177.4470  143.5930 C   0  0  0  0  0  2  0  0  0  0  0  0
  189.2480  176.0200  148.5360 O   0  0  0  0  0  1  0  0  0  0  0  0
  187.5510  177.4930  141.9100 C   0  0  0  0  0  2  0  0  0  0  0  0
  189.5680  178.6320  142.8880 C   0  0  2  0  0  3  0  0  0  0  0  0
  186.7320  178.8050  145.4020 C   0  0  0  0  0  3  0  0  0  0  0  0
  191.0900  175.8940  146.9880 C   0  0  0  0  0  3  0  0  0  0  0  0
  186.8320  177.7990  143.1910 C   0  0  0  0  0  0  0  0  0  0  0  0
  185.4460  177.6140  143.2270 C   0  0  0  0  0  3  0  0  0  0  0  0
  191.0940  178.7030  142.9500 C   0  0  0  0  0  2  0  0  0  0  0  0
  191.0080  177.1210  144.8980 C   0  0  0  0  0  0  0  0  0  0  0  0
  191.6760  176.2640  145.7770 C   0  0  0  0  0  3  0  0  0  0  0  0
  187.9690  178.6280  139.7240 O   0  0  0  0  0  0  0  0  0  0  0  0
  189.0870  178.0520  139.6140 C   0  0  0  0  0  0  0  0  0  0  0  0
  189.6900  177.4280  140.7480 N   0  0  0  0  0  2  0  0  0  0  0  0
  187.6890  176.9780  136.5660 C   0  0  0  0  0  0  0  0  0  0  0  0
  189.1480  178.9030  137.2440 C   0  0  0  0  0  2  0  0  0  0  0  0
  190.5540  175.6730  138.6740 N   0  0  0  0  0  1  0  0  0  0  0  0
  186.4490  176.4890  135.9020 C   0  0  0  0  0  1  0  0  0  0  0  0
  187.9290  178.2990  136.5910 C   0  0  0  0  0  3  0  0  0  0  0  0
  189.8970  176.5570  137.7260 C   0  0  2  0  0  3  0  0  0  0  0  0
  189.7840  177.9800  138.2860 C   0  0  2  0  0  3  0  0  0  0  0  0
  188.5320  175.9900  137.3350 C   0  0  0  0  0  2  0  0  0  0  0  0
  1  9  1  0  0  0  0
  2  5  1  6  0  0  0
  2  3  1  0  0  0  0
  3  7  1  0  0  0  0
  4 11  1  0  0  0  0
  5 14  2  0  0  0  0
  6  1  2  0  0  0  0
  7  4  2  0  0  0  0
  8 23  1  6  0  0  0
  8 13  1  0  0  0  0
 10 19  1  0  0  0  0
 12  8  1  0  0  0  0
 12 16  1  0  0  0  0
 13 18  1  1  0  0  0
 13  2  1  0  0  0  0
 14  1  1  0  0  0  0
 15  4  1  0  0  0  0
 16 17  2  0  0  0  0
 16  5  1  0  0  0  0
 17  6  1  0  0  0  0
 18 10  1  0  0  0  0
 19  3  2  0  0  0  0
 19 20  1  0  0  0  0
 20 15  2  0  0  0  0
 22 21  2  0  0  0  0
 22 23  1  0  0  0  0
 24 28  2  0  0  0  0
 24 31  1  0  0  0  0
 25 30  1  0  0  0  0
 27 24  1  0  0  0  0
 28 25  1  0  0  0  0
 29 30  1  0  0  0  0
 29 26  1  1  0  0  0
 30 22  1  1  0  0  0
 31 29  1  0  0  0  0
M  END
>  <MODEL>
7

>  <REMARK>
 VINA RESULT:      -7.6      3.396      5.497
  Name = 
  2 active torsions:
  status: ('A' for Active; 'I' for Inactive)
    1  A    between atoms: C_5  and  C_30
    2  A    between atoms: C_10  and  N_16
                            x       y       z     vdW  Elec       q    Type
                         _______ _______ _______ _____ _____    ______ ____

>  <TORSDO>
F 2

$$$$
=
 OpenBabel11122410533D

 31 35  0  0  1  0  0  0  0  0999 V2000
  183.6210  179.1510  143.9200 C   0  0  0  0  0  0  0  0  0  0  0  0
  182.2970  177.8610  140.5930 C   0  0  2  0  0  3  0  0  0  0  0  0
  181.3040  178.9040  140.0940 C   0  0  0  0  0  0  0  0  0  0  0  0
  179.7570  180.7250  140.5740 C   0  0  0  0  0  0  0  0  0  0  0  0
  183.2500  178.3930  141.6410 C   0  0  0  0  0  0  0  0  0  0  0  0
  184.9460  179.4580  143.6080 C   0  0  0  0  0  3  0  0  0  0  0  0
  180.7290  179.8150  140.9940 C   0  0  0  0  0  3  0  0  0  0  0  0
  184.1760  178.0610  138.9170 C   0  0  2  0  0  3  0  0  0  0  0  0
  183.1390  179.3780  145.2020 O   0  0  0  0  0  1  0  0  0  0  0  0
  181.4040  177.9540  137.7280 C   0  0  0  0  0  2  0  0  0  0  0  0
  179.2150  181.6280  141.4770 O   0  0  0  0  0  1  0  0  0  0  0  0
  185.2080  178.3290  140.0110 C   0  0  0  0  0  2  0  0  0  0  0  0
  183.0550  177.1580  139.4520 C   0  0  2  0  0  3  0  0  0  0  0  0
  182.7780  178.6180  142.9430 C   0  0  0  0  0  3  0  0  0  0  0  0
  179.3300  180.7230  139.2470 C   0  0  0  0  0  3  0  0  0  0  0  0
  184.5960  178.6970  141.3310 C   0  0  0  0  0  0  0  0  0  0  0  0
  185.4330  179.2210  142.3210 C   0  0  0  0  0  3  0  0  0  0  0  0
  182.0720  176.7370  138.3590 C   0  0  0  0  0  2  0  0  0  0  0  0
  180.8340  178.8850  138.7570 C   0  0  0  0  0  0  0  0  0  0  0  0
  179.8680  179.8070  138.3420 C   0  0  0  0  0  3  0  0  0  0  0  0
  186.5590  179.0030  137.6700 O   0  0  0  0  0  0  0  0  0  0  0  0
  186.0320  177.9560  137.2030 C   0  0  0  0  0  0  0  0  0  0  0  0
  184.8330  177.4350  137.7770 N   0  0  0  0  0  2  0  0  0  0  0  0
  186.3430  174.4790  136.7390 C   0  0  0  0  0  0  0  0  0  0  0  0
  185.6160  176.3840  135.2780 C   0  0  0  0  0  2  0  0  0  0  0  0
  188.8930  177.2700  136.9910 N   0  0  0  0  0  1  0  0  0  0  0  0
  186.0560  173.1420  137.3300 C   0  0  0  0  0  1  0  0  0  0  0  0
  185.4310  175.0320  135.9240 C   0  0  0  0  0  3  0  0  0  0  0  0
  187.8860  176.4430  136.3460 C   0  0  2  0  0  3  0  0  0  0  0  0
  186.6320  177.2610  136.0140 C   0  0  2  0  0  3  0  0  0  0  0  0
  187.5600  175.2310  137.2180 C   0  0  0  0  0  2  0  0  0  0  0  0
  1  9  1  0  0  0  0
  2  3  1  6  0  0  0
  2  5  1  0  0  0  0
  3  7  1  0  0  0  0
  4  7  2  0  0  0  0
  4 11  1  0  0  0  0
  5 14  1  0  0  0  0
  6  1  1  0  0  0  0
  8 23  1  6  0  0  0
  8 13  1  0  0  0  0
  8 12  1  0  0  0  0
 10 18  1  0  0  0  0
 10 19  1  0  0  0  0
 12 16  1  0  0  0  0
 13 18  1  6  0  0  0
 13  2  1  0  0  0  0
 14  1  2  0  0  0  0
 15  4  1  0  0  0  0
 16  5  2  0  0  0  0
 16 17  1  0  0  0  0
 17  6  2  0  0  0  0
 19  3  2  0  0  0  0
 20 19  1  0  0  0  0
 20 15  2  0  0  0  0
 22 21  2  0  0  0  0
 22 23  1  0  0  0  0
 24 31  1  0  0  0  0
 24 27  1  0  0  0  0
 25 28  1  0  0  0  0
 25 30  1  0  0  0  0
 28 24  2  0  0  0  0
 29 26  1  1  0  0  0
 29 31  1  0  0  0  0
 30 29  1  0  0  0  0
 30 22  1  1  0  0  0
M  END
>  <MODEL>
8

>  <REMARK>
 VINA RESULT:      -7.5      3.745      7.244
  Name = 
  2 active torsions:
  status: ('A' for Active; 'I' for Inactive)
    1  A    between atoms: C_5  and  C_30
    2  A    between atoms: C_10  and  N_16
                            x       y       z     vdW  Elec       q    Type
                         _______ _______ _______ _____ _____    ______ ____

>  <TORSDO>
F 2

$$$$
=
 OpenBabel11122410533D

 31 35  0  0  1  0  0  0  0  0999 V2000
  188.7000  178.0940  143.5210 C   0  0  0  0  0  0  0  0  0  0  0  0
  186.4860  179.0030  140.5620 C   0  0  2  0  0  3  0  0  0  0  0  0
  186.9180  178.1020  139.4100 C   0  0  0  0  0  0  0  0  0  0  0  0
  188.6330  176.7350  138.3480 C   0  0  0  0  0  0  0  0  0  0  0  0
  186.9160  178.4900  141.9190 C   0  0  0  0  0  0  0  0  0  0  0  0
  187.7930  177.4820  144.3870 C   0  0  0  0  0  3  0  0  0  0  0  0
  188.1850  177.4970  139.4290 C   0  0  0  0  0  3  0  0  0  0  0  0
  184.1670  178.1420  141.0760 C   0  0  2  0  0  3  0  0  0  0  0  0
  190.0380  178.1980  143.8760 O   0  0  0  0  0  1  0  0  0  0  0  0
  184.7530  178.5760  138.1470 C   0  0  0  0  0  2  0  0  0  0  0  0
  189.8820  176.1320  138.3950 O   0  0  0  0  0  1  0  0  0  0  0  0
  184.5210  177.8780  142.5380 C   0  0  0  0  0  2  0  0  0  0  0  0
  184.9820  179.3280  140.5380 C   0  0  2  0  0  3  0  0  0  0  0  0
  188.2630  178.5980  142.2940 C   0  0  0  0  0  3  0  0  0  0  0  0
  187.8270  176.5840  137.2210 C   0  0  0  0  0  3  0  0  0  0  0  0
  185.9990  177.8790  142.8040 C   0  0  0  0  0  0  0  0  0  0  0  0
  186.4460  177.3860  144.0340 C   0  0  0  0  0  3  0  0  0  0  0  0
  184.5610  179.7320  139.1240 C   0  0  0  0  0  2  0  0  0  0  0  0
  186.1230  177.9740  138.2450 C   0  0  0  0  0  0  0  0  0  0  0  0
  186.5760  177.2010  137.1710 C   0  0  0  0  0  3  0  0  0  0  0  0
  182.2960  176.5540  139.6270 O   0  0  0  0  0  0  0  0  0  0  0  0
  181.8540  177.5720  140.2290 C   0  0  0  0  0  0  0  0  0  0  0  0
  182.7400  178.4140  140.9670 N   0  0  0  0  0  2  0  0  0  0  0  0
  179.8050  178.6300  142.8900 C   0  0  0  0  0  0  0  0  0  0  0  0
  180.1440  179.3980  140.5260 C   0  0  0  0  0  2  0  0  0  0  0  0
  179.6660  175.6270  140.5850 N   0  0  0  0  0  1  0  0  0  0  0  0
  179.7690  178.9530  144.3430 C   0  0  0  0  0  1  0  0  0  0  0  0
  180.0750  179.6160  142.0180 C   0  0  0  0  0  3  0  0  0  0  0  0
  179.4870  177.0170  140.9690 C   0  0  2  0  0  3  0  0  0  0  0  0
  180.3990  177.9370  140.1490 C   0  0  2  0  0  3  0  0  0  0  0  0
  179.7140  177.1840  142.4710 C   0  0  0  0  0  2  0  0  0  0  0  0
  1  9  1  0  0  0  0
  1  6  1  0  0  0  0
  2  3  1  6  0  0  0
  2  5  1  0  0  0  0
  3  7  1  0  0  0  0
  4 11  1  0  0  0  0
  4  7  2  0  0  0  0
  5 14  1  0  0  0  0
  5 16  2  0  0  0  0
  8 23  1  1  0  0  0
  8 12  1  0  0  0  0
 10 19  1  0  0  0  0
 10 18  1  0  0  0  0
 12 16  1  0  0  0  0
 13 18  1  6  0  0  0
 13  2  1  0  0  0  0
 13  8  1  0  0  0  0
 14  1  2  0  0  0  0
 15  4  1  0  0  0  0
 16 17  1  0  0  0  0
 17  6  2  0  0  0  0
 19  3  2  0  0  0  0
 20 15  2  0  0  0  0
 20 19  1  0  0  0  0
 21 22  2  0  0  0  0
 22 23  1  0  0  0  0
 24 27  1  0  0  0  0
 25 28  1  0  0  0  0
 28 24  2  0  0  0  0
 29 26  1  6  0  0  0
 29 31  1  0  0  0  0
 30 22  1  1  0  0  0
 30 25  1  0  0  0  0
 30 29  1  0  0  0  0
 31 24  1  0  0  0  0
M  END
>  <MODEL>
9

>  <REMARK>
 VINA RESULT:      -7.5      2.655      5.550
  Name = 
  2 active torsions:
  status: ('A' for Active; 'I' for Inactive)
    1  A    between atoms: C_5  and  C_30
    2  A    between atoms: C_10  and  N_16
                            x       y       z     vdW  Elec       q    Type
                         _______ _______ _______ _____ _____    ______ ____

>  <TORSDO>
F 2

$$$$
