=
 OpenBabel11122410323D

 30 35  0  0  1  0  0  0  0  0999 V2000
  188.1730  178.2200  144.1340 C   0  0  2  0  0  3  0  0  0  0  0  0
  185.9420  178.1640  145.3700 C   0  0  0  0  0  0  0  0  0  0  0  0
  185.9700  178.7700  140.4860 N   0  0  0  0  0  2  0  0  0  0  0  0
  188.8590  178.3500  142.7280 C   0  0  1  0  0  3  0  0  0  0  0  0
  188.5950  177.0420  144.7820 O   0  0  0  0  0  0  0  0  0  0  0  0
  191.6430  178.7420  144.1590 C   0  0  0  0  0  1  0  0  0  0  0  0
  190.4070  176.6360  140.2780 C   0  0  1  0  0  3  0  0  0  0  0  0
  190.8750  177.4400  143.9840 C   0  0  1  0  0  3  0  0  0  0  0  0
  188.9900  176.8650  139.7180 C   0  0  2  0  0  3  0  0  0  0  0  0
  186.9810  178.4160  139.5530 C   0  0  0  0  0  0  0  0  0  0  0  0
  189.9260  177.2690  145.1860 C   0  0  2  0  0  3  0  0  0  0  0  0
  190.0820  177.4180  142.6590 C   0  0  2  0  0  3  0  0  0  0  0  0
  184.5470  178.2540  145.3920 C   0  0  0  0  0  3  0  0  0  0  0  0
  189.0760  176.8270  138.2580 N   0  0  0  0  0  2  0  0  0  0  0  0
  191.3090  176.6620  139.0700 C   0  0  0  0  0  2  0  0  0  0  0  0
  186.6190  177.9210  146.5600 O   0  0  0  0  0  1  0  0  0  0  0  0
  186.6780  178.9290  141.7410 C   0  0  2  0  0  3  0  0  0  0  0  0
  183.8370  178.5240  144.2210 C   0  0  0  0  0  3  0  0  0  0  0  0
  186.6440  178.3250  144.1600 C   0  0  0  0  0  0  0  0  0  0  0  0
  187.8680  178.0090  141.6310 C   0  0  1  0  0  3  0  0  0  0  0  0
  186.7630  178.3850  138.3130 O   0  0  0  0  0  0  0  0  0  0  0  0
  188.3170  178.1650  140.1860 C   0  0  1  0  0  3  0  0  0  0  0  0
  190.3950  176.3110  137.9280 C   0  0  0  0  0  2  0  0  0  0  0  0
  192.2640  177.3460  141.6150 O   0  0  0  0  0  1  0  0  0  0  0  0
  184.5190  178.7120  143.0190 C   0  0  0  0  0  3  0  0  0  0  0  0
  185.9130  178.6000  142.9780 C   0  0  0  0  0  0  0  0  0  0  0  0
  190.9090  177.5980  141.3710 C   0  0  1  0  0  3  0  0  0  0  0  0
  190.3620  176.2080  145.9800 O   0  0  0  0  0  0  0  0  0  0  0  0
  191.9390  176.8000  147.5140 O   0  0  0  0  0  1  0  0  0  0  0  0
  190.5720  176.7720  147.2400 C   0  0  0  0  0  2  0  0  0  0  0  0
  1 19  1  6  0  0  0
  1  5  1  0  0  0  0
  2 13  1  0  0  0  0
  2 16  1  0  0  0  0
  3 17  1  0  0  0  0
  4  1  1  0  0  0  0
  5 11  1  0  0  0  0
  7 27  1  0  0  0  0
  8  6  1  0  0  0  0
  8 11  1  0  0  0  0
  9 22  1  0  0  0  0
  9  7  1  0  0  0  0
 10 22  1  0  0  0  0
 10  3  1  0  0  0  0
 11 28  1  0  0  0  0
 12  4  1  0  0  0  0
 12  8  1  0  0  0  0
 14  9  1  0  0  0  0
 15  7  1  0  0  0  0
 17 26  1  0  0  0  0
 18 13  2  0  0  0  0
 19  2  2  0  0  0  0
 20 17  1  0  0  0  0
 20  4  1  0  0  0  0
 21 10  2  0  0  0  0
 22 20  1  0  0  0  0
 23 14  1  0  0  0  0
 23 15  1  0  0  0  0
 25 18  1  0  0  0  0
 26 25  2  0  0  0  0
 26 19  1  0  0  0  0
 27 24  1  0  0  0  0
 27 12  1  0  0  0  0
 28 30  1  0  0  0  0
 30 29  1  0  0  0  0
M  END
>  <MODEL>
1

>  <REMARK>
 VINA RESULT:      -9.8      0.000      0.000
  Name = 
  2 active torsions:
  status: ('A' for Active; 'I' for Inactive)
    1  A    between atoms: C_11  and  O_28
    2  A    between atoms: O_28  and  C_30
                            x       y       z     vdW  Elec       q    Type
                         _______ _______ _______ _____ _____    ______ ____

>  <TORSDO>
F 2

$$$$
=
 OpenBabel11122410323D

 30 35  0  0  1  0  0  0  0  0999 V2000
  187.9000  177.4020  142.1260 C   0  0  2  0  0  3  0  0  0  0  0  0
  186.5290  178.4590  140.2530 C   0  0  0  0  0  0  0  0  0  0  0  0
  184.6610  178.3000  144.8030 N   0  0  0  0  0  2  0  0  0  0  0  0
  187.9320  177.0590  143.6580 C   0  0  1  0  0  3  0  0  0  0  0  0
  189.0310  178.1620  141.7680 O   0  0  0  0  0  0  0  0  0  0  0  0
  190.4540  175.2300  143.1630 C   0  0  0  0  0  1  0  0  0  0  0  0
  189.2250  177.9660  146.6320 C   0  0  1  0  0  3  0  0  0  0  0  0
  190.4170  176.7510  143.2100 C   0  0  1  0  0  3  0  0  0  0  0  0
  187.7850  178.5120  146.6830 C   0  0  2  0  0  3  0  0  0  0  0  0
  185.3460  178.1780  146.0410 C   0  0  0  0  0  0  0  0  0  0  0  0
  190.1260  177.2750  141.7920 C   0  0  2  0  0  3  0  0  0  0  0  0
  189.3550  177.2650  144.2070 C   0  0  2  0  0  3  0  0  0  0  0  0
  185.3650  179.0700  139.7760 C   0  0  0  0  0  3  0  0  0  0  0  0
  187.3970  178.6160  148.0900 N   0  0  0  0  0  2  0  0  0  0  0  0
  189.5460  177.5900  148.0560 C   0  0  0  0  0  2  0  0  0  0  0  0
  187.5840  178.2420  139.3730 O   0  0  0  0  0  1  0  0  0  0  0  0
  185.5640  177.7140  143.8320 C   0  0  2  0  0  3  0  0  0  0  0  0
  184.2770  179.2790  140.6250 C   0  0  0  0  0  3  0  0  0  0  0  0
  186.6220  178.0660  141.6020 C   0  0  0  0  0  0  0  0  0  0  0  0
  186.9410  177.9300  144.4080 C   0  0  1  0  0  3  0  0  0  0  0  0
  184.7810  178.4090  147.1420 O   0  0  0  0  0  0  0  0  0  0  0  0
  186.7560  177.6850  145.8980 C   0  0  1  0  0  3  0  0  0  0  0  0
  188.6080  178.4360  148.8740 C   0  0  0  0  0  2  0  0  0  0  0  0
  190.8110  176.3280  145.8970 O   0  0  0  0  0  1  0  0  0  0  0  0
  184.3440  178.8720  141.9580 C   0  0  0  0  0  3  0  0  0  0  0  0
  185.5110  178.2810  142.4540 C   0  0  0  0  0  0  0  0  0  0  0  0
  189.5140  176.8000  145.6680 C   0  0  1  0  0  3  0  0  0  0  0  0
  191.2580  177.9150  141.2880 O   0  0  0  0  0  0  0  0  0  0  0  0
  190.6780  176.2310  139.8690 O   0  0  0  0  0  1  0  0  0  0  0  0
  191.4020  177.4150  139.9920 C   0  0  0  0  0  2  0  0  0  0  0  0
  1 19  1  1  0  0  0
  1  4  1  0  0  0  0
  2 19  1  0  0  0  0
  3 10  1  0  0  0  0
  4 12  1  0  0  0  0
  4 20  1  0  0  0  0
  5 11  1  0  0  0  0
  5  1  1  0  0  0  0
  6  8  1  0  0  0  0
  7  9  1  0  0  0  0
  7 15  1  0  0  0  0
  8 12  1  0  0  0  0
  9 14  1  0  0  0  0
 10 21  2  0  0  0  0
 11  8  1  0  0  0  0
 12 27  1  0  0  0  0
 13  2  2  0  0  0  0
 13 18  1  0  0  0  0
 14 23  1  0  0  0  0
 15 23  1  0  0  0  0
 16  2  1  0  0  0  0
 17 20  1  0  0  0  0
 17  3  1  0  0  0  0
 18 25  2  0  0  0  0
 19 26  2  0  0  0  0
 20 22  1  0  0  0  0
 22 10  1  0  0  0  0
 22  9  1  0  0  0  0
 25 26  1  0  0  0  0
 26 17  1  0  0  0  0
 27 24  1  0  0  0  0
 27  7  1  0  0  0  0
 28 11  1  0  0  0  0
 29 30  1  0  0  0  0
 30 28  1  0  0  0  0
M  END
>  <MODEL>
2

>  <REMARK>
 VINA RESULT:      -9.4      2.265      5.701
  Name = 
  2 active torsions:
  status: ('A' for Active; 'I' for Inactive)
    1  A    between atoms: C_11  and  O_28
    2  A    between atoms: O_28  and  C_30
                            x       y       z     vdW  Elec       q    Type
                         _______ _______ _______ _____ _____    ______ ____

>  <TORSDO>
F 2

$$$$
=
 OpenBabel11122410323D

 30 35  0  0  1  0  0  0  0  0999 V2000
  189.6690  177.4650  143.5520 C   0  0  2  0  0  3  0  0  0  0  0  0
  191.3710  176.1570  144.9290 C   0  0  0  0  0  0  0  0  0  0  0  0
  187.5220  178.2230  147.1960 N   0  0  0  0  0  2  0  0  0  0  0  0
  188.3320  178.2870  143.6060 C   0  0  1  0  0  3  0  0  0  0  0  0
  189.5610  176.4080  142.6270 O   0  0  0  0  0  0  0  0  0  0  0  0
  188.8530  179.2670  140.6530 C   0  0  0  0  0  1  0  0  0  0  0  0
  185.0330  178.1770  142.9430 C   0  0  1  0  0  3  0  0  0  0  0  0
  188.3640  177.8940  141.0930 C   0  0  1  0  0  3  0  0  0  0  0  0
  185.1000  177.9970  144.4720 C   0  0  2  0  0  3  0  0  0  0  0  0
  186.2690  178.6050  146.6480 C   0  0  0  0  0  0  0  0  0  0  0  0
  189.5910  176.9980  141.3470 C   0  0  2  0  0  3  0  0  0  0  0  0
  187.4830  177.9800  142.3590 C   0  0  2  0  0  3  0  0  0  0  0  0
  191.8590  175.6810  146.1500 C   0  0  0  0  0  3  0  0  0  0  0  0
  183.8280  178.4550  145.0320 N   0  0  0  0  0  2  0  0  0  0  0  0
  183.7500  178.9320  142.7000 C   0  0  0  0  0  2  0  0  0  0  0  0
  192.0560  175.8380  143.7620 O   0  0  0  0  0  1  0  0  0  0  0  0
  188.4310  178.2440  146.0660 C   0  0  2  0  0  3  0  0  0  0  0  0
  191.2130  176.0040  147.3440 C   0  0  0  0  0  3  0  0  0  0  0  0
  190.2080  176.9500  144.8910 C   0  0  0  0  0  0  0  0  0  0  0  0
  187.5630  177.9470  144.8690 C   0  0  1  0  0  3  0  0  0  0  0  0
  185.2790  178.8800  147.3760 O   0  0  0  0  0  0  0  0  0  0  0  0
  186.2780  178.7110  145.1520 C   0  0  1  0  0  3  0  0  0  0  0  0
  182.9150  178.6280  143.9130 C   0  0  0  0  0  2  0  0  0  0  0  0
  185.9010  179.0990  140.9100 O   0  0  0  0  0  1  0  0  0  0  0  0
  190.0740  176.8100  147.3260 C   0  0  0  0  0  3  0  0  0  0  0  0
  189.5610  177.2720  146.1090 C   0  0  0  0  0  0  0  0  0  0  0  0
  186.2250  178.8630  142.2510 C   0  0  1  0  0  3  0  0  0  0  0  0
  189.6540  176.0030  140.3730 O   0  0  0  0  0  0  0  0  0  0  0  0
  190.9300  175.4210  138.5770 O   0  0  0  0  0  1  0  0  0  0  0  0
  190.6350  176.4400  139.4810 C   0  0  0  0  0  2  0  0  0  0  0  0
  1  5  1  6  0  0  0
  1  4  1  0  0  0  0
  1 19  1  0  0  0  0
  2 13  1  0  0  0  0
  4 20  1  0  0  0  0
  6  8  1  0  0  0  0
  7  9  1  0  0  0  0
  8 11  1  0  0  0  0
  8 12  1  0  0  0  0
  9 14  1  0  0  0  0
  9 22  1  0  0  0  0
 10  3  1  0  0  0  0
 10 21  2  0  0  0  0
 11  5  1  0  0  0  0
 12  4  1  0  0  0  0
 13 18  2  0  0  0  0
 15  7  1  0  0  0  0
 15 23  1  0  0  0  0
 16  2  1  0  0  0  0
 17 26  1  0  0  0  0
 17  3  1  0  0  0  0
 19  2  2  0  0  0  0
 19 26  1  0  0  0  0
 20 22  1  0  0  0  0
 20 17  1  0  0  0  0
 22 10  1  0  0  0  0
 23 14  1  0  0  0  0
 24 27  1  0  0  0  0
 25 18  1  0  0  0  0
 26 25  2  0  0  0  0
 27 12  1  0  0  0  0
 27  7  1  0  0  0  0
 28 11  1  0  0  0  0
 29 30  1  0  0  0  0
 30 28  1  0  0  0  0
M  END
>  <MODEL>
3

>  <REMARK>
 VINA RESULT:      -9.3      2.445      6.276
  Name = 
  2 active torsions:
  status: ('A' for Active; 'I' for Inactive)
    1  A    between atoms: C_11  and  O_28
    2  A    between atoms: O_28  and  C_30
                            x       y       z     vdW  Elec       q    Type
                         _______ _______ _______ _____ _____    ______ ____

>  <TORSDO>
F 2

$$$$
=
 OpenBabel11122410323D

 30 35  0  0  1  0  0  0  0  0999 V2000
  188.3600  178.0240  143.8440 C   0  0  2  0  0  3  0  0  0  0  0  0
  189.3920  177.0460  145.9610 C   0  0  0  0  0  0  0  0  0  0  0  0
  184.8520  178.9360  146.1520 N   0  0  0  0  0  2  0  0  0  0  0  0
  187.0840  178.7070  143.2340 C   0  0  1  0  0  3  0  0  0  0  0  0
  188.7000  176.8710  143.1090 O   0  0  0  0  0  0  0  0  0  0  0  0
  188.7430  179.4220  140.6470 C   0  0  0  0  0  1  0  0  0  0  0  0
  184.3730  178.1950  141.3040 C   0  0  1  0  0  3  0  0  0  0  0  0
  188.1820  178.0600  141.0330 C   0  0  1  0  0  3  0  0  0  0  0  0
  183.8040  178.1830  142.7350 C   0  0  2  0  0  3  0  0  0  0  0  0
  183.9250  179.1300  145.0930 C   0  0  0  0  0  0  0  0  0  0  0  0
  189.2330  177.3250  141.8860 C   0  0  2  0  0  3  0  0  0  0  0  0
  186.8500  178.1880  141.8040 C   0  0  2  0  0  3  0  0  0  0  0  0
  189.3480  176.7530  147.3280 C   0  0  0  0  0  3  0  0  0  0  0  0
  182.3940  178.5650  142.6580 N   0  0  0  0  0  2  0  0  0  0  0  0
  183.2740  178.7860  140.4570 C   0  0  0  0  0  2  0  0  0  0  0  0
  190.5170  176.6790  145.2300 O   0  0  0  0  0  1  0  0  0  0  0  0
  186.1470  178.9310  145.5000 C   0  0  2  0  0  3  0  0  0  0  0  0
  188.2470  177.1310  148.0970 C   0  0  0  0  0  3  0  0  0  0  0  0
  188.3140  177.7090  145.3430 C   0  0  0  0  0  0  0  0  0  0  0  0
  185.8750  178.4250  144.1060 C   0  0  1  0  0  3  0  0  0  0  0  0
  182.7090  179.3780  145.3080 O   0  0  0  0  0  0  0  0  0  0  0  0
  184.5530  179.0800  143.7320 C   0  0  1  0  0  3  0  0  0  0  0  0
  182.0250  178.5270  141.2520 C   0  0  0  0  0  2  0  0  0  0  0  0
  185.9650  178.9830  139.6970 O   0  0  0  0  0  1  0  0  0  0  0  0
  187.1820  177.8110  147.5050 C   0  0  0  0  0  3  0  0  0  0  0  0
  187.2020  178.0890  146.1330 C   0  0  0  0  0  0  0  0  0  0  0  0
  185.7110  178.9220  141.0720 C   0  0  1  0  0  3  0  0  0  0  0  0
  189.7460  176.2440  141.1690 O   0  0  0  0  0  0  0  0  0  0  0  0
  191.6410  177.4850  141.4180 O   0  0  0  0  0  1  0  0  0  0  0  0
  190.8710  176.7530  140.5160 C   0  0  0  0  0  2  0  0  0  0  0  0
  1  5  1  6  0  0  0
  1 19  1  0  0  0  0
  2 13  1  0  0  0  0
  4  1  1  0  0  0  0
  4 20  1  0  0  0  0
  6  8  1  0  0  0  0
  7  9  1  0  0  0  0
  8 12  1  0  0  0  0
  8 11  1  0  0  0  0
  9 22  1  0  0  0  0
 10 21  2  0  0  0  0
 10  3  1  0  0  0  0
 11  5  1  0  0  0  0
 12  4  1  0  0  0  0
 13 18  2  0  0  0  0
 14  9  1  0  0  0  0
 15 23  1  0  0  0  0
 15  7  1  0  0  0  0
 16  2  1  0  0  0  0
 17 26  1  0  0  0  0
 17  3  1  0  0  0  0
 19  2  2  0  0  0  0
 19 26  1  0  0  0  0
 20 17  1  0  0  0  0
 22 20  1  0  0  0  0
 22 10  1  0  0  0  0
 23 14  1  0  0  0  0
 24 27  1  0  0  0  0
 25 18  1  0  0  0  0
 26 25  2  0  0  0  0
 27  7  1  0  0  0  0
 27 12  1  0  0  0  0
 28 11  1  0  0  0  0
 30 28  1  0  0  0  0
 30 29  1  0  0  0  0
M  END
>  <MODEL>
4

>  <REMARK>
 VINA RESULT:      -8.7      2.346      5.431
  Name = 
  2 active torsions:
  status: ('A' for Active; 'I' for Inactive)
    1  A    between atoms: C_11  and  O_28
    2  A    between atoms: O_28  and  C_30
                            x       y       z     vdW  Elec       q    Type
                         _______ _______ _______ _____ _____    ______ ____

>  <TORSDO>
F 2

$$$$
=
 OpenBabel11122410323D

 30 35  0  0  1  0  0  0  0  0999 V2000
  188.3210  177.7780  142.7950 C   0  0  2  0  0  3  0  0  0  0  0  0
  186.8970  177.7070  144.9100 C   0  0  0  0  0  0  0  0  0  0  0  0
  184.9100  179.3780  140.7290 N   0  0  0  0  0  2  0  0  0  0  0  0
  188.3340  178.1380  141.2670 C   0  0  1  0  0  3  0  0  0  0  0  0
  188.7320  176.4450  142.9910 O   0  0  0  0  0  0  0  0  0  0  0  0
  191.4780  177.8780  141.2650 C   0  0  0  0  0  1  0  0  0  0  0  0
  188.2660  176.8460  138.1580 C   0  0  1  0  0  3  0  0  0  0  0  0
  190.4620  176.7450  141.2840 C   0  0  1  0  0  3  0  0  0  0  0  0
  186.8280  177.3570  138.3680 C   0  0  2  0  0  3  0  0  0  0  0  0
  185.3140  179.1270  139.3910 C   0  0  0  0  0  0  0  0  0  0  0  0
  190.1210  176.4210  142.7510 C   0  0  2  0  0  3  0  0  0  0  0  0
  189.1840  177.1100  140.4980 C   0  0  2  0  0  3  0  0  0  0  0  0
  185.7030  177.9500  145.5970 C   0  0  0  0  0  3  0  0  0  0  0  0
  186.2570  177.6350  137.0500 N   0  0  0  0  0  2  0  0  0  0  0  0
  188.5330  177.0370  136.6860 C   0  0  0  0  0  2  0  0  0  0  0  0
  187.9600  177.1280  145.5940 O   0  0  0  0  0  1  0  0  0  0  0  0
  186.1120  179.1700  141.5130 C   0  0  2  0  0  3  0  0  0  0  0  0
  184.6250  178.5540  144.9480 C   0  0  0  0  0  3  0  0  0  0  0  0
  187.0150  178.0510  143.5500 C   0  0  0  0  0  0  0  0  0  0  0  0
  186.9160  178.1670  140.7260 C   0  0  1  0  0  3  0  0  0  0  0  0
  184.5740  179.3980  138.4080 O   0  0  0  0  0  0  0  0  0  0  0  0
  186.7090  178.5880  139.2790 C   0  0  1  0  0  3  0  0  0  0  0  0
  187.1610  177.0560  136.0700 C   0  0  0  0  0  2  0  0  0  0  0  0
  190.6220  177.0220  138.5550 O   0  0  0  0  0  1  0  0  0  0  0  0
  184.7350  178.9250  143.6080 C   0  0  0  0  0  3  0  0  0  0  0  0
  185.9150  178.6650  142.9020 C   0  0  0  0  0  0  0  0  0  0  0  0
  189.3810  177.4760  139.0140 C   0  0  1  0  0  3  0  0  0  0  0  0
  190.6330  175.1670  143.0850 O   0  0  0  0  0  0  0  0  0  0  0  0
  191.3930  176.5910  144.6930 O   0  0  0  0  0  1  0  0  0  0  0  0
  191.6800  175.4350  143.9680 C   0  0  0  0  0  2  0  0  0  0  0  0
  1  5  1  6  0  0  0
  1 19  1  0  0  0  0
  2 16  1  0  0  0  0
  2 13  1  0  0  0  0
  3 17  1  0  0  0  0
  4  1  1  0  0  0  0
  6  8  1  0  0  0  0
  7  9  1  0  0  0  0
  7 27  1  0  0  0  0
  8 11  1  0  0  0  0
  9 22  1  0  0  0  0
 10  3  1  0  0  0  0
 11  5  1  0  0  0  0
 11 28  1  0  0  0  0
 12  4  1  0  0  0  0
 12  8  1  0  0  0  0
 14  9  1  0  0  0  0
 15  7  1  0  0  0  0
 17 26  1  0  0  0  0
 18 13  2  0  0  0  0
 19  2  2  0  0  0  0
 20  4  1  0  0  0  0
 20 17  1  0  0  0  0
 21 10  2  0  0  0  0
 22 10  1  0  0  0  0
 22 20  1  0  0  0  0
 23 15  1  0  0  0  0
 23 14  1  0  0  0  0
 24 27  1  0  0  0  0
 25 18  1  0  0  0  0
 26 19  1  0  0  0  0
 26 25  2  0  0  0  0
 27 12  1  0  0  0  0
 28 30  1  0  0  0  0
 30 29  1  0  0  0  0
M  END
>  <MODEL>
5

>  <REMARK>
 VINA RESULT:      -8.6      1.765      2.365
  Name = 
  2 active torsions:
  status: ('A' for Active; 'I' for Inactive)
    1  A    between atoms: C_11  and  O_28
    2  A    between atoms: O_28  and  C_30
                            x       y       z     vdW  Elec       q    Type
                         _______ _______ _______ _____ _____    ______ ____

>  <TORSDO>
F 2

$$$$
=
 OpenBabel11122410323D

 30 35  0  0  1  0  0  0  0  0999 V2000
  186.9590  177.9050  142.4350 C   0  0  2  0  0  3  0  0  0  0  0  0
  184.7570  179.1640  142.1670 C   0  0  0  0  0  0  0  0  0  0  0  0
  186.0560  177.5120  146.6170 N   0  0  0  0  0  2  0  0  0  0  0  0
  187.9110  177.1850  143.4550 C   0  0  1  0  0  3  0  0  0  0  0  0
  187.6540  178.9120  141.7380 O   0  0  0  0  0  0  0  0  0  0  0  0
  189.5560  176.0030  141.0370 C   0  0  0  0  0  1  0  0  0  0  0  0
  190.7750  177.4920  145.1990 C   0  0  1  0  0  3  0  0  0  0  0  0
  189.5950  177.4300  141.5650 C   0  0  1  0  0  3  0  0  0  0  0  0
  189.6820  177.7540  146.2520 C   0  0  2  0  0  3  0  0  0  0  0  0
  187.3520  177.1900  147.1020 C   0  0  0  0  0  0  0  0  0  0  0  0
  188.5120  178.2490  140.8370 C   0  0  2  0  0  3  0  0  0  0  0  0
  189.3780  177.4800  143.0930 C   0  0  2  0  0  3  0  0  0  0  0  0
  183.5610  179.6730  142.6840 C   0  0  0  0  0  3  0  0  0  0  0  0
  190.2370  177.4210  147.5640 N   0  0  0  0  0  2  0  0  0  0  0  0
  191.8900  176.8190  145.9590 C   0  0  0  0  0  2  0  0  0  0  0  0
  185.0480  179.3660  140.8230 O   0  0  0  0  0  1  0  0  0  0  0  0
  186.1620  177.3610  145.1800 C   0  0  2  0  0  3  0  0  0  0  0  0
  183.2250  179.4650  144.0230 C   0  0  0  0  0  3  0  0  0  0  0  0
  185.6450  178.4560  143.0000 C   0  0  0  0  0  0  0  0  0  0  0  0
  187.6090  177.6500  144.8680 C   0  0  1  0  0  3  0  0  0  0  0  0
  187.5840  177.0280  148.3300 O   0  0  0  0  0  0  0  0  0  0  0  0
  188.3660  176.9980  146.0150 C   0  0  1  0  0  3  0  0  0  0  0  0
  191.6700  177.2510  147.3830 C   0  0  0  0  0  2  0  0  0  0  0  0
  191.5380  176.3960  143.2110 O   0  0  0  0  0  1  0  0  0  0  0  0
  184.0810  178.7430  144.8540 C   0  0  0  0  0  3  0  0  0  0  0  0
  185.2930  178.2500  144.3560 C   0  0  0  0  0  0  0  0  0  0  0  0
  190.3840  176.6840  143.9470 C   0  0  1  0  0  3  0  0  0  0  0  0
  189.1170  179.1800  139.9930 O   0  0  0  0  0  0  0  0  0  0  0  0
  189.0560  179.6440  137.7640 O   0  0  0  0  0  1  0  0  0  0  0  0
  189.0050  178.6270  138.7160 C   0  0  0  0  0  2  0  0  0  0  0  0
  1  5  1  1  0  0  0
  1 19  1  0  0  0  0
  1  4  1  0  0  0  0
  2 13  2  0  0  0  0
  2 19  1  0  0  0  0
  3 10  1  0  0  0  0
  4 20  1  0  0  0  0
  6  8  1  0  0  0  0
  7 15  1  0  0  0  0
  7  9  1  0  0  0  0
  8 12  1  0  0  0  0
  9 14  1  0  0  0  0
 10 21  2  0  0  0  0
 11  8  1  0  0  0  0
 11  5  1  0  0  0  0
 12  4  1  0  0  0  0
 12 27  1  0  0  0  0
 13 18  1  0  0  0  0
 15 23  1  0  0  0  0
 16  2  1  0  0  0  0
 17  3  1  0  0  0  0
 18 25  2  0  0  0  0
 19 26  2  0  0  0  0
 20 17  1  0  0  0  0
 20 22  1  0  0  0  0
 22  9  1  0  0  0  0
 22 10  1  0  0  0  0
 23 14  1  0  0  0  0
 24 27  1  0  0  0  0
 26 25  1  0  0  0  0
 26 17  1  0  0  0  0
 27  7  1  0  0  0  0
 28 11  1  0  0  0  0
 29 30  1  0  0  0  0
 30 28  1  0  0  0  0
M  END
>  <MODEL>
6

>  <REMARK>
 VINA RESULT:      -8.3      2.691      5.624
  Name = 
  2 active torsions:
  status: ('A' for Active; 'I' for Inactive)
    1  A    between atoms: C_11  and  O_28
    2  A    between atoms: O_28  and  C_30
                            x       y       z     vdW  Elec       q    Type
                         _______ _______ _______ _____ _____    ______ ____

>  <TORSDO>
F 2

$$$$
=
 OpenBabel11122410323D

 30 35  0  0  1  0  0  0  0  0999 V2000
  187.3850  178.4540  141.8250 C   0  0  2  0  0  3  0  0  0  0  0  0
  188.3590  177.7260  139.5830 C   0  0  0  0  0  0  0  0  0  0  0  0
  191.2320  177.6840  143.5780 N   0  0  0  0  0  2  0  0  0  0  0  0
  187.6890  178.6540  143.3530 C   0  0  1  0  0  3  0  0  0  0  0  0
  186.2720  177.6090  141.6500 O   0  0  0  0  0  0  0  0  0  0  0  0
  184.9730  180.2310  143.6520 C   0  0  0  0  0  1  0  0  0  0  0  0
  187.2210  177.3490  146.4220 C   0  0  1  0  0  3  0  0  0  0  0  0
  185.1520  178.7250  143.5190 C   0  0  1  0  0  3  0  0  0  0  0  0
  188.6740  176.9620  146.0820 C   0  0  2  0  0  3  0  0  0  0  0  0
  190.8520  177.6190  144.9450 C   0  0  0  0  0  0  0  0  0  0  0  0
  185.1410  178.3640  142.0220 C   0  0  2  0  0  3  0  0  0  0  0  0
  186.4600  178.2440  144.1840 C   0  0  2  0  0  3  0  0  0  0  0  0
  189.4240  177.2900  138.7880 C   0  0  0  0  0  3  0  0  0  0  0  0
  189.3920  176.7770  147.3430 N   0  0  0  0  0  2  0  0  0  0  0  0
  187.2170  177.5590  147.9150 C   0  0  0  0  0  2  0  0  0  0  0  0
  187.1100  177.9020  138.9960 O   0  0  0  0  0  1  0  0  0  0  0  0
  190.0770  178.2500  142.9090 C   0  0  2  0  0  3  0  0  0  0  0  0
  190.6960  177.1280  139.3390 C   0  0  0  0  0  3  0  0  0  0  0  0
  188.5540  177.9840  140.9530 C   0  0  0  0  0  0  0  0  0  0  0  0
  188.9000  177.8340  143.7550 C   0  0  1  0  0  3  0  0  0  0  0  0
  191.6800  177.3540  145.8560 O   0  0  0  0  0  0  0  0  0  0  0  0
  189.4120  177.9640  145.1820 C   0  0  1  0  0  3  0  0  0  0  0  0
  188.3910  176.7530  148.3970 C   0  0  0  0  0  2  0  0  0  0  0  0
  185.3710  178.8610  146.2550 O   0  0  0  0  0  1  0  0  0  0  0  0
  190.9130  177.4050  140.6890 C   0  0  0  0  0  3  0  0  0  0  0  0
  189.8500  177.8170  141.5010 C   0  0  0  0  0  0  0  0  0  0  0  0
  186.6120  178.5570  145.6850 C   0  0  1  0  0  3  0  0  0  0  0  0
  183.9810  177.6510  141.7200 O   0  0  0  0  0  0  0  0  0  0  0  0
  184.2060  179.3780  140.2510 O   0  0  0  0  0  1  0  0  0  0  0  0
  183.5520  178.1720  140.4980 C   0  0  0  0  0  2  0  0  0  0  0  0
  1 19  1  6  0  0  0
  1  4  1  0  0  0  0
  2 19  1  0  0  0  0
  3 10  1  0  0  0  0
  4 20  1  0  0  0  0
  4 12  1  0  0  0  0
  5  1  1  0  0  0  0
  5 11  1  0  0  0  0
  7 15  1  0  0  0  0
  8  6  1  0  0  0  0
  8 12  1  0  0  0  0
  9  7  1  0  0  0  0
  9 14  1  0  0  0  0
 10 22  1  0  0  0  0
 10 21  2  0  0  0  0
 11  8  1  0  0  0  0
 12 27  1  0  0  0  0
 13 18  1  0  0  0  0
 13  2  2  0  0  0  0
 14 23  1  0  0  0  0
 15 23  1  0  0  0  0
 16  2  1  0  0  0  0
 17  3  1  0  0  0  0
 17 20  1  0  0  0  0
 18 25  2  0  0  0  0
 19 26  2  0  0  0  0
 20 22  1  0  0  0  0
 22  9  1  0  0  0  0
 25 26  1  0  0  0  0
 26 17  1  0  0  0  0
 27 24  1  0  0  0  0
 27  7  1  0  0  0  0
 28 11  1  0  0  0  0
 29 30  1  0  0  0  0
 30 28  1  0  0  0  0
M  END
>  <MODEL>
7

>  <REMARK>
 VINA RESULT:      -8.3      2.513      6.956
  Name = 
  2 active torsions:
  status: ('A' for Active; 'I' for Inactive)
    1  A    between atoms: C_11  and  O_28
    2  A    between atoms: O_28  and  C_30
                            x       y       z     vdW  Elec       q    Type
                         _______ _______ _______ _____ _____    ______ ____

>  <TORSDO>
F 2

$$$$
=
 OpenBabel11122410323D

 30 35  0  0  1  0  0  0  0  0999 V2000
  188.1180  178.0290  142.4290 C   0  0  2  0  0  3  0  0  0  0  0  0
  188.9290  177.2370  144.7140 C   0  0  0  0  0  0  0  0  0  0  0  0
  184.2890  178.8000  144.2190 N   0  0  0  0  0  2  0  0  0  0  0  0
  186.8900  178.5860  141.6240 C   0  0  1  0  0  3  0  0  0  0  0  0
  188.6250  176.8680  141.8130 O   0  0  0  0  0  0  0  0  0  0  0  0
  188.8200  179.2870  139.2290 C   0  0  0  0  0  1  0  0  0  0  0  0
  184.4920  177.7820  139.4020 C   0  0  1  0  0  3  0  0  0  0  0  0
  188.3050  177.9100  139.6220 C   0  0  1  0  0  3  0  0  0  0  0  0
  183.7440  177.8010  140.7490 C   0  0  2  0  0  3  0  0  0  0  0  0
  183.4960  178.8720  143.0430 C   0  0  0  0  0  0  0  0  0  0  0  0
  189.2820  177.2970  140.6420 C   0  0  2  0  0  3  0  0  0  0  0  0
  186.8780  177.9790  140.2090 C   0  0  2  0  0  3  0  0  0  0  0  0
  188.7270  177.0100  146.0790 C   0  0  0  0  0  3  0  0  0  0  0  0
  182.3330  178.0760  140.4730 N   0  0  0  0  0  2  0  0  0  0  0  0
  183.4760  178.2480  138.3900 C   0  0  0  0  0  2  0  0  0  0  0  0
  190.1600  176.9150  144.1540 O   0  0  0  0  0  1  0  0  0  0  0  0
  185.6550  178.8560  143.7380 C   0  0  2  0  0  3  0  0  0  0  0  0
  187.5130  177.3470  146.6800 C   0  0  0  0  0  3  0  0  0  0  0  0
  187.8990  177.7870  143.9270 C   0  0  0  0  0  0  0  0  0  0  0  0
  185.5990  178.2620  142.3530 C   0  0  1  0  0  3  0  0  0  0  0  0
  182.2490  179.0430  143.0880 O   0  0  0  0  0  0  0  0  0  0  0  0
  184.2970  178.7990  141.7770 C   0  0  1  0  0  3  0  0  0  0  0  0
  182.1530  177.9400  139.0360 C   0  0  0  0  0  2  0  0  0  0  0  0
  186.2240  178.6010  137.9650 O   0  0  0  0  0  1  0  0  0  0  0  0
  186.4920  177.9170  145.9190 C   0  0  0  0  0  3  0  0  0  0  0  0
  186.6720  178.1260  144.5470 C   0  0  0  0  0  0  0  0  0  0  0  0
  185.7980  178.5920  139.2980 C   0  0  1  0  0  3  0  0  0  0  0  0
  189.9530  176.2210  140.0610 O   0  0  0  0  0  0  0  0  0  0  0  0
  191.7210  177.4840  140.7480 O   0  0  0  0  0  1  0  0  0  0  0  0
  191.1980  176.7360  139.6940 C   0  0  0  0  0  2  0  0  0  0  0  0
  1  5  1  6  0  0  0
  1 19  1  0  0  0  0
  2 13  1  0  0  0  0
  4 20  1  0  0  0  0
  4  1  1  0  0  0  0
  6  8  1  0  0  0  0
  7  9  1  0  0  0  0
  8 12  1  0  0  0  0
  8 11  1  0  0  0  0
  9 22  1  0  0  0  0
 10 21  2  0  0  0  0
 10  3  1  0  0  0  0
 11  5  1  0  0  0  0
 12  4  1  0  0  0  0
 13 18  2  0  0  0  0
 14  9  1  0  0  0  0
 15 23  1  0  0  0  0
 15  7  1  0  0  0  0
 16  2  1  0  0  0  0
 17  3  1  0  0  0  0
 17 26  1  0  0  0  0
 19 26  1  0  0  0  0
 19  2  2  0  0  0  0
 20 17  1  0  0  0  0
 22 20  1  0  0  0  0
 22 10  1  0  0  0  0
 23 14  1  0  0  0  0
 24 27  1  0  0  0  0
 25 18  1  0  0  0  0
 26 25  2  0  0  0  0
 27  7  1  0  0  0  0
 27 12  1  0  0  0  0
 28 11  1  0  0  0  0
 30 28  1  0  0  0  0
 30 29  1  0  0  0  0
M  END
>  <MODEL>
8

>  <REMARK>
 VINA RESULT:      -8.1      2.272      5.139
  Name = 
  2 active torsions:
  status: ('A' for Active; 'I' for Inactive)
    1  A    between atoms: C_11  and  O_28
    2  A    between atoms: O_28  and  C_30
                            x       y       z     vdW  Elec       q    Type
                         _______ _______ _______ _____ _____    ______ ____

>  <TORSDO>
F 2

$$$$
=
 OpenBabel11122410323D

 30 35  0  0  1  0  0  0  0  0999 V2000
  185.6370  178.8440  141.5750 C   0  0  2  0  0  3  0  0  0  0  0  0
  185.7390  178.2930  139.0870 C   0  0  0  0  0  0  0  0  0  0  0  0
  189.8340  177.9480  141.7960 N   0  0  0  0  0  2  0  0  0  0  0  0
  186.4640  178.9270  142.9070 C   0  0  1  0  0  3  0  0  0  0  0  0
  184.5120  178.0140  141.7440 O   0  0  0  0  0  0  0  0  0  0  0  0
  184.0690  180.4720  144.2600 C   0  0  0  0  0  1  0  0  0  0  0  0
  187.0750  177.3890  145.8400 C   0  0  1  0  0  3  0  0  0  0  0  0
  184.1510  178.9810  143.9640 C   0  0  1  0  0  3  0  0  0  0  0  0
  188.3040  177.0320  144.9830 C   0  0  2  0  0  3  0  0  0  0  0  0
  189.9580  177.7780  143.2000 C   0  0  0  0  0  0  0  0  0  0  0  0
  183.6040  178.7360  142.5450 C   0  0  2  0  0  3  0  0  0  0  0  0
  185.5970  178.4520  144.0870 C   0  0  2  0  0  3  0  0  0  0  0  0
  186.4450  177.9220  137.9380 C   0  0  0  0  0  3  0  0  0  0  0  0
  189.4160  176.7520  145.8920 N   0  0  0  0  0  2  0  0  0  0  0  0
  187.6010  177.4840  147.2500 C   0  0  0  0  0  2  0  0  0  0  0  0
  184.3700  178.5120  138.9930 O   0  0  0  0  0  1  0  0  0  0  0  0
  188.5320  178.5630  141.6210 C   0  0  2  0  0  3  0  0  0  0  0  0
  187.8250  177.7200  137.9910 C   0  0  0  0  0  3  0  0  0  0  0  0
  186.4120  178.4450  140.3150 C   0  0  0  0  0  0  0  0  0  0  0  0
  187.7180  178.0800  142.7950 C   0  0  1  0  0  3  0  0  0  0  0  0
  191.0470  177.4450  143.7380 O   0  0  0  0  0  0  0  0  0  0  0  0
  188.7030  178.1020  143.9550 C   0  0  1  0  0  3  0  0  0  0  0  0
  188.8490  176.6440  147.2270 C   0  0  0  0  0  2  0  0  0  0  0  0
  185.3240  178.9070  146.4480 O   0  0  0  0  0  1  0  0  0  0  0  0
  188.5110  177.8920  139.1940 C   0  0  0  0  0  3  0  0  0  0  0  0
  187.8130  178.2390  140.3560 C   0  0  0  0  0  0  0  0  0  0  0  0
  186.2760  178.6490  145.4560 C   0  0  1  0  0  3  0  0  0  0  0  0
  182.3950  178.0460  142.6210 O   0  0  0  0  0  0  0  0  0  0  0  0
  180.9320  179.7930  142.6400 O   0  0  0  0  0  1  0  0  0  0  0  0
  181.5070  178.7990  141.8500 C   0  0  0  0  0  2  0  0  0  0  0  0
  1 19  1  6  0  0  0
  1  5  1  0  0  0  0
  1  4  1  0  0  0  0
  2 19  1  0  0  0  0
  3 10  1  0  0  0  0
  4 12  1  0  0  0  0
  5 11  1  0  0  0  0
  7 15  1  0  0  0  0
  8 12  1  0  0  0  0
  8  6  1  0  0  0  0
  9  7  1  0  0  0  0
  9 14  1  0  0  0  0
 10 21  2  0  0  0  0
 10 22  1  0  0  0  0
 11 28  1  0  0  0  0
 11  8  1  0  0  0  0
 12 27  1  0  0  0  0
 13 18  1  0  0  0  0
 13  2  2  0  0  0  0
 14 23  1  0  0  0  0
 16  2  1  0  0  0  0
 17  3  1  0  0  0  0
 17 20  1  0  0  0  0
 18 25  2  0  0  0  0
 19 26  2  0  0  0  0
 20  4  1  0  0  0  0
 20 22  1  0  0  0  0
 22  9  1  0  0  0  0
 23 15  1  0  0  0  0
 25 26  1  0  0  0  0
 26 17  1  0  0  0  0
 27  7  1  0  0  0  0
 27 24  1  0  0  0  0
 30 28  1  0  0  0  0
 30 29  1  0  0  0  0
M  END
>  <MODEL>
9

>  <REMARK>
 VINA RESULT:      -8.1      2.723      6.753
  Name = 
  2 active torsions:
  status: ('A' for Active; 'I' for Inactive)
    1  A    between atoms: C_11  and  O_28
    2  A    between atoms: O_28  and  C_30
                            x       y       z     vdW  Elec       q    Type
                         _______ _______ _______ _____ _____    ______ ____

>  <TORSDO>
F 2

$$$$
