=
 OpenBabel11122411223D

 37 43  0  0  1  0  0  0  0  0999 V2000
  187.7200  178.1550  139.4240 C   0  0  0  0  0  2  0  0  0  0  0  0
  190.5380  178.4860  143.3190 C   0  0  0  0  0  0  0  0  0  0  0  0
  186.4500  177.6100  143.9090 C   0  0  0  0  0  0  0  0  0  0  0  0
  187.1050  178.1770  138.1030 N   0  0  0  0  0  0  0  0  0  0  0  0
  183.8950  177.8460  141.2010 C   0  0  0  0  0  2  0  0  0  0  0  0
  188.7180  177.3900  144.7530 C   0  0  0  0  0  0  0  0  0  0  0  0
  185.9170  178.0650  142.7850 C   0  0  0  0  0  0  0  0  0  0  0  0
  185.0040  176.9450  137.6880 C   0  0  2  0  0  3  0  0  0  0  0  0
  187.8670  177.6530  143.7820 C   0  0  0  0  0  0  0  0  0  0  0  0
  184.4570  178.2470  142.5500 C   0  0  0  0  0  0  0  0  0  0  0  0
  188.1580  176.9400  146.0500 C   0  0  0  0  0  3  0  0  0  0  0  0
  186.5150  176.8590  137.9200 C   0  0  0  0  0  2  0  0  0  0  0  0
  188.1900  178.1790  142.4970 C   0  0  0  0  0  0  0  0  0  0  0  0
  191.9620  178.2310  142.8810 C   0  0  0  0  0  1  0  0  0  0  0  0
  184.9720  178.3970  145.6590 C   0  0  0  0  0  3  0  0  0  0  0  0
  186.8200  176.8650  146.2470 C   0  0  0  0  0  3  0  0  0  0  0  0
  189.6160  178.3510  142.0750 C   0  0  0  0  0  2  0  0  0  0  0  0
  184.1980  177.7450  138.7230 C   0  0  0  0  0  2  0  0  0  0  0  0
  184.8990  177.9200  140.0610 C   0  0  1  0  0  3  0  0  0  0  0  0
  185.7820  177.2370  145.1870 C   0  0  2  0  0  3  0  0  0  0  0  0
  187.0380  178.4080  141.8550 C   0  0  0  0  0  0  0  0  0  0  0  0
  190.1950  177.4900  144.4640 C   0  0  0  0  0  2  0  0  0  0  0  0
  183.6090  178.6900  143.5270 C   0  0  0  0  0  0  0  0  0  0  0  0
  190.4590  179.9070  143.8500 C   0  0  0  0  0  1  0  0  0  0  0  0
  185.5550  179.1630  140.0740 O   0  0  0  0  0  0  0  0  0  0  0  0
  184.4410  175.5440  137.5960 C   0  0  0  0  0  1  0  0  0  0  0  0
  186.9010  178.9590  140.4530 C   0  0  2  0  0  3  0  0  0  0  0  0
  184.0250  178.9940  144.9280 C   0  0  0  0  0  3  0  0  0  0  0  0
  181.8340  179.6080  141.9290 C   0  0  0  0  0  3  0  0  0  0  0  0
  182.1870  179.0140  143.2370 C   0  0  0  0  0  0  0  0  0  0  0  0
  181.2210  178.7290  144.1190 C   0  0  0  0  0  3  0  0  0  0  0  0
  178.9310  178.7680  144.6780 O   0  0  0  0  0  0  0  0  0  0  0  0
  179.4000  179.5470  142.4720 C   0  0  0  0  0  2  0  0  0  0  0  0
  179.8100  179.0010  143.8110 C   0  0  0  0  0  0  0  0  0  0  0  0
  180.5710  179.8550  141.5770 C   0  0  0  0  0  3  0  0  0  0  0  0
  189.4810  177.8190  137.7690 C   0  0  0  0  0  1  0  0  0  0  0  0
  188.1850  178.2860  137.1350 C   0  0  0  0  0  2  0  0  0  0  0  0
  2 24  1  0  0  0  0
  2 22  1  0  0  0  0
  3 20  1  0  0  0  0
  4  1  1  0  0  0  0
  5 10  1  0  0  0  0
  6 11  1  0  0  0  0
  7  3  2  0  0  0  0
  8 26  1  1  0  0  0
  8 12  1  0  0  0  0
  8 18  1  0  0  0  0
  9  3  1  0  0  0  0
  9  6  2  0  0  0  0
 10  7  1  0  0  0  0
 10 23  2  0  0  0  0
 11 16  2  0  0  0  0
 12  4  1  0  0  0  0
 13  9  1  0  0  0  0
 14  2  1  0  0  0  0
 17 13  1  0  0  0  0
 17  2  1  0  0  0  0
 19 18  1  6  0  0  0
 19 25  1  0  0  0  0
 19  5  1  0  0  0  0
 20 15  1  1  0  0  0
 20 16  1  0  0  0  0
 21 13  2  0  0  0  0
 21  7  1  0  0  0  0
 22  6  1  0  0  0  0
 23 28  1  0  0  0  0
 25 27  1  0  0  0  0
 27  1  1  6  0  0  0
 27 21  1  0  0  0  0
 28 15  2  0  0  0  0
 29 30  1  0  0  0  0
 30 23  1  0  0  0  0
 30 31  2  0  0  0  0
 33 34  1  0  0  0  0
 34 31  1  0  0  0  0
 34 32  2  0  0  0  0
 35 29  2  0  0  0  0
 35 33  1  0  0  0  0
 37 36  1  0  0  0  0
 37  4  1  0  0  0  0
M  END
>  <MODEL>
1

>  <REMARK>
 VINA RESULT:      -9.4      0.000      0.000
  Name = 
  2 active torsions:
  status: ('A' for Active; 'I' for Inactive)
    1  A    between atoms: N_4  and  C_37
    2  A    between atoms: C_23  and  C_30
                            x       y       z     vdW  Elec       q    Type
                         _______ _______ _______ _____ _____    ______ ____

>  <TORSDO>
F 2

$$$$
=
 OpenBabel11122411223D

 37 43  0  0  1  0  0  0  0  0999 V2000
  189.3520  177.3460  139.1840 C   0  0  0  0  0  2  0  0  0  0  0  0
  190.6810  178.2180  143.7340 C   0  0  0  0  0  0  0  0  0  0  0  0
  186.5560  177.8400  142.9190 C   0  0  0  0  0  0  0  0  0  0  0  0
  189.2390  177.1530  137.7430 N   0  0  0  0  0  0  0  0  0  0  0  0
  185.1520  177.7410  139.4640 C   0  0  0  0  0  2  0  0  0  0  0  0
  188.3340  177.6000  144.5570 C   0  0  0  0  0  0  0  0  0  0  0  0
  186.5160  178.1010  141.6210 C   0  0  0  0  0  0  0  0  0  0  0  0
  187.2440  176.0500  136.7910 C   0  0  2  0  0  3  0  0  0  0  0  0
  187.9190  177.7330  143.3140 C   0  0  0  0  0  0  0  0  0  0  0  0
  185.2730  178.3580  140.8430 C   0  0  0  0  0  0  0  0  0  0  0  0
  187.3000  177.4750  145.6130 C   0  0  0  0  0  3  0  0  0  0  0  0
  188.5520  175.8810  137.5700 C   0  0  0  0  0  2  0  0  0  0  0  0
  188.7390  177.9560  142.1690 C   0  0  0  0  0  0  0  0  0  0  0  0
  192.1120  177.7560  143.8930 C   0  0  0  0  0  1  0  0  0  0  0  0
  184.7070  179.0930  143.8590 C   0  0  0  0  0  3  0  0  0  0  0  0
  185.9820  177.5580  145.3170 C   0  0  0  0  0  3  0  0  0  0  0  0
  190.2320  177.9130  142.2770 C   0  0  0  0  0  2  0  0  0  0  0  0
  186.2660  177.1110  137.3180 C   0  0  0  0  0  2  0  0  0  0  0  0
  186.4840  177.4930  138.7730 C   0  0  1  0  0  3  0  0  0  0  0  0
  185.4400  177.7950  143.9070 C   0  0  2  0  0  3  0  0  0  0  0  0
  187.9270  178.1480  141.1230 C   0  0  0  0  0  0  0  0  0  0  0  0
  189.8170  177.5100  144.8160 C   0  0  0  0  0  2  0  0  0  0  0  0
  184.2200  179.0630  141.3580 C   0  0  0  0  0  0  0  0  0  0  0  0
  190.6450  179.7180  143.9650 C   0  0  0  0  0  1  0  0  0  0  0  0
  187.2790  178.6500  138.8280 O   0  0  0  0  0  0  0  0  0  0  0  0
  186.5370  174.7130  136.7240 C   0  0  0  0  0  1  0  0  0  0  0  0
  188.3650  178.4120  139.7000 C   0  0  2  0  0  3  0  0  0  0  0  0
  184.1720  179.6090  142.7460 C   0  0  0  0  0  3  0  0  0  0  0  0
  183.2770  180.1890  139.2630 C   0  0  0  0  0  3  0  0  0  0  0  0
  183.0520  179.4440  140.5210 C   0  0  0  0  0  0  0  0  0  0  0  0
  181.8100  179.0770  140.8610 C   0  0  0  0  0  3  0  0  0  0  0  0
  179.5020  179.0930  140.3780 O   0  0  0  0  0  0  0  0  0  0  0  0
  180.8500  180.1110  138.6920 C   0  0  0  0  0  2  0  0  0  0  0  0
  180.6610  179.4080  140.0070 C   0  0  0  0  0  0  0  0  0  0  0  0
  182.2810  180.4970  138.4310 C   0  0  0  0  0  3  0  0  0  0  0  0
  191.4620  176.3690  138.3190 C   0  0  0  0  0  1  0  0  0  0  0  0
  190.5880  176.9670  137.2330 C   0  0  0  0  0  2  0  0  0  0  0  0
  2 14  1  0  0  0  0
  2 24  1  0  0  0  0
  2 22  1  0  0  0  0
  3  9  1  0  0  0  0
  3 20  1  0  0  0  0
  4  1  1  0  0  0  0
  5 10  1  0  0  0  0
  6 22  1  0  0  0  0
  6 11  1  0  0  0  0
  7  3  2  0  0  0  0
  8 26  1  1  0  0  0
  8 18  1  0  0  0  0
  8 12  1  0  0  0  0
  9  6  2  0  0  0  0
 10 23  2  0  0  0  0
 10  7  1  0  0  0  0
 12  4  1  0  0  0  0
 13 17  1  0  0  0  0
 13  9  1  0  0  0  0
 16 11  2  0  0  0  0
 17  2  1  0  0  0  0
 19 18  1  6  0  0  0
 19 25  1  0  0  0  0
 19  5  1  0  0  0  0
 20 15  1  1  0  0  0
 20 16  1  0  0  0  0
 21  7  1  0  0  0  0
 21 13  2  0  0  0  0
 23 28  1  0  0  0  0
 25 27  1  0  0  0  0
 27  1  1  6  0  0  0
 27 21  1  0  0  0  0
 28 15  2  0  0  0  0
 29 30  1  0  0  0  0
 30 31  2  0  0  0  0
 30 23  1  0  0  0  0
 33 34  1  0  0  0  0
 34 32  2  0  0  0  0
 34 31  1  0  0  0  0
 35 33  1  0  0  0  0
 35 29  2  0  0  0  0
 37  4  1  0  0  0  0
 37 36  1  0  0  0  0
M  END
>  <MODEL>
2

>  <REMARK>
 VINA RESULT:      -8.8      1.691      2.253
  Name = 
  2 active torsions:
  status: ('A' for Active; 'I' for Inactive)
    1  A    between atoms: N_4  and  C_37
    2  A    between atoms: C_23  and  C_30
                            x       y       z     vdW  Elec       q    Type
                         _______ _______ _______ _____ _____    ______ ____

>  <TORSDO>
F 2

$$$$
=
 OpenBabel11122411223D

 37 43  0  0  1  0  0  0  0  0999 V2000
  187.5570  177.8840  139.7780 C   0  0  0  0  0  2  0  0  0  0  0  0
  184.4770  176.6370  136.2880 C   0  0  0  0  0  0  0  0  0  0  0  0
  188.2040  174.6580  136.4320 C   0  0  0  0  0  0  0  0  0  0  0  0
  188.2990  178.4950  140.8740 N   0  0  0  0  0  0  0  0  0  0  0  0
  191.0220  175.7580  138.6150 C   0  0  0  0  0  2  0  0  0  0  0  0
  185.8650  174.5410  135.7860 C   0  0  0  0  0  0  0  0  0  0  0  0
  188.9370  175.5220  137.1180 C   0  0  1  0  0  3  0  0  0  0  0  0
  190.1250  177.2540  141.9820 C   0  0  2  0  0  3  0  0  0  0  0  0
  186.8490  175.0940  136.4660 C   0  0  0  0  0  0  0  0  0  0  0  0
  190.4180  175.4580  137.2580 C   0  0  0  0  0  0  0  0  0  0  0  0
  186.1780  173.3300  134.9900 C   0  0  0  0  0  3  0  0  0  0  0  0
  188.6140  177.4080  141.7900 C   0  0  0  0  0  2  0  0  0  0  0  0
  186.7820  176.3030  137.2170 C   0  0  0  0  0  0  0  0  0  0  0  0
  183.0860  177.0100  136.7460 C   0  0  0  0  0  1  0  0  0  0  0  0
  189.6220  173.9670  134.5940 C   0  0  0  0  0  3  0  0  0  0  0  0
  187.4410  172.8490  134.9150 C   0  0  0  0  0  3  0  0  0  0  0  0
  185.4760  177.0070  137.4190 C   0  0  0  0  0  2  0  0  0  0  0  0
  190.9680  177.1280  140.7040 C   0  0  0  0  0  2  0  0  0  0  0  0
  190.1830  176.6860  139.4790 C   0  0  1  0  0  3  0  0  0  0  0  0
  188.6410  173.4930  135.6120 C   0  0  0  0  0  0  0  0  0  0  0  0
  188.0170  176.5750  137.6540 C   0  0  0  0  0  0  0  0  0  0  0  0
  184.4800  175.1260  135.9190 C   0  0  0  0  0  2  0  0  0  0  0  0
  191.2330  175.0700  136.2300 C   0  0  0  0  0  0  0  0  0  0  0  0
  184.7970  177.4560  135.0490 C   0  0  0  0  0  1  0  0  0  0  0  0
  189.8050  177.8220  138.7440 O   0  0  0  0  0  0  0  0  0  0  0  0
  190.3870  176.0560  142.8700 C   0  0  0  0  0  1  0  0  0  0  0  0
  188.4140  177.7630  138.5020 C   0  0  2  0  0  3  0  0  0  0  0  0
  190.7450  174.6300  134.8900 C   0  0  0  0  0  3  0  0  0  0  0  0
  193.4690  174.0120  136.8820 C   0  0  0  0  0  3  0  0  0  0  0  0
  192.7140  175.1590  136.3330 C   0  0  0  0  0  0  0  0  0  0  0  0
  193.3740  176.2360  135.8880 C   0  0  0  0  0  3  0  0  0  0  0  0
  195.4280  177.3450  135.5620 O   0  0  0  0  0  0  0  0  0  0  0  0
  195.6510  175.1360  136.4360 C   0  0  0  0  0  2  0  0  0  0  0  0
  194.8410  176.3010  135.9410 C   0  0  0  0  0  0  0  0  0  0  0  0
  194.8020  173.9970  136.9340 C   0  0  0  0  0  3  0  0  0  0  0  0
  185.9510  178.9180  141.3140 C   0  0  0  0  0  1  0  0  0  0  0  0
  187.3740  179.3720  141.5750 C   0  0  0  0  0  2  0  0  0  0  0  0
  1  4  1  0  0  0  0
  2 14  1  0  0  0  0
  2 17  1  0  0  0  0
  3  9  2  0  0  0  0
  4 37  1  0  0  0  0
  4 12  1  0  0  0  0
  6 22  1  0  0  0  0
  6  9  1  0  0  0  0
  7  3  1  6  0  0  0
  7 10  1  0  0  0  0
  7 21  1  0  0  0  0
  8 26  1  1  0  0  0
  9 13  1  0  0  0  0
 10  5  1  0  0  0  0
 11  6  2  0  0  0  0
 12  8  1  0  0  0  0
 13 17  1  0  0  0  0
 13 21  2  0  0  0  0
 15 28  2  0  0  0  0
 15 20  1  0  0  0  0
 16 11  1  0  0  0  0
 16 20  2  0  0  0  0
 18  8  1  0  0  0  0
 19  5  1  6  0  0  0
 19 18  1  0  0  0  0
 20  3  1  0  0  0  0
 21 27  1  0  0  0  0
 22  2  1  0  0  0  0
 23 30  1  0  0  0  0
 23 10  2  0  0  0  0
 24  2  1  0  0  0  0
 25 19  1  0  0  0  0
 27 25  1  0  0  0  0
 27  1  1  1  0  0  0
 28 23  1  0  0  0  0
 29 35  2  0  0  0  0
 30 29  1  0  0  0  0
 31 34  1  0  0  0  0
 31 30  2  0  0  0  0
 32 34  2  0  0  0  0
 33 35  1  0  0  0  0
 34 33  1  0  0  0  0
 36 37  1  0  0  0  0
M  END
>  <MODEL>
3

>  <REMARK>
 VINA RESULT:      -7.4      3.866     10.267
  Name = 
  2 active torsions:
  status: ('A' for Active; 'I' for Inactive)
    1  A    between atoms: N_4  and  C_37
    2  A    between atoms: C_23  and  C_30
                            x       y       z     vdW  Elec       q    Type
                         _______ _______ _______ _____ _____    ______ ____

>  <TORSDO>
F 2

$$$$
=
 OpenBabel11122411223D

 37 43  0  0  1  0  0  0  0  0999 V2000
  184.4340  178.9370  144.0200 C   0  0  0  0  0  2  0  0  0  0  0  0
  179.7300  179.2760  143.0300 C   0  0  0  0  0  0  0  0  0  0  0  0
  182.2380  177.5210  140.1220 C   0  0  0  0  0  0  0  0  0  0  0  0
  185.7900  179.0210  144.5490 N   0  0  0  0  0  0  0  0  0  0  0  0
  185.9630  177.6170  140.3050 C   0  0  0  0  0  2  0  0  0  0  0  0
  180.0050  177.6450  141.0720 C   0  0  0  0  0  0  0  0  0  0  0  0
  183.4200  178.0130  140.4600 C   0  0  0  0  0  0  0  0  0  0  0  0
  187.5340  177.4620  143.7530 C   0  0  2  0  0  3  0  0  0  0  0  0
  181.3030  177.8660  141.1380 C   0  0  2  0  0  3  0  0  0  0  0  0
  184.6480  177.9290  139.6200 C   0  0  0  0  0  0  0  0  0  0  0  0
  179.4950  176.9140  139.8870 C   0  0  0  0  0  3  0  0  0  0  0  0
  186.2760  177.6500  144.6070 C   0  0  0  0  0  2  0  0  0  0  0  0
  181.9800  178.6220  142.1380 C   0  0  0  0  0  0  0  0  0  0  0  0
  178.9890  179.3780  144.3440 C   0  0  0  0  0  1  0  0  0  0  0  0
  182.1420  177.7390  137.7120 C   0  0  0  0  0  3  0  0  0  0  0  0
  180.3230  176.5430  138.8830 C   0  0  0  0  0  3  0  0  0  0  0  0
  181.2470  179.1350  143.3390 C   0  0  0  0  0  2  0  0  0  0  0  0
  187.4450  177.9290  142.2930 C   0  0  0  0  0  2  0  0  0  0  0  0
  186.0260  178.0510  141.7610 C   0  0  1  0  0  3  0  0  0  0  0  0
  181.8230  176.8440  138.8610 C   0  0  0  0  0  0  0  0  0  0  0  0
  183.2670  178.7020  141.7800 C   0  0  0  0  0  0  0  0  0  0  0  0
  179.1400  178.0800  142.2290 C   0  0  0  0  0  2  0  0  0  0  0  0
  184.6110  178.0500  138.2590 C   0  0  0  0  0  0  0  0  0  0  0  0
  179.4930  180.5630  142.2580 C   0  0  0  0  0  1  0  0  0  0  0  0
  185.6040  179.3860  141.8860 O   0  0  0  0  0  0  0  0  0  0  0  0
  187.9340  176.0030  143.7850 C   0  0  0  0  0  1  0  0  0  0  0  0
  184.3590  179.4070  142.5540 C   0  0  2  0  0  3  0  0  0  0  0  0
  183.3610  178.2300  137.4630 C   0  0  0  0  0  3  0  0  0  0  0  0
  185.9340  177.3600  136.1800 C   0  0  0  0  0  3  0  0  0  0  0  0
  185.8560  178.1180  137.4480 C   0  0  0  0  0  0  0  0  0  0  0  0
  186.8810  178.8940  137.8210 C   0  0  0  0  0  3  0  0  0  0  0  0
  189.0550  179.7000  137.3950 O   0  0  0  0  0  0  0  0  0  0  0  0
  188.1890  178.2980  135.6690 C   0  0  0  0  0  2  0  0  0  0  0  0
  188.0900  179.0030  136.9940 C   0  0  0  0  0  0  0  0  0  0  0  0
  186.9920  177.4360  135.3700 C   0  0  0  0  0  3  0  0  0  0  0  0
  185.3070  178.3140  146.8190 C   0  0  0  0  0  1  0  0  0  0  0  0
  185.6800  179.4800  145.9240 C   0  0  0  0  0  2  0  0  0  0  0  0
  1  4  1  0  0  0  0
  2 17  1  0  0  0  0
  2 14  1  0  0  0  0
  3  7  2  0  0  0  0
  4 12  1  0  0  0  0
  4 37  1  0  0  0  0
  6  9  1  0  0  0  0
  6 22  1  0  0  0  0
  7 21  1  0  0  0  0
  8 26  1  6  0  0  0
  8 12  1  0  0  0  0
  9  3  1  6  0  0  0
  9 13  1  0  0  0  0
 10  5  1  0  0  0  0
 10  7  1  0  0  0  0
 11  6  2  0  0  0  0
 13 17  1  0  0  0  0
 15 20  1  0  0  0  0
 16 11  1  0  0  0  0
 18  8  1  0  0  0  0
 19  5  1  6  0  0  0
 19 25  1  0  0  0  0
 19 18  1  0  0  0  0
 20 16  2  0  0  0  0
 20  3  1  0  0  0  0
 21 13  2  0  0  0  0
 21 27  1  0  0  0  0
 22  2  1  0  0  0  0
 23 10  2  0  0  0  0
 24  2  1  0  0  0  0
 25 27  1  0  0  0  0
 27  1  1  1  0  0  0
 28 15  2  0  0  0  0
 28 23  1  0  0  0  0
 29 30  1  0  0  0  0
 30 31  2  0  0  0  0
 30 23  1  0  0  0  0
 33 34  1  0  0  0  0
 34 32  2  0  0  0  0
 34 31  1  0  0  0  0
 35 33  1  0  0  0  0
 35 29  2  0  0  0  0
 37 36  1  0  0  0  0
M  END
>  <MODEL>
4

>  <REMARK>
 VINA RESULT:      -6.8      2.371      8.028
  Name = 
  2 active torsions:
  status: ('A' for Active; 'I' for Inactive)
    1  A    between atoms: N_4  and  C_37
    2  A    between atoms: C_23  and  C_30
                            x       y       z     vdW  Elec       q    Type
                         _______ _______ _______ _____ _____    ______ ____

>  <TORSDO>
F 2

$$$$
=
 OpenBabel11122411223D

 37 43  0  0  1  0  0  0  0  0999 V2000
  184.7020  177.1100  136.3050 C   0  0  0  0  0  2  0  0  0  0  0  0
  179.9090  177.5390  136.0500 C   0  0  0  0  0  0  0  0  0  0  0  0
  181.8720  179.2640  139.3660 C   0  0  0  0  0  0  0  0  0  0  0  0
  186.1140  176.7790  136.1590 N   0  0  0  0  0  0  0  0  0  0  0  0
  185.4590  178.6380  140.1750 C   0  0  0  0  0  2  0  0  0  0  0  0
  179.9540  179.3360  137.8770 C   0  0  0  0  0  0  0  0  0  0  0  0
  183.0050  178.5790  139.3900 C   0  0  0  0  0  0  0  0  0  0  0  0
  187.8370  178.1670  137.2590 C   0  0  2  0  0  3  0  0  0  0  0  0
  181.1730  178.9330  138.1710 C   0  0  0  0  0  0  0  0  0  0  0  0
  183.9830  178.5920  140.5130 C   0  0  0  0  0  0  0  0  0  0  0  0
  179.2930  180.2660  138.8240 C   0  0  0  0  0  3  0  0  0  0  0  0
  186.8170  178.0540  136.1220 C   0  0  0  0  0  2  0  0  0  0  0  0
  181.9450  177.9790  137.4460 C   0  0  0  0  0  0  0  0  0  0  0  0
  179.5090  177.3860  134.6000 C   0  0  0  0  0  1  0  0  0  0  0  0
  181.1490  179.3480  141.6760 C   0  0  0  0  0  3  0  0  0  0  0  0
  179.8960  180.6350  139.9790 C   0  0  0  0  0  3  0  0  0  0  0  0
  181.4570  177.4330  136.1400 C   0  0  0  0  0  2  0  0  0  0  0  0
  187.3150  177.8920  138.6770 C   0  0  0  0  0  2  0  0  0  0  0  0
  185.8080  178.0300  138.8250 C   0  0  1  0  0  3  0  0  0  0  0  0
  181.2740  180.1360  140.4170 C   0  0  2  0  0  3  0  0  0  0  0  0
  183.0720  177.7660  138.1350 C   0  0  0  0  0  0  0  0  0  0  0  0
  179.3430  178.8910  136.5710 C   0  0  0  0  0  2  0  0  0  0  0  0
  183.5920  178.6390  141.8230 C   0  0  0  0  0  0  0  0  0  0  0  0
  179.2830  176.3970  136.8310 C   0  0  0  0  0  1  0  0  0  0  0  0
  185.2190  176.7600  138.7000 O   0  0  0  0  0  0  0  0  0  0  0  0
  188.4650  179.5430  137.2190 C   0  0  0  0  0  1  0  0  0  0  0  0
  184.1920  176.8320  137.7330 C   0  0  2  0  0  3  0  0  0  0  0  0
  182.1720  178.7270  142.2740 C   0  0  0  0  0  3  0  0  0  0  0  0
  184.2100  178.9970  144.2790 C   0  0  0  0  0  3  0  0  0  0  0  0
  184.5690  178.4960  142.9340 C   0  0  0  0  0  0  0  0  0  0  0  0
  185.7410  177.8770  142.7480 C   0  0  0  0  0  3  0  0  0  0  0  0
  187.7980  177.1490  143.6410 O   0  0  0  0  0  0  0  0  0  0  0  0
  186.3370  178.1290  145.2540 C   0  0  0  0  0  2  0  0  0  0  0  0
  186.6850  177.6900  143.8580 C   0  0  0  0  0  0  0  0  0  0  0  0
  185.0100  178.8350  145.3350 C   0  0  0  0  0  3  0  0  0  0  0  0
  187.3710  175.1340  134.8940 C   0  0  0  0  0  1  0  0  0  0  0  0
  186.2750  176.1800  134.8440 C   0  0  0  0  0  2  0  0  0  0  0  0
  2 17  1  0  0  0  0
  2 22  1  0  0  0  0
  2 24  1  0  0  0  0
  3  7  2  0  0  0  0
  3 20  1  0  0  0  0
  4  1  1  0  0  0  0
  5 10  1  0  0  0  0
  6  9  2  0  0  0  0
  6 11  1  0  0  0  0
  7 10  1  0  0  0  0
  8 26  1  1  0  0  0
  8 18  1  0  0  0  0
  9  3  1  0  0  0  0
 10 23  2  0  0  0  0
 11 16  2  0  0  0  0
 12  4  1  0  0  0  0
 12  8  1  0  0  0  0
 13 21  2  0  0  0  0
 13  9  1  0  0  0  0
 14  2  1  0  0  0  0
 15 28  2  0  0  0  0
 17 13  1  0  0  0  0
 19 18  1  1  0  0  0
 19  5  1  0  0  0  0
 20 16  1  6  0  0  0
 20 15  1  0  0  0  0
 21  7  1  0  0  0  0
 22  6  1  0  0  0  0
 23 28  1  0  0  0  0
 23 30  1  0  0  0  0
 25 19  1  0  0  0  0
 27  1  1  6  0  0  0
 27 21  1  0  0  0  0
 27 25  1  0  0  0  0
 29 35  2  0  0  0  0
 30 29  1  0  0  0  0
 31 30  2  0  0  0  0
 31 34  1  0  0  0  0
 32 34  2  0  0  0  0
 33 35  1  0  0  0  0
 34 33  1  0  0  0  0
 37 36  1  0  0  0  0
 37  4  1  0  0  0  0
M  END
>  <MODEL>
5

>  <REMARK>
 VINA RESULT:      -6.4      2.683      7.326
  Name = 
  2 active torsions:
  status: ('A' for Active; 'I' for Inactive)
    1  A    between atoms: N_4  and  C_37
    2  A    between atoms: C_23  and  C_30
                            x       y       z     vdW  Elec       q    Type
                         _______ _______ _______ _____ _____    ______ ____

>  <TORSDO>
F 2

$$$$
