=
 OpenBabel11122410313D

 30 35  0  0  1  0  0  0  0  0999 V2000
  187.7860  177.6960  142.9370 C   0  0  0  0  0  0  0  0  0  0  0  0
  188.9670  177.0670  145.0960 C   0  0  0  0  0  0  0  0  0  0  0  0
  184.4470  179.0430  145.1090 N   0  0  0  0  0  2  0  0  0  0  0  0
  186.6320  178.2620  142.3090 C   0  0  0  0  0  0  0  0  0  0  0  0
  188.8690  177.0810  142.0880 C   0  0  0  0  0  2  0  0  0  0  0  0
  188.1640  178.9920  138.7840 O   0  0  0  0  0  0  0  0  0  0  0  0
  184.1740  177.5650  140.8270 C   0  0  1  0  0  3  0  0  0  0  0  0
  187.8540  177.8920  139.7900 S   0  0  1  0  0  0  0  0  0  0  0  0
  183.4430  178.2270  141.9230 N   0  0  2  0  0  0  0  0  0  0  0  0
  183.5640  179.5590  144.0720 C   0  0  2  0  0  3  0  0  0  0  0  0
  189.2480  177.9370  140.9020 C   0  0  2  0  0  3  0  0  0  0  0  0
  186.5730  178.6250  140.8250 C   0  0  1  0  0  3  0  0  0  0  0  0
  188.9330  176.9940  146.4910 C   0  0  0  0  0  3  0  0  0  0  0  0
  182.3390  178.9060  141.2530 C   0  0  0  0  0  2  0  0  0  0  0  0
  183.1260  177.1370  139.8150 C   0  0  0  0  0  2  0  0  0  0  0  0
  190.2420  176.6120  144.4680 C   0  0  0  0  0  1  0  0  0  0  0  0
  185.6110  178.5420  144.4810 C   0  0  0  0  0  0  0  0  0  0  0  0
  187.8200  177.4230  147.2060 C   0  0  0  0  0  3  0  0  0  0  0  0
  187.8440  177.5830  144.3720 C   0  0  0  0  0  0  0  0  0  0  0  0
  185.5560  178.6470  143.1260 C   0  0  0  0  0  0  0  0  0  0  0  0
  182.1590  179.0100  144.2840 C   0  0  0  0  0  1  0  0  0  0  0  0
  184.2290  179.2120  142.7000 C   0  0  1  0  0  3  0  0  0  0  0  0
  181.9420  178.0450  140.0690 C   0  0  0  0  0  2  0  0  0  0  0  0
  184.9600  179.1050  139.1840 O   0  0  0  0  0  0  0  0  0  0  0  0
  186.7210  177.9380  146.5320 C   0  0  0  0  0  3  0  0  0  0  0  0
  186.7230  178.0250  145.1360 C   0  0  0  0  0  0  0  0  0  0  0  0
  185.2230  178.4560  140.1860 C   0  0  0  0  0  0  0  0  0  0  0  0
  190.4650  177.3520  140.2080 C   0  0  0  0  0  2  0  0  0  0  0  0
  192.8380  177.4500  140.3220 O   0  0  0  0  0  1  0  0  0  0  0  0
  191.6850  177.4570  141.1040 C   0  0  0  0  0  2  0  0  0  0  0  0
  1 19  1  0  0  0  0
  2 13  1  0  0  0  0
  4  1  2  0  0  0  0
  4 20  1  0  0  0  0
  5  1  1  0  0  0  0
  7 15  1  6  0  0  0
  7  9  1  0  0  0  0
  8  6  2  6  0  0  0
  8 12  1  0  0  0  0
  8 11  1  0  0  0  0
  9 14  1  6  0  0  0
  9 22  1  0  0  0  0
 10 21  1  6  0  0  0
 10  3  1  0  0  0  0
 11 28  1  6  0  0  0
 11  5  1  0  0  0  0
 12 27  1  6  0  0  0
 12  4  1  0  0  0  0
 13 18  2  0  0  0  0
 15 23  1  0  0  0  0
 16  2  1  0  0  0  0
 17  3  1  0  0  0  0
 17 26  1  0  0  0  0
 19  2  2  0  0  0  0
 19 26  1  0  0  0  0
 20 17  2  0  0  0  0
 22 20  1  1  0  0  0
 22 10  1  0  0  0  0
 23 14  1  0  0  0  0
 24 27  2  0  0  0  0
 25 18  1  0  0  0  0
 26 25  2  0  0  0  0
 27  7  1  0  0  0  0
 28 30  1  0  0  0  0
 29 30  1  0  0  0  0
M  END
>  <MODEL>
1

>  <REMARK>
 VINA RESULT:     -10.5      0.000      0.000
  Name = 
  2 active torsions:
  status: ('A' for Active; 'I' for Inactive)
    1  A    between atoms: C_11  and  C_28
    2  A    between atoms: C_28  and  C_30
                            x       y       z     vdW  Elec       q    Type
                         _______ _______ _______ _____ _____    ______ ____

>  <TORSDO>
F 2

$$$$
=
 OpenBabel11122410313D

 30 35  0  0  1  0  0  0  0  0999 V2000
  186.1210  178.1270  142.6540 C   0  0  0  0  0  0  0  0  0  0  0  0
  186.9510  178.0160  145.0510 C   0  0  0  0  0  0  0  0  0  0  0  0
  182.2590  179.1110  143.9940 N   0  0  0  0  0  2  0  0  0  0  0  0
  185.0330  178.3840  141.7590 C   0  0  0  0  0  0  0  0  0  0  0  0
  187.4290  177.6160  142.1070 C   0  0  0  0  0  2  0  0  0  0  0  0
  187.0770  178.9140  138.4660 O   0  0  0  0  0  0  0  0  0  0  0  0
  183.0450  177.0590  140.0240 C   0  0  1  0  0  3  0  0  0  0  0  0
  186.7570  177.9170  139.5710 S   0  0  1  0  0  0  0  0  0  0  0  0
  182.0230  177.7130  140.8610 N   0  0  2  0  0  0  0  0  0  0  0  0
  181.5200  179.3150  142.7550 C   0  0  2  0  0  3  0  0  0  0  0  0
  187.8890  178.3630  140.8770 C   0  0  2  0  0  3  0  0  0  0  0  0
  185.2030  178.5320  140.2470 C   0  0  1  0  0  3  0  0  0  0  0  0
  186.6620  178.1230  146.4140 C   0  0  0  0  0  3  0  0  0  0  0  0
  180.9750  178.0830  139.9160 C   0  0  0  0  0  2  0  0  0  0  0  0
  182.2900  176.3160  138.9360 C   0  0  0  0  0  2  0  0  0  0  0  0
  188.3770  177.7250  144.7260 C   0  0  0  0  0  1  0  0  0  0  0  0
  183.5850  178.7560  143.6570 C   0  0  0  0  0  0  0  0  0  0  0  0
  185.3800  178.4300  146.8560 C   0  0  0  0  0  3  0  0  0  0  0  0
  185.9200  178.2170  144.0770 C   0  0  0  0  0  0  0  0  0  0  0  0
  183.7750  178.6690  142.3130 C   0  0  0  0  0  0  0  0  0  0  0  0
  180.2040  178.5500  142.8170 C   0  0  0  0  0  1  0  0  0  0  0  0
  182.4810  178.9190  141.5860 C   0  0  1  0  0  3  0  0  0  0  0  0
  180.9520  177.0160  138.8390 C   0  0  0  0  0  2  0  0  0  0  0  0
  183.8780  178.4870  138.3050 O   0  0  0  0  0  0  0  0  0  0  0  0
  184.3630  178.6410  145.9340 C   0  0  0  0  0  3  0  0  0  0  0  0
  184.6180  178.5420  144.5630 C   0  0  0  0  0  0  0  0  0  0  0  0
  184.0440  178.0350  139.4290 C   0  0  0  0  0  0  0  0  0  0  0  0
  189.2920  177.9260  140.4980 C   0  0  0  0  0  2  0  0  0  0  0  0
  190.4740  176.1360  141.5230 O   0  0  0  0  0  1  0  0  0  0  0  0
  190.0440  177.4460  141.7250 C   0  0  0  0  0  2  0  0  0  0  0  0
  1 19  1  0  0  0  0
  2 13  1  0  0  0  0
  4 20  1  0  0  0  0
  4  1  2  0  0  0  0
  5  1  1  0  0  0  0
  7 15  1  6  0  0  0
  7  9  1  0  0  0  0
  8  6  2  6  0  0  0
  8 12  1  0  0  0  0
  8 11  1  0  0  0  0
  9 14  1  6  0  0  0
  9 22  1  0  0  0  0
 10 21  1  1  0  0  0
 10  3  1  0  0  0  0
 11 28  1  6  0  0  0
 11  5  1  0  0  0  0
 12 27  1  6  0  0  0
 12  4  1  0  0  0  0
 13 18  2  0  0  0  0
 16  2  1  0  0  0  0
 17  3  1  0  0  0  0
 17 26  1  0  0  0  0
 19 26  1  0  0  0  0
 19  2  2  0  0  0  0
 20 17  2  0  0  0  0
 22 20  1  1  0  0  0
 22 10  1  0  0  0  0
 23 15  1  0  0  0  0
 23 14  1  0  0  0  0
 24 27  2  0  0  0  0
 25 18  1  0  0  0  0
 26 25  2  0  0  0  0
 27  7  1  0  0  0  0
 28 30  1  0  0  0  0
 29 30  1  0  0  0  0
M  END
>  <MODEL>
2

>  <REMARK>
 VINA RESULT:      -9.3      1.377      1.991
  Name = 
  2 active torsions:
  status: ('A' for Active; 'I' for Inactive)
    1  A    between atoms: C_11  and  C_28
    2  A    between atoms: C_28  and  C_30
                            x       y       z     vdW  Elec       q    Type
                         _______ _______ _______ _____ _____    ______ ____

>  <TORSDO>
F 2

$$$$
=
 OpenBabel11122410313D

 30 35  0  0  1  0  0  0  0  0999 V2000
  186.2110  178.3430  141.8920 C   0  0  0  0  0  0  0  0  0  0  0  0
  183.7790  179.0030  142.2040 C   0  0  0  0  0  0  0  0  0  0  0  0
  186.5390  177.4610  145.9900 N   0  0  0  0  0  2  0  0  0  0  0  0
  187.4170  177.8460  142.4830 C   0  0  0  0  0  0  0  0  0  0  0  0
  186.2190  178.7960  140.4550 C   0  0  0  0  0  2  0  0  0  0  0  0
  189.2720  176.7420  139.2200 O   0  0  0  0  0  0  0  0  0  0  0  0
  190.0890  178.6680  143.4340 C   0  0  1  0  0  3  0  0  0  0  0  0
  188.6610  177.9310  139.9490 S   0  0  1  0  0  0  0  0  0  0  0  0
  189.6720  178.1510  144.7500 N   0  0  2  0  0  0  0  0  0  0  0  0
  187.9020  176.9610  146.1140 C   0  0  2  0  0  3  0  0  0  0  0  0
  186.9290  177.8320  139.5340 C   0  0  2  0  0  3  0  0  0  0  0  0
  188.6280  177.3920  141.6690 C   0  0  1  0  0  3  0  0  0  0  0  0
  182.6950  179.1710  143.0710 C   0  0  0  0  0  3  0  0  0  0  0  0
  190.8790  177.5350  145.2880 C   0  0  0  0  0  2  0  0  0  0  0  0
  191.5290  179.1220  143.5930 C   0  0  0  0  0  2  0  0  0  0  0  0
  183.4940  179.2940  140.7690 C   0  0  0  0  0  1  0  0  0  0  0  0
  186.3220  177.8080  144.6370 C   0  0  0  0  0  0  0  0  0  0  0  0
  182.8110  178.8970  144.4290 C   0  0  0  0  0  3  0  0  0  0  0  0
  185.0400  178.5460  142.7060 C   0  0  0  0  0  0  0  0  0  0  0  0
  187.4290  177.6180  143.8690 C   0  0  0  0  0  0  0  0  0  0  0  0
  188.5920  177.6510  147.2830 C   0  0  0  0  0  1  0  0  0  0  0  0
  188.5800  177.1520  144.7170 C   0  0  1  0  0  3  0  0  0  0  0  0
  192.0550  178.3470  144.7820 C   0  0  0  0  0  2  0  0  0  0  0  0
  190.9150  176.9550  141.9940 O   0  0  0  0  0  0  0  0  0  0  0  0
  184.0190  178.4420  144.9420 C   0  0  0  0  0  3  0  0  0  0  0  0
  185.1230  178.2620  144.1020 C   0  0  0  0  0  0  0  0  0  0  0  0
  189.9580  177.6420  142.3220 C   0  0  0  0  0  0  0  0  0  0  0  0
  186.7320  178.2530  138.0890 C   0  0  0  0  0  2  0  0  0  0  0  0
  186.7570  176.0460  137.2050 O   0  0  0  0  0  1  0  0  0  0  0  0
  185.9670  177.1870  137.3280 C   0  0  0  0  0  2  0  0  0  0  0  0
  1  4  2  0  0  0  0
  1 19  1  0  0  0  0
  2 19  2  0  0  0  0
  2 13  1  0  0  0  0
  3 10  1  0  0  0  0
  4 20  1  0  0  0  0
  5  1  1  0  0  0  0
  7 15  1  1  0  0  0
  7  9  1  0  0  0  0
  8  6  2  6  0  0  0
  8 12  1  0  0  0  0
  9 14  1  6  0  0  0
 10 21  1  1  0  0  0
 11 28  1  6  0  0  0
 11  8  1  0  0  0  0
 11  5  1  0  0  0  0
 12 27  1  1  0  0  0
 12  4  1  0  0  0  0
 13 18  2  0  0  0  0
 15 23  1  0  0  0  0
 16  2  1  0  0  0  0
 17  3  1  0  0  0  0
 18 25  1  0  0  0  0
 19 26  1  0  0  0  0
 20 17  2  0  0  0  0
 22 20  1  6  0  0  0
 22  9  1  0  0  0  0
 22 10  1  0  0  0  0
 23 14  1  0  0  0  0
 24 27  2  0  0  0  0
 26 17  1  0  0  0  0
 26 25  2  0  0  0  0
 27  7  1  0  0  0  0
 29 30  1  0  0  0  0
 30 28  1  0  0  0  0
M  END
>  <MODEL>
3

>  <REMARK>
 VINA RESULT:      -9.2      1.986      5.678
  Name = 
  2 active torsions:
  status: ('A' for Active; 'I' for Inactive)
    1  A    between atoms: C_11  and  C_28
    2  A    between atoms: C_28  and  C_30
                            x       y       z     vdW  Elec       q    Type
                         _______ _______ _______ _____ _____    ______ ____

>  <TORSDO>
F 2

$$$$
=
 OpenBabel11122410313D

 30 35  0  0  1  0  0  0  0  0999 V2000
  186.7170  178.1380  141.3150 C   0  0  0  0  0  0  0  0  0  0  0  0
  184.3130  178.9160  141.0610 C   0  0  0  0  0  0  0  0  0  0  0  0
  186.1430  177.5760  145.4420 N   0  0  0  0  0  2  0  0  0  0  0  0
  187.7460  177.6430  142.1790 C   0  0  0  0  0  0  0  0  0  0  0  0
  187.0460  178.4720  139.8830 C   0  0  0  0  0  2  0  0  0  0  0  0
  190.1700  176.2060  139.4650 O   0  0  0  0  0  0  0  0  0  0  0  0
  190.2050  178.4320  143.6090 C   0  0  1  0  0  3  0  0  0  0  0  0
  189.4890  177.4740  139.9640 S   0  0  1  0  0  0  0  0  0  0  0  0
  189.4970  178.0400  144.8410 N   0  0  2  0  0  0  0  0  0  0  0  0
  187.4210  177.0350  145.8840 C   0  0  2  0  0  3  0  0  0  0  0  0
  187.8770  177.4100  139.2020 C   0  0  2  0  0  3  0  0  0  0  0  0
  189.0710  177.0760  141.6720 C   0  0  1  0  0  3  0  0  0  0  0  0
  183.0850  179.1960  141.6670 C   0  0  0  0  0  3  0  0  0  0  0  0
  190.5320  177.4220  145.6630 C   0  0  0  0  0  2  0  0  0  0  0  0
  191.6040  178.8410  144.0350 C   0  0  0  0  0  2  0  0  0  0  0  0
  184.3470  179.1010  139.5810 C   0  0  0  0  0  1  0  0  0  0  0  0
  186.2300  177.8210  144.0520 C   0  0  0  0  0  0  0  0  0  0  0  0
  182.9030  179.0280  143.0350 C   0  0  0  0  0  3  0  0  0  0  0  0
  185.4160  178.4510  141.8480 C   0  0  0  0  0  0  0  0  0  0  0  0
  187.4590  177.5270  143.5490 C   0  0  0  0  0  0  0  0  0  0  0  0
  187.8920  177.7890  147.1210 C   0  0  0  0  0  1  0  0  0  0  0  0
  188.3820  177.0850  144.6510 C   0  0  1  0  0  3  0  0  0  0  0  0
  191.8300  178.1430  145.3600 C   0  0  0  0  0  2  0  0  0  0  0  0
  191.2150  176.5770  142.5000 O   0  0  0  0  0  0  0  0  0  0  0  0
  183.9520  178.5690  143.8210 C   0  0  0  0  0  3  0  0  0  0  0  0
  185.1930  178.2780  143.2470 C   0  0  0  0  0  0  0  0  0  0  0  0
  190.2500  177.3260  142.5700 C   0  0  0  0  0  0  0  0  0  0  0  0
  188.0060  177.7200  137.7220 C   0  0  0  0  0  2  0  0  0  0  0  0
  188.8340  179.9210  137.3680 O   0  0  0  0  0  1  0  0  0  0  0  0
  189.2250  178.5870  137.4690 C   0  0  0  0  0  2  0  0  0  0  0  0
  1 19  2  0  0  0  0
  1  4  1  0  0  0  0
  2 13  2  0  0  0  0
  2 19  1  0  0  0  0
  3 10  1  0  0  0  0
  4 20  2  0  0  0  0
  5  1  1  0  0  0  0
  7 15  1  1  0  0  0
  7  9  1  0  0  0  0
  8  6  2  6  0  0  0
  8 12  1  0  0  0  0
  9 14  1  1  0  0  0
 10 21  1  1  0  0  0
 11 28  1  6  0  0  0
 11  5  1  0  0  0  0
 11  8  1  0  0  0  0
 12  4  1  1  0  0  0
 12 27  1  0  0  0  0
 13 18  1  0  0  0  0
 15 23  1  0  0  0  0
 16  2  1  0  0  0  0
 17  3  1  0  0  0  0
 18 25  2  0  0  0  0
 19 26  1  0  0  0  0
 20 17  1  0  0  0  0
 22 20  1  6  0  0  0
 22  9  1  0  0  0  0
 22 10  1  0  0  0  0
 23 14  1  0  0  0  0
 24 27  2  0  0  0  0
 26 25  1  0  0  0  0
 26 17  2  0  0  0  0
 27  7  1  0  0  0  0
 29 30  1  0  0  0  0
 30 28  1  0  0  0  0
M  END
>  <MODEL>
4

>  <REMARK>
 VINA RESULT:      -9.2      1.995      5.615
  Name = 
  2 active torsions:
  status: ('A' for Active; 'I' for Inactive)
    1  A    between atoms: C_11  and  C_28
    2  A    between atoms: C_28  and  C_30
                            x       y       z     vdW  Elec       q    Type
                         _______ _______ _______ _____ _____    ______ ____

>  <TORSDO>
F 2

$$$$
=
 OpenBabel11122410313D

 30 35  0  0  1  0  0  0  0  0999 V2000
  187.9360  177.7100  142.4690 C   0  0  0  0  0  0  0  0  0  0  0  0
  186.7500  177.8630  144.7090 C   0  0  0  0  0  0  0  0  0  0  0  0
  184.5380  179.2350  140.5190 N   0  0  0  0  0  2  0  0  0  0  0  0
  187.8920  177.9390  141.0560 C   0  0  0  0  0  0  0  0  0  0  0  0
  189.1240  177.0060  143.0710 C   0  0  0  0  0  2  0  0  0  0  0  0
  191.7290  177.8000  140.3050 O   0  0  0  0  0  0  0  0  0  0  0  0
  187.5800  176.5740  138.4570 C   0  0  1  0  0  3  0  0  0  0  0  0
  190.5490  177.0050  140.8480 S   0  0  1  0  0  0  0  0  0  0  0  0
  186.4000  177.4350  138.2570 N   0  0  2  0  0  0  0  0  0  0  0  0
  184.9670  179.3300  139.1300 C   0  0  2  0  0  3  0  0  0  0  0  0
  190.4460  177.5230  142.5520 C   0  0  2  0  0  3  0  0  0  0  0  0
  189.1200  177.8540  140.1500 C   0  0  1  0  0  3  0  0  0  0  0  0
  185.5920  178.1890  145.4200 C   0  0  0  0  0  3  0  0  0  0  0  0
  186.4370  177.7640  136.8360 C   0  0  0  0  0  2  0  0  0  0  0  0
  187.7310  175.7590  137.1840 C   0  0  0  0  0  2  0  0  0  0  0  0
  187.8950  177.3960  145.5430 C   0  0  0  0  0  1  0  0  0  0  0  0
  185.6130  178.7120  141.2730 C   0  0  0  0  0  0  0  0  0  0  0  0
  184.4620  178.6750  144.7710 C   0  0  0  0  0  3  0  0  0  0  0  0
  186.7910  178.0200  143.2860 C   0  0  0  0  0  0  0  0  0  0  0  0
  186.6940  178.4170  140.5020 C   0  0  0  0  0  0  0  0  0  0  0  0
  183.9080  178.7090  138.2280 C   0  0  0  0  0  1  0  0  0  0  0  0
  186.3890  178.6830  139.0530 C   0  0  1  0  0  3  0  0  0  0  0  0
  187.0180  176.5620  136.1170 C   0  0  0  0  0  2  0  0  0  0  0  0
  189.6200  177.6590  137.8610 O   0  0  0  0  0  0  0  0  0  0  0  0
  184.4780  178.8480  143.3930 C   0  0  0  0  0  3  0  0  0  0  0  0
  185.6200  178.5320  142.6510 C   0  0  0  0  0  0  0  0  0  0  0  0
  188.8450  177.3580  138.7580 C   0  0  0  0  0  0  0  0  0  0  0  0
  191.5890  176.9070  143.3370 C   0  0  0  0  0  2  0  0  0  0  0  0
  191.5970  176.3480  145.6480 O   0  0  0  0  0  1  0  0  0  0  0  0
  191.5910  177.4240  144.7630 C   0  0  0  0  0  2  0  0  0  0  0  0
  1  5  1  0  0  0  0
  1 19  1  0  0  0  0
  2 13  1  0  0  0  0
  2 16  1  0  0  0  0
  3 17  1  0  0  0  0
  4  1  2  0  0  0  0
  7 15  1  6  0  0  0
  7 27  1  0  0  0  0
  8  6  2  6  0  0  0
  8 11  1  0  0  0  0
  9 14  1  6  0  0  0
  9  7  1  0  0  0  0
  9 22  1  0  0  0  0
 10 21  1  6  0  0  0
 10  3  1  0  0  0  0
 11  5  1  0  0  0  0
 11 28  1  1  0  0  0
 12 27  1  6  0  0  0
 12  8  1  0  0  0  0
 12  4  1  0  0  0  0
 17 26  1  0  0  0  0
 18 13  2  0  0  0  0
 19  2  2  0  0  0  0
 20  4  1  0  0  0  0
 20 17  2  0  0  0  0
 22 10  1  0  0  0  0
 22 20  1  1  0  0  0
 23 14  1  0  0  0  0
 23 15  1  0  0  0  0
 24 27  2  0  0  0  0
 25 18  1  0  0  0  0
 26 19  1  0  0  0  0
 26 25  2  0  0  0  0
 28 30  1  0  0  0  0
 30 29  1  0  0  0  0
M  END
>  <MODEL>
5

>  <REMARK>
 VINA RESULT:      -9.1      2.411      4.031
  Name = 
  2 active torsions:
  status: ('A' for Active; 'I' for Inactive)
    1  A    between atoms: C_11  and  C_28
    2  A    between atoms: C_28  and  C_30
                            x       y       z     vdW  Elec       q    Type
                         _______ _______ _______ _____ _____    ______ ____

>  <TORSDO>
F 2

$$$$
=
 OpenBabel11122410313D

 30 35  0  0  1  0  0  0  0  0999 V2000
  187.8250  177.8010  142.4970 C   0  0  0  0  0  0  0  0  0  0  0  0
  185.5760  178.0870  143.6410 C   0  0  0  0  0  0  0  0  0  0  0  0
  186.1130  178.8070  138.7910 N   0  0  0  0  0  2  0  0  0  0  0  0
  188.5860  177.8720  141.2870 C   0  0  0  0  0  0  0  0  0  0  0  0
  188.4700  177.2700  143.7510 C   0  0  0  0  0  2  0  0  0  0  0  0
  192.1740  177.9890  142.8420 O   0  0  0  0  0  0  0  0  0  0  0  0
  189.8180  176.2160  139.1760 C   0  0  1  0  0  3  0  0  0  0  0  0
  190.9030  177.1570  142.7340 S   0  0  1  0  0  0  0  0  0  0  0  0
  188.9500  176.9450  138.2340 N   0  0  2  0  0  0  0  0  0  0  0  0
  187.2530  178.7900  137.8840 C   0  0  2  0  0  3  0  0  0  0  0  0
  189.8470  177.8430  143.9970 C   0  0  2  0  0  3  0  0  0  0  0  0
  190.1120  177.7980  141.2470 C   0  0  1  0  0  3  0  0  0  0  0  0
  184.2150  178.3850  143.5280 C   0  0  0  0  0  3  0  0  0  0  0  0
  189.7820  177.1230  137.0490 C   0  0  0  0  0  2  0  0  0  0  0  0
  190.6730  175.2860  138.3330 C   0  0  0  0  0  2  0  0  0  0  0  0
  186.0520  177.8130  145.0280 C   0  0  0  0  0  1  0  0  0  0  0  0
  186.5770  178.4630  140.0810 C   0  0  0  0  0  0  0  0  0  0  0  0
  183.6470  178.7000  142.2990 C   0  0  0  0  0  3  0  0  0  0  0  0
  186.4150  178.0950  142.4800 C   0  0  0  0  0  0  0  0  0  0  0  0
  187.9080  178.1830  140.0970 C   0  0  0  0  0  0  0  0  0  0  0  0
  186.8990  177.9870  136.6390 C   0  0  0  0  0  1  0  0  0  0  0  0
  188.4750  178.2650  138.7060 C   0  0  1  0  0  3  0  0  0  0  0  0
  190.6820  175.9060  136.9520 C   0  0  0  0  0  2  0  0  0  0  0  0
  191.8240  177.4050  139.6830 O   0  0  0  0  0  0  0  0  0  0  0  0
  184.4390  178.7250  141.1580 C   0  0  0  0  0  3  0  0  0  0  0  0
  185.8040  178.4330  141.2360 C   0  0  0  0  0  0  0  0  0  0  0  0
  190.6810  177.1350  140.0240 C   0  0  0  0  0  0  0  0  0  0  0  0
  190.3510  177.4150  145.3630 C   0  0  0  0  0  2  0  0  0  0  0  0
  189.1190  176.6540  147.2490 O   0  0  0  0  0  1  0  0  0  0  0  0
  189.3340  177.7630  146.4340 C   0  0  0  0  0  2  0  0  0  0  0  0
  1  5  1  0  0  0  0
  2 16  1  0  0  0  0
  3 17  1  0  0  0  0
  4  1  2  0  0  0  0
  5 11  1  0  0  0  0
  7 15  1  6  0  0  0
  7 27  1  0  0  0  0
  8  6  2  1  0  0  0
  8 11  1  0  0  0  0
  9 14  1  6  0  0  0
  9 22  1  0  0  0  0
  9  7  1  0  0  0  0
 10 21  1  6  0  0  0
 10 22  1  0  0  0  0
 10  3  1  0  0  0  0
 11 28  1  1  0  0  0
 12 27  1  6  0  0  0
 12  4  1  0  0  0  0
 12  8  1  0  0  0  0
 13  2  1  0  0  0  0
 17 20  2  0  0  0  0
 17 26  1  0  0  0  0
 18 13  2  0  0  0  0
 19  1  1  0  0  0  0
 19  2  2  0  0  0  0
 20  4  1  0  0  0  0
 22 20  1  1  0  0  0
 23 14  1  0  0  0  0
 23 15  1  0  0  0  0
 24 27  2  0  0  0  0
 25 26  2  0  0  0  0
 25 18  1  0  0  0  0
 26 19  1  0  0  0  0
 28 30  1  0  0  0  0
 30 29  1  0  0  0  0
M  END
>  <MODEL>
6

>  <REMARK>
 VINA RESULT:      -9.0      2.781      5.814
  Name = 
  2 active torsions:
  status: ('A' for Active; 'I' for Inactive)
    1  A    between atoms: C_11  and  C_28
    2  A    between atoms: C_28  and  C_30
                            x       y       z     vdW  Elec       q    Type
                         _______ _______ _______ _____ _____    ______ ____

>  <TORSDO>
F 2

$$$$
=
 OpenBabel11122410313D

 30 35  0  0  1  0  0  0  0  0999 V2000
  186.6530  178.0890  142.7100 C   0  0  0  0  0  0  0  0  0  0  0  0
  186.8660  177.8480  145.2290 C   0  0  0  0  0  0  0  0  0  0  0  0
  182.6120  179.1770  143.1140 N   0  0  0  0  0  2  0  0  0  0  0  0
  185.8270  178.4260  141.5910 C   0  0  0  0  0  0  0  0  0  0  0  0
  188.0390  177.5470  142.4740 C   0  0  0  0  0  2  0  0  0  0  0  0
  188.6310  179.0020  138.9250 O   0  0  0  0  0  0  0  0  0  0  0  0
  184.2860  177.2540  139.3610 C   0  0  1  0  0  3  0  0  0  0  0  0
  188.0200  177.9760  139.8690 S   0  0  1  0  0  0  0  0  0  0  0  0
  183.1100  177.9170  139.9540 N   0  0  2  0  0  0  0  0  0  0  0  0
  182.2060  179.4610  141.7450 C   0  0  2  0  0  3  0  0  0  0  0  0
  188.8100  178.3230  141.4310 C   0  0  2  0  0  3  0  0  0  0  0  0
  186.3660  178.6270  140.1750 C   0  0  1  0  0  3  0  0  0  0  0  0
  186.2550  177.9120  146.4840 C   0  0  0  0  0  3  0  0  0  0  0  0
  182.3380  178.3670  138.8010 C   0  0  0  0  0  2  0  0  0  0  0  0
  183.7990  176.5880  138.0860 C   0  0  0  0  0  2  0  0  0  0  0  0
  188.3190  177.5120  145.2480 C   0  0  0  0  0  1  0  0  0  0  0  0
  183.9690  178.7810  143.0950 C   0  0  0  0  0  0  0  0  0  0  0  0
  184.9130  178.2530  146.6140 C   0  0  0  0  0  3  0  0  0  0  0  0
  186.1120  178.1300  144.0440 C   0  0  0  0  0  0  0  0  0  0  0  0
  184.4800  178.7400  141.8350 C   0  0  0  0  0  0  0  0  0  0  0  0
  180.8930  178.7490  141.4470 C   0  0  0  0  0  1  0  0  0  0  0  0
  183.4120  179.0730  140.8280 C   0  0  1  0  0  3  0  0  0  0  0  0
  182.5470  177.3460  137.7000 C   0  0  0  0  0  2  0  0  0  0  0  0
  185.5580  178.7150  137.9690 O   0  0  0  0  0  0  0  0  0  0  0  0
  184.1610  178.5430  145.4840 C   0  0  0  0  0  3  0  0  0  0  0  0
  184.7410  178.4890  144.2130 C   0  0  0  0  0  0  0  0  0  0  0  0
  185.4290  178.2120  139.0760 C   0  0  0  0  0  0  0  0  0  0  0  0
  190.2490  177.8440  141.3850 C   0  0  0  0  0  2  0  0  0  0  0  0
  190.9880  178.8900  143.3880 O   0  0  0  0  0  1  0  0  0  0  0  0
  190.7850  177.6480  142.7910 C   0  0  0  0  0  2  0  0  0  0  0  0
  1 19  1  0  0  0  0
  2 16  1  0  0  0  0
  2 13  1  0  0  0  0
  4 20  1  0  0  0  0
  4  1  2  0  0  0  0
  5  1  1  0  0  0  0
  7 15  1  6  0  0  0
  7  9  1  0  0  0  0
  8  6  2  6  0  0  0
  8 12  1  0  0  0  0
  8 11  1  0  0  0  0
  9 14  1  6  0  0  0
  9 22  1  0  0  0  0
 10 21  1  6  0  0  0
 10  3  1  0  0  0  0
 11 28  1  6  0  0  0
 11  5  1  0  0  0  0
 12 27  1  6  0  0  0
 12  4  1  0  0  0  0
 13 18  2  0  0  0  0
 17  3  1  0  0  0  0
 17 26  1  0  0  0  0
 19 26  1  0  0  0  0
 19  2  2  0  0  0  0
 20 17  2  0  0  0  0
 22 10  1  0  0  0  0
 22 20  1  1  0  0  0
 23 15  1  0  0  0  0
 23 14  1  0  0  0  0
 24 27  2  0  0  0  0
 25 18  1  0  0  0  0
 26 25  2  0  0  0  0
 27  7  1  0  0  0  0
 28 30  1  0  0  0  0
 30 29  1  0  0  0  0
M  END
>  <MODEL>
7

>  <REMARK>
 VINA RESULT:      -8.7      1.439      2.095
  Name = 
  2 active torsions:
  status: ('A' for Active; 'I' for Inactive)
    1  A    between atoms: C_11  and  C_28
    2  A    between atoms: C_28  and  C_30
                            x       y       z     vdW  Elec       q    Type
                         _______ _______ _______ _____ _____    ______ ____

>  <TORSDO>
F 2

$$$$
=
 OpenBabel11122410313D

 30 35  0  0  1  0  0  0  0  0999 V2000
  186.5430  178.3070  144.5570 C   0  0  0  0  0  0  0  0  0  0  0  0
  186.8280  178.5020  147.0730 C   0  0  0  0  0  0  0  0  0  0  0  0
  190.2220  176.2950  144.2550 N   0  0  0  0  0  2  0  0  0  0  0  0
  187.0620  177.8280  143.3120 C   0  0  0  0  0  0  0  0  0  0  0  0
  185.3040  179.1650  144.5640 C   0  0  0  0  0  2  0  0  0  0  0  0
  183.7870  178.0150  141.1820 O   0  0  0  0  0  0  0  0  0  0  0  0
  188.4300  178.6870  140.8410 C   0  0  1  0  0  3  0  0  0  0  0  0
  184.7750  178.8360  141.9980 S   0  0  1  0  0  0  0  0  0  0  0  0
  189.5010  177.7490  141.2230 N   0  0  2  0  0  0  0  0  0  0  0  0
  190.3090  175.9740  142.8370 C   0  0  2  0  0  3  0  0  0  0  0  0
  184.2060  178.6280  143.6760 C   0  0  2  0  0  3  0  0  0  0  0  0
  186.2560  177.8080  142.0140 C   0  0  1  0  0  3  0  0  0  0  0  0
  187.6120  178.2530  148.2020 C   0  0  0  0  0  3  0  0  0  0  0  0
  189.9360  177.1720  139.9560 C   0  0  0  0  0  2  0  0  0  0  0  0
  188.8350  179.2680  139.4970 C   0  0  0  0  0  2  0  0  0  0  0  0
  185.5190  179.1660  147.3430 C   0  0  0  0  0  1  0  0  0  0  0  0
  189.0140  176.9970  144.4700 C   0  0  0  0  0  0  0  0  0  0  0  0
  188.8370  177.6040  148.0980 C   0  0  0  0  0  3  0  0  0  0  0  0
  187.2790  178.0940  145.7760 C   0  0  0  0  0  0  0  0  0  0  0  0
  188.3190  177.2000  143.3190 C   0  0  0  0  0  0  0  0  0  0  0  0
  191.6820  176.3710  142.3100 C   0  0  0  0  0  1  0  0  0  0  0  0
  189.0890  176.6640  142.1430 C   0  0  1  0  0  3  0  0  0  0  0  0
  189.7880  178.2530  138.9020 C   0  0  0  0  0  2  0  0  0  0  0  0
  186.6310  177.6140  139.7010 O   0  0  0  0  0  0  0  0  0  0  0  0
  189.2960  177.1870  146.8550 C   0  0  0  0  0  3  0  0  0  0  0  0
  188.5350  177.4200  145.7050 C   0  0  0  0  0  0  0  0  0  0  0  0
  187.0620  178.0330  140.7660 C   0  0  0  0  0  0  0  0  0  0  0  0
  182.9340  179.4300  143.8800 C   0  0  0  0  0  2  0  0  0  0  0  0
  180.8490  178.7920  142.9320 O   0  0  0  0  0  1  0  0  0  0  0  0
  181.7350  178.5050  143.9680 C   0  0  0  0  0  2  0  0  0  0  0  0
  1  5  1  0  0  0  0
  1 19  1  0  0  0  0
  2 16  1  0  0  0  0
  2 13  1  0  0  0  0
  3 17  1  0  0  0  0
  4 20  1  0  0  0  0
  4  1  2  0  0  0  0
  7 15  1  6  0  0  0
  7  9  1  0  0  0  0
  8  6  2  6  0  0  0
  8 12  1  0  0  0  0
  8 11  1  0  0  0  0
  9 14  1  6  0  0  0
  9 22  1  0  0  0  0
 10 21  1  6  0  0  0
 10  3  1  0  0  0  0
 11 28  1  6  0  0  0
 11  5  1  0  0  0  0
 12 27  1  6  0  0  0
 12  4  1  0  0  0  0
 17 26  1  0  0  0  0
 18 13  2  0  0  0  0
 19  2  2  0  0  0  0
 20 17  2  0  0  0  0
 22 10  1  0  0  0  0
 22 20  1  1  0  0  0
 23 15  1  0  0  0  0
 23 14  1  0  0  0  0
 24 27  2  0  0  0  0
 25 18  1  0  0  0  0
 26 19  1  0  0  0  0
 26 25  2  0  0  0  0
 27  7  1  0  0  0  0
 28 30  1  0  0  0  0
 29 30  1  0  0  0  0
M  END
>  <MODEL>
8

>  <REMARK>
 VINA RESULT:      -8.3      2.640      5.763
  Name = 
  2 active torsions:
  status: ('A' for Active; 'I' for Inactive)
    1  A    between atoms: C_11  and  C_28
    2  A    between atoms: C_28  and  C_30
                            x       y       z     vdW  Elec       q    Type
                         _______ _______ _______ _____ _____    ______ ____

>  <TORSDO>
F 2

$$$$
=
 OpenBabel11122410313D

 30 35  0  0  1  0  0  0  0  0999 V2000
  188.9440  177.4150  139.2250 C   0  0  0  0  0  0  0  0  0  0  0  0
  190.6620  176.6000  137.5410 C   0  0  0  0  0  0  0  0  0  0  0  0
  191.9270  177.7390  142.1710 N   0  0  0  0  0  2  0  0  0  0  0  0
  188.6750  177.8850  140.5500 C   0  0  0  0  0  0  0  0  0  0  0  0
  187.8000  177.1660  138.2770 C   0  0  0  0  0  2  0  0  0  0  0  0
  185.1790  179.5190  139.9090 O   0  0  0  0  0  0  0  0  0  0  0  0
  187.5480  177.0730  143.1550 C   0  0  1  0  0  3  0  0  0  0  0  0
  185.9580  178.2120  139.8540 S   0  0  1  0  0  0  0  0  0  0  0  0
  188.8750  177.3820  143.7160 N   0  0  2  0  0  0  0  0  0  0  0  0
  191.2060  178.2830  143.3140 C   0  0  2  0  0  3  0  0  0  0  0  0
  186.7810  178.2820  138.2730 C   0  0  2  0  0  3  0  0  0  0  0  0
  187.3440  178.5060  140.9690 C   0  0  1  0  0  3  0  0  0  0  0  0
  191.9900  176.2600  137.2680 C   0  0  0  0  0  3  0  0  0  0  0  0
  188.5820  177.9760  145.0150 C   0  0  0  0  0  2  0  0  0  0  0  0
  186.6740  176.6720  144.3300 C   0  0  0  0  0  2  0  0  0  0  0  0
  189.7300  176.4960  136.3810 C   0  0  0  0  0  1  0  0  0  0  0  0
  191.0050  177.5720  141.1130 C   0  0  0  0  0  0  0  0  0  0  0  0
  192.9710  176.3500  138.2490 C   0  0  0  0  0  3  0  0  0  0  0  0
  190.2850  177.0450  138.8490 C   0  0  0  0  0  0  0  0  0  0  0  0
  189.7380  177.9200  141.4670 C   0  0  0  0  0  0  0  0  0  0  0  0
  191.5430  177.4730  144.5590 C   0  0  0  0  0  1  0  0  0  0  0  0
  189.6940  178.3210  142.9170 C   0  0  1  0  0  3  0  0  0  0  0  0
  187.3300  177.3010  145.5410 C   0  0  0  0  0  2  0  0  0  0  0  0
  186.1670  179.0070  142.9430 O   0  0  0  0  0  0  0  0  0  0  0  0
  192.6360  176.7890  139.5240 C   0  0  0  0  0  3  0  0  0  0  0  0
  191.3170  177.1370  139.8300 C   0  0  0  0  0  0  0  0  0  0  0  0
  186.9380  178.2340  142.3910 C   0  0  0  0  0  0  0  0  0  0  0  0
  185.7670  178.0550  137.1660 C   0  0  0  0  0  2  0  0  0  0  0  0
  184.5970  175.9850  137.1430 O   0  0  0  0  0  1  0  0  0  0  0  0
  185.7770  176.6020  136.7310 C   0  0  0  0  0  2  0  0  0  0  0  0
  1  4  1  0  0  0  0
  2 19  1  0  0  0  0
  3 10  1  0  0  0  0
  4 20  2  0  0  0  0
  5  1  1  0  0  0  0
  7  9  1  0  0  0  0
  7 15  1  1  0  0  0
  8  6  2  6  0  0  0
  8 12  1  0  0  0  0
  9 14  1  1  0  0  0
 10 21  1  1  0  0  0
 11 28  1  6  0  0  0
 11  5  1  0  0  0  0
 11  8  1  0  0  0  0
 12  4  1  6  0  0  0
 12 27  1  0  0  0  0
 13  2  2  0  0  0  0
 13 18  1  0  0  0  0
 14 23  1  0  0  0  0
 15 23  1  0  0  0  0
 16  2  1  0  0  0  0
 17 20  1  0  0  0  0
 17  3  1  0  0  0  0
 18 25  2  0  0  0  0
 19  1  2  0  0  0  0
 19 26  1  0  0  0  0
 22 20  1  6  0  0  0
 22 10  1  0  0  0  0
 22  9  1  0  0  0  0
 25 26  1  0  0  0  0
 26 17  2  0  0  0  0
 27 24  2  0  0  0  0
 27  7  1  0  0  0  0
 30 29  1  0  0  0  0
 30 28  1  0  0  0  0
M  END
>  <MODEL>
9

>  <REMARK>
 VINA RESULT:      -8.0      3.049      6.493
  Name = 
  2 active torsions:
  status: ('A' for Active; 'I' for Inactive)
    1  A    between atoms: C_11  and  C_28
    2  A    between atoms: C_28  and  C_30
                            x       y       z     vdW  Elec       q    Type
                         _______ _______ _______ _____ _____    ______ ____

>  <TORSDO>
F 2

$$$$
