=
 OpenBabel11122410273D

 30 34  0  0  1  0  0  0  0  0999 V2000
  186.9160  178.1400  142.7620 C   0  0  0  0  0  0  0  0  0  0  0  0
  184.5280  178.8960  142.6230 C   0  0  0  0  0  0  0  0  0  0  0  0
  186.6500  177.7970  146.9440 N   0  0  0  0  0  2  0  0  0  0  0  0
  188.0090  177.6850  143.5580 C   0  0  0  0  0  0  0  0  0  0  0  0
  187.1150  178.3030  141.3870 C   0  0  0  0  0  3  0  0  0  0  0  0
  190.6510  177.3780  140.9540 O   0  0  0  0  0  1  0  0  0  0  0  0
  190.8770  177.4690  145.0830 C   0  0  2  0  0  3  0  0  0  0  0  0
  189.4230  177.6090  141.5700 C   0  0  0  0  0  0  0  0  0  0  0  0
  189.8560  178.0640  145.8610 O   0  0  0  0  0  0  0  0  0  0  0  0
  187.9930  177.3990  147.2000 C   0  0  0  0  0  0  0  0  0  0  0  0
  188.3430  178.0400  140.7910 C   0  0  0  0  0  0  0  0  0  0  0  0
  189.2760  177.4220  142.9610 C   0  0  0  0  0  0  0  0  0  0  0  0
  183.3310  179.2060  143.2740 C   0  0  0  0  0  3  0  0  0  0  0  0
  184.5660  179.0450  141.2760 F   0  0  0  0  0  0  0  0  0  0  0  0
  186.5940  177.8620  145.5260 C   0  0  0  0  0  0  0  0  0  0  0  0
  183.2180  179.0800  144.6570 C   0  0  0  0  0  3  0  0  0  0  0  0
  185.6530  178.4420  143.3660 C   0  0  0  0  0  0  0  0  0  0  0  0
  187.7870  177.5200  144.9310 C   0  0  0  0  0  0  0  0  0  0  0  0
  188.4440  177.2490  148.3640 O   0  0  0  0  0  0  0  0  0  0  0  0
  188.7930  177.1560  145.9610 C   0  0  1  0  0  3  0  0  0  0  0  0
  191.1440  175.9840  143.2210 O   0  0  0  0  0  0  0  0  0  0  0  0
  184.3040  178.6340  145.4050 C   0  0  0  0  0  3  0  0  0  0  0  0
  185.5100  178.3100  144.7760 C   0  0  0  0  0  0  0  0  0  0  0  0
  190.4400  176.8950  143.7380 C   0  0  0  0  0  0  0  0  0  0  0  0
  192.5580  175.6400  148.0110 C   0  0  0  0  0  1  0  0  0  0  0  0
  191.6880  176.4990  145.8970 C   0  0  0  0  0  3  0  0  0  0  0  0
  191.7500  176.6100  147.2210 C   0  0  0  0  0  3  0  0  0  0  0  0
  188.4920  178.2550  139.3180 C   0  0  0  0  0  2  0  0  0  0  0  0
  187.2940  178.3940  137.1290 C   0  0  0  0  0  1  0  0  0  0  0  0
  187.1790  178.0010  138.5900 C   0  0  0  0  0  2  0  0  0  0  0  0
  1 17  2  0  0  0  0
  1  4  1  0  0  0  0
  2 13  2  0  0  0  0
  2 17  1  0  0  0  0
  3 10  1  0  0  0  0
  4 18  2  0  0  0  0
  5  1  1  0  0  0  0
  6  8  1  0  0  0  0
  7  9  1  0  0  0  0
  7 26  1  1  0  0  0
  8 12  2  0  0  0  0
  9 20  1  0  0  0  0
 10 19  2  0  0  0  0
 11  5  2  0  0  0  0
 11  8  1  0  0  0  0
 12  4  1  0  0  0  0
 12 24  1  0  0  0  0
 13 16  1  0  0  0  0
 14  2  1  0  0  0  0
 15  3  1  0  0  0  0
 16 22  2  0  0  0  0
 17 23  1  0  0  0  0
 18 15  1  0  0  0  0
 20 18  1  6  0  0  0
 20 10  1  0  0  0  0
 21 24  2  0  0  0  0
 23 22  1  0  0  0  0
 23 15  2  0  0  0  0
 24  7  1  0  0  0  0
 26 27  2  0  0  0  0
 27 25  1  0  0  0  0
 28 11  1  0  0  0  0
 29 30  1  0  0  0  0
 30 28  1  0  0  0  0
M  END
>  <MODEL>
1

>  <REMARK>
 VINA RESULT:     -11.8      0.000      0.000
  Name = 
  3 active torsions:
  status: ('A' for Active; 'I' for Inactive)
    1  A    between atoms: C_7  and  C_15
    2  A    between atoms: C_11  and  C_28
    3  A    between atoms: C_28  and  C_30
                            x       y       z     vdW  Elec       q    Type
                         _______ _______ _______ _____ _____    ______ ____

>  <TORSDO>
F 3

$$$$
=
 OpenBabel11122410273D

 30 34  0  0  1  0  0  0  0  0999 V2000
  187.3320  177.9400  144.3810 C   0  0  0  0  0  0  0  0  0  0  0  0
  185.0380  178.5060  145.2210 C   0  0  0  0  0  0  0  0  0  0  0  0
  186.1560  178.6980  140.4160 N   0  0  0  0  0  2  0  0  0  0  0  0
  188.2400  177.8310  143.2850 C   0  0  0  0  0  0  0  0  0  0  0  0
  187.7840  177.5910  145.6580 C   0  0  0  0  0  3  0  0  0  0  0  0
  191.2560  176.5360  145.0410 O   0  0  0  0  0  1  0  0  0  0  0  0
  190.2710  176.6660  141.0250 C   0  0  2  0  0  3  0  0  0  0  0  0
  189.9700  177.0160  144.8020 C   0  0  0  0  0  0  0  0  0  0  0  0
  188.9240  176.7410  140.6020 O   0  0  0  0  0  0  0  0  0  0  0  0
  187.3840  178.3700  139.7750 C   0  0  0  0  0  0  0  0  0  0  0  0
  189.0810  177.1390  145.8750 C   0  0  0  0  0  0  0  0  0  0  0  0
  189.5680  177.3610  143.4930 C   0  0  0  0  0  0  0  0  0  0  0  0
  183.7270  178.9050  144.9470 C   0  0  0  0  0  3  0  0  0  0  0  0
  185.3580  178.2540  146.5150 F   0  0  0  0  0  0  0  0  0  0  0  0
  186.4630  178.5590  141.7970 C   0  0  0  0  0  0  0  0  0  0  0  0
  183.3250  179.1800  143.6410 C   0  0  0  0  0  3  0  0  0  0  0  0
  185.9850  178.3770  144.1690 C   0  0  0  0  0  0  0  0  0  0  0  0
  187.7710  178.1930  142.0160 C   0  0  0  0  0  0  0  0  0  0  0  0
  187.5130  178.3580  138.5240 O   0  0  0  0  0  0  0  0  0  0  0  0
  188.4970  178.0700  140.7270 C   0  0  1  0  0  3  0  0  0  0  0  0
  191.7560  177.6530  142.6270 O   0  0  0  0  0  0  0  0  0  0  0  0
  184.2340  179.0630  142.5940 C   0  0  0  0  0  3  0  0  0  0  0  0
  185.5530  178.6720  142.8450 C   0  0  0  0  0  0  0  0  0  0  0  0
  190.5760  177.2750  142.3910 C   0  0  0  0  0  0  0  0  0  0  0  0
  192.5310  176.8130  137.9240 C   0  0  0  0  0  1  0  0  0  0  0  0
  191.2090  177.1430  139.9500 C   0  0  0  0  0  3  0  0  0  0  0  0
  191.6040  176.3230  138.9810 C   0  0  0  0  0  3  0  0  0  0  0  0
  189.4920  176.7650  147.2640 C   0  0  0  0  0  2  0  0  0  0  0  0
  188.0620  177.9390  148.9430 C   0  0  0  0  0  1  0  0  0  0  0  0
  189.3890  177.9540  148.2080 C   0  0  0  0  0  2  0  0  0  0  0  0
  1  5  1  0  0  0  0
  2 14  1  0  0  0  0
  3 15  1  0  0  0  0
  4 12  1  0  0  0  0
  4  1  2  0  0  0  0
  5 11  2  0  0  0  0
  7 26  1  6  0  0  0
  7 24  1  0  0  0  0
  8  6  1  0  0  0  0
  8 11  1  0  0  0  0
  9 20  1  0  0  0  0
  9  7  1  0  0  0  0
 10  3  1  0  0  0  0
 11 28  1  0  0  0  0
 12  8  2  0  0  0  0
 13  2  1  0  0  0  0
 15 18  2  0  0  0  0
 15 23  1  0  0  0  0
 16 13  2  0  0  0  0
 17  1  1  0  0  0  0
 17  2  2  0  0  0  0
 18  4  1  0  0  0  0
 19 10  2  0  0  0  0
 20 10  1  6  0  0  0
 20 18  1  0  0  0  0
 22 23  2  0  0  0  0
 22 16  1  0  0  0  0
 23 17  1  0  0  0  0
 24 21  2  0  0  0  0
 24 12  1  0  0  0  0
 25 27  1  0  0  0  0
 27 26  2  0  0  0  0
 28 30  1  0  0  0  0
 30 29  1  0  0  0  0
M  END
>  <MODEL>
2

>  <REMARK>
 VINA RESULT:     -11.7      2.309      5.617
  Name = 
  3 active torsions:
  status: ('A' for Active; 'I' for Inactive)
    1  A    between atoms: C_7  and  C_15
    2  A    between atoms: C_11  and  C_28
    3  A    between atoms: C_28  and  C_30
                            x       y       z     vdW  Elec       q    Type
                         _______ _______ _______ _____ _____    ______ ____

>  <TORSDO>
F 3

$$$$
=
 OpenBabel11122410273D

 30 34  0  0  1  0  0  0  0  0999 V2000
  189.0260  177.5350  143.5180 C   0  0  0  0  0  0  0  0  0  0  0  0
  190.9320  177.2380  141.9150 C   0  0  0  0  0  0  0  0  0  0  0  0
  186.4540  178.6400  140.3820 N   0  0  0  0  0  2  0  0  0  0  0  0
  187.6490  177.8400  143.7360 C   0  0  0  0  0  0  0  0  0  0  0  0
  189.8310  177.2560  144.6280 C   0  0  0  0  0  3  0  0  0  0  0  0
  187.4980  177.6330  147.4500 O   0  0  0  0  0  1  0  0  0  0  0  0
  184.8890  179.2750  144.6920 C   0  0  2  0  0  3  0  0  0  0  0  0
  187.9770  177.5920  146.1430 C   0  0  0  0  0  0  0  0  0  0  0  0
  185.3340  179.6810  143.4120 O   0  0  0  0  0  0  0  0  0  0  0  0
  185.2870  178.8940  141.1570 C   0  0  0  0  0  0  0  0  0  0  0  0
  189.3230  177.2780  145.9220 C   0  0  0  0  0  0  0  0  0  0  0  0
  187.1190  177.8750  145.0580 C   0  0  0  0  0  0  0  0  0  0  0  0
  191.4130  177.2880  140.6040 C   0  0  0  0  0  3  0  0  0  0  0  0
  191.8100  176.8960  142.8920 F   0  0  0  0  0  0  0  0  0  0  0  0
  187.3870  178.1670  141.3430 C   0  0  0  0  0  0  0  0  0  0  0  0
  190.5700  177.6340  139.5490 C   0  0  0  0  0  3  0  0  0  0  0  0
  189.5700  177.5360  142.1930 C   0  0  0  0  0  0  0  0  0  0  0  0
  186.8580  178.1090  142.6120 C   0  0  0  0  0  0  0  0  0  0  0  0
  184.2280  179.3520  140.6570 O   0  0  0  0  0  0  0  0  0  0  0  0
  185.4380  178.5420  142.6020 C   0  0  1  0  0  3  0  0  0  0  0  0
  185.0970  177.4380  146.2170 O   0  0  0  0  0  0  0  0  0  0  0  0
  189.2320  177.9270  139.7960 C   0  0  0  0  0  3  0  0  0  0  0  0
  188.7260  177.8760  141.0990 C   0  0  0  0  0  0  0  0  0  0  0  0
  185.6740  178.1390  145.3410 C   0  0  0  0  0  0  0  0  0  0  0  0
  181.2140  178.9510  143.6280 C   0  0  0  0  0  1  0  0  0  0  0  0
  183.4030  179.0410  144.7050 C   0  0  0  0  0  3  0  0  0  0  0  0
  182.6830  179.1880  143.5970 C   0  0  0  0  0  3  0  0  0  0  0  0
  190.2450  176.9890  147.0640 C   0  0  0  0  0  2  0  0  0  0  0  0
  192.3070  175.6500  147.5120 C   0  0  0  0  0  1  0  0  0  0  0  0
  191.6400  176.6340  146.5700 C   0  0  0  0  0  2  0  0  0  0  0  0
  1  4  1  0  0  0  0
  1  5  2  0  0  0  0
  2 17  1  0  0  0  0
  2 14  1  0  0  0  0
  3 10  1  0  0  0  0
  3 15  1  0  0  0  0
  4 12  2  0  0  0  0
  5 11  1  0  0  0  0
  7 26  1  6  0  0  0
  7 24  1  0  0  0  0
  8  6  1  0  0  0  0
  9  7  1  0  0  0  0
 11  8  2  0  0  0  0
 11 28  1  0  0  0  0
 12 24  1  0  0  0  0
 12  8  1  0  0  0  0
 13  2  2  0  0  0  0
 15 18  2  0  0  0  0
 16 22  2  0  0  0  0
 16 13  1  0  0  0  0
 17  1  1  0  0  0  0
 18  4  1  0  0  0  0
 19 10  2  0  0  0  0
 20 10  1  6  0  0  0
 20 18  1  0  0  0  0
 20  9  1  0  0  0  0
 22 23  1  0  0  0  0
 23 15  1  0  0  0  0
 23 17  2  0  0  0  0
 24 21  2  0  0  0  0
 27 25  1  0  0  0  0
 27 26  2  0  0  0  0
 30 28  1  0  0  0  0
 30 29  1  0  0  0  0
M  END
>  <MODEL>
3

>  <REMARK>
 VINA RESULT:     -11.1      2.748      7.044
  Name = 
  3 active torsions:
  status: ('A' for Active; 'I' for Inactive)
    1  A    between atoms: C_7  and  C_15
    2  A    between atoms: C_11  and  C_28
    3  A    between atoms: C_28  and  C_30
                            x       y       z     vdW  Elec       q    Type
                         _______ _______ _______ _____ _____    ______ ____

>  <TORSDO>
F 3

$$$$
=
 OpenBabel11122410273D

 30 34  0  0  1  0  0  0  0  0999 V2000
  189.1010  177.6070  143.3520 C   0  0  0  0  0  0  0  0  0  0  0  0
  191.1120  176.8560  144.6480 C   0  0  0  0  0  0  0  0  0  0  0  0
  186.8390  177.9160  146.8820 N   0  0  0  0  0  2  0  0  0  0  0  0
  187.7450  178.0540  143.3490 C   0  0  0  0  0  0  0  0  0  0  0  0
  189.7550  177.4560  142.1250 C   0  0  0  0  0  3  0  0  0  0  0  0
  187.1550  178.3790  139.6880 O   0  0  0  0  0  1  0  0  0  0  0  0
  184.5310  178.2530  142.8830 C   0  0  2  0  0  3  0  0  0  0  0  0
  187.7820  178.1440  140.9100 C   0  0  0  0  0  0  0  0  0  0  0  0
  184.8970  177.6530  144.1110 O   0  0  0  0  0  0  0  0  0  0  0  0
  185.6030  178.3100  146.2960 C   0  0  0  0  0  0  0  0  0  0  0  0
  189.1160  177.7210  140.9190 C   0  0  0  0  0  0  0  0  0  0  0  0
  187.0760  178.3200  142.1200 C   0  0  0  0  0  0  0  0  0  0  0  0
  191.6940  176.5420  145.8790 C   0  0  0  0  0  3  0  0  0  0  0  0
  191.8810  176.7190  143.5390 F   0  0  0  0  0  0  0  0  0  0  0  0
  187.7230  177.8630  145.7710 C   0  0  0  0  0  0  0  0  0  0  0  0
  190.9660  176.6570  147.0620 C   0  0  0  0  0  3  0  0  0  0  0  0
  189.7640  177.3020  144.5840 C   0  0  0  0  0  0  0  0  0  0  0  0
  187.1110  178.2070  144.5890 C   0  0  0  0  0  0  0  0  0  0  0  0
  184.5480  178.4490  146.9680 O   0  0  0  0  0  0  0  0  0  0  0  0
  185.6890  178.5610  144.8250 C   0  0  1  0  0  3  0  0  0  0  0  0
  185.4080  179.7530  141.2320 O   0  0  0  0  0  0  0  0  0  0  0  0
  189.6450  177.0950  147.0250 C   0  0  0  0  0  3  0  0  0  0  0  0
  189.0430  177.4220  145.8060 C   0  0  0  0  0  0  0  0  0  0  0  0
  185.6750  178.8390  142.0600 C   0  0  0  0  0  0  0  0  0  0  0  0
  181.0120  179.7530  143.2180 C   0  0  0  0  0  1  0  0  0  0  0  0
  183.3890  179.2150  143.0650 C   0  0  0  0  0  3  0  0  0  0  0  0
  182.1300  178.7860  143.0350 C   0  0  0  0  0  3  0  0  0  0  0  0
  189.8690  177.5190  139.6420 C   0  0  0  0  0  2  0  0  0  0  0  0
  191.9040  176.4010  138.7180 C   0  0  0  0  0  1  0  0  0  0  0  0
  191.3150  177.1270  139.9120 C   0  0  0  0  0  2  0  0  0  0  0  0
  1 17  1  0  0  0  0
  2 13  1  0  0  0  0
  4  1  1  0  0  0  0
  4 18  1  0  0  0  0
  5  1  2  0  0  0  0
  6  8  1  0  0  0  0
  7 26  1  1  0  0  0
  7  9  1  0  0  0  0
  8 11  2  0  0  0  0
  8 12  1  0  0  0  0
 10  3  1  0  0  0  0
 10 19  2  0  0  0  0
 11  5  1  0  0  0  0
 12  4  2  0  0  0  0
 13 16  2  0  0  0  0
 14  2  1  0  0  0  0
 15 23  1  0  0  0  0
 15  3  1  0  0  0  0
 17  2  2  0  0  0  0
 17 23  1  0  0  0  0
 18 20  1  0  0  0  0
 18 15  2  0  0  0  0
 20  9  1  6  0  0  0
 20 10  1  0  0  0  0
 21 24  2  0  0  0  0
 22 16  1  0  0  0  0
 23 22  2  0  0  0  0
 24 12  1  0  0  0  0
 24  7  1  0  0  0  0
 27 26  2  0  0  0  0
 27 25  1  0  0  0  0
 28 30  1  0  0  0  0
 28 11  1  0  0  0  0
 29 30  1  0  0  0  0
M  END
>  <MODEL>
4

>  <REMARK>
 VINA RESULT:     -11.1      2.602      5.760
  Name = 
  3 active torsions:
  status: ('A' for Active; 'I' for Inactive)
    1  A    between atoms: C_7  and  C_15
    2  A    between atoms: C_11  and  C_28
    3  A    between atoms: C_28  and  C_30
                            x       y       z     vdW  Elec       q    Type
                         _______ _______ _______ _____ _____    ______ ____

>  <TORSDO>
F 3

$$$$
=
 OpenBabel11122410273D

 30 34  0  0  1  0  0  0  0  0999 V2000
  188.4120  177.5950  144.4550 C   0  0  0  0  0  0  0  0  0  0  0  0
  186.8400  177.8310  146.3950 C   0  0  0  0  0  0  0  0  0  0  0  0
  185.4200  178.8390  141.7750 N   0  0  0  0  0  2  0  0  0  0  0  0
  188.6540  177.7310  143.0550 C   0  0  0  0  0  0  0  0  0  0  0  0
  189.4390  177.0980  145.2640 C   0  0  0  0  0  3  0  0  0  0  0  0
  192.1430  176.4470  142.8520 O   0  0  0  0  0  1  0  0  0  0  0  0
  189.2910  177.0970  139.9270 C   0  0  2  0  0  3  0  0  0  0  0  0
  190.9090  176.8460  143.3620 C   0  0  0  0  0  0  0  0  0  0  0  0
  187.9120  177.1200  140.2390 O   0  0  0  0  0  0  0  0  0  0  0  0
  186.1660  178.7170  140.5690 C   0  0  0  0  0  0  0  0  0  0  0  0
  190.6710  176.7300  144.7360 C   0  0  0  0  0  0  0  0  0  0  0  0
  189.9090  177.3490  142.5000 C   0  0  0  0  0  0  0  0  0  0  0  0
  185.5670  178.1530  146.8720 C   0  0  0  0  0  3  0  0  0  0  0  0
  187.7610  177.4150  147.3000 F   0  0  0  0  0  0  0  0  0  0  0  0
  186.3730  178.5200  142.7800 C   0  0  0  0  0  0  0  0  0  0  0  0
  184.5680  178.5860  146.0020 C   0  0  0  0  0  3  0  0  0  0  0  0
  187.1380  177.9420  145.0100 C   0  0  0  0  0  0  0  0  0  0  0  0
  187.6160  178.2380  142.2630 C   0  0  0  0  0  0  0  0  0  0  0  0
  185.6560  178.9050  139.4350 O   0  0  0  0  0  0  0  0  0  0  0  0
  187.6050  178.3730  140.7850 C   0  0  1  0  0  3  0  0  0  0  0  0
  191.3770  177.9540  140.7390 O   0  0  0  0  0  0  0  0  0  0  0  0
  184.8360  178.7060  144.6410 C   0  0  0  0  0  3  0  0  0  0  0  0
  186.1050  178.3960  144.1410 C   0  0  0  0  0  0  0  0  0  0  0  0
  190.2350  177.5170  141.0500 C   0  0  0  0  0  0  0  0  0  0  0  0
  189.1530  178.2480  136.2660 C   0  0  0  0  0  1  0  0  0  0  0  0
  189.5700  177.8090  138.6320 C   0  0  0  0  0  3  0  0  0  0  0  0
  188.8640  177.5320  137.5400 C   0  0  0  0  0  3  0  0  0  0  0  0
  191.7190  176.1870  145.6560 C   0  0  0  0  0  2  0  0  0  0  0  0
  192.4150  175.8670  148.0350 C   0  0  0  0  0  1  0  0  0  0  0  0
  191.3260  176.3830  147.1130 C   0  0  0  0  0  2  0  0  0  0  0  0
  1 17  1  0  0  0  0
  1  5  1  0  0  0  0
  2 13  1  0  0  0  0
  2 14  1  0  0  0  0
  3 15  1  0  0  0  0
  4  1  2  0  0  0  0
  6  8  1  0  0  0  0
  7 26  1  6  0  0  0
  7  9  1  0  0  0  0
  7 24  1  0  0  0  0
  8 11  1  0  0  0  0
 10 20  1  0  0  0  0
 10  3  1  0  0  0  0
 11  5  2  0  0  0  0
 11 28  1  0  0  0  0
 12  4  1  0  0  0  0
 12  8  2  0  0  0  0
 15 23  1  0  0  0  0
 16 13  2  0  0  0  0
 17  2  2  0  0  0  0
 18 15  2  0  0  0  0
 18  4  1  0  0  0  0
 19 10  2  0  0  0  0
 20  9  1  6  0  0  0
 20 18  1  0  0  0  0
 21 24  2  0  0  0  0
 22 16  1  0  0  0  0
 23 22  2  0  0  0  0
 23 17  1  0  0  0  0
 24 12  1  0  0  0  0
 25 27  1  0  0  0  0
 27 26  2  0  0  0  0
 28 30  1  0  0  0  0
 30 29  1  0  0  0  0
M  END
>  <MODEL>
5

>  <REMARK>
 VINA RESULT:     -10.7      2.407      5.994
  Name = 
  3 active torsions:
  status: ('A' for Active; 'I' for Inactive)
    1  A    between atoms: C_7  and  C_15
    2  A    between atoms: C_11  and  C_28
    3  A    between atoms: C_28  and  C_30
                            x       y       z     vdW  Elec       q    Type
                         _______ _______ _______ _____ _____    ______ ____

>  <TORSDO>
F 3

$$$$
=
 OpenBabel11122410273D

 30 34  0  0  1  0  0  0  0  0999 V2000
  187.4880  178.0700  142.9750 C   0  0  0  0  0  0  0  0  0  0  0  0
  188.8170  177.5830  145.0460 C   0  0  0  0  0  0  0  0  0  0  0  0
  183.9920  178.6060  145.2480 N   0  0  0  0  0  2  0  0  0  0  0  0
  186.2420  178.4310  142.3800 C   0  0  0  0  0  0  0  0  0  0  0  0
  188.5830  177.8320  142.1380 C   0  0  0  0  0  3  0  0  0  0  0  0
  187.1710  178.3360  138.7760 O   0  0  0  0  0  1  0  0  0  0  0  0
  183.4850  178.3820  140.6520 C   0  0  2  0  0  3  0  0  0  0  0  0
  187.2560  178.2690  140.1650 C   0  0  0  0  0  0  0  0  0  0  0  0
  183.3340  177.9370  141.9860 O   0  0  0  0  0  0  0  0  0  0  0  0
  183.0900  178.8600  144.1760 C   0  0  0  0  0  0  0  0  0  0  0  0
  188.4790  177.9310  140.7550 C   0  0  0  0  0  0  0  0  0  0  0  0
  186.1200  178.5260  140.9640 C   0  0  0  0  0  0  0  0  0  0  0  0
  188.8590  177.4350  146.4340 C   0  0  0  0  0  3  0  0  0  0  0  0
  189.9690  177.3780  144.3590 F   0  0  0  0  0  0  0  0  0  0  0  0
  185.2490  178.4920  144.5970 C   0  0  0  0  0  0  0  0  0  0  0  0
  187.7150  177.6280  147.2060 C   0  0  0  0  0  3  0  0  0  0  0  0
  187.6030  177.9360  144.3970 C   0  0  0  0  0  0  0  0  0  0  0  0
  185.1600  178.6730  143.2360 C   0  0  0  0  0  0  0  0  0  0  0  0
  181.8530  179.0040  144.3510 O   0  0  0  0  0  0  0  0  0  0  0  0
  183.7580  178.9620  142.8420 C   0  0  1  0  0  3  0  0  0  0  0  0
  184.9310  179.7530  139.3200 O   0  0  0  0  0  0  0  0  0  0  0  0
  186.5140  177.9780  146.5940 C   0  0  0  0  0  3  0  0  0  0  0  0
  186.4500  178.1390  145.2070 C   0  0  0  0  0  0  0  0  0  0  0  0
  184.8540  178.9480  140.2890 C   0  0  0  0  0  0  0  0  0  0  0  0
  179.9810  179.8280  140.0380 C   0  0  0  0  0  1  0  0  0  0  0  0
  182.3520  179.2860  140.2470 C   0  0  0  0  0  3  0  0  0  0  0  0
  181.0890  178.9200  140.4440 C   0  0  0  0  0  3  0  0  0  0  0  0
  189.6860  177.6440  139.9180 C   0  0  0  0  0  2  0  0  0  0  0  0
  192.0540  177.5020  140.7050 C   0  0  0  0  0  1  0  0  0  0  0  0
  190.7030  176.8120  140.6860 C   0  0  0  0  0  2  0  0  0  0  0  0
  1 17  1  0  0  0  0
  2 13  1  0  0  0  0
  4  1  1  0  0  0  0
  4 18  1  0  0  0  0
  5  1  2  0  0  0  0
  6  8  1  0  0  0  0
  7 26  1  1  0  0  0
  7  9  1  0  0  0  0
  8 11  2  0  0  0  0
  8 12  1  0  0  0  0
 10 19  2  0  0  0  0
 10  3  1  0  0  0  0
 11  5  1  0  0  0  0
 12  4  2  0  0  0  0
 13 16  2  0  0  0  0
 14  2  1  0  0  0  0
 15 23  1  0  0  0  0
 15  3  1  0  0  0  0
 17  2  2  0  0  0  0
 17 23  1  0  0  0  0
 18 15  2  0  0  0  0
 20  9  1  6  0  0  0
 20 18  1  0  0  0  0
 20 10  1  0  0  0  0
 21 24  2  0  0  0  0
 22 16  1  0  0  0  0
 23 22  2  0  0  0  0
 24  7  1  0  0  0  0
 24 12  1  0  0  0  0
 25 27  1  0  0  0  0
 26 27  2  0  0  0  0
 28 30  1  0  0  0  0
 28 11  1  0  0  0  0
 30 29  1  0  0  0  0
M  END
>  <MODEL>
6

>  <REMARK>
 VINA RESULT:     -10.5      3.198      6.320
  Name = 
  3 active torsions:
  status: ('A' for Active; 'I' for Inactive)
    1  A    between atoms: C_7  and  C_15
    2  A    between atoms: C_11  and  C_28
    3  A    between atoms: C_28  and  C_30
                            x       y       z     vdW  Elec       q    Type
                         _______ _______ _______ _____ _____    ______ ____

>  <TORSDO>
F 3

$$$$
=
 OpenBabel11122410273D

 30 34  0  0  1  0  0  0  0  0999 V2000
  186.5660  178.2310  144.6730 C   0  0  0  0  0  0  0  0  0  0  0  0
  186.8320  177.9860  147.1540 C   0  0  0  0  0  0  0  0  0  0  0  0
  190.4980  176.8860  144.0370 N   0  0  0  0  0  2  0  0  0  0  0  0
  187.1160  178.0820  143.3640 C   0  0  0  0  0  0  0  0  0  0  0  0
  185.2780  178.7610  144.7980 C   0  0  0  0  0  3  0  0  0  0  0  0
  184.3260  179.4390  141.3070 O   0  0  0  0  0  1  0  0  0  0  0  0
  188.2890  178.6880  140.3890 C   0  0  2  0  0  3  0  0  0  0  0  0
  185.0780  179.0200  142.4030 C   0  0  0  0  0  0  0  0  0  0  0  0
  189.2790  178.6390  141.3980 O   0  0  0  0  0  0  0  0  0  0  0  0
  190.5270  177.0080  142.6190 C   0  0  0  0  0  0  0  0  0  0  0  0
  184.5370  179.1480  143.6870 C   0  0  0  0  0  0  0  0  0  0  0  0
  186.3710  178.4840  142.2180 C   0  0  0  0  0  0  0  0  0  0  0  0
  187.6360  177.6410  148.2440 C   0  0  0  0  0  3  0  0  0  0  0  0
  185.5790  178.4340  147.4170 F   0  0  0  0  0  0  0  0  0  0  0  0
  189.1620  177.2380  144.3670 C   0  0  0  0  0  0  0  0  0  0  0  0
  188.9350  177.1750  148.0520 C   0  0  0  0  0  3  0  0  0  0  0  0
  187.3280  177.8630  145.8280 C   0  0  0  0  0  0  0  0  0  0  0  0
  188.4040  177.5410  143.2600 C   0  0  0  0  0  0  0  0  0  0  0  0
  191.5650  176.7940  141.9410 O   0  0  0  0  0  0  0  0  0  0  0  0
  189.2090  177.3860  142.0220 C   0  0  1  0  0  3  0  0  0  0  0  0
  186.0740  177.8880  139.9430 O   0  0  0  0  0  0  0  0  0  0  0  0
  189.4420  177.0430  146.7630 C   0  0  0  0  0  3  0  0  0  0  0  0
  188.6540  177.3740  145.6560 C   0  0  0  0  0  0  0  0  0  0  0  0
  186.8770  178.3040  140.8220 C   0  0  0  0  0  0  0  0  0  0  0  0
  189.3780  177.8950  136.7940 C   0  0  0  0  0  1  0  0  0  0  0  0
  188.7370  177.9650  139.1490 C   0  0  0  0  0  3  0  0  0  0  0  0
  188.9330  178.6270  138.0120 C   0  0  0  0  0  3  0  0  0  0  0  0
  183.1730  179.7270  143.8940 C   0  0  0  0  0  2  0  0  0  0  0  0
  180.8460  179.0270  143.3070 C   0  0  0  0  0  1  0  0  0  0  0  0
  182.1240  178.6310  144.0230 C   0  0  0  0  0  2  0  0  0  0  0  0
  1  5  1  0  0  0  0
  1 17  1  0  0  0  0
  2 14  1  0  0  0  0
  2 13  1  0  0  0  0
  3 15  1  0  0  0  0
  4  1  2  0  0  0  0
  6  8  1  0  0  0  0
  7 26  1  6  0  0  0
  7 24  1  0  0  0  0
  7  9  1  0  0  0  0
  8 11  1  0  0  0  0
 10  3  1  0  0  0  0
 11 28  1  0  0  0  0
 11  5  2  0  0  0  0
 12  8  2  0  0  0  0
 12  4  1  0  0  0  0
 15 23  1  0  0  0  0
 16 13  2  0  0  0  0
 17  2  2  0  0  0  0
 18  4  1  0  0  0  0
 18 15  2  0  0  0  0
 19 10  2  0  0  0  0
 20  9  1  1  0  0  0
 20 10  1  0  0  0  0
 20 18  1  0  0  0  0
 21 24  2  0  0  0  0
 22 16  1  0  0  0  0
 23 17  1  0  0  0  0
 23 22  2  0  0  0  0
 24 12  1  0  0  0  0
 25 27  1  0  0  0  0
 27 26  2  0  0  0  0
 28 30  1  0  0  0  0
 29 30  1  0  0  0  0
M  END
>  <MODEL>
7

>  <REMARK>
 VINA RESULT:     -10.2      2.492      5.934
  Name = 
  3 active torsions:
  status: ('A' for Active; 'I' for Inactive)
    1  A    between atoms: C_7  and  C_15
    2  A    between atoms: C_11  and  C_28
    3  A    between atoms: C_28  and  C_30
                            x       y       z     vdW  Elec       q    Type
                         _______ _______ _______ _____ _____    ______ ____

>  <TORSDO>
F 3

$$$$
=
 OpenBabel11122410273D

 30 34  0  0  1  0  0  0  0  0999 V2000
  186.1290  178.4320  142.8610 C   0  0  0  0  0  0  0  0  0  0  0  0
  185.6230  178.6630  140.4160 C   0  0  0  0  0  0  0  0  0  0  0  0
  190.1020  177.3420  142.0190 N   0  0  0  0  0  2  0  0  0  0  0  0
  187.0790  178.1620  143.8930 C   0  0  0  0  0  0  0  0  0  0  0  0
  184.8080  178.7090  143.2270 C   0  0  0  0  0  3  0  0  0  0  0  0
  184.8950  178.4240  146.8960 O   0  0  0  0  0  1  0  0  0  0  0  0
  188.6660  176.8040  146.3880 C   0  0  2  0  0  3  0  0  0  0  0  0
  185.3280  178.4360  145.5720 C   0  0  0  0  0  0  0  0  0  0  0  0
  189.1140  176.3700  145.1170 O   0  0  0  0  0  0  0  0  0  0  0  0
  190.5400  177.1260  143.3560 C   0  0  0  0  0  0  0  0  0  0  0  0
  184.4060  178.7170  144.5580 C   0  0  0  0  0  0  0  0  0  0  0  0
  186.6760  178.1570  145.2590 C   0  0  0  0  0  0  0  0  0  0  0  0
  186.0580  178.5840  139.0900 C   0  0  0  0  0  3  0  0  0  0  0  0
  184.3270  178.9990  140.6300 F   0  0  0  0  0  0  0  0  0  0  0  0
  188.7700  177.8080  142.1840 C   0  0  0  0  0  0  0  0  0  0  0  0
  187.3770  178.2430  138.7930 C   0  0  0  0  0  3  0  0  0  0  0  0
  186.5230  178.4000  141.4840 C   0  0  0  0  0  0  0  0  0  0  0  0
  188.3980  177.8960  143.5060 C   0  0  0  0  0  0  0  0  0  0  0  0
  191.6860  176.6850  143.6310 O   0  0  0  0  0  0  0  0  0  0  0  0
  189.5230  177.4940  144.3880 C   0  0  1  0  0  3  0  0  0  0  0  0
  187.5420  178.6570  147.4100 O   0  0  0  0  0  0  0  0  0  0  0  0
  188.2770  177.9840  139.8210 C   0  0  0  0  0  3  0  0  0  0  0  0
  187.8670  178.0640  141.1560 C   0  0  0  0  0  0  0  0  0  0  0  0
  187.6380  177.9310  146.3830 C   0  0  0  0  0  0  0  0  0  0  0  0
  192.0760  176.6370  148.1460 C   0  0  0  0  0  1  0  0  0  0  0  0
  189.8230  177.0720  147.3120 C   0  0  0  0  0  3  0  0  0  0  0  0
  190.9410  176.3570  147.2240 C   0  0  0  0  0  3  0  0  0  0  0  0
  182.9720  179.0010  144.8770 C   0  0  0  0  0  2  0  0  0  0  0  0
  180.6730  178.6340  143.9690 C   0  0  0  0  0  1  0  0  0  0  0  0
  182.1110  178.9660  143.6220 C   0  0  0  0  0  2  0  0  0  0  0  0
  1  5  2  0  0  0  0
  1  4  1  0  0  0  0
  2 14  1  0  0  0  0
  2 17  1  0  0  0  0
  3 15  1  0  0  0  0
  3 10  1  0  0  0  0
  4 12  2  0  0  0  0
  5 11  1  0  0  0  0
  7 26  1  1  0  0  0
  8  6  1  0  0  0  0
  9  7  1  0  0  0  0
 10 19  2  0  0  0  0
 11 28  1  0  0  0  0
 11  8  2  0  0  0  0
 12  8  1  0  0  0  0
 12 24  1  0  0  0  0
 13  2  2  0  0  0  0
 15 18  2  0  0  0  0
 16 13  1  0  0  0  0
 16 22  2  0  0  0  0
 17  1  1  0  0  0  0
 18  4  1  0  0  0  0
 18 20  1  0  0  0  0
 20 10  1  6  0  0  0
 20  9  1  0  0  0  0
 22 23  1  0  0  0  0
 23 17  2  0  0  0  0
 23 15  1  0  0  0  0
 24  7  1  0  0  0  0
 24 21  2  0  0  0  0
 27 26  2  0  0  0  0
 27 25  1  0  0  0  0
 30 29  1  0  0  0  0
 30 28  1  0  0  0  0
M  END
>  <MODEL>
8

>  <REMARK>
 VINA RESULT:     -10.0      1.728      4.833
  Name = 
  3 active torsions:
  status: ('A' for Active; 'I' for Inactive)
    1  A    between atoms: C_7  and  C_15
    2  A    between atoms: C_11  and  C_28
    3  A    between atoms: C_28  and  C_30
                            x       y       z     vdW  Elec       q    Type
                         _______ _______ _______ _____ _____    ______ ____

>  <TORSDO>
F 3

$$$$
=
 OpenBabel11122410273D

 30 34  0  0  1  0  0  0  0  0999 V2000
  185.3830  178.5790  142.2020 C   0  0  0  0  0  0  0  0  0  0  0  0
  184.8560  178.7190  139.7540 C   0  0  0  0  0  0  0  0  0  0  0  0
  189.4020  177.6680  141.3680 N   0  0  0  0  0  2  0  0  0  0  0  0
  186.3490  178.3840  143.2350 C   0  0  0  0  0  0  0  0  0  0  0  0
  184.0510  178.7980  142.5670 C   0  0  0  0  0  3  0  0  0  0  0  0
  184.1660  178.6150  146.2420 O   0  0  0  0  0  1  0  0  0  0  0  0
  188.0130  177.1740  145.7570 C   0  0  2  0  0  3  0  0  0  0  0  0
  184.5930  178.6140  144.9160 C   0  0  0  0  0  0  0  0  0  0  0  0
  188.4770  176.7300  144.4960 O   0  0  0  0  0  0  0  0  0  0  0  0
  189.8560  177.5090  142.7080 C   0  0  0  0  0  0  0  0  0  0  0  0
  183.6540  178.8210  143.9000 C   0  0  0  0  0  0  0  0  0  0  0  0
  185.9530  178.3950  144.6040 C   0  0  0  0  0  0  0  0  0  0  0  0
  185.2900  178.6260  138.4290 C   0  0  0  0  0  3  0  0  0  0  0  0
  183.5450  178.9940  139.9660 F   0  0  0  0  0  0  0  0  0  0  0  0
  188.0490  178.0700  141.5280 C   0  0  0  0  0  0  0  0  0  0  0  0
  186.6220  178.3440  138.1330 C   0  0  0  0  0  3  0  0  0  0  0  0
  185.7720  178.5300  140.8240 C   0  0  0  0  0  0  0  0  0  0  0  0
  187.6790  178.1740  142.8490 C   0  0  0  0  0  0  0  0  0  0  0  0
  191.0230  177.1340  142.9880 O   0  0  0  0  0  0  0  0  0  0  0  0
  188.8250  177.8530  143.7350 C   0  0  1  0  0  3  0  0  0  0  0  0
  186.8000  178.9950  146.7350 O   0  0  0  0  0  0  0  0  0  0  0  0
  187.5390  178.1580  139.1640 C   0  0  0  0  0  3  0  0  0  0  0  0
  187.1300  178.2530  140.4980 C   0  0  0  0  0  0  0  0  0  0  0  0
  186.9290  178.2470  145.7270 C   0  0  0  0  0  0  0  0  0  0  0  0
  191.3090  177.0550  147.7220 C   0  0  0  0  0  1  0  0  0  0  0  0
  189.1580  177.5240  146.6670 C   0  0  0  0  0  3  0  0  0  0  0  0
  190.1840  176.6910  146.8180 C   0  0  0  0  0  3  0  0  0  0  0  0
  182.2090  179.0410  144.2190 C   0  0  0  0  0  2  0  0  0  0  0  0
  179.9570  178.5000  143.2800 C   0  0  0  0  0  1  0  0  0  0  0  0
  181.3540  178.9960  142.9600 C   0  0  0  0  0  2  0  0  0  0  0  0
  1  5  2  0  0  0  0
  1  4  1  0  0  0  0
  2 14  1  0  0  0  0
  2 17  1  0  0  0  0
  3 15  1  0  0  0  0
  3 10  1  0  0  0  0
  4 12  2  0  0  0  0
  5 11  1  0  0  0  0
  7 26  1  1  0  0  0
  8  6  1  0  0  0  0
  9  7  1  0  0  0  0
 10 19  2  0  0  0  0
 11 28  1  0  0  0  0
 11  8  2  0  0  0  0
 12  8  1  0  0  0  0
 12 24  1  0  0  0  0
 13  2  2  0  0  0  0
 15 18  2  0  0  0  0
 16 13  1  0  0  0  0
 16 22  2  0  0  0  0
 17  1  1  0  0  0  0
 18  4  1  0  0  0  0
 18 20  1  0  0  0  0
 20 10  1  6  0  0  0
 20  9  1  0  0  0  0
 22 23  1  0  0  0  0
 23 17  2  0  0  0  0
 23 15  1  0  0  0  0
 24  7  1  0  0  0  0
 24 21  2  0  0  0  0
 26 27  2  0  0  0  0
 27 25  1  0  0  0  0
 30 29  1  0  0  0  0
 30 28  1  0  0  0  0
M  END
>  <MODEL>
9

>  <REMARK>
 VINA RESULT:      -9.9      2.035      5.049
  Name = 
  3 active torsions:
  status: ('A' for Active; 'I' for Inactive)
    1  A    between atoms: C_7  and  C_15
    2  A    between atoms: C_11  and  C_28
    3  A    between atoms: C_28  and  C_30
                            x       y       z     vdW  Elec       q    Type
                         _______ _______ _______ _____ _____    ______ ____

>  <TORSDO>
F 3

$$$$
