=
 OpenBabel11122411523D

 28 31  0  0  1  0  0  0  0  0999 V2000
  180.8210  179.2580  142.5850 C   0  0  0  0  0  0  0  0  0  0  0  0
  179.3640  176.6980  140.3360 O   0  0  0  0  0  0  0  0  0  0  0  0
  179.4860  180.8420  140.6980 C   0  0  0  0  0  3  0  0  0  0  0  0
  181.6120  178.5270  143.6260 C   0  0  0  0  0  2  0  0  0  0  0  0
  180.1190  177.9150  138.3250 O   0  0  0  0  0  0  0  0  0  0  0  0
  180.4340  176.8020  139.2860 S   0  0  0  0  0  0  0  0  0  0  0  0
  181.9260  175.1640  137.7150 C   0  0  0  0  0  0  0  0  0  0  0  0
  181.9920  177.0140  140.0160 N   0  0  1  0  0  0  0  0  0  0  0  0
  185.2370  179.3600  144.6220 C   0  0  0  0  0  1  0  0  0  0  0  0
  183.5640  178.8560  140.3450 C   0  0  2  0  0  3  0  0  0  0  0  0
  183.1850  175.6620  138.3860 C   0  0  0  0  0  2  0  0  0  0  0  0
  180.5740  175.2690  138.3810 C   0  0  0  0  0  2  0  0  0  0  0  0
  184.1170  178.5510  143.9940 C   0  0  2  0  0  3  0  0  0  0  0  0
  181.1410  179.1440  141.2170 C   0  0  0  0  0  0  0  0  0  0  0  0
  182.0530  174.3440  136.6760 C   0  0  0  0  0  2  0  0  0  0  0  0
  184.5230  178.0870  142.5890 C   0  0  0  0  0  2  0  0  0  0  0  0
  180.4910  179.9630  140.2860 C   0  0  0  0  0  3  0  0  0  0  0  0
  179.8170  180.1460  142.9910 C   0  0  0  0  0  3  0  0  0  0  0  0
  179.1440  180.9270  142.0490 C   0  0  0  0  0  3  0  0  0  0  0  0
  182.8230  179.3640  144.0200 C   0  0  0  0  0  2  0  0  0  0  0  0
  184.1720  177.8000  139.4320 C   0  0  1  0  0  3  0  0  0  0  0  0
  184.4520  179.2130  141.5500 C   0  0  1  0  0  3  0  0  0  0  0  0
  182.9450  177.0670  138.9230 C   0  0  2  0  0  3  0  0  0  0  0  0
  182.2570  178.2280  140.7980 C   0  0  1  0  0  3  0  0  0  0  0  0
  186.5730  178.5890  141.6610 C   0  0  0  0  0  1  0  0  0  0  0  0
  185.7380  179.5790  141.1410 O   0  0  0  0  0  0  0  0  0  0  0  0
  184.9070  178.4770  138.2870 C   0  0  0  0  0  2  0  0  0  0  0  0
  186.2220  177.7750  138.0130 C   0  0  0  0  0  1  0  0  0  0  0  0
  1 18  1  0  0  0  0
  1  4  1  0  0  0  0
  3 19  1  0  0  0  0
  4 20  1  0  0  0  0
  5  6  2  0  0  0  0
  6  2  2  0  0  0  0
  7 12  1  0  0  0  0
  7 11  1  0  0  0  0
  8  6  1  6  0  0  0
  8 24  1  0  0  0  0
 10 24  1  0  0  0  0
 10 22  1  0  0  0  0
 11 23  1  0  0  0  0
 12  6  1  0  0  0  0
 13 20  1  0  0  0  0
 13  9  1  0  0  0  0
 14  1  2  0  0  0  0
 15  7  2  0  0  0  0
 16 13  1  0  0  0  0
 17  3  2  0  0  0  0
 17 14  1  0  0  0  0
 19 18  2  0  0  0  0
 21 10  1  0  0  0  0
 22 16  1  0  0  0  0
 23 21  1  0  0  0  0
 23  8  1  0  0  0  0
 24 14  1  0  0  0  0
 26 22  1  0  0  0  0
 26 25  1  0  0  0  0
 27 21  1  0  0  0  0
 28 27  1  0  0  0  0
M  END
>  <MODEL>
1

>  <REMARK>
 VINA RESULT:      -7.1      0.000      0.000
  Name = 
  2 active torsions:
  status: ('A' for Active; 'I' for Inactive)
    1  A    between atoms: C_5  and  C_24
    2  A    between atoms: O_17  and  C_25
                            x       y       z     vdW  Elec       q    Type
                         _______ _______ _______ _____ _____    ______ ____

>  <TORSDO>
F 2

$$$$
=
 OpenBabel11122411523D

 28 31  0  0  1  0  0  0  0  0999 V2000
  185.4720  175.1230  135.8600 C   0  0  0  0  0  0  0  0  0  0  0  0
  181.8710  175.9810  135.6760 O   0  0  0  0  0  0  0  0  0  0  0  0
  184.3410  173.2340  137.5940 C   0  0  0  0  0  3  0  0  0  0  0  0
  186.2020  176.1070  134.9980 C   0  0  0  0  0  2  0  0  0  0  0  0
  181.6380  175.8800  138.1320 O   0  0  0  0  0  0  0  0  0  0  0  0
  181.8500  176.7820  136.9480 S   0  0  0  0  0  0  0  0  0  0  0  0
  180.8160  179.1160  137.8800 C   0  0  0  0  0  0  0  0  0  0  0  0
  183.3010  177.7160  137.1110 N   0  0  1  0  0  0  0  0  0  0  0  0
  189.3040  178.1090  136.0890 C   0  0  0  0  0  1  0  0  0  0  0  0
  185.3550  177.5900  138.4290 C   0  0  2  0  0  3  0  0  0  0  0  0
  182.2120  179.6420  138.1190 C   0  0  0  0  0  2  0  0  0  0  0  0
  180.5430  177.9990  136.8980 C   0  0  0  0  0  2  0  0  0  0  0  0
  187.8510  177.8910  135.7110 C   0  0  2  0  0  3  0  0  0  0  0  0
  184.7120  175.5500  136.9670 C   0  0  0  0  0  0  0  0  0  0  0  0
  179.7900  179.8520  138.2950 C   0  0  0  0  0  2  0  0  0  0  0  0
  186.9330  178.6210  136.6980 C   0  0  0  0  0  2  0  0  0  0  0  0
  184.1770  174.5990  137.8450 C   0  0  0  0  0  3  0  0  0  0  0  0
  185.6370  173.7530  135.6180 C   0  0  0  0  0  3  0  0  0  0  0  0
  185.0630  172.8120  136.4750 C   0  0  0  0  0  3  0  0  0  0  0  0
  187.5700  176.3930  135.6060 C   0  0  0  0  0  2  0  0  0  0  0  0
  184.5550  178.8260  138.8150 C   0  0  1  0  0  3  0  0  0  0  0  0
  186.8130  177.8950  138.0440 C   0  0  1  0  0  3  0  0  0  0  0  0
  183.1580  178.4690  138.3430 C   0  0  2  0  0  3  0  0  0  0  0  0
  184.5870  177.0220  137.2480 C   0  0  1  0  0  3  0  0  0  0  0  0
  188.3570  177.7180  139.6200 C   0  0  0  0  0  1  0  0  0  0  0  0
  187.4610  178.6220  139.0470 O   0  0  0  0  0  0  0  0  0  0  0  0
  184.5840  179.0030  140.3250 C   0  0  0  0  0  2  0  0  0  0  0  0
  183.8040  177.8940  141.0030 C   0  0  0  0  0  1  0  0  0  0  0  0
  1 14  1  0  0  0  0
  2  6  2  0  0  0  0
  3 17  1  0  0  0  0
  4 20  1  0  0  0  0
  4  1  1  0  0  0  0
  6  5  2  0  0  0  0
  7 11  1  0  0  0  0
  7 15  2  0  0  0  0
  8  6  1  1  0  0  0
  8 24  1  0  0  0  0
  8 23  1  0  0  0  0
 10 21  1  0  0  0  0
 11 23  1  0  0  0  0
 12  6  1  0  0  0  0
 12  7  1  0  0  0  0
 13  9  1  0  0  0  0
 13 16  1  0  0  0  0
 14 24  1  0  0  0  0
 14 17  2  0  0  0  0
 16 22  1  0  0  0  0
 18  1  2  0  0  0  0
 18 19  1  0  0  0  0
 19  3  2  0  0  0  0
 20 13  1  0  0  0  0
 21 27  1  0  0  0  0
 22 10  1  0  0  0  0
 22 26  1  0  0  0  0
 23 21  1  0  0  0  0
 24 10  1  0  0  0  0
 26 25  1  0  0  0  0
 27 28  1  0  0  0  0
M  END
>  <MODEL>
2

>  <REMARK>
 VINA RESULT:      -5.7      2.726      6.459
  Name = 
  2 active torsions:
  status: ('A' for Active; 'I' for Inactive)
    1  A    between atoms: C_5  and  C_24
    2  A    between atoms: O_17  and  C_25
                            x       y       z     vdW  Elec       q    Type
                         _______ _______ _______ _____ _____    ______ ____

>  <TORSDO>
F 2

$$$$
=
 OpenBabel11122411523D

 28 31  0  0  1  0  0  0  0  0999 V2000
  180.9230  178.8550  142.7530 C   0  0  0  0  0  0  0  0  0  0  0  0
  178.9840  176.1120  141.1870 O   0  0  0  0  0  0  0  0  0  0  0  0
  178.9340  180.2690  141.3760 C   0  0  0  0  0  3  0  0  0  0  0  0
  182.0610  178.2200  143.4920 C   0  0  0  0  0  2  0  0  0  0  0  0
  178.9480  177.2710  139.0070 O   0  0  0  0  0  0  0  0  0  0  0  0
  179.6380  176.2250  139.8390 S   0  0  0  0  0  0  0  0  0  0  0  0
  180.6360  174.5990  137.9040 C   0  0  0  0  0  0  0  0  0  0  0  0
  181.3310  176.5580  140.0030 N   0  0  1  0  0  0  0  0  0  0  0  0
  185.7450  179.3000  143.2020 C   0  0  0  0  0  1  0  0  0  0  0  0
  182.7930  178.4990  139.7400 C   0  0  2  0  0  3  0  0  0  0  0  0
  182.0090  175.1980  138.1050 C   0  0  0  0  0  2  0  0  0  0  0  0
  179.5760  174.6600  138.9790 C   0  0  0  0  0  2  0  0  0  0  0  0
  184.5390  178.4010  143.0040 C   0  0  2  0  0  3  0  0  0  0  0  0
  180.7800  178.6930  141.3600 C   0  0  0  0  0  0  0  0  0  0  0  0
  180.4690  173.7380  136.9060 C   0  0  0  0  0  2  0  0  0  0  0  0
  184.4900  177.8940  141.5580 C   0  0  0  0  0  2  0  0  0  0  0  0
  179.8040  179.4280  140.6770 C   0  0  0  0  0  3  0  0  0  0  0  0
  180.0510  179.7040  143.4460 C   0  0  0  0  0  3  0  0  0  0  0  0
  179.0530  180.3990  142.7610 C   0  0  0  0  0  3  0  0  0  0  0  0
  183.2740  179.1410  143.4370 C   0  0  0  0  0  2  0  0  0  0  0  0
  183.1360  177.4360  138.7060 C   0  0  1  0  0  3  0  0  0  0  0  0
  184.0020  178.9620  140.5720 C   0  0  1  0  0  3  0  0  0  0  0  0
  181.8630  176.6120  138.6540 C   0  0  2  0  0  3  0  0  0  0  0  0
  181.7550  177.8210  140.6180 C   0  0  1  0  0  3  0  0  0  0  0  0
  186.0880  178.4810  140.0090 C   0  0  0  0  0  1  0  0  0  0  0  0
  185.0520  179.3790  139.7490 O   0  0  0  0  0  0  0  0  0  0  0  0
  183.4040  178.0970  137.3630 C   0  0  0  0  0  2  0  0  0  0  0  0
  182.1010  178.5080  136.7060 C   0  0  0  0  0  1  0  0  0  0  0  0
  1 18  1  0  0  0  0
  1  4  1  0  0  0  0
  3 19  1  0  0  0  0
  5  6  2  0  0  0  0
  6  2  2  0  0  0  0
  7 11  1  0  0  0  0
  7 12  1  0  0  0  0
  8  6  1  6  0  0  0
  8 24  1  0  0  0  0
 10 22  1  0  0  0  0
 10 24  1  0  0  0  0
 11 23  1  0  0  0  0
 12  6  1  0  0  0  0
 13  9  1  0  0  0  0
 13 20  1  0  0  0  0
 14  1  2  0  0  0  0
 15  7  2  0  0  0  0
 16 13  1  0  0  0  0
 17 14  1  0  0  0  0
 17  3  2  0  0  0  0
 19 18  2  0  0  0  0
 20  4  1  0  0  0  0
 21 10  1  0  0  0  0
 22 16  1  0  0  0  0
 23 21  1  0  0  0  0
 23  8  1  0  0  0  0
 24 14  1  0  0  0  0
 26 25  1  0  0  0  0
 26 22  1  0  0  0  0
 27 21  1  0  0  0  0
 28 27  1  0  0  0  0
M  END
>  <MODEL>
3

>  <REMARK>
 VINA RESULT:      -5.4      1.178      1.425
  Name = 
  2 active torsions:
  status: ('A' for Active; 'I' for Inactive)
    1  A    between atoms: C_5  and  C_24
    2  A    between atoms: O_17  and  C_25
                            x       y       z     vdW  Elec       q    Type
                         _______ _______ _______ _____ _____    ______ ____

>  <TORSDO>
F 2

$$$$
=
 OpenBabel11122411523D

 28 31  0  0  1  0  0  0  0  0999 V2000
  188.8710  177.8080  137.0970 C   0  0  0  0  0  0  0  0  0  0  0  0
  192.2210  176.3590  136.4540 O   0  0  0  0  0  0  0  0  0  0  0  0
  189.7420  177.1970  139.6900 C   0  0  0  0  0  3  0  0  0  0  0  0
  188.2730  178.1370  135.7640 C   0  0  0  0  0  2  0  0  0  0  0  0
  191.7830  174.4620  137.9720 O   0  0  0  0  0  0  0  0  0  0  0  0
  191.7780  174.9260  136.5420 S   0  0  0  0  0  0  0  0  0  0  0  0
  192.1690  172.5780  135.2310 C   0  0  0  0  0  0  0  0  0  0  0  0
  190.2190  174.7200  135.8120 N   0  0  1  0  0  0  0  0  0  0  0  0
  184.7360  177.1240  134.6310 C   0  0  0  0  0  1  0  0  0  0  0  0
  187.9220  174.4110  136.5880 C   0  0  2  0  0  3  0  0  0  0  0  0
  190.7000  172.5270  134.8800 C   0  0  0  0  0  2  0  0  0  0  0  0
  192.8580  173.8770  135.5820 C   0  0  0  0  0  2  0  0  0  0  0  0
  186.2520  177.0910  134.6530 C   0  0  2  0  0  3  0  0  0  0  0  0
  189.2290  176.4840  137.4270 C   0  0  0  0  0  0  0  0  0  0  0  0
  192.9240  171.5300  134.9200 C   0  0  0  0  0  2  0  0  0  0  0  0
  186.7500  175.6400  134.6740 C   0  0  0  0  0  2  0  0  0  0  0  0
  189.6320  176.1840  138.7340 C   0  0  0  0  0  3  0  0  0  0  0  0
  188.9780  178.8160  138.0630 C   0  0  0  0  0  3  0  0  0  0  0  0
  189.4230  178.5140  139.3520 C   0  0  0  0  0  3  0  0  0  0  0  0
  186.7640  177.9300  135.8230 C   0  0  0  0  0  2  0  0  0  0  0  0
  188.3980  173.1720  135.8420 C   0  0  1  0  0  3  0  0  0  0  0  0
  186.5980  174.9810  136.0500 C   0  0  1  0  0  3  0  0  0  0  0  0
  189.9080  173.3060  135.9210 C   0  0  2  0  0  3  0  0  0  0  0  0
  189.0580  175.4000  136.3990 C   0  0  1  0  0  3  0  0  0  0  0  0
  184.9180  174.1410  137.2210 C   0  0  0  0  0  1  0  0  0  0  0  0
  185.6020  174.0010  136.0130 O   0  0  0  0  0  0  0  0  0  0  0  0
  187.9310  171.9240  136.5730 C   0  0  0  0  0  2  0  0  0  0  0  0
  187.4290  170.8880  135.5870 C   0  0  0  0  0  1  0  0  0  0  0  0
  1 14  2  0  0  0  0
  1 18  1  0  0  0  0
  2  6  2  0  0  0  0
  4 20  1  0  0  0  0
  4  1  1  0  0  0  0
  6  5  2  0  0  0  0
  7 12  1  0  0  0  0
  8 23  1  0  0  0  0
  8 24  1  0  0  0  0
  8  6  1  1  0  0  0
  9 13  1  0  0  0  0
 11  7  1  0  0  0  0
 11 23  1  0  0  0  0
 12  6  1  0  0  0  0
 13 16  1  0  0  0  0
 13 20  1  0  0  0  0
 14 17  1  0  0  0  0
 15  7  2  0  0  0  0
 16 22  1  0  0  0  0
 17  3  2  0  0  0  0
 18 19  2  0  0  0  0
 19  3  1  0  0  0  0
 21 23  1  0  0  0  0
 21 27  1  0  0  0  0
 21 10  1  0  0  0  0
 22 10  1  0  0  0  0
 24 10  1  0  0  0  0
 24 14  1  0  0  0  0
 26 22  1  0  0  0  0
 26 25  1  0  0  0  0
 28 27  1  0  0  0  0
M  END
>  <MODEL>
4

>  <REMARK>
 VINA RESULT:      -5.4      6.913      9.735
  Name = 
  2 active torsions:
  status: ('A' for Active; 'I' for Inactive)
    1  A    between atoms: C_5  and  C_24
    2  A    between atoms: O_17  and  C_25
                            x       y       z     vdW  Elec       q    Type
                         _______ _______ _______ _____ _____    ______ ____

>  <TORSDO>
F 2

$$$$
=
 OpenBabel11122411523D

 28 31  0  0  1  0  0  0  0  0999 V2000
  180.4920  178.4140  138.7770 C   0  0  0  0  0  0  0  0  0  0  0  0
  181.0080  175.7170  136.2880 O   0  0  0  0  0  0  0  0  0  0  0  0
  180.2530  179.8080  136.3580 C   0  0  0  0  0  3  0  0  0  0  0  0
  180.6440  177.7950  140.1320 C   0  0  0  0  0  2  0  0  0  0  0  0
  182.5790  177.1060  134.9850 O   0  0  0  0  0  0  0  0  0  0  0  0
  182.4550  176.0330  136.0310 S   0  0  0  0  0  0  0  0  0  0  0  0
  184.8120  174.7200  135.7110 C   0  0  0  0  0  0  0  0  0  0  0  0
  183.2560  176.4810  137.5010 N   0  0  1  0  0  0  0  0  0  0  0  0
  182.8590  179.1950  142.9530 C   0  0  0  0  0  1  0  0  0  0  0  0
  184.0450  178.5510  138.5340 C   0  0  2  0  0  3  0  0  0  0  0  0
  185.3620  175.4020  136.9430 C   0  0  0  0  0  2  0  0  0  0  0  0
  183.3260  174.5750  135.4790 C   0  0  0  0  0  2  0  0  0  0  0  0
  182.4450  178.2290  141.8580 C   0  0  2  0  0  3  0  0  0  0  0  0
  181.5510  178.3980  137.8470 C   0  0  0  0  0  0  0  0  0  0  0  0
  185.6370  173.9670  134.9920 C   0  0  0  0  0  2  0  0  0  0  0  0
  183.6490  177.8850  140.9730 C   0  0  0  0  0  2  0  0  0  0  0  0
  181.4340  179.1250  136.6560 C   0  0  0  0  0  3  0  0  0  0  0  0
  179.3130  179.1070  138.4740 C   0  0  0  0  0  3  0  0  0  0  0  0
  179.1890  179.7920  137.2640 C   0  0  0  0  0  3  0  0  0  0  0  0
  181.2630  178.8110  141.0850 C   0  0  0  0  0  2  0  0  0  0  0  0
  185.2220  177.6420  138.2090 C   0  0  1  0  0  3  0  0  0  0  0  0
  184.0120  179.0140  140.0020 C   0  0  1  0  0  3  0  0  0  0  0  0
  184.6410  176.7290  137.1450 C   0  0  2  0  0  3  0  0  0  0  0  0
  182.8320  177.6970  138.2050 C   0  0  1  0  0  3  0  0  0  0  0  0
  185.7410  178.7650  141.3610 C   0  0  0  0  0  1  0  0  0  0  0  0
  185.2230  179.6050  140.3730 O   0  0  0  0  0  0  0  0  0  0  0  0
  186.3640  178.4690  137.6410 C   0  0  0  0  0  2  0  0  0  0  0  0
  187.6870  178.0160  138.2260 C   0  0  0  0  0  1  0  0  0  0  0  0
  1  4  1  0  0  0  0
  3 17  2  0  0  0  0
  3 19  1  0  0  0  0
  4 20  1  0  0  0  0
  5  6  2  0  0  0  0
  6  2  2  0  0  0  0
  7 11  1  0  0  0  0
  8  6  1  6  0  0  0
  8 24  1  0  0  0  0
 10 22  1  0  0  0  0
 11 23  1  0  0  0  0
 12  7  1  0  0  0  0
 12  6  1  0  0  0  0
 13  9  1  0  0  0  0
 14 24  1  0  0  0  0
 14  1  2  0  0  0  0
 15  7  2  0  0  0  0
 16 13  1  0  0  0  0
 17 14  1  0  0  0  0
 18  1  1  0  0  0  0
 19 18  2  0  0  0  0
 20 13  1  0  0  0  0
 21 10  1  0  0  0  0
 22 26  1  0  0  0  0
 22 16  1  0  0  0  0
 23  8  1  0  0  0  0
 23 21  1  0  0  0  0
 24 10  1  0  0  0  0
 26 25  1  0  0  0  0
 27 21  1  0  0  0  0
 27 28  1  0  0  0  0
M  END
>  <MODEL>
5

>  <REMARK>
 VINA RESULT:      -5.1      2.371      3.245
  Name = 
  2 active torsions:
  status: ('A' for Active; 'I' for Inactive)
    1  A    between atoms: C_5  and  C_24
    2  A    between atoms: O_17  and  C_25
                            x       y       z     vdW  Elec       q    Type
                         _______ _______ _______ _____ _____    ______ ____

>  <TORSDO>
F 2

$$$$
=
 OpenBabel11122411523D

 28 31  0  0  1  0  0  0  0  0999 V2000
  186.2560  174.4170  135.8200 C   0  0  0  0  0  0  0  0  0  0  0  0
  182.7580  174.4580  134.5940 O   0  0  0  0  0  0  0  0  0  0  0  0
  185.0150  172.5990  137.5550 C   0  0  0  0  0  3  0  0  0  0  0  0
  187.0230  175.4000  134.9910 C   0  0  0  0  0  2  0  0  0  0  0  0
  181.8690  174.6620  136.8880 O   0  0  0  0  0  0  0  0  0  0  0  0
  182.2500  175.4090  135.6400 S   0  0  0  0  0  0  0  0  0  0  0  0
  180.6250  177.5800  135.8180 C   0  0  0  0  0  0  0  0  0  0  0  0
  183.4220  176.6430  135.9710 N   0  0  1  0  0  0  0  0  0  0  0  0
  189.3200  178.1490  136.4010 C   0  0  0  0  0  1  0  0  0  0  0  0
  185.0180  177.1440  137.7520 C   0  0  2  0  0  3  0  0  0  0  0  0
  181.7910  178.4180  136.2860 C   0  0  0  0  0  2  0  0  0  0  0  0
  180.8260  176.3020  135.0350 C   0  0  0  0  0  2  0  0  0  0  0  0
  188.0880  177.5760  135.7270 C   0  0  2  0  0  3  0  0  0  0  0  0
  185.1560  174.8270  136.6020 C   0  0  0  0  0  0  0  0  0  0  0  0
  179.4170  178.1330  135.8170 C   0  0  0  0  0  2  0  0  0  0  0  0
  186.8220  178.2290  136.2960 C   0  0  0  0  0  2  0  0  0  0  0  0
  184.5640  173.9200  137.4890 C   0  0  0  0  0  3  0  0  0  0  0  0
  186.7060  173.0930  135.8970 C   0  0  0  0  0  3  0  0  0  0  0  0
  186.0810  172.1850  136.7530 C   0  0  0  0  0  3  0  0  0  0  0  0
  188.1000  176.0530  135.8490 C   0  0  0  0  0  2  0  0  0  0  0  0
  183.9490  178.2250  137.6820 C   0  0  1  0  0  3  0  0  0  0  0  0
  186.4540  177.6940  137.6860 C   0  0  1  0  0  3  0  0  0  0  0  0
  182.8180  177.5170  136.9600 C   0  0  2  0  0  3  0  0  0  0  0  0
  184.7150  176.2640  136.5520 C   0  0  1  0  0  3  0  0  0  0  0  0
  187.5600  178.0990  139.5600 C   0  0  0  0  0  1  0  0  0  0  0  0
  186.6660  178.6770  138.6570 O   0  0  0  0  0  0  0  0  0  0  0  0
  183.5250  178.6180  139.0880 C   0  0  0  0  0  2  0  0  0  0  0  0
  183.0150  180.0450  139.1090 C   0  0  0  0  0  1  0  0  0  0  0  0
  1 18  2  0  0  0  0
  1 14  1  0  0  0  0
  2  6  2  0  0  0  0
  4  1  1  0  0  0  0
  4 20  1  0  0  0  0
  6  5  2  0  0  0  0
  7 11  1  0  0  0  0
  8  6  1  1  0  0  0
  8 24  1  0  0  0  0
  8 23  1  0  0  0  0
 11 23  1  0  0  0  0
 12  6  1  0  0  0  0
 12  7  1  0  0  0  0
 13 20  1  0  0  0  0
 13 16  1  0  0  0  0
 13  9  1  0  0  0  0
 14 17  2  0  0  0  0
 15  7  2  0  0  0  0
 16 22  1  0  0  0  0
 17  3  1  0  0  0  0
 18 19  1  0  0  0  0
 19  3  2  0  0  0  0
 21 10  1  0  0  0  0
 21 27  1  0  0  0  0
 22 10  1  0  0  0  0
 22 26  1  0  0  0  0
 23 21  1  0  0  0  0
 24 14  1  0  0  0  0
 24 10  1  0  0  0  0
 26 25  1  0  0  0  0
 27 28  1  0  0  0  0
M  END
>  <MODEL>
6

>  <REMARK>
 VINA RESULT:      -4.9      3.576      6.871
  Name = 
  2 active torsions:
  status: ('A' for Active; 'I' for Inactive)
    1  A    between atoms: C_5  and  C_24
    2  A    between atoms: O_17  and  C_25
                            x       y       z     vdW  Elec       q    Type
                         _______ _______ _______ _____ _____    ______ ____

>  <TORSDO>
F 2

$$$$
=
 OpenBabel11122411523D

 28 31  0  0  1  0  0  0  0  0999 V2000
  184.8530  174.9140  136.3360 C   0  0  0  0  0  0  0  0  0  0  0  0
  184.1510  177.4090  138.9850 O   0  0  0  0  0  0  0  0  0  0  0  0
  184.2980  177.2110  134.8310 C   0  0  0  0  0  3  0  0  0  0  0  0
  185.1230  173.6100  137.0220 C   0  0  0  0  0  2  0  0  0  0  0  0
  182.1280  178.2040  137.8150 O   0  0  0  0  0  0  0  0  0  0  0  0
  182.6550  177.2990  138.8930 S   0  0  0  0  0  0  0  0  0  0  0  0
  180.5070  177.1600  140.5520 C   0  0  0  0  0  0  0  0  0  0  0  0
  182.1750  175.6540  138.6340 N   0  0  1  0  0  0  0  0  0  0  0  0
  183.4720  170.2570  136.0990 C   0  0  0  0  0  1  0  0  0  0  0  0
  181.3650  174.3150  136.7570 C   0  0  2  0  0  3  0  0  0  0  0  0
  180.1770  175.7880  140.0130 C   0  0  0  0  0  2  0  0  0  0  0  0
  181.8990  177.7410  140.4500 C   0  0  0  0  0  2  0  0  0  0  0  0
  183.7470  171.4860  136.9450 C   0  0  2  0  0  3  0  0  0  0  0  0
  183.6150  175.5710  136.4850 C   0  0  0  0  0  0  0  0  0  0  0  0
  179.6520  177.7230  141.3990 C   0  0  0  0  0  2  0  0  0  0  0  0
  182.4290  172.0910  137.4430 C   0  0  0  0  0  2  0  0  0  0  0  0
  183.3350  176.7000  135.7040 C   0  0  0  0  0  3  0  0  0  0  0  0
  185.8110  175.4290  135.4530 C   0  0  0  0  0  3  0  0  0  0  0  0
  185.5380  176.5810  134.7120 C   0  0  0  0  0  3  0  0  0  0  0  0
  184.6110  172.4670  136.1540 C   0  0  0  0  0  2  0  0  0  0  0  0
  180.2900  174.4260  137.8280 C   0  0  1  0  0  3  0  0  0  0  0  0
  181.6820  172.8650  136.3500 C   0  0  1  0  0  3  0  0  0  0  0  0
  180.7240  175.6600  138.5970 C   0  0  2  0  0  3  0  0  0  0  0  0
  182.5740  174.9790  137.3940 C   0  0  1  0  0  3  0  0  0  0  0  0
  180.3950  172.4200  134.6050 C   0  0  0  0  0  1  0  0  0  0  0  0
  180.5230  172.1800  135.9740 O   0  0  0  0  0  0  0  0  0  0  0  0
  178.9370  174.6490  137.1730 C   0  0  0  0  0  2  0  0  0  0  0  0
  179.0580  175.6360  136.0280 C   0  0  0  0  0  1  0  0  0  0  0  0
  1 14  1  0  0  0  0
  1  4  1  0  0  0  0
  3 17  1  0  0  0  0
  5  6  2  0  0  0  0
  6  2  2  0  0  0  0
  6 12  1  0  0  0  0
  7 15  2  0  0  0  0
  8  6  1  6  0  0  0
  9 13  1  0  0  0  0
 10 24  1  0  0  0  0
 10 21  1  0  0  0  0
 11  7  1  0  0  0  0
 12  7  1  0  0  0  0
 13 16  1  0  0  0  0
 14 24  1  0  0  0  0
 17 14  2  0  0  0  0
 18  1  2  0  0  0  0
 19  3  2  0  0  0  0
 19 18  1  0  0  0  0
 20 13  1  0  0  0  0
 20  4  1  0  0  0  0
 21 23  1  0  0  0  0
 22 10  1  0  0  0  0
 22 16  1  0  0  0  0
 23  8  1  0  0  0  0
 23 11  1  0  0  0  0
 24  8  1  0  0  0  0
 25 26  1  0  0  0  0
 26 22  1  0  0  0  0
 27 21  1  0  0  0  0
 28 27  1  0  0  0  0
M  END
>  <MODEL>
7

>  <REMARK>
 VINA RESULT:      -4.6      2.983      7.574
  Name = 
  2 active torsions:
  status: ('A' for Active; 'I' for Inactive)
    1  A    between atoms: C_5  and  C_24
    2  A    between atoms: O_17  and  C_25
                            x       y       z     vdW  Elec       q    Type
                         _______ _______ _______ _____ _____    ______ ____

>  <TORSDO>
F 2

$$$$
=
 OpenBabel11122411523D

 28 31  0  0  1  0  0  0  0  0999 V2000
  181.7780  177.0230  136.5280 C   0  0  0  0  0  0  0  0  0  0  0  0
  184.8880  178.5290  137.8690 O   0  0  0  0  0  0  0  0  0  0  0  0
  181.3420  179.7530  136.0680 C   0  0  0  0  0  3  0  0  0  0  0  0
  181.8700  175.5470  136.7620 C   0  0  0  0  0  2  0  0  0  0  0  0
  183.6220  180.2590  139.0930 O   0  0  0  0  0  0  0  0  0  0  0  0
  184.2990  178.9200  139.1950 S   0  0  0  0  0  0  0  0  0  0  0  0
  184.9710  178.8770  141.8270 C   0  0  0  0  0  0  0  0  0  0  0  0
  183.2100  177.6990  139.7680 N   0  0  1  0  0  0  0  0  0  0  0  0
  179.1110  173.3990  138.3730 C   0  0  0  0  0  1  0  0  0  0  0  0
  180.7890  177.4120  139.9300 C   0  0  2  0  0  3  0  0  0  0  0  0
  183.8120  177.9490  142.1100 C   0  0  0  0  0  2  0  0  0  0  0  0
  185.5710  179.0020  140.4460 C   0  0  0  0  0  2  0  0  0  0  0  0
  180.4480  174.1110  138.2870 C   0  0  2  0  0  3  0  0  0  0  0  0
  181.8070  177.9330  137.6050 C   0  0  0  0  0  0  0  0  0  0  0  0
  185.6670  179.3420  142.8590 C   0  0  0  0  0  2  0  0  0  0  0  0
  180.7240  174.8770  139.5870 C   0  0  0  0  0  2  0  0  0  0  0  0
  181.5560  179.2900  137.3690 C   0  0  0  0  0  3  0  0  0  0  0  0
  181.5560  177.4940  135.2280 C   0  0  0  0  0  3  0  0  0  0  0  0
  181.3510  178.8560  134.9980 C   0  0  0  0  0  3  0  0  0  0  0  0
  180.4780  174.9920  137.0390 C   0  0  0  0  0  2  0  0  0  0  0  0
  181.4080  177.4670  141.3200 C   0  0  1  0  0  3  0  0  0  0  0  0
  179.9090  176.1710  139.6960 C   0  0  1  0  0  3  0  0  0  0  0  0
  182.7320  178.1610  141.0580 C   0  0  2  0  0  3  0  0  0  0  0  0
  181.9920  177.4100  139.0030 C   0  0  1  0  0  3  0  0  0  0  0  0
  179.2520  174.8680  141.3600 C   0  0  0  0  0  1  0  0  0  0  0  0
  178.9320  176.0490  140.6880 O   0  0  0  0  0  0  0  0  0  0  0  0
  180.5330  178.3060  142.2360 C   0  0  0  0  0  2  0  0  0  0  0  0
  180.2260  179.6450  141.5960 C   0  0  0  0  0  1  0  0  0  0  0  0
  1  4  1  0  0  0  0
  1 14  1  0  0  0  0
  2  6  2  0  0  0  0
  3 17  1  0  0  0  0
  4 20  1  0  0  0  0
  5  6  2  0  0  0  0
  6 12  1  0  0  0  0
  7 11  1  0  0  0  0
  7 15  2  0  0  0  0
  8  6  1  6  0  0  0
  8 23  1  0  0  0  0
 10 21  1  0  0  0  0
 12  7  1  0  0  0  0
 13  9  1  0  0  0  0
 13 16  1  0  0  0  0
 14 24  1  0  0  0  0
 16 22  1  0  0  0  0
 17 14  2  0  0  0  0
 18  1  2  0  0  0  0
 19 18  1  0  0  0  0
 19  3  2  0  0  0  0
 20 13  1  0  0  0  0
 21 27  1  0  0  0  0
 22 10  1  0  0  0  0
 22 26  1  0  0  0  0
 23 21  1  0  0  0  0
 23 11  1  0  0  0  0
 24  8  1  0  0  0  0
 24 10  1  0  0  0  0
 26 25  1  0  0  0  0
 28 27  1  0  0  0  0
M  END
>  <MODEL>
8

>  <REMARK>
 VINA RESULT:      -4.6      2.340      6.269
  Name = 
  2 active torsions:
  status: ('A' for Active; 'I' for Inactive)
    1  A    between atoms: C_5  and  C_24
    2  A    between atoms: O_17  and  C_25
                            x       y       z     vdW  Elec       q    Type
                         _______ _______ _______ _____ _____    ______ ____

>  <TORSDO>
F 2

$$$$
=
 OpenBabel11122411523D

 28 31  0  0  1  0  0  0  0  0999 V2000
  180.2410  173.7360  137.4210 C   0  0  0  0  0  0  0  0  0  0  0  0
  182.9400  171.3170  136.6450 O   0  0  0  0  0  0  0  0  0  0  0  0
  180.0120  173.4900  134.6390 C   0  0  0  0  0  3  0  0  0  0  0  0
  180.2910  173.9910  138.8960 C   0  0  0  0  0  2  0  0  0  0  0  0
  183.7470  172.6950  134.7630 O   0  0  0  0  0  0  0  0  0  0  0  0
  183.9400  172.3520  136.2140 S   0  0  0  0  0  0  0  0  0  0  0  0
  186.5820  172.9020  136.5300 C   0  0  0  0  0  0  0  0  0  0  0  0
  183.8410  173.7610  137.2190 N   0  0  1  0  0  0  0  0  0  0  0  0
  180.3080  177.4790  140.5260 C   0  0  0  0  0  1  0  0  0  0  0  0
  182.9430  176.0250  137.0210 C   0  0  2  0  0  3  0  0  0  0  0  0
  186.2320  174.2010  137.2200 C   0  0  0  0  0  2  0  0  0  0  0  0
  185.6050  171.7520  136.4560 C   0  0  0  0  0  2  0  0  0  0  0  0
  180.8810  176.1420  140.0940 C   0  0  2  0  0  3  0  0  0  0  0  0
  181.3440  174.0320  136.5940 C   0  0  0  0  0  0  0  0  0  0  0  0
  187.8620  172.6570  136.2700 C   0  0  0  0  0  2  0  0  0  0  0  0
  182.2680  176.3380  139.4690 C   0  0  0  0  0  2  0  0  0  0  0  0
  181.2090  173.9360  135.2030 C   0  0  0  0  0  3  0  0  0  0  0  0
  179.0420  173.2950  136.8470 C   0  0  0  0  0  3  0  0  0  0  0  0
  178.9320  173.1610  135.4610 C   0  0  0  0  0  3  0  0  0  0  0  0
  179.8880  175.4350  139.1720 C   0  0  0  0  0  2  0  0  0  0  0  0
  184.4580  176.0690  137.1660 C   0  0  1  0  0  3  0  0  0  0  0  0
  182.2010  176.9020  138.0450 C   0  0  1  0  0  3  0  0  0  0  0  0
  184.8650  174.6700  136.7390 C   0  0  2  0  0  3  0  0  0  0  0  0
  182.6080  174.5560  137.2160 C   0  0  1  0  0  3  0  0  0  0  0  0
  181.6770  178.9410  137.3620 C   0  0  0  0  0  1  0  0  0  0  0  0
  182.6730  178.2180  138.0200 O   0  0  0  0  0  0  0  0  0  0  0  0
  185.0330  177.1080  136.2170 C   0  0  0  0  0  2  0  0  0  0  0  0
  184.2800  177.0980  134.9010 C   0  0  0  0  0  1  0  0  0  0  0  0
  1  4  1  0  0  0  0
  3 17  2  0  0  0  0
  3 19  1  0  0  0  0
  4 20  1  0  0  0  0
  5  6  2  0  0  0  0
  6 12  1  0  0  0  0
  6  2  2  0  0  0  0
  7 11  1  0  0  0  0
  8  6  1  6  0  0  0
 10 21  1  0  0  0  0
 10 24  1  0  0  0  0
 10 22  1  0  0  0  0
 12  7  1  0  0  0  0
 13  9  1  0  0  0  0
 14 24  1  0  0  0  0
 14  1  2  0  0  0  0
 15  7  2  0  0  0  0
 16 13  1  0  0  0  0
 17 14  1  0  0  0  0
 18  1  1  0  0  0  0
 19 18  2  0  0  0  0
 20 13  1  0  0  0  0
 22 16  1  0  0  0  0
 23 21  1  0  0  0  0
 23  8  1  0  0  0  0
 23 11  1  0  0  0  0
 24  8  1  0  0  0  0
 25 26  1  0  0  0  0
 26 22  1  0  0  0  0
 27 21  1  0  0  0  0
 28 27  1  0  0  0  0
M  END
>  <MODEL>
9

>  <REMARK>
 VINA RESULT:      -4.3      3.661      6.267
  Name = 
  2 active torsions:
  status: ('A' for Active; 'I' for Inactive)
    1  A    between atoms: C_5  and  C_24
    2  A    between atoms: O_17  and  C_25
                            x       y       z     vdW  Elec       q    Type
                         _______ _______ _______ _____ _____    ______ ____

>  <TORSDO>
F 2

$$$$
