=
 OpenBabel11122411343D

 37 43  0  0  1  0  0  0  0  0999 V2000
  187.8020  177.8900  136.9890 C   0  0  0  0  0  0  0  0  0  0  0  0
  188.6590  177.4090  141.0490 C   0  0  0  0  0  0  0  0  0  0  0  0
  185.6520  177.5580  143.4320 C   0  0  0  0  0  2  0  0  0  0  0  0
  189.5110  177.2700  138.7780 C   0  0  0  0  0  0  0  0  0  0  0  0
  187.4920  177.9520  141.6160 C   0  0  0  0  0  0  0  0  0  0  0  0
  188.5600  177.6360  139.7080 C   0  0  0  0  0  0  0  0  0  0  0  0
  187.1090  178.0130  143.1150 C   0  0  2  0  0  3  0  0  0  0  0  0
  190.6720  176.6440  139.2540 C   0  0  0  0  0  3  0  0  0  0  0  0
  187.4070  178.2830  139.4430 C   0  0  0  0  0  0  0  0  0  0  0  0
  187.1070  176.5490  136.8220 C   0  0  0  0  0  1  0  0  0  0  0  0
  190.0480  176.5210  143.0060 C   0  0  0  0  0  2  0  0  0  0  0  0
  190.8190  176.4020  140.6400 C   0  0  0  0  0  3  0  0  0  0  0  0
  187.0470  178.7290  138.0540 C   0  0  0  0  0  2  0  0  0  0  0  0
  183.5830  178.4550  142.3930 C   0  0  1  0  0  3  0  0  0  0  0  0
  184.8150  177.6730  142.2540 N   0  0  1  0  0  0  0  0  0  0  0  0
  189.8200  176.7940  141.5590 C   0  0  0  0  0  0  0  0  0  0  0  0
  186.7410  178.5120  140.5930 N   0  0  0  0  0  0  0  0  0  0  0  0
  189.2990  177.6540  137.3350 C   0  0  0  0  0  2  0  0  0  0  0  0
  188.0680  177.3930  144.1470 C   0  0  1  0  0  3  0  0  0  0  0  0
  187.7290  178.6230  135.6670 C   0  0  0  0  0  1  0  0  0  0  0  0
  184.8370  179.1260  142.0180 C   0  0  1  0  0  3  0  0  0  0  0  0
  185.4420  179.2160  140.6340 C   0  0  0  0  0  2  0  0  0  0  0  0
  189.5330  177.6540  143.8620 C   0  0  0  0  0  2  0  0  0  0  0  0
  186.4410  178.2590  145.8400 C   0  0  0  0  0  3  0  0  0  0  0  0
  187.7440  177.8430  145.5410 C   0  0  0  0  0  0  0  0  0  0  0  0
  188.7230  177.8510  146.5480 C   0  0  0  0  0  3  0  0  0  0  0  0
  189.4370  178.2820  148.9010 C   0  0  0  0  0  1  0  0  0  0  0  0
  187.0960  178.6900  148.1310 C   0  0  0  0  0  3  0  0  0  0  0  0
  188.3980  178.2740  147.8390 C   0  0  0  0  0  0  0  0  0  0  0  0
  186.1180  178.6810  147.1330 C   0  0  0  0  0  3  0  0  0  0  0  0
  182.6900  178.2270  141.2140 C   0  0  0  0  0  0  0  0  0  0  0  0
  182.9390  177.1250  140.3380 N   0  0  0  0  0  2  0  0  0  0  0  0
  181.7410  179.0240  140.9840 O   0  0  0  0  0  0  0  0  0  0  0  0
  181.1480  175.6460  139.5640 C   0  0  0  0  0  1  0  0  0  0  0  0
  182.0720  176.8020  139.2120 C   0  0  2  0  0  3  0  0  0  0  0  0
  183.5880  177.7150  137.4020 C   0  0  0  0  0  1  0  0  0  0  0  0
  182.9000  176.4830  137.9710 C   0  0  0  0  0  2  0  0  0  0  0  0
  1 18  1  0  0  0  0
  1 13  1  0  0  0  0
  2 16  1  0  0  0  0
  2  5  2  0  0  0  0
  4  8  2  0  0  0  0
  4  6  1  0  0  0  0
  5  7  1  0  0  0  0
  6  2  1  0  0  0  0
  7  3  1  6  0  0  0
  7 19  1  0  0  0  0
  8 12  1  0  0  0  0
  9  6  2  0  0  0  0
  9 17  1  0  0  0  0
 10  1  1  0  0  0  0
 11 23  1  0  0  0  0
 12 16  2  0  0  0  0
 13  9  1  0  0  0  0
 14 31  1  6  0  0  0
 15 14  1  0  0  0  0
 15  3  1  1  0  0  0
 16 11  1  0  0  0  0
 17 22  1  0  0  0  0
 17  5  1  0  0  0  0
 18  4  1  0  0  0  0
 19 25  1  1  0  0  0
 20  1  1  0  0  0  0
 21 22  1  6  0  0  0
 21 15  1  0  0  0  0
 21 14  1  0  0  0  0
 23 19  1  0  0  0  0
 24 30  1  0  0  0  0
 25 24  2  0  0  0  0
 25 26  1  0  0  0  0
 26 29  2  0  0  0  0
 29 28  1  0  0  0  0
 29 27  1  0  0  0  0
 30 28  2  0  0  0  0
 32 31  1  0  0  0  0
 33 31  2  0  0  0  0
 35 34  1  1  0  0  0
 35 32  1  0  0  0  0
 36 37  1  0  0  0  0
 37 35  1  0  0  0  0
M  END
>  <MODEL>
1

>  <REMARK>
 VINA RESULT:      -9.3      0.000      0.000
  Name = 
  4 active torsions:
  status: ('A' for Active; 'I' for Inactive)
    1  A    between atoms: C_4  and  N_12
    2  A    between atoms: C_4  and  C_37
    3  A    between atoms: C_8  and  C_18
    4  A    between atoms: C_23  and  C_30
                            x       y       z     vdW  Elec       q    Type
                         _______ _______ _______ _____ _____    ______ ____

>  <TORSDO>
F 4

$$$$
=
 OpenBabel11122411343D

 37 43  0  0  1  0  0  0  0  0999 V2000
  184.6810  178.3120  142.1100 C   0  0  0  0  0  0  0  0  0  0  0  0
  187.1320  178.0580  145.4840 C   0  0  0  0  0  0  0  0  0  0  0  0
  190.8880  177.6370  144.8050 C   0  0  0  0  0  2  0  0  0  0  0  0
  184.9060  178.5440  144.6410 C   0  0  0  0  0  0  0  0  0  0  0  0
  188.2800  177.4780  144.9140 C   0  0  0  0  0  0  0  0  0  0  0  0
  186.1920  178.0670  144.4960 C   0  0  0  0  0  0  0  0  0  0  0  0
  189.6320  177.1800  145.6070 C   0  0  2  0  0  3  0  0  0  0  0  0
  184.5360  179.0280  145.9040 C   0  0  0  0  0  3  0  0  0  0  0  0
  186.7100  177.5260  143.3740 C   0  0  0  0  0  0  0  0  0  0  0  0
  185.1550  179.6920  141.6840 C   0  0  0  0  0  1  0  0  0  0  0  0
  187.7220  178.5380  147.9260 C   0  0  0  0  0  2  0  0  0  0  0  0
  185.4780  179.0240  146.9590 C   0  0  0  0  0  3  0  0  0  0  0  0
  185.8890  177.3390  142.1290 C   0  0  0  0  0  2  0  0  0  0  0  0
  191.4290  177.0220  142.4620 C   0  0  1  0  0  3  0  0  0  0  0  0
  190.5740  177.7620  143.3950 N   0  0  1  0  0  0  0  0  0  0  0  0
  186.7860  178.5250  146.7670 C   0  0  0  0  0  0  0  0  0  0  0  0
  187.9790  177.1340  143.6040 N   0  0  0  0  0  0  0  0  0  0  0  0
  183.9520  178.4210  143.4790 C   0  0  0  0  0  2  0  0  0  0  0  0
  189.8050  177.5730  147.0850 C   0  0  1  0  0  3  0  0  0  0  0  0
  183.6880  177.8190  141.0800 C   0  0  0  0  0  1  0  0  0  0  0  0
  190.2460  176.3710  143.0430 C   0  0  1  0  0  3  0  0  0  0  0  0
  188.8150  176.4910  142.5680 C   0  0  0  0  0  2  0  0  0  0  0  0
  188.5870  177.3000  147.9420 C   0  0  0  0  0  2  0  0  0  0  0  0
  191.3720  175.6290  147.2580 C   0  0  0  0  0  3  0  0  0  0  0  0
  191.0030  176.9070  147.6960 C   0  0  0  0  0  0  0  0  0  0  0  0
  191.7580  177.5430  148.6940 C   0  0  0  0  0  3  0  0  0  0  0  0
  193.6640  177.5790  150.3060 C   0  0  0  0  0  1  0  0  0  0  0  0
  193.2330  175.6270  148.8090 C   0  0  0  0  0  3  0  0  0  0  0  0
  192.8690  176.9030  149.2490 C   0  0  0  0  0  0  0  0  0  0  0  0
  192.4850  174.9900  147.8140 C   0  0  0  0  0  3  0  0  0  0  0  0
  191.1860  177.4860  141.0600 C   0  0  0  0  0  0  0  0  0  0  0  0
  189.8580  177.4700  140.5270 N   0  0  0  0  0  2  0  0  0  0  0  0
  192.1550  177.8610  140.3470 O   0  0  0  0  0  0  0  0  0  0  0  0
  188.0450  178.2310  139.0700 C   0  0  0  0  0  1  0  0  0  0  0  0
  189.5370  177.9710  139.1970 C   0  0  2  0  0  3  0  0  0  0  0  0
  189.3610  177.2480  136.7770 C   0  0  0  0  0  1  0  0  0  0  0  0
  190.0160  176.9950  138.1270 C   0  0  0  0  0  2  0  0  0  0  0  0
  1 13  1  0  0  0  0
  1 18  1  0  0  0  0
  2 16  1  0  0  0  0
  4  8  2  0  0  0  0
  5  2  2  0  0  0  0
  5  7  1  0  0  0  0
  6  4  1  0  0  0  0
  6  2  1  0  0  0  0
  7  3  1  6  0  0  0
  7 19  1  0  0  0  0
  8 12  1  0  0  0  0
  9 17  1  0  0  0  0
  9  6  2  0  0  0  0
 10  1  1  0  0  0  0
 11 23  1  0  0  0  0
 13  9  1  0  0  0  0
 14 31  1  6  0  0  0
 14 21  1  0  0  0  0
 14 15  1  0  0  0  0
 15  3  1  1  0  0  0
 16 12  2  0  0  0  0
 16 11  1  0  0  0  0
 17  5  1  0  0  0  0
 18  4  1  0  0  0  0
 19 25  1  1  0  0  0
 19 23  1  0  0  0  0
 20  1  1  0  0  0  0
 21 22  1  6  0  0  0
 21 15  1  0  0  0  0
 22 17  1  0  0  0  0
 24 25  2  0  0  0  0
 24 30  1  0  0  0  0
 25 26  1  0  0  0  0
 26 29  2  0  0  0  0
 28 29  1  0  0  0  0
 29 27  1  0  0  0  0
 30 28  2  0  0  0  0
 32 31  1  0  0  0  0
 33 31  2  0  0  0  0
 35 34  1  1  0  0  0
 35 32  1  0  0  0  0
 36 37  1  0  0  0  0
 37 35  1  0  0  0  0
M  END
>  <MODEL>
2

>  <REMARK>
 VINA RESULT:      -9.1      2.802      6.280
  Name = 
  4 active torsions:
  status: ('A' for Active; 'I' for Inactive)
    1  A    between atoms: C_4  and  N_12
    2  A    between atoms: C_4  and  C_37
    3  A    between atoms: C_8  and  C_18
    4  A    between atoms: C_23  and  C_30
                            x       y       z     vdW  Elec       q    Type
                         _______ _______ _______ _____ _____    ______ ____

>  <TORSDO>
F 4

$$$$
=
 OpenBabel11122411343D

 37 43  0  0  1  0  0  0  0  0999 V2000
  189.7300  177.4940  142.7840 C   0  0  0  0  0  0  0  0  0  0  0  0
  185.7370  178.1980  143.7950 C   0  0  0  0  0  0  0  0  0  0  0  0
  183.2010  177.9070  140.9280 C   0  0  0  0  0  2  0  0  0  0  0  0
  187.9950  177.8460  144.6220 C   0  0  0  0  0  0  0  0  0  0  0  0
  185.2000  178.4560  142.5210 C   0  0  0  0  0  0  0  0  0  0  0  0
  187.0850  178.0870  143.6130 C   0  0  0  0  0  0  0  0  0  0  0  0
  183.7180  178.7160  142.1550 C   0  0  2  0  0  3  0  0  0  0  0  0
  187.4980  177.7360  145.9280 C   0  0  0  0  0  3  0  0  0  0  0  0
  187.3810  178.2640  142.3090 C   0  0  0  0  0  0  0  0  0  0  0  0
  189.5660  176.0000  142.5610 C   0  0  0  0  0  1  0  0  0  0  0  0
  183.7600  178.2390  145.4170 C   0  0  0  0  0  2  0  0  0  0  0  0
  186.1080  177.8590  146.1610 C   0  0  0  0  0  3  0  0  0  0  0  0
  188.7990  178.2620  141.8100 C   0  0  0  0  0  2  0  0  0  0  0  0
  184.2290  177.8590  138.6690 C   0  0  1  0  0  3  0  0  0  0  0  0
  184.3060  177.4940  140.0870 N   0  0  1  0  0  0  0  0  0  0  0  0
  185.2090  178.1070  145.0980 C   0  0  0  0  0  0  0  0  0  0  0  0
  186.2520  178.5160  141.6180 N   0  0  0  0  0  0  0  0  0  0  0  0
  189.4640  177.8210  144.2810 C   0  0  0  0  0  2  0  0  0  0  0  0
  182.6630  178.6690  143.2740 C   0  0  1  0  0  3  0  0  0  0  0  0
  191.1620  177.8620  142.4630 C   0  0  0  0  0  1  0  0  0  0  0  0
  184.8320  178.7920  139.6330 C   0  0  1  0  0  3  0  0  0  0  0  0
  186.2490  178.7660  140.1610 C   0  0  0  0  0  2  0  0  0  0  0  0
  183.1110  179.3090  144.5720 C   0  0  0  0  0  2  0  0  0  0  0  0
  180.3290  179.4240  143.7660 C   0  0  0  0  0  3  0  0  0  0  0  0
  181.3670  179.2850  142.8370 C   0  0  0  0  0  0  0  0  0  0  0  0
  181.1800  179.7260  141.5170 C   0  0  0  0  0  3  0  0  0  0  0  0
  179.7710  180.7620  139.7350 C   0  0  0  0  0  1  0  0  0  0  0  0
  178.9310  180.4320  142.0640 C   0  0  0  0  0  3  0  0  0  0  0  0
  179.9640  180.2980  141.1330 C   0  0  0  0  0  0  0  0  0  0  0  0
  179.1120  179.9960  143.3800 C   0  0  0  0  0  3  0  0  0  0  0  0
  185.2620  177.1120  137.8850 C   0  0  0  0  0  0  0  0  0  0  0  0
  186.5060  177.7430  137.5700 N   0  0  0  0  0  2  0  0  0  0  0  0
  185.0190  175.9420  137.4840 O   0  0  0  0  0  0  0  0  0  0  0  0
  188.3360  176.1370  137.8230 C   0  0  0  0  0  1  0  0  0  0  0  0
  187.5840  177.0540  136.8720 C   0  0  2  0  0  3  0  0  0  0  0  0
  189.0790  179.0690  137.2150 C   0  0  0  0  0  1  0  0  0  0  0  0
  188.5280  178.0590  136.2190 C   0  0  0  0  0  2  0  0  0  0  0  0
  1 18  1  0  0  0  0
  2 16  1  0  0  0  0
  4  8  2  0  0  0  0
  5  2  2  0  0  0  0
  6  2  1  0  0  0  0
  6  4  1  0  0  0  0
  7  3  1  6  0  0  0
  7  5  1  0  0  0  0
  7 19  1  0  0  0  0
  8 12  1  0  0  0  0
  9  6  2  0  0  0  0
 10  1  1  0  0  0  0
 13  9  1  0  0  0  0
 13  1  1  0  0  0  0
 14 31  1  6  0  0  0
 14 21  1  0  0  0  0
 14 15  1  0  0  0  0
 15  3  1  1  0  0  0
 16 11  1  0  0  0  0
 16 12  2  0  0  0  0
 17  9  1  0  0  0  0
 17  5  1  0  0  0  0
 18  4  1  0  0  0  0
 19 25  1  6  0  0  0
 19 23  1  0  0  0  0
 20  1  1  0  0  0  0
 21 15  1  0  0  0  0
 21 22  1  6  0  0  0
 22 17  1  0  0  0  0
 23 11  1  0  0  0  0
 25 24  2  0  0  0  0
 26 25  1  0  0  0  0
 27 29  1  0  0  0  0
 28 30  2  0  0  0  0
 29 26  2  0  0  0  0
 29 28  1  0  0  0  0
 30 24  1  0  0  0  0
 32 31  1  0  0  0  0
 33 31  2  0  0  0  0
 35 32  1  0  0  0  0
 35 34  1  1  0  0  0
 37 35  1  0  0  0  0
 37 36  1  0  0  0  0
M  END
>  <MODEL>
3

>  <REMARK>
 VINA RESULT:      -8.9      2.207      6.360
  Name = 
  4 active torsions:
  status: ('A' for Active; 'I' for Inactive)
    1  A    between atoms: C_4  and  N_12
    2  A    between atoms: C_4  and  C_37
    3  A    between atoms: C_8  and  C_18
    4  A    between atoms: C_23  and  C_30
                            x       y       z     vdW  Elec       q    Type
                         _______ _______ _______ _____ _____    ______ ____

>  <TORSDO>
F 4

$$$$
=
 OpenBabel11122411343D

 37 43  0  0  1  0  0  0  0  0999 V2000
  190.2250  177.4880  142.7500 C   0  0  0  0  0  0  0  0  0  0  0  0
  186.2260  178.1630  141.7470 C   0  0  0  0  0  0  0  0  0  0  0  0
  185.3280  177.7400  138.0380 C   0  0  0  0  0  2  0  0  0  0  0  0
  187.8320  177.8730  143.5460 C   0  0  0  0  0  0  0  0  0  0  0  0
  186.3490  178.3710  140.3600 C   0  0  0  0  0  0  0  0  0  0  0  0
  187.5010  178.0660  142.2210 C   0  0  0  0  0  0  0  0  0  0  0  0
  185.2110  178.5960  139.3340 C   0  0  2  0  0  3  0  0  0  0  0  0
  186.7800  177.7970  144.4700 C   0  0  0  0  0  3  0  0  0  0  0  0
  188.3740  178.2060  141.2030 C   0  0  0  0  0  0  0  0  0  0  0  0
  190.1830  175.9850  142.5290 C   0  0  0  0  0  1  0  0  0  0  0  0
  183.7190  178.2250  142.2510 C   0  0  0  0  0  2  0  0  0  0  0  0
  185.4430  177.9050  144.0200 C   0  0  0  0  0  3  0  0  0  0  0  0
  189.8600  178.2100  141.4250 C   0  0  0  0  0  2  0  0  0  0  0  0
  187.2960  177.6350  136.5270 C   0  0  1  0  0  3  0  0  0  0  0  0
  186.6990  177.3170  137.8280 N   0  0  1  0  0  0  0  0  0  0  0  0
  185.1480  178.1050  142.6520 C   0  0  0  0  0  0  0  0  0  0  0  0
  187.7010  178.4180  140.0540 N   0  0  0  0  0  0  0  0  0  0  0  0
  189.2890  177.8590  143.9340 C   0  0  0  0  0  2  0  0  0  0  0  0
  183.7550  178.5690  139.8290 C   0  0  1  0  0  3  0  0  0  0  0  0
  191.6410  177.8680  143.1240 C   0  0  0  0  0  1  0  0  0  0  0  0
  187.3770  178.6080  137.6270 C   0  0  1  0  0  3  0  0  0  0  0  0
  188.3820  178.6210  138.7580 C   0  0  0  0  0  2  0  0  0  0  0  0
  183.5430  179.2570  141.1620 C   0  0  0  0  0  2  0  0  0  0  0  0
  182.2790  178.3180  137.8240 C   0  0  0  0  0  3  0  0  0  0  0  0
  182.8160  179.1500  138.8140 C   0  0  0  0  0  0  0  0  0  0  0  0
  182.4650  180.5090  138.8430 C   0  0  0  0  0  3  0  0  0  0  0  0
  181.2200  182.4680  137.9210 C   0  0  0  0  0  1  0  0  0  0  0  0
  181.0570  180.1940  136.9000 C   0  0  0  0  0  3  0  0  0  0  0  0
  181.5880  181.0280  137.8870 C   0  0  0  0  0  0  0  0  0  0  0  0
  181.4010  178.8390  136.8690 C   0  0  0  0  0  3  0  0  0  0  0  0
  188.5750  176.8790  136.3460 C   0  0  0  0  0  0  0  0  0  0  0  0
  188.8020  175.6810  137.0920 N   0  0  0  0  0  2  0  0  0  0  0  0
  189.4560  177.3190  135.5590 O   0  0  0  0  0  0  0  0  0  0  0  0
  189.6300  173.3810  136.9540 C   0  0  0  0  0  1  0  0  0  0  0  0
  189.9910  174.8570  136.9160 C   0  0  2  0  0  3  0  0  0  0  0  0
  192.1110  176.1350  137.4530 C   0  0  0  0  0  1  0  0  0  0  0  0
  191.0370  175.1930  137.9760 C   0  0  0  0  0  2  0  0  0  0  0  0
  1 20  1  0  0  0  0
  1 18  1  0  0  0  0
  2  6  1  0  0  0  0
  2 16  1  0  0  0  0
  4 18  1  0  0  0  0
  4  8  2  0  0  0  0
  5  2  2  0  0  0  0
  6  4  1  0  0  0  0
  7  3  1  6  0  0  0
  7 19  1  0  0  0  0
  7  5  1  0  0  0  0
  9 13  1  0  0  0  0
  9  6  2  0  0  0  0
 10  1  1  0  0  0  0
 11 16  1  0  0  0  0
 12  8  1  0  0  0  0
 13  1  1  0  0  0  0
 14 31  1  1  0  0  0
 14 21  1  0  0  0  0
 14 15  1  0  0  0  0
 15  3  1  6  0  0  0
 16 12  2  0  0  0  0
 17  5  1  0  0  0  0
 17  9  1  0  0  0  0
 19 25  1  6  0  0  0
 19 23  1  0  0  0  0
 21 15  1  0  0  0  0
 21 22  1  1  0  0  0
 22 17  1  0  0  0  0
 23 11  1  0  0  0  0
 24 25  1  0  0  0  0
 25 26  2  0  0  0  0
 28 29  2  0  0  0  0
 29 27  1  0  0  0  0
 29 26  1  0  0  0  0
 30 28  1  0  0  0  0
 30 24  2  0  0  0  0
 31 32  1  0  0  0  0
 33 31  2  0  0  0  0
 35 34  1  1  0  0  0
 35 32  1  0  0  0  0
 35 37  1  0  0  0  0
 36 37  1  0  0  0  0
M  END
>  <MODEL>
4

>  <REMARK>
 VINA RESULT:      -8.9      2.718      7.478
  Name = 
  4 active torsions:
  status: ('A' for Active; 'I' for Inactive)
    1  A    between atoms: C_4  and  N_12
    2  A    between atoms: C_4  and  C_37
    3  A    between atoms: C_8  and  C_18
    4  A    between atoms: C_23  and  C_30
                            x       y       z     vdW  Elec       q    Type
                         _______ _______ _______ _____ _____    ______ ____

>  <TORSDO>
F 4

$$$$
=
 OpenBabel11122411343D

 37 43  0  0  1  0  0  0  0  0999 V2000
  189.6840  177.4520  142.5820 C   0  0  0  0  0  0  0  0  0  0  0  0
  185.6980  178.2360  143.5570 C   0  0  0  0  0  0  0  0  0  0  0  0
  183.1730  177.9290  140.6810 C   0  0  0  0  0  2  0  0  0  0  0  0
  187.9460  177.8650  144.4030 C   0  0  0  0  0  0  0  0  0  0  0  0
  185.1720  178.4780  142.2740 C   0  0  0  0  0  0  0  0  0  0  0  0
  187.0450  178.1000  143.3850 C   0  0  0  0  0  0  0  0  0  0  0  0
  183.6960  178.7540  141.8950 C   0  0  2  0  0  3  0  0  0  0  0  0
  187.4390  177.7880  145.7070 C   0  0  0  0  0  3  0  0  0  0  0  0
  187.3510  178.2490  142.0790 C   0  0  0  0  0  0  0  0  0  0  0  0
  189.4990  175.9560  142.3860 C   0  0  0  0  0  1  0  0  0  0  0  0
  183.7130  178.3380  145.1660 C   0  0  0  0  0  2  0  0  0  0  0  0
  186.0500  177.9360  145.9300 C   0  0  0  0  0  3  0  0  0  0  0  0
  188.7710  178.2160  141.5880 C   0  0  0  0  0  2  0  0  0  0  0  0
  184.2130  177.8230  138.4290 C   0  0  1  0  0  3  0  0  0  0  0  0
  184.2770  177.4840  139.8540 N   0  0  1  0  0  0  0  0  0  0  0  0
  185.1610  178.1770  144.8580 C   0  0  0  0  0  0  0  0  0  0  0  0
  186.2290  178.5040  141.3760 N   0  0  0  0  0  0  0  0  0  0  0  0
  189.4160  177.8110  144.0700 C   0  0  0  0  0  2  0  0  0  0  0  0
  182.6340  178.7440  143.0090 C   0  0  1  0  0  3  0  0  0  0  0  0
  191.1240  177.7920  142.2630 C   0  0  0  0  0  1  0  0  0  0  0  0
  184.8250  178.7650  139.3790 C   0  0  1  0  0  3  0  0  0  0  0  0
  186.2380  178.7270  139.9150 C   0  0  0  0  0  2  0  0  0  0  0  0
  183.0850  179.4020  144.2970 C   0  0  0  0  0  2  0  0  0  0  0  0
  180.2760  179.4560  143.4460 C   0  0  0  0  0  3  0  0  0  0  0  0
  181.3500  179.3720  142.5520 C   0  0  0  0  0  0  0  0  0  0  0  0
  181.2100  179.8770  141.2500 C   0  0  0  0  0  3  0  0  0  0  0  0
  179.8610  180.9890  139.4680 C   0  0  0  0  0  1  0  0  0  0  0  0
  178.9350  180.5370  141.7430 C   0  0  0  0  0  3  0  0  0  0  0  0
  180.0050  180.4570  140.8480 C   0  0  0  0  0  0  0  0  0  0  0  0
  179.0700  180.0380  143.0420 C   0  0  0  0  0  3  0  0  0  0  0  0
  185.2390  177.0460  137.6660 C   0  0  0  0  0  0  0  0  0  0  0  0
  185.0810  175.6340  137.5000 N   0  0  0  0  0  2  0  0  0  0  0  0
  186.2510  177.6340  137.1980 O   0  0  0  0  0  0  0  0  0  0  0  0
  185.4780  174.6470  135.2950 C   0  0  0  0  0  1  0  0  0  0  0  0
  186.0020  174.8260  136.7110 C   0  0  2  0  0  3  0  0  0  0  0  0
  184.9420  172.7290  137.6570 C   0  0  0  0  0  1  0  0  0  0  0  0
  186.2390  173.4760  137.3820 C   0  0  0  0  0  2  0  0  0  0  0  0
  1 18  1  0  0  0  0
  2 16  1  0  0  0  0
  4  8  2  0  0  0  0
  5  2  2  0  0  0  0
  6  2  1  0  0  0  0
  6  4  1  0  0  0  0
  7  3  1  6  0  0  0
  7  5  1  0  0  0  0
  7 19  1  0  0  0  0
  8 12  1  0  0  0  0
  9  6  2  0  0  0  0
 10  1  1  0  0  0  0
 13  9  1  0  0  0  0
 13  1  1  0  0  0  0
 14 31  1  6  0  0  0
 14 21  1  0  0  0  0
 14 15  1  0  0  0  0
 15  3  1  1  0  0  0
 16 11  1  0  0  0  0
 16 12  2  0  0  0  0
 17  9  1  0  0  0  0
 17  5  1  0  0  0  0
 18  4  1  0  0  0  0
 19 25  1  6  0  0  0
 19 23  1  0  0  0  0
 20  1  1  0  0  0  0
 21 15  1  0  0  0  0
 21 22  1  6  0  0  0
 22 17  1  0  0  0  0
 23 11  1  0  0  0  0
 25 24  2  0  0  0  0
 26 25  1  0  0  0  0
 27 29  1  0  0  0  0
 28 30  2  0  0  0  0
 29 26  2  0  0  0  0
 29 28  1  0  0  0  0
 30 24  1  0  0  0  0
 32 31  1  0  0  0  0
 33 31  2  0  0  0  0
 35 34  1  6  0  0  0
 35 37  1  0  0  0  0
 35 32  1  0  0  0  0
 37 36  1  0  0  0  0
M  END
>  <MODEL>
5

>  <REMARK>
 VINA RESULT:      -8.8      2.453      6.269
  Name = 
  4 active torsions:
  status: ('A' for Active; 'I' for Inactive)
    1  A    between atoms: C_4  and  N_12
    2  A    between atoms: C_4  and  C_37
    3  A    between atoms: C_8  and  C_18
    4  A    between atoms: C_23  and  C_30
                            x       y       z     vdW  Elec       q    Type
                         _______ _______ _______ _____ _____    ______ ____

>  <TORSDO>
F 4

$$$$
=
 OpenBabel11122411343D

 37 43  0  0  1  0  0  0  0  0999 V2000
  187.7070  177.7240  143.7030 C   0  0  0  0  0  0  0  0  0  0  0  0
  184.0340  178.6140  141.9230 C   0  0  0  0  0  0  0  0  0  0  0  0
  183.7820  177.9250  138.1540 C   0  0  0  0  0  2  0  0  0  0  0  0
  185.2570  178.3650  144.0080 C   0  0  0  0  0  0  0  0  0  0  0  0
  184.4230  178.6850  140.5720 C   0  0  0  0  0  0  0  0  0  0  0  0
  185.1890  178.4620  142.6330 C   0  0  0  0  0  0  0  0  0  0  0  0
  183.5150  178.9030  139.3380 C   0  0  2  0  0  3  0  0  0  0  0  0
  184.0540  178.4570  144.7220 C   0  0  0  0  0  3  0  0  0  0  0  0
  186.2400  178.4400  141.7880 C   0  0  0  0  0  0  0  0  0  0  0  0
  187.5660  176.2150  143.5930 C   0  0  0  0  0  1  0  0  0  0  0  0
  181.4950  178.9180  141.9430 C   0  0  0  0  0  2  0  0  0  0  0  0
  182.8360  178.6280  144.0230 C   0  0  0  0  0  3  0  0  0  0  0  0
  187.6560  178.3480  142.2840 C   0  0  0  0  0  2  0  0  0  0  0  0
  185.9700  177.5290  137.0500 C   0  0  1  0  0  3  0  0  0  0  0  0
  185.1220  177.3800  138.2370 N   0  0  1  0  0  0  0  0  0  0  0  0
  182.8110  178.7240  142.6130 C   0  0  0  0  0  0  0  0  0  0  0  0
  185.8070  178.5970  140.5210 N   0  0  0  0  0  0  0  0  0  0  0  0
  186.6130  178.2740  144.6610 C   0  0  0  0  0  2  0  0  0  0  0  0
  181.9970  179.0350  139.5520 C   0  0  1  0  0  3  0  0  0  0  0  0
  189.0620  178.0240  144.3060 C   0  0  0  0  0  1  0  0  0  0  0  0
  185.9440  178.5900  138.0690 C   0  0  1  0  0  3  0  0  0  0  0  0
  186.7250  178.6270  139.3640 C   0  0  0  0  0  2  0  0  0  0  0  0
  181.6150  179.8570  140.7660 C   0  0  0  0  0  2  0  0  0  0  0  0
  180.5990  178.7300  137.5000 C   0  0  0  0  0  3  0  0  0  0  0  0
  181.3140  179.5930  138.3390 C   0  0  0  0  0  0  0  0  0  0  0  0
  181.3780  180.9620  138.0330 C   0  0  0  0  0  3  0  0  0  0  0  0
  180.8060  182.9080  136.5780 C   0  0  0  0  0  1  0  0  0  0  0  0
  180.0220  180.5920  136.0630 C   0  0  0  0  0  3  0  0  0  0  0  0
  180.7340  181.4590  136.8980 C   0  0  0  0  0  0  0  0  0  0  0  0
  179.9540  179.2290  136.3640 C   0  0  0  0  0  3  0  0  0  0  0  0
  187.1840  176.6630  137.1690 C   0  0  0  0  0  0  0  0  0  0  0  0
  188.4830  177.2300  136.9740 N   0  0  0  0  0  2  0  0  0  0  0  0
  187.0540  175.4330  137.4120 O   0  0  0  0  0  0  0  0  0  0  0  0
  190.5860  177.0860  138.2180 C   0  0  0  0  0  1  0  0  0  0  0  0
  189.7100  176.4630  137.1420 C   0  0  2  0  0  3  0  0  0  0  0  0
  190.0620  175.1210  135.0240 C   0  0  0  0  0  1  0  0  0  0  0  0
  190.4610  176.3570  135.8180 C   0  0  0  0  0  2  0  0  0  0  0  0
  1 20  1  0  0  0  0
  1 18  1  0  0  0  0
  2 16  1  0  0  0  0
  2  6  1  0  0  0  0
  4 18  1  0  0  0  0
  4  8  2  0  0  0  0
  5  2  2  0  0  0  0
  6  4  1  0  0  0  0
  7  3  1  6  0  0  0
  7 19  1  0  0  0  0
  7  5  1  0  0  0  0
  9 13  1  0  0  0  0
  9  6  2  0  0  0  0
 10  1  1  0  0  0  0
 11 16  1  0  0  0  0
 12  8  1  0  0  0  0
 13  1  1  0  0  0  0
 14 31  1  1  0  0  0
 14 21  1  0  0  0  0
 14 15  1  0  0  0  0
 15  3  1  6  0  0  0
 16 12  2  0  0  0  0
 17  5  1  0  0  0  0
 17  9  1  0  0  0  0
 19 25  1  6  0  0  0
 19 23  1  0  0  0  0
 21 15  1  0  0  0  0
 21 22  1  1  0  0  0
 22 17  1  0  0  0  0
 23 11  1  0  0  0  0
 24 25  1  0  0  0  0
 26 25  2  0  0  0  0
 27 29  1  0  0  0  0
 28 30  1  0  0  0  0
 28 29  2  0  0  0  0
 29 26  1  0  0  0  0
 30 24  2  0  0  0  0
 31 33  2  0  0  0  0
 32 35  1  0  0  0  0
 32 31  1  0  0  0  0
 35 34  1  1  0  0  0
 36 37  1  0  0  0  0
 37 35  1  0  0  0  0
M  END
>  <MODEL>
6

>  <REMARK>
 VINA RESULT:      -8.5      2.716      8.139
  Name = 
  4 active torsions:
  status: ('A' for Active; 'I' for Inactive)
    1  A    between atoms: C_4  and  N_12
    2  A    between atoms: C_4  and  C_37
    3  A    between atoms: C_8  and  C_18
    4  A    between atoms: C_23  and  C_30
                            x       y       z     vdW  Elec       q    Type
                         _______ _______ _______ _____ _____    ______ ____

>  <TORSDO>
F 4

$$$$
=
 OpenBabel11122411343D

 37 43  0  0  1  0  0  0  0  0999 V2000
  187.8320  177.5560  147.4860 C   0  0  0  0  0  0  0  0  0  0  0  0
  189.4380  177.7360  143.6330 C   0  0  0  0  0  0  0  0  0  0  0  0
  187.0160  178.8010  140.8510 C   0  0  0  0  0  2  0  0  0  0  0  0
  189.9090  177.4960  146.0050 C   0  0  0  0  0  0  0  0  0  0  0  0
  188.2570  177.6960  142.8700 C   0  0  0  0  0  0  0  0  0  0  0  0
  189.0500  177.5420  144.9260 C   0  0  0  0  0  0  0  0  0  0  0  0
  188.1220  177.8130  141.3310 C   0  0  2  0  0  3  0  0  0  0  0  0
  191.2800  177.6320  145.7450 C   0  0  0  0  0  3  0  0  0  0  0  0
  187.7110  177.3880  144.9780 C   0  0  0  0  0  0  0  0  0  0  0  0
  187.6820  179.0590  147.6560 C   0  0  0  0  0  1  0  0  0  0  0  0
  191.3500  178.0490  141.9620 C   0  0  0  0  0  2  0  0  0  0  0  0
  191.7250  177.8220  144.4150 C   0  0  0  0  0  3  0  0  0  0  0  0
  186.9940  177.0920  146.2660 C   0  0  0  0  0  2  0  0  0  0  0  0
  184.6260  178.7570  141.5190 C   0  0  1  0  0  3  0  0  0  0  0  0
  186.0240  178.9990  141.8880 N   0  0  1  0  0  0  0  0  0  0  0  0
  190.8100  177.8620  143.3380 C   0  0  0  0  0  0  0  0  0  0  0  0
  187.1980  177.4530  143.7330 N   0  0  0  0  0  0  0  0  0  0  0  0
  189.3410  177.2010  147.3710 C   0  0  0  0  0  2  0  0  0  0  0  0
  189.3940  178.0300  140.4940 C   0  0  1  0  0  3  0  0  0  0  0  0
  187.2790  176.8860  148.7250 C   0  0  0  0  0  1  0  0  0  0  0  0
  185.4550  177.6470  142.0140 C   0  0  1  0  0  3  0  0  0  0  0  0
  185.7530  177.3070  143.4570 C   0  0  0  0  0  2  0  0  0  0  0  0
  190.5850  177.2190  140.9590 C   0  0  0  0  0  2  0  0  0  0  0  0
  189.1920  178.8300  138.1310 C   0  0  0  0  0  3  0  0  0  0  0  0
  189.1480  177.7640  139.0380 C   0  0  0  0  0  0  0  0  0  0  0  0
  188.8800  176.4670  138.5710 C   0  0  0  0  0  3  0  0  0  0  0  0
  188.3700  174.8690  136.7220 C   0  0  0  0  0  1  0  0  0  0  0  0
  188.6970  177.3110  136.3100 C   0  0  0  0  0  3  0  0  0  0  0  0
  188.6550  176.2430  137.2110 C   0  0  0  0  0  0  0  0  0  0  0  0
  188.9660  178.6040  136.7700 C   0  0  0  0  0  3  0  0  0  0  0  0
  183.7120  179.2930  142.5760 C   0  0  0  0  0  0  0  0  0  0  0  0
  182.3050  179.0510  142.4870 N   0  0  0  0  0  2  0  0  0  0  0  0
  184.1830  179.9790  143.5240 O   0  0  0  0  0  0  0  0  0  0  0  0
  180.8780  178.2920  144.3260 C   0  0  0  0  0  1  0  0  0  0  0  0
  181.3650  179.4820  143.5140 C   0  0  2  0  0  3  0  0  0  0  0  0
  180.0300  179.9190  141.4080 C   0  0  0  0  0  1  0  0  0  0  0  0
  180.1940  180.2340  142.8870 C   0  0  0  0  0  2  0  0  0  0  0  0
  1 10  1  0  0  0  0
  1 20  1  0  0  0  0
  2  6  1  0  0  0  0
  4 18  1  0  0  0  0
  5  2  2  0  0  0  0
  5 17  1  0  0  0  0
  6  9  2  0  0  0  0
  6  4  1  0  0  0  0
  7  3  1  1  0  0  0
  7  5  1  0  0  0  0
  8  4  2  0  0  0  0
  9 13  1  0  0  0  0
 11 16  1  0  0  0  0
 12  8  1  0  0  0  0
 13  1  1  0  0  0  0
 14 15  1  0  0  0  0
 14 21  1  0  0  0  0
 14 31  1  1  0  0  0
 15  3  1  6  0  0  0
 15 21  1  0  0  0  0
 16  2  1  0  0  0  0
 16 12  2  0  0  0  0
 17  9  1  0  0  0  0
 18  1  1  0  0  0  0
 19 25  1  6  0  0  0
 19 23  1  0  0  0  0
 19  7  1  0  0  0  0
 21 22  1  1  0  0  0
 22 17  1  0  0  0  0
 23 11  1  0  0  0  0
 24 25  1  0  0  0  0
 26 25  2  0  0  0  0
 27 29  1  0  0  0  0
 28 30  1  0  0  0  0
 28 29  2  0  0  0  0
 29 26  1  0  0  0  0
 30 24  2  0  0  0  0
 31 33  2  0  0  0  0
 32 31  1  0  0  0  0
 32 35  1  0  0  0  0
 35 34  1  6  0  0  0
 36 37  1  0  0  0  0
 37 35  1  0  0  0  0
M  END
>  <MODEL>
7

>  <REMARK>
 VINA RESULT:      -8.4      2.031      6.814
  Name = 
  4 active torsions:
  status: ('A' for Active; 'I' for Inactive)
    1  A    between atoms: C_4  and  N_12
    2  A    between atoms: C_4  and  C_37
    3  A    between atoms: C_8  and  C_18
    4  A    between atoms: C_23  and  C_30
                            x       y       z     vdW  Elec       q    Type
                         _______ _______ _______ _____ _____    ______ ____

>  <TORSDO>
F 4

$$$$
=
 OpenBabel11122411343D

 37 43  0  0  1  0  0  0  0  0999 V2000
  190.6230  176.9890  142.9420 C   0  0  0  0  0  0  0  0  0  0  0  0
  186.9550  178.0850  141.2690 C   0  0  0  0  0  0  0  0  0  0  0  0
  184.2660  179.2700  143.7400 C   0  0  0  0  0  2  0  0  0  0  0  0
  189.2720  177.4950  140.8380 C   0  0  0  0  0  0  0  0  0  0  0  0
  186.1310  178.0120  142.4070 C   0  0  0  0  0  0  0  0  0  0  0  0
  188.1710  177.6090  141.6620 C   0  0  0  0  0  0  0  0  0  0  0  0
  184.6310  178.3820  142.5120 C   0  0  2  0  0  3  0  0  0  0  0  0
  189.1170  177.8710  139.4970 C   0  0  0  0  0  3  0  0  0  0  0  0
  188.1200  177.2560  142.9630 C   0  0  0  0  0  0  0  0  0  0  0  0
  191.0410  178.3990  143.3240 C   0  0  0  0  0  1  0  0  0  0  0  0
  185.4730  178.9650  139.3780 C   0  0  0  0  0  2  0  0  0  0  0  0
  187.8670  178.3580  139.0460 C   0  0  0  0  0  3  0  0  0  0  0  0
  189.2950  176.6350  143.6640 C   0  0  0  0  0  2  0  0  0  0  0  0
  184.7820  178.7630  146.1150 C   0  0  1  0  0  3  0  0  0  0  0  0
  185.2650  179.1340  144.7820 N   0  0  1  0  0  0  0  0  0  0  0  0
  186.7630  178.4580  139.9240 C   0  0  0  0  0  0  0  0  0  0  0  0
  186.8780  177.4690  143.4420 N   0  0  0  0  0  0  0  0  0  0  0  0
  190.5330  176.8810  141.3940 C   0  0  0  0  0  2  0  0  0  0  0  0
  183.9160  178.9270  141.2640 C   0  0  1  0  0  3  0  0  0  0  0  0
  191.6940  176.0350  143.4240 C   0  0  0  0  0  1  0  0  0  0  0  0
  185.1240  177.7140  145.1430 C   0  0  1  0  0  3  0  0  0  0  0  0
  186.5010  177.1680  144.8390 C   0  0  0  0  0  2  0  0  0  0  0  0
  184.3000  178.2260  139.9780 C   0  0  0  0  0  2  0  0  0  0  0  0
  181.6130  179.0120  140.2880 C   0  0  0  0  0  3  0  0  0  0  0  0
  182.4240  178.8930  141.4230 C   0  0  0  0  0  0  0  0  0  0  0  0
  181.8310  178.7400  142.6860 C   0  0  0  0  0  3  0  0  0  0  0  0
  179.8170  178.5510  144.1490 C   0  0  0  0  0  1  0  0  0  0  0  0
  179.6350  178.8320  141.6740 C   0  0  0  0  0  3  0  0  0  0  0  0
  180.4400  178.7110  142.8100 C   0  0  0  0  0  0  0  0  0  0  0  0
  180.2210  178.9820  140.4130 C   0  0  0  0  0  3  0  0  0  0  0  0
  185.8630  178.9640  147.1310 C   0  0  0  0  0  0  0  0  0  0  0  0
  186.7910  177.9090  147.3970 N   0  0  0  0  0  2  0  0  0  0  0  0
  185.9320  180.0500  147.7670 O   0  0  0  0  0  0  0  0  0  0  0  0
  188.7620  179.2570  147.9390 C   0  0  0  0  0  1  0  0  0  0  0  0
  187.9090  178.0570  148.3210 C   0  0  2  0  0  3  0  0  0  0  0  0
  189.7920  176.7410  147.2570 C   0  0  0  0  0  1  0  0  0  0  0  0
  188.7440  176.7810  148.3600 C   0  0  0  0  0  2  0  0  0  0  0  0
  1 10  1  0  0  0  0
  1 20  1  0  0  0  0
  1 13  1  0  0  0  0
  2  6  1  0  0  0  0
  2  5  2  0  0  0  0
  4 18  1  0  0  0  0
  4  6  1  0  0  0  0
  5  7  1  0  0  0  0
  5 17  1  0  0  0  0
  6  9  2  0  0  0  0
  7  3  1  1  0  0  0
  8  4  2  0  0  0  0
  9 17  1  0  0  0  0
  9 13  1  0  0  0  0
 11 16  1  0  0  0  0
 11 23  1  0  0  0  0
 12  8  1  0  0  0  0
 12 16  2  0  0  0  0
 14 31  1  1  0  0  0
 15  3  1  6  0  0  0
 15 21  1  0  0  0  0
 15 14  1  0  0  0  0
 16  2  1  0  0  0  0
 17 22  1  0  0  0  0
 18  1  1  0  0  0  0
 19 25  1  1  0  0  0
 19  7  1  0  0  0  0
 21 22  1  1  0  0  0
 21 14  1  0  0  0  0
 23 19  1  0  0  0  0
 24 30  2  0  0  0  0
 24 25  1  0  0  0  0
 25 26  2  0  0  0  0
 26 29  1  0  0  0  0
 28 29  2  0  0  0  0
 29 27  1  0  0  0  0
 30 28  1  0  0  0  0
 31 32  1  0  0  0  0
 31 33  2  0  0  0  0
 32 35  1  0  0  0  0
 35 34  1  6  0  0  0
 35 37  1  0  0  0  0
 36 37  1  0  0  0  0
M  END
>  <MODEL>
8

>  <REMARK>
 VINA RESULT:      -8.2      2.330      6.896
  Name = 
  4 active torsions:
  status: ('A' for Active; 'I' for Inactive)
    1  A    between atoms: C_4  and  N_12
    2  A    between atoms: C_4  and  C_37
    3  A    between atoms: C_8  and  C_18
    4  A    between atoms: C_23  and  C_30
                            x       y       z     vdW  Elec       q    Type
                         _______ _______ _______ _____ _____    ______ ____

>  <TORSDO>
F 4

$$$$
=
 OpenBabel11122411343D

 37 43  0  0  1  0  0  0  0  0999 V2000
  191.1310  176.5830  143.3500 C   0  0  0  0  0  0  0  0  0  0  0  0
  188.0060  177.9250  140.9240 C   0  0  0  0  0  0  0  0  0  0  0  0
  184.9580  179.3730  142.7560 C   0  0  0  0  0  2  0  0  0  0  0  0
  190.3060  177.1450  141.0030 C   0  0  0  0  0  0  0  0  0  0  0  0
  186.9550  177.9430  141.8600 C   0  0  0  0  0  0  0  0  0  0  0  0
  189.0680  177.3640  141.5710 C   0  0  0  0  0  0  0  0  0  0  0  0
  185.5020  178.4320  141.6400 C   0  0  2  0  0  3  0  0  0  0  0  0
  190.4710  177.5020  139.6570 C   0  0  0  0  0  3  0  0  0  0  0  0
  188.7120  177.0460  142.8330 C   0  0  0  0  0  0  0  0  0  0  0  0
  191.5720  177.9640  143.8050 C   0  0  0  0  0  1  0  0  0  0  0  0
  187.0370  178.8750  138.7560 C   0  0  0  0  0  2  0  0  0  0  0  0
  189.3890  178.0750  138.9470 C   0  0  0  0  0  3  0  0  0  0  0  0
  189.6560  176.3510  143.7730 C   0  0  0  0  0  2  0  0  0  0  0  0
  184.9140  178.8820  145.1890 C   0  0  1  0  0  3  0  0  0  0  0  0
  185.6980  179.1830  143.9880 N   0  0  1  0  0  0  0  0  0  0  0  0
  188.1360  178.2810  139.5670 C   0  0  0  0  0  0  0  0  0  0  0  0
  187.4180  177.3660  143.0340 N   0  0  0  0  0  0  0  0  0  0  0  0
  191.3640  176.4470  141.8190 C   0  0  0  0  0  2  0  0  0  0  0  0
  185.1170  179.0030  140.2640 C   0  0  1  0  0  3  0  0  0  0  0  0
  191.9940  175.5590  144.0560 C   0  0  0  0  0  1  0  0  0  0  0  0
  185.3670  177.7870  144.3180 C   0  0  1  0  0  3  0  0  0  0  0  0
  186.7290  177.1280  144.3190 C   0  0  0  0  0  2  0  0  0  0  0  0
  185.7080  178.2440  139.0940 C   0  0  0  0  0  2  0  0  0  0  0  0
  182.8040  178.2930  140.9050 C   0  0  0  0  0  3  0  0  0  0  0  0
  183.6280  179.0890  140.1000 C   0  0  0  0  0  0  0  0  0  0  0  0
  183.0490  179.9550  139.1590 C   0  0  0  0  0  3  0  0  0  0  0  0
  181.0520  180.9350  138.0250 C   0  0  0  0  0  1  0  0  0  0  0  0
  180.8430  179.2200  139.8290 C   0  0  0  0  0  3  0  0  0  0  0  0
  181.6600  180.0190  139.0240 C   0  0  0  0  0  0  0  0  0  0  0  0
  181.4140  178.3580  140.7690 C   0  0  0  0  0  3  0  0  0  0  0  0
  185.7660  179.0200  146.4120 C   0  0  0  0  0  0  0  0  0  0  0  0
  186.6470  177.9580  146.7860 N   0  0  0  0  0  2  0  0  0  0  0  0
  185.6800  180.0590  147.1210 O   0  0  0  0  0  0  0  0  0  0  0  0
  188.5020  179.2290  147.7540 C   0  0  0  0  0  1  0  0  0  0  0  0
  187.5550  178.0510  147.9220 C   0  0  2  0  0  3  0  0  0  0  0  0
  189.6520  176.7530  147.3440 C   0  0  0  0  0  1  0  0  0  0  0  0
  188.3290  176.7480  148.0970 C   0  0  0  0  0  2  0  0  0  0  0  0
  1 13  1  0  0  0  0
  1 10  1  0  0  0  0
  1 20  1  0  0  0  0
  2  6  1  0  0  0  0
  2  5  2  0  0  0  0
  4  6  1  0  0  0  0
  4 18  1  0  0  0  0
  5 17  1  0  0  0  0
  6  9  2  0  0  0  0
  7  5  1  0  0  0  0
  7  3  1  1  0  0  0
  8  4  2  0  0  0  0
  9 17  1  0  0  0  0
  9 13  1  0  0  0  0
 11 23  1  0  0  0  0
 11 16  1  0  0  0  0
 12 16  2  0  0  0  0
 12  8  1  0  0  0  0
 14 31  1  1  0  0  0
 15  3  1  6  0  0  0
 15 21  1  0  0  0  0
 15 14  1  0  0  0  0
 16  2  1  0  0  0  0
 17 22  1  0  0  0  0
 18  1  1  0  0  0  0
 19 25  1  6  0  0  0
 19  7  1  0  0  0  0
 21 22  1  1  0  0  0
 21 14  1  0  0  0  0
 23 19  1  0  0  0  0
 25 24  2  0  0  0  0
 26 25  1  0  0  0  0
 27 29  1  0  0  0  0
 28 30  2  0  0  0  0
 29 26  2  0  0  0  0
 29 28  1  0  0  0  0
 30 24  1  0  0  0  0
 31 32  1  0  0  0  0
 31 33  2  0  0  0  0
 32 35  1  0  0  0  0
 35 34  1  6  0  0  0
 35 37  1  0  0  0  0
 36 37  1  0  0  0  0
M  END
>  <MODEL>
9

>  <REMARK>
 VINA RESULT:      -8.0      2.220      7.012
  Name = 
  4 active torsions:
  status: ('A' for Active; 'I' for Inactive)
    1  A    between atoms: C_4  and  N_12
    2  A    between atoms: C_4  and  C_37
    3  A    between atoms: C_8  and  C_18
    4  A    between atoms: C_23  and  C_30
                            x       y       z     vdW  Elec       q    Type
                         _______ _______ _______ _____ _____    ______ ____

>  <TORSDO>
F 4

$$$$
