=
 OpenBabel11122410473D

 32 38  0  0  1  0  0  0  0  0999 V2000
  188.0580  178.5820  137.1260 C   0  0  1  0  0  3  0  0  0  0  0  0
  187.5740  177.8240  142.2800 C   0  0  0  0  0  0  0  0  0  0  0  0
  182.9160  178.8400  143.1840 C   0  0  0  0  0  3  0  0  0  0  0  0
  183.2180  178.9810  144.6210 C   0  0  0  0  0  3  0  0  0  0  0  0
  189.1140  177.4030  144.1240 C   0  0  0  0  0  0  0  0  0  0  0  0
  189.2750  177.3210  145.5010 C   0  0  0  0  0  0  0  0  0  0  0  0
  188.2990  177.4580  139.8940 C   0  0  1  0  0  3  0  0  0  0  0  0
  185.9580  178.0850  140.3640 C   0  0  0  0  0  2  0  0  0  0  0  0
  188.7460  177.4110  147.6010 N   0  0  0  0  0  0  0  0  0  0  0  0
  186.8280  178.4730  138.0330 C   0  0  2  0  0  3  0  0  0  0  0  0
  183.8980  178.7580  142.2810 C   0  0  0  0  0  3  0  0  0  0  0  0
  186.2590  178.1800  141.7990 N   0  0  0  0  0  0  0  0  0  0  0  0
  185.3490  178.9150  142.6780 C   0  0  2  0  0  3  0  0  0  0  0  0
  186.7850  178.1340  144.5550 C   0  0  0  0  0  0  0  0  0  0  0  0
  190.0120  177.0280  147.4860 N   0  0  0  0  0  0  0  0  0  0  0  0
  189.4040  178.6240  137.8860 C   0  0  0  0  0  2  0  0  0  0  0  0
  187.1810  178.4410  139.5330 C   0  0  2  0  0  3  0  0  0  0  0  0
  190.3680  176.9610  146.2030 N   0  0  0  0  0  0  0  0  0  0  0  0
  189.5680  177.6490  139.0630 C   0  0  0  0  0  2  0  0  0  0  0  0
  187.3140  177.2590  137.2460 C   0  0  1  0  0  3  0  0  0  0  0  0
  184.4660  178.8410  145.0730 C   0  0  0  0  0  3  0  0  0  0  0  0
  185.5780  178.5680  144.1300 C   0  0  1  0  0  3  0  0  0  0  0  0
  187.0180  178.0060  145.9450 C   0  0  0  0  0  3  0  0  0  0  0  0
  188.6000  177.5410  141.3160 N   0  0  0  0  0  0  0  0  0  0  0  0
  190.1910  177.0860  143.3030 O   0  0  0  0  0  1  0  0  0  0  0  0
  188.0440  177.5880  148.8620 C   0  0  0  0  0  1  0  0  0  0  0  0
  187.8330  177.8000  143.6150 C   0  0  0  0  0  0  0  0  0  0  0  0
  188.2720  177.5970  146.3650 C   0  0  0  0  0  0  0  0  0  0  0  0
  186.4300  177.0700  136.0280 C   0  0  0  0  0  2  0  0  0  0  0  0
  185.8820  175.7250  136.0190 N   0  0  0  0  0  0  0  0  0  0  0  0
  186.7440  174.9080  136.8550 C   0  0  0  0  0  1  0  0  0  0  0  0
  184.5990  175.7940  136.6930 C   0  0  0  0  0  1  0  0  0  0  0  0
  1 20  1  0  0  0  0
  1 16  1  1  0  0  0
  1 10  1  0  0  0  0
  2 27  1  0  0  0  0
  3  4  1  0  0  0  0
  4 21  2  0  0  0  0
  5  6  1  0  0  0  0
  6 18  1  0  0  0  0
  6 28  2  0  0  0  0
  7 19  1  6  0  0  0
  7 24  1  0  0  0  0
  8 12  1  0  0  0  0
  9 26  1  0  0  0  0
 10 17  1  0  0  0  0
 11 13  1  0  0  0  0
 11  3  2  0  0  0  0
 12  2  1  0  0  0  0
 12 13  1  0  0  0  0
 13 22  1  0  0  0  0
 14 23  2  0  0  0  0
 15  9  1  0  0  0  0
 16 19  1  0  0  0  0
 17  7  1  0  0  0  0
 17  8  1  0  0  0  0
 18 15  2  0  0  0  0
 20 10  1  0  0  0  0
 22 14  1  0  0  0  0
 22 21  1  0  0  0  0
 23 28  1  0  0  0  0
 24  2  2  0  0  0  0
 25  5  1  0  0  0  0
 27  5  2  0  0  0  0
 27 14  1  0  0  0  0
 28  9  1  0  0  0  0
 29 20  1  0  0  0  0
 30 29  1  0  0  0  0
 30 32  1  0  0  0  0
 30 31  1  0  0  0  0
M  END
>  <MODEL>
1

>  <REMARK>
 VINA RESULT:     -10.0      0.000      0.000
  Name = 
  2 active torsions:
  status: ('A' for Active; 'I' for Inactive)
    1  A    between atoms: C_20  and  C_29
    2  A    between atoms: C_29  and  N_30
                            x       y       z     vdW  Elec       q    Type
                         _______ _______ _______ _____ _____    ______ ____

>  <TORSDO>
F 2

$$$$
=
 OpenBabel11122410473D

 32 38  0  0  1  0  0  0  0  0999 V2000
  180.2960  178.6010  141.5660 C   0  0  1  0  0  3  0  0  0  0  0  0
  185.0130  178.4370  143.8240 C   0  0  0  0  0  0  0  0  0  0  0  0
  188.1000  178.3000  140.0830 C   0  0  0  0  0  3  0  0  0  0  0  0
  189.1730  177.8230  140.9760 C   0  0  0  0  0  3  0  0  0  0  0  0
  185.8380  178.1500  146.1010 C   0  0  0  0  0  0  0  0  0  0  0  0
  186.9440  177.9290  146.9120 C   0  0  0  0  0  0  0  0  0  0  0  0
  182.6160  179.0900  143.4000 C   0  0  1  0  0  3  0  0  0  0  0  0
  184.1740  178.9070  141.4940 C   0  0  0  0  0  2  0  0  0  0  0  0
  189.0110  177.5520  147.4420 N   0  0  0  0  0  0  0  0  0  0  0  0
  181.7070  178.7970  141.0030 C   0  0  2  0  0  3  0  0  0  0  0  0
  186.8310  178.3400  140.4960 C   0  0  0  0  0  3  0  0  0  0  0  0
  185.2480  178.4750  142.3980 N   0  0  0  0  0  0  0  0  0  0  0  0
  186.4230  177.7990  141.8480 C   0  0  2  0  0  3  0  0  0  0  0  0
  187.3500  177.8730  144.1570 C   0  0  0  0  0  0  0  0  0  0  0  0
  188.2900  177.6670  148.5500 N   0  0  0  0  0  0  0  0  0  0  0  0
  180.2610  178.1220  143.0360 C   0  0  0  0  0  2  0  0  0  0  0  0
  182.8180  178.4620  142.0180 C   0  0  2  0  0  3  0  0  0  0  0  0
  187.0110  177.9010  148.2570 N   0  0  0  0  0  0  0  0  0  0  0  0
  181.2450  178.7930  144.0080 C   0  0  0  0  0  2  0  0  0  0  0  0
  180.8540  180.0050  141.3790 C   0  0  1  0  0  3  0  0  0  0  0  0
  188.9350  177.5990  142.2700 C   0  0  0  0  0  3  0  0  0  0  0  0
  187.5750  177.8010  142.8260 C   0  0  1  0  0  3  0  0  0  0  0  0
  188.4340  177.6760  145.0470 C   0  0  0  0  0  3  0  0  0  0  0  0
  183.6790  178.6710  144.3010 N   0  0  0  0  0  0  0  0  0  0  0  0
  184.6030  178.3790  146.6990 O   0  0  0  0  0  1  0  0  0  0  0  0
  190.4410  177.2920  147.4040 C   0  0  0  0  0  1  0  0  0  0  0  0
  186.0290  178.1470  144.6800 C   0  0  0  0  0  0  0  0  0  0  0  0
  188.1800  177.7160  146.4070 C   0  0  0  0  0  0  0  0  0  0  0  0
  180.2680  180.6130  140.1180 C   0  0  0  0  0  2  0  0  0  0  0  0
  181.1030  180.2810  138.9760 N   0  0  0  0  0  0  0  0  0  0  0  0
  180.2200  179.8030  137.9280 C   0  0  0  0  0  1  0  0  0  0  0  0
  181.6710  181.5290  138.5010 C   0  0  0  0  0  1  0  0  0  0  0  0
  1 16  1  1  0  0  0
  2 24  2  0  0  0  0
  2 27  1  0  0  0  0
  3 11  2  0  0  0  0
  3  4  1  0  0  0  0
  4 21  2  0  0  0  0
  5 25  1  0  0  0  0
  5  6  1  0  0  0  0
  6 18  1  0  0  0  0
  7 19  1  1  0  0  0
  7 24  1  0  0  0  0
  8 17  1  0  0  0  0
  8 12  1  0  0  0  0
  9 15  1  0  0  0  0
 10 20  1  0  0  0  0
 10  1  1  0  0  0  0
 10 17  1  0  0  0  0
 11 13  1  0  0  0  0
 12  2  1  0  0  0  0
 13 12  1  0  0  0  0
 13 22  1  0  0  0  0
 14 27  1  0  0  0  0
 14 23  2  0  0  0  0
 16 19  1  0  0  0  0
 17  7  1  0  0  0  0
 18 15  2  0  0  0  0
 20  1  1  0  0  0  0
 21 22  1  0  0  0  0
 22 14  1  0  0  0  0
 23 28  1  0  0  0  0
 26  9  1  0  0  0  0
 27  5  2  0  0  0  0
 28  6  2  0  0  0  0
 28  9  1  0  0  0  0
 29 20  1  0  0  0  0
 30 29  1  0  0  0  0
 31 30  1  0  0  0  0
 32 30  1  0  0  0  0
M  END
>  <MODEL>
2

>  <REMARK>
 VINA RESULT:      -9.7      2.729      5.544
  Name = 
  2 active torsions:
  status: ('A' for Active; 'I' for Inactive)
    1  A    between atoms: C_20  and  C_29
    2  A    between atoms: C_29  and  N_30
                            x       y       z     vdW  Elec       q    Type
                         _______ _______ _______ _____ _____    ______ ____

>  <TORSDO>
F 2

$$$$
=
 OpenBabel11122410473D

 32 38  0  0  1  0  0  0  0  0999 V2000
  189.4200  177.8550  147.7440 C   0  0  1  0  0  3  0  0  0  0  0  0
  186.5340  177.9980  143.3820 C   0  0  0  0  0  0  0  0  0  0  0  0
  189.7680  177.3930  139.8150 C   0  0  0  0  0  3  0  0  0  0  0  0
  188.7960  177.9130  138.8350 C   0  0  0  0  0  3  0  0  0  0  0  0
  184.2160  178.5390  142.8510 C   0  0  0  0  0  0  0  0  0  0  0  0
  183.2870  178.7930  141.8510 C   0  0  0  0  0  0  0  0  0  0  0  0
  187.2190  177.4630  145.7480 C   0  0  1  0  0  3  0  0  0  0  0  0
  188.8820  177.2680  143.9350 C   0  0  0  0  0  2  0  0  0  0  0  0
  182.5120  179.0920  139.8490 N   0  0  0  0  0  0  0  0  0  0  0  0
  189.7400  177.4830  146.2930 C   0  0  2  0  0  3  0  0  0  0  0  0
  189.5450  177.5010  141.1280 C   0  0  0  0  0  3  0  0  0  0  0  0
  187.8930  177.7450  142.9600 N   0  0  0  0  0  0  0  0  0  0  0  0
  188.3470  178.2530  141.6640 C   0  0  2  0  0  3  0  0  0  0  0  0
  185.9370  178.4360  141.0710 C   0  0  0  0  0  0  0  0  0  0  0  0
  181.5160  179.1840  140.7210 N   0  0  0  0  0  0  0  0  0  0  0  0
  188.0440  178.5360  147.9350 C   0  0  0  0  0  2  0  0  0  0  0  0
  188.6250  177.8770  145.3050 C   0  0  2  0  0  3  0  0  0  0  0  0
  181.9610  179.0030  141.9640 N   0  0  0  0  0  0  0  0  0  0  0  0
  186.8610  177.9390  147.1560 C   0  0  0  0  0  2  0  0  0  0  0  0
  189.3420  176.4030  147.2950 C   0  0  1  0  0  3  0  0  0  0  0  0
  187.5910  178.3310  139.2260 C   0  0  0  0  0  3  0  0  0  0  0  0
  187.2180  178.3050  140.6610 C   0  0  1  0  0  3  0  0  0  0  0  0
  184.9300  178.6770  140.1050 C   0  0  0  0  0  3  0  0  0  0  0  0
  186.2320  177.9270  144.7840 N   0  0  0  0  0  0  0  0  0  0  0  0
  183.7810  178.4850  144.1720 O   0  0  0  0  0  1  0  0  0  0  0  0
  182.3730  179.2430  138.4100 C   0  0  0  0  0  1  0  0  0  0  0  0
  185.5830  178.3320  142.4690 C   0  0  0  0  0  0  0  0  0  0  0  0
  183.6290  178.8450  140.5430 C   0  0  0  0  0  0  0  0  0  0  0  0
  190.5870  175.6690  147.7560 C   0  0  0  0  0  2  0  0  0  0  0  0
  191.7700  176.3040  147.2000 N   0  0  0  0  0  0  0  0  0  0  0  0
  192.8740  176.0030  148.0940 C   0  0  0  0  0  1  0  0  0  0  0  0
  192.0550  175.6280  145.9480 C   0  0  0  0  0  1  0  0  0  0  0  0
  1 16  1  6  0  0  0
  2 24  2  0  0  0  0
  3 11  2  0  0  0  0
  4 21  2  0  0  0  0
  4  3  1  0  0  0  0
  5 25  1  0  0  0  0
  6 18  1  0  0  0  0
  6  5  2  0  0  0  0
  7 19  1  1  0  0  0
  8 17  1  0  0  0  0
  9 28  1  0  0  0  0
  9 15  1  0  0  0  0
 10 20  1  0  0  0  0
 10  1  1  0  0  0  0
 11 13  1  0  0  0  0
 12  2  1  0  0  0  0
 12  8  1  0  0  0  0
 13 12  1  0  0  0  0
 14 27  2  0  0  0  0
 15 18  2  0  0  0  0
 17  7  1  0  0  0  0
 17 10  1  0  0  0  0
 19 16  1  0  0  0  0
 20  1  1  0  0  0  0
 20 29  1  0  0  0  0
 21 22  1  0  0  0  0
 22 14  1  0  0  0  0
 22 13  1  0  0  0  0
 23 28  2  0  0  0  0
 23 14  1  0  0  0  0
 24  7  1  0  0  0  0
 26  9  1  0  0  0  0
 27  5  1  0  0  0  0
 27  2  1  0  0  0  0
 28  6  1  0  0  0  0
 30 29  1  0  0  0  0
 30 31  1  0  0  0  0
 32 30  1  0  0  0  0
M  END
>  <MODEL>
3

>  <REMARK>
 VINA RESULT:      -9.3      2.553      8.186
  Name = 
  2 active torsions:
  status: ('A' for Active; 'I' for Inactive)
    1  A    between atoms: C_20  and  C_29
    2  A    between atoms: C_29  and  N_30
                            x       y       z     vdW  Elec       q    Type
                         _______ _______ _______ _____ _____    ______ ____

>  <TORSDO>
F 2

$$$$
=
 OpenBabel11122410473D

 32 38  0  0  1  0  0  0  0  0999 V2000
  188.7320  178.2060  147.4670 C   0  0  1  0  0  3  0  0  0  0  0  0
  185.4840  178.2580  143.3660 C   0  0  0  0  0  0  0  0  0  0  0  0
  188.4220  177.7600  139.5360 C   0  0  0  0  0  3  0  0  0  0  0  0
  187.3540  178.2490  138.6440 C   0  0  0  0  0  3  0  0  0  0  0  0
  183.1130  178.7240  143.0360 C   0  0  0  0  0  0  0  0  0  0  0  0
  182.0950  178.9480  142.1180 C   0  0  0  0  0  0  0  0  0  0  0  0
  186.3830  177.7440  145.6640 C   0  0  1  0  0  3  0  0  0  0  0  0
  187.8930  177.6040  143.7160 C   0  0  0  0  0  2  0  0  0  0  0  0
  181.1440  179.2240  140.1900 N   0  0  0  0  0  0  0  0  0  0  0  0
  188.9400  177.8450  145.9940 C   0  0  2  0  0  3  0  0  0  0  0  0
  188.3070  177.8600  140.8630 C   0  0  0  0  0  3  0  0  0  0  0  0
  186.8100  178.0490  142.8290 N   0  0  0  0  0  0  0  0  0  0  0  0
  187.1360  178.5720  141.5020 C   0  0  2  0  0  3  0  0  0  0  0  0
  184.6790  178.6770  141.1150 C   0  0  0  0  0  0  0  0  0  0  0  0
  180.2230  179.2830  141.1440 N   0  0  0  0  0  0  0  0  0  0  0  0
  187.3560  178.8410  147.7770 C   0  0  0  0  0  2  0  0  0  0  0  0
  187.7330  178.2030  145.1040 C   0  0  2  0  0  3  0  0  0  0  0  0
  180.7770  179.1150  142.3440 N   0  0  0  0  0  0  0  0  0  0  0  0
  186.1310  178.2070  147.0990 C   0  0  0  0  0  2  0  0  0  0  0  0
  188.6630  176.7520  147.0220 C   0  0  1  0  0  3  0  0  0  0  0  0
  186.1730  178.6280  139.1370 C   0  0  0  0  0  3  0  0  0  0  0  0
  185.9250  178.5890  140.5980 C   0  0  1  0  0  3  0  0  0  0  0  0
  183.5870  178.8870  140.2390 C   0  0  0  0  0  3  0  0  0  0  0  0
  185.3040  178.1760  144.7880 N   0  0  0  0  0  0  0  0  0  0  0  0
  182.7940  178.6550  144.3880 O   0  0  0  0  0  1  0  0  0  0  0  0
  180.8780  179.3700  138.7690 C   0  0  0  0  0  1  0  0  0  0  0  0
  184.4480  178.5610  142.5380 C   0  0  0  0  0  0  0  0  0  0  0  0
  182.3220  179.0130  140.7870 C   0  0  0  0  0  0  0  0  0  0  0  0
  189.9660  176.0580  147.3730 C   0  0  0  0  0  2  0  0  0  0  0  0
  191.0890  176.9170  147.0400 N   0  0  0  0  0  0  0  0  0  0  0  0
  192.0770  176.7530  148.0910 C   0  0  0  0  0  1  0  0  0  0  0  0
  191.6800  176.3780  145.8300 C   0  0  0  0  0  1  0  0  0  0  0  0
  1 16  1  6  0  0  0
  2 24  2  0  0  0  0
  3 11  2  0  0  0  0
  4 21  2  0  0  0  0
  4  3  1  0  0  0  0
  5 25  1  0  0  0  0
  6 18  1  0  0  0  0
  6  5  2  0  0  0  0
  7 19  1  1  0  0  0
  8 17  1  0  0  0  0
  9 28  1  0  0  0  0
  9 15  1  0  0  0  0
 10 20  1  0  0  0  0
 10  1  1  0  0  0  0
 11 13  1  0  0  0  0
 12  2  1  0  0  0  0
 12  8  1  0  0  0  0
 13 12  1  0  0  0  0
 14 27  2  0  0  0  0
 15 18  2  0  0  0  0
 17  7  1  0  0  0  0
 17 10  1  0  0  0  0
 19 16  1  0  0  0  0
 20 29  1  0  0  0  0
 20  1  1  0  0  0  0
 21 22  1  0  0  0  0
 22 14  1  0  0  0  0
 22 13  1  0  0  0  0
 23 28  2  0  0  0  0
 23 14  1  0  0  0  0
 24  7  1  0  0  0  0
 26  9  1  0  0  0  0
 27  5  1  0  0  0  0
 27  2  1  0  0  0  0
 28  6  1  0  0  0  0
 30 29  1  0  0  0  0
 30 31  1  0  0  0  0
 32 30  1  0  0  0  0
M  END
>  <MODEL>
4

>  <REMARK>
 VINA RESULT:      -9.0      2.789      8.212
  Name = 
  2 active torsions:
  status: ('A' for Active; 'I' for Inactive)
    1  A    between atoms: C_20  and  C_29
    2  A    between atoms: C_29  and  N_30
                            x       y       z     vdW  Elec       q    Type
                         _______ _______ _______ _____ _____    ______ ____

>  <TORSDO>
F 2

$$$$
=
 OpenBabel11122410473D

 32 38  0  0  1  0  0  0  0  0999 V2000
  182.2710  178.3680  139.8540 C   0  0  1  0  0  3  0  0  0  0  0  0
  186.4190  178.1830  143.0360 C   0  0  0  0  0  0  0  0  0  0  0  0
  190.2010  177.8390  140.0160 C   0  0  0  0  0  3  0  0  0  0  0  0
  191.0540  177.3710  141.1250 C   0  0  0  0  0  3  0  0  0  0  0  0
  186.7520  177.9640  145.4430 C   0  0  0  0  0  0  0  0  0  0  0  0
  187.6620  177.7480  146.4700 C   0  0  0  0  0  0  0  0  0  0  0  0
  184.1800  178.8730  142.1080 C   0  0  1  0  0  3  0  0  0  0  0  0
  186.0890  178.5850  140.5700 C   0  0  0  0  0  2  0  0  0  0  0  0
  189.5650  177.3460  147.4250 N   0  0  0  0  0  0  0  0  0  0  0  0
  183.7720  178.5110  139.5870 C   0  0  2  0  0  3  0  0  0  0  0  0
  188.8750  177.9220  140.1580 C   0  0  0  0  0  3  0  0  0  0  0  0
  186.9420  178.1630  141.6890 N   0  0  0  0  0  0  0  0  0  0  0  0
  188.1850  177.4410  141.4140 C   0  0  2  0  0  3  0  0  0  0  0  0
  188.6210  177.5800  143.8610 C   0  0  0  0  0  0  0  0  0  0  0  0
  188.6360  177.5180  148.3580 N   0  0  0  0  0  0  0  0  0  0  0  0
  181.9220  177.9450  141.3000 C   0  0  0  0  0  2  0  0  0  0  0  0
  184.6410  178.1890  140.8180 C   0  0  2  0  0  3  0  0  0  0  0  0
  187.4520  177.7700  147.8010 N   0  0  0  0  0  0  0  0  0  0  0  0
  182.7060  178.6290  142.4310 C   0  0  0  0  0  2  0  0  0  0  0  0
  182.8960  179.7510  139.7400 C   0  0  1  0  0  3  0  0  0  0  0  0
  190.5500  177.2010  142.3490 C   0  0  0  0  0  3  0  0  0  0  0  0
  189.1110  177.4540  142.6080 C   0  0  1  0  0  3  0  0  0  0  0  0
  189.4930  177.3930  144.9600 C   0  0  0  0  0  3  0  0  0  0  0  0
  185.0230  178.4650  143.2220 N   0  0  0  0  0  0  0  0  0  0  0  0
  185.4280  178.2420  145.7670 O   0  0  0  0  0  1  0  0  0  0  0  0
  190.9640  177.0530  147.6900 C   0  0  0  0  0  1  0  0  0  0  0  0
  187.2300  177.9030  144.0920 C   0  0  0  0  0  0  0  0  0  0  0  0
  188.9680  177.4890  146.2370 C   0  0  0  0  0  0  0  0  0  0  0  0
  182.5990  180.3230  138.3680 C   0  0  0  0  0  2  0  0  0  0  0  0
  181.1630  180.4620  138.1900 N   0  0  0  0  0  0  0  0  0  0  0  0
  180.6730  181.2610  139.2990 C   0  0  0  0  0  1  0  0  0  0  0  0
  180.9680  181.2550  136.9910 C   0  0  0  0  0  1  0  0  0  0  0  0
  1 16  1  1  0  0  0
  2 24  2  0  0  0  0
  2 27  1  0  0  0  0
  3 11  2  0  0  0  0
  3  4  1  0  0  0  0
  4 21  2  0  0  0  0
  5 25  1  0  0  0  0
  5  6  1  0  0  0  0
  6 18  1  0  0  0  0
  7 19  1  1  0  0  0
  7 24  1  0  0  0  0
  8 17  1  0  0  0  0
  8 12  1  0  0  0  0
  9 26  1  0  0  0  0
  9 15  1  0  0  0  0
 10 20  1  0  0  0  0
 10  1  1  0  0  0  0
 10 17  1  0  0  0  0
 11 13  1  0  0  0  0
 12  2  1  0  0  0  0
 13 12  1  0  0  0  0
 13 22  1  0  0  0  0
 14 27  1  0  0  0  0
 14 23  2  0  0  0  0
 16 19  1  0  0  0  0
 17  7  1  0  0  0  0
 18 15  2  0  0  0  0
 20  1  1  0  0  0  0
 21 22  1  0  0  0  0
 22 14  1  0  0  0  0
 23 28  1  0  0  0  0
 27  5  2  0  0  0  0
 28  6  2  0  0  0  0
 28  9  1  0  0  0  0
 29 20  1  0  0  0  0
 30 29  1  0  0  0  0
 30 31  1  0  0  0  0
 32 30  1  0  0  0  0
M  END
>  <MODEL>
5

>  <REMARK>
 VINA RESULT:      -8.9      2.677      4.987
  Name = 
  2 active torsions:
  status: ('A' for Active; 'I' for Inactive)
    1  A    between atoms: C_20  and  C_29
    2  A    between atoms: C_29  and  N_30
                            x       y       z     vdW  Elec       q    Type
                         _______ _______ _______ _____ _____    ______ ____

>  <TORSDO>
F 2

$$$$
=
 OpenBabel11122410473D

 32 38  0  0  1  0  0  0  0  0999 V2000
  191.2540  175.5110  137.3010 C   0  0  1  0  0  3  0  0  0  0  0  0
  188.6590  177.3600  141.4490 C   0  0  0  0  0  0  0  0  0  0  0  0
  191.6800  176.5830  145.1660 C   0  0  0  0  0  3  0  0  0  0  0  0
  190.5660  176.7520  146.1170 C   0  0  0  0  0  3  0  0  0  0  0  0
  186.3920  178.1610  141.8630 C   0  0  0  0  0  0  0  0  0  0  0  0
  185.4540  178.5360  142.8160 C   0  0  0  0  0  0  0  0  0  0  0  0
  189.5550  177.2020  139.1000 C   0  0  1  0  0  3  0  0  0  0  0  0
  191.0490  176.7010  140.9990 C   0  0  0  0  0  2  0  0  0  0  0  0
  184.6080  178.9020  144.7780 N   0  0  0  0  0  0  0  0  0  0  0  0
  191.7010  175.8170  138.7330 C   0  0  2  0  0  3  0  0  0  0  0  0
  191.4520  176.4650  143.8550 C   0  0  0  0  0  3  0  0  0  0  0  0
  189.9430  176.9150  141.9410 N   0  0  0  0  0  0  0  0  0  0  0  0
  190.0450  176.3900  143.3030 C   0  0  2  0  0  3  0  0  0  0  0  0
  187.8870  177.5500  143.7430 C   0  0  0  0  0  0  0  0  0  0  0  0
  183.7240  179.2460  143.8500 N   0  0  0  0  0  0  0  0  0  0  0  0
  189.7290  175.6270  137.0740 C   0  0  0  0  0  2  0  0  0  0  0  0
  190.5300  176.1690  139.6720 C   0  0  2  0  0  3  0  0  0  0  0  0
  184.2150  179.0340  142.6290 N   0  0  0  0  0  0  0  0  0  0  0  0
  189.0220  176.8310  137.7150 C   0  0  0  0  0  2  0  0  0  0  0  0
  191.9410  176.8310  137.6180 C   0  0  1  0  0  3  0  0  0  0  0  0
  189.3250  176.9800  145.6820 C   0  0  0  0  0  3  0  0  0  0  0  0
  189.0420  177.0400  144.2270 C   0  0  1  0  0  3  0  0  0  0  0  0
  186.8900  177.9720  144.6550 C   0  0  0  0  0  3  0  0  0  0  0  0
  188.4580  177.4250  140.0290 N   0  0  0  0  0  0  0  0  0  0  0  0
  186.0690  178.2890  140.5170 O   0  0  0  0  0  1  0  0  0  0  0  0
  184.3900  179.0030  146.2110 C   0  0  0  0  0  1  0  0  0  0  0  0
  187.6600  177.6690  142.3200 C   0  0  0  0  0  0  0  0  0  0  0  0
  185.6990  178.4570  144.1430 C   0  0  0  0  0  0  0  0  0  0  0  0
  193.3930  176.7580  137.1830 C   0  0  0  0  0  2  0  0  0  0  0  0
  193.5690  175.6770  136.2280 N   0  0  0  0  0  0  0  0  0  0  0  0
  193.9140  176.2860  134.9550 C   0  0  0  0  0  1  0  0  0  0  0  0
  194.7350  174.9290  136.6570 C   0  0  0  0  0  1  0  0  0  0  0  0
  1 16  1  1  0  0  0
  1 20  1  0  0  0  0
  1 10  1  0  0  0  0
  2 12  1  0  0  0  0
  2 27  1  0  0  0  0
  3  4  1  0  0  0  0
  5 27  2  0  0  0  0
  5  6  1  0  0  0  0
  6 28  2  0  0  0  0
  7 19  1  6  0  0  0
  7 17  1  0  0  0  0
  7 24  1  0  0  0  0
  8 12  1  0  0  0  0
  9 26  1  0  0  0  0
 10 17  1  0  0  0  0
 11  3  2  0  0  0  0
 12 13  1  0  0  0  0
 13 11  1  0  0  0  0
 13 22  1  0  0  0  0
 14 22  1  0  0  0  0
 14 23  2  0  0  0  0
 15  9  1  0  0  0  0
 16 19  1  0  0  0  0
 17  8  1  0  0  0  0
 18  6  1  0  0  0  0
 18 15  2  0  0  0  0
 20 10  1  0  0  0  0
 21  4  2  0  0  0  0
 22 21  1  0  0  0  0
 24  2  2  0  0  0  0
 25  5  1  0  0  0  0
 27 14  1  0  0  0  0
 28 23  1  0  0  0  0
 28  9  1  0  0  0  0
 29 20  1  0  0  0  0
 30 32  1  0  0  0  0
 30 29  1  0  0  0  0
 31 30  1  0  0  0  0
M  END
>  <MODEL>
6

>  <REMARK>
 VINA RESULT:      -8.5      2.953      5.437
  Name = 
  2 active torsions:
  status: ('A' for Active; 'I' for Inactive)
    1  A    between atoms: C_20  and  C_29
    2  A    between atoms: C_29  and  N_30
                            x       y       z     vdW  Elec       q    Type
                         _______ _______ _______ _____ _____    ______ ____

>  <TORSDO>
F 2

$$$$
=
 OpenBabel11122410473D

 32 38  0  0  1  0  0  0  0  0999 V2000
  181.1160  179.9260  139.5180 C   0  0  1  0  0  3  0  0  0  0  0  0
  185.5670  178.3600  141.7770 C   0  0  0  0  0  0  0  0  0  0  0  0
  184.4940  178.2120  146.5070 C   0  0  0  0  0  3  0  0  0  0  0  0
  185.9310  178.2090  146.8410 C   0  0  0  0  0  3  0  0  0  0  0  0
  187.8660  178.0220  141.0340 C   0  0  0  0  0  0  0  0  0  0  0  0
  189.1800  177.7820  141.4110 C   0  0  0  0  0  0  0  0  0  0  0  0
  183.6850  178.5000  140.1070 C   0  0  1  0  0  3  0  0  0  0  0  0
  183.1650  178.5360  142.5190 C   0  0  0  0  0  2  0  0  0  0  0  0
  190.8720  177.4570  142.7260 N   0  0  0  0  0  0  0  0  0  0  0  0
  181.4240  179.4280  140.9330 C   0  0  2  0  0  3  0  0  0  0  0  0
  184.0790  178.4720  145.2640 C   0  0  0  0  0  3  0  0  0  0  0  0
  184.5980  178.4890  142.8410 N   0  0  0  0  0  0  0  0  0  0  0  0
  185.0480  178.8790  144.1770 C   0  0  2  0  0  3  0  0  0  0  0  0
  187.3190  178.1670  143.4460 C   0  0  0  0  0  0  0  0  0  0  0  0
  191.2780  177.3750  141.4650 N   0  0  0  0  0  0  0  0  0  0  0  0
  182.3680  180.1490  138.6370 C   0  0  0  0  0  2  0  0  0  0  0  0
  182.9330  179.2600  141.2020 C   0  0  2  0  0  3  0  0  0  0  0  0
  190.2570  177.5690  140.6300 N   0  0  0  0  0  0  0  0  0  0  0  0
  183.4650  179.0750  138.7070 C   0  0  0  0  0  2  0  0  0  0  0  0
  180.8610  178.4720  139.8860 C   0  0  1  0  0  3  0  0  0  0  0  0
  186.8550  178.2790  145.8800 C   0  0  0  0  0  3  0  0  0  0  0  0
  186.4490  178.3870  144.4570 C   0  0  1  0  0  3  0  0  0  0  0  0
  188.6730  177.8960  143.7550 C   0  0  0  0  0  3  0  0  0  0  0  0
  185.1050  178.4430  140.4200 N   0  0  0  0  0  0  0  0  0  0  0  0
  187.5540  178.0630  139.6780 O   0  0  0  0  0  1  0  0  0  0  0  0
  191.7330  177.2990  143.8870 C   0  0  0  0  0  1  0  0  0  0  0  0
  186.8870  178.2030  142.0660 C   0  0  0  0  0  0  0  0  0  0  0  0
  189.5590  177.7100  142.7070 C   0  0  0  0  0  0  0  0  0  0  0  0
  179.3790  178.2720  140.1410 C   0  0  0  0  0  2  0  0  0  0  0  0
  178.9860  176.9300  139.7460 N   0  0  0  0  0  0  0  0  0  0  0  0
  179.8190  176.5590  138.6150 C   0  0  0  0  0  1  0  0  0  0  0  0
  179.3570  176.0490  140.8380 C   0  0  0  0  0  1  0  0  0  0  0  0
  1 16  1  6  0  0  0
  1 20  1  0  0  0  0
  1 10  1  0  0  0  0
  2 27  1  0  0  0  0
  2 12  1  0  0  0  0
  3  4  1  0  0  0  0
  5  6  2  0  0  0  0
  5 27  1  0  0  0  0
  6 28  1  0  0  0  0
  7 19  1  6  0  0  0
  7 24  1  0  0  0  0
  7 17  1  0  0  0  0
  8 12  1  0  0  0  0
  9 26  1  0  0  0  0
 10 17  1  0  0  0  0
 11  3  2  0  0  0  0
 12 13  1  0  0  0  0
 13 22  1  0  0  0  0
 13 11  1  0  0  0  0
 14 23  1  0  0  0  0
 14 22  1  0  0  0  0
 15  9  1  0  0  0  0
 16 19  1  0  0  0  0
 17  8  1  0  0  0  0
 18  6  1  0  0  0  0
 18 15  2  0  0  0  0
 20 29  1  0  0  0  0
 20 10  1  0  0  0  0
 21  4  2  0  0  0  0
 22 21  1  0  0  0  0
 24  2  2  0  0  0  0
 25  5  1  0  0  0  0
 27 14  2  0  0  0  0
 28  9  1  0  0  0  0
 28 23  2  0  0  0  0
 30 29  1  0  0  0  0
 30 32  1  0  0  0  0
 31 30  1  0  0  0  0
M  END
>  <MODEL>
7

>  <REMARK>
 VINA RESULT:      -8.5      2.941      5.011
  Name = 
  2 active torsions:
  status: ('A' for Active; 'I' for Inactive)
    1  A    between atoms: C_20  and  C_29
    2  A    between atoms: C_29  and  N_30
                            x       y       z     vdW  Elec       q    Type
                         _______ _______ _______ _____ _____    ______ ____

>  <TORSDO>
F 2

$$$$
=
 OpenBabel11122410473D

 32 38  0  0  1  0  0  0  0  0999 V2000
  191.6820  175.6290  147.1600 C   0  0  1  0  0  3  0  0  0  0  0  0
  188.2980  177.6970  143.7490 C   0  0  0  0  0  0  0  0  0  0  0  0
  184.4170  178.7780  146.4540 C   0  0  0  0  0  3  0  0  0  0  0  0
  183.5870  178.8730  145.2380 C   0  0  0  0  0  3  0  0  0  0  0  0
  188.1960  177.9180  141.3220 C   0  0  0  0  0  0  0  0  0  0  0  0
  187.4170  178.2530  140.2220 C   0  0  0  0  0  0  0  0  0  0  0  0
  190.4810  177.1890  144.9010 C   0  0  1  0  0  3  0  0  0  0  0  0
  188.4700  177.6320  146.2620 C   0  0  0  0  0  2  0  0  0  0  0  0
  185.6620  178.8660  139.1070 N   0  0  0  0  0  0  0  0  0  0  0  0
  190.3790  176.4080  147.3580 C   0  0  2  0  0  3  0  0  0  0  0  0
  185.6500  178.2660  146.4050 C   0  0  0  0  0  3  0  0  0  0  0  0
  187.6610  177.7690  145.0440 N   0  0  0  0  0  0  0  0  0  0  0  0
  186.2040  177.6640  145.1330 C   0  0  2  0  0  3  0  0  0  0  0  0
  186.1740  178.2540  142.7150 C   0  0  0  0  0  0  0  0  0  0  0  0
  186.6770  178.6980  138.2680 N   0  0  0  0  0  0  0  0  0  0  0  0
  191.9810  175.2550  145.6900 C   0  0  0  0  0  2  0  0  0  0  0  0
  189.6120  176.6530  146.0430 C   0  0  2  0  0  3  0  0  0  0  0  0
  187.7740  178.3220  138.9250 N   0  0  0  0  0  0  0  0  0  0  0  0
  191.7230  176.3400  144.6320 C   0  0  0  0  0  2  0  0  0  0  0  0
  191.7230  177.1230  147.4460 C   0  0  1  0  0  3  0  0  0  0  0  0
  184.1080  178.6280  144.0350 C   0  0  0  0  0  3  0  0  0  0  0  0
  185.5300  178.2270  143.9030 C   0  0  1  0  0  3  0  0  0  0  0  0
  185.4490  178.6050  141.5510 C   0  0  0  0  0  3  0  0  0  0  0  0
  189.6860  177.3330  143.6910 N   0  0  0  0  0  0  0  0  0  0  0  0
  189.5350  177.5980  141.1220 O   0  0  0  0  0  1  0  0  0  0  0  0
  184.3220  179.2700  138.7180 C   0  0  0  0  0  1  0  0  0  0  0  0
  187.5810  177.9330  142.6170 C   0  0  0  0  0  0  0  0  0  0  0  0
  186.1130  178.5910  140.3360 C   0  0  0  0  0  0  0  0  0  0  0  0
  192.0740  177.3440  148.9060 C   0  0  0  0  0  2  0  0  0  0  0  0
  193.3880  176.7920  149.1870 N   0  0  0  0  0  0  0  0  0  0  0  0
  193.9090  177.5030  150.3420 C   0  0  0  0  0  1  0  0  0  0  0  0
  193.1800  175.4190  149.6070 C   0  0  0  0  0  1  0  0  0  0  0  0
  1 16  1  6  0  0  0
  1 10  1  0  0  0  0
  1 20  1  0  0  0  0
  2 12  1  0  0  0  0
  4  3  1  0  0  0  0
  5 27  1  0  0  0  0
  6 28  1  0  0  0  0
  6  5  2  0  0  0  0
  7 19  1  6  0  0  0
  7 17  1  0  0  0  0
  9 28  1  0  0  0  0
 10 20  1  0  0  0  0
 11  3  2  0  0  0  0
 12 13  1  0  0  0  0
 12  8  1  0  0  0  0
 13 11  1  0  0  0  0
 14 22  1  0  0  0  0
 15 18  2  0  0  0  0
 15  9  1  0  0  0  0
 17  8  1  0  0  0  0
 17 10  1  0  0  0  0
 18  6  1  0  0  0  0
 19 16  1  0  0  0  0
 20 29  1  0  0  0  0
 21  4  2  0  0  0  0
 22 21  1  0  0  0  0
 22 13  1  0  0  0  0
 23 14  1  0  0  0  0
 24  2  2  0  0  0  0
 24  7  1  0  0  0  0
 25  5  1  0  0  0  0
 26  9  1  0  0  0  0
 27 14  2  0  0  0  0
 27  2  1  0  0  0  0
 28 23  2  0  0  0  0
 29 30  1  0  0  0  0
 30 32  1  0  0  0  0
 30 31  1  0  0  0  0
M  END
>  <MODEL>
8

>  <REMARK>
 VINA RESULT:      -8.2      2.589      7.991
  Name = 
  2 active torsions:
  status: ('A' for Active; 'I' for Inactive)
    1  A    between atoms: C_20  and  C_29
    2  A    between atoms: C_29  and  N_30
                            x       y       z     vdW  Elec       q    Type
                         _______ _______ _______ _____ _____    ______ ____

>  <TORSDO>
F 2

$$$$
=
 OpenBabel11122410473D

 32 38  0  0  1  0  0  0  0  0999 V2000
  180.6460  178.3670  139.3360 C   0  0  1  0  0  3  0  0  0  0  0  0
  185.6320  178.4610  140.9170 C   0  0  0  0  0  0  0  0  0  0  0  0
  188.1660  178.7640  136.7900 C   0  0  0  0  0  3  0  0  0  0  0  0
  189.3850  178.3270  137.4980 C   0  0  0  0  0  3  0  0  0  0  0  0
  186.7860  178.1230  143.0390 C   0  0  0  0  0  0  0  0  0  0  0  0
  188.0080  177.9480  143.6760 C   0  0  0  0  0  0  0  0  0  0  0  0
  183.1590  178.9430  140.8640 C   0  0  1  0  0  3  0  0  0  0  0  0
  184.4430  178.9830  138.7570 C   0  0  0  0  0  2  0  0  0  0  0  0
  190.1510  177.7100  143.8960 N   0  0  0  0  0  0  0  0  0  0  0  0
  181.9460  178.7030  138.5990 C   0  0  2  0  0  3  0  0  0  0  0  0
  186.9670  178.6810  137.3730 C   0  0  0  0  0  3  0  0  0  0  0  0
  185.6610  178.5910  139.4780 N   0  0  0  0  0  0  0  0  0  0  0  0
  186.7930  178.0400  138.7320 C   0  0  2  0  0  3  0  0  0  0  0  0
  188.0270  178.0680  140.8940 C   0  0  0  0  0  0  0  0  0  0  0  0
  189.5860  177.7090  145.0970 N   0  0  0  0  0  0  0  0  0  0  0  0
  180.8510  177.8110  140.7640 C   0  0  0  0  0  2  0  0  0  0  0  0
  183.2090  178.4050  139.4310 C   0  0  2  0  0  3  0  0  0  0  0  0
  188.2650  177.8560  144.9960 N   0  0  0  0  0  0  0  0  0  0  0  0
  181.9110  178.5070  141.6330 C   0  0  0  0  0  2  0  0  0  0  0  0
  181.0700  179.8180  139.1620 C   0  0  1  0  0  3  0  0  0  0  0  0
  189.3470  178.0180  138.7950 C   0  0  0  0  0  3  0  0  0  0  0  0
  188.0680  178.0830  139.5430 C   0  0  1  0  0  3  0  0  0  0  0  0
  189.2360  177.9120  141.6140 C   0  0  0  0  0  3  0  0  0  0  0  0
  184.3650  178.5640  141.5840 N   0  0  0  0  0  0  0  0  0  0  0  0
  185.6340  178.2210  143.8120 O   0  0  0  0  0  1  0  0  0  0  0  0
  191.5760  177.5660  143.6480 C   0  0  0  0  0  1  0  0  0  0  0  0
  186.7760  178.2080  141.6070 C   0  0  0  0  0  0  0  0  0  0  0  0
  189.1730  177.8600  142.9960 C   0  0  0  0  0  0  0  0  0  0  0  0
  180.2710  180.4420  138.0330 C   0  0  0  0  0  2  0  0  0  0  0  0
  180.1010  181.8650  138.2760 N   0  0  0  0  0  0  0  0  0  0  0  0
  181.3850  182.4960  138.0250 C   0  0  0  0  0  1  0  0  0  0  0  0
  179.1940  182.3550  137.2550 C   0  0  0  0  0  1  0  0  0  0  0  0
  1 16  1  1  0  0  0
  2 24  2  0  0  0  0
  2 27  1  0  0  0  0
  3 11  2  0  0  0  0
  3  4  1  0  0  0  0
  4 21  2  0  0  0  0
  5  6  1  0  0  0  0
  5 25  1  0  0  0  0
  6 18  1  0  0  0  0
  7 24  1  0  0  0  0
  7 19  1  1  0  0  0
  8 17  1  0  0  0  0
  8 12  1  0  0  0  0
  9 15  1  0  0  0  0
 10 20  1  0  0  0  0
 10  1  1  0  0  0  0
 10 17  1  0  0  0  0
 11 13  1  0  0  0  0
 12  2  1  0  0  0  0
 13 12  1  0  0  0  0
 13 22  1  0  0  0  0
 14 27  1  0  0  0  0
 14 23  2  0  0  0  0
 16 19  1  0  0  0  0
 17  7  1  0  0  0  0
 18 15  2  0  0  0  0
 20  1  1  0  0  0  0
 21 22  1  0  0  0  0
 22 14  1  0  0  0  0
 23 28  1  0  0  0  0
 26  9  1  0  0  0  0
 27  5  2  0  0  0  0
 28  6  2  0  0  0  0
 28  9  1  0  0  0  0
 29 30  1  0  0  0  0
 29 20  1  0  0  0  0
 31 30  1  0  0  0  0
 32 30  1  0  0  0  0
M  END
>  <MODEL>
9

>  <REMARK>
 VINA RESULT:      -7.8      3.302      5.899
  Name = 
  2 active torsions:
  status: ('A' for Active; 'I' for Inactive)
    1  A    between atoms: C_20  and  C_29
    2  A    between atoms: C_29  and  N_30
                            x       y       z     vdW  Elec       q    Type
                         _______ _______ _______ _____ _____    ______ ____

>  <TORSDO>
F 2

$$$$
