=
 OpenBabel11122411153D

 31 35  0  0  1  0  0  0  0  0999 V2000
  189.9900  175.9780  142.7180 C   0  0  0  0  0  0  0  0  0  0  0  0
  186.4580  177.1990  143.4570 C   0  0  2  0  0  3  0  0  0  0  0  0
  186.4870  177.9170  144.7990 C   0  0  0  0  0  0  0  0  0  0  0  0
  187.5220  178.2330  146.9810 C   0  0  0  0  0  0  0  0  0  0  0  0
  187.8230  177.0640  142.8230 C   0  0  0  0  0  0  0  0  0  0  0  0
  190.3660  176.8210  141.6700 C   0  0  0  0  0  3  0  0  0  0  0  0
  187.5190  177.6490  145.7140 C   0  0  0  0  0  3  0  0  0  0  0  0
  186.0250  179.0860  141.8240 C   0  0  2  0  0  3  0  0  0  0  0  0
  190.8570  175.0460  143.1810 F   0  0  0  0  0  0  0  0  0  0  0  0
  184.2810  179.0920  144.2870 C   0  0  0  0  0  2  0  0  0  0  0  0
  188.6320  177.9490  147.9270 C   0  0  0  0  0  1  0  0  0  0  0  0
  187.2950  178.8290  141.2270 O   0  0  0  0  0  0  0  0  0  0  0  0
  185.4510  177.8110  142.4630 C   0  0  2  0  0  3  0  0  0  0  0  0
  188.7210  176.0960  143.2920 C   0  0  0  0  0  3  0  0  0  0  0  0
  186.4790  179.0780  147.3620 C   0  0  0  0  0  3  0  0  0  0  0  0
  188.1990  177.9030  141.7560 C   0  0  0  0  0  0  0  0  0  0  0  0
  189.4700  177.7790  141.1860 C   0  0  0  0  0  3  0  0  0  0  0  0
  184.1180  178.0720  143.1640 C   0  0  0  0  0  2  0  0  0  0  0  0
  185.4140  178.7450  145.2080 C   0  0  0  0  0  0  0  0  0  0  0  0
  185.4310  179.3330  146.4770 C   0  0  0  0  0  3  0  0  0  0  0  0
  185.3140  177.7480  139.4140 O   0  0  0  0  0  0  0  0  0  0  0  0
  184.7900  178.8750  139.6300 C   0  0  0  0  0  0  0  0  0  0  0  0
  185.1090  179.6020  140.8170 N   0  0  0  0  0  2  0  0  0  0  0  0
  181.0770  178.5660  138.9070 N   0  0  0  0  0  0  0  0  0  0  0  0
  182.7510  180.3070  139.3430 C   0  0  0  0  0  2  0  0  0  0  0  0
  184.1630  177.5760  137.1780 O   0  0  0  0  0  1  0  0  0  0  0  0
  180.0700  177.7470  139.5580 C   0  0  0  0  0  1  0  0  0  0  0  0
  181.6730  179.4030  139.9460 C   0  0  0  0  0  2  0  0  0  0  0  0
  183.1980  178.4420  137.6960 C   0  0  2  0  0  3  0  0  0  0  0  0
  183.8310  179.4750  138.6430 C   0  0  2  0  0  3  0  0  0  0  0  0
  182.0990  177.6520  138.4030 C   0  0  0  0  0  2  0  0  0  0  0  0
  1  9  1  0  0  0  0
  1 14  1  0  0  0  0
  2  5  1  6  0  0  0
  2  3  1  0  0  0  0
  3 19  2  0  0  0  0
  3  7  1  0  0  0  0
  4 15  1  0  0  0  0
  4 11  1  0  0  0  0
  5 14  2  0  0  0  0
  6  1  2  0  0  0  0
  7  4  2  0  0  0  0
  8 23  1  6  0  0  0
  8 13  1  0  0  0  0
 10 19  1  0  0  0  0
 12 16  1  0  0  0  0
 12  8  1  0  0  0  0
 13 18  1  1  0  0  0
 13  2  1  0  0  0  0
 16  5  1  0  0  0  0
 17  6  1  0  0  0  0
 17 16  2  0  0  0  0
 18 10  1  0  0  0  0
 19 20  1  0  0  0  0
 20 15  2  0  0  0  0
 21 22  2  0  0  0  0
 22 23  1  0  0  0  0
 24 27  1  0  0  0  0
 24 28  1  0  0  0  0
 25 28  1  0  0  0  0
 29 26  1  1  0  0  0
 29 31  1  0  0  0  0
 29 30  1  0  0  0  0
 30 25  1  0  0  0  0
 30 22  1  1  0  0  0
 31 24  1  0  0  0  0
M  END
>  <MODEL>
1

>  <REMARK>
 VINA RESULT:      -9.9      0.000      0.000
  Name = 
  2 active torsions:
  status: ('A' for Active; 'I' for Inactive)
    1  A    between atoms: C_5  and  C_30
    2  A    between atoms: C_10  and  N_16
                            x       y       z     vdW  Elec       q    Type
                         _______ _______ _______ _____ _____    ______ ____

>  <TORSDO>
F 2

$$$$
=
 OpenBabel11122411153D

 31 35  0  0  1  0  0  0  0  0999 V2000
  191.4040  176.3050  144.5830 C   0  0  0  0  0  0  0  0  0  0  0  0
  187.7270  176.9750  143.8490 C   0  0  2  0  0  3  0  0  0  0  0  0
  187.1600  177.7760  145.0130 C   0  0  0  0  0  0  0  0  0  0  0  0
  187.2560  178.4020  147.3650 C   0  0  0  0  0  0  0  0  0  0  0  0
  189.2340  177.0250  143.7690 C   0  0  0  0  0  0  0  0  0  0  0  0
  192.0330  177.1270  143.6440 C   0  0  0  0  0  3  0  0  0  0  0  0
  187.8010  177.7430  146.2630 C   0  0  0  0  0  3  0  0  0  0  0  0
  187.6960  178.6520  141.9520 C   0  0  2  0  0  3  0  0  0  0  0  0
  192.1470  175.5600  145.4370 F   0  0  0  0  0  0  0  0  0  0  0  0
  185.1740  178.5360  143.6040 C   0  0  0  0  0  2  0  0  0  0  0  0
  187.9590  178.3680  148.6740 C   0  0  0  0  0  1  0  0  0  0  0  0
  189.1200  178.5680  141.8870 O   0  0  0  0  0  0  0  0  0  0  0  0
  187.0940  177.3460  142.4930 C   0  0  2  0  0  3  0  0  0  0  0  0
  190.0090  176.2510  144.6440 C   0  0  0  0  0  3  0  0  0  0  0  0
  186.0470  179.0880  147.2400 C   0  0  0  0  0  3  0  0  0  0  0  0
  189.8710  177.8410  142.8140 C   0  0  0  0  0  0  0  0  0  0  0  0
  191.2680  177.8890  142.7580 C   0  0  0  0  0  3  0  0  0  0  0  0
  185.5740  177.4300  142.6310 C   0  0  0  0  0  2  0  0  0  0  0  0
  185.9160  178.4420  144.9050 C   0  0  0  0  0  0  0  0  0  0  0  0
  185.3820  179.1080  146.0130 C   0  0  0  0  0  3  0  0  0  0  0  0
  188.3370  177.2190  139.5760 O   0  0  0  0  0  0  0  0  0  0  0  0
  187.5240  178.1790  139.4760 C   0  0  0  0  0  0  0  0  0  0  0  0
  187.1650  178.9430  140.6280 N   0  0  0  0  0  2  0  0  0  0  0  0
  187.5080  176.6650  135.9950 N   0  0  0  0  0  0  0  0  0  0  0  0
  185.9190  177.4840  137.6770 C   0  0  0  0  0  2  0  0  0  0  0  0
  188.9860  179.6550  137.5330 O   0  0  0  0  0  1  0  0  0  0  0  0
  188.1460  175.4570  135.5070 C   0  0  0  0  0  1  0  0  0  0  0  0
  186.6400  176.2630  137.1010 C   0  0  0  0  0  2  0  0  0  0  0  0
  187.9750  178.8180  137.0580 C   0  0  2  0  0  3  0  0  0  0  0  0
  186.9260  178.5400  138.1470 C   0  0  2  0  0  3  0  0  0  0  0  0
  188.5710  177.5160  136.5250 C   0  0  0  0  0  2  0  0  0  0  0  0
  1 14  1  0  0  0  0
  1  9  1  0  0  0  0
  2  5  1  6  0  0  0
  2  3  1  0  0  0  0
  3  7  1  0  0  0  0
  4 11  1  0  0  0  0
  5 14  2  0  0  0  0
  6  1  2  0  0  0  0
  7  4  2  0  0  0  0
  8 23  1  6  0  0  0
  8 13  1  0  0  0  0
 10 19  1  0  0  0  0
 12  8  1  0  0  0  0
 12 16  1  0  0  0  0
 13 18  1  1  0  0  0
 13  2  1  0  0  0  0
 15  4  1  0  0  0  0
 16  5  1  0  0  0  0
 17 16  2  0  0  0  0
 17  6  1  0  0  0  0
 18 10  1  0  0  0  0
 19  3  2  0  0  0  0
 19 20  1  0  0  0  0
 20 15  2  0  0  0  0
 22 21  2  0  0  0  0
 22 23  1  0  0  0  0
 24 31  1  0  0  0  0
 24 28  1  0  0  0  0
 25 30  1  0  0  0  0
 27 24  1  0  0  0  0
 28 25  1  0  0  0  0
 29 26  1  1  0  0  0
 29 30  1  0  0  0  0
 30 22  1  1  0  0  0
 31 29  1  0  0  0  0
M  END
>  <MODEL>
2

>  <REMARK>
 VINA RESULT:      -9.9      2.753      3.536
  Name = 
  2 active torsions:
  status: ('A' for Active; 'I' for Inactive)
    1  A    between atoms: C_5  and  C_30
    2  A    between atoms: C_10  and  N_16
                            x       y       z     vdW  Elec       q    Type
                         _______ _______ _______ _____ _____    ______ ____

>  <TORSDO>
F 2

$$$$
=
 OpenBabel11122411153D

 31 35  0  0  1  0  0  0  0  0999 V2000
  184.1340  178.7210  144.1860 C   0  0  0  0  0  0  0  0  0  0  0  0
  182.8650  177.9490  140.6790 C   0  0  2  0  0  3  0  0  0  0  0  0
  181.6160  178.7860  140.4430 C   0  0  0  0  0  0  0  0  0  0  0  0
  179.6950  179.9790  141.3470 C   0  0  0  0  0  0  0  0  0  0  0  0
  183.7250  178.4650  141.8080 C   0  0  0  0  0  0  0  0  0  0  0  0
  185.3010  179.4390  143.9120 C   0  0  0  0  0  3  0  0  0  0  0  0
  180.8870  179.2790  141.5380 C   0  0  0  0  0  3  0  0  0  0  0  0
  184.5430  178.9910  139.0930 C   0  0  2  0  0  3  0  0  0  0  0  0
  183.7610  178.4990  145.4700 F   0  0  0  0  0  0  0  0  0  0  0  0
  181.8110  178.4780  137.9180 C   0  0  0  0  0  2  0  0  0  0  0  0
  178.9480  180.5050  142.5190 C   0  0  0  0  0  1  0  0  0  0  0  0
  185.3390  179.3620  140.2180 O   0  0  0  0  0  0  0  0  0  0  0  0
  183.7050  177.7400  139.4030 C   0  0  2  0  0  3  0  0  0  0  0  0
  183.3500  178.2320  143.1380 C   0  0  0  0  0  3  0  0  0  0  0  0
  179.2010  180.1780  140.0580 C   0  0  0  0  0  3  0  0  0  0  0  0
  184.9090  179.1770  141.5350 C   0  0  0  0  0  0  0  0  0  0  0  0
  185.6900  179.6630  142.5890 C   0  0  0  0  0  3  0  0  0  0  0  0
  182.7960  177.3560  138.2350 C   0  0  0  0  0  2  0  0  0  0  0  0
  181.0880  178.9600  139.1410 C   0  0  0  0  0  0  0  0  0  0  0  0
  179.8970  179.6720  138.9600 C   0  0  0  0  0  3  0  0  0  0  0  0
  187.1670  177.8930  139.2130 O   0  0  0  0  0  0  0  0  0  0  0  0
  186.7120  178.1900  138.0750 C   0  0  0  0  0  0  0  0  0  0  0  0
  185.4050  178.7510  137.9450 N   0  0  0  0  0  2  0  0  0  0  0  0
  189.8480  176.2360  137.2080 N   0  0  0  0  0  0  0  0  0  0  0  0
  187.5370  176.4920  136.4220 C   0  0  0  0  0  2  0  0  0  0  0  0
  188.9850  179.7950  137.4870 O   0  0  0  0  0  1  0  0  0  0  0  0
  190.6920  175.4130  138.0550 C   0  0  0  0  0  1  0  0  0  0  0  0
  188.4980  175.6810  137.2940 C   0  0  0  0  0  2  0  0  0  0  0  0
  188.9710  178.5050  136.9540 C   0  0  2  0  0  3  0  0  0  0  0  0
  187.5350  177.9670  136.8390 C   0  0  2  0  0  3  0  0  0  0  0  0
  189.8390  177.5730  137.7970 C   0  0  0  0  0  2  0  0  0  0  0  0
  1  9  1  0  0  0  0
  2  3  1  6  0  0  0
  2  5  1  0  0  0  0
  3  7  1  0  0  0  0
  4  7  2  0  0  0  0
  4 11  1  0  0  0  0
  5 14  1  0  0  0  0
  6  1  1  0  0  0  0
  8 23  1  6  0  0  0
  8 13  1  0  0  0  0
  8 12  1  0  0  0  0
 10 18  1  0  0  0  0
 10 19  1  0  0  0  0
 12 16  1  0  0  0  0
 13 18  1  6  0  0  0
 13  2  1  0  0  0  0
 14  1  2  0  0  0  0
 15  4  1  0  0  0  0
 16  5  2  0  0  0  0
 16 17  1  0  0  0  0
 17  6  2  0  0  0  0
 19  3  2  0  0  0  0
 20 19  1  0  0  0  0
 20 15  2  0  0  0  0
 22 21  2  0  0  0  0
 23 22  1  0  0  0  0
 24 28  1  0  0  0  0
 24 31  1  0  0  0  0
 24 27  1  0  0  0  0
 25 30  1  0  0  0  0
 25 28  1  0  0  0  0
 29 26  1  1  0  0  0
 29 31  1  0  0  0  0
 30 29  1  0  0  0  0
 30 22  1  1  0  0  0
M  END
>  <MODEL>
3

>  <REMARK>
 VINA RESULT:      -7.7      3.198      6.768
  Name = 
  2 active torsions:
  status: ('A' for Active; 'I' for Inactive)
    1  A    between atoms: C_5  and  C_30
    2  A    between atoms: C_10  and  N_16
                            x       y       z     vdW  Elec       q    Type
                         _______ _______ _______ _____ _____    ______ ____

>  <TORSDO>
F 2

$$$$
=
 OpenBabel11122411153D

 31 35  0  0  1  0  0  0  0  0999 V2000
  184.7640  178.9560  144.5320 C   0  0  0  0  0  0  0  0  0  0  0  0
  188.5410  178.7230  144.1040 C   0  0  2  0  0  3  0  0  0  0  0  0
  189.0810  177.8430  145.2220 C   0  0  0  0  0  0  0  0  0  0  0  0
  188.8410  176.9290  147.4670 C   0  0  0  0  0  0  0  0  0  0  0  0
  187.0610  178.5440  143.8660 C   0  0  0  0  0  0  0  0  0  0  0  0
  184.3100  178.1990  143.4480 C   0  0  0  0  0  3  0  0  0  0  0  0
  188.3310  177.6640  146.3960 C   0  0  0  0  0  3  0  0  0  0  0  0
  188.9160  177.2980  142.0430 C   0  0  2  0  0  3  0  0  0  0  0  0
  183.8740  179.5190  145.3840 F   0  0  0  0  0  0  0  0  0  0  0  0
  191.2540  177.4460  143.9440 C   0  0  0  0  0  2  0  0  0  0  0  0
  188.0240  176.7390  148.6930 C   0  0  0  0  0  1  0  0  0  0  0  0
  187.5030  177.2570  141.8440 O   0  0  0  0  0  0  0  0  0  0  0  0
  189.3290  178.5790  142.7860 C   0  0  2  0  0  3  0  0  0  0  0  0
  186.1350  179.1310  144.7390 C   0  0  0  0  0  3  0  0  0  0  0  0
  190.1210  176.3780  147.3880 C   0  0  0  0  0  3  0  0  0  0  0  0
  186.6000  177.7950  142.7660 C   0  0  0  0  0  0  0  0  0  0  0  0
  185.2270  177.6240  142.5640 C   0  0  0  0  0  3  0  0  0  0  0  0
  190.8310  178.6200  143.0660 C   0  0  0  0  0  2  0  0  0  0  0  0
  190.3930  177.3130  145.1660 C   0  0  0  0  0  0  0  0  0  0  0  0
  190.8920  176.5690  146.2410 C   0  0  0  0  0  3  0  0  0  0  0  0
  188.0800  178.6310  139.6700 O   0  0  0  0  0  0  0  0  0  0  0  0
  189.1210  177.9210  139.6030 C   0  0  0  0  0  0  0  0  0  0  0  0
  189.5910  177.2200  140.7550 N   0  0  0  0  0  2  0  0  0  0  0  0
  188.3940  176.5450  136.1420 N   0  0  0  0  0  0  0  0  0  0  0  0
  189.2200  178.6040  137.1910 C   0  0  0  0  0  2  0  0  0  0  0  0
  190.5540  175.5550  138.9420 O   0  0  0  0  0  1  0  0  0  0  0  0
  187.1900  175.9180  135.6270 C   0  0  0  0  0  1  0  0  0  0  0  0
  188.0030  177.8660  136.6300 C   0  0  0  0  0  2  0  0  0  0  0  0
  190.1060  176.3370  137.8770 C   0  0  2  0  0  3  0  0  0  0  0  0
  189.8790  177.7940  138.3130 C   0  0  2  0  0  3  0  0  0  0  0  0
  188.8320  175.7400  137.2790 C   0  0  0  0  0  2  0  0  0  0  0  0
  1 14  1  0  0  0  0
  1  9  1  0  0  0  0
  2  5  1  6  0  0  0
  2  3  1  0  0  0  0
  3  7  1  0  0  0  0
  4 11  1  0  0  0  0
  5 14  2  0  0  0  0
  6  1  2  0  0  0  0
  7  4  2  0  0  0  0
  8 23  1  6  0  0  0
  8 13  1  0  0  0  0
 10 19  1  0  0  0  0
 12  8  1  0  0  0  0
 12 16  1  0  0  0  0
 13 18  1  1  0  0  0
 13  2  1  0  0  0  0
 15  4  1  0  0  0  0
 16  5  1  0  0  0  0
 17 16  2  0  0  0  0
 17  6  1  0  0  0  0
 18 10  1  0  0  0  0
 19  3  2  0  0  0  0
 19 20  1  0  0  0  0
 20 15  2  0  0  0  0
 22 21  2  0  0  0  0
 22 23  1  0  0  0  0
 24 28  1  0  0  0  0
 24 31  1  0  0  0  0
 25 30  1  0  0  0  0
 27 24  1  0  0  0  0
 28 25  1  0  0  0  0
 29 30  1  0  0  0  0
 29 26  1  1  0  0  0
 30 22  1  1  0  0  0
 31 29  1  0  0  0  0
M  END
>  <MODEL>
4

>  <REMARK>
 VINA RESULT:      -7.7      3.558      5.432
  Name = 
  2 active torsions:
  status: ('A' for Active; 'I' for Inactive)
    1  A    between atoms: C_5  and  C_30
    2  A    between atoms: C_10  and  N_16
                            x       y       z     vdW  Elec       q    Type
                         _______ _______ _______ _____ _____    ______ ____

>  <TORSDO>
F 2

$$$$
=
 OpenBabel11122411153D

 31 35  0  0  1  0  0  0  0  0999 V2000
  185.0100  178.4370  138.7130 C   0  0  0  0  0  0  0  0  0  0  0  0
  188.7330  178.1480  139.4640 C   0  0  2  0  0  3  0  0  0  0  0  0
  188.8820  177.4730  140.8200 C   0  0  0  0  0  0  0  0  0  0  0  0
  187.9550  176.9540  143.0110 C   0  0  0  0  0  0  0  0  0  0  0  0
  187.3790  177.9260  138.8320 C   0  0  0  0  0  0  0  0  0  0  0  0
  184.8570  177.5050  137.6830 C   0  0  0  0  0  3  0  0  0  0  0  0
  187.8140  177.4940  141.7330 C   0  0  0  0  0  3  0  0  0  0  0  0
  189.6250  176.3940  137.8680 C   0  0  2  0  0  3  0  0  0  0  0  0
  183.9380  179.1340  139.1600 F   0  0  0  0  0  0  0  0  0  0  0  0
  191.3110  176.8720  140.3240 C   0  0  0  0  0  2  0  0  0  0  0  0
  186.8070  176.9720  143.9560 C   0  0  0  0  0  1  0  0  0  0  0  0
  188.3310  176.3150  137.2700 O   0  0  0  0  0  0  0  0  0  0  0  0
  189.8630  177.7850  138.4790 C   0  0  2  0  0  3  0  0  0  0  0  0
  186.2680  178.6490  139.2840 C   0  0  0  0  0  3  0  0  0  0  0  0
  189.1740  176.4030  143.4060 C   0  0  0  0  0  3  0  0  0  0  0  0
  187.2250  176.9980  137.7830 C   0  0  0  0  0  0  0  0  0  0  0  0
  185.9640  176.7910  137.2160 C   0  0  0  0  0  3  0  0  0  0  0  0
  191.2180  177.8780  139.1800 C   0  0  0  0  0  2  0  0  0  0  0  0
  190.1260  176.9460  141.2420 C   0  0  0  0  0  0  0  0  0  0  0  0
  190.2540  176.3980  142.5230 C   0  0  0  0  0  3  0  0  0  0  0  0
  191.4420  174.2040  137.9690 O   0  0  0  0  0  0  0  0  0  0  0  0
  191.5190  174.9790  136.9760 C   0  0  0  0  0  0  0  0  0  0  0  0
  190.6420  176.1010  136.8680 N   0  0  0  0  0  2  0  0  0  0  0  0
  194.6680  172.8920  136.6130 N   0  0  0  0  0  0  0  0  0  0  0  0
  192.5450  173.2790  135.4430 C   0  0  0  0  0  2  0  0  0  0  0  0
  193.9300  176.4820  136.8430 O   0  0  0  0  0  1  0  0  0  0  0  0
  195.3110  172.0100  137.5690 C   0  0  0  0  0  1  0  0  0  0  0  0
  193.3000  172.4030  136.4450 C   0  0  0  0  0  2  0  0  0  0  0  0
  193.9520  175.2070  136.2780 C   0  0  2  0  0  3  0  0  0  0  0  0
  192.5360  174.7430  135.8980 C   0  0  2  0  0  3  0  0  0  0  0  0
  194.6160  174.2140  137.2310 C   0  0  0  0  0  2  0  0  0  0  0  0
  1  9  1  0  0  0  0
  1 14  1  0  0  0  0
  2  5  1  6  0  0  0
  2  3  1  0  0  0  0
  3 19  2  0  0  0  0
  3  7  1  0  0  0  0
  4 15  1  0  0  0  0
  4 11  1  0  0  0  0
  5 14  2  0  0  0  0
  6  1  2  0  0  0  0
  7  4  2  0  0  0  0
  8 23  1  6  0  0  0
  8 13  1  0  0  0  0
 10 19  1  0  0  0  0
 12 16  1  0  0  0  0
 12  8  1  0  0  0  0
 13 18  1  1  0  0  0
 13  2  1  0  0  0  0
 16  5  1  0  0  0  0
 17  6  1  0  0  0  0
 17 16  2  0  0  0  0
 18 10  1  0  0  0  0
 19 20  1  0  0  0  0
 20 15  2  0  0  0  0
 22 21  2  0  0  0  0
 23 22  1  0  0  0  0
 24 31  1  0  0  0  0
 24 27  1  0  0  0  0
 25 30  1  0  0  0  0
 25 28  1  0  0  0  0
 28 24  1  0  0  0  0
 29 26  1  1  0  0  0
 29 31  1  0  0  0  0
 30 29  1  0  0  0  0
 30 22  1  1  0  0  0
M  END
>  <MODEL>
5

>  <REMARK>
 VINA RESULT:      -7.3      5.193      8.500
  Name = 
  2 active torsions:
  status: ('A' for Active; 'I' for Inactive)
    1  A    between atoms: C_5  and  C_30
    2  A    between atoms: C_10  and  N_16
                            x       y       z     vdW  Elec       q    Type
                         _______ _______ _______ _____ _____    ______ ____

>  <TORSDO>
F 2

$$$$
=
 OpenBabel11122411153D

 31 35  0  0  1  0  0  0  0  0999 V2000
  179.5720  179.1340  143.0630 C   0  0  0  0  0  0  0  0  0  0  0  0
  182.8970  179.3510  141.2200 C   0  0  2  0  0  3  0  0  0  0  0  0
  183.9850  178.8660  142.1670 C   0  0  0  0  0  0  0  0  0  0  0  0
  184.7730  178.5160  144.4450 C   0  0  0  0  0  0  0  0  0  0  0  0
  181.5120  178.9060  141.6240 C   0  0  0  0  0  0  0  0  0  0  0  0
  178.9500  178.0730  142.3990 C   0  0  0  0  0  3  0  0  0  0  0  0
  183.7620  178.8790  143.5540 C   0  0  0  0  0  3  0  0  0  0  0  0
  182.8330  177.5270  139.4630 C   0  0  2  0  0  3  0  0  0  0  0  0
  178.9380  179.7570  144.0860 F   0  0  0  0  0  0  0  0  0  0  0  0
  185.5930  178.4820  140.2230 C   0  0  0  0  0  2  0  0  0  0  0  0
  184.5110  178.5220  145.9080 C   0  0  0  0  0  1  0  0  0  0  0  0
  181.4920  177.2340  139.8520 O   0  0  0  0  0  0  0  0  0  0  0  0
  183.1770  178.9990  139.7450 C   0  0  2  0  0  3  0  0  0  0  0  0
  180.8470  179.5520  142.6750 C   0  0  0  0  0  3  0  0  0  0  0  0
  186.0310  178.1550  143.9630 C   0  0  0  0  0  3  0  0  0  0  0  0
  180.8770  177.8470  140.9470 C   0  0  0  0  0  0  0  0  0  0  0  0
  179.5990  177.4350  141.3390 C   0  0  0  0  0  3  0  0  0  0  0  0
  184.6290  179.3250  139.3950 C   0  0  0  0  0  2  0  0  0  0  0  0
  185.2760  178.5340  141.6890 C   0  0  0  0  0  0  0  0  0  0  0  0
  186.2800  178.1630  142.5900 C   0  0  0  0  0  3  0  0  0  0  0  0
  183.4770  174.9690  138.3920 O   0  0  0  0  0  0  0  0  0  0  0  0
  183.3230  175.9190  137.5770 C   0  0  0  0  0  0  0  0  0  0  0  0
  183.0060  177.2290  138.0490 N   0  0  0  0  0  2  0  0  0  0  0  0
  185.0050  173.3200  135.3800 N   0  0  0  0  0  0  0  0  0  0  0  0
  182.8120  174.3860  135.6580 C   0  0  0  0  0  2  0  0  0  0  0  0
  185.5990  176.8610  136.1540 O   0  0  0  0  0  1  0  0  0  0  0  0
  185.7700  172.1440  135.7540 C   0  0  0  0  0  1  0  0  0  0  0  0
  183.6910  173.1830  136.0050 C   0  0  0  0  0  2  0  0  0  0  0  0
  184.9380  175.7540  135.6210 C   0  0  2  0  0  3  0  0  0  0  0  0
  183.4780  175.6930  136.1010 C   0  0  2  0  0  3  0  0  0  0  0  0
  185.6840  174.4680  135.9760 C   0  0  0  0  0  2  0  0  0  0  0  0
  1  9  1  0  0  0  0
  2  5  1  1  0  0  0
  2  3  1  0  0  0  0
  3  7  1  0  0  0  0
  4 11  1  0  0  0  0
  5 14  2  0  0  0  0
  6  1  2  0  0  0  0
  7  4  2  0  0  0  0
  8 23  1  6  0  0  0
  8 13  1  0  0  0  0
  8 12  1  0  0  0  0
 10 19  1  0  0  0  0
 12 16  1  0  0  0  0
 13 18  1  1  0  0  0
 13  2  1  0  0  0  0
 14  1  1  0  0  0  0
 15  4  1  0  0  0  0
 16 17  2  0  0  0  0
 16  5  1  0  0  0  0
 17  6  1  0  0  0  0
 18 10  1  0  0  0  0
 19  3  2  0  0  0  0
 19 20  1  0  0  0  0
 20 15  2  0  0  0  0
 22 23  1  0  0  0  0
 22 21  2  0  0  0  0
 24 27  1  0  0  0  0
 24 31  1  0  0  0  0
 24 28  1  0  0  0  0
 25 28  1  0  0  0  0
 25 30  1  0  0  0  0
 29 31  1  0  0  0  0
 29 30  1  0  0  0  0
 29 26  1  1  0  0  0
 30 22  1  1  0  0  0
M  END
>  <MODEL>
6

>  <REMARK>
 VINA RESULT:      -7.0      3.859      6.425
  Name = 
  2 active torsions:
  status: ('A' for Active; 'I' for Inactive)
    1  A    between atoms: C_5  and  C_30
    2  A    between atoms: C_10  and  N_16
                            x       y       z     vdW  Elec       q    Type
                         _______ _______ _______ _____ _____    ______ ____

>  <TORSDO>
F 2

$$$$
=
 OpenBabel11122411153D

 31 35  0  0  1  0  0  0  0  0999 V2000
  183.1970  178.6490  138.4590 C   0  0  0  0  0  0  0  0  0  0  0  0
  186.9950  178.5870  138.7360 C   0  0  2  0  0  3  0  0  0  0  0  0
  187.3490  178.2530  140.1770 C   0  0  0  0  0  0  0  0  0  0  0  0
  186.7410  178.2540  142.5360 C   0  0  0  0  0  0  0  0  0  0  0  0
  185.5810  178.2070  138.3650 C   0  0  0  0  0  0  0  0  0  0  0  0
  182.9500  177.4990  137.7030 C   0  0  0  0  0  3  0  0  0  0  0  0
  186.4110  178.4760  141.1990 C   0  0  0  0  0  3  0  0  0  0  0  0
  187.7450  176.5180  137.4820 C   0  0  2  0  0  3  0  0  0  0  0  0
  182.1630  179.4190  138.8750 F   0  0  0  0  0  0  0  0  0  0  0  0
  189.7170  177.5800  139.5050 C   0  0  0  0  0  2  0  0  0  0  0  0
  185.7280  178.4810  143.5990 C   0  0  0  0  0  1  0  0  0  0  0  0
  186.3890  176.2860  137.1030 O   0  0  0  0  0  0  0  0  0  0  0  0
  188.0000  178.0160  137.7160 C   0  0  2  0  0  3  0  0  0  0  0  0
  184.5080  179.0040  138.7860 C   0  0  0  0  0  3  0  0  0  0  0  0
  188.0250  177.8250  142.8750 C   0  0  0  0  0  3  0  0  0  0  0  0
  185.3310  177.0580  137.5920 C   0  0  0  0  0  0  0  0  0  0  0  0
  184.0160  176.7080  137.2670 C   0  0  0  0  0  3  0  0  0  0  0  0
  189.4310  178.2870  138.1830 C   0  0  0  0  0  2  0  0  0  0  0  0
  188.6600  177.8540  140.5350 C   0  0  0  0  0  0  0  0  0  0  0  0
  188.9790  177.6250  141.8770 C   0  0  0  0  0  3  0  0  0  0  0  0
  189.8280  174.6220  137.8950 O   0  0  0  0  0  0  0  0  0  0  0  0
  189.6560  175.0510  136.7220 C   0  0  0  0  0  0  0  0  0  0  0  0
  188.6340  176.0090  136.4470 N   0  0  0  0  0  2  0  0  0  0  0  0
  193.3890  174.7960  136.0830 N   0  0  0  0  0  0  0  0  0  0  0  0
  191.3870  173.3770  136.0200 C   0  0  0  0  0  2  0  0  0  0  0  0
  190.6450  176.8320  134.7370 O   0  0  0  0  0  1  0  0  0  0  0  0
  194.5030  175.1780  136.9310 C   0  0  0  0  0  1  0  0  0  0  0  0
  192.5900  173.8390  136.8460 C   0  0  0  0  0  2  0  0  0  0  0  0
  191.3950  175.6800  134.9770 C   0  0  2  0  0  3  0  0  0  0  0  0
  190.5270  174.5720  135.5960 C   0  0  2  0  0  3  0  0  0  0  0  0
  192.5910  176.0010  135.8700 C   0  0  0  0  0  2  0  0  0  0  0  0
  1 14  1  0  0  0  0
  1  9  1  0  0  0  0
  2  5  1  6  0  0  0
  2  3  1  0  0  0  0
  3 19  2  0  0  0  0
  3  7  1  0  0  0  0
  4 15  1  0  0  0  0
  4 11  1  0  0  0  0
  5 14  2  0  0  0  0
  6  1  2  0  0  0  0
  7  4  2  0  0  0  0
  8 23  1  6  0  0  0
  8 13  1  0  0  0  0
 10 19  1  0  0  0  0
 12  8  1  0  0  0  0
 12 16  1  0  0  0  0
 13 18  1  1  0  0  0
 13  2  1  0  0  0  0
 16  5  1  0  0  0  0
 17 16  2  0  0  0  0
 17  6  1  0  0  0  0
 18 10  1  0  0  0  0
 19 20  1  0  0  0  0
 20 15  2  0  0  0  0
 22 21  2  0  0  0  0
 23 22  1  0  0  0  0
 24 28  1  0  0  0  0
 24 27  1  0  0  0  0
 25 28  1  0  0  0  0
 29 26  1  1  0  0  0
 29 30  1  0  0  0  0
 29 31  1  0  0  0  0
 30 25  1  0  0  0  0
 30 22  1  1  0  0  0
 31 24  1  0  0  0  0
M  END
>  <MODEL>
7

>  <REMARK>
 VINA RESULT:      -6.9      4.802      7.915
  Name = 
  2 active torsions:
  status: ('A' for Active; 'I' for Inactive)
    1  A    between atoms: C_5  and  C_30
    2  A    between atoms: C_10  and  N_16
                            x       y       z     vdW  Elec       q    Type
                         _______ _______ _______ _____ _____    ______ ____

>  <TORSDO>
F 2

$$$$
=
 OpenBabel11122411153D

 31 35  0  0  1  0  0  0  0  0999 V2000
  189.0450  177.9890  143.9410 C   0  0  0  0  0  0  0  0  0  0  0  0
  186.8990  178.8630  140.9180 C   0  0  2  0  0  3  0  0  0  0  0  0
  187.3770  178.0140  139.7490 C   0  0  0  0  0  0  0  0  0  0  0  0
  189.1630  176.7600  138.6660 C   0  0  0  0  0  0  0  0  0  0  0  0
  187.3250  178.3210  142.2620 C   0  0  0  0  0  0  0  0  0  0  0  0
  188.1330  177.2990  144.7450 C   0  0  0  0  0  3  0  0  0  0  0  0
  188.6730  177.4720  139.7620 C   0  0  0  0  0  3  0  0  0  0  0  0
  184.6040  177.9040  141.4000 C   0  0  2  0  0  3  0  0  0  0  0  0
  190.3220  178.1600  144.3600 F   0  0  0  0  0  0  0  0  0  0  0  0
  185.1970  178.4140  138.4860 C   0  0  0  0  0  2  0  0  0  0  0  0
  190.5310  176.1810  138.7080 C   0  0  0  0  0  1  0  0  0  0  0  0
  185.0680  177.5060  142.6900 O   0  0  0  0  0  0  0  0  0  0  0  0
  185.3800  179.1300  140.8920 C   0  0  2  0  0  3  0  0  0  0  0  0
  188.6420  178.5010  142.7050 C   0  0  0  0  0  3  0  0  0  0  0  0
  188.3710  176.5980  137.5300 C   0  0  0  0  0  3  0  0  0  0  0  0
  186.4040  177.6390  143.0810 C   0  0  0  0  0  0  0  0  0  0  0  0
  186.8140  177.1290  144.3170 C   0  0  0  0  0  3  0  0  0  0  0  0
  184.9450  179.5390  139.4850 C   0  0  0  0  0  2  0  0  0  0  0  0
  186.5950  177.8770  138.5770 C   0  0  0  0  0  0  0  0  0  0  0  0
  187.0910  177.1530  137.4870 C   0  0  0  0  0  3  0  0  0  0  0  0
  182.5940  176.6320  139.8360 O   0  0  0  0  0  0  0  0  0  0  0  0
  182.2220  177.5160  140.6550 C   0  0  0  0  0  0  0  0  0  0  0  0
  183.1800  178.1980  141.4650 N   0  0  0  0  0  2  0  0  0  0  0  0
  179.1290  177.2010  138.4770 N   0  0  0  0  0  0  0  0  0  0  0  0
  179.8770  176.6290  140.7440 C   0  0  0  0  0  2  0  0  0  0  0  0
  181.1990  179.9860  139.6820 O   0  0  0  0  0  1  0  0  0  0  0  0
  178.9890  176.6560  137.1390 C   0  0  0  0  0  1  0  0  0  0  0  0
  179.6970  176.1390  139.3050 C   0  0  0  0  0  2  0  0  0  0  0  0
  180.3000  178.9210  139.7630 C   0  0  2  0  0  3  0  0  0  0  0  0
  180.7700  177.8740  140.7870 C   0  0  2  0  0  3  0  0  0  0  0  0
  180.1000  178.2890  138.3860 C   0  0  0  0  0  2  0  0  0  0  0  0
  1  9  1  0  0  0  0
  1  6  1  0  0  0  0
  2  3  1  6  0  0  0
  2  5  1  0  0  0  0
  3  7  1  0  0  0  0
  4 11  1  0  0  0  0
  4  7  2  0  0  0  0
  5 14  1  0  0  0  0
  5 16  2  0  0  0  0
  8 23  1  1  0  0  0
  8 12  1  0  0  0  0
 10 19  1  0  0  0  0
 10 18  1  0  0  0  0
 12 16  1  0  0  0  0
 13 18  1  6  0  0  0
 13  2  1  0  0  0  0
 13  8  1  0  0  0  0
 14  1  2  0  0  0  0
 15  4  1  0  0  0  0
 16 17  1  0  0  0  0
 17  6  2  0  0  0  0
 19  3  2  0  0  0  0
 20 15  2  0  0  0  0
 20 19  1  0  0  0  0
 21 22  2  0  0  0  0
 22 23  1  0  0  0  0
 24 28  1  0  0  0  0
 25 30  1  0  0  0  0
 27 24  1  0  0  0  0
 28 25  1  0  0  0  0
 29 26  1  6  0  0  0
 29 30  1  0  0  0  0
 30 22  1  6  0  0  0
 31 24  1  0  0  0  0
 31 29  1  0  0  0  0
M  END
>  <MODEL>
8

>  <REMARK>
 VINA RESULT:      -6.9      2.267      4.892
  Name = 
  2 active torsions:
  status: ('A' for Active; 'I' for Inactive)
    1  A    between atoms: C_5  and  C_30
    2  A    between atoms: C_10  and  N_16
                            x       y       z     vdW  Elec       q    Type
                         _______ _______ _______ _____ _____    ______ ____

>  <TORSDO>
F 2

$$$$
