=
 OpenBabel11122411423D

 37 43  0  0  1  0  0  0  0  0999 V2000
  186.4960  176.8940  138.1230 O   0  0  0  0  0  0  0  0  0  0  0  0
  182.4990  178.6150  140.8650 C   0  0  0  0  0  0  0  0  0  0  0  0
  183.1460  176.2220  137.5590 C   0  0  0  0  0  0  0  0  0  0  0  0
  187.8910  176.7800  137.9480 C   0  0  2  0  0  3  0  0  0  0  0  0
  185.0200  176.4210  134.6010 C   0  0  0  0  0  2  0  0  0  0  0  0
  182.2280  176.3070  139.7660 C   0  0  0  0  0  0  0  0  0  0  0  0
  183.8360  177.0990  136.6950 N   0  0  0  0  0  0  0  0  0  0  0  0
  187.9290  174.9720  136.0590 C   0  0  0  0  0  0  0  0  0  0  0  0
  183.1740  176.6960  138.8310 C   0  0  0  0  0  0  0  0  0  0  0  0
  183.8020  177.1190  135.2270 C   0  0  2  0  0  3  0  0  0  0  0  0
  181.3730  175.2370  139.4480 C   0  0  0  0  0  3  0  0  0  0  0  0
  188.2700  175.3650  137.4870 C   0  0  0  0  0  2  0  0  0  0  0  0
  184.0190  177.9030  138.9550 C   0  0  2  0  0  3  0  0  0  0  0  0
  183.4980  178.9370  141.9580 C   0  0  0  0  0  1  0  0  0  0  0  0
  182.4310  174.5460  135.8400 C   0  0  0  0  0  2  0  0  0  0  0  0
  181.4470  174.6360  138.1710 C   0  0  0  0  0  3  0  0  0  0  0  0
  183.1180  179.0060  139.4960 C   0  0  0  0  0  2  0  0  0  0  0  0
  187.3620  175.9070  135.0220 C   0  0  0  0  0  2  0  0  0  0  0  0
  186.1440  176.4980  135.5320 N   0  0  1  0  0  0  0  0  0  0  0  0
  182.3310  175.1500  137.2000 C   0  0  0  0  0  0  0  0  0  0  0  0
  184.4970  178.1420  137.4980 C   0  0  1  0  0  3  0  0  0  0  0  0
  182.0780  177.1230  141.0170 C   0  0  0  0  0  2  0  0  0  0  0  0
  182.4290  176.8320  134.5940 C   0  0  1  0  0  3  0  0  0  0  0  0
  181.2720  179.4750  141.0830 C   0  0  0  0  0  1  0  0  0  0  0  0
  186.4220  177.8800  135.9050 C   0  0  0  0  0  2  0  0  0  0  0  0
  188.1450  173.8200  135.7230 O   0  0  0  0  0  0  0  0  0  0  0  0
  186.0390  178.0160  137.3850 C   0  0  2  0  0  3  0  0  0  0  0  0
  181.8090  175.4330  134.7660 C   0  0  0  0  0  2  0  0  0  0  0  0
  180.1940  177.5910  135.4170 C   0  0  0  0  0  3  0  0  0  0  0  0
  181.4430  177.9220  134.8830 C   0  0  0  0  0  0  0  0  0  0  0  0
  181.7380  179.2610  134.6040 C   0  0  0  0  0  3  0  0  0  0  0  0
  181.0590  181.5440  134.5960 F   0  0  0  0  0  0  0  0  0  0  0  0
  179.5760  179.8990  135.3870 N   0  0  0  0  0  0  0  0  0  0  0  0
  180.7830  180.2440  134.8650 C   0  0  0  0  0  0  0  0  0  0  0  0
  179.2660  178.6040  135.6660 C   0  0  0  0  0  3  0  0  0  0  0  0
  188.6180  177.1410  139.2400 C   0  0  0  0  0  2  0  0  0  0  0  0
  189.0500  178.5970  139.2640 C   0  0  0  0  0  1  0  0  0  0  0  0
  2 22  1  0  0  0  0
  2 24  1  0  0  0  0
  2 14  1  0  0  0  0
  3  9  1  0  0  0  0
  4  1  1  0  0  0  0
  4 36  1  1  0  0  0
  6 22  1  0  0  0  0
  7  3  1  0  0  0  0
  8 12  1  0  0  0  0
  9 13  1  0  0  0  0
  9  6  2  0  0  0  0
 10  5  1  6  0  0  0
 10  7  1  0  0  0  0
 11  6  1  0  0  0  0
 12  4  1  0  0  0  0
 13 17  1  6  0  0  0
 15 20  1  0  0  0  0
 16 11  2  0  0  0  0
 17  2  1  0  0  0  0
 18 19  1  0  0  0  0
 18  8  1  0  0  0  0
 19  5  1  6  0  0  0
 19 25  1  0  0  0  0
 20  3  2  0  0  0  0
 20 16  1  0  0  0  0
 21  7  1  6  0  0  0
 21 13  1  0  0  0  0
 23 28  1  0  0  0  0
 23 30  1  1  0  0  0
 23 10  1  0  0  0  0
 26  8  2  0  0  0  0
 27 25  1  6  0  0  0
 27 21  1  0  0  0  0
 27  1  1  0  0  0  0
 28 15  1  0  0  0  0
 29 35  1  0  0  0  0
 30 29  2  0  0  0  0
 31 34  2  0  0  0  0
 31 30  1  0  0  0  0
 32 34  1  0  0  0  0
 33 35  2  0  0  0  0
 34 33  1  0  0  0  0
 36 37  1  0  0  0  0
M  END
>  <MODEL>
1

>  <REMARK>
 VINA RESULT:      -4.5      0.000      0.000
  Name = 
  2 active torsions:
  status: ('A' for Active; 'I' for Inactive)
    1  A    between atoms: C_4  and  C_36
    2  A    between atoms: C_23  and  C_30
                            x       y       z     vdW  Elec       q    Type
                         _______ _______ _______ _____ _____    ______ ____

>  <TORSDO>
F 2

$$$$
=
 OpenBabel11122411423D

 37 43  0  0  1  0  0  0  0  0999 V2000
  189.9670  173.8260  135.8240 O   0  0  0  0  0  0  0  0  0  0  0  0
  184.8480  174.1640  136.1870 C   0  0  0  0  0  0  0  0  0  0  0  0
  188.0970  176.7150  136.2030 C   0  0  0  0  0  0  0  0  0  0  0  0
  191.1210  173.0440  135.6050 C   0  0  2  0  0  3  0  0  0  0  0  0
  191.2030  176.8710  137.8250 C   0  0  0  0  0  2  0  0  0  0  0  0
  186.0540  176.1520  135.0930 C   0  0  0  0  0  0  0  0  0  0  0  0
  188.8490  176.2240  137.2920 N   0  0  0  0  0  0  0  0  0  0  0  0
  192.8770  174.9630  135.3270 C   0  0  0  0  0  0  0  0  0  0  0  0
  187.1890  175.7890  135.8010 C   0  0  0  0  0  0  0  0  0  0  0  0
  189.7170  176.9880  138.1970 C   0  0  2  0  0  3  0  0  0  0  0  0
  185.9670  177.4640  134.5940 C   0  0  0  0  0  3  0  0  0  0  0  0
  192.1260  173.7910  134.7160 C   0  0  0  0  0  2  0  0  0  0  0  0
  187.3440  174.5100  136.5260 C   0  0  2  0  0  3  0  0  0  0  0  0
  184.8000  172.7610  135.6120 C   0  0  0  0  0  1  0  0  0  0  0  0
  189.1610  178.9780  136.0510 C   0  0  0  0  0  2  0  0  0  0  0  0
  186.9930  178.3920  134.8820 C   0  0  0  0  0  3  0  0  0  0  0  0
  186.0100  174.2400  137.2120 C   0  0  0  0  0  2  0  0  0  0  0  0
  192.8040  175.3680  136.7760 C   0  0  0  0  0  2  0  0  0  0  0  0
  191.4230  175.6020  137.1340 N   0  0  1  0  0  0  0  0  0  0  0  0
  188.0650  178.0230  135.7190 C   0  0  0  0  0  0  0  0  0  0  0  0
  188.5060  174.8080  137.5100 C   0  0  1  0  0  3  0  0  0  0  0  0
  184.9210  175.1710  135.0010 C   0  0  0  0  0  2  0  0  0  0  0  0
  189.2000  178.3850  138.5850 C   0  0  1  0  0  3  0  0  0  0  0  0
  183.5530  174.4080  136.9330 C   0  0  0  0  0  1  0  0  0  0  0  0
  190.9590  174.4790  137.9420 C   0  0  0  0  0  2  0  0  0  0  0  0
  193.6040  175.6110  134.5940 O   0  0  0  0  0  0  0  0  0  0  0  0
  189.7320  173.9030  137.2210 C   0  0  2  0  0  3  0  0  0  0  0  0
  189.0870  179.4650  137.4940 C   0  0  0  0  0  2  0  0  0  0  0  0
  186.7110  178.2970  138.8050 C   0  0  0  0  0  3  0  0  0  0  0  0
  187.9630  178.3070  139.4260 C   0  0  0  0  0  0  0  0  0  0  0  0
  188.0360  178.2730  140.8240 C   0  0  0  0  0  3  0  0  0  0  0  0
  186.9210  178.1950  142.9270 F   0  0  0  0  0  0  0  0  0  0  0  0
  185.6530  178.2150  140.9460 N   0  0  0  0  0  0  0  0  0  0  0  0
  186.8600  178.2270  141.5730 C   0  0  0  0  0  0  0  0  0  0  0  0
  185.5570  178.2480  139.5900 C   0  0  0  0  0  3  0  0  0  0  0  0
  190.7430  171.7020  134.9860 C   0  0  0  0  0  2  0  0  0  0  0  0
  191.9590  170.8260  134.7380 C   0  0  0  0  0  1  0  0  0  0  0  0
  1 27  1  0  0  0  0
  2 24  1  0  0  0  0
  2 17  1  0  0  0  0
  3  7  1  0  0  0  0
  4 36  1  6  0  0  0
  4  1  1  0  0  0  0
  6  9  2  0  0  0  0
  7 10  1  0  0  0  0
  8 18  1  0  0  0  0
  9  3  1  0  0  0  0
  9 13  1  0  0  0  0
 10  5  1  6  0  0  0
 10 23  1  0  0  0  0
 11 16  2  0  0  0  0
 11  6  1  0  0  0  0
 12  8  1  0  0  0  0
 12  4  1  0  0  0  0
 13 17  1  1  0  0  0
 13 21  1  0  0  0  0
 14  2  1  0  0  0  0
 15 28  1  0  0  0  0
 16 20  1  0  0  0  0
 19 18  1  1  0  0  0
 19  5  1  0  0  0  0
 19 25  1  0  0  0  0
 20 15  1  0  0  0  0
 20  3  2  0  0  0  0
 21  7  1  6  0  0  0
 22  6  1  0  0  0  0
 22  2  1  0  0  0  0
 23 30  1  6  0  0  0
 26  8  2  0  0  0  0
 27 21  1  0  0  0  0
 27 25  1  1  0  0  0
 28 23  1  0  0  0  0
 29 30  2  0  0  0  0
 29 35  1  0  0  0  0
 30 31  1  0  0  0  0
 31 34  2  0  0  0  0
 33 34  1  0  0  0  0
 34 32  1  0  0  0  0
 35 33  2  0  0  0  0
 37 36  1  0  0  0  0
M  END
>  <MODEL>
2

>  <REMARK>
 VINA RESULT:      -4.3      3.833      7.005
  Name = 
  2 active torsions:
  status: ('A' for Active; 'I' for Inactive)
    1  A    between atoms: C_4  and  C_36
    2  A    between atoms: C_23  and  C_30
                            x       y       z     vdW  Elec       q    Type
                         _______ _______ _______ _____ _____    ______ ____

>  <TORSDO>
F 2

$$$$
=
 OpenBabel11122411423D

 37 43  0  0  1  0  0  0  0  0999 V2000
  187.9320  173.3090  135.7230 O   0  0  0  0  0  0  0  0  0  0  0  0
  183.2880  175.4940  136.0520 C   0  0  0  0  0  0  0  0  0  0  0  0
  187.2460  176.6700  136.1930 C   0  0  0  0  0  0  0  0  0  0  0  0
  188.7230  172.1650  135.4860 C   0  0  2  0  0  3  0  0  0  0  0  0
  190.1550  175.6210  137.8470 C   0  0  0  0  0  2  0  0  0  0  0  0
  185.1640  176.9330  135.0450 C   0  0  0  0  0  0  0  0  0  0  0  0
  187.7400  175.9020  137.2690 N   0  0  0  0  0  0  0  0  0  0  0  0
  191.0660  173.3100  135.2950 C   0  0  0  0  0  0  0  0  0  0  0  0
  186.0700  176.1560  135.7480 C   0  0  0  0  0  0  0  0  0  0  0  0
  188.8080  176.2650  138.2100 C   0  0  2  0  0  3  0  0  0  0  0  0
  185.5760  178.2000  134.5940 C   0  0  0  0  0  3  0  0  0  0  0  0
  189.9510  172.5160  134.6340 C   0  0  0  0  0  2  0  0  0  0  0  0
  185.7280  174.8870  136.4270 C   0  0  2  0  0  3  0  0  0  0  0  0
  182.7420  174.2260  135.4240 C   0  0  0  0  0  1  0  0  0  0  0  0
  189.0700  178.3860  136.1350 C   0  0  0  0  0  2  0  0  0  0  0  0
  186.8650  178.6760  134.9260 C   0  0  0  0  0  3  0  0  0  0  0  0
  184.3740  175.1060  137.0900 C   0  0  0  0  0  2  0  0  0  0  0  0
  191.1160  173.6680  136.7580 C   0  0  0  0  0  2  0  0  0  0  0  0
  189.9090  174.3820  137.1120 N   0  0  1  0  0  0  0  0  0  0  0  0
  187.7070  177.9120  135.7580 C   0  0  0  0  0  0  0  0  0  0  0  0
  186.8970  174.7060  137.4310 C   0  0  1  0  0  3  0  0  0  0  0  0
  183.7530  176.4410  134.9060 C   0  0  0  0  0  2  0  0  0  0  0  0
  188.8320  177.7410  138.6460 C   0  0  1  0  0  3  0  0  0  0  0  0
  182.1570  176.1740  136.7950 C   0  0  0  0  0  1  0  0  0  0  0  0
  189.0480  173.4840  137.8730 C   0  0  0  0  0  2  0  0  0  0  0  0
  191.9970  173.6690  134.5940 O   0  0  0  0  0  0  0  0  0  0  0  0
  187.7110  173.4230  137.1200 C   0  0  2  0  0  3  0  0  0  0  0  0
  189.1480  178.8210  137.5950 C   0  0  0  0  0  2  0  0  0  0  0  0
  187.7630  178.1870  140.8610 C   0  0  0  0  0  3  0  0  0  0  0  0
  187.6340  178.0970  139.4730 C   0  0  0  0  0  0  0  0  0  0  0  0
  186.3840  178.3160  138.8820 C   0  0  0  0  0  3  0  0  0  0  0  0
  184.0720  178.8320  139.1270 F   0  0  0  0  0  0  0  0  0  0  0  0
  185.4370  178.7050  141.0390 N   0  0  0  0  0  0  0  0  0  0  0  0
  185.2870  178.6210  139.6890 C   0  0  0  0  0  0  0  0  0  0  0  0
  186.6420  178.4960  141.6350 C   0  0  0  0  0  3  0  0  0  0  0  0
  187.8920  171.0760  134.8140 C   0  0  0  0  0  2  0  0  0  0  0  0
  187.9320  169.7690  135.5880 C   0  0  0  0  0  1  0  0  0  0  0  0
  1 27  1  0  0  0  0
  2 24  1  0  0  0  0
  2 17  1  0  0  0  0
  3  7  1  0  0  0  0
  4 36  1  6  0  0  0
  4  1  1  0  0  0  0
  6  9  1  0  0  0  0
  7 10  1  0  0  0  0
  8 18  1  0  0  0  0
  9  3  2  0  0  0  0
  9 13  1  0  0  0  0
 10  5  1  6  0  0  0
 10 23  1  0  0  0  0
 11 16  1  0  0  0  0
 11  6  2  0  0  0  0
 12  8  1  0  0  0  0
 12  4  1  0  0  0  0
 13 17  1  1  0  0  0
 13 21  1  0  0  0  0
 14  2  1  0  0  0  0
 15 28  1  0  0  0  0
 16 20  2  0  0  0  0
 19 18  1  1  0  0  0
 19  5  1  0  0  0  0
 19 25  1  0  0  0  0
 20 15  1  0  0  0  0
 20  3  1  0  0  0  0
 21  7  1  6  0  0  0
 22  6  1  0  0  0  0
 22  2  1  0  0  0  0
 23 30  1  6  0  0  0
 26  8  2  0  0  0  0
 27 21  1  0  0  0  0
 27 25  1  1  0  0  0
 28 23  1  0  0  0  0
 29 35  1  0  0  0  0
 30 29  2  0  0  0  0
 31 30  1  0  0  0  0
 31 34  2  0  0  0  0
 32 34  1  0  0  0  0
 33 35  2  0  0  0  0
 34 33  1  0  0  0  0
 36 37  1  0  0  0  0
M  END
>  <MODEL>
3

>  <REMARK>
 VINA RESULT:      -3.6      2.975      6.354
  Name = 
  2 active torsions:
  status: ('A' for Active; 'I' for Inactive)
    1  A    between atoms: C_4  and  C_36
    2  A    between atoms: C_23  and  C_30
                            x       y       z     vdW  Elec       q    Type
                         _______ _______ _______ _____ _____    ______ ____

>  <TORSDO>
F 2

$$$$
=
 OpenBabel11122411423D

 37 43  0  0  1  0  0  0  0  0999 V2000
  183.5000  173.7920  136.2930 O   0  0  0  0  0  0  0  0  0  0  0  0
  186.3310  178.0600  136.7710 C   0  0  0  0  0  0  0  0  0  0  0  0
  182.6350  176.6790  137.9980 C   0  0  0  0  0  0  0  0  0  0  0  0
  183.3790  172.4570  135.8530 C   0  0  2  0  0  3  0  0  0  0  0  0
  179.8860  175.0940  136.5040 C   0  0  0  0  0  2  0  0  0  0  0  0
  184.7600  177.5000  138.7270 C   0  0  0  0  0  0  0  0  0  0  0  0
  182.0110  176.3830  136.7670 N   0  0  0  0  0  0  0  0  0  0  0  0
  181.1570  171.8160  137.0740 C   0  0  0  0  0  0  0  0  0  0  0  0
  183.9780  176.7890  137.8310 C   0  0  0  0  0  0  0  0  0  0  0  0
  180.5800  176.4640  136.4480 C   0  0  2  0  0  3  0  0  0  0  0  0
  184.1810  177.9140  139.9400 C   0  0  0  0  0  3  0  0  0  0  0  0
  182.6510  171.6010  136.8990 C   0  0  0  0  0  2  0  0  0  0  0  0
  184.3960  176.4410  136.4560 C   0  0  2  0  0  3  0  0  0  0  0  0
  187.5180  177.2160  136.3490 C   0  0  0  0  0  1  0  0  0  0  0  0
  180.5680  176.7810  139.4100 C   0  0  0  0  0  2  0  0  0  0  0  0
  182.8120  177.6620  140.1840 C   0  0  0  0  0  3  0  0  0  0  0  0
  185.1080  177.6670  135.8990 C   0  0  0  0  0  2  0  0  0  0  0  0
  180.3110  172.7160  136.2110 C   0  0  0  0  0  2  0  0  0  0  0  0
  180.8700  174.0490  136.2260 N   0  0  1  0  0  0  0  0  0  0  0  0
  182.0180  177.0550  139.1900 C   0  0  0  0  0  0  0  0  0  0  0  0
  183.0480  176.1260  135.7540 C   0  0  1  0  0  3  0  0  0  0  0  0
  186.1450  177.9010  138.3090 C   0  0  0  0  0  2  0  0  0  0  0  0
  179.8300  177.6550  137.0710 C   0  0  1  0  0  3  0  0  0  0  0  0
  186.6600  179.5100  136.4830 C   0  0  0  0  0  1  0  0  0  0  0  0
  181.5380  174.2850  134.9510 C   0  0  0  0  0  2  0  0  0  0  0  0
  180.5990  171.2030  137.9680 O   0  0  0  0  0  0  0  0  0  0  0  0
  182.9920  174.6490  135.2830 C   0  0  2  0  0  3  0  0  0  0  0  0
  179.6740  177.7160  138.6020 C   0  0  0  0  0  2  0  0  0  0  0  0
  180.5280  179.0670  135.1300 C   0  0  0  0  0  3  0  0  0  0  0  0
  180.2900  178.9620  136.5030 C   0  0  0  0  0  0  0  0  0  0  0  0
  180.5130  180.0730  137.3260 C   0  0  0  0  0  3  0  0  0  0  0  0
  181.1870  182.3460  137.5500 F   0  0  0  0  0  0  0  0  0  0  0  0
  181.1880  181.3450  135.4220 N   0  0  0  0  0  0  0  0  0  0  0  0
  180.9670  181.2660  136.7620 C   0  0  0  0  0  0  0  0  0  0  0  0
  180.9790  180.2790  134.6030 C   0  0  0  0  0  3  0  0  0  0  0  0
  184.7530  171.8760  135.5380 C   0  0  0  0  0  2  0  0  0  0  0  0
  185.8490  172.5170  136.3740 C   0  0  0  0  0  1  0  0  0  0  0  0
  2 22  1  0  0  0  0
  3 20  1  0  0  0  0
  4 36  1  1  0  0  0
  4  1  1  0  0  0  0
  4 12  1  0  0  0  0
  6 11  2  0  0  0  0
  7  3  1  0  0  0  0
  8 26  2  0  0  0  0
  9  3  2  0  0  0  0
  9  6  1  0  0  0  0
 10  5  1  1  0  0  0
 10  7  1  0  0  0  0
 10 23  1  0  0  0  0
 11 16  1  0  0  0  0
 12  8  1  0  0  0  0
 13 17  1  6  0  0  0
 13  9  1  0  0  0  0
 14  2  1  0  0  0  0
 17  2  1  0  0  0  0
 18 19  1  0  0  0  0
 18  8  1  0  0  0  0
 19 25  1  6  0  0  0
 19  5  1  0  0  0  0
 20 15  1  0  0  0  0
 20 16  2  0  0  0  0
 21 13  1  0  0  0  0
 21  7  1  1  0  0  0
 22  6  1  0  0  0  0
 23 30  1  1  0  0  0
 23 28  1  0  0  0  0
 24  2  1  0  0  0  0
 27 25  1  1  0  0  0
 27 21  1  0  0  0  0
 27  1  1  0  0  0  0
 28 15  1  0  0  0  0
 29 30  1  0  0  0  0
 30 31  2  0  0  0  0
 33 34  2  0  0  0  0
 34 31  1  0  0  0  0
 34 32  1  0  0  0  0
 35 29  2  0  0  0  0
 35 33  1  0  0  0  0
 36 37  1  0  0  0  0
M  END
>  <MODEL>
4

>  <REMARK>
 VINA RESULT:      -3.6      2.539      4.932
  Name = 
  2 active torsions:
  status: ('A' for Active; 'I' for Inactive)
    1  A    between atoms: C_4  and  C_36
    2  A    between atoms: C_23  and  C_30
                            x       y       z     vdW  Elec       q    Type
                         _______ _______ _______ _____ _____    ______ ____

>  <TORSDO>
F 2

$$$$
=
 OpenBabel11122411423D

 37 43  0  0  1  0  0  0  0  0999 V2000
  185.7570  177.8700  139.1670 O   0  0  0  0  0  0  0  0  0  0  0  0
  180.9060  178.4810  140.7650 C   0  0  0  0  0  0  0  0  0  0  0  0
  182.9230  176.4190  137.8060 C   0  0  0  0  0  0  0  0  0  0  0  0
  187.1350  178.1060  139.3500 C   0  0  2  0  0  3  0  0  0  0  0  0
  185.3700  177.1590  135.4050 C   0  0  0  0  0  2  0  0  0  0  0  0
  181.4890  176.2110  139.7100 C   0  0  0  0  0  0  0  0  0  0  0  0
  183.5720  177.4640  137.1130 N   0  0  0  0  0  0  0  0  0  0  0  0
  188.0840  176.4190  137.5910 C   0  0  0  0  0  0  0  0  0  0  0  0
  182.5150  176.8470  139.0290 C   0  0  0  0  0  0  0  0  0  0  0  0
  183.9030  177.5190  135.6840 C   0  0  2  0  0  3  0  0  0  0  0  0
  181.0280  174.9740  139.2230 C   0  0  0  0  0  3  0  0  0  0  0  0
  187.9510  176.8410  139.0450 C   0  0  0  0  0  2  0  0  0  0  0  0
  182.9820  178.2190  139.3200 C   0  0  2  0  0  3  0  0  0  0  0  0
  181.4900  179.0040  142.0620 C   0  0  0  0  0  1  0  0  0  0  0  0
  183.0910  174.6720  136.0190 C   0  0  0  0  0  2  0  0  0  0  0  0
  181.5640  174.4490  138.0260 C   0  0  0  0  0  3  0  0  0  0  0  0
  181.7330  179.0520  139.5820 C   0  0  0  0  0  2  0  0  0  0  0  0
  187.5840  177.2190  136.4150 C   0  0  0  0  0  2  0  0  0  0  0  0
  186.1720  177.4790  136.5850 N   0  0  1  0  0  0  0  0  0  0  0  0
  182.5100  175.1910  137.2900 C   0  0  0  0  0  0  0  0  0  0  0  0
  183.7360  178.6110  138.0220 C   0  0  1  0  0  3  0  0  0  0  0  0
  180.8370  176.9270  140.8560 C   0  0  0  0  0  2  0  0  0  0  0  0
  182.8440  176.9250  134.7370 C   0  0  1  0  0  3  0  0  0  0  0  0
  179.4920  179.0090  140.6410 C   0  0  0  0  0  1  0  0  0  0  0  0
  186.0030  178.8760  136.9700 C   0  0  0  0  0  2  0  0  0  0  0  0
  188.6520  175.3660  137.3580 O   0  0  0  0  0  0  0  0  0  0  0  0
  185.2400  178.8700  138.3020 C   0  0  2  0  0  3  0  0  0  0  0  0
  182.5610  175.4120  134.7950 C   0  0  0  0  0  2  0  0  0  0  0  0
  180.3490  177.0740  134.7650 C   0  0  0  0  0  3  0  0  0  0  0  0
  181.5820  177.7310  134.7350 C   0  0  0  0  0  0  0  0  0  0  0  0
  181.6150  179.1300  134.6780 C   0  0  0  0  0  3  0  0  0  0  0  0
  180.4380  181.1980  134.5940 F   0  0  0  0  0  0  0  0  0  0  0  0
  179.2280  179.1830  134.6840 N   0  0  0  0  0  0  0  0  0  0  0  0
  180.4170  179.8450  134.6520 C   0  0  0  0  0  0  0  0  0  0  0  0
  179.1720  177.8250  134.7400 C   0  0  0  0  0  3  0  0  0  0  0  0
  187.4050  178.5940  140.7710 C   0  0  0  0  0  2  0  0  0  0  0  0
  186.1320  178.6790  141.5960 C   0  0  0  0  0  1  0  0  0  0  0  0
  1  4  1  0  0  0  0
  2 22  1  0  0  0  0
  2 14  1  0  0  0  0
  3  9  1  0  0  0  0
  4 36  1  1  0  0  0
  6 22  1  0  0  0  0
  7  3  1  0  0  0  0
  8 12  1  0  0  0  0
  9 13  1  0  0  0  0
  9  6  2  0  0  0  0
 10  5  1  1  0  0  0
 10  7  1  0  0  0  0
 11  6  1  0  0  0  0
 12  4  1  0  0  0  0
 13 17  1  6  0  0  0
 15 20  1  0  0  0  0
 16 11  2  0  0  0  0
 17  2  1  0  0  0  0
 18 19  1  0  0  0  0
 18  8  1  0  0  0  0
 19  5  1  6  0  0  0
 19 25  1  0  0  0  0
 20  3  2  0  0  0  0
 20 16  1  0  0  0  0
 21  7  1  6  0  0  0
 21 27  1  0  0  0  0
 21 13  1  0  0  0  0
 23 30  1  1  0  0  0
 23 28  1  0  0  0  0
 23 10  1  0  0  0  0
 24  2  1  0  0  0  0
 26  8  2  0  0  0  0
 27 25  1  6  0  0  0
 27  1  1  0  0  0  0
 28 15  1  0  0  0  0
 30 29  2  0  0  0  0
 31 30  1  0  0  0  0
 32 34  1  0  0  0  0
 33 35  2  0  0  0  0
 34 31  2  0  0  0  0
 34 33  1  0  0  0  0
 35 29  1  0  0  0  0
 36 37  1  0  0  0  0
M  END
>  <MODEL>
5

>  <REMARK>
 VINA RESULT:      -3.4      1.177      1.441
  Name = 
  2 active torsions:
  status: ('A' for Active; 'I' for Inactive)
    1  A    between atoms: C_4  and  C_36
    2  A    between atoms: C_23  and  C_30
                            x       y       z     vdW  Elec       q    Type
                         _______ _______ _______ _____ _____    ______ ____

>  <TORSDO>
F 2

$$$$
=
 OpenBabel11122411423D

 37 43  0  0  1  0  0  0  0  0999 V2000
  184.7190  175.5800  136.2280 O   0  0  0  0  0  0  0  0  0  0  0  0
  180.1130  173.4980  137.1820 C   0  0  0  0  0  0  0  0  0  0  0  0
  181.7880  177.2690  136.9670 C   0  0  0  0  0  0  0  0  0  0  0  0
  186.0660  175.4240  135.8410 C   0  0  2  0  0  3  0  0  0  0  0  0
  184.6440  178.8620  138.2350 C   0  0  0  0  0  2  0  0  0  0  0  0
  180.1170  175.8140  136.0660 C   0  0  0  0  0  0  0  0  0  0  0  0
  182.8110  177.1900  137.9370 N   0  0  0  0  0  0  0  0  0  0  0  0
  186.6870  177.9370  135.4670 C   0  0  0  0  0  0  0  0  0  0  0  0
  181.3690  176.0240  136.6210 C   0  0  0  0  0  0  0  0  0  0  0  0
  183.3320  178.2760  138.7770 C   0  0  2  0  0  3  0  0  0  0  0  0
  179.3720  176.9310  135.6490 C   0  0  0  0  0  3  0  0  0  0  0  0
  186.4930  176.5470  134.8840 C   0  0  0  0  0  2  0  0  0  0  0  0
  182.1870  174.9690  137.2570 C   0  0  2  0  0  3  0  0  0  0  0  0
  180.6490  172.2320  136.5430 C   0  0  0  0  0  1  0  0  0  0  0  0
  181.6570  179.7660  136.8150 C   0  0  0  0  0  2  0  0  0  0  0  0
  179.8800  178.2320  135.8690 C   0  0  0  0  0  3  0  0  0  0  0  0
  181.2260  174.1130  138.0730 C   0  0  0  0  0  2  0  0  0  0  0  0
  186.6150  178.2710  136.9350 C   0  0  0  0  0  2  0  0  0  0  0  0
  185.3390  177.8370  137.4580 N   0  0  1  0  0  0  0  0  0  0  0  0
  181.0960  178.4090  136.5590 C   0  0  0  0  0  0  0  0  0  0  0  0
  183.1910  175.7790  138.1180 C   0  0  1  0  0  3  0  0  0  0  0  0
  179.5650  174.4180  136.0510 C   0  0  0  0  0  2  0  0  0  0  0  0
  182.2800  179.2740  139.2950 C   0  0  1  0  0  3  0  0  0  0  0  0
  178.9560  173.1160  138.0820 C   0  0  0  0  0  1  0  0  0  0  0  0
  185.5510  176.6320  138.2530 C   0  0  0  0  0  2  0  0  0  0  0  0
  186.9340  178.8450  134.6920 O   0  0  0  0  0  0  0  0  0  0  0  0
  184.6510  175.5470  137.6450 C   0  0  2  0  0  3  0  0  0  0  0  0
  181.5460  180.1710  138.2810 C   0  0  0  0  0  2  0  0  0  0  0  0
  180.4800  177.6210  139.8220 C   0  0  0  0  0  3  0  0  0  0  0  0
  181.3340  178.6350  140.2650 C   0  0  0  0  0  0  0  0  0  0  0  0
  181.2710  179.0530  141.5990 C   0  0  0  0  0  3  0  0  0  0  0  0
  180.2880  178.8490  143.7590 F   0  0  0  0  0  0  0  0  0  0  0  0
  179.5390  177.4630  142.0120 N   0  0  0  0  0  0  0  0  0  0  0  0
  180.3580  178.4500  142.4660 C   0  0  0  0  0  0  0  0  0  0  0  0
  179.5820  177.0410  140.7200 C   0  0  0  0  0  3  0  0  0  0  0  0
  186.2780  174.0560  135.1980 C   0  0  0  0  0  2  0  0  0  0  0  0
  184.9670  173.3170  134.9860 C   0  0  0  0  0  1  0  0  0  0  0  0
  1 27  1  0  0  0  0
  2 17  1  0  0  0  0
  2 24  1  0  0  0  0
  3  7  1  0  0  0  0
  4 36  1  6  0  0  0
  4  1  1  0  0  0  0
  6  9  2  0  0  0  0
  7 10  1  0  0  0  0
  8 18  1  0  0  0  0
  9  3  1  0  0  0  0
  9 13  1  0  0  0  0
 10  5  1  6  0  0  0
 10 23  1  0  0  0  0
 11 16  2  0  0  0  0
 11  6  1  0  0  0  0
 12  8  1  0  0  0  0
 12  4  1  0  0  0  0
 13 17  1  1  0  0  0
 13 21  1  0  0  0  0
 14  2  1  0  0  0  0
 15 28  1  0  0  0  0
 16 20  1  0  0  0  0
 19 18  1  1  0  0  0
 19  5  1  0  0  0  0
 19 25  1  0  0  0  0
 20 15  1  0  0  0  0
 20  3  2  0  0  0  0
 21  7  1  6  0  0  0
 22  6  1  0  0  0  0
 22  2  1  0  0  0  0
 23 30  1  6  0  0  0
 26  8  2  0  0  0  0
 27 21  1  0  0  0  0
 27 25  1  1  0  0  0
 28 23  1  0  0  0  0
 29 30  2  0  0  0  0
 29 35  1  0  0  0  0
 30 31  1  0  0  0  0
 31 34  2  0  0  0  0
 33 34  1  0  0  0  0
 34 32  1  0  0  0  0
 35 33  2  0  0  0  0
 37 36  1  0  0  0  0
M  END
>  <MODEL>
6

>  <REMARK>
 VINA RESULT:      -3.4      2.674      5.221
  Name = 
  2 active torsions:
  status: ('A' for Active; 'I' for Inactive)
    1  A    between atoms: C_4  and  C_36
    2  A    between atoms: C_23  and  C_30
                            x       y       z     vdW  Elec       q    Type
                         _______ _______ _______ _____ _____    ______ ____

>  <TORSDO>
F 2

$$$$
