=
 OpenBabel11122410473D

 32 37  0  0  1  0  0  0  0  0999 V2000
  185.3970  177.5120  136.9260 C   0  0  0  0  0  2  0  0  0  0  0  0
  187.2440  178.0670  142.1170 C   0  0  0  0  0  0  0  0  0  0  0  0
  183.5350  178.8790  145.1560 C   0  0  0  0  0  3  0  0  0  0  0  0
  184.3430  178.6420  146.1830 O   0  0  0  0  0  0  0  0  0  0  0  0
  189.4660  177.4530  143.1030 C   0  0  0  0  0  0  0  0  0  0  0  0
  190.1910  177.2300  144.2660 C   0  0  0  0  0  0  0  0  0  0  0  0
  186.7900  177.9320  139.6140 C   0  0  1  0  0  3  0  0  0  0  0  0
  184.9410  178.5800  141.1500 C   0  0  0  0  0  2  0  0  0  0  0  0
  190.6000  177.0510  146.3900 C   0  0  0  0  0  0  0  0  0  0  0  0
  184.5630  178.8750  138.7350 C   0  0  0  0  0  2  0  0  0  0  0  0
  184.0150  178.8100  143.8480 C   0  0  0  0  0  3  0  0  0  0  0  0
  185.8830  178.4110  142.3200 C   0  0  0  0  0  0  0  0  0  0  0  0
  185.3610  178.4870  143.6250 C   0  0  0  0  0  0  0  0  0  0  0  0
  187.5340  177.9010  144.5600 C   0  0  0  0  0  0  0  0  0  0  0  0
  191.7360  176.7800  145.7040 N   0  0  0  0  0  0  0  0  0  0  0  0
  186.6600  178.3790  137.0490 C   0  0  0  0  0  2  0  0  0  0  0  0
  185.6300  178.9210  139.8360 C   0  0  2  0  0  3  0  0  0  0  0  0
  191.4870  176.8890  144.3990 N   0  0  0  0  0  0  0  0  0  0  0  0
  187.5250  178.0560  138.2690 C   0  0  0  0  0  2  0  0  0  0  0  0
  184.5220  177.5550  138.1060 N   0  0  0  0  0  0  0  0  0  0  0  0
  185.6240  178.3300  146.0200 C   0  0  0  0  0  3  0  0  0  0  0  0
  186.1860  178.2390  144.7370 C   0  0  0  0  0  0  0  0  0  0  0  0
  188.3190  177.6630  145.6590 N   0  0  0  0  0  0  0  0  0  0  0  0
  187.8180  178.1100  140.7200 C   0  0  0  0  0  2  0  0  0  0  0  0
  190.1020  177.3140  141.8740 O   0  0  0  0  0  1  0  0  0  0  0  0
  190.4790  177.0300  147.8730 C   0  0  0  0  0  1  0  0  0  0  0  0
  188.0860  177.8080  143.2350 C   0  0  0  0  0  0  0  0  0  0  0  0
  189.6160  177.3380  145.4840 C   0  0  0  0  0  0  0  0  0  0  0  0
  183.1650  177.3500  137.6310 C   0  0  0  0  0  2  0  0  0  0  0  0
  182.2040  177.2880  138.8060 C   0  0  2  0  0  3  0  0  0  0  0  0
  182.3880  175.9730  139.5340 C   0  0  0  0  0  1  0  0  0  0  0  0
  180.8900  177.3830  138.3490 O   0  0  0  0  0  1  0  0  0  0  0  0
  1 16  1  0  0  0  0
  1 20  1  0  0  0  0
  2 12  1  0  0  0  0
  2 27  2  0  0  0  0
  3  4  1  0  0  0  0
  5 27  1  0  0  0  0
  5  6  2  0  0  0  0
  6 18  1  0  0  0  0
  6 28  1  0  0  0  0
  7 19  1  6  0  0  0
  7 17  1  0  0  0  0
  7 24  1  0  0  0  0
  8 12  1  0  0  0  0
  9 26  1  0  0  0  0
 11  3  2  0  0  0  0
 12 13  2  0  0  0  0
 13 11  1  0  0  0  0
 13 22  1  0  0  0  0
 14 22  1  0  0  0  0
 14 23  2  0  0  0  0
 15  9  1  0  0  0  0
 16 19  1  0  0  0  0
 17 10  1  6  0  0  0
 17  8  1  0  0  0  0
 18 15  2  0  0  0  0
 20 10  1  0  0  0  0
 21  4  1  0  0  0  0
 22 21  2  0  0  0  0
 24  2  1  0  0  0  0
 25  5  1  0  0  0  0
 27 14  1  0  0  0  0
 28 23  1  0  0  0  0
 28  9  2  0  0  0  0
 29 20  1  0  0  0  0
 29 30  1  0  0  0  0
 30 31  1  6  0  0  0
 32 30  1  0  0  0  0
M  END
>  <MODEL>
1

>  <REMARK>
 VINA RESULT:     -10.0      0.000      0.000
  Name = 
  2 active torsions:
  status: ('A' for Active; 'I' for Inactive)
    1  A    between atoms: N_20  and  C_29
    2  A    between atoms: C_29  and  C_30
                            x       y       z     vdW  Elec       q    Type
                         _______ _______ _______ _____ _____    ______ ____

>  <TORSDO>
F 2

$$$$
=
 OpenBabel11122410473D

 32 37  0  0  1  0  0  0  0  0999 V2000
  179.0720  180.5310  142.3710 C   0  0  0  0  0  2  0  0  0  0  0  0
  184.1440  178.5570  143.3960 C   0  0  0  0  0  0  0  0  0  0  0  0
  186.7640  178.4120  139.3010 C   0  0  0  0  0  3  0  0  0  0  0  0
  187.8590  178.2120  140.0260 O   0  0  0  0  0  0  0  0  0  0  0  0
  185.3470  178.2820  145.5790 C   0  0  0  0  0  0  0  0  0  0  0  0
  186.5690  178.0690  146.2050 C   0  0  0  0  0  0  0  0  0  0  0  0
  181.6960  179.2510  143.2780 C   0  0  1  0  0  3  0  0  0  0  0  0
  182.9750  178.9480  141.1630 C   0  0  0  0  0  2  0  0  0  0  0  0
  188.7040  177.7480  146.4130 C   0  0  0  0  0  0  0  0  0  0  0  0
  180.5320  179.2010  140.9840 C   0  0  0  0  0  2  0  0  0  0  0  0
  185.5220  178.5540  139.9200 C   0  0  0  0  0  3  0  0  0  0  0  0
  184.2030  178.6170  141.9800 C   0  0  0  0  0  0  0  0  0  0  0  0
  185.4390  178.4820  141.3180 C   0  0  0  0  0  0  0  0  0  0  0  0
  186.5840  178.2050  143.4520 C   0  0  0  0  0  0  0  0  0  0  0  0
  188.1460  177.7710  147.6470 N   0  0  0  0  0  0  0  0  0  0  0  0
  179.0900  179.3110  143.3050 C   0  0  0  0  0  2  0  0  0  0  0  0
  181.6580  178.6420  141.8630 C   0  0  2  0  0  3  0  0  0  0  0  0
  186.8340  177.9690  147.5210 N   0  0  0  0  0  0  0  0  0  0  0  0
  180.3940  179.1400  144.0880 C   0  0  0  0  0  2  0  0  0  0  0  0
  180.1740  180.5570  141.3980 N   0  0  0  0  0  0  0  0  0  0  0  0
  187.8280  178.1390  141.3520 C   0  0  0  0  0  3  0  0  0  0  0  0
  186.6200  178.2710  142.0530 C   0  0  0  0  0  0  0  0  0  0  0  0
  187.7480  177.9990  144.1460 N   0  0  0  0  0  0  0  0  0  0  0  0
  182.7990  178.5790  144.0820 C   0  0  0  0  0  2  0  0  0  0  0  0
  184.2050  178.4270  146.3580 O   0  0  0  0  0  1  0  0  0  0  0  0
  190.1540  177.5510  146.1410 C   0  0  0  0  0  1  0  0  0  0  0  0
  185.3340  178.3500  144.1490 C   0  0  0  0  0  0  0  0  0  0  0  0
  187.7090  177.9360  145.4930 C   0  0  0  0  0  0  0  0  0  0  0  0
  179.6760  181.2460  140.2200 C   0  0  0  0  0  2  0  0  0  0  0  0
  180.3240  180.6750  138.9700 C   0  0  2  0  0  3  0  0  0  0  0  0
  181.3800  181.6370  138.4690 C   0  0  0  0  0  1  0  0  0  0  0  0
  179.3600  180.4900  137.9780 O   0  0  0  0  0  1  0  0  0  0  0  0
  1 16  1  0  0  0  0
  2 24  1  0  0  0  0
  2 27  2  0  0  0  0
  3 11  2  0  0  0  0
  3  4  1  0  0  0  0
  4 21  1  0  0  0  0
  5  6  2  0  0  0  0
  5 25  1  0  0  0  0
  6 18  1  0  0  0  0
  7 24  1  1  0  0  0
  7 19  1  0  0  0  0
  8 17  1  0  0  0  0
  8 12  1  0  0  0  0
  9 15  1  0  0  0  0
 10 20  1  0  0  0  0
 11 13  1  0  0  0  0
 12  2  1  0  0  0  0
 13 12  2  0  0  0  0
 13 22  1  0  0  0  0
 14 23  2  0  0  0  0
 14 27  1  0  0  0  0
 16 19  1  0  0  0  0
 17 10  1  6  0  0  0
 17  7  1  0  0  0  0
 18 15  2  0  0  0  0
 20  1  1  0  0  0  0
 21 22  2  0  0  0  0
 22 14  1  0  0  0  0
 23 28  1  0  0  0  0
 26  9  1  0  0  0  0
 27  5  1  0  0  0  0
 28  6  1  0  0  0  0
 28  9  2  0  0  0  0
 29 20  1  0  0  0  0
 30 31  1  6  0  0  0
 30 29  1  0  0  0  0
 32 30  1  0  0  0  0
M  END
>  <MODEL>
2

>  <REMARK>
 VINA RESULT:      -9.9      2.712      5.182
  Name = 
  2 active torsions:
  status: ('A' for Active; 'I' for Inactive)
    1  A    between atoms: N_20  and  C_29
    2  A    between atoms: C_29  and  C_30
                            x       y       z     vdW  Elec       q    Type
                         _______ _______ _______ _____ _____    ______ ____

>  <TORSDO>
F 2

$$$$
=
 OpenBabel11122410473D

 32 37  0  0  1  0  0  0  0  0999 V2000
  191.0720  175.8320  136.8250 C   0  0  0  0  0  2  0  0  0  0  0  0
  189.4210  177.4620  141.8540 C   0  0  0  0  0  0  0  0  0  0  0  0
  184.8250  179.0430  141.6960 C   0  0  0  0  0  3  0  0  0  0  0  0
  184.7840  179.0130  143.0230 O   0  0  0  0  0  0  0  0  0  0  0  0
  190.4390  177.0120  144.1000 C   0  0  0  0  0  0  0  0  0  0  0  0
  190.2530  177.0290  145.4770 C   0  0  0  0  0  0  0  0  0  0  0  0
  190.5770  176.7920  139.6840 C   0  0  1  0  0  3  0  0  0  0  0  0
  188.3120  177.8210  139.5850 C   0  0  0  0  0  2  0  0  0  0  0  0
  189.2420  177.3110  147.3760 C   0  0  0  0  0  0  0  0  0  0  0  0
  189.5440  177.5870  137.4660 C   0  0  0  0  0  2  0  0  0  0  0  0
  185.9840  178.6720  141.0150 C   0  0  0  0  0  3  0  0  0  0  0  0
  188.2990  177.8860  141.0950 C   0  0  0  0  0  0  0  0  0  0  0  0
  187.1090  178.2650  141.7460 C   0  0  0  0  0  0  0  0  0  0  0  0
  188.1250  177.8310  143.9190 C   0  0  0  0  0  0  0  0  0  0  0  0
  190.4960  176.8590  147.6140 N   0  0  0  0  0  0  0  0  0  0  0  0
  192.1170  176.6650  137.5850 C   0  0  0  0  0  2  0  0  0  0  0  0
  189.7040  177.8420  138.9700 C   0  0  2  0  0  3  0  0  0  0  0  0
  191.1190  176.6840  146.4480 N   0  0  0  0  0  0  0  0  0  0  0  0
  191.9880  176.5920  139.1090 C   0  0  0  0  0  2  0  0  0  0  0  0
  189.6810  176.1620  137.1630 N   0  0  0  0  0  0  0  0  0  0  0  0
  185.8250  178.6330  143.7560 C   0  0  0  0  0  3  0  0  0  0  0  0
  187.0290  178.2430  143.1500 C   0  0  0  0  0  0  0  0  0  0  0  0
  188.0220  177.8180  145.2860 N   0  0  0  0  0  0  0  0  0  0  0  0
  190.7260  177.1780  141.1480 C   0  0  0  0  0  2  0  0  0  0  0  0
  191.6590  176.5850  143.5890 O   0  0  0  0  0  1  0  0  0  0  0  0
  188.2380  177.6220  148.4290 C   0  0  0  0  0  1  0  0  0  0  0  0
  189.3480  177.4310  143.2740 C   0  0  0  0  0  0  0  0  0  0  0  0
  189.0800  177.4210  146.0220 C   0  0  0  0  0  0  0  0  0  0  0  0
  188.8870  175.9010  135.9750 C   0  0  0  0  0  2  0  0  0  0  0  0
  187.4920  176.4790  136.1420 C   0  0  2  0  0  3  0  0  0  0  0  0
  186.6050  175.4590  136.8230 C   0  0  0  0  0  1  0  0  0  0  0  0
  186.9570  176.7950  134.8930 O   0  0  0  0  0  1  0  0  0  0  0  0
  1 20  1  0  0  0  0
  1 16  1  0  0  0  0
  2 27  2  0  0  0  0
  3  4  1  0  0  0  0
  4 21  1  0  0  0  0
  5  6  2  0  0  0  0
  6 28  1  0  0  0  0
  6 18  1  0  0  0  0
  7 19  1  6  0  0  0
  7 24  1  0  0  0  0
  8 12  1  0  0  0  0
  9 15  1  0  0  0  0
  9 26  1  0  0  0  0
 11  3  2  0  0  0  0
 11 13  1  0  0  0  0
 12 13  2  0  0  0  0
 12  2  1  0  0  0  0
 13 22  1  0  0  0  0
 14 23  2  0  0  0  0
 16 19  1  0  0  0  0
 17 10  1  6  0  0  0
 17  8  1  0  0  0  0
 17  7  1  0  0  0  0
 18 15  2  0  0  0  0
 20 10  1  0  0  0  0
 22 21  2  0  0  0  0
 22 14  1  0  0  0  0
 23 28  1  0  0  0  0
 24  2  1  0  0  0  0
 25  5  1  0  0  0  0
 27 14  1  0  0  0  0
 27  5  1  0  0  0  0
 28  9  2  0  0  0  0
 29 30  1  0  0  0  0
 29 20  1  0  0  0  0
 30 31  1  6  0  0  0
 32 30  1  0  0  0  0
M  END
>  <MODEL>
3

>  <REMARK>
 VINA RESULT:      -9.9      2.689      3.746
  Name = 
  2 active torsions:
  status: ('A' for Active; 'I' for Inactive)
    1  A    between atoms: N_20  and  C_29
    2  A    between atoms: C_29  and  C_30
                            x       y       z     vdW  Elec       q    Type
                         _______ _______ _______ _____ _____    ______ ____

>  <TORSDO>
F 2

$$$$
=
 OpenBabel11122410473D

 32 37  0  0  1  0  0  0  0  0999 V2000
  188.3290  176.8280  148.3560 C   0  0  0  0  0  2  0  0  0  0  0  0
  186.1880  178.3430  143.4790 C   0  0  0  0  0  0  0  0  0  0  0  0
  189.5010  177.8590  139.9520 C   0  0  0  0  0  3  0  0  0  0  0  0
  188.5400  178.0070  139.0480 O   0  0  0  0  0  0  0  0  0  0  0  0
  183.7940  178.6800  142.8130 C   0  0  0  0  0  0  0  0  0  0  0  0
  182.8970  178.8180  141.7620 C   0  0  0  0  0  0  0  0  0  0  0  0
  186.8730  177.9010  145.8920 C   0  0  1  0  0  3  0  0  0  0  0  0
  188.6150  177.8850  144.1150 C   0  0  0  0  0  2  0  0  0  0  0  0
  182.1820  178.9310  139.7160 C   0  0  0  0  0  0  0  0  0  0  0  0
  189.3830  177.8730  146.4540 C   0  0  0  0  0  2  0  0  0  0  0  0
  189.2040  177.9020  141.3140 C   0  0  0  0  0  3  0  0  0  0  0  0
  187.5390  178.1560  143.0880 C   0  0  0  0  0  0  0  0  0  0  0  0
  187.8780  178.1030  141.7220 C   0  0  0  0  0  0  0  0  0  0  0  0
  185.5460  178.4430  141.1010 C   0  0  0  0  0  0  0  0  0  0  0  0
  181.1270  179.0730  140.5540 N   0  0  0  0  0  0  0  0  0  0  0  0
  187.4920  178.1150  148.4160 C   0  0  0  0  0  2  0  0  0  0  0  0
  188.2850  178.3850  145.5130 C   0  0  2  0  0  3  0  0  0  0  0  0
  181.5640  179.0030  141.8120 N   0  0  0  0  0  0  0  0  0  0  0  0
  186.4200  178.2170  147.3280 C   0  0  0  0  0  2  0  0  0  0  0  0
  188.9930  176.6030  147.0650 N   0  0  0  0  0  0  0  0  0  0  0  0
  187.2690  178.1970  139.3880 C   0  0  0  0  0  3  0  0  0  0  0  0
  186.8850  178.2530  140.7370 C   0  0  0  0  0  0  0  0  0  0  0  0
  184.5960  178.5850  140.1210 N   0  0  0  0  0  0  0  0  0  0  0  0
  185.8590  178.5210  144.9420 C   0  0  0  0  0  2  0  0  0  0  0  0
  183.3170  178.7220  144.1180 O   0  0  0  0  0  1  0  0  0  0  0  0
  182.0940  178.9510  138.2310 C   0  0  0  0  0  1  0  0  0  0  0  0
  185.1760  178.4900  142.4900 C   0  0  0  0  0  0  0  0  0  0  0  0
  183.3080  178.7690  140.4760 C   0  0  0  0  0  0  0  0  0  0  0  0
  190.2160  175.8700  147.3440 C   0  0  0  0  0  2  0  0  0  0  0  0
  191.4220  176.6770  146.8930 C   0  0  2  0  0  3  0  0  0  0  0  0
  192.0550  176.0030  145.6940 C   0  0  0  0  0  1  0  0  0  0  0  0
  192.3550  176.7530  147.9260 O   0  0  0  0  0  1  0  0  0  0  0  0
  1 16  1  0  0  0  0
  2 24  1  0  0  0  0
  3 11  2  0  0  0  0
  4 21  1  0  0  0  0
  4  3  1  0  0  0  0
  5 25  1  0  0  0  0
  6 18  1  0  0  0  0
  6  5  2  0  0  0  0
  7 24  1  6  0  0  0
  7 19  1  0  0  0  0
  9 28  2  0  0  0  0
  9 15  1  0  0  0  0
 10 20  1  0  0  0  0
 11 13  1  0  0  0  0
 12  2  1  0  0  0  0
 12  8  1  0  0  0  0
 13 12  2  0  0  0  0
 14 27  1  0  0  0  0
 15 18  2  0  0  0  0
 17  8  1  6  0  0  0
 17  7  1  0  0  0  0
 17 10  1  0  0  0  0
 19 16  1  0  0  0  0
 20 29  1  0  0  0  0
 20  1  1  0  0  0  0
 21 22  2  0  0  0  0
 22 14  1  0  0  0  0
 22 13  1  0  0  0  0
 23 28  1  0  0  0  0
 23 14  2  0  0  0  0
 26  9  1  0  0  0  0
 27  5  1  0  0  0  0
 27  2  2  0  0  0  0
 28  6  1  0  0  0  0
 30 31  1  6  0  0  0
 30 29  1  0  0  0  0
 30 32  1  0  0  0  0
M  END
>  <MODEL>
4

>  <REMARK>
 VINA RESULT:      -9.2      2.275      8.636
  Name = 
  2 active torsions:
  status: ('A' for Active; 'I' for Inactive)
    1  A    between atoms: N_20  and  C_29
    2  A    between atoms: C_29  and  C_30
                            x       y       z     vdW  Elec       q    Type
                         _______ _______ _______ _____ _____    ______ ____

>  <TORSDO>
F 2

$$$$
=
 OpenBabel11122410473D

 32 37  0  0  1  0  0  0  0  0999 V2000
  191.1850  177.2530  147.2670 C   0  0  0  0  0  2  0  0  0  0  0  0
  188.6280  177.4970  142.3610 C   0  0  0  0  0  0  0  0  0  0  0  0
  183.9800  178.8040  142.9380 C   0  0  0  0  0  3  0  0  0  0  0  0
  183.8930  179.0190  141.6300 O   0  0  0  0  0  0  0  0  0  0  0  0
  189.5970  177.5670  140.0490 C   0  0  0  0  0  0  0  0  0  0  0  0
  189.3610  177.8310  138.7060 C   0  0  0  0  0  0  0  0  0  0  0  0
  190.0730  177.1130  144.4240 C   0  0  1  0  0  3  0  0  0  0  0  0
  187.6400  177.5510  144.7120 C   0  0  0  0  0  2  0  0  0  0  0  0
  188.2730  178.4150  136.9220 C   0  0  0  0  0  0  0  0  0  0  0  0
  188.8930  176.7750  146.6840 C   0  0  0  0  0  2  0  0  0  0  0  0
  185.1750  178.3620  143.5040 C   0  0  0  0  0  3  0  0  0  0  0  0
  187.5100  177.6950  143.2120 C   0  0  0  0  0  0  0  0  0  0  0  0
  186.2880  178.1450  142.6790 C   0  0  0  0  0  0  0  0  0  0  0  0
  187.2490  178.1930  140.4390 C   0  0  0  0  0  0  0  0  0  0  0  0
  189.5430  178.0990  136.5730 N   0  0  0  0  0  0  0  0  0  0  0  0
  191.5140  176.0780  146.3340 C   0  0  0  0  0  2  0  0  0  0  0  0
  188.7950  176.6660  145.1570 C   0  0  2  0  0  3  0  0  0  0  0  0
  190.2140  177.7410  137.6680 N   0  0  0  0  0  0  0  0  0  0  0  0
  191.3700  176.4010  144.8450 C   0  0  0  0  0  2  0  0  0  0  0  0
  189.8430  177.8180  147.0710 N   0  0  0  0  0  0  0  0  0  0  0  0
  184.9210  178.8280  140.8100 C   0  0  0  0  0  3  0  0  0  0  0  0
  186.1590  178.3850  141.2990 C   0  0  0  0  0  0  0  0  0  0  0  0
  187.0990  178.4340  139.0980 N   0  0  0  0  0  0  0  0  0  0  0  0
  189.8930  176.8980  142.9290 C   0  0  0  0  0  2  0  0  0  0  0  0
  190.8650  177.1560  140.4450 O   0  0  0  0  0  1  0  0  0  0  0  0
  187.2200  178.8650  135.9730 C   0  0  0  0  0  1  0  0  0  0  0  0
  188.5100  177.7430  140.9640 C   0  0  0  0  0  0  0  0  0  0  0  0
  188.1510  178.2470  138.2740 C   0  0  0  0  0  0  0  0  0  0  0  0
  189.4110  178.3330  148.3580 C   0  0  0  0  0  2  0  0  0  0  0  0
  187.9400  178.0250  148.5770 C   0  0  2  0  0  3  0  0  0  0  0  0
  187.1000  179.1150  147.9440 C   0  0  0  0  0  1  0  0  0  0  0  0
  187.6650  177.9650  149.9430 O   0  0  0  0  0  1  0  0  0  0  0  0
  2 24  1  0  0  0  0
  2 12  1  0  0  0  0
  3 11  2  0  0  0  0
  4  3  1  0  0  0  0
  5 25  1  0  0  0  0
  5 27  1  0  0  0  0
  6  5  2  0  0  0  0
  7 24  1  6  0  0  0
  7 19  1  0  0  0  0
  7 17  1  0  0  0  0
  9 28  2  0  0  0  0
 10 20  1  0  0  0  0
 12  8  1  0  0  0  0
 13 12  2  0  0  0  0
 13 11  1  0  0  0  0
 14 27  1  0  0  0  0
 14 22  1  0  0  0  0
 15  9  1  0  0  0  0
 15 18  2  0  0  0  0
 16  1  1  0  0  0  0
 17  8  1  6  0  0  0
 17 10  1  0  0  0  0
 18  6  1  0  0  0  0
 19 16  1  0  0  0  0
 20  1  1  0  0  0  0
 20 29  1  0  0  0  0
 21 22  2  0  0  0  0
 21  4  1  0  0  0  0
 22 13  1  0  0  0  0
 23 14  2  0  0  0  0
 26  9  1  0  0  0  0
 27  2  2  0  0  0  0
 28  6  1  0  0  0  0
 28 23  1  0  0  0  0
 29 30  1  0  0  0  0
 30 31  1  1  0  0  0
 30 32  1  0  0  0  0
M  END
>  <MODEL>
5

>  <REMARK>
 VINA RESULT:      -9.0      2.283      7.543
  Name = 
  2 active torsions:
  status: ('A' for Active; 'I' for Inactive)
    1  A    between atoms: N_20  and  C_29
    2  A    between atoms: C_29  and  C_30
                            x       y       z     vdW  Elec       q    Type
                         _______ _______ _______ _____ _____    ______ ____

>  <TORSDO>
F 2

$$$$
=
 OpenBabel11122410473D

 32 37  0  0  1  0  0  0  0  0999 V2000
  182.3110  177.8790  138.1780 C   0  0  0  0  0  2  0  0  0  0  0  0
  186.2330  178.1250  142.0810 C   0  0  0  0  0  0  0  0  0  0  0  0
  184.2170  178.6420  146.4760 C   0  0  0  0  0  3  0  0  0  0  0  0
  185.3880  178.3550  147.0320 O   0  0  0  0  0  0  0  0  0  0  0  0
  188.6580  177.4990  141.9600 C   0  0  0  0  0  0  0  0  0  0  0  0
  189.8140  177.2150  142.6750 C   0  0  0  0  0  0  0  0  0  0  0  0
  184.7360  178.1490  140.0200 C   0  0  1  0  0  3  0  0  0  0  0  0
  183.7420  178.6480  142.2470 C   0  0  0  0  0  2  0  0  0  0  0  0
  191.1020  176.9030  144.3920 C   0  0  0  0  0  0  0  0  0  0  0  0
  182.3560  179.0960  140.2620 C   0  0  0  0  0  2  0  0  0  0  0  0
  184.0800  178.6730  145.0880 C   0  0  0  0  0  3  0  0  0  0  0  0
  185.0970  178.4230  142.8780 C   0  0  0  0  0  0  0  0  0  0  0  0
  185.1940  178.3980  144.2820 C   0  0  0  0  0  0  0  0  0  0  0  0
  187.5530  177.8010  144.1380 C   0  0  0  0  0  0  0  0  0  0  0  0
  191.8260  176.7050  143.2650 N   0  0  0  0  0  0  0  0  0  0  0  0
  183.5090  178.7660  137.8030 C   0  0  0  0  0  2  0  0  0  0  0  0
  183.7950  179.0930  140.7930 C   0  0  2  0  0  3  0  0  0  0  0  0
  191.0360  176.8960  142.2080 N   0  0  0  0  0  0  0  0  0  0  0  0
  184.8160  178.3810  138.5010 C   0  0  0  0  0  2  0  0  0  0  0  0
  182.0360  177.8210  139.6210 N   0  0  0  0  0  0  0  0  0  0  0  0
  186.4690  178.0850  146.3080 C   0  0  0  0  0  3  0  0  0  0  0  0
  186.4180  178.0950  144.9050 C   0  0  0  0  0  0  0  0  0  0  0  0
  188.7350  177.5080  144.7690 N   0  0  0  0  0  0  0  0  0  0  0  0
  186.1440  178.2760  140.5810 C   0  0  0  0  0  2  0  0  0  0  0  0
  188.6960  177.4590  140.5700 O   0  0  0  0  0  1  0  0  0  0  0  0
  191.6360  176.7780  145.7760 C   0  0  0  0  0  1  0  0  0  0  0  0
  187.4740  177.8110  142.7020 C   0  0  0  0  0  0  0  0  0  0  0  0
  189.8250  177.2260  144.0260 C   0  0  0  0  0  0  0  0  0  0  0  0
  180.6050  177.6170  139.7670 C   0  0  0  0  0  2  0  0  0  0  0  0
  180.3330  176.5900  140.8520 C   0  0  2  0  0  3  0  0  0  0  0  0
  179.9600  175.2700  140.2100 C   0  0  0  0  0  1  0  0  0  0  0  0
  179.2830  177.0220  141.6620 O   0  0  0  0  0  1  0  0  0  0  0  0
  1 20  1  0  0  0  0
  2 27  2  0  0  0  0
  2 12  1  0  0  0  0
  3  4  1  0  0  0  0
  5  6  2  0  0  0  0
  5 27  1  0  0  0  0
  6 28  1  0  0  0  0
  7 19  1  6  0  0  0
  7 24  1  0  0  0  0
  7 17  1  0  0  0  0
  8 12  1  0  0  0  0
  9 26  1  0  0  0  0
 11  3  2  0  0  0  0
 12 13  2  0  0  0  0
 13 22  1  0  0  0  0
 13 11  1  0  0  0  0
 14 23  2  0  0  0  0
 14 22  1  0  0  0  0
 15  9  1  0  0  0  0
 16  1  1  0  0  0  0
 16 19  1  0  0  0  0
 17 10  1  6  0  0  0
 17  8  1  0  0  0  0
 18  6  1  0  0  0  0
 18 15  2  0  0  0  0
 20 29  1  0  0  0  0
 20 10  1  0  0  0  0
 21  4  1  0  0  0  0
 22 21  2  0  0  0  0
 24  2  1  0  0  0  0
 25  5  1  0  0  0  0
 27 14  1  0  0  0  0
 28  9  2  0  0  0  0
 28 23  1  0  0  0  0
 29 30  1  0  0  0  0
 30 31  1  6  0  0  0
 30 32  1  0  0  0  0
M  END
>  <MODEL>
6

>  <REMARK>
 VINA RESULT:      -8.9      1.604      2.105
  Name = 
  2 active torsions:
  status: ('A' for Active; 'I' for Inactive)
    1  A    between atoms: N_20  and  C_29
    2  A    between atoms: C_29  and  C_30
                            x       y       z     vdW  Elec       q    Type
                         _______ _______ _______ _____ _____    ______ ____

>  <TORSDO>
F 2

$$$$
=
 OpenBabel11122410473D

 32 37  0  0  1  0  0  0  0  0999 V2000
  190.2550  176.7130  147.6360 C   0  0  0  0  0  2  0  0  0  0  0  0
  186.3430  178.3260  144.0620 C   0  0  0  0  0  0  0  0  0  0  0  0
  188.0720  178.2650  139.5180 C   0  0  0  0  0  3  0  0  0  0  0  0
  186.8320  178.3910  139.0590 O   0  0  0  0  0  0  0  0  0  0  0  0
  183.8630  178.5240  144.3810 C   0  0  0  0  0  0  0  0  0  0  0  0
  182.6270  178.6520  143.7620 C   0  0  0  0  0  0  0  0  0  0  0  0
  187.9190  177.8080  145.9960 C   0  0  1  0  0  3  0  0  0  0  0  0
  188.8470  178.0090  143.6950 C   0  0  0  0  0  2  0  0  0  0  0  0
  181.1790  178.8210  142.1540 C   0  0  0  0  0  0  0  0  0  0  0  0
  190.4510  177.9300  145.5610 C   0  0  0  0  0  2  0  0  0  0  0  0
  188.3180  178.2150  140.8900 C   0  0  0  0  0  3  0  0  0  0  0  0
  187.4480  178.2560  143.1760 C   0  0  0  0  0  0  0  0  0  0  0  0
  187.2410  178.2990  141.7840 C   0  0  0  0  0  0  0  0  0  0  0  0
  184.8350  178.5030  142.1200 C   0  0  0  0  0  0  0  0  0  0  0  0
  180.5200  178.8430  143.3370 N   0  0  0  0  0  0  0  0  0  0  0  0
  189.4460  177.9330  148.1050 C   0  0  0  0  0  2  0  0  0  0  0  0
  189.0540  178.4110  145.1480 C   0  0  2  0  0  3  0  0  0  0  0  0
  181.4070  178.7390  144.3260 N   0  0  0  0  0  0  0  0  0  0  0  0
  188.0360  178.0140  147.5150 C   0  0  0  0  0  2  0  0  0  0  0  0
  190.3840  176.6040  146.1760 N   0  0  0  0  0  0  0  0  0  0  0  0
  185.7820  178.4710  139.8690 C   0  0  0  0  0  3  0  0  0  0  0  0
  185.9410  178.4290  141.2620 C   0  0  0  0  0  0  0  0  0  0  0  0
  183.5780  178.6280  141.5870 N   0  0  0  0  0  0  0  0  0  0  0  0
  186.5910  178.4020  145.5500 C   0  0  0  0  0  2  0  0  0  0  0  0
  183.9210  178.4640  145.7680 O   0  0  0  0  0  1  0  0  0  0  0  0
  180.5290  178.9130  140.8190 C   0  0  0  0  0  1  0  0  0  0  0  0
  185.0230  178.4510  143.5450 C   0  0  0  0  0  0  0  0  0  0  0  0
  182.5160  178.7000  142.4160 C   0  0  0  0  0  0  0  0  0  0  0  0
  191.6530  175.9480  145.9140 C   0  0  0  0  0  2  0  0  0  0  0  0
  191.5810  175.1740  144.6090 C   0  0  2  0  0  3  0  0  0  0  0  0
  192.4300  173.9260  144.7190 C   0  0  0  0  0  1  0  0  0  0  0  0
  192.0550  175.9650  143.5620 O   0  0  0  0  0  1  0  0  0  0  0  0
  1 16  1  0  0  0  0
  2 24  1  0  0  0  0
  3 11  2  0  0  0  0
  4  3  1  0  0  0  0
  4 21  1  0  0  0  0
  5 25  1  0  0  0  0
  6 18  1  0  0  0  0
  6  5  2  0  0  0  0
  7 24  1  6  0  0  0
  7 19  1  0  0  0  0
  9 28  2  0  0  0  0
  9 15  1  0  0  0  0
 10 20  1  0  0  0  0
 11 13  1  0  0  0  0
 12  8  1  0  0  0  0
 12  2  1  0  0  0  0
 13 12  2  0  0  0  0
 14 27  1  0  0  0  0
 15 18  2  0  0  0  0
 17  8  1  6  0  0  0
 17 10  1  0  0  0  0
 17  7  1  0  0  0  0
 19 16  1  0  0  0  0
 20  1  1  0  0  0  0
 21 22  2  0  0  0  0
 22 13  1  0  0  0  0
 22 14  1  0  0  0  0
 23 14  2  0  0  0  0
 23 28  1  0  0  0  0
 26  9  1  0  0  0  0
 27  2  2  0  0  0  0
 27  5  1  0  0  0  0
 28  6  1  0  0  0  0
 29 20  1  0  0  0  0
 30 31  1  1  0  0  0
 30 29  1  0  0  0  0
 32 30  1  0  0  0  0
M  END
>  <MODEL>
7

>  <REMARK>
 VINA RESULT:      -8.9      2.578      8.291
  Name = 
  2 active torsions:
  status: ('A' for Active; 'I' for Inactive)
    1  A    between atoms: N_20  and  C_29
    2  A    between atoms: C_29  and  C_30
                            x       y       z     vdW  Elec       q    Type
                         _______ _______ _______ _____ _____    ______ ____

>  <TORSDO>
F 2

$$$$
=
 OpenBabel11122410473D

 32 37  0  0  1  0  0  0  0  0999 V2000
  187.7030  176.5020  136.9980 C   0  0  0  0  0  2  0  0  0  0  0  0
  187.4820  177.8880  142.3560 C   0  0  0  0  0  0  0  0  0  0  0  0
  182.9440  179.1090  143.6030 C   0  0  0  0  0  3  0  0  0  0  0  0
  183.2940  179.0470  144.8830 O   0  0  0  0  0  0  0  0  0  0  0  0
  189.1400  177.4690  144.1900 C   0  0  0  0  0  0  0  0  0  0  0  0
  189.3630  177.4420  145.5610 C   0  0  0  0  0  0  0  0  0  0  0  0
  187.9980  177.3580  139.9180 C   0  0  1  0  0  3  0  0  0  0  0  0
  185.7390  178.2090  140.5230 C   0  0  0  0  0  2  0  0  0  0  0  0
  188.9330  177.6020  147.6820 C   0  0  0  0  0  0  0  0  0  0  0  0
  186.3120  178.1180  138.1300 C   0  0  0  0  0  2  0  0  0  0  0  0
  183.8770  178.8440  142.6010 C   0  0  0  0  0  3  0  0  0  0  0  0
  186.1620  178.2390  141.9740 C   0  0  0  0  0  0  0  0  0  0  0  0
  185.1910  178.5100  142.9560 C   0  0  0  0  0  0  0  0  0  0  0  0
  186.8240  178.1090  144.7210 C   0  0  0  0  0  0  0  0  0  0  0  0
  190.2300  177.2440  147.5270 N   0  0  0  0  0  0  0  0  0  0  0  0
  188.8640  177.3970  137.4590 C   0  0  0  0  0  2  0  0  0  0  0  0
  186.8860  178.3510  139.5330 C   0  0  2  0  0  3  0  0  0  0  0  0
  190.4960  177.1440  146.2240 N   0  0  0  0  0  0  0  0  0  0  0  0
  189.1910  177.2810  138.9500 C   0  0  0  0  0  2  0  0  0  0  0  0
  186.4510  176.7150  137.7380 N   0  0  0  0  0  0  0  0  0  0  0  0
  184.5260  178.7330  145.2660 C   0  0  0  0  0  3  0  0  0  0  0  0
  185.5250  178.4510  144.3210 C   0  0  0  0  0  0  0  0  0  0  0  0
  187.1250  178.0580  146.0580 N   0  0  0  0  0  0  0  0  0  0  0  0
  188.5410  177.7220  141.2910 C   0  0  0  0  0  2  0  0  0  0  0  0
  190.1840  177.1500  143.3290 O   0  0  0  0  0  1  0  0  0  0  0  0
  188.2620  177.8110  148.9930 C   0  0  0  0  0  1  0  0  0  0  0  0
  187.8290  177.8200  143.7340 C   0  0  0  0  0  0  0  0  0  0  0  0
  188.3770  177.7290  146.4380 C   0  0  0  0  0  0  0  0  0  0  0  0
  185.3650  176.4190  136.8210 C   0  0  0  0  0  2  0  0  0  0  0  0
  185.8960  176.3060  135.4020 C   0  0  2  0  0  3  0  0  0  0  0  0
  185.4250  177.4960  134.5940 C   0  0  0  0  0  1  0  0  0  0  0  0
  185.4270  175.1320  134.8120 O   0  0  0  0  0  1  0  0  0  0  0  0
  1 16  1  0  0  0  0
  1 20  1  0  0  0  0
  2 27  2  0  0  0  0
  3  4  1  0  0  0  0
  4 21  1  0  0  0  0
  5  6  2  0  0  0  0
  6 18  1  0  0  0  0
  6 28  1  0  0  0  0
  7 19  1  6  0  0  0
  7 24  1  0  0  0  0
  8 12  1  0  0  0  0
  9 26  1  0  0  0  0
 11 13  1  0  0  0  0
 11  3  2  0  0  0  0
 12  2  1  0  0  0  0
 12 13  2  0  0  0  0
 13 22  1  0  0  0  0
 14 23  2  0  0  0  0
 15  9  1  0  0  0  0
 16 19  1  0  0  0  0
 17 10  1  6  0  0  0
 17  7  1  0  0  0  0
 17  8  1  0  0  0  0
 18 15  2  0  0  0  0
 20 10  1  0  0  0  0
 22 14  1  0  0  0  0
 22 21  2  0  0  0  0
 23 28  1  0  0  0  0
 24  2  1  0  0  0  0
 25  5  1  0  0  0  0
 27  5  1  0  0  0  0
 27 14  1  0  0  0  0
 28  9  2  0  0  0  0
 29 20  1  0  0  0  0
 30 31  1  6  0  0  0
 30 29  1  0  0  0  0
 32 30  1  0  0  0  0
M  END
>  <MODEL>
8

>  <REMARK>
 VINA RESULT:      -8.9      1.927      2.378
  Name = 
  2 active torsions:
  status: ('A' for Active; 'I' for Inactive)
    1  A    between atoms: N_20  and  C_29
    2  A    between atoms: C_29  and  C_30
                            x       y       z     vdW  Elec       q    Type
                         _______ _______ _______ _____ _____    ______ ____

>  <TORSDO>
F 2

$$$$
=
 OpenBabel11122410473D

 32 37  0  0  1  0  0  0  0  0999 V2000
  181.1910  180.0050  140.5460 C   0  0  0  0  0  2  0  0  0  0  0  0
  185.7020  178.2030  143.2060 C   0  0  0  0  0  0  0  0  0  0  0  0
  189.4470  177.8320  140.1270 C   0  0  0  0  0  3  0  0  0  0  0  0
  190.2680  177.7020  141.1630 O   0  0  0  0  0  0  0  0  0  0  0  0
  186.1790  178.0990  145.6650 C   0  0  0  0  0  0  0  0  0  0  0  0
  187.1500  177.9530  146.6480 C   0  0  0  0  0  0  0  0  0  0  0  0
  183.4080  178.8400  142.2980 C   0  0  1  0  0  3  0  0  0  0  0  0
  185.2720  178.4200  140.7010 C   0  0  0  0  0  2  0  0  0  0  0  0
  189.1190  177.6880  147.5200 C   0  0  0  0  0  0  0  0  0  0  0  0
  183.0020  178.6130  139.7670 C   0  0  0  0  0  2  0  0  0  0  0  0
  188.0760  177.9920  140.3260 C   0  0  0  0  0  3  0  0  0  0  0  0
  186.1910  178.1680  141.8750 C   0  0  0  0  0  0  0  0  0  0  0  0
  187.5690  178.0130  141.6330 C   0  0  0  0  0  0  0  0  0  0  0  0
  188.0060  177.9030  144.0290 C   0  0  0  0  0  0  0  0  0  0  0  0
  188.2110  177.7840  148.5190 N   0  0  0  0  0  0  0  0  0  0  0  0
  180.9180  178.8510  141.5250 C   0  0  0  0  0  2  0  0  0  0  0  0
  183.8040  178.1360  140.9860 C   0  0  2  0  0  3  0  0  0  0  0  0
  187.0000  177.9470  147.9860 N   0  0  0  0  0  0  0  0  0  0  0  0
  181.9200  178.7590  142.6780 C   0  0  0  0  0  2  0  0  0  0  0  0
  182.5370  179.9870  139.9560 N   0  0  0  0  0  0  0  0  0  0  0  0
  189.8330  177.7180  142.4190 C   0  0  0  0  0  3  0  0  0  0  0  0
  188.4680  177.8750  142.7060 C   0  0  0  0  0  0  0  0  0  0  0  0
  188.9030  177.7670  145.0580 N   0  0  0  0  0  0  0  0  0  0  0  0
  184.2110  178.2460  143.4450 C   0  0  0  0  0  2  0  0  0  0  0  0
  184.8530  178.2750  146.0460 O   0  0  0  0  0  1  0  0  0  0  0  0
  190.5820  177.5010  147.7180 C   0  0  0  0  0  1  0  0  0  0  0  0
  186.6030  178.0700  144.2990 C   0  0  0  0  0  0  0  0  0  0  0  0
  188.4530  177.7940  146.3290 C   0  0  0  0  0  0  0  0  0  0  0  0
  182.4250  180.5840  138.6370 C   0  0  0  0  0  2  0  0  0  0  0  0
  181.0590  181.2270  138.4690 C   0  0  2  0  0  3  0  0  0  0  0  0
  180.3590  180.6110  137.2760 C   0  0  0  0  0  1  0  0  0  0  0  0
  181.2020  182.5990  138.2620 O   0  0  0  0  0  1  0  0  0  0  0  0
  1 16  1  0  0  0  0
  2 24  1  0  0  0  0
  2 27  2  0  0  0  0
  3 11  2  0  0  0  0
  3  4  1  0  0  0  0
  4 21  1  0  0  0  0
  5 25  1  0  0  0  0
  5  6  2  0  0  0  0
  6 18  1  0  0  0  0
  7 19  1  1  0  0  0
  7 24  1  0  0  0  0
  8 17  1  0  0  0  0
  8 12  1  0  0  0  0
  9 26  1  0  0  0  0
  9 15  1  0  0  0  0
 10 20  1  0  0  0  0
 11 13  1  0  0  0  0
 12  2  1  0  0  0  0
 13 12  2  0  0  0  0
 13 22  1  0  0  0  0
 14 27  1  0  0  0  0
 14 23  2  0  0  0  0
 16 19  1  0  0  0  0
 17 10  1  6  0  0  0
 17  7  1  0  0  0  0
 18 15  2  0  0  0  0
 20  1  1  0  0  0  0
 21 22  2  0  0  0  0
 22 14  1  0  0  0  0
 23 28  1  0  0  0  0
 27  5  1  0  0  0  0
 28  6  1  0  0  0  0
 28  9  2  0  0  0  0
 29 20  1  0  0  0  0
 30 31  1  6  0  0  0
 30 29  1  0  0  0  0
 32 30  1  0  0  0  0
M  END
>  <MODEL>
9

>  <REMARK>
 VINA RESULT:      -8.7      2.172      4.480
  Name = 
  2 active torsions:
  status: ('A' for Active; 'I' for Inactive)
    1  A    between atoms: N_20  and  C_29
    2  A    between atoms: C_29  and  C_30
                            x       y       z     vdW  Elec       q    Type
                         _______ _______ _______ _____ _____    ______ ____

>  <TORSDO>
F 2

$$$$
