=
 OpenBabel11122410243D

 30 35  0  0  1  0  0  0  0  0999 V2000
  188.0290  178.2380  140.1040 C   0  0  0  0  0  0  0  0  0  0  0  0
  189.0640  178.3310  137.8410 C   0  0  0  0  0  0  0  0  0  0  0  0
  184.0830  178.1210  138.5280 C   0  0  0  0  0  2  0  0  0  0  0  0
  186.8800  178.1920  140.9050 C   0  0  0  0  0  0  0  0  0  0  0  0
  189.3230  178.1880  140.8450 C   0  0  0  0  0  2  0  0  0  0  0  0
  187.8990  175.9490  143.4500 C   0  0  0  0  0  1  0  0  0  0  0  0
  185.1250  179.5590  142.9270 C   0  0  1  0  0  3  0  0  0  0  0  0
  188.2540  177.2980  142.8340 C   0  0  1  0  0  3  0  0  0  0  0  0
  184.0220  179.2230  141.9420 C   0  0  2  0  0  3  0  0  0  0  0  0
  183.3640  177.9640  139.8800 C   0  0  1  0  0  3  0  0  0  0  0  0
  189.2790  177.0800  141.7950 N   0  0  0  0  0  0  0  0  0  0  0  0
  187.0280  177.9530  142.3200 N   0  0  0  0  0  0  0  0  0  0  0  0
  188.9030  178.3420  136.4510 C   0  0  0  0  0  3  0  0  0  0  0  0
  182.9100  178.7790  142.8300 C   0  0  0  0  0  2  0  0  0  0  0  0
  184.5070  180.0430  144.0980 O   0  0  0  0  0  0  0  0  0  0  0  0
  190.3260  178.3630  138.3350 F   0  0  0  0  0  0  0  0  0  0  0  0
  185.5130  178.2190  138.9180 C   0  0  0  0  0  0  0  0  0  0  0  0
  187.6310  178.3080  135.8820 C   0  0  0  0  0  3  0  0  0  0  0  0
  187.9310  178.2860  138.6860 C   0  0  0  0  0  0  0  0  0  0  0  0
  185.6270  178.2410  140.2800 C   0  0  0  0  0  0  0  0  0  0  0  0
  182.8450  176.5440  140.0150 C   0  0  0  0  0  1  0  0  0  0  0  0
  184.3590  178.2260  140.9230 N   0  0  0  0  0  0  0  0  0  0  0  0
  183.1760  179.5670  144.0960 C   0  0  0  0  0  2  0  0  0  0  0  0
  185.9290  177.8410  144.3850 O   0  0  0  0  0  0  0  0  0  0  0  0
  186.5010  178.2640  136.6980 C   0  0  0  0  0  3  0  0  0  0  0  0
  186.6380  178.2570  138.0900 C   0  0  0  0  0  0  0  0  0  0  0  0
  186.0290  178.4000  143.2580 C   0  0  0  0  0  0  0  0  0  0  0  0
  190.5730  177.0610  142.4600 C   0  0  0  0  0  2  0  0  0  0  0  0
  191.4100  177.4760  144.8980 C   0  0  0  0  0  1  0  0  0  0  0  0
  190.7150  178.4930  143.5670 S   0  0  0  0  0  0  0  0  0  0  0  0
  1  5  1  0  0  0  0
  1  4  1  0  0  0  0
  2 16  1  0  0  0  0
  2 19  1  0  0  0  0
  3 17  1  0  0  0  0
  3 10  1  0  0  0  0
  4 12  1  0  0  0  0
  5 11  1  0  0  0  0
  7 27  1  1  0  0  0
  7 15  1  0  0  0  0
  8  6  1  6  0  0  0
  9 14  1  1  0  0  0
  9  7  1  0  0  0  0
 10 21  1  1  0  0  0
 10 22  1  0  0  0  0
 11 28  1  0  0  0  0
 11  8  1  0  0  0  0
 12  8  1  0  0  0  0
 12 27  1  0  0  0  0
 13  2  2  0  0  0  0
 14 23  1  0  0  0  0
 17 20  1  0  0  0  0
 18 13  1  0  0  0  0
 18 25  2  0  0  0  0
 19  1  2  0  0  0  0
 20  4  2  0  0  0  0
 20 22  1  0  0  0  0
 22  9  1  0  0  0  0
 23 15  1  0  0  0  0
 25 26  1  0  0  0  0
 26 19  1  0  0  0  0
 26 17  2  0  0  0  0
 27 24  2  0  0  0  0
 28 30  1  0  0  0  0
 30 29  1  0  0  0  0
M  END
>  <MODEL>
1

>  <REMARK>
 VINA RESULT:      -7.2      0.000      0.000
  Name = 
  2 active torsions:
  status: ('A' for Active; 'I' for Inactive)
    1  A    between atoms: N_11  and  C_28
    2  A    between atoms: C_28  and  S_30
                            x       y       z     vdW  Elec       q    Type
                         _______ _______ _______ _____ _____    ______ ____

>  <TORSDO>
F 2

$$$$
=
 OpenBabel11122410243D

 30 35  0  0  1  0  0  0  0  0999 V2000
  184.6120  178.1770  142.1500 C   0  0  0  0  0  0  0  0  0  0  0  0
  185.9790  178.2870  144.2300 C   0  0  0  0  0  0  0  0  0  0  0  0
  181.0080  179.0710  144.2200 C   0  0  0  0  0  2  0  0  0  0  0  0
  183.3620  178.2580  141.5220 C   0  0  0  0  0  0  0  0  0  0  0  0
  185.7680  177.9370  141.2390 C   0  0  0  0  0  2  0  0  0  0  0  0
  184.2060  179.9290  138.5150 C   0  0  0  0  0  1  0  0  0  0  0  0
  181.1630  176.8540  140.0280 C   0  0  1  0  0  3  0  0  0  0  0  0
  184.5020  178.6530  139.2960 C   0  0  1  0  0  3  0  0  0  0  0  0
  180.2770  177.4840  141.0860 C   0  0  2  0  0  3  0  0  0  0  0  0
  180.1030  179.1180  142.9740 C   0  0  1  0  0  3  0  0  0  0  0  0
  185.6980  178.8830  140.1300 N   0  0  0  0  0  0  0  0  0  0  0  0
  183.3070  178.2580  140.0800 N   0  0  0  0  0  0  0  0  0  0  0  0
  186.0430  178.5090  145.6100 C   0  0  0  0  0  3  0  0  0  0  0  0
  179.0950  177.9360  140.2990 C   0  0  0  0  0  2  0  0  0  0  0  0
  180.3160  176.2880  139.0550 O   0  0  0  0  0  0  0  0  0  0  0  0
  187.1340  178.0090  143.5760 F   0  0  0  0  0  0  0  0  0  0  0  0
  182.3370  178.7200  143.6550 C   0  0  0  0  0  0  0  0  0  0  0  0
  184.8890  178.8030  146.3360 C   0  0  0  0  0  3  0  0  0  0  0  0
  184.7380  178.3590  143.5560 C   0  0  0  0  0  0  0  0  0  0  0  0
  182.2280  178.4770  142.3150 C   0  0  0  0  0  0  0  0  0  0  0  0
  179.7330  180.5590  142.6730 C   0  0  0  0  0  1  0  0  0  0  0  0
  180.8840  178.5680  141.8620 N   0  0  0  0  0  0  0  0  0  0  0  0
  179.0640  176.9360  139.1620 C   0  0  0  0  0  2  0  0  0  0  0  0
  181.9120  178.2050  138.2010 O   0  0  0  0  0  0  0  0  0  0  0  0
  183.6560  178.8770  145.6910 C   0  0  0  0  0  3  0  0  0  0  0  0
  183.5690  178.6550  144.3130 C   0  0  0  0  0  0  0  0  0  0  0  0
  182.1280  177.8150  139.3820 C   0  0  0  0  0  0  0  0  0  0  0  0
  186.8620  178.6250  139.2970 C   0  0  0  0  0  2  0  0  0  0  0  0
  189.4170  178.2360  138.9200 C   0  0  0  0  0  1  0  0  0  0  0  0
  188.2990  178.2630  140.3470 S   0  0  0  0  0  0  0  0  0  0  0  0
  1 19  1  0  0  0  0
  2 13  1  0  0  0  0
  4  1  2  0  0  0  0
  4 20  1  0  0  0  0
  5  1  1  0  0  0  0
  7 15  1  6  0  0  0
  7  9  1  0  0  0  0
  8  6  1  1  0  0  0
  8 12  1  0  0  0  0
  8 11  1  0  0  0  0
  9 14  1  6  0  0  0
  9 22  1  0  0  0  0
 10 21  1  6  0  0  0
 10  3  1  0  0  0  0
 11  5  1  0  0  0  0
 12  4  1  0  0  0  0
 13 18  2  0  0  0  0
 15 23  1  0  0  0  0
 16  2  1  0  0  0  0
 17  3  1  0  0  0  0
 17 26  1  0  0  0  0
 19  2  2  0  0  0  0
 19 26  1  0  0  0  0
 20 17  2  0  0  0  0
 22 20  1  0  0  0  0
 22 10  1  0  0  0  0
 23 14  1  0  0  0  0
 24 27  2  0  0  0  0
 25 18  1  0  0  0  0
 26 25  2  0  0  0  0
 27  7  1  0  0  0  0
 27 12  1  0  0  0  0
 28 11  1  0  0  0  0
 28 30  1  0  0  0  0
 29 30  1  0  0  0  0
M  END
>  <MODEL>
2

>  <REMARK>
 VINA RESULT:      -7.1      3.145      6.146
  Name = 
  2 active torsions:
  status: ('A' for Active; 'I' for Inactive)
    1  A    between atoms: N_11  and  C_28
    2  A    between atoms: C_28  and  S_30
                            x       y       z     vdW  Elec       q    Type
                         _______ _______ _______ _____ _____    ______ ____

>  <TORSDO>
F 2

$$$$
=
 OpenBabel11122410243D

 30 35  0  0  1  0  0  0  0  0999 V2000
  190.6290  177.1680  139.8920 C   0  0  0  0  0  0  0  0  0  0  0  0
  192.7740  176.7220  138.7070 C   0  0  0  0  0  0  0  0  0  0  0  0
  188.2970  176.2410  136.4600 C   0  0  0  0  0  2  0  0  0  0  0  0
  189.2290  177.2390  139.8680 C   0  0  0  0  0  0  0  0  0  0  0  0
  191.2580  177.4500  141.2140 C   0  0  0  0  0  2  0  0  0  0  0  0
  188.4150  175.9050  143.0460 C   0  0  0  0  0  1  0  0  0  0  0  0
  186.7590  178.9440  140.0430 C   0  0  1  0  0  3  0  0  0  0  0  0
  189.1730  177.0550  142.3930 C   0  0  1  0  0  3  0  0  0  0  0  0
  186.3920  178.2430  138.7490 C   0  0  2  0  0  3  0  0  0  0  0  0
  186.9240  176.4010  137.1390 C   0  0  1  0  0  3  0  0  0  0  0  0
  190.5850  176.6540  142.2360 N   0  0  0  0  0  0  0  0  0  0  0  0
  188.5210  177.4210  141.1120 N   0  0  0  0  0  0  0  0  0  0  0  0
  193.4370  176.3290  137.5400 C   0  0  0  0  0  3  0  0  0  0  0  0
  184.9390  177.9610  138.9270 C   0  0  0  0  0  2  0  0  0  0  0  0
  185.6280  179.6750  140.4580 O   0  0  0  0  0  0  0  0  0  0  0  0
  193.5250  177.0110  139.7990 F   0  0  0  0  0  0  0  0  0  0  0  0
  189.2500  176.5790  137.5490 C   0  0  0  0  0  0  0  0  0  0  0  0
  192.7200  176.0170  136.3860 C   0  0  0  0  0  3  0  0  0  0  0  0
  191.3630  176.8080  138.7280 C   0  0  0  0  0  0  0  0  0  0  0  0
  188.5670  176.9920  138.6580 C   0  0  0  0  0  0  0  0  0  0  0  0
  186.3010  175.0330  137.3480 C   0  0  0  0  0  1  0  0  0  0  0  0
  187.1640  177.0370  138.4370 N   0  0  0  0  0  0  0  0  0  0  0  0
  184.5020  179.0940  139.8330 C   0  0  0  0  0  2  0  0  0  0  0  0
  186.4360  177.7870  142.1110 O   0  0  0  0  0  0  0  0  0  0  0  0
  191.3280  176.0960  136.3840 C   0  0  0  0  0  3  0  0  0  0  0  0
  190.6450  176.4900  137.5390 C   0  0  0  0  0  0  0  0  0  0  0  0
  187.2090  178.0150  141.1410 C   0  0  0  0  0  0  0  0  0  0  0  0
  191.2600  176.9440  143.4910 C   0  0  0  0  0  2  0  0  0  0  0  0
  190.1830  177.7510  145.7290 C   0  0  0  0  0  1  0  0  0  0  0  0
  190.6610  178.5230  144.1590 S   0  0  0  0  0  0  0  0  0  0  0  0
  1  5  1  0  0  0  0
  2 19  1  0  0  0  0
  2 16  1  0  0  0  0
  3 10  1  0  0  0  0
  3 17  1  0  0  0  0
  4  1  1  0  0  0  0
  4 12  1  0  0  0  0
  5 11  1  0  0  0  0
  7 15  1  1  0  0  0
  7 27  1  0  0  0  0
  8  6  1  6  0  0  0
  9 14  1  1  0  0  0
  9  7  1  0  0  0  0
 10 21  1  1  0  0  0
 10 22  1  0  0  0  0
 11  8  1  0  0  0  0
 11 28  1  0  0  0  0
 12 27  1  0  0  0  0
 12  8  1  0  0  0  0
 13  2  2  0  0  0  0
 14 23  1  0  0  0  0
 17 20  1  0  0  0  0
 18 13  1  0  0  0  0
 19  1  2  0  0  0  0
 20  4  2  0  0  0  0
 22 20  1  0  0  0  0
 22  9  1  0  0  0  0
 23 15  1  0  0  0  0
 25 18  2  0  0  0  0
 25 26  1  0  0  0  0
 26 17  2  0  0  0  0
 26 19  1  0  0  0  0
 27 24  2  0  0  0  0
 28 30  1  0  0  0  0
 30 29  1  0  0  0  0
M  END
>  <MODEL>
3

>  <REMARK>
 VINA RESULT:      -6.6      2.459      3.617
  Name = 
  2 active torsions:
  status: ('A' for Active; 'I' for Inactive)
    1  A    between atoms: N_11  and  C_28
    2  A    between atoms: C_28  and  S_30
                            x       y       z     vdW  Elec       q    Type
                         _______ _______ _______ _____ _____    ______ ____

>  <TORSDO>
F 2

$$$$
=
 OpenBabel11122410243D

 30 35  0  0  1  0  0  0  0  0999 V2000
  188.5580  177.2660  141.4740 C   0  0  0  0  0  0  0  0  0  0  0  0
  186.8450  178.0490  143.1030 C   0  0  0  0  0  0  0  0  0  0  0  0
  186.2870  178.5820  138.1300 C   0  0  0  0  0  2  0  0  0  0  0  0
  188.9750  177.1020  140.1450 C   0  0  0  0  0  0  0  0  0  0  0  0
  189.5340  176.8140  142.5070 C   0  0  0  0  0  2  0  0  0  0  0  0
  192.4300  177.8340  140.4100 C   0  0  0  0  0  1  0  0  0  0  0  0
  189.6300  175.2240  137.8910 C   0  0  1  0  0  3  0  0  0  0  0  0
  191.3730  176.8630  140.9230 C   0  0  1  0  0  3  0  0  0  0  0  0
  188.6710  176.1020  137.1100 C   0  0  2  0  0  3  0  0  0  0  0  0
  187.3320  178.2170  137.0590 C   0  0  1  0  0  3  0  0  0  0  0  0
  190.8430  177.3820  142.1990 N   0  0  0  0  0  0  0  0  0  0  0  0
  190.3270  176.6690  139.8900 N   0  0  0  0  0  0  0  0  0  0  0  0
  185.6160  178.6750  143.3390 C   0  0  0  0  0  3  0  0  0  0  0  0
  189.3560  176.2490  135.7930 C   0  0  0  0  0  2  0  0  0  0  0  0
  190.2500  174.3580  136.9680 O   0  0  0  0  0  0  0  0  0  0  0  0
  187.5660  177.6370  144.1750 F   0  0  0  0  0  0  0  0  0  0  0  0
  186.9310  178.1360  139.3920 C   0  0  0  0  0  0  0  0  0  0  0  0
  184.8310  179.1220  142.2780 C   0  0  0  0  0  3  0  0  0  0  0  0
  187.3040  177.8630  141.7780 C   0  0  0  0  0  0  0  0  0  0  0  0
  188.1080  177.4990  139.1180 C   0  0  0  0  0  0  0  0  0  0  0  0
  187.9720  179.4850  136.5250 C   0  0  0  0  0  1  0  0  0  0  0  0
  188.3480  177.3940  137.7210 N   0  0  0  0  0  0  0  0  0  0  0  0
  190.1360  174.9550  135.6920 C   0  0  0  0  0  2  0  0  0  0  0  0
  191.8640  175.9990  138.2550 O   0  0  0  0  0  0  0  0  0  0  0  0
  185.2640  178.9480  140.9640 C   0  0  0  0  0  3  0  0  0  0  0  0
  186.4870  178.3220  140.7050 C   0  0  0  0  0  0  0  0  0  0  0  0
  190.6710  175.9890  138.6670 C   0  0  0  0  0  0  0  0  0  0  0  0
  191.7400  176.9360  143.2540 C   0  0  0  0  0  2  0  0  0  0  0  0
  191.7570  176.3160  145.7900 C   0  0  0  0  0  1  0  0  0  0  0  0
  191.3260  177.7780  144.8090 S   0  0  0  0  0  0  0  0  0  0  0  0
  1 19  1  0  0  0  0
  1  5  1  0  0  0  0
  2 13  1  0  0  0  0
  2 16  1  0  0  0  0
  3 17  1  0  0  0  0
  4  1  2  0  0  0  0
  7 15  1  6  0  0  0
  7 27  1  0  0  0  0
  8  6  1  6  0  0  0
  8 11  1  0  0  0  0
  9 14  1  6  0  0  0
  9 22  1  0  0  0  0
  9  7  1  0  0  0  0
 10 21  1  1  0  0  0
 10 22  1  0  0  0  0
 10  3  1  0  0  0  0
 11  5  1  0  0  0  0
 11 28  1  0  0  0  0
 12  4  1  0  0  0  0
 12  8  1  0  0  0  0
 17 26  1  0  0  0  0
 18 13  2  0  0  0  0
 19  2  2  0  0  0  0
 20 17  2  0  0  0  0
 20  4  1  0  0  0  0
 22 20  1  0  0  0  0
 23 14  1  0  0  0  0
 23 15  1  0  0  0  0
 24 27  2  0  0  0  0
 25 18  1  0  0  0  0
 26 25  2  0  0  0  0
 26 19  1  0  0  0  0
 27 12  1  0  0  0  0
 28 30  1  0  0  0  0
 30 29  1  0  0  0  0
M  END
>  <MODEL>
4

>  <REMARK>
 VINA RESULT:      -6.6      3.315      5.830
  Name = 
  2 active torsions:
  status: ('A' for Active; 'I' for Inactive)
    1  A    between atoms: N_11  and  C_28
    2  A    between atoms: C_28  and  S_30
                            x       y       z     vdW  Elec       q    Type
                         _______ _______ _______ _____ _____    ______ ____

>  <TORSDO>
F 2

$$$$
=
 OpenBabel11122410243D

 30 35  0  0  1  0  0  0  0  0999 V2000
  190.9330  176.0960  138.4780 C   0  0  0  0  0  0  0  0  0  0  0  0
  192.9460  174.8450  137.7160 C   0  0  0  0  0  0  0  0  0  0  0  0
  188.3120  173.7530  136.0890 C   0  0  0  0  0  2  0  0  0  0  0  0
  189.5470  176.3030  138.4230 C   0  0  0  0  0  0  0  0  0  0  0  0
  191.6680  176.9670  139.4400 C   0  0  0  0  0  2  0  0  0  0  0  0
  188.8120  176.9770  141.8210 C   0  0  0  0  0  1  0  0  0  0  0  0
  187.2670  178.1060  137.6570 C   0  0  1  0  0  3  0  0  0  0  0  0
  189.6330  177.5040  140.6500 C   0  0  1  0  0  3  0  0  0  0  0  0
  186.7540  176.8700  136.9450 C   0  0  2  0  0  3  0  0  0  0  0  0
  187.0050  174.4060  136.5770 C   0  0  1  0  0  3  0  0  0  0  0  0
  190.9870  176.9230  140.7310 N   0  0  0  0  0  0  0  0  0  0  0  0
  188.9400  177.2010  139.3750 N   0  0  0  0  0  0  0  0  0  0  0  0
  193.4940  173.8160  136.9430 C   0  0  0  0  0  3  0  0  0  0  0  0
  185.2950  176.8950  137.2490 C   0  0  0  0  0  2  0  0  0  0  0  0
  186.2390  179.0700  137.6150 O   0  0  0  0  0  0  0  0  0  0  0  0
  193.7880  175.5840  138.4800 F   0  0  0  0  0  0  0  0  0  0  0  0
  189.3590  174.5090  136.8230 C   0  0  0  0  0  0  0  0  0  0  0  0
  192.6790  173.0190  136.1390 C   0  0  0  0  0  3  0  0  0  0  0  0
  191.5540  175.0890  137.6890 C   0  0  0  0  0  0  0  0  0  0  0  0
  188.7900  175.5250  137.5370 C   0  0  0  0  0  0  0  0  0  0  0  0
  186.2690  173.4430  137.4910 C   0  0  0  0  0  1  0  0  0  0  0  0
  187.3860  175.6050  137.3290 N   0  0  0  0  0  0  0  0  0  0  0  0
  185.0250  178.3770  137.4030 C   0  0  0  0  0  2  0  0  0  0  0  0
  186.9660  178.2800  140.0240 O   0  0  0  0  0  0  0  0  0  0  0  0
  191.3040  173.2440  136.0980 C   0  0  0  0  0  3  0  0  0  0  0  0
  190.7360  174.2700  136.8600 C   0  0  0  0  0  0  0  0  0  0  0  0
  187.6950  177.8640  139.0820 C   0  0  0  0  0  0  0  0  0  0  0  0
  191.7640  177.7600  141.6320 C   0  0  0  0  0  2  0  0  0  0  0  0
  191.3260  178.7070  144.0250 C   0  0  0  0  0  1  0  0  0  0  0  0
  191.6940  177.0800  143.3140 S   0  0  0  0  0  0  0  0  0  0  0  0
  1  5  1  0  0  0  0
  2 16  1  0  0  0  0
  3 10  1  0  0  0  0
  3 17  1  0  0  0  0
  4  1  1  0  0  0  0
  4 12  1  0  0  0  0
  5 11  1  0  0  0  0
  7 15  1  1  0  0  0
  7 27  1  0  0  0  0
  8 11  1  0  0  0  0
  8  6  1  1  0  0  0
  9 14  1  1  0  0  0
  9 22  1  0  0  0  0
  9  7  1  0  0  0  0
 10 22  1  0  0  0  0
 10 21  1  1  0  0  0
 11 28  1  0  0  0  0
 12  8  1  0  0  0  0
 13  2  2  0  0  0  0
 14 23  1  0  0  0  0
 17 26  2  0  0  0  0
 17 20  1  0  0  0  0
 18 13  1  0  0  0  0
 19  2  1  0  0  0  0
 19  1  2  0  0  0  0
 20  4  2  0  0  0  0
 22 20  1  0  0  0  0
 23 15  1  0  0  0  0
 25 18  2  0  0  0  0
 25 26  1  0  0  0  0
 26 19  1  0  0  0  0
 27 12  1  0  0  0  0
 27 24  2  0  0  0  0
 28 30  1  0  0  0  0
 30 29  1  0  0  0  0
M  END
>  <MODEL>
5

>  <REMARK>
 VINA RESULT:      -6.4      3.767      5.068
  Name = 
  2 active torsions:
  status: ('A' for Active; 'I' for Inactive)
    1  A    between atoms: N_11  and  C_28
    2  A    between atoms: C_28  and  S_30
                            x       y       z     vdW  Elec       q    Type
                         _______ _______ _______ _____ _____    ______ ____

>  <TORSDO>
F 2

$$$$
=
 OpenBabel11122410243D

 30 35  0  0  1  0  0  0  0  0999 V2000
  188.9850  177.2240  140.0770 C   0  0  0  0  0  0  0  0  0  0  0  0
  190.6050  176.7390  138.2490 C   0  0  0  0  0  0  0  0  0  0  0  0
  192.0720  177.8540  142.9320 C   0  0  0  0  0  2  0  0  0  0  0  0
  188.7410  177.5420  141.4210 C   0  0  0  0  0  0  0  0  0  0  0  0
  187.7720  177.1270  139.2160 C   0  0  0  0  0  2  0  0  0  0  0  0
  186.0420  179.8150  141.1150 C   0  0  0  0  0  1  0  0  0  0  0  0
  187.6170  176.6930  144.0770 C   0  0  1  0  0  3  0  0  0  0  0  0
  186.4290  178.3730  140.8080 C   0  0  1  0  0  3  0  0  0  0  0  0
  188.9790  177.1140  144.5940 C   0  0  2  0  0  3  0  0  0  0  0  0
  191.1480  178.2610  144.0950 C   0  0  1  0  0  3  0  0  0  0  0  0
  186.9470  178.3120  139.4270 N   0  0  0  0  0  0  0  0  0  0  0  0
  187.3980  177.8880  141.8200 N   0  0  0  0  0  0  0  0  0  0  0  0
  191.9340  176.6210  137.8270 C   0  0  0  0  0  3  0  0  0  0  0  0
  188.6460  177.8240  145.8620 C   0  0  0  0  0  2  0  0  0  0  0  0
  186.8050  176.4360  145.2000 O   0  0  0  0  0  0  0  0  0  0  0  0
  189.6270  176.5430  137.3310 F   0  0  0  0  0  0  0  0  0  0  0  0
  191.1160  177.5540  141.8350 C   0  0  0  0  0  0  0  0  0  0  0  0
  192.9840  176.8150  138.7240 C   0  0  0  0  0  3  0  0  0  0  0  0
  190.3130  177.0570  139.5960 C   0  0  0  0  0  0  0  0  0  0  0  0
  189.8320  177.6450  142.2930 C   0  0  0  0  0  0  0  0  0  0  0  0
  191.2680  179.7540  144.3370 C   0  0  0  0  0  1  0  0  0  0  0  0
  189.7800  177.9360  143.6830 N   0  0  0  0  0  0  0  0  0  0  0  0
  187.3720  177.1280  146.2940 C   0  0  0  0  0  2  0  0  0  0  0  0
  185.9860  178.3830  143.6210 O   0  0  0  0  0  0  0  0  0  0  0  0
  192.7180  177.1280  140.0560 C   0  0  0  0  0  3  0  0  0  0  0  0
  191.3970  177.2470  140.5000 C   0  0  0  0  0  0  0  0  0  0  0  0
  186.9580  177.7090  143.1800 C   0  0  0  0  0  0  0  0  0  0  0  0
  185.8020  178.1770  138.5410 C   0  0  0  0  0  2  0  0  0  0  0  0
  184.6940  176.8550  136.5800 C   0  0  0  0  0  1  0  0  0  0  0  0
  186.3420  177.5200  136.9360 S   0  0  0  0  0  0  0  0  0  0  0  0
  1  4  1  0  0  0  0
  2 19  1  0  0  0  0
  3 10  1  0  0  0  0
  4 12  1  0  0  0  0
  4 20  2  0  0  0  0
  5 11  1  0  0  0  0
  5  1  1  0  0  0  0
  7 27  1  1  0  0  0
  7  9  1  0  0  0  0
  7 15  1  0  0  0  0
  8  6  1  1  0  0  0
  8 12  1  0  0  0  0
  9 14  1  1  0  0  0
 10 21  1  6  0  0  0
 11  8  1  0  0  0  0
 12 27  1  0  0  0  0
 13  2  2  0  0  0  0
 13 18  1  0  0  0  0
 14 23  1  0  0  0  0
 15 23  1  0  0  0  0
 16  2  1  0  0  0  0
 17 20  1  0  0  0  0
 17  3  1  0  0  0  0
 18 25  2  0  0  0  0
 19  1  2  0  0  0  0
 19 26  1  0  0  0  0
 20 22  1  0  0  0  0
 22 10  1  0  0  0  0
 22  9  1  0  0  0  0
 25 26  1  0  0  0  0
 26 17  2  0  0  0  0
 27 24  2  0  0  0  0
 28 11  1  0  0  0  0
 29 30  1  0  0  0  0
 30 28  1  0  0  0  0
M  END
>  <MODEL>
6

>  <REMARK>
 VINA RESULT:      -6.2      2.547      5.578
  Name = 
  2 active torsions:
  status: ('A' for Active; 'I' for Inactive)
    1  A    between atoms: N_11  and  C_28
    2  A    between atoms: C_28  and  S_30
                            x       y       z     vdW  Elec       q    Type
                         _______ _______ _______ _____ _____    ______ ____

>  <TORSDO>
F 2

$$$$
=
 OpenBabel11122410243D

 30 35  0  0  1  0  0  0  0  0999 V2000
  187.1640  177.9040  141.2700 C   0  0  0  0  0  0  0  0  0  0  0  0
  187.7500  177.6160  138.8660 C   0  0  0  0  0  0  0  0  0  0  0  0
  191.2410  178.0180  142.4680 C   0  0  0  0  0  2  0  0  0  0  0  0
  187.5730  178.0410  142.6040 C   0  0  0  0  0  0  0  0  0  0  0  0
  185.6920  177.9710  141.0450 C   0  0  0  0  0  2  0  0  0  0  0  0
  185.2490  180.4320  143.7960 C   0  0  0  0  0  1  0  0  0  0  0  0
  187.6700  176.8750  145.3730 C   0  0  1  0  0  3  0  0  0  0  0  0
  185.3200  179.0330  143.1960 C   0  0  1  0  0  3  0  0  0  0  0  0
  189.1530  177.1700  145.2600 C   0  0  2  0  0  3  0  0  0  0  0  0
  190.9740  178.2940  143.9590 C   0  0  1  0  0  3  0  0  0  0  0  0
  185.1630  179.1450  141.7330 N   0  0  0  0  0  0  0  0  0  0  0  0
  186.5870  178.3780  143.6020 N   0  0  0  0  0  0  0  0  0  0  0  0
  188.7360  177.5090  137.8790 C   0  0  0  0  0  3  0  0  0  0  0  0
  189.4860  177.7090  146.6090 C   0  0  0  0  0  2  0  0  0  0  0  0
  187.4200  176.4960  146.7070 O   0  0  0  0  0  0  0  0  0  0  0  0
  186.4520  177.5850  138.4750 F   0  0  0  0  0  0  0  0  0  0  0  0
  189.8750  177.9090  141.8970 C   0  0  0  0  0  0  0  0  0  0  0  0
  190.0880  177.5380  138.2190 C   0  0  0  0  0  3  0  0  0  0  0  0
  188.1180  177.7560  140.2250 C   0  0  0  0  0  0  0  0  0  0  0  0
  188.9430  177.9820  142.8930 C   0  0  0  0  0  0  0  0  0  0  0  0
  191.3300  179.7340  144.2790 C   0  0  0  0  0  1  0  0  0  0  0  0
  189.5400  178.0800  144.1790 N   0  0  0  0  0  0  0  0  0  0  0  0
  188.4770  177.0080  147.4930 C   0  0  0  0  0  2  0  0  0  0  0  0
  186.1750  178.6710  145.8880 O   0  0  0  0  0  0  0  0  0  0  0  0
  190.4710  177.6730  139.5520 C   0  0  0  0  0  3  0  0  0  0  0  0
  189.5030  177.7780  140.5560 C   0  0  0  0  0  0  0  0  0  0  0  0
  186.7810  178.0290  144.9860 C   0  0  0  0  0  0  0  0  0  0  0  0
  183.7360  179.1760  141.4510 C   0  0  0  0  0  2  0  0  0  0  0  0
  183.3090  179.9070  138.9810 C   0  0  0  0  0  1  0  0  0  0  0  0
  183.4030  178.3340  139.8770 S   0  0  0  0  0  0  0  0  0  0  0  0
  1  4  1  0  0  0  0
  2 19  1  0  0  0  0
  3 10  1  0  0  0  0
  4 20  2  0  0  0  0
  4 12  1  0  0  0  0
  5  1  1  0  0  0  0
  5 11  1  0  0  0  0
  7 27  1  1  0  0  0
  7 15  1  0  0  0  0
  8 12  1  0  0  0  0
  8  6  1  1  0  0  0
  9  7  1  0  0  0  0
  9 14  1  1  0  0  0
 10 22  1  0  0  0  0
 10 21  1  6  0  0  0
 11  8  1  0  0  0  0
 12 27  1  0  0  0  0
 13 18  1  0  0  0  0
 13  2  2  0  0  0  0
 14 23  1  0  0  0  0
 15 23  1  0  0  0  0
 16  2  1  0  0  0  0
 17  3  1  0  0  0  0
 17 20  1  0  0  0  0
 18 25  2  0  0  0  0
 19 26  1  0  0  0  0
 19  1  2  0  0  0  0
 20 22  1  0  0  0  0
 22  9  1  0  0  0  0
 25 26  1  0  0  0  0
 26 17  2  0  0  0  0
 27 24  2  0  0  0  0
 28 11  1  0  0  0  0
 29 30  1  0  0  0  0
 30 28  1  0  0  0  0
M  END
>  <MODEL>
7

>  <REMARK>
 VINA RESULT:      -6.0      2.368      5.502
  Name = 
  2 active torsions:
  status: ('A' for Active; 'I' for Inactive)
    1  A    between atoms: N_11  and  C_28
    2  A    between atoms: C_28  and  S_30
                            x       y       z     vdW  Elec       q    Type
                         _______ _______ _______ _____ _____    ______ ____

>  <TORSDO>
F 2

$$$$
=
 OpenBabel11122410243D

 30 35  0  0  1  0  0  0  0  0999 V2000
  186.3360  178.0480  140.5950 C   0  0  0  0  0  0  0  0  0  0  0  0
  186.4240  178.3440  143.0660 C   0  0  0  0  0  0  0  0  0  0  0  0
  182.2320  179.1360  140.3990 C   0  0  0  0  0  2  0  0  0  0  0  0
  185.6010  178.0750  139.4010 C   0  0  0  0  0  0  0  0  0  0  0  0
  187.7840  177.7230  140.4430 C   0  0  0  0  0  2  0  0  0  0  0  0
  187.9690  179.4620  137.1620 C   0  0  0  0  0  1  0  0  0  0  0  0
  184.4350  176.5460  137.0910 C   0  0  1  0  0  3  0  0  0  0  0  0
  187.7510  178.2630  138.0770 C   0  0  1  0  0  3  0  0  0  0  0  0
  183.1610  177.2720  137.4770 C   0  0  2  0  0  3  0  0  0  0  0  0
  182.1110  179.0720  138.8650 C   0  0  1  0  0  3  0  0  0  0  0  0
  188.3490  178.5640  139.3930 N   0  0  0  0  0  0  0  0  0  0  0  0
  186.3050  177.9430  138.1490 N   0  0  0  0  0  0  0  0  0  0  0  0
  185.7720  178.6900  144.2540 C   0  0  0  0  0  3  0  0  0  0  0  0
  182.5850  177.6540  136.1560 C   0  0  0  0  0  2  0  0  0  0  0  0
  184.1910  175.8960  135.8640 O   0  0  0  0  0  0  0  0  0  0  0  0
  187.7350  178.0040  143.1360 F   0  0  0  0  0  0  0  0  0  0  0  0
  183.6400  178.7320  140.6410 C   0  0  0  0  0  0  0  0  0  0  0  0
  184.4250  179.0520  144.2450 C   0  0  0  0  0  3  0  0  0  0  0  0
  185.7210  178.3570  141.8390 C   0  0  0  0  0  0  0  0  0  0  0  0
  184.2330  178.3680  139.4650 C   0  0  0  0  0  0  0  0  0  0  0  0
  182.0230  180.4800  138.3050 C   0  0  0  0  0  1  0  0  0  0  0  0
  183.3270  178.4200  138.3700 N   0  0  0  0  0  0  0  0  0  0  0  0
  183.1010  176.5540  135.2510 C   0  0  0  0  0  2  0  0  0  0  0  0
  186.0910  177.7230  135.8280 O   0  0  0  0  0  0  0  0  0  0  0  0
  183.7130  179.0700  143.0470 C   0  0  0  0  0  3  0  0  0  0  0  0
  184.3450  178.7230  141.8480 C   0  0  0  0  0  0  0  0  0  0  0  0
  185.6420  177.4420  136.9730 C   0  0  0  0  0  0  0  0  0  0  0  0
  189.7620  178.2280  139.3140 C   0  0  0  0  0  2  0  0  0  0  0  0
  191.9640  177.4800  140.5020 C   0  0  0  0  0  1  0  0  0  0  0  0
  190.1990  177.0980  140.6670 S   0  0  0  0  0  0  0  0  0  0  0  0
  1 19  1  0  0  0  0
  2 16  1  0  0  0  0
  2 13  1  0  0  0  0
  3 17  1  0  0  0  0
  4 20  1  0  0  0  0
  4  1  2  0  0  0  0
  5  1  1  0  0  0  0
  7 15  1  6  0  0  0
  7  9  1  0  0  0  0
  8  6  1  6  0  0  0
  8 12  1  0  0  0  0
  8 11  1  0  0  0  0
  9 14  1  6  0  0  0
  9 22  1  0  0  0  0
 10 21  1  6  0  0  0
 10  3  1  0  0  0  0
 11  5  1  0  0  0  0
 12  4  1  0  0  0  0
 17 26  1  0  0  0  0
 18 13  2  0  0  0  0
 19 26  1  0  0  0  0
 19  2  2  0  0  0  0
 20 17  2  0  0  0  0
 22 10  1  0  0  0  0
 22 20  1  0  0  0  0
 23 15  1  0  0  0  0
 23 14  1  0  0  0  0
 24 27  2  0  0  0  0
 25 18  1  0  0  0  0
 26 25  2  0  0  0  0
 27  7  1  0  0  0  0
 27 12  1  0  0  0  0
 28 11  1  0  0  0  0
 28 30  1  0  0  0  0
 29 30  1  0  0  0  0
M  END
>  <MODEL>
8

>  <REMARK>
 VINA RESULT:      -5.9      3.110      5.482
  Name = 
  2 active torsions:
  status: ('A' for Active; 'I' for Inactive)
    1  A    between atoms: N_11  and  C_28
    2  A    between atoms: C_28  and  S_30
                            x       y       z     vdW  Elec       q    Type
                         _______ _______ _______ _____ _____    ______ ____

>  <TORSDO>
F 2

$$$$
=
 OpenBabel11122410243D

 30 35  0  0  1  0  0  0  0  0999 V2000
  186.3020  176.2990  136.9670 C   0  0  0  0  0  0  0  0  0  0  0  0
  184.1430  177.5010  137.2800 C   0  0  0  0  0  0  0  0  0  0  0  0
  188.2110  178.4840  140.0740 C   0  0  0  0  0  2  0  0  0  0  0  0
  187.6440  176.1130  137.3300 C   0  0  0  0  0  0  0  0  0  0  0  0
  185.7950  175.3770  135.9110 C   0  0  0  0  0  2  0  0  0  0  0  0
  187.9300  172.5890  137.1310 C   0  0  0  0  0  1  0  0  0  0  0  0
  190.5430  176.3100  136.5610 C   0  0  1  0  0  3  0  0  0  0  0  0
  187.6120  173.8100  136.2770 C   0  0  1  0  0  3  0  0  0  0  0  0
  190.6620  177.0610  137.8730 C   0  0  2  0  0  3  0  0  0  0  0  0
  189.5520  177.7280  140.0160 C   0  0  1  0  0  3  0  0  0  0  0  0
  186.1500  174.0080  136.2710 N   0  0  0  0  0  0  0  0  0  0  0  0
  188.3600  174.9850  136.7850 N   0  0  0  0  0  0  0  0  0  0  0  0
  183.3960  178.4570  137.9750 C   0  0  0  0  0  3  0  0  0  0  0  0
  191.9330  176.5300  138.4440 C   0  0  0  0  0  2  0  0  0  0  0  0
  191.8520  176.0840  136.0890 O   0  0  0  0  0  0  0  0  0  0  0  0
  183.5250  176.8040  136.2950 F   0  0  0  0  0  0  0  0  0  0  0  0
  187.4200  177.8480  138.9900 C   0  0  0  0  0  0  0  0  0  0  0  0
  183.9750  179.2040  139.0010 C   0  0  0  0  0  3  0  0  0  0  0  0
  185.5000  177.2800  137.6130 C   0  0  0  0  0  0  0  0  0  0  0  0
  188.1930  176.9470  138.3120 C   0  0  0  0  0  0  0  0  0  0  0  0
  189.6730  176.8190  141.2250 C   0  0  0  0  0  1  0  0  0  0  0  0
  189.5310  176.9210  138.7930 N   0  0  0  0  0  0  0  0  0  0  0  0
  192.7200  176.1750  137.2000 C   0  0  0  0  0  2  0  0  0  0  0  0
  190.4380  173.9200  136.6100 O   0  0  0  0  0  0  0  0  0  0  0  0
  185.3110  179.0030  139.3440 C   0  0  0  0  0  3  0  0  0  0  0  0
  186.0780  178.0540  138.6600 C   0  0  0  0  0  0  0  0  0  0  0  0
  189.7960  175.0050  136.6650 C   0  0  0  0  0  0  0  0  0  0  0  0
  185.6020  173.1560  135.2260 C   0  0  0  0  0  2  0  0  0  0  0  0
  184.1750  172.2530  137.2180 C   0  0  0  0  0  1  0  0  0  0  0  0
  183.8390  172.8550  135.5410 S   0  0  0  0  0  0  0  0  0  0  0  0
  1  4  2  0  0  0  0
  1 19  1  0  0  0  0
  2 19  2  0  0  0  0
  2 13  1  0  0  0  0
  4 20  1  0  0  0  0
  5 11  1  0  0  0  0
  5  1  1  0  0  0  0
  7 15  1  1  0  0  0
  7 27  1  0  0  0  0
  7  9  1  0  0  0  0
  8 12  1  0  0  0  0
  8  6  1  1  0  0  0
  9 14  1  1  0  0  0
  9 22  1  0  0  0  0
 10  3  1  0  0  0  0
 10 21  1  1  0  0  0
 11  8  1  0  0  0  0
 12  4  1  0  0  0  0
 13 18  2  0  0  0  0
 15 23  1  0  0  0  0
 16  2  1  0  0  0  0
 17  3  1  0  0  0  0
 18 25  1  0  0  0  0
 19 26  1  0  0  0  0
 20 22  1  0  0  0  0
 20 17  2  0  0  0  0
 22 10  1  0  0  0  0
 23 14  1  0  0  0  0
 24 27  2  0  0  0  0
 26 17  1  0  0  0  0
 26 25  2  0  0  0  0
 27 12  1  0  0  0  0
 28 30  1  0  0  0  0
 28 11  1  0  0  0  0
 30 29  1  0  0  0  0
M  END
>  <MODEL>
9

>  <REMARK>
 VINA RESULT:      -5.9      4.761      7.437
  Name = 
  2 active torsions:
  status: ('A' for Active; 'I' for Inactive)
    1  A    between atoms: N_11  and  C_28
    2  A    between atoms: C_28  and  S_30
                            x       y       z     vdW  Elec       q    Type
                         _______ _______ _______ _____ _____    ______ ____

>  <TORSDO>
F 2

$$$$
