=
 OpenBabel11122410273D

 30 35  0  0  1  0  0  0  0  0999 V2000
  185.8910  178.4200  142.4930 C   0  0  0  0  0  0  0  0  0  0  0  0
  186.7590  178.2720  144.8760 C   0  0  0  0  0  0  0  0  0  0  0  0
  181.9510  178.7510  143.9000 N   0  0  0  0  0  2  0  0  0  0  0  0
  184.7760  178.5380  141.6000 C   0  0  0  0  0  0  0  0  0  0  0  0
  187.1620  178.3310  141.9290 C   0  0  0  0  0  3  0  0  0  0  0  0
  186.4340  178.4460  138.4630 O   0  0  0  0  0  0  0  0  0  0  0  0
  182.8440  177.5060  139.4050 C   0  0  1  0  0  3  0  0  0  0  0  0
  186.2510  178.4460  139.7130 C   0  0  0  0  0  0  0  0  0  0  0  0
  181.8530  177.6590  140.5660 C   0  0  2  0  0  3  0  0  0  0  0  0
  181.1610  178.8610  142.6820 C   0  0  1  0  0  3  0  0  0  0  0  0
  187.3570  178.3520  140.5600 C   0  0  0  0  0  0  0  0  0  0  0  0
  184.9820  178.5360  140.2290 N   0  0  0  0  0  0  0  0  0  0  0  0
  186.4690  178.2610  146.2430 C   0  0  0  0  0  3  0  0  0  0  0  0
  180.4870  177.8190  139.9250 C   0  0  0  0  0  2  0  0  0  0  0  0
  182.0240  177.3620  138.1350 C   0  0  0  0  0  2  0  0  0  0  0  0
  188.4730  178.1190  144.4970 Cl  0  0  0  0  0  0  0  0  0  0  0  0
  183.3100  178.6200  143.5310 C   0  0  0  0  0  0  0  0  0  0  0  0
  185.1620  178.3680  146.7030 C   0  0  0  0  0  3  0  0  0  0  0  0
  185.7010  178.3950  143.9170 C   0  0  0  0  0  0  0  0  0  0  0  0
  183.4910  178.6380  142.1770 C   0  0  0  0  0  0  0  0  0  0  0  0
  180.4200  180.1830  142.6740 C   0  0  0  0  0  1  0  0  0  0  0  0
  182.1630  178.8200  141.5110 C   0  0  1  0  0  3  0  0  0  0  0  0
  180.5950  177.1400  138.5800 C   0  0  0  0  0  2  0  0  0  0  0  0
  183.3470  180.0400  139.0910 C   0  0  0  0  0  1  0  0  0  0  0  0
  184.1190  178.4870  145.7950 C   0  0  0  0  0  3  0  0  0  0  0  0
  184.3730  178.5000  144.4200 C   0  0  0  0  0  0  0  0  0  0  0  0
  183.8900  178.6210  139.2480 C   0  0  2  0  0  3  0  0  0  0  0  0
  188.7470  178.2290  140.0230 C   0  0  0  0  0  2  0  0  0  0  0  0
  190.7870  177.1130  140.2470 C   0  0  0  0  0  1  0  0  0  0  0  0
  189.5790  177.4940  140.9600 N   0  0  0  0  0  2  0  0  0  0  0  0
  1 19  1  0  0  0  0
  2 13  1  0  0  0  0
  4 20  1  0  0  0  0
  4  1  2  0  0  0  0
  5  1  1  0  0  0  0
  6  8  2  0  0  0  0
  7 15  1  6  0  0  0
  7  9  1  0  0  0  0
  8 12  1  0  0  0  0
  8 11  1  0  0  0  0
  9 14  1  6  0  0  0
  9 22  1  0  0  0  0
 10 21  1  1  0  0  0
 10  3  1  0  0  0  0
 11  5  2  0  0  0  0
 12  4  1  0  0  0  0
 13 18  2  0  0  0  0
 15 23  1  0  0  0  0
 16  2  1  0  0  0  0
 17  3  1  0  0  0  0
 17 26  1  0  0  0  0
 19 26  1  0  0  0  0
 19  2  2  0  0  0  0
 20 17  2  0  0  0  0
 22 20  1  1  0  0  0
 22 10  1  0  0  0  0
 23 14  1  0  0  0  0
 25 18  1  0  0  0  0
 26 25  2  0  0  0  0
 27 24  1  1  0  0  0
 27  7  1  0  0  0  0
 27 12  1  0  0  0  0
 28 11  1  0  0  0  0
 28 30  1  0  0  0  0
 29 30  1  0  0  0  0
M  END
>  <MODEL>
1

>  <REMARK>
 VINA RESULT:      -9.3      0.000      0.000
  Name = 
  2 active torsions:
  status: ('A' for Active; 'I' for Inactive)
    1  A    between atoms: C_11  and  C_28
    2  A    between atoms: C_28  and  N_30
                            x       y       z     vdW  Elec       q    Type
                         _______ _______ _______ _____ _____    ______ ____

>  <TORSDO>
F 2

$$$$
=
 OpenBabel11122410273D

 30 35  0  0  1  0  0  0  0  0999 V2000
  189.1030  177.3990  143.6320 C   0  0  0  0  0  0  0  0  0  0  0  0
  191.1140  176.3480  144.7730 C   0  0  0  0  0  0  0  0  0  0  0  0
  187.2790  178.0600  147.3530 N   0  0  0  0  0  2  0  0  0  0  0  0
  187.8110  178.0080  143.7440 C   0  0  0  0  0  0  0  0  0  0  0  0
  189.6310  177.2360  142.3530 C   0  0  0  0  0  3  0  0  0  0  0  0
  187.0480  178.5630  140.3220 O   0  0  0  0  0  0  0  0  0  0  0  0
  184.7380  178.1180  143.3420 C   0  0  1  0  0  3  0  0  0  0  0  0
  187.6780  178.2120  141.3600 C   0  0  0  0  0  0  0  0  0  0  0  0
  184.7940  178.0980  144.8750 C   0  0  2  0  0  3  0  0  0  0  0  0
  186.0170  178.6980  147.0070 C   0  0  1  0  0  3  0  0  0  0  0  0
  188.9450  177.6400  141.2230 C   0  0  0  0  0  0  0  0  0  0  0  0
  187.1230  178.3910  142.6020 N   0  0  0  0  0  0  0  0  0  0  0  0
  191.7350  175.9720  145.9670 C   0  0  0  0  0  3  0  0  0  0  0  0
  183.4920  178.7190  145.3440 C   0  0  0  0  0  2  0  0  0  0  0  0
  183.3320  178.5420  142.9530 C   0  0  0  0  0  2  0  0  0  0  0  0
  192.0470  175.9800  143.3240 Cl  0  0  0  0  0  0  0  0  0  0  0  0
  187.9730  177.7800  146.1530 C   0  0  0  0  0  0  0  0  0  0  0  0
  191.1250  176.1910  147.1970 C   0  0  0  0  0  3  0  0  0  0  0  0
  189.8240  176.9720  144.7990 C   0  0  0  0  0  0  0  0  0  0  0  0
  187.2840  178.1800  145.0430 C   0  0  0  0  0  0  0  0  0  0  0  0
  185.9570  180.0780  147.6310 C   0  0  0  0  0  1  0  0  0  0  0  0
  186.0020  178.8230  145.4700 C   0  0  1  0  0  3  0  0  0  0  0  0
  182.5100  178.4840  144.2210 C   0  0  0  0  0  2  0  0  0  0  0  0
  185.8060  180.4690  143.0220 C   0  0  0  0  0  1  0  0  0  0  0  0
  189.8750  176.7920  147.2490 C   0  0  0  0  0  3  0  0  0  0  0  0
  189.2240  177.1800  146.0740 C   0  0  0  0  0  0  0  0  0  0  0  0
  185.7810  178.9930  142.6310 C   0  0  2  0  0  3  0  0  0  0  0  0
  189.5610  177.4140  139.8790 C   0  0  0  0  0  2  0  0  0  0  0  0
  190.9300  176.0280  138.5900 C   0  0  0  0  0  1  0  0  0  0  0  0
  190.5310  176.3350  139.9530 N   0  0  0  0  0  2  0  0  0  0  0  0
  1  4  2  0  0  0  0
  1 19  1  0  0  0  0
  2 19  2  0  0  0  0
  2 13  1  0  0  0  0
  4 20  1  0  0  0  0
  5  1  1  0  0  0  0
  6  8  2  0  0  0  0
  7 15  1  1  0  0  0
  7  9  1  0  0  0  0
  8 12  1  0  0  0  0
  9 14  1  1  0  0  0
  9 22  1  0  0  0  0
 10  3  1  0  0  0  0
 10 21  1  1  0  0  0
 11  8  1  0  0  0  0
 11  5  2  0  0  0  0
 12 27  1  0  0  0  0
 12  4  1  0  0  0  0
 13 18  2  0  0  0  0
 15 23  1  0  0  0  0
 16  2  1  0  0  0  0
 17  3  1  0  0  0  0
 18 25  1  0  0  0  0
 19 26  1  0  0  0  0
 20 17  2  0  0  0  0
 22 20  1  6  0  0  0
 22 10  1  0  0  0  0
 23 14  1  0  0  0  0
 26 17  1  0  0  0  0
 26 25  2  0  0  0  0
 27 24  1  1  0  0  0
 27  7  1  0  0  0  0
 28 30  1  0  0  0  0
 28 11  1  0  0  0  0
 29 30  1  0  0  0  0
M  END
>  <MODEL>
2

>  <REMARK>
 VINA RESULT:      -9.0      2.779      4.738
  Name = 
  2 active torsions:
  status: ('A' for Active; 'I' for Inactive)
    1  A    between atoms: C_11  and  C_28
    2  A    between atoms: C_28  and  N_30
                            x       y       z     vdW  Elec       q    Type
                         _______ _______ _______ _____ _____    ______ ____

>  <TORSDO>
F 2

$$$$
=
 OpenBabel11122410273D

 30 35  0  0  1  0  0  0  0  0999 V2000
  185.9160  178.2690  142.0470 C   0  0  0  0  0  0  0  0  0  0  0  0
  183.4860  178.8790  142.4650 C   0  0  0  0  0  0  0  0  0  0  0  0
  186.6250  178.0720  146.1790 N   0  0  0  0  0  2  0  0  0  0  0  0
  187.2090  177.9540  142.5790 C   0  0  0  0  0  0  0  0  0  0  0  0
  185.7780  178.2960  140.6610 C   0  0  0  0  0  3  0  0  0  0  0  0
  189.0640  177.5250  139.5840 O   0  0  0  0  0  0  0  0  0  0  0  0
  190.2160  178.5030  143.1010 C   0  0  1  0  0  3  0  0  0  0  0  0
  188.0940  177.7480  140.3610 C   0  0  0  0  0  0  0  0  0  0  0  0
  189.6970  178.5330  144.5450 C   0  0  2  0  0  3  0  0  0  0  0  0
  188.0340  177.7160  146.2670 C   0  0  1  0  0  3  0  0  0  0  0  0
  186.8400  178.0320  139.8160 C   0  0  0  0  0  0  0  0  0  0  0  0
  188.2710  177.7120  141.7220 N   0  0  0  0  0  0  0  0  0  0  0  0
  182.4710  179.1310  143.3920 C   0  0  0  0  0  3  0  0  0  0  0  0
  190.8930  178.2140  145.4210 C   0  0  0  0  0  2  0  0  0  0  0  0
  191.7290  178.3850  143.1740 C   0  0  0  0  0  2  0  0  0  0  0  0
  182.9810  179.0160  140.7820 Cl  0  0  0  0  0  0  0  0  0  0  0  0
  186.2850  178.1790  144.8100 C   0  0  0  0  0  0  0  0  0  0  0  0
  182.7130  179.0670  144.7590 C   0  0  0  0  0  3  0  0  0  0  0  0
  184.8060  178.5480  142.9150 C   0  0  0  0  0  0  0  0  0  0  0  0
  187.3420  177.9190  143.9840 C   0  0  0  0  0  0  0  0  0  0  0  0
  188.1790  176.3910  146.9890 C   0  0  0  0  0  1  0  0  0  0  0  0
  188.5370  177.5750  144.8170 C   0  0  1  0  0  3  0  0  0  0  0  0
  192.1010  178.6390  144.6180 C   0  0  0  0  0  2  0  0  0  0  0  0
  189.7900  175.9730  142.6700 C   0  0  0  0  0  1  0  0  0  0  0  0
  183.9830  178.7500  145.2210 C   0  0  0  0  0  3  0  0  0  0  0  0
  185.0220  178.4940  144.3220 C   0  0  0  0  0  0  0  0  0  0  0  0
  189.6340  177.4130  142.1880 C   0  0  2  0  0  3  0  0  0  0  0  0
  186.6260  178.0990  138.3370 C   0  0  0  0  0  2  0  0  0  0  0  0
  184.8560  177.0360  137.2450 C   0  0  0  0  0  1  0  0  0  0  0  0
  185.2060  178.1970  138.0450 N   0  0  0  0  0  2  0  0  0  0  0  0
  1  4  2  0  0  0  0
  1 19  1  0  0  0  0
  2 19  2  0  0  0  0
  2 13  1  0  0  0  0
  3 10  1  0  0  0  0
  4 20  1  0  0  0  0
  5  1  1  0  0  0  0
  6  8  2  0  0  0  0
  7 15  1  1  0  0  0
  7  9  1  0  0  0  0
  8 12  1  0  0  0  0
  9 22  1  0  0  0  0
  9 14  1  1  0  0  0
 10 21  1  1  0  0  0
 11  8  1  0  0  0  0
 11  5  2  0  0  0  0
 12 27  1  0  0  0  0
 12  4  1  0  0  0  0
 13 18  2  0  0  0  0
 15 23  1  0  0  0  0
 16  2  1  0  0  0  0
 17  3  1  0  0  0  0
 18 25  1  0  0  0  0
 19 26  1  0  0  0  0
 20 17  2  0  0  0  0
 22 20  1  6  0  0  0
 22 10  1  0  0  0  0
 23 14  1  0  0  0  0
 26 17  1  0  0  0  0
 26 25  2  0  0  0  0
 27 24  1  1  0  0  0
 27  7  1  0  0  0  0
 28 11  1  0  0  0  0
 29 30  1  0  0  0  0
 30 28  1  0  0  0  0
M  END
>  <MODEL>
3

>  <REMARK>
 VINA RESULT:      -8.6      2.620      6.256
  Name = 
  2 active torsions:
  status: ('A' for Active; 'I' for Inactive)
    1  A    between atoms: C_11  and  C_28
    2  A    between atoms: C_28  and  N_30
                            x       y       z     vdW  Elec       q    Type
                         _______ _______ _______ _____ _____    ______ ____

>  <TORSDO>
F 2

$$$$
=
 OpenBabel11122410273D

 30 35  0  0  1  0  0  0  0  0999 V2000
  187.6300  178.0560  141.3350 C   0  0  0  0  0  0  0  0  0  0  0  0
  189.2400  177.6420  143.2560 C   0  0  0  0  0  0  0  0  0  0  0  0
  184.4070  178.2470  144.0150 N   0  0  0  0  0  2  0  0  0  0  0  0
  186.2860  178.2760  140.8880 C   0  0  0  0  0  0  0  0  0  0  0  0
  188.6340  178.0240  140.3700 C   0  0  0  0  0  3  0  0  0  0  0  0
  186.7920  178.5230  137.3840 O   0  0  0  0  0  0  0  0  0  0  0  0
  183.6890  177.5000  139.3810 C   0  0  1  0  0  3  0  0  0  0  0  0
  187.0380  178.3860  138.6150 C   0  0  0  0  0  0  0  0  0  0  0  0
  183.1520  177.5280  140.8180 C   0  0  2  0  0  3  0  0  0  0  0  0
  183.2600  178.4930  143.1540 C   0  0  1  0  0  3  0  0  0  0  0  0
  188.3590  178.1940  139.0250 C   0  0  0  0  0  0  0  0  0  0  0  0
  186.0210  178.4240  139.5360 N   0  0  0  0  0  0  0  0  0  0  0  0
  189.4240  177.4820  144.6320 C   0  0  0  0  0  3  0  0  0  0  0  0
  181.6580  177.7630  140.6950 C   0  0  0  0  0  2  0  0  0  0  0  0
  182.4860  177.5000  138.4540 C   0  0  0  0  0  2  0  0  0  0  0  0
  190.7200  177.5250  142.3080 Cl  0  0  0  0  0  0  0  0  0  0  0  0
  185.5570  178.1510  143.1980 C   0  0  0  0  0  0  0  0  0  0  0  0
  188.3520  177.5440  145.5150 C   0  0  0  0  0  3  0  0  0  0  0  0
  187.9270  177.8750  142.7290 C   0  0  0  0  0  0  0  0  0  0  0  0
  185.2740  178.3170  141.8720 C   0  0  0  0  0  0  0  0  0  0  0  0
  182.6130  179.8110  143.5310 C   0  0  0  0  0  1  0  0  0  0  0  0
  183.8080  178.5780  141.7160 C   0  0  1  0  0  3  0  0  0  0  0  0
  181.2810  177.2360  139.3300 C   0  0  0  0  0  2  0  0  0  0  0  0
  184.1620  180.0500  139.1760 C   0  0  0  0  0  1  0  0  0  0  0  0
  187.0710  177.7660  145.0300 C   0  0  0  0  0  3  0  0  0  0  0  0
  186.8500  177.9290  143.6590 C   0  0  0  0  0  0  0  0  0  0  0  0
  184.6670  178.6210  138.9950 C   0  0  2  0  0  3  0  0  0  0  0  0
  189.4830  178.1250  138.0400 C   0  0  0  0  0  2  0  0  0  0  0  0
  190.9230  176.4440  137.2960 C   0  0  0  0  0  1  0  0  0  0  0  0
  190.4700  177.1540  138.4790 N   0  0  0  0  0  2  0  0  0  0  0  0
  1 19  1  0  0  0  0
  2 13  1  0  0  0  0
  4  1  2  0  0  0  0
  4 20  1  0  0  0  0
  5  1  1  0  0  0  0
  6  8  2  0  0  0  0
  7 15  1  6  0  0  0
  7  9  1  0  0  0  0
  8 11  1  0  0  0  0
  8 12  1  0  0  0  0
  9 14  1  6  0  0  0
  9 22  1  0  0  0  0
 10 21  1  1  0  0  0
 10  3  1  0  0  0  0
 11  5  2  0  0  0  0
 12  4  1  0  0  0  0
 13 18  2  0  0  0  0
 15 23  1  0  0  0  0
 16  2  1  0  0  0  0
 17 26  1  0  0  0  0
 17  3  1  0  0  0  0
 19  2  2  0  0  0  0
 19 26  1  0  0  0  0
 20 17  2  0  0  0  0
 22 20  1  1  0  0  0
 22 10  1  0  0  0  0
 23 14  1  0  0  0  0
 25 18  1  0  0  0  0
 26 25  2  0  0  0  0
 27 24  1  1  0  0  0
 27  7  1  0  0  0  0
 27 12  1  0  0  0  0
 28 30  1  0  0  0  0
 28 11  1  0  0  0  0
 29 30  1  0  0  0  0
M  END
>  <MODEL>
4

>  <REMARK>
 VINA RESULT:      -8.1      1.581      2.186
  Name = 
  2 active torsions:
  status: ('A' for Active; 'I' for Inactive)
    1  A    between atoms: C_11  and  C_28
    2  A    between atoms: C_28  and  N_30
                            x       y       z     vdW  Elec       q    Type
                         _______ _______ _______ _____ _____    ______ ____

>  <TORSDO>
F 2

$$$$
=
 OpenBabel11122410273D

 30 35  0  0  1  0  0  0  0  0999 V2000
  187.8140  177.9450  142.5310 C   0  0  0  0  0  0  0  0  0  0  0  0
  186.7460  178.0810  144.8320 C   0  0  0  0  0  0  0  0  0  0  0  0
  184.1460  178.8850  140.7230 N   0  0  0  0  0  2  0  0  0  0  0  0
  187.6730  178.0350  141.1080 C   0  0  0  0  0  0  0  0  0  0  0  0
  189.0760  177.6420  143.0370 C   0  0  0  0  0  3  0  0  0  0  0  0
  190.9850  177.2910  140.0720 O   0  0  0  0  0  0  0  0  0  0  0  0
  187.6540  176.8750  138.2320 C   0  0  1  0  0  3  0  0  0  0  0  0
  189.9920  177.5030  140.8240 C   0  0  0  0  0  0  0  0  0  0  0  0
  186.1850  177.3050  138.3440 C   0  0  2  0  0  3  0  0  0  0  0  0
  184.4560  178.8840  139.3000 C   0  0  1  0  0  3  0  0  0  0  0  0
  190.1630  177.4300  142.2080 C   0  0  0  0  0  0  0  0  0  0  0  0
  188.7650  177.8000  140.2870 N   0  0  0  0  0  0  0  0  0  0  0  0
  185.5960  178.3110  145.5920 C   0  0  0  0  0  3  0  0  0  0  0  0
  185.7030  177.5000  136.9190 C   0  0  0  0  0  2  0  0  0  0  0  0
  187.9330  176.6190  136.7610 C   0  0  0  0  0  2  0  0  0  0  0  0
  188.1790  177.6990  145.7840 Cl  0  0  0  0  0  0  0  0  0  0  0  0
  185.3270  178.5620  141.4290 C   0  0  0  0  0  0  0  0  0  0  0  0
  184.3830  178.6200  144.9870 C   0  0  0  0  0  3  0  0  0  0  0  0
  186.6920  178.1600  143.4020 C   0  0  0  0  0  0  0  0  0  0  0  0
  186.3930  178.3510  140.6010 C   0  0  0  0  0  0  0  0  0  0  0  0
  184.1820  180.2570  138.7190 C   0  0  0  0  0  1  0  0  0  0  0  0
  185.9590  178.5620  139.1850 C   0  0  1  0  0  3  0  0  0  0  0  0
  186.5860  176.6140  136.0730 C   0  0  0  0  0  2  0  0  0  0  0  0
  188.6810  179.2650  138.2690 C   0  0  0  0  0  1  0  0  0  0  0  0
  184.3030  178.7010  143.6040 C   0  0  0  0  0  3  0  0  0  0  0  0
  185.4340  178.4750  142.8130 C   0  0  0  0  0  0  0  0  0  0  0  0
  188.6950  177.8410  138.8180 C   0  0  2  0  0  3  0  0  0  0  0  0
  191.4850  177.0860  142.8180 C   0  0  0  0  0  2  0  0  0  0  0  0
  191.6800  176.4200  145.0480 C   0  0  0  0  0  1  0  0  0  0  0  0
  191.3380  175.9530  143.7160 N   0  0  0  0  0  2  0  0  0  0  0  0
  1  5  1  0  0  0  0
  1 19  1  0  0  0  0
  2 13  1  0  0  0  0
  2 16  1  0  0  0  0
  3 17  1  0  0  0  0
  4  1  2  0  0  0  0
  6  8  2  0  0  0  0
  7 15  1  6  0  0  0
  7  9  1  0  0  0  0
  7 27  1  0  0  0  0
  8 11  1  0  0  0  0
  9 14  1  6  0  0  0
  9 22  1  0  0  0  0
 10 21  1  1  0  0  0
 10  3  1  0  0  0  0
 11 28  1  0  0  0  0
 11  5  2  0  0  0  0
 12  8  1  0  0  0  0
 12  4  1  0  0  0  0
 17 26  1  0  0  0  0
 18 13  2  0  0  0  0
 19  2  2  0  0  0  0
 20  4  1  0  0  0  0
 20 17  2  0  0  0  0
 22 10  1  0  0  0  0
 22 20  1  1  0  0  0
 23 15  1  0  0  0  0
 23 14  1  0  0  0  0
 25 18  1  0  0  0  0
 26 19  1  0  0  0  0
 26 25  2  0  0  0  0
 27 24  1  1  0  0  0
 27 12  1  0  0  0  0
 28 30  1  0  0  0  0
 30 29  1  0  0  0  0
M  END
>  <MODEL>
5

>  <REMARK>
 VINA RESULT:      -8.0      2.284      4.003
  Name = 
  2 active torsions:
  status: ('A' for Active; 'I' for Inactive)
    1  A    between atoms: C_11  and  C_28
    2  A    between atoms: C_28  and  N_30
                            x       y       z     vdW  Elec       q    Type
                         _______ _______ _______ _____ _____    ______ ____

>  <TORSDO>
F 2

$$$$
=
 OpenBabel11122410273D

 30 35  0  0  1  0  0  0  0  0999 V2000
  187.3650  178.0540  141.8000 C   0  0  0  0  0  0  0  0  0  0  0  0
  186.7240  178.1800  144.2550 C   0  0  0  0  0  0  0  0  0  0  0  0
  183.4170  178.9260  140.6770 N   0  0  0  0  0  2  0  0  0  0  0  0
  186.9700  178.1370  140.4250 C   0  0  0  0  0  0  0  0  0  0  0  0
  188.7030  177.7740  142.0720 C   0  0  0  0  0  3  0  0  0  0  0  0
  190.0560  177.4460  138.8130 O   0  0  0  0  0  0  0  0  0  0  0  0
  186.4570  176.9670  137.5990 C   0  0  1  0  0  3  0  0  0  0  0  0
  189.2100  177.6430  139.7310 C   0  0  0  0  0  0  0  0  0  0  0  0
  185.0250  177.3720  137.9720 C   0  0  2  0  0  3  0  0  0  0  0  0
  183.4670  178.9250  139.2220 C   0  0  1  0  0  3  0  0  0  0  0  0
  189.6270  177.5780  141.0620 C   0  0  0  0  0  0  0  0  0  0  0  0
  187.9020  177.9170  139.4220 N   0  0  0  0  0  0  0  0  0  0  0  0
  185.7250  178.3930  145.2080 C   0  0  0  0  0  3  0  0  0  0  0  0
  184.2920  177.5540  136.6560 C   0  0  0  0  0  2  0  0  0  0  0  0
  186.4720  176.7110  136.1020 C   0  0  0  0  0  2  0  0  0  0  0  0
  188.3110  177.8260  144.9350 Cl  0  0  0  0  0  0  0  0  0  0  0  0
  184.7110  178.6250  141.1600 C   0  0  0  0  0  0  0  0  0  0  0  0
  184.4180  178.6790  144.8300 C   0  0  0  0  0  3  0  0  0  0  0  0
  186.4130  178.2530  142.8570 C   0  0  0  0  0  0  0  0  0  0  0  0
  185.6160  178.4300  140.1550 C   0  0  0  0  0  0  0  0  0  0  0  0
  183.0700  180.2910  138.6980 C   0  0  0  0  0  1  0  0  0  0  0  0
  184.9310  178.6280  138.8390 C   0  0  1  0  0  3  0  0  0  0  0  0
  185.0240  176.6800  135.6660 C   0  0  0  0  0  2  0  0  0  0  0  0
  187.4320  179.3750  137.4510 C   0  0  0  0  0  1  0  0  0  0  0  0
  184.0900  178.7540  143.4830 C   0  0  0  0  0  3  0  0  0  0  0  0
  185.0650  178.5440  142.5030 C   0  0  0  0  0  0  0  0  0  0  0  0
  187.5690  177.9520  137.9890 C   0  0  2  0  0  3  0  0  0  0  0  0
  191.0420  177.2590  141.4250 C   0  0  0  0  0  2  0  0  0  0  0  0
  191.6800  176.4350  143.5160 C   0  0  0  0  0  1  0  0  0  0  0  0
  191.3010  177.6420  142.8020 N   0  0  0  0  0  2  0  0  0  0  0  0
  1  5  1  0  0  0  0
  1 19  1  0  0  0  0
  2 16  1  0  0  0  0
  2 13  1  0  0  0  0
  3 17  1  0  0  0  0
  4  1  2  0  0  0  0
  6  8  2  0  0  0  0
  7 15  1  6  0  0  0
  7  9  1  0  0  0  0
  7 27  1  0  0  0  0
  8 11  1  0  0  0  0
  9 14  1  6  0  0  0
  9 22  1  0  0  0  0
 10 21  1  1  0  0  0
 10  3  1  0  0  0  0
 11 28  1  0  0  0  0
 11  5  2  0  0  0  0
 12  8  1  0  0  0  0
 12  4  1  0  0  0  0
 17 26  1  0  0  0  0
 18 13  2  0  0  0  0
 19  2  2  0  0  0  0
 20  4  1  0  0  0  0
 20 17  2  0  0  0  0
 22 10  1  0  0  0  0
 22 20  1  1  0  0  0
 23 15  1  0  0  0  0
 23 14  1  0  0  0  0
 25 18  1  0  0  0  0
 26 19  1  0  0  0  0
 26 25  2  0  0  0  0
 27 24  1  1  0  0  0
 27 12  1  0  0  0  0
 28 30  1  0  0  0  0
 30 29  1  0  0  0  0
M  END
>  <MODEL>
6

>  <REMARK>
 VINA RESULT:      -8.0      1.983      3.295
  Name = 
  2 active torsions:
  status: ('A' for Active; 'I' for Inactive)
    1  A    between atoms: C_11  and  C_28
    2  A    between atoms: C_28  and  N_30
                            x       y       z     vdW  Elec       q    Type
                         _______ _______ _______ _____ _____    ______ ____

>  <TORSDO>
F 2

$$$$
=
 OpenBabel11122410273D

 30 35  0  0  1  0  0  0  0  0999 V2000
  184.9500  178.4500  141.6130 C   0  0  0  0  0  0  0  0  0  0  0  0
  186.2460  178.2790  143.7900 C   0  0  0  0  0  0  0  0  0  0  0  0
  181.3690  178.9890  143.7330 N   0  0  0  0  0  2  0  0  0  0  0  0
  183.6930  178.6150  140.9450 C   0  0  0  0  0  0  0  0  0  0  0  0
  186.0850  178.2920  140.8210 C   0  0  0  0  0  3  0  0  0  0  0  0
  184.7190  178.4130  137.5530 O   0  0  0  0  0  0  0  0  0  0  0  0
  181.3320  177.6610  139.1740 C   0  0  1  0  0  3  0  0  0  0  0  0
  184.7760  178.4330  138.8150 C   0  0  0  0  0  0  0  0  0  0  0  0
  180.5880  177.8730  140.4990 C   0  0  2  0  0  3  0  0  0  0  0  0
  180.3680  179.1270  142.6850 C   0  0  1  0  0  3  0  0  0  0  0  0
  186.0170  178.2910  139.4390 C   0  0  0  0  0  0  0  0  0  0  0  0
  183.6340  178.5910  139.5600 N   0  0  0  0  0  0  0  0  0  0  0  0
  186.2210  178.2950  145.1880 C   0  0  0  0  0  3  0  0  0  0  0  0
  179.1350  178.0950  140.1250 C   0  0  0  0  0  2  0  0  0  0  0  0
  180.2800  177.5470  138.0850 C   0  0  0  0  0  2  0  0  0  0  0  0
  187.8490  178.0380  143.0970 Cl  0  0  0  0  0  0  0  0  0  0  0  0
  182.6250  178.7870  143.1160 C   0  0  0  0  0  0  0  0  0  0  0  0
  185.0310  178.4710  145.8840 C   0  0  0  0  0  3  0  0  0  0  0  0
  185.0320  178.4460  143.0470 C   0  0  0  0  0  0  0  0  0  0  0  0
  182.5460  178.7830  141.7520 C   0  0  0  0  0  0  0  0  0  0  0  0
  179.7020  180.4840  142.7930 C   0  0  0  0  0  1  0  0  0  0  0  0
  181.1260  179.0260  141.3460 C   0  0  1  0  0  3  0  0  0  0  0  0
  178.9530  177.4000  138.7960 C   0  0  0  0  0  2  0  0  0  0  0  0
  181.8860  180.1630  138.7250 C   0  0  0  0  0  1  0  0  0  0  0  0
  183.8420  178.6340  145.1880 C   0  0  0  0  0  3  0  0  0  0  0  0
  183.8300  178.6220  143.7900 C   0  0  0  0  0  0  0  0  0  0  0  0
  182.3810  178.7210  138.8020 C   0  0  2  0  0  3  0  0  0  0  0  0
  187.2730  178.0950  138.6510 C   0  0  0  0  0  2  0  0  0  0  0  0
  189.5370  177.7430  139.1070 C   0  0  0  0  0  1  0  0  0  0  0  0
  188.4100  178.6150  139.3900 N   0  0  0  0  0  2  0  0  0  0  0  0
  1 19  1  0  0  0  0
  2 13  1  0  0  0  0
  4  1  2  0  0  0  0
  4 20  1  0  0  0  0
  5  1  1  0  0  0  0
  6  8  2  0  0  0  0
  7 15  1  6  0  0  0
  7  9  1  0  0  0  0
  8 11  1  0  0  0  0
  8 12  1  0  0  0  0
  9 14  1  6  0  0  0
  9 22  1  0  0  0  0
 10 21  1  1  0  0  0
 10  3  1  0  0  0  0
 11  5  2  0  0  0  0
 12  4  1  0  0  0  0
 13 18  2  0  0  0  0
 15 23  1  0  0  0  0
 16  2  1  0  0  0  0
 17  3  1  0  0  0  0
 17 26  1  0  0  0  0
 19 26  1  0  0  0  0
 19  2  2  0  0  0  0
 20 17  2  0  0  0  0
 22 20  1  1  0  0  0
 22 10  1  0  0  0  0
 23 14  1  0  0  0  0
 25 18  1  0  0  0  0
 26 25  2  0  0  0  0
 27 24  1  1  0  0  0
 27  7  1  0  0  0  0
 27 12  1  0  0  0  0
 28 30  1  0  0  0  0
 28 11  1  0  0  0  0
 29 30  1  0  0  0  0
M  END
>  <MODEL>
7

>  <REMARK>
 VINA RESULT:      -8.0      1.160      1.408
  Name = 
  2 active torsions:
  status: ('A' for Active; 'I' for Inactive)
    1  A    between atoms: C_11  and  C_28
    2  A    between atoms: C_28  and  N_30
                            x       y       z     vdW  Elec       q    Type
                         _______ _______ _______ _____ _____    ______ ____

>  <TORSDO>
F 2

$$$$
=
 OpenBabel11122410273D

 30 35  0  0  1  0  0  0  0  0999 V2000
  187.5960  177.9010  139.8880 C   0  0  0  0  0  0  0  0  0  0  0  0
  185.4300  178.6830  138.8170 C   0  0  0  0  0  0  0  0  0  0  0  0
  185.9330  178.3780  143.7110 N   0  0  0  0  0  2  0  0  0  0  0  0
  188.3440  177.6230  141.0780 C   0  0  0  0  0  0  0  0  0  0  0  0
  188.2320  177.6980  138.6650 C   0  0  0  0  0  3  0  0  0  0  0  0
  191.4460  176.6080  139.6840 O   0  0  0  0  0  0  0  0  0  0  0  0
  190.6360  178.1160  143.1080 C   0  0  1  0  0  3  0  0  0  0  0  0
  190.2480  177.0030  139.7620 C   0  0  0  0  0  0  0  0  0  0  0  0
  189.4300  178.4150  144.0080 C   0  0  2  0  0  3  0  0  0  0  0  0
  187.0100  177.9780  144.6050 C   0  0  1  0  0  3  0  0  0  0  0  0
  189.5360  177.2460  138.5860 C   0  0  0  0  0  0  0  0  0  0  0  0
  189.6580  177.1910  140.9870 N   0  0  0  0  0  0  0  0  0  0  0  0
  184.1180  179.1340  138.9920 C   0  0  0  0  0  3  0  0  0  0  0  0
  189.9110  178.1950  145.4300 C   0  0  0  0  0  2  0  0  0  0  0  0
  191.8400  177.9440  144.0180 C   0  0  0  0  0  2  0  0  0  0  0  0
  185.9340  178.5540  137.1340 Cl  0  0  0  0  0  0  0  0  0  0  0  0
  186.4020  178.2650  142.3820 C   0  0  0  0  0  0  0  0  0  0  0  0
  183.5740  179.2920  140.2610 C   0  0  0  0  0  3  0  0  0  0  0  0
  186.2420  178.3740  139.9570 C   0  0  0  0  0  0  0  0  0  0  0  0
  187.6920  177.8220  142.3150 C   0  0  0  0  0  0  0  0  0  0  0  0
  186.5680  176.7900  145.4360 C   0  0  0  0  0  1  0  0  0  0  0  0
  188.1920  177.5700  143.7030 C   0  0  1  0  0  3  0  0  0  0  0  0
  191.4040  178.4220  145.3860 C   0  0  0  0  0  2  0  0  0  0  0  0
  190.1820  175.5720  142.8130 C   0  0  0  0  0  1  0  0  0  0  0  0
  184.3390  179.0010  141.3810 C   0  0  0  0  0  3  0  0  0  0  0  0
  185.6550  178.5500  141.2430 C   0  0  0  0  0  0  0  0  0  0  0  0
  190.5010  176.9150  142.1600 C   0  0  2  0  0  3  0  0  0  0  0  0
  190.1640  177.0720  137.2400 C   0  0  0  0  0  2  0  0  0  0  0  0
  189.6200  177.0590  134.9680 C   0  0  0  0  0  1  0  0  0  0  0  0
  189.3620  177.7360  136.2270 N   0  0  0  0  0  2  0  0  0  0  0  0
  1 19  2  0  0  0  0
  1  4  1  0  0  0  0
  2 13  2  0  0  0  0
  2 19  1  0  0  0  0
  3 10  1  0  0  0  0
  4 20  2  0  0  0  0
  5  1  1  0  0  0  0
  6  8  2  0  0  0  0
  7  9  1  0  0  0  0
  7 15  1  1  0  0  0
  8 12  1  0  0  0  0
  9 14  1  1  0  0  0
 10 21  1  6  0  0  0
 11  5  2  0  0  0  0
 11  8  1  0  0  0  0
 12  4  1  0  0  0  0
 12 27  1  0  0  0  0
 13 18  1  0  0  0  0
 15 23  1  0  0  0  0
 16  2  1  0  0  0  0
 17  3  1  0  0  0  0
 18 25  2  0  0  0  0
 19 26  1  0  0  0  0
 20 17  1  0  0  0  0
 22 20  1  6  0  0  0
 22  9  1  0  0  0  0
 22 10  1  0  0  0  0
 23 14  1  0  0  0  0
 26 25  1  0  0  0  0
 26 17  2  0  0  0  0
 27 24  1  1  0  0  0
 27  7  1  0  0  0  0
 28 11  1  0  0  0  0
 29 30  1  0  0  0  0
 30 28  1  0  0  0  0
M  END
>  <MODEL>
8

>  <REMARK>
 VINA RESULT:      -7.6      2.964      6.611
  Name = 
  2 active torsions:
  status: ('A' for Active; 'I' for Inactive)
    1  A    between atoms: C_11  and  C_28
    2  A    between atoms: C_28  and  N_30
                            x       y       z     vdW  Elec       q    Type
                         _______ _______ _______ _____ _____    ______ ____

>  <TORSDO>
F 2

$$$$
=
 OpenBabel11122410273D

 30 35  0  0  1  0  0  0  0  0999 V2000
  185.8380  178.4370  142.8790 C   0  0  0  0  0  0  0  0  0  0  0  0
  185.5200  178.5060  140.3590 C   0  0  0  0  0  0  0  0  0  0  0  0
  189.9850  178.0220  142.3910 N   0  0  0  0  0  2  0  0  0  0  0  0
  186.7230  178.3190  143.9990 C   0  0  0  0  0  0  0  0  0  0  0  0
  184.4780  178.5860  143.1440 C   0  0  0  0  0  3  0  0  0  0  0  0
  184.4100  178.4910  146.6850 O   0  0  0  0  0  0  0  0  0  0  0  0
  187.8820  176.8890  146.4950 C   0  0  1  0  0  3  0  0  0  0  0  0
  184.8690  178.4790  145.5080 C   0  0  0  0  0  0  0  0  0  0  0  0
  189.1210  176.8680  145.5910 C   0  0  2  0  0  3  0  0  0  0  0  0
  190.4850  177.9530  143.7570 C   0  0  1  0  0  3  0  0  0  0  0  0
  183.9850  178.6180  144.4350 C   0  0  0  0  0  0  0  0  0  0  0  0
  186.2150  178.3310  145.2890 N   0  0  0  0  0  0  0  0  0  0  0  0
  186.1050  178.4650  139.0910 C   0  0  0  0  0  3  0  0  0  0  0  0
  190.3110  176.7470  146.5240 C   0  0  0  0  0  2  0  0  0  0  0  0
  188.3520  176.5640  147.9020 C   0  0  0  0  0  2  0  0  0  0  0  0
  183.7670  178.6830  140.3430 Cl  0  0  0  0  0  0  0  0  0  0  0  0
  188.5780  178.1510  142.4450 C   0  0  0  0  0  0  0  0  0  0  0  0
  187.4800  178.3250  138.9360 C   0  0  0  0  0  3  0  0  0  0  0  0
  186.3380  178.4020  141.5320 C   0  0  0  0  0  0  0  0  0  0  0  0
  188.1010  178.1770  143.7250 C   0  0  0  0  0  0  0  0  0  0  0  0
  191.4370  179.1050  144.0090 C   0  0  0  0  0  1  0  0  0  0  0  0
  189.2540  178.0860  144.6750 C   0  0  1  0  0  3  0  0  0  0  0  0
  189.7770  176.0760  147.7680 C   0  0  0  0  0  2  0  0  0  0  0  0
  187.7990  179.4650  146.8490 C   0  0  0  0  0  1  0  0  0  0  0  0
  188.2930  178.2210  140.0550 C   0  0  0  0  0  3  0  0  0  0  0  0
  187.7410  178.2570  141.3390 C   0  0  0  0  0  0  0  0  0  0  0  0
  187.0530  178.1820  146.4890 C   0  0  2  0  0  3  0  0  0  0  0  0
  182.5110  178.7580  144.6470 C   0  0  0  0  0  2  0  0  0  0  0  0
  180.4450  178.8000  143.5590 C   0  0  0  0  0  1  0  0  0  0  0  0
  181.8590  179.0910  143.3930 N   0  0  0  0  0  2  0  0  0  0  0  0
  1  5  1  0  0  0  0
  1  4  1  0  0  0  0
  2 19  1  0  0  0  0
  3 17  1  0  0  0  0
  3 10  1  0  0  0  0
  4 12  1  0  0  0  0
  5 11  2  0  0  0  0
  7 15  1  1  0  0  0
  8  6  2  0  0  0  0
  9  7  1  0  0  0  0
  9 14  1  1  0  0  0
 10 21  1  1  0  0  0
 10 22  1  0  0  0  0
 11 28  1  0  0  0  0
 11  8  1  0  0  0  0
 12  8  1  0  0  0  0
 12 27  1  0  0  0  0
 13  2  2  0  0  0  0
 14 23  1  0  0  0  0
 16  2  1  0  0  0  0
 17 20  1  0  0  0  0
 18 13  1  0  0  0  0
 18 25  2  0  0  0  0
 19  1  2  0  0  0  0
 20  4  2  0  0  0  0
 22 20  1  6  0  0  0
 22  9  1  0  0  0  0
 23 15  1  0  0  0  0
 25 26  1  0  0  0  0
 26 19  1  0  0  0  0
 26 17  2  0  0  0  0
 27  7  1  0  0  0  0
 27 24  1  6  0  0  0
 30 29  1  0  0  0  0
 30 28  1  0  0  0  0
M  END
>  <MODEL>
9

>  <REMARK>
 VINA RESULT:      -7.4      2.939      7.798
  Name = 
  2 active torsions:
  status: ('A' for Active; 'I' for Inactive)
    1  A    between atoms: C_11  and  C_28
    2  A    between atoms: C_28  and  N_30
                            x       y       z     vdW  Elec       q    Type
                         _______ _______ _______ _____ _____    ______ ____

>  <TORSDO>
F 2

$$$$
