=
 OpenBabel11122410423D

 32 37  0  0  1  0  0  0  0  0999 V2000
  187.7350  178.5630  136.9480 C   0  0  0  0  0  2  0  0  0  0  0  0
  187.5550  177.9500  142.1510 C   0  0  0  0  0  0  0  0  0  0  0  0
  182.9440  178.9390  143.2500 C   0  0  0  0  0  3  0  0  0  0  0  0
  183.2420  178.8740  144.6090 C   0  0  0  0  0  3  0  0  0  0  0  0
  189.1980  177.4500  144.0140 C   0  0  0  0  0  0  0  0  0  0  0  0
  189.3870  177.4230  145.3910 C   0  0  0  0  0  0  0  0  0  0  0  0
  188.1980  177.7050  139.7090 C   0  0  1  0  0  3  0  0  0  0  0  0
  185.8570  178.1870  140.3500 C   0  0  0  0  0  2  0  0  0  0  0  0
  188.9010  177.5480  147.5050 C   0  0  0  0  0  0  0  0  0  0  0  0
  186.5540  178.4630  137.9290 C   0  0  2  0  0  3  0  0  0  0  0  0
  183.9480  178.7190  142.3060 C   0  0  0  0  0  3  0  0  0  0  0  0
  186.2570  178.2260  141.7710 N   0  0  0  0  0  0  0  0  0  0  0  0
  185.2700  178.4290  142.7020 C   0  0  0  0  0  0  0  0  0  0  0  0
  186.8600  178.0600  144.5000 C   0  0  0  0  0  0  0  0  0  0  0  0
  190.2000  177.1890  147.3790 N   0  0  0  0  0  0  0  0  0  0  0  0
  189.0450  178.9440  137.6300 C   0  0  0  0  0  2  0  0  0  0  0  0
  186.9830  178.5730  139.4050 C   0  0  2  0  0  3  0  0  0  0  0  0
  190.5000  177.1100  146.0830 N   0  0  0  0  0  0  0  0  0  0  0  0
  189.3690  177.9480  138.7430 C   0  0  0  0  0  2  0  0  0  0  0  0
  184.5430  178.5870  145.0220 C   0  0  0  0  0  3  0  0  0  0  0  0
  185.5630  178.3630  144.0810 C   0  0  0  0  0  0  0  0  0  0  0  0
  187.1310  178.0010  145.8420 N   0  0  0  0  0  0  0  0  0  0  0  0
  188.6580  178.0180  141.1180 C   0  0  0  0  0  2  0  0  0  0  0  0
  190.5670  176.9500  143.0140 Cl  0  0  0  0  0  0  0  0  0  0  0  0
  188.1870  177.7090  148.8000 C   0  0  0  0  0  1  0  0  0  0  0  0
  187.8900  177.8150  143.5310 C   0  0  0  0  0  0  0  0  0  0  0  0
  188.3810  177.6980  146.2480 C   0  0  0  0  0  0  0  0  0  0  0  0
  185.8650  177.2680  137.6940 O   0  0  0  0  0  0  0  0  0  0  0  0
  186.5440  176.6640  136.6340 C   0  0  0  0  0  2  0  0  0  0  0  0
  186.9290  175.2770  137.0130 C   0  0  0  0  0  0  0  0  0  0  0  0
  185.9470  174.3230  137.2470 O   0  0  0  0  0  1  0  0  0  0  0  0
  188.1420  174.9810  137.1680 O   0  0  0  0  0  0  0  0  0  0  0  0
  1 16  1  0  0  0  0
  1 10  1  0  0  0  0
  2 26  2  0  0  0  0
  3  4  1  0  0  0  0
  4 20  2  0  0  0  0
  5  6  2  0  0  0  0
  6 18  1  0  0  0  0
  6 27  1  0  0  0  0
  7 19  1  6  0  0  0
  7 23  1  0  0  0  0
  8 12  1  0  0  0  0
  9 25  1  0  0  0  0
 10 28  1  1  0  0  0
 10 17  1  0  0  0  0
 11 13  1  0  0  0  0
 11  3  2  0  0  0  0
 12  2  1  0  0  0  0
 12 13  1  0  0  0  0
 13 21  2  0  0  0  0
 14 22  2  0  0  0  0
 15  9  1  0  0  0  0
 16 19  1  0  0  0  0
 17  7  1  0  0  0  0
 17  8  1  1  0  0  0
 18 15  2  0  0  0  0
 21 14  1  0  0  0  0
 21 20  1  0  0  0  0
 22 27  1  0  0  0  0
 23  2  1  0  0  0  0
 24  5  1  0  0  0  0
 26  5  1  0  0  0  0
 26 14  1  0  0  0  0
 27  9  2  0  0  0  0
 29 30  1  0  0  0  0
 29 28  1  0  0  0  0
 30 32  2  0  0  0  0
 30 31  1  0  0  0  0
M  END
>  <MODEL>
1

>  <REMARK>
 VINA RESULT:      -9.8      0.000      0.000
  Name = 
  3 active torsions:
  status: ('A' for Active; 'I' for Inactive)
    1  A    between atoms: C_10  and  O_20
    2  A    between atoms: O_20  and  C_29
    3  A    between atoms: C_29  and  C_30
                            x       y       z     vdW  Elec       q    Type
                         _______ _______ _______ _____ _____    ______ ____

>  <TORSDO>
F 3

$$$$
=
 OpenBabel11122410423D

 32 37  0  0  1  0  0  0  0  0999 V2000
  181.4610  178.8870  140.4670 C   0  0  0  0  0  2  0  0  0  0  0  0
  185.9070  178.2650  143.1740 C   0  0  0  0  0  0  0  0  0  0  0  0
  189.2660  177.7280  139.7270 C   0  0  0  0  0  3  0  0  0  0  0  0
  190.2240  177.4240  140.6910 C   0  0  0  0  0  3  0  0  0  0  0  0
  186.5790  178.0630  145.6080 C   0  0  0  0  0  0  0  0  0  0  0  0
  187.6090  177.7350  146.4830 C   0  0  0  0  0  0  0  0  0  0  0  0
  183.5720  178.9870  142.4940 C   0  0  1  0  0  3  0  0  0  0  0  0
  185.3480  178.7140  140.7930 C   0  0  0  0  0  2  0  0  0  0  0  0
  189.6010  177.1830  147.1510 C   0  0  0  0  0  0  0  0  0  0  0  0
  182.9380  178.9220  140.0360 C   0  0  2  0  0  3  0  0  0  0  0  0
  187.9570  178.0180  140.1130 C   0  0  0  0  0  3  0  0  0  0  0  0
  186.2870  178.2800  141.8460 N   0  0  0  0  0  0  0  0  0  0  0  0
  187.5790  178.0090  141.4720 C   0  0  0  0  0  0  0  0  0  0  0  0
  188.2110  177.7030  143.7960 C   0  0  0  0  0  0  0  0  0  0  0  0
  188.8150  177.3680  148.2370 N   0  0  0  0  0  0  0  0  0  0  0  0
  181.2450  178.1670  141.7940 C   0  0  0  0  0  2  0  0  0  0  0  0
  183.8970  178.4030  141.1250 C   0  0  2  0  0  3  0  0  0  0  0  0
  187.5920  177.7080  147.8300 N   0  0  0  0  0  0  0  0  0  0  0  0
  182.0960  178.8120  142.8880 C   0  0  0  0  0  2  0  0  0  0  0  0
  189.8710  177.4120  142.0410 C   0  0  0  0  0  3  0  0  0  0  0  0
  188.5550  177.7010  142.4430 C   0  0  0  0  0  0  0  0  0  0  0  0
  189.1690  177.4020  144.7280 N   0  0  0  0  0  0  0  0  0  0  0  0
  184.4350  178.2840  143.5210 C   0  0  0  0  0  2  0  0  0  0  0  0
  185.0540  178.5810  146.3340 Cl  0  0  0  0  0  0  0  0  0  0  0  0
  191.0440  176.8250  147.1980 C   0  0  0  0  0  1  0  0  0  0  0  0
  186.8700  178.0190  144.1970 C   0  0  0  0  0  0  0  0  0  0  0  0
  188.8410  177.4140  146.0360 C   0  0  0  0  0  0  0  0  0  0  0  0
  183.2710  180.2260  139.6530 O   0  0  0  0  0  0  0  0  0  0  0  0
  182.5190  180.4660  138.5000 C   0  0  0  0  0  2  0  0  0  0  0  0
  181.9820  181.8530  138.5340 C   0  0  0  0  0  0  0  0  0  0  0  0
  180.6090  182.0670  138.5230 O   0  0  0  0  0  0  0  0  0  0  0  0
  182.7690  182.8330  138.5250 O   0  0  0  0  0  1  0  0  0  0  0  0
  1 16  1  0  0  0  0
  2 23  1  0  0  0  0
  2 26  2  0  0  0  0
  3 11  2  0  0  0  0
  3  4  1  0  0  0  0
  4 20  2  0  0  0  0
  5 24  1  0  0  0  0
  5  6  2  0  0  0  0
  6 18  1  0  0  0  0
  7 19  1  1  0  0  0
  7 23  1  0  0  0  0
  8 12  1  0  0  0  0
  9 25  1  0  0  0  0
  9 15  1  0  0  0  0
 10 28  1  1  0  0  0
 10  1  1  0  0  0  0
 10 17  1  0  0  0  0
 11 13  1  0  0  0  0
 12  2  1  0  0  0  0
 13 12  1  0  0  0  0
 13 21  2  0  0  0  0
 14 26  1  0  0  0  0
 14 22  2  0  0  0  0
 16 19  1  0  0  0  0
 17  8  1  6  0  0  0
 17  7  1  0  0  0  0
 18 15  2  0  0  0  0
 20 21  1  0  0  0  0
 21 14  1  0  0  0  0
 22 27  1  0  0  0  0
 26  5  1  0  0  0  0
 27  6  1  0  0  0  0
 27  9  2  0  0  0  0
 29 30  1  0  0  0  0
 29 28  1  0  0  0  0
 31 30  2  0  0  0  0
 32 30  1  0  0  0  0
M  END
>  <MODEL>
2

>  <REMARK>
 VINA RESULT:      -9.8      2.842      5.277
  Name = 
  3 active torsions:
  status: ('A' for Active; 'I' for Inactive)
    1  A    between atoms: C_10  and  O_20
    2  A    between atoms: O_20  and  C_29
    3  A    between atoms: C_29  and  C_30
                            x       y       z     vdW  Elec       q    Type
                         _______ _______ _______ _____ _____    ______ ____

>  <TORSDO>
F 3

$$$$
=
 OpenBabel11122410423D

 32 37  0  0  1  0  0  0  0  0999 V2000
  189.0400  178.0000  148.2520 C   0  0  0  0  0  2  0  0  0  0  0  0
  186.4720  178.1830  143.6850 C   0  0  0  0  0  0  0  0  0  0  0  0
  189.9960  177.7900  140.3870 C   0  0  0  0  0  3  0  0  0  0  0  0
  189.0840  178.0370  139.3650 C   0  0  0  0  0  3  0  0  0  0  0  0
  184.0850  178.5380  142.9170 C   0  0  0  0  0  0  0  0  0  0  0  0
  183.2630  178.7880  141.8230 C   0  0  0  0  0  0  0  0  0  0  0  0
  187.0400  177.7800  146.1240 C   0  0  1  0  0  3  0  0  0  0  0  0
  188.7810  177.5740  144.3790 C   0  0  0  0  0  2  0  0  0  0  0  0
  182.6850  179.0780  139.7490 C   0  0  0  0  0  0  0  0  0  0  0  0
  189.4820  177.6790  146.8130 C   0  0  2  0  0  3  0  0  0  0  0  0
  189.5650  177.7600  141.7140 C   0  0  0  0  0  3  0  0  0  0  0  0
  187.7950  177.9620  143.3520 N   0  0  0  0  0  0  0  0  0  0  0  0
  188.2120  177.9780  142.0450 C   0  0  0  0  0  0  0  0  0  0  0  0
  185.9440  178.4280  141.3030 C   0  0  0  0  0  0  0  0  0  0  0  0
  181.5760  179.1420  140.5220 N   0  0  0  0  0  0  0  0  0  0  0  0
  187.7990  178.8850  148.3110 C   0  0  0  0  0  2  0  0  0  0  0  0
  188.4690  178.1510  145.7510 C   0  0  2  0  0  3  0  0  0  0  0  0
  181.9280  178.9630  141.7950 N   0  0  0  0  0  0  0  0  0  0  0  0
  186.6500  178.2340  147.5410 C   0  0  0  0  0  2  0  0  0  0  0  0
  187.7400  178.2540  139.6710 C   0  0  0  0  0  3  0  0  0  0  0  0
  187.2930  178.2270  141.0040 C   0  0  0  0  0  0  0  0  0  0  0  0
  185.0630  178.6700  140.2820 N   0  0  0  0  0  0  0  0  0  0  0  0
  186.1070  178.4410  145.1300 C   0  0  0  0  0  2  0  0  0  0  0  0
  183.2860  178.3560  144.4840 Cl  0  0  0  0  0  0  0  0  0  0  0  0
  182.6950  179.2000  138.2660 C   0  0  0  0  0  1  0  0  0  0  0  0
  185.4940  178.3800  142.6650 C   0  0  0  0  0  0  0  0  0  0  0  0
  183.7580  178.8540  140.5690 C   0  0  0  0  0  0  0  0  0  0  0  0
  189.7190  176.3040  146.7040 O   0  0  0  0  0  0  0  0  0  0  0  0
  190.7640  176.0480  147.5960 C   0  0  0  0  0  2  0  0  0  0  0  0
  192.0280  175.8390  146.8380 C   0  0  0  0  0  0  0  0  0  0  0  0
  193.2150  175.6000  147.5190 O   0  0  0  0  0  1  0  0  0  0  0  0
  192.0300  175.9230  145.5830 O   0  0  0  0  0  0  0  0  0  0  0  0
  1 16  1  0  0  0  0
  2 23  1  0  0  0  0
  3 11  1  0  0  0  0
  4 20  1  0  0  0  0
  4  3  2  0  0  0  0
  5 24  1  0  0  0  0
  6  5  2  0  0  0  0
  7 23  1  6  0  0  0
  7 19  1  0  0  0  0
  9 15  1  0  0  0  0
  9 27  2  0  0  0  0
 10 28  1  1  0  0  0
 10  1  1  0  0  0  0
 11 13  2  0  0  0  0
 12  2  1  0  0  0  0
 12  8  1  0  0  0  0
 13 12  1  0  0  0  0
 14 26  1  0  0  0  0
 15 18  2  0  0  0  0
 17  8  1  6  0  0  0
 17  7  1  0  0  0  0
 17 10  1  0  0  0  0
 18  6  1  0  0  0  0
 19 16  1  0  0  0  0
 20 21  2  0  0  0  0
 21 14  1  0  0  0  0
 21 13  1  0  0  0  0
 22 27  1  0  0  0  0
 22 14  2  0  0  0  0
 25  9  1  0  0  0  0
 26  5  1  0  0  0  0
 26  2  2  0  0  0  0
 27  6  1  0  0  0  0
 28 29  1  0  0  0  0
 30 31  1  0  0  0  0
 30 29  1  0  0  0  0
 32 30  2  0  0  0  0
M  END
>  <MODEL>
3

>  <REMARK>
 VINA RESULT:      -9.7      3.912      8.084
  Name = 
  3 active torsions:
  status: ('A' for Active; 'I' for Inactive)
    1  A    between atoms: C_10  and  O_20
    2  A    between atoms: O_20  and  C_29
    3  A    between atoms: C_29  and  C_30
                            x       y       z     vdW  Elec       q    Type
                         _______ _______ _______ _____ _____    ______ ____

>  <TORSDO>
F 3

$$$$
=
 OpenBabel11122410423D

 32 37  0  0  1  0  0  0  0  0999 V2000
  191.1310  176.3040  147.2870 C   0  0  0  0  0  2  0  0  0  0  0  0
  189.0440  177.6400  142.6670 C   0  0  0  0  0  0  0  0  0  0  0  0
  184.4400  178.6700  143.7590 C   0  0  0  0  0  3  0  0  0  0  0  0
  184.1360  178.7990  142.4060 C   0  0  0  0  0  3  0  0  0  0  0  0
  189.7950  177.7140  140.2490 C   0  0  0  0  0  0  0  0  0  0  0  0
  189.3800  177.8540  138.9290 C   0  0  0  0  0  0  0  0  0  0  0  0
  190.6920  177.2830  144.5620 C   0  0  1  0  0  3  0  0  0  0  0  0
  188.3280  177.8360  145.0410 C   0  0  0  0  0  2  0  0  0  0  0  0
  188.0460  178.2150  137.2540 C   0  0  0  0  0  0  0  0  0  0  0  0
  189.8000  176.9850  146.9210 C   0  0  2  0  0  3  0  0  0  0  0  0
  185.7410  178.3550  144.1530 C   0  0  0  0  0  3  0  0  0  0  0  0
  188.0390  177.8390  143.5940 N   0  0  0  0  0  0  0  0  0  0  0  0
  186.7640  178.1620  143.2020 C   0  0  0  0  0  0  0  0  0  0  0  0
  187.4470  178.1280  140.8720 C   0  0  0  0  0  0  0  0  0  0  0  0
  189.2980  178.0230  136.7780 N   0  0  0  0  0  0  0  0  0  0  0  0
  191.7510  175.5430  146.1210 C   0  0  0  0  0  2  0  0  0  0  0  0
  189.4820  176.9190  145.4140 C   0  0  2  0  0  3  0  0  0  0  0  0
  190.1190  177.8030  137.8040 N   0  0  0  0  0  0  0  0  0  0  0  0
  191.9500  176.4780  144.9270 C   0  0  0  0  0  2  0  0  0  0  0  0
  185.1330  178.6140  141.4490 C   0  0  0  0  0  3  0  0  0  0  0  0
  186.4480  178.2960  141.8330 C   0  0  0  0  0  0  0  0  0  0  0  0
  187.1260  178.2600  139.5470 N   0  0  0  0  0  0  0  0  0  0  0  0
  190.3450  177.0110  143.1130 C   0  0  0  0  0  2  0  0  0  0  0  0
  191.5300  177.5060  140.5180 Cl  0  0  0  0  0  0  0  0  0  0  0  0
  186.8560  178.5200  136.4140 C   0  0  0  0  0  1  0  0  0  0  0  0
  188.7900  177.8220  141.2750 C   0  0  0  0  0  0  0  0  0  0  0  0
  188.0910  178.1080  138.6180 C   0  0  0  0  0  0  0  0  0  0  0  0
  189.8260  178.3100  147.3720 O   0  0  0  0  0  0  0  0  0  0  0  0
  189.2860  178.2620  148.6600 C   0  0  0  0  0  2  0  0  0  0  0  0
  187.8190  178.0240  148.5780 C   0  0  0  0  0  0  0  0  0  0  0  0
  187.0010  178.9460  147.9380 O   0  0  0  0  0  0  0  0  0  0  0  0
  187.3150  177.0120  149.1280 O   0  0  0  0  0  1  0  0  0  0  0  0
  2 23  1  0  0  0  0
  2 12  1  0  0  0  0
  3 11  1  0  0  0  0
  4  3  2  0  0  0  0
  5 24  1  0  0  0  0
  5 26  1  0  0  0  0
  6  5  2  0  0  0  0
  7 23  1  6  0  0  0
  7 19  1  0  0  0  0
  7 17  1  0  0  0  0
  9 27  2  0  0  0  0
 10  1  1  0  0  0  0
 10 28  1  6  0  0  0
 12  8  1  0  0  0  0
 13 12  1  0  0  0  0
 13 11  2  0  0  0  0
 14 26  1  0  0  0  0
 14 21  1  0  0  0  0
 15  9  1  0  0  0  0
 15 18  2  0  0  0  0
 16  1  1  0  0  0  0
 17  8  1  1  0  0  0
 17 10  1  0  0  0  0
 18  6  1  0  0  0  0
 19 16  1  0  0  0  0
 20 21  2  0  0  0  0
 20  4  1  0  0  0  0
 21 13  1  0  0  0  0
 22 14  2  0  0  0  0
 25  9  1  0  0  0  0
 26  2  2  0  0  0  0
 27  6  1  0  0  0  0
 27 22  1  0  0  0  0
 28 29  1  0  0  0  0
 30 29  1  0  0  0  0
 30 32  1  0  0  0  0
 31 30  2  0  0  0  0
M  END
>  <MODEL>
4

>  <REMARK>
 VINA RESULT:      -9.5      3.892      7.563
  Name = 
  3 active torsions:
  status: ('A' for Active; 'I' for Inactive)
    1  A    between atoms: C_10  and  O_20
    2  A    between atoms: O_20  and  C_29
    3  A    between atoms: C_29  and  C_30
                            x       y       z     vdW  Elec       q    Type
                         _______ _______ _______ _____ _____    ______ ____

>  <TORSDO>
F 3

$$$$
=
 OpenBabel11122410423D

 32 37  0  0  1  0  0  0  0  0999 V2000
  180.9550  179.7650  139.4930 C   0  0  0  0  0  2  0  0  0  0  0  0
  185.5310  178.4150  141.6660 C   0  0  0  0  0  0  0  0  0  0  0  0
  184.5810  178.4350  146.4140 C   0  0  0  0  0  3  0  0  0  0  0  0
  185.9290  178.2350  146.6970 C   0  0  0  0  0  3  0  0  0  0  0  0
  187.8910  177.9510  140.8720 C   0  0  0  0  0  0  0  0  0  0  0  0
  189.2120  177.7650  141.2670 C   0  0  0  0  0  0  0  0  0  0  0  0
  183.5970  178.6250  140.0380 C   0  0  1  0  0  3  0  0  0  0  0  0
  183.1880  178.6040  142.4780 C   0  0  0  0  0  2  0  0  0  0  0  0
  190.9120  177.5110  142.5950 C   0  0  0  0  0  0  0  0  0  0  0  0
  181.3220  179.3290  140.9220 C   0  0  2  0  0  3  0  0  0  0  0  0
  184.1530  178.5230  145.0890 C   0  0  0  0  0  3  0  0  0  0  0  0
  184.6420  178.5140  142.7180 N   0  0  0  0  0  0  0  0  0  0  0  0
  185.0650  178.4130  144.0190 C   0  0  0  0  0  0  0  0  0  0  0  0
  187.3510  178.0770  143.2730 C   0  0  0  0  0  0  0  0  0  0  0  0
  191.3400  177.4010  141.3160 N   0  0  0  0  0  0  0  0  0  0  0  0
  182.1540  180.2670  138.6960 C   0  0  0  0  0  2  0  0  0  0  0  0
  182.8430  179.3050  141.1740 C   0  0  2  0  0  3  0  0  0  0  0  0
  190.2990  177.5560  140.4990 N   0  0  0  0  0  0  0  0  0  0  0  0
  183.2450  179.1960  138.6550 C   0  0  0  0  0  2  0  0  0  0  0  0
  186.8480  178.1210  145.6540 C   0  0  0  0  0  3  0  0  0  0  0  0
  186.4300  178.2080  144.3140 C   0  0  0  0  0  0  0  0  0  0  0  0
  188.6730  177.8800  143.5740 N   0  0  0  0  0  0  0  0  0  0  0  0
  185.0800  178.8140  140.2780 C   0  0  0  0  0  2  0  0  0  0  0  0
  187.5570  177.8360  139.1400 Cl  0  0  0  0  0  0  0  0  0  0  0  0
  191.7780  177.3660  143.7960 C   0  0  0  0  0  1  0  0  0  0  0  0
  186.9110  178.1490  141.9090 C   0  0  0  0  0  0  0  0  0  0  0  0
  189.5630  177.7420  142.5700 C   0  0  0  0  0  0  0  0  0  0  0  0
  180.7520  178.0770  141.1800 O   0  0  0  0  0  0  0  0  0  0  0  0
  179.4580  178.3580  141.6260 C   0  0  0  0  0  2  0  0  0  0  0  0
  179.4880  178.6630  143.0830 C   0  0  0  0  0  0  0  0  0  0  0  0
  179.2160  179.9510  143.5280 O   0  0  0  0  0  0  0  0  0  0  0  0
  179.8030  177.7670  143.9070 O   0  0  0  0  0  1  0  0  0  0  0  0
  1 10  1  0  0  0  0
  2 26  2  0  0  0  0
  2 12  1  0  0  0  0
  3  4  1  0  0  0  0
  5  6  2  0  0  0  0
  5 26  1  0  0  0  0
  6 27  1  0  0  0  0
  7 19  1  6  0  0  0
  7 23  1  0  0  0  0
  7 17  1  0  0  0  0
  8 12  1  0  0  0  0
  9 25  1  0  0  0  0
 10 17  1  0  0  0  0
 10 28  1  6  0  0  0
 11  3  2  0  0  0  0
 12 13  1  0  0  0  0
 13 21  2  0  0  0  0
 13 11  1  0  0  0  0
 14 22  2  0  0  0  0
 14 21  1  0  0  0  0
 15  9  1  0  0  0  0
 16  1  1  0  0  0  0
 17  8  1  1  0  0  0
 18  6  1  0  0  0  0
 18 15  2  0  0  0  0
 19 16  1  0  0  0  0
 20  4  2  0  0  0  0
 21 20  1  0  0  0  0
 23  2  1  0  0  0  0
 24  5  1  0  0  0  0
 26 14  1  0  0  0  0
 27  9  2  0  0  0  0
 27 22  1  0  0  0  0
 28 29  1  0  0  0  0
 29 30  1  0  0  0  0
 30 31  2  0  0  0  0
 30 32  1  0  0  0  0
M  END
>  <MODEL>
5

>  <REMARK>
 VINA RESULT:      -9.2      3.519      5.523
  Name = 
  3 active torsions:
  status: ('A' for Active; 'I' for Inactive)
    1  A    between atoms: C_10  and  O_20
    2  A    between atoms: O_20  and  C_29
    3  A    between atoms: C_29  and  C_30
                            x       y       z     vdW  Elec       q    Type
                         _______ _______ _______ _____ _____    ______ ____

>  <TORSDO>
F 3

$$$$
=
 OpenBabel11122410423D

 32 37  0  0  1  0  0  0  0  0999 V2000
  190.9250  176.7620  140.1070 C   0  0  0  0  0  2  0  0  0  0  0  0
  186.1640  178.2660  141.7050 C   0  0  0  0  0  0  0  0  0  0  0  0
  186.4420  177.9710  146.5310 C   0  0  0  0  0  3  0  0  0  0  0  0
  185.0790  178.2340  146.6370 C   0  0  0  0  0  3  0  0  0  0  0  0
  183.9620  178.8980  140.6230 C   0  0  0  0  0  0  0  0  0  0  0  0
  182.6110  179.1400  140.8440 C   0  0  0  0  0  0  0  0  0  0  0  0
  188.2920  178.0220  140.3480 C   0  0  1  0  0  3  0  0  0  0  0  0
  188.3580  177.9070  142.8180 C   0  0  0  0  0  2  0  0  0  0  0  0
  180.7570  179.4280  141.9390 C   0  0  0  0  0  0  0  0  0  0  0  0
  190.3840  177.1510  141.4950 C   0  0  2  0  0  3  0  0  0  0  0  0
  187.0450  177.9200  145.2740 C   0  0  0  0  0  3  0  0  0  0  0  0
  186.8920  178.0680  142.8620 N   0  0  0  0  0  0  0  0  0  0  0  0
  186.2970  178.1320  144.0970 C   0  0  0  0  0  0  0  0  0  0  0  0
  184.1560  178.6300  143.0650 C   0  0  0  0  0  0  0  0  0  0  0  0
  180.5170  179.6210  140.6210 N   0  0  0  0  0  0  0  0  0  0  0  0
  189.8240  176.3650  139.1290 C   0  0  0  0  0  2  0  0  0  0  0  0
  188.8460  177.2480  141.5380 C   0  0  2  0  0  3  0  0  0  0  0  0
  181.6530  179.4470  139.9470 N   0  0  0  0  0  0  0  0  0  0  0  0
  188.8040  177.4970  138.9960 C   0  0  0  0  0  2  0  0  0  0  0  0
  184.3200  178.4480  145.4860 C   0  0  0  0  0  3  0  0  0  0  0  0
  184.9160  178.4000  144.2140 C   0  0  0  0  0  0  0  0  0  0  0  0
  182.8170  178.8890  143.1930 N   0  0  0  0  0  0  0  0  0  0  0  0
  186.7820  177.9070  140.3730 C   0  0  0  0  0  2  0  0  0  0  0  0
  184.5400  179.0750  138.9620 Cl  0  0  0  0  0  0  0  0  0  0  0  0
  179.7410  179.5660  143.0170 C   0  0  0  0  0  1  0  0  0  0  0  0
  184.7780  178.5980  141.7720 C   0  0  0  0  0  0  0  0  0  0  0  0
  182.0830  179.1220  142.0860 C   0  0  0  0  0  0  0  0  0  0  0  0
  190.9740  178.3540  141.8940 O   0  0  0  0  0  0  0  0  0  0  0  0
  191.9430  177.9850  142.8310 C   0  0  0  0  0  2  0  0  0  0  0  0
  191.5880  178.5460  144.1630 C   0  0  0  0  0  0  0  0  0  0  0  0
  191.6070  177.7290  145.2870 O   0  0  0  0  0  1  0  0  0  0  0  0
  191.2270  179.7460  144.2650 O   0  0  0  0  0  0  0  0  0  0  0  0
  1 10  1  0  0  0  0
  2 26  2  0  0  0  0
  2 12  1  0  0  0  0
  3  4  1  0  0  0  0
  5  6  2  0  0  0  0
  5 26  1  0  0  0  0
  6 27  1  0  0  0  0
  7 19  1  6  0  0  0
  7 23  1  0  0  0  0
  7 17  1  0  0  0  0
  8 12  1  0  0  0  0
  9 27  2  0  0  0  0
  9 25  1  0  0  0  0
 10 17  1  0  0  0  0
 10 28  1  6  0  0  0
 11  3  2  0  0  0  0
 12 13  1  0  0  0  0
 13 21  2  0  0  0  0
 13 11  1  0  0  0  0
 14 22  2  0  0  0  0
 14 21  1  0  0  0  0
 15  9  1  0  0  0  0
 16  1  1  0  0  0  0
 17  8  1  1  0  0  0
 18 15  2  0  0  0  0
 18  6  1  0  0  0  0
 19 16  1  0  0  0  0
 20  4  2  0  0  0  0
 21 20  1  0  0  0  0
 23  2  1  0  0  0  0
 24  5  1  0  0  0  0
 26 14  1  0  0  0  0
 27 22  1  0  0  0  0
 28 29  1  0  0  0  0
 29 30  1  0  0  0  0
 30 32  2  0  0  0  0
 30 31  1  0  0  0  0
M  END
>  <MODEL>
6

>  <REMARK>
 VINA RESULT:      -8.8      3.587      6.346
  Name = 
  3 active torsions:
  status: ('A' for Active; 'I' for Inactive)
    1  A    between atoms: C_10  and  O_20
    2  A    between atoms: O_20  and  C_29
    3  A    between atoms: C_29  and  C_30
                            x       y       z     vdW  Elec       q    Type
                         _______ _______ _______ _____ _____    ______ ____

>  <TORSDO>
F 3

$$$$
=
 OpenBabel11122410423D

 32 37  0  0  1  0  0  0  0  0999 V2000
  181.6010  179.4830  139.2530 C   0  0  0  0  0  2  0  0  0  0  0  0
  185.9170  178.2810  141.9760 C   0  0  0  0  0  0  0  0  0  0  0  0
  184.4420  178.4800  146.5840 C   0  0  0  0  0  3  0  0  0  0  0  0
  185.7520  178.3090  147.0230 C   0  0  0  0  0  3  0  0  0  0  0  0
  188.3550  177.8170  141.4700 C   0  0  0  0  0  0  0  0  0  0  0  0
  189.6250  177.6640  142.0170 C   0  0  0  0  0  0  0  0  0  0  0  0
  184.1750  178.4000  140.1360 C   0  0  1  0  0  3  0  0  0  0  0  0
  183.4970  178.4720  142.5140 C   0  0  0  0  0  2  0  0  0  0  0  0
  191.1680  177.4860  143.5360 C   0  0  0  0  0  0  0  0  0  0  0  0
  181.8110  179.1090  140.7310 C   0  0  2  0  0  3  0  0  0  0  0  0
  184.1640  178.5090  145.2170 C   0  0  0  0  0  3  0  0  0  0  0  0
  184.9150  178.4110  142.9180 N   0  0  0  0  0  0  0  0  0  0  0  0
  185.1910  178.3680  144.2610 C   0  0  0  0  0  0  0  0  0  0  0  0
  187.5490  178.0320  143.7890 C   0  0  0  0  0  0  0  0  0  0  0  0
  191.7380  177.3300  142.3180 N   0  0  0  0  0  0  0  0  0  0  0  0
  182.8780  179.9680  138.5750 C   0  0  0  0  0  2  0  0  0  0  0  0
  183.2940  179.1160  141.1520 C   0  0  2  0  0  3  0  0  0  0  0  0
  190.7930  177.4380  141.3850 N   0  0  0  0  0  0  0  0  0  0  0  0
  183.9760  178.9110  138.6990 C   0  0  0  0  0  2  0  0  0  0  0  0
  186.7830  178.1650  146.0950 C   0  0  0  0  0  3  0  0  0  0  0  0
  186.5160  178.1930  144.7150 C   0  0  0  0  0  0  0  0  0  0  0  0
  188.8310  177.8640  144.2430 N   0  0  0  0  0  0  0  0  0  0  0  0
  185.6210  178.6180  140.5320 C   0  0  0  0  0  2  0  0  0  0  0  0
  188.2180  177.6280  139.7180 Cl  0  0  0  0  0  0  0  0  0  0  0  0
  191.8960  177.4010  144.8310 C   0  0  0  0  0  1  0  0  0  0  0  0
  187.2640  178.0430  142.3830 C   0  0  0  0  0  0  0  0  0  0  0  0
  189.8280  177.6980  143.3510 C   0  0  0  0  0  0  0  0  0  0  0  0
  181.2260  177.8620  140.9750 O   0  0  0  0  0  0  0  0  0  0  0  0
  180.6810  177.4750  139.7480 C   0  0  0  0  0  2  0  0  0  0  0  0
  180.9700  176.0350  139.5050 C   0  0  0  0  0  0  0  0  0  0  0  0
  179.9360  175.1620  139.1910 O   0  0  0  0  0  0  0  0  0  0  0  0
  182.1440  175.6000  139.6290 O   0  0  0  0  0  1  0  0  0  0  0  0
  1 10  1  0  0  0  0
  2 26  2  0  0  0  0
  2 12  1  0  0  0  0
  3  4  1  0  0  0  0
  5  6  2  0  0  0  0
  5 26  1  0  0  0  0
  6 27  1  0  0  0  0
  7 19  1  6  0  0  0
  7 23  1  0  0  0  0
  7 17  1  0  0  0  0
  8 12  1  0  0  0  0
  9 25  1  0  0  0  0
 10 28  1  6  0  0  0
 10 17  1  0  0  0  0
 11  3  2  0  0  0  0
 12 13  1  0  0  0  0
 13 21  2  0  0  0  0
 13 11  1  0  0  0  0
 14 22  2  0  0  0  0
 14 21  1  0  0  0  0
 15  9  1  0  0  0  0
 16 19  1  0  0  0  0
 16  1  1  0  0  0  0
 17  8  1  1  0  0  0
 18  6  1  0  0  0  0
 18 15  2  0  0  0  0
 20  4  2  0  0  0  0
 21 20  1  0  0  0  0
 23  2  1  0  0  0  0
 24  5  1  0  0  0  0
 26 14  1  0  0  0  0
 27  9  2  0  0  0  0
 27 22  1  0  0  0  0
 29 28  1  0  0  0  0
 30 32  1  0  0  0  0
 30 29  1  0  0  0  0
 31 30  2  0  0  0  0
M  END
>  <MODEL>
7

>  <REMARK>
 VINA RESULT:      -8.8      2.932      4.356
  Name = 
  3 active torsions:
  status: ('A' for Active; 'I' for Inactive)
    1  A    between atoms: C_10  and  O_20
    2  A    between atoms: O_20  and  C_29
    3  A    between atoms: C_29  and  C_30
                            x       y       z     vdW  Elec       q    Type
                         _______ _______ _______ _____ _____    ______ ____

>  <TORSDO>
F 3

$$$$
=
 OpenBabel11122410423D

 32 37  0  0  1  0  0  0  0  0999 V2000
  191.7230  175.9670  145.7140 C   0  0  0  0  0  2  0  0  0  0  0  0
  187.7560  177.8480  142.8490 C   0  0  0  0  0  0  0  0  0  0  0  0
  184.2680  178.6270  146.1160 C   0  0  0  0  0  3  0  0  0  0  0  0
  183.3650  178.9250  145.0990 C   0  0  0  0  0  3  0  0  0  0  0  0
  187.2750  178.2530  140.3950 C   0  0  0  0  0  0  0  0  0  0  0  0
  186.2900  178.5550  139.4610 C   0  0  0  0  0  0  0  0  0  0  0  0
  190.0880  177.2830  143.6720 C   0  0  1  0  0  3  0  0  0  0  0  0
  188.2600  177.7180  145.2800 C   0  0  0  0  0  2  0  0  0  0  0  0
  184.3380  179.1020  138.6800 C   0  0  0  0  0  0  0  0  0  0  0  0
  190.4090  176.6610  146.1130 C   0  0  2  0  0  3  0  0  0  0  0  0
  185.5850  178.2920  145.8020 C   0  0  0  0  0  3  0  0  0  0  0  0
  187.3190  177.9030  144.1580 N   0  0  0  0  0  0  0  0  0  0  0  0
  186.0270  178.2460  144.4630 C   0  0  0  0  0  0  0  0  0  0  0  0
  185.5220  178.5310  142.1050 C   0  0  0  0  0  0  0  0  0  0  0  0
  185.2060  179.0010  137.6460 N   0  0  0  0  0  0  0  0  0  0  0  0
  191.6830  175.3780  144.3080 C   0  0  0  0  0  2  0  0  0  0  0  0
  189.4120  176.7850  144.9430 C   0  0  2  0  0  3  0  0  0  0  0  0
  186.4040  178.6670  138.1230 N   0  0  0  0  0  0  0  0  0  0  0  0
  191.3330  176.4640  143.2910 C   0  0  0  0  0  2  0  0  0  0  0  0
  183.7810  178.8880  143.7680 C   0  0  0  0  0  3  0  0  0  0  0  0
  185.1060  178.5510  143.4380 C   0  0  0  0  0  0  0  0  0  0  0  0
  184.6170  178.8280  141.1200 N   0  0  0  0  0  0  0  0  0  0  0  0
  189.0850  177.1950  142.5400 C   0  0  0  0  0  2  0  0  0  0  0  0
  188.9180  178.0490  139.7790 Cl  0  0  0  0  0  0  0  0  0  0  0  0
  182.9060  179.4880  138.5530 C   0  0  0  0  0  1  0  0  0  0  0  0
  186.8810  178.2040  141.7800 C   0  0  0  0  0  0  0  0  0  0  0  0
  185.0200  178.8190  139.8330 C   0  0  0  0  0  0  0  0  0  0  0  0
  190.7010  177.9160  146.6580 O   0  0  0  0  0  0  0  0  0  0  0  0
  190.5210  177.7600  148.0350 C   0  0  0  0  0  2  0  0  0  0  0  0
  189.0740  177.8700  148.3640 C   0  0  0  0  0  0  0  0  0  0  0  0
  188.3040  176.7220  148.5070 O   0  0  0  0  0  1  0  0  0  0  0  0
  188.5370  179.0030  148.4680 O   0  0  0  0  0  0  0  0  0  0  0  0
  1 10  1  0  0  0  0
  2 12  1  0  0  0  0
  4  3  2  0  0  0  0
  5 26  1  0  0  0  0
  6 27  1  0  0  0  0
  6  5  2  0  0  0  0
  7 23  1  6  0  0  0
  7 17  1  0  0  0  0
  9 27  2  0  0  0  0
 10 28  1  6  0  0  0
 11  3  1  0  0  0  0
 12 13  1  0  0  0  0
 12  8  1  0  0  0  0
 13 11  2  0  0  0  0
 14 21  1  0  0  0  0
 15 18  2  0  0  0  0
 15  9  1  0  0  0  0
 16  1  1  0  0  0  0
 17  8  1  1  0  0  0
 17 10  1  0  0  0  0
 18  6  1  0  0  0  0
 19  7  1  0  0  0  0
 19 16  1  0  0  0  0
 20  4  1  0  0  0  0
 21 20  2  0  0  0  0
 21 13  1  0  0  0  0
 22 14  2  0  0  0  0
 23  2  1  0  0  0  0
 24  5  1  0  0  0  0
 25  9  1  0  0  0  0
 26 14  1  0  0  0  0
 26  2  2  0  0  0  0
 27 22  1  0  0  0  0
 28 29  1  0  0  0  0
 29 30  1  0  0  0  0
 30 32  2  0  0  0  0
 30 31  1  0  0  0  0
M  END
>  <MODEL>
8

>  <REMARK>
 VINA RESULT:      -8.7      3.836      7.281
  Name = 
  3 active torsions:
  status: ('A' for Active; 'I' for Inactive)
    1  A    between atoms: C_10  and  O_20
    2  A    between atoms: O_20  and  C_29
    3  A    between atoms: C_29  and  C_30
                            x       y       z     vdW  Elec       q    Type
                         _______ _______ _______ _____ _____    ______ ____

>  <TORSDO>
F 3

$$$$
=
 OpenBabel11122410423D

 32 37  0  0  1  0  0  0  0  0999 V2000
  190.3120  176.0830  136.6640 C   0  0  0  0  0  2  0  0  0  0  0  0
  188.3660  177.4750  141.3280 C   0  0  0  0  0  0  0  0  0  0  0  0
  191.8040  176.0960  144.4480 C   0  0  0  0  0  3  0  0  0  0  0  0
  190.9730  176.4100  145.5200 C   0  0  0  0  0  3  0  0  0  0  0  0
  186.2080  178.4630  142.2130 C   0  0  0  0  0  0  0  0  0  0  0  0
  185.4590  178.7300  143.3540 C   0  0  0  0  0  0  0  0  0  0  0  0
  188.8820  177.4130  138.8460 C   0  0  1  0  0  3  0  0  0  0  0  0
  190.5950  176.7470  140.5010 C   0  0  0  0  0  2  0  0  0  0  0  0
  184.9650  178.8760  145.4650 C   0  0  0  0  0  0  0  0  0  0  0  0
  190.9600  176.1850  138.0560 C   0  0  2  0  0  3  0  0  0  0  0  0
  191.3570  176.2910  143.1410 C   0  0  0  0  0  3  0  0  0  0  0  0
  189.6290  176.9810  141.5920 N   0  0  0  0  0  0  0  0  0  0  0  0
  190.0690  176.8040  142.8790 C   0  0  0  0  0  0  0  0  0  0  0  0
  187.9610  177.6470  143.7400 C   0  0  0  0  0  0  0  0  0  0  0  0
  183.9340  179.3730  144.7420 N   0  0  0  0  0  0  0  0  0  0  0  0
  188.7920  175.9810  136.7200 C   0  0  0  0  0  2  0  0  0  0  0  0
  189.9300  176.3620  139.1900 C   0  0  2  0  0  3  0  0  0  0  0  0
  184.2350  179.2850  143.4470 N   0  0  0  0  0  0  0  0  0  0  0  0
  188.2120  177.1720  137.4830 C   0  0  0  0  0  2  0  0  0  0  0  0
  189.6960  176.9200  145.2840 C   0  0  0  0  0  3  0  0  0  0  0  0
  189.2340  177.1210  143.9720 C   0  0  0  0  0  0  0  0  0  0  0  0
  187.1600  177.9490  144.8100 N   0  0  0  0  0  0  0  0  0  0  0  0
  187.8160  177.3850  139.9220 C   0  0  0  0  0  2  0  0  0  0  0  0
  185.5110  178.9700  140.6700 Cl  0  0  0  0  0  0  0  0  0  0  0  0
  185.0170  178.8310  146.9510 C   0  0  0  0  0  1  0  0  0  0  0  0
  187.5060  177.8660  142.3970 C   0  0  0  0  0  0  0  0  0  0  0  0
  185.9350  178.4670  144.5890 C   0  0  0  0  0  0  0  0  0  0  0  0
  191.8880  177.2320  138.0530 O   0  0  0  0  0  0  0  0  0  0  0  0
  193.0580  176.6730  137.5320 C   0  0  0  0  0  2  0  0  0  0  0  0
  193.9440  176.2410  138.6480 C   0  0  0  0  0  0  0  0  0  0  0  0
  193.9890  176.9780  139.8240 O   0  0  0  0  0  1  0  0  0  0  0  0
  194.6860  175.2350  138.5080 O   0  0  0  0  0  0  0  0  0  0  0  0
  1 16  1  0  0  0  0
  1 10  1  0  0  0  0
  2 12  1  0  0  0  0
  2 26  2  0  0  0  0
  3  4  1  0  0  0  0
  5 26  1  0  0  0  0
  5  6  2  0  0  0  0
  6 18  1  0  0  0  0
  6 27  1  0  0  0  0
  7 19  1  6  0  0  0
  7 17  1  0  0  0  0
  7 23  1  0  0  0  0
  8 12  1  0  0  0  0
  9 25  1  0  0  0  0
 10 28  1  6  0  0  0
 10 17  1  0  0  0  0
 11  3  2  0  0  0  0
 12 13  1  0  0  0  0
 13 11  1  0  0  0  0
 13 21  2  0  0  0  0
 14 21  1  0  0  0  0
 14 22  2  0  0  0  0
 15  9  1  0  0  0  0
 16 19  1  0  0  0  0
 17  8  1  1  0  0  0
 18 15  2  0  0  0  0
 20  4  2  0  0  0  0
 21 20  1  0  0  0  0
 23  2  1  0  0  0  0
 24  5  1  0  0  0  0
 26 14  1  0  0  0  0
 27 22  1  0  0  0  0
 27  9  2  0  0  0  0
 29 28  1  0  0  0  0
 29 30  1  0  0  0  0
 30 31  1  0  0  0  0
 32 30  2  0  0  0  0
M  END
>  <MODEL>
9

>  <REMARK>
 VINA RESULT:      -8.5      2.961      5.216
  Name = 
  3 active torsions:
  status: ('A' for Active; 'I' for Inactive)
    1  A    between atoms: C_10  and  O_20
    2  A    between atoms: O_20  and  C_29
    3  A    between atoms: C_29  and  C_30
                            x       y       z     vdW  Elec       q    Type
                         _______ _______ _______ _____ _____    ______ ____

>  <TORSDO>
F 3

$$$$
