=
 OpenBabel11122411193D

 31 35  0  0  1  0  0  0  0  0999 V2000
  187.3560  178.4290  136.8330 C   0  0  2  0  0  3  0  0  0  0  0  0
  189.8940  177.9300  139.7140 C   0  0  2  0  0  3  0  0  0  0  0  0
  189.7360  177.3960  141.1230 C   0  0  0  0  0  0  0  0  0  0  0  0
  188.3660  176.9580  143.0820 C   0  0  0  0  0  0  0  0  0  0  0  0
  188.6530  177.6810  138.8420 C   0  0  1  0  0  3  0  0  0  0  0  0
  187.3360  176.9990  136.3050 C   0  0  0  0  0  2  0  0  0  0  0  0
  188.4920  177.4260  141.7710 C   0  0  0  0  0  3  0  0  0  0  0  0
  191.0590  175.9590  138.5850 C   0  0  2  0  0  3  0  0  0  0  0  0
  187.3380  179.3210  135.7630 O   0  0  0  0  0  1  0  0  0  0  0  0
  192.1270  176.9320  141.2190 O   0  0  0  0  0  0  0  0  0  0  0  0
  187.0410  176.9820  143.7530 C   0  0  0  0  0  1  0  0  0  0  0  0
  189.8580  175.7880  137.6590 C   0  0  0  0  0  2  0  0  0  0  0  0
  191.1850  177.4240  139.0300 C   0  0  2  0  0  3  0  0  0  0  0  0
  188.6100  178.6620  137.6690 C   0  0  0  0  0  2  0  0  0  0  0  0
  189.4840  176.4680  143.7600 C   0  0  0  0  0  3  0  0  0  0  0  0
  188.5740  176.2180  138.3670 C   0  0  2  0  0  3  0  0  0  0  0  0
  187.3560  176.0040  137.4650 C   0  0  0  0  0  2  0  0  0  0  0  0
  192.3660  177.6070  139.9850 C   0  0  0  0  0  2  0  0  0  0  0  0
  190.8670  176.9340  141.8260 C   0  0  0  0  0  0  0  0  0  0  0  0
  190.7330  176.4570  143.1340 C   0  0  0  0  0  3  0  0  0  0  0  0
  191.4310  173.4480  137.2820 O   0  0  0  0  0  0  0  0  0  0  0  0
  192.3860  174.2730  137.2470 C   0  0  0  0  0  0  0  0  0  0  0  0
  192.2680  175.5430  137.8880 N   0  0  0  0  0  2  0  0  0  0  0  0
  195.9920  174.4360  138.2220 C   0  0  0  0  0  0  0  0  0  0  0  0
  194.4150  172.7970  137.2190 C   0  0  0  0  0  2  0  0  0  0  0  0
  194.2540  175.9760  135.4340 O   0  0  0  0  0  0  0  0  0  0  0  0
  196.9760  174.6930  139.0160 N   0  0  0  0  0  2  0  0  0  0  0  0
  195.1040  173.2640  138.5020 C   0  0  0  0  0  2  0  0  0  0  0  0
  194.5250  175.1440  136.3380 C   0  0  0  0  0  0  0  0  0  0  0  0
  193.6540  173.9350  136.5260 C   0  0  2  0  0  3  0  0  0  0  0  0
  195.6450  175.3730  137.1990 N   0  0  0  0  0  2  0  0  0  0  0  0
  1  9  1  6  0  0  0
  1 14  1  0  0  0  0
  2  3  1  1  0  0  0
  3  7  2  0  0  0  0
  3 19  1  0  0  0  0
  4 11  1  0  0  0  0
  4 15  2  0  0  0  0
  5 14  1  6  0  0  0
  5  2  1  0  0  0  0
  6  1  1  0  0  0  0
  6 17  1  0  0  0  0
  7  4  1  0  0  0  0
  8 23  1  6  0  0  0
  8 13  1  0  0  0  0
 10 19  1  0  0  0  0
 12 16  1  0  0  0  0
 12  8  1  0  0  0  0
 13  2  1  0  0  0  0
 13 18  1  1  0  0  0
 16 17  1  6  0  0  0
 16  5  1  0  0  0  0
 18 10  1  0  0  0  0
 19 20  2  0  0  0  0
 20 15  1  0  0  0  0
 22 21  2  0  0  0  0
 22 23  1  0  0  0  0
 24 28  1  0  0  0  0
 24 27  2  0  0  0  0
 25 28  1  0  0  0  0
 26 29  2  0  0  0  0
 29 30  1  0  0  0  0
 29 31  1  0  0  0  0
 30 25  1  0  0  0  0
 30 22  1  1  0  0  0
 31 24  1  0  0  0  0
M  END
>  <MODEL>
1

>  <REMARK>
 VINA RESULT:      -7.5      0.000      0.000
  Name = 
  2 active torsions:
  status: ('A' for Active; 'I' for Inactive)
    1  A    between atoms: C_5  and  C_30
    2  A    between atoms: C_10  and  N_16
                            x       y       z     vdW  Elec       q    Type
                         _______ _______ _______ _____ _____    ______ ____

>  <TORSDO>
F 2

$$$$
=
 OpenBabel11122411193D

 31 35  0  0  1  0  0  0  0  0999 V2000
  191.5420  175.9650  143.8970 C   0  0  2  0  0  3  0  0  0  0  0  0
  187.8010  176.9200  144.1790 C   0  0  2  0  0  3  0  0  0  0  0  0
  187.0350  177.7270  145.2080 C   0  0  0  0  0  0  0  0  0  0  0  0
  186.7900  178.5960  147.4640 C   0  0  0  0  0  0  0  0  0  0  0  0
  189.3240  177.0410  144.3420 C   0  0  1  0  0  3  0  0  0  0  0  0
  192.0560  177.2630  143.2830 C   0  0  0  0  0  2  0  0  0  0  0  0
  187.5200  177.8740  146.5160 C   0  0  0  0  0  3  0  0  0  0  0  0
  187.8950  178.5820  142.2440 C   0  0  2  0  0  3  0  0  0  0  0  0
  192.1740  174.8810  143.2910 O   0  0  0  0  0  1  0  0  0  0  0  0
  185.2520  178.1060  143.5900 O   0  0  0  0  0  0  0  0  0  0  0  0
  187.3210  178.7580  148.8420 C   0  0  0  0  0  1  0  0  0  0  0  0
  189.4160  178.6150  142.3550 C   0  0  0  0  0  2  0  0  0  0  0  0
  187.3530  177.2290  142.7310 C   0  0  2  0  0  3  0  0  0  0  0  0
  190.0340  175.8510  143.6950 C   0  0  0  0  0  2  0  0  0  0  0  0
  185.5620  179.1650  147.1160 C   0  0  0  0  0  3  0  0  0  0  0  0
  189.8500  178.3850  143.8010 C   0  0  2  0  0  3  0  0  0  0  0  0
  191.3720  178.4650  143.9340 C   0  0  0  0  0  2  0  0  0  0  0  0
  185.8260  177.1910  142.6560 C   0  0  0  0  0  2  0  0  0  0  0  0
  185.7790  178.2730  144.8740 C   0  0  0  0  0  0  0  0  0  0  0  0
  185.0570  179.0030  145.8230 C   0  0  0  0  0  3  0  0  0  0  0  0
  188.9030  177.1380  139.9990 O   0  0  0  0  0  0  0  0  0  0  0  0
  188.0450  178.0380  139.7790 C   0  0  0  0  0  0  0  0  0  0  0  0
  187.5070  178.8040  140.8570 N   0  0  0  0  0  2  0  0  0  0  0  0
  188.9230  176.5630  136.4570 C   0  0  0  0  0  0  0  0  0  0  0  0
  186.8790  177.0840  137.7720 C   0  0  0  0  0  2  0  0  0  0  0  0
  189.0570  180.0060  137.5930 O   0  0  0  0  0  0  0  0  0  0  0  0
  189.5670  175.7750  135.6630 N   0  0  0  0  0  2  0  0  0  0  0  0
  187.8810  175.9990  137.3710 C   0  0  0  0  0  2  0  0  0  0  0  0
  188.6820  178.8090  137.5070 C   0  0  0  0  0  0  0  0  0  0  0  0
  187.5700  178.3090  138.3850 C   0  0  2  0  0  3  0  0  0  0  0  0
  189.3390  177.9240  136.5940 N   0  0  0  0  0  2  0  0  0  0  0  0
  1  9  1  6  0  0  0
  2  5  1  0  0  0  0
  2  3  1  1  0  0  0
  3  7  1  0  0  0  0
  4 11  1  0  0  0  0
  5 14  1  6  0  0  0
  6  1  1  0  0  0  0
  6 17  1  0  0  0  0
  7  4  2  0  0  0  0
  8 23  1  6  0  0  0
  8 12  1  0  0  0  0
  8 13  1  0  0  0  0
 10 19  1  0  0  0  0
 13 18  1  1  0  0  0
 13  2  1  0  0  0  0
 14  1  1  0  0  0  0
 15  4  1  0  0  0  0
 16 12  1  6  0  0  0
 16 17  1  0  0  0  0
 16  5  1  0  0  0  0
 18 10  1  0  0  0  0
 19  3  2  0  0  0  0
 19 20  1  0  0  0  0
 20 15  2  0  0  0  0
 22 21  2  0  0  0  0
 22 23  1  0  0  0  0
 24 31  1  0  0  0  0
 24 28  1  0  0  0  0
 25 30  1  0  0  0  0
 27 24  2  0  0  0  0
 28 25  1  0  0  0  0
 29 26  2  0  0  0  0
 29 30  1  0  0  0  0
 30 22  1  1  0  0  0
 31 29  1  0  0  0  0
M  END
>  <MODEL>
2

>  <REMARK>
 VINA RESULT:      -7.4      3.977      6.796
  Name = 
  2 active torsions:
  status: ('A' for Active; 'I' for Inactive)
    1  A    between atoms: C_5  and  C_30
    2  A    between atoms: C_10  and  N_16
                            x       y       z     vdW  Elec       q    Type
                         _______ _______ _______ _____ _____    ______ ____

>  <TORSDO>
F 2

$$$$
=
 OpenBabel11122411193D

 31 35  0  0  1  0  0  0  0  0999 V2000
  193.6670  176.0060  136.1810 C   0  0  2  0  0  3  0  0  0  0  0  0
  189.8620  176.5790  136.6140 C   0  0  2  0  0  3  0  0  0  0  0  0
  188.6730  175.6550  136.4460 C   0  0  0  0  0  0  0  0  0  0  0  0
  187.6380  173.6910  135.4580 C   0  0  0  0  0  0  0  0  0  0  0  0
  191.2030  175.8280  136.6010 C   0  0  1  0  0  3  0  0  0  0  0  0
  193.9510  175.3700  137.5370 C   0  0  0  0  0  2  0  0  0  0  0  0
  188.7520  174.5180  135.6280 C   0  0  0  0  0  3  0  0  0  0  0  0
  189.9940  176.7290  139.1590 C   0  0  2  0  0  3  0  0  0  0  0  0
  194.7000  176.8820  135.8520 O   0  0  0  0  0  1  0  0  0  0  0  0
  187.3250  177.1320  137.8400 O   0  0  0  0  0  0  0  0  0  0  0  0
  187.7380  172.4810  134.6020 C   0  0  0  0  0  1  0  0  0  0  0  0
  191.3700  176.0710  139.1200 C   0  0  0  0  0  2  0  0  0  0  0  0
  189.7310  177.4950  137.8530 C   0  0  2  0  0  3  0  0  0  0  0  0
  192.3480  176.7710  136.2270 C   0  0  0  0  0  2  0  0  0  0  0  0
  186.4330  174.0010  136.0930 C   0  0  0  0  0  3  0  0  0  0  0  0
  191.4680  175.1090  137.9370 C   0  0  2  0  0  3  0  0  0  0  0  0
  192.8270  174.4060  137.9170 C   0  0  0  0  0  2  0  0  0  0  0  0
  188.3410  178.1340  137.8620 C   0  0  0  0  0  2  0  0  0  0  0  0
  187.4430  175.9820  137.0540 C   0  0  0  0  0  0  0  0  0  0  0  0
  186.3350  175.1460  136.8880 C   0  0  0  0  0  3  0  0  0  0  0  0
  189.6540  175.9480  141.8820 O   0  0  0  0  0  0  0  0  0  0  0  0
  189.7630  177.1820  141.6360 C   0  0  0  0  0  0  0  0  0  0  0  0
  189.9250  177.6400  140.2930 N   0  0  0  0  0  2  0  0  0  0  0  0
  190.9850  177.1000  145.1690 C   0  0  0  0  0  0  0  0  0  0  0  0
  191.1460  178.5890  143.1850 C   0  0  0  0  0  2  0  0  0  0  0  0
  187.6620  177.7430  143.8600 O   0  0  0  0  0  0  0  0  0  0  0  0
  191.5340  176.5560  146.2020 N   0  0  0  0  0  2  0  0  0  0  0  0
  191.8340  177.4930  144.0010 C   0  0  0  0  0  2  0  0  0  0  0  0
  188.9180  177.6950  143.9130 C   0  0  0  0  0  0  0  0  0  0  0  0
  189.7330  178.1830  142.7490 C   0  0  2  0  0  3  0  0  0  0  0  0
  189.5590  177.1490  145.0690 N   0  0  0  0  0  2  0  0  0  0  0  0
  1  9  1  1  0  0  0
  1 14  1  0  0  0  0
  1  6  1  0  0  0  0
  2  3  1  1  0  0  0
  2 13  1  0  0  0  0
  3 19  1  0  0  0  0
  4  7  1  0  0  0  0
  4 15  2  0  0  0  0
  5 14  1  1  0  0  0
  5  2  1  0  0  0  0
  5 16  1  0  0  0  0
  6 17  1  0  0  0  0
  7  3  2  0  0  0  0
  8 23  1  1  0  0  0
 10 18  1  0  0  0  0
 11  4  1  0  0  0  0
 12  8  1  0  0  0  0
 13 18  1  1  0  0  0
 13  8  1  0  0  0  0
 15 20  1  0  0  0  0
 16 17  1  6  0  0  0
 16 12  1  0  0  0  0
 19 10  1  0  0  0  0
 20 19  2  0  0  0  0
 22 21  2  0  0  0  0
 23 22  1  0  0  0  0
 24 27  2  0  0  0  0
 25 28  1  0  0  0  0
 26 29  2  0  0  0  0
 28 24  1  0  0  0  0
 29 31  1  0  0  0  0
 30 22  1  6  0  0  0
 30 25  1  0  0  0  0
 30 29  1  0  0  0  0
 31 24  1  0  0  0  0
M  END
>  <MODEL>
3

>  <REMARK>
 VINA RESULT:      -7.3      3.014      6.947
  Name = 
  2 active torsions:
  status: ('A' for Active; 'I' for Inactive)
    1  A    between atoms: C_5  and  C_30
    2  A    between atoms: C_10  and  N_16
                            x       y       z     vdW  Elec       q    Type
                         _______ _______ _______ _____ _____    ______ ____

>  <TORSDO>
F 2

$$$$
=
 OpenBabel11122411193D

 31 35  0  0  1  0  0  0  0  0999 V2000
  191.1980  176.0880  144.2600 C   0  0  2  0  0  3  0  0  0  0  0  0
  187.6280  177.0950  143.1540 C   0  0  2  0  0  3  0  0  0  0  0  0
  186.5460  177.9060  143.8380 C   0  0  0  0  0  0  0  0  0  0  0  0
  185.4950  178.7610  145.8550 C   0  0  0  0  0  0  0  0  0  0  0  0
  188.9850  177.1930  143.8690 C   0  0  1  0  0  3  0  0  0  0  0  0
  191.9170  177.3820  143.8950 C   0  0  0  0  0  2  0  0  0  0  0  0
  186.5150  178.0360  145.2350 C   0  0  0  0  0  3  0  0  0  0  0  0
  188.4470  178.7700  141.4110 C   0  0  2  0  0  3  0  0  0  0  0  0
  191.9980  174.9990  143.9170 O   0  0  0  0  0  1  0  0  0  0  0  0
  185.4890  178.3220  141.6810 O   0  0  0  0  0  0  0  0  0  0  0  0
  185.4810  178.9050  147.3340 C   0  0  0  0  0  1  0  0  0  0  0  0
  189.8210  178.7790  142.0760 C   0  0  0  0  0  2  0  0  0  0  0  0
  187.7490  177.4220  141.6470 C   0  0  2  0  0  3  0  0  0  0  0  0
  189.8700  175.9970  143.5150 C   0  0  0  0  0  2  0  0  0  0  0  0
  184.4890  179.3510  145.0860 C   0  0  0  0  0  3  0  0  0  0  0  0
  189.6880  178.5320  143.5770 C   0  0  2  0  0  3  0  0  0  0  0  0
  191.0550  178.5890  144.2630 C   0  0  0  0  0  2  0  0  0  0  0  0
  186.3570  177.4060  141.0140 C   0  0  0  0  0  2  0  0  0  0  0  0
  185.5070  178.4720  143.0720 C   0  0  0  0  0  0  0  0  0  0  0  0
  184.4940  179.2050  143.6970 C   0  0  0  0  0  3  0  0  0  0  0  0
  189.7310  177.0040  139.5750 O   0  0  0  0  0  0  0  0  0  0  0  0
  189.2480  178.0760  139.1150 C   0  0  0  0  0  0  0  0  0  0  0  0
  188.6010  179.0080  139.9820 N   0  0  0  0  0  2  0  0  0  0  0  0
  187.4250  176.7700  136.1220 C   0  0  0  0  0  0  0  0  0  0  0  0
  188.0270  178.9690  137.1140 C   0  0  0  0  0  2  0  0  0  0  0  0
  190.9800  176.8440  136.8430 O   0  0  0  0  0  0  0  0  0  0  0  0
  186.5730  176.0190  135.5110 N   0  0  0  0  0  2  0  0  0  0  0  0
  186.9380  177.9050  136.9680 C   0  0  0  0  0  2  0  0  0  0  0  0
  189.7690  177.1820  136.8580 C   0  0  0  0  0  0  0  0  0  0  0  0
  189.3380  178.3820  137.6520 C   0  0  2  0  0  3  0  0  0  0  0  0
  188.8070  176.4010  136.1430 N   0  0  0  0  0  2  0  0  0  0  0  0
  1  9  1  6  0  0  0
  2  3  1  1  0  0  0
  2  5  1  0  0  0  0
  3  7  1  0  0  0  0
  4 11  1  0  0  0  0
  5 14  1  6  0  0  0
  6  1  1  0  0  0  0
  6 17  1  0  0  0  0
  7  4  2  0  0  0  0
  8 23  1  6  0  0  0
  8 13  1  0  0  0  0
  8 12  1  0  0  0  0
 10 19  1  0  0  0  0
 13 18  1  1  0  0  0
 13  2  1  0  0  0  0
 14  1  1  0  0  0  0
 15  4  1  0  0  0  0
 16 12  1  6  0  0  0
 16  5  1  0  0  0  0
 16 17  1  0  0  0  0
 18 10  1  0  0  0  0
 19 20  1  0  0  0  0
 19  3  2  0  0  0  0
 20 15  2  0  0  0  0
 22 21  2  0  0  0  0
 22 23  1  0  0  0  0
 24 31  1  0  0  0  0
 24 28  1  0  0  0  0
 25 30  1  0  0  0  0
 26 29  2  0  0  0  0
 27 24  2  0  0  0  0
 28 25  1  0  0  0  0
 29 30  1  0  0  0  0
 30 22  1  1  0  0  0
 31 29  1  0  0  0  0
M  END
>  <MODEL>
4

>  <REMARK>
 VINA RESULT:      -7.3      3.787      6.648
  Name = 
  2 active torsions:
  status: ('A' for Active; 'I' for Inactive)
    1  A    between atoms: C_5  and  C_30
    2  A    between atoms: C_10  and  N_16
                            x       y       z     vdW  Elec       q    Type
                         _______ _______ _______ _____ _____    ______ ____

>  <TORSDO>
F 2

$$$$
=
 OpenBabel11122411193D

 31 35  0  0  1  0  0  0  0  0999 V2000
  191.4250  175.9630  144.0020 C   0  0  2  0  0  3  0  0  0  0  0  0
  187.7150  177.0600  143.8620 C   0  0  2  0  0  3  0  0  0  0  0  0
  186.8650  177.8830  144.8090 C   0  0  0  0  0  0  0  0  0  0  0  0
  186.3890  178.7310  147.0360 C   0  0  0  0  0  0  0  0  0  0  0  0
  189.2120  177.1190  144.2040 C   0  0  1  0  0  3  0  0  0  0  0  0
  192.0560  177.2470  143.4750 C   0  0  0  0  0  2  0  0  0  0  0  0
  187.1980  177.9940  146.1670 C   0  0  0  0  0  3  0  0  0  0  0  0
  188.0970  178.7420  141.9810 C   0  0  2  0  0  3  0  0  0  0  0  0
  192.0830  174.8640  143.4550 O   0  0  0  0  0  1  0  0  0  0  0  0
  185.2990  178.3520  143.0010 O   0  0  0  0  0  0  0  0  0  0  0  0
  186.7610  178.8550  148.4690 C   0  0  0  0  0  1  0  0  0  0  0  0
  189.5950  178.7140  142.2690 C   0  0  0  0  0  2  0  0  0  0  0  0
  187.4520  177.4050  142.3780 C   0  0  2  0  0  3  0  0  0  0  0  0
  189.9480  175.9110  143.6240 C   0  0  0  0  0  2  0  0  0  0  0  0
  185.2330  179.3530  146.5570 C   0  0  0  0  0  3  0  0  0  0  0  0
  189.8480  178.4480  143.7520 C   0  0  2  0  0  3  0  0  0  0  0  0
  191.3460  178.4670  144.0620 C   0  0  0  0  0  2  0  0  0  0  0  0
  185.9440  177.4280  142.1250 C   0  0  0  0  0  2  0  0  0  0  0  0
  185.6770  178.4820  144.3410 C   0  0  0  0  0  0  0  0  0  0  0  0
  184.8770  179.2270  145.2120 C   0  0  0  0  0  3  0  0  0  0  0  0
  189.0550  177.1060  139.8490 O   0  0  0  0  0  0  0  0  0  0  0  0
  188.3840  178.1300  139.5440 C   0  0  0  0  0  0  0  0  0  0  0  0
  187.8830  178.9970  140.5620 N   0  0  0  0  0  2  0  0  0  0  0  0
  186.6650  176.2400  136.8130 C   0  0  0  0  0  0  0  0  0  0  0  0
  186.5860  178.5050  137.8350 C   0  0  0  0  0  2  0  0  0  0  0  0
  190.0140  177.6310  136.9420 O   0  0  0  0  0  0  0  0  0  0  0  0
  186.0530  175.2250  136.3020 N   0  0  0  0  0  2  0  0  0  0  0  0
  185.9540  177.1120  137.8000 C   0  0  0  0  0  2  0  0  0  0  0  0
  188.7860  177.4940  137.1780 C   0  0  0  0  0  0  0  0  0  0  0  0
  188.0940  178.4480  138.1100 C   0  0  2  0  0  3  0  0  0  0  0  0
  188.0660  176.4110  136.5820 N   0  0  0  0  0  2  0  0  0  0  0  0
  1  9  1  6  0  0  0
  2  5  1  0  0  0  0
  2  3  1  1  0  0  0
  3  7  1  0  0  0  0
  4 11  1  0  0  0  0
  5 14  1  6  0  0  0
  6  1  1  0  0  0  0
  6 17  1  0  0  0  0
  7  4  2  0  0  0  0
  8 23  1  6  0  0  0
  8 12  1  0  0  0  0
  8 13  1  0  0  0  0
 10 19  1  0  0  0  0
 13 18  1  1  0  0  0
 13  2  1  0  0  0  0
 14  1  1  0  0  0  0
 15  4  1  0  0  0  0
 16 12  1  6  0  0  0
 16 17  1  0  0  0  0
 16  5  1  0  0  0  0
 18 10  1  0  0  0  0
 19  3  2  0  0  0  0
 19 20  1  0  0  0  0
 20 15  2  0  0  0  0
 22 21  2  0  0  0  0
 22 23  1  0  0  0  0
 24 28  1  0  0  0  0
 25 30  1  0  0  0  0
 26 29  2  0  0  0  0
 27 24  2  0  0  0  0
 28 25  1  0  0  0  0
 29 30  1  0  0  0  0
 30 22  1  1  0  0  0
 31 24  1  0  0  0  0
 31 29  1  0  0  0  0
M  END
>  <MODEL>
5

>  <REMARK>
 VINA RESULT:      -6.8      4.180      7.010
  Name = 
  2 active torsions:
  status: ('A' for Active; 'I' for Inactive)
    1  A    between atoms: C_5  and  C_30
    2  A    between atoms: C_10  and  N_16
                            x       y       z     vdW  Elec       q    Type
                         _______ _______ _______ _____ _____    ______ ____

>  <TORSDO>
F 2

$$$$
=
 OpenBabel11122411193D

 31 35  0  0  1  0  0  0  0  0999 V2000
  179.7270  179.4820  139.7790 C   0  0  2  0  0  3  0  0  0  0  0  0
  183.5700  179.2710  140.1930 C   0  0  2  0  0  3  0  0  0  0  0  0
  184.4440  178.8780  141.3680 C   0  0  0  0  0  0  0  0  0  0  0  0
  184.7920  178.6350  143.7600 C   0  0  0  0  0  0  0  0  0  0  0  0
  182.0870  178.9370  140.4170 C   0  0  1  0  0  3  0  0  0  0  0  0
  179.4520  178.0070  139.5090 C   0  0  0  0  0  2  0  0  0  0  0  0
  183.9670  178.9710  142.6840 C   0  0  0  0  0  3  0  0  0  0  0  0
  183.7950  177.2000  138.7190 C   0  0  2  0  0  3  0  0  0  0  0  0
  178.9310  180.2640  138.9460 O   0  0  0  0  0  1  0  0  0  0  0  0
  186.2940  178.4280  139.8470 O   0  0  0  0  0  0  0  0  0  0  0  0
  184.2720  178.7230  145.1490 C   0  0  0  0  0  1  0  0  0  0  0  0
  182.2990  176.9380  138.8710 C   0  0  0  0  0  2  0  0  0  0  0  0
  184.0900  178.7020  138.8530 C   0  0  2  0  0  3  0  0  0  0  0  0
  181.1970  179.7980  139.5200 C   0  0  0  0  0  2  0  0  0  0  0  0
  186.1050  178.2140  143.5310 C   0  0  0  0  0  3  0  0  0  0  0  0
  181.8070  177.4340  140.2290 C   0  0  2  0  0  3  0  0  0  0  0  0
  180.3180  177.1310  140.4140 C   0  0  0  0  0  2  0  0  0  0  0  0
  185.5900  178.9790  138.7340 C   0  0  0  0  0  2  0  0  0  0  0  0
  185.7800  178.4890  141.1460 C   0  0  0  0  0  0  0  0  0  0  0  0
  186.5980  178.1430  142.2250 C   0  0  0  0  0  3  0  0  0  0  0  0
  184.1410  174.4590  138.0050 O   0  0  0  0  0  0  0  0  0  0  0  0
  184.3830  175.3290  137.1220 C   0  0  0  0  0  0  0  0  0  0  0  0
  184.2390  176.7180  137.4180 N   0  0  0  0  0  2  0  0  0  0  0  0
  183.5270  172.4080  134.9500 C   0  0  0  0  0  0  0  0  0  0  0  0
  183.6380  174.8850  134.7680 C   0  0  0  0  0  2  0  0  0  0  0  0
  186.7530  173.5690  136.1400 O   0  0  0  0  0  0  0  0  0  0  0  0
  182.9380  171.2950  134.6700 N   0  0  0  0  0  2  0  0  0  0  0  0
  182.7320  173.6740  134.9980 C   0  0  0  0  0  2  0  0  0  0  0  0
  185.5520  173.6070  135.7690 C   0  0  0  0  0  0  0  0  0  0  0  0
  184.8170  174.9170  135.7500 C   0  0  2  0  0  3  0  0  0  0  0  0
  184.8860  172.3960  135.3970 N   0  0  0  0  0  2  0  0  0  0  0  0
  1  9  1  6  0  0  0
  2  5  1  0  0  0  0
  2  3  1  1  0  0  0
  3  7  1  0  0  0  0
  4 11  1  0  0  0  0
  5 14  1  6  0  0  0
  6  1  1  0  0  0  0
  6 17  1  0  0  0  0
  7  4  2  0  0  0  0
  8 23  1  6  0  0  0
  8 13  1  0  0  0  0
  8 12  1  0  0  0  0
 10 19  1  0  0  0  0
 13 18  1  1  0  0  0
 13  2  1  0  0  0  0
 14  1  1  0  0  0  0
 15  4  1  0  0  0  0
 16 12  1  6  0  0  0
 16 17  1  0  0  0  0
 16  5  1  0  0  0  0
 18 10  1  0  0  0  0
 19  3  2  0  0  0  0
 19 20  1  0  0  0  0
 20 15  2  0  0  0  0
 22 23  1  0  0  0  0
 22 21  2  0  0  0  0
 24 28  1  0  0  0  0
 24 31  1  0  0  0  0
 25 28  1  0  0  0  0
 25 30  1  0  0  0  0
 27 24  2  0  0  0  0
 29 26  2  0  0  0  0
 30 29  1  0  0  0  0
 30 22  1  1  0  0  0
 31 29  1  0  0  0  0
M  END
>  <MODEL>
6

>  <REMARK>
 VINA RESULT:      -6.5      6.454      8.253
  Name = 
  2 active torsions:
  status: ('A' for Active; 'I' for Inactive)
    1  A    between atoms: C_5  and  C_30
    2  A    between atoms: C_10  and  N_16
                            x       y       z     vdW  Elec       q    Type
                         _______ _______ _______ _____ _____    ______ ____

>  <TORSDO>
F 2

$$$$
=
 OpenBabel11122411193D

 31 35  0  0  1  0  0  0  0  0999 V2000
  191.7720  177.4330  143.6570 C   0  0  2  0  0  3  0  0  0  0  0  0
  190.4320  177.9180  140.0580 C   0  0  2  0  0  3  0  0  0  0  0  0
  190.4580  177.0200  138.8370 C   0  0  0  0  0  0  0  0  0  0  0  0
  191.4530  175.2080  137.5600 C   0  0  0  0  0  0  0  0  0  0  0  0
  190.8460  177.1840  141.3430 C   0  0  1  0  0  3  0  0  0  0  0  0
  190.6140  176.6140  144.2170 C   0  0  0  0  0  2  0  0  0  0  0  0
  191.4220  176.0090  138.7040 C   0  0  0  0  0  3  0  0  0  0  0  0
  187.9840  177.7100  140.7500 C   0  0  2  0  0  3  0  0  0  0  0  0
  192.1980  178.3510  144.6140 O   0  0  0  0  0  1  0  0  0  0  0  0
  188.6100  178.2800  137.8680 O   0  0  0  0  0  0  0  0  0  0  0  0
  192.4690  174.1310  137.4370 C   0  0  0  0  0  1  0  0  0  0  0  0
  188.4180  177.0720  142.0670 C   0  0  0  0  0  2  0  0  0  0  0  0
  189.0800  178.6500  140.2260 C   0  0  2  0  0  3  0  0  0  0  0  0
  191.3300  178.1770  142.4010 C   0  0  0  0  0  2  0  0  0  0  0  0
  190.5300  175.4190  136.5320 C   0  0  0  0  0  3  0  0  0  0  0  0
  189.7140  176.2860  141.8770 C   0  0  2  0  0  3  0  0  0  0  0  0
  190.1310  175.6010  143.1790 C   0  0  0  0  0  2  0  0  0  0  0  0
  188.6750  179.2740  138.8890 C   0  0  0  0  0  2  0  0  0  0  0  0
  189.5540  177.2520  137.7800 C   0  0  0  0  0  0  0  0  0  0  0  0
  189.5830  176.4410  136.6420 C   0  0  0  0  0  3  0  0  0  0  0  0
  185.7160  177.6520  139.0200 O   0  0  0  0  0  0  0  0  0  0  0  0
  185.6440  178.3710  140.0550 C   0  0  0  0  0  0  0  0  0  0  0  0
  186.7480  178.4520  140.9570 N   0  0  0  0  0  2  0  0  0  0  0  0
  182.0920  178.0120  138.9420 C   0  0  0  0  0  0  0  0  0  0  0  0
  183.3520  178.2770  141.0690 C   0  0  0  0  0  2  0  0  0  0  0  0
  184.3510  180.8390  138.6700 O   0  0  0  0  0  0  0  0  0  0  0  0
  181.1260  177.4730  138.2790 N   0  0  0  0  0  2  0  0  0  0  0  0
  182.6770  177.2900  140.1160 C   0  0  0  0  0  2  0  0  0  0  0  0
  183.8300  179.7870  139.1230 C   0  0  0  0  0  0  0  0  0  0  0  0
  184.3980  179.1440  140.3570 C   0  0  2  0  0  3  0  0  0  0  0  0
  182.7200  179.1950  138.4420 N   0  0  0  0  0  2  0  0  0  0  0  0
  1  6  1  0  0  0  0
  1  9  1  1  0  0  0
  2  3  1  6  0  0  0
  2 13  1  0  0  0  0
  2  5  1  0  0  0  0
  4  7  2  0  0  0  0
  5 16  1  0  0  0  0
  5 14  1  1  0  0  0
  7  3  1  0  0  0  0
  8 23  1  1  0  0  0
  8 12  1  0  0  0  0
 10 18  1  0  0  0  0
 11  4  1  0  0  0  0
 13 18  1  6  0  0  0
 13  8  1  0  0  0  0
 14  1  1  0  0  0  0
 15 20  2  0  0  0  0
 15  4  1  0  0  0  0
 16 12  1  1  0  0  0
 16 17  1  0  0  0  0
 17  6  1  0  0  0  0
 19 10  1  0  0  0  0
 19  3  2  0  0  0  0
 20 19  1  0  0  0  0
 21 22  2  0  0  0  0
 22 23  1  0  0  0  0
 24 28  1  0  0  0  0
 26 29  2  0  0  0  0
 27 24  2  0  0  0  0
 28 25  1  0  0  0  0
 29 30  1  0  0  0  0
 30 22  1  6  0  0  0
 30 25  1  0  0  0  0
 31 24  1  0  0  0  0
 31 29  1  0  0  0  0
M  END
>  <MODEL>
7

>  <REMARK>
 VINA RESULT:      -6.4      4.006      8.534
  Name = 
  2 active torsions:
  status: ('A' for Active; 'I' for Inactive)
    1  A    between atoms: C_5  and  C_30
    2  A    between atoms: C_10  and  N_16
                            x       y       z     vdW  Elec       q    Type
                         _______ _______ _______ _____ _____    ______ ____

>  <TORSDO>
F 2

$$$$
=
 OpenBabel11122411193D

 31 35  0  0  1  0  0  0  0  0999 V2000
  192.0640  175.3330  135.1540 C   0  0  2  0  0  3  0  0  0  0  0  0
  189.3980  177.4100  137.0420 C   0  0  2  0  0  3  0  0  0  0  0  0
  187.9010  177.2360  137.1980 C   0  0  0  0  0  0  0  0  0  0  0  0
  185.7730  176.3810  136.3960 C   0  0  0  0  0  0  0  0  0  0  0  0
  190.0780  176.1770  136.4270 C   0  0  1  0  0  3  0  0  0  0  0  0
  192.2850  174.2480  136.2030 C   0  0  0  0  0  2  0  0  0  0  0  0
  187.1570  176.5080  136.2570 C   0  0  0  0  0  3  0  0  0  0  0  0
  190.2050  176.6780  139.3510 C   0  0  2  0  0  3  0  0  0  0  0  0
  193.2880  175.6930  134.5940 O   0  0  0  0  0  1  0  0  0  0  0  0
  187.9410  178.6450  139.1870 O   0  0  0  0  0  0  0  0  0  0  0  0
  184.9970  175.5950  135.4010 C   0  0  0  0  0  1  0  0  0  0  0  0
  190.9580  175.5150  138.7120 C   0  0  0  0  0  2  0  0  0  0  0  0
  190.0840  177.8450  138.3590 C   0  0  2  0  0  3  0  0  0  0  0  0
  191.4180  176.5570  135.7930 C   0  0  0  0  0  2  0  0  0  0  0  0
  185.1180  176.9900  137.4690 C   0  0  0  0  0  3  0  0  0  0  0  0
  190.2340  175.0390  137.4540 C   0  0  2  0  0  3  0  0  0  0  0  0
  190.9530  173.8390  136.8320 C   0  0  0  0  0  2  0  0  0  0  0  0
  189.3040  179.0090  138.9720 C   0  0  0  0  0  2  0  0  0  0  0  0
  187.2290  177.8790  138.2580 C   0  0  0  0  0  0  0  0  0  0  0  0
  185.8450  177.7390  138.3980 C   0  0  0  0  0  3  0  0  0  0  0  0
  189.1050  176.7600  141.9820 O   0  0  0  0  0  0  0  0  0  0  0  0
  190.3060  177.1210  141.8390 C   0  0  0  0  0  0  0  0  0  0  0  0
  190.9150  177.1130  140.5470 N   0  0  0  0  0  2  0  0  0  0  0  0
  189.5880  177.2460  145.5060 C   0  0  0  0  0  0  0  0  0  0  0  0
  191.3670  176.3940  143.9930 C   0  0  0  0  0  2  0  0  0  0  0  0
  190.6150  179.8830  143.2360 O   0  0  0  0  0  0  0  0  0  0  0  0
  188.8550  177.1000  146.5580 N   0  0  0  0  0  2  0  0  0  0  0  0
  190.1170  176.0370  144.8000 C   0  0  0  0  0  2  0  0  0  0  0  0
  190.4910  178.7300  143.7200 C   0  0  0  0  0  0  0  0  0  0  0  0
  191.1140  177.5550  143.0220 C   0  0  2  0  0  3  0  0  0  0  0  0
  189.7310  178.5420  144.9180 N   0  0  0  0  0  2  0  0  0  0  0  0
  1  9  1  1  0  0  0
  1 14  1  0  0  0  0
  1  6  1  0  0  0  0
  2  3  1  1  0  0  0
  2 13  1  0  0  0  0
  3 19  1  0  0  0  0
  4 15  2  0  0  0  0
  5 14  1  1  0  0  0
  5  2  1  0  0  0  0
  5 16  1  0  0  0  0
  6 17  1  0  0  0  0
  7  4  1  0  0  0  0
  7  3  2  0  0  0  0
  8 23  1  1  0  0  0
 11  4  1  0  0  0  0
 12  8  1  0  0  0  0
 13 18  1  1  0  0  0
 13  8  1  0  0  0  0
 15 20  1  0  0  0  0
 16 17  1  6  0  0  0
 16 12  1  0  0  0  0
 18 10  1  0  0  0  0
 19 20  2  0  0  0  0
 19 10  1  0  0  0  0
 22 21  2  0  0  0  0
 23 22  1  0  0  0  0
 24 27  2  0  0  0  0
 25 28  1  0  0  0  0
 26 29  2  0  0  0  0
 28 24  1  0  0  0  0
 29 31  1  0  0  0  0
 30 22  1  6  0  0  0
 30 29  1  0  0  0  0
 30 25  1  0  0  0  0
 31 24  1  0  0  0  0
M  END
>  <MODEL>
8

>  <REMARK>
 VINA RESULT:      -6.4      2.955      6.533
  Name = 
  2 active torsions:
  status: ('A' for Active; 'I' for Inactive)
    1  A    between atoms: C_5  and  C_30
    2  A    between atoms: C_10  and  N_16
                            x       y       z     vdW  Elec       q    Type
                         _______ _______ _______ _____ _____    ______ ____

>  <TORSDO>
F 2

$$$$
=
 OpenBabel11122411193D

 31 35  0  0  1  0  0  0  0  0999 V2000
  180.8980  179.1650  139.3440 C   0  0  2  0  0  3  0  0  0  0  0  0
  184.7590  179.0260  139.5880 C   0  0  2  0  0  3  0  0  0  0  0  0
  185.6890  178.6000  140.7060 C   0  0  0  0  0  0  0  0  0  0  0  0
  186.1450  178.2570  143.0680 C   0  0  0  0  0  0  0  0  0  0  0  0
  183.2940  178.6470  139.8580 C   0  0  1  0  0  3  0  0  0  0  0  0
  180.6430  177.6970  139.0170 C   0  0  0  0  0  2  0  0  0  0  0  0
  185.2670  178.6220  142.0440 C   0  0  0  0  0  3  0  0  0  0  0  0
  184.9650  177.0290  138.0110 C   0  0  2  0  0  3  0  0  0  0  0  0
  180.0500  179.9650  138.5810 O   0  0  0  0  0  1  0  0  0  0  0  0
  187.4830  178.2630  139.0900 O   0  0  0  0  0  0  0  0  0  0  0  0
  185.6820  178.2700  144.4800 C   0  0  0  0  0  1  0  0  0  0  0  0
  183.4840  176.7250  138.2130 C   0  0  0  0  0  2  0  0  0  0  0  0
  185.2330  178.5300  138.2020 C   0  0  2  0  0  3  0  0  0  0  0  0
  182.3480  179.5260  139.0390 C   0  0  0  0  0  2  0  0  0  0  0  0
  187.4550  177.8780  142.7650 C   0  0  0  0  0  3  0  0  0  0  0  0
  183.0380  177.1470  139.6120 C   0  0  2  0  0  3  0  0  0  0  0  0
  181.5660  176.8020  139.8430 C   0  0  0  0  0  2  0  0  0  0  0  0
  186.7200  178.8470  138.0350 C   0  0  0  0  0  2  0  0  0  0  0  0
  187.0230  178.2530  140.4110 C   0  0  0  0  0  0  0  0  0  0  0  0
  187.8940  177.8780  141.4380 C   0  0  0  0  0  3  0  0  0  0  0  0
  187.1820  175.3420  137.3970 O   0  0  0  0  0  0  0  0  0  0  0  0
  186.4820  175.7620  136.4340 C   0  0  0  0  0  0  0  0  0  0  0  0
  185.3640  176.6180  136.6720 N   0  0  0  0  0  2  0  0  0  0  0  0
  188.0210  172.6940  134.9490 C   0  0  0  0  0  0  0  0  0  0  0  0
  186.0170  174.1210  134.5940 C   0  0  0  0  0  2  0  0  0  0  0  0
  189.0350  176.1700  134.7030 O   0  0  0  0  0  0  0  0  0  0  0  0
  188.5630  171.5240  134.9890 N   0  0  0  0  0  2  0  0  0  0  0  0
  186.5590  172.8410  135.2320 C   0  0  0  0  0  2  0  0  0  0  0  0
  188.2850  175.1690  134.8330 C   0  0  0  0  0  0  0  0  0  0  0  0
  186.8080  175.3620  135.0280 C   0  0  2  0  0  3  0  0  0  0  0  0
  188.8490  173.8540  134.8250 N   0  0  0  0  0  2  0  0  0  0  0  0
  1  9  1  6  0  0  0
  2  5  1  0  0  0  0
  2  3  1  1  0  0  0
  3  7  1  0  0  0  0
  4 11  1  0  0  0  0
  5 14  1  6  0  0  0
  6  1  1  0  0  0  0
  6 17  1  0  0  0  0
  7  4  2  0  0  0  0
  8 23  1  6  0  0  0
  8 13  1  0  0  0  0
  8 12  1  0  0  0  0
 10 19  1  0  0  0  0
 13 18  1  1  0  0  0
 13  2  1  0  0  0  0
 14  1  1  0  0  0  0
 15  4  1  0  0  0  0
 16 12  1  6  0  0  0
 16 17  1  0  0  0  0
 16  5  1  0  0  0  0
 18 10  1  0  0  0  0
 19  3  2  0  0  0  0
 19 20  1  0  0  0  0
 20 15  2  0  0  0  0
 22 23  1  0  0  0  0
 22 21  2  0  0  0  0
 24 27  2  0  0  0  0
 24 28  1  0  0  0  0
 25 30  1  0  0  0  0
 25 28  1  0  0  0  0
 26 29  2  0  0  0  0
 29 30  1  0  0  0  0
 30 22  1  1  0  0  0
 31 29  1  0  0  0  0
 31 24  1  0  0  0  0
M  END
>  <MODEL>
9

>  <REMARK>
 VINA RESULT:      -6.3      4.645      6.271
  Name = 
  2 active torsions:
  status: ('A' for Active; 'I' for Inactive)
    1  A    between atoms: C_5  and  C_30
    2  A    between atoms: C_10  and  N_16
                            x       y       z     vdW  Elec       q    Type
                         _______ _______ _______ _____ _____    ______ ____

>  <TORSDO>
F 2

$$$$
