=
 OpenBabel11122411403D

 37 43  0  0  1  0  0  0  0  0999 V2000
  187.7930  177.5030  139.4070 C   0  0  0  0  0  2  0  0  0  0  0  0
  190.4370  176.9100  143.3200 C   0  0  0  0  0  0  0  0  0  0  0  0
  186.3070  177.6330  143.8570 C   0  0  0  0  0  0  0  0  0  0  0  0
  188.0040  178.0120  137.9740 C   0  0  2  0  0  3  0  0  0  0  0  0
  184.1870  178.2560  140.8750 O   0  0  0  0  0  0  0  0  0  0  0  0
  188.5460  177.3020  144.8490 C   0  0  0  0  0  0  0  0  0  0  0  0
  186.0060  178.1780  142.5290 C   0  0  0  0  0  0  0  0  0  0  0  0
  185.4550  177.6990  137.3780 C   0  0  2  0  0  3  0  0  0  0  0  0
  187.6050  176.8840  143.7560 C   0  0  2  0  0  3  0  0  0  0  0  0
  184.7150  178.8460  142.0600 C   0  0  2  0  0  3  0  0  0  0  0  0
  188.0820  177.6810  146.0030 N   0  0  0  0  0  0  0  0  0  0  0  0
  186.7410  178.5420  137.2630 C   0  0  0  0  0  2  0  0  0  0  0  0
  188.1330  177.3190  142.4710 N   0  0  0  0  0  0  0  0  0  0  0  0
  190.5060  175.3930  143.2700 C   0  0  0  0  0  1  0  0  0  0  0  0
  184.8830  179.1690  145.2110 C   0  0  0  0  0  3  0  0  0  0  0  0
  186.6390  177.6800  146.2730 C   0  0  0  0  0  2  0  0  0  0  0  0
  189.5640  177.4240  142.1630 C   0  0  0  0  0  2  0  0  0  0  0  0
  184.4860  178.2100  138.4520 C   0  0  0  0  0  2  0  0  0  0  0  0
  185.1330  178.2060  139.8260 C   0  0  1  0  0  3  0  0  0  0  0  0
  185.8750  178.1000  145.0430 C   0  0  0  0  0  0  0  0  0  0  0  0
  187.1120  178.0390  141.7830 C   0  0  0  0  0  0  0  0  0  0  0  0
  189.9180  177.3310  144.5860 O   0  0  0  0  0  0  0  0  0  0  0  0
  183.6750  178.8720  143.1050 N   0  0  0  0  0  0  0  0  0  0  0  0
  191.8390  177.4590  143.1550 C   0  0  0  0  0  1  0  0  0  0  0  0
  186.1130  179.2140  139.9130 O   0  0  0  0  0  0  0  0  0  0  0  0
  185.7200  176.3380  137.5390 O   0  0  0  0  0  1  0  0  0  0  0  0
  187.2880  178.5870  140.3780 C   0  0  2  0  0  3  0  0  0  0  0  0
  183.9200  179.5140  144.3610 C   0  0  0  0  0  3  0  0  0  0  0  0
  181.9090  178.6120  141.4160 C   0  0  0  0  0  3  0  0  0  0  0  0
  182.2840  178.7530  142.7610 C   0  0  0  0  0  0  0  0  0  0  0  0
  181.2930  178.7280  143.7550 C   0  0  0  0  0  3  0  0  0  0  0  0
  178.9480  178.5700  144.4210 N   0  0  0  0  0  1  0  0  0  0  0  0
  179.5810  178.4570  142.0650 C   0  0  0  0  0  3  0  0  0  0  0  0
  179.9460  178.5860  143.4080 C   0  0  0  0  0  0  0  0  0  0  0  0
  180.5620  178.4670  141.0700 C   0  0  0  0  0  3  0  0  0  0  0  0
  189.5890  176.2930  138.0160 C   0  0  0  0  0  1  0  0  0  0  0  0
  188.6220  176.9710  137.1700 N   0  0  0  0  0  2  0  0  0  0  0  0
  2 22  1  0  0  0  0
  3 20  2  0  0  0  0
  4 37  1  6  0  0  0
  4  1  1  0  0  0  0
  6 11  2  0  0  0  0
  7  3  1  0  0  0  0
  8 26  1  1  0  0  0
  8 18  1  0  0  0  0
  9  3  1  1  0  0  0
  9  6  1  0  0  0  0
 10  5  1  6  0  0  0
 10  7  1  0  0  0  0
 10 23  1  0  0  0  0
 11 16  1  0  0  0  0
 12  8  1  0  0  0  0
 12  4  1  0  0  0  0
 13  9  1  0  0  0  0
 14  2  1  0  0  0  0
 17 13  1  0  0  0  0
 17  2  1  0  0  0  0
 19 18  1  6  0  0  0
 19 25  1  0  0  0  0
 19  5  1  0  0  0  0
 20 15  1  0  0  0  0
 20 16  1  0  0  0  0
 21 13  1  0  0  0  0
 21  7  2  0  0  0  0
 22  6  1  0  0  0  0
 23 28  1  0  0  0  0
 24  2  1  0  0  0  0
 25 27  1  0  0  0  0
 27  1  1  6  0  0  0
 27 21  1  0  0  0  0
 28 15  2  0  0  0  0
 29 30  1  0  0  0  0
 30 23  1  0  0  0  0
 30 31  2  0  0  0  0
 33 34  2  0  0  0  0
 34 31  1  0  0  0  0
 34 32  1  0  0  0  0
 35 29  2  0  0  0  0
 35 33  1  0  0  0  0
 37 36  1  0  0  0  0
M  END
>  <MODEL>
1

>  <REMARK>
 VINA RESULT:     -11.1      0.000      0.000
  Name = 
  2 active torsions:
  status: ('A' for Active; 'I' for Inactive)
    1  A    between atoms: C_4  and  N_37
    2  A    between atoms: N_23  and  C_30
                            x       y       z     vdW  Elec       q    Type
                         _______ _______ _______ _____ _____    ______ ____

>  <TORSDO>
F 2

$$$$
=
 OpenBabel11122411403D

 37 43  0  0  1  0  0  0  0  0999 V2000
  187.7180  177.5330  139.4210 C   0  0  0  0  0  2  0  0  0  0  0  0
  190.4510  176.9930  143.2800 C   0  0  0  0  0  0  0  0  0  0  0  0
  186.3250  177.6710  143.9000 C   0  0  0  0  0  0  0  0  0  0  0  0
  187.8940  178.0360  137.9810 C   0  0  2  0  0  3  0  0  0  0  0  0
  184.1360  178.2520  140.9600 O   0  0  0  0  0  0  0  0  0  0  0  0
  188.5880  177.3720  144.8460 C   0  0  0  0  0  0  0  0  0  0  0  0
  185.9900  178.2040  142.5750 C   0  0  0  0  0  0  0  0  0  0  0  0
  185.3360  177.6900  137.4400 C   0  0  2  0  0  3  0  0  0  0  0  0
  187.6290  176.9360  143.7760 C   0  0  2  0  0  3  0  0  0  0  0  0
  184.6820  178.8550  142.1310 C   0  0  2  0  0  3  0  0  0  0  0  0
  188.1440  177.7510  146.0080 N   0  0  0  0  0  0  0  0  0  0  0  0
  186.6100  178.5470  137.2930 C   0  0  0  0  0  2  0  0  0  0  0  0
  188.1250  177.3700  142.4780 N   0  0  0  0  0  0  0  0  0  0  0  0
  190.5370  175.4770  143.2370 C   0  0  0  0  0  1  0  0  0  0  0  0
  184.9120  179.1980  145.2750 C   0  0  0  0  0  3  0  0  0  0  0  0
  186.7070  177.7350  146.3080 C   0  0  0  0  0  2  0  0  0  0  0  0
  189.5480  177.4900  142.1390 C   0  0  0  0  0  2  0  0  0  0  0  0
  184.3840  178.1960  138.5320 C   0  0  0  0  0  2  0  0  0  0  0  0
  185.0600  178.2070  139.8910 C   0  0  1  0  0  3  0  0  0  0  0  0
  185.9130  178.1390  145.0930 C   0  0  0  0  0  0  0  0  0  0  0  0
  187.0810  178.0740  141.8070 C   0  0  0  0  0  0  0  0  0  0  0  0
  189.9540  177.4140  144.5540 O   0  0  0  0  0  0  0  0  0  0  0  0
  183.6640  178.8750  143.1980 N   0  0  0  0  0  0  0  0  0  0  0  0
  191.8430  177.5570  143.0820 C   0  0  0  0  0  1  0  0  0  0  0  0
  186.0300  179.2270  139.9520 O   0  0  0  0  0  0  0  0  0  0  0  0
  185.6200  176.3330  137.6030 O   0  0  0  0  0  1  0  0  0  0  0  0
  187.2210  178.6160  140.3960 C   0  0  2  0  0  3  0  0  0  0  0  0
  183.9270  179.5270  144.4440 C   0  0  0  0  0  3  0  0  0  0  0  0
  181.3390  178.5150  143.9110 C   0  0  0  0  0  3  0  0  0  0  0  0
  182.2670  178.7380  142.8830 C   0  0  0  0  0  0  0  0  0  0  0  0
  181.8070  178.8740  141.5630 C   0  0  0  0  0  3  0  0  0  0  0  0
  179.9880  178.8940  139.9330 N   0  0  0  0  0  1  0  0  0  0  0  0
  179.5290  178.5290  142.3040 C   0  0  0  0  0  3  0  0  0  0  0  0
  180.4440  178.7640  141.2740 C   0  0  0  0  0  0  0  0  0  0  0  0
  179.9760  178.4070  143.6220 C   0  0  0  0  0  3  0  0  0  0  0  0
  189.5300  176.3660  137.9830 C   0  0  0  0  0  1  0  0  0  0  0  0
  188.5060  176.9980  137.1690 N   0  0  0  0  0  2  0  0  0  0  0  0
  2 22  1  0  0  0  0
  3 20  2  0  0  0  0
  4 37  1  6  0  0  0
  4  1  1  0  0  0  0
  6 11  2  0  0  0  0
  7  3  1  0  0  0  0
  8 26  1  1  0  0  0
  8 18  1  0  0  0  0
  9  3  1  1  0  0  0
  9  6  1  0  0  0  0
 10  5  1  6  0  0  0
 10  7  1  0  0  0  0
 10 23  1  0  0  0  0
 11 16  1  0  0  0  0
 12  8  1  0  0  0  0
 12  4  1  0  0  0  0
 13  9  1  0  0  0  0
 14  2  1  0  0  0  0
 17 13  1  0  0  0  0
 17  2  1  0  0  0  0
 19 18  1  6  0  0  0
 19 25  1  0  0  0  0
 19  5  1  0  0  0  0
 20 15  1  0  0  0  0
 20 16  1  0  0  0  0
 21 13  1  0  0  0  0
 21  7  2  0  0  0  0
 22  6  1  0  0  0  0
 23 28  1  0  0  0  0
 24  2  1  0  0  0  0
 25 27  1  0  0  0  0
 27  1  1  6  0  0  0
 27 21  1  0  0  0  0
 28 15  2  0  0  0  0
 30 23  1  0  0  0  0
 30 29  2  0  0  0  0
 31 30  1  0  0  0  0
 32 34  1  0  0  0  0
 33 35  2  0  0  0  0
 34 31  2  0  0  0  0
 34 33  1  0  0  0  0
 35 29  1  0  0  0  0
 37 36  1  0  0  0  0
M  END
>  <MODEL>
2

>  <REMARK>
 VINA RESULT:     -10.9      0.772      1.103
  Name = 
  2 active torsions:
  status: ('A' for Active; 'I' for Inactive)
    1  A    between atoms: C_4  and  N_37
    2  A    between atoms: N_23  and  C_30
                            x       y       z     vdW  Elec       q    Type
                         _______ _______ _______ _____ _____    ______ ____

>  <TORSDO>
F 2

$$$$
=
 OpenBabel11122411403D

 37 43  0  0  1  0  0  0  0  0999 V2000
  189.3340  177.4730  139.1910 C   0  0  0  0  0  2  0  0  0  0  0  0
  190.5660  177.5120  143.7880 C   0  0  0  0  0  0  0  0  0  0  0  0
  186.4450  177.7570  142.8780 C   0  0  1  0  0  3  0  0  0  0  0  0
  189.9640  177.8920  137.8560 C   0  0  2  0  0  3  0  0  0  0  0  0
  185.3930  177.8830  139.3210 O   0  0  0  0  0  0  0  0  0  0  0  0
  188.2450  177.7830  144.5700 C   0  0  0  0  0  0  0  0  0  0  0  0
  186.5550  178.1580  141.4710 C   0  0  0  0  0  0  0  0  0  0  0  0
  187.8000  177.2220  136.5070 C   0  0  2  0  0  3  0  0  0  0  0  0
  187.7650  177.1690  143.2870 C   0  0  2  0  0  3  0  0  0  0  0  0
  185.4390  178.6230  140.5390 C   0  0  2  0  0  3  0  0  0  0  0  0
  187.3910  178.1880  145.4620 N   0  0  0  0  0  0  0  0  0  0  0  0
  188.9670  178.2070  136.7190 C   0  0  0  0  0  2  0  0  0  0  0  0
  188.6490  177.5670  142.2010 N   0  0  0  0  0  0  0  0  0  0  0  0
  190.7860  176.0160  143.9350 C   0  0  0  0  0  1  0  0  0  0  0  0
  184.5170  179.2050  143.5170 C   0  0  0  0  0  3  0  0  0  0  0  0
  185.9470  178.0290  145.2500 C   0  0  0  0  0  2  0  0  0  0  0  0
  190.0840  177.8240  142.3620 C   0  0  0  0  0  2  0  0  0  0  0  0
  186.4850  177.6900  137.1460 C   0  0  0  0  0  2  0  0  0  0  0  0
  186.6350  177.8710  138.6460 C   0  0  1  0  0  3  0  0  0  0  0  0
  185.6010  178.2560  143.8010 C   0  0  2  0  0  3  0  0  0  0  0  0
  187.8540  178.1000  141.1430 C   0  0  0  0  0  0  0  0  0  0  0  0
  189.6180  177.9610  144.7630 O   0  0  0  0  0  0  0  0  0  0  0  0
  184.1120  178.6010  141.1820 N   0  0  0  0  0  0  0  0  0  0  0  0
  191.8860  178.2160  144.0240 C   0  0  0  0  0  1  0  0  0  0  0  0
  187.4330  178.9960  138.9310 O   0  0  0  0  0  0  0  0  0  0  0  0
  188.1190  175.9200  136.8980 O   0  0  0  0  0  1  0  0  0  0  0  0
  188.4380  178.5570  139.8180 C   0  0  2  0  0  3  0  0  0  0  0  0
  183.8650  179.3620  142.3680 C   0  0  0  0  0  3  0  0  0  0  0  0
  182.2250  179.3080  139.7750 C   0  0  0  0  0  3  0  0  0  0  0  0
  182.9320  178.2840  140.4220 C   0  0  0  0  0  0  0  0  0  0  0  0
  182.5020  176.9560  140.2770 C   0  0  0  0  0  3  0  0  0  0  0  0
  180.9340  175.3120  139.3790 N   0  0  0  0  0  1  0  0  0  0  0  0
  180.6630  177.6880  138.8830 C   0  0  0  0  0  3  0  0  0  0  0  0
  181.3680  176.6600  139.5150 C   0  0  0  0  0  0  0  0  0  0  0  0
  181.0930  179.0110  139.0110 C   0  0  0  0  0  3  0  0  0  0  0  0
  191.2400  176.0710  138.5780 C   0  0  0  0  0  1  0  0  0  0  0  0
  190.9070  176.8780  137.4160 N   0  0  0  0  0  2  0  0  0  0  0  0
  2 14  1  0  0  0  0
  2 24  1  0  0  0  0
  2 22  1  0  0  0  0
  3  7  1  6  0  0  0
  3  9  1  0  0  0  0
  3 20  1  0  0  0  0
  4 37  1  6  0  0  0
  4  1  1  0  0  0  0
  6 22  1  0  0  0  0
  6 11  2  0  0  0  0
  8 12  1  0  0  0  0
  8 26  1  1  0  0  0
  8 18  1  0  0  0  0
  9  6  1  1  0  0  0
 10  5  1  6  0  0  0
 10 23  1  0  0  0  0
 10  7  1  0  0  0  0
 12  4  1  0  0  0  0
 13 17  1  0  0  0  0
 13  9  1  0  0  0  0
 16 11  1  0  0  0  0
 17  2  1  0  0  0  0
 19 18  1  6  0  0  0
 19 25  1  0  0  0  0
 19  5  1  0  0  0  0
 20 15  1  1  0  0  0
 20 16  1  0  0  0  0
 21  7  2  0  0  0  0
 21 13  1  0  0  0  0
 23 28  1  0  0  0  0
 25 27  1  0  0  0  0
 27  1  1  6  0  0  0
 27 21  1  0  0  0  0
 28 15  2  0  0  0  0
 29 30  1  0  0  0  0
 30 23  1  0  0  0  0
 31 30  2  0  0  0  0
 32 34  1  0  0  0  0
 33 35  1  0  0  0  0
 33 34  2  0  0  0  0
 34 31  1  0  0  0  0
 35 29  2  0  0  0  0
 37 36  1  0  0  0  0
M  END
>  <MODEL>
3

>  <REMARK>
 VINA RESULT:     -10.0      1.918      2.213
  Name = 
  2 active torsions:
  status: ('A' for Active; 'I' for Inactive)
    1  A    between atoms: C_4  and  N_37
    2  A    between atoms: N_23  and  C_30
                            x       y       z     vdW  Elec       q    Type
                         _______ _______ _______ _____ _____    ______ ____

>  <TORSDO>
F 2

$$$$
=
 OpenBabel11122411403D

 37 43  0  0  1  0  0  0  0  0999 V2000
  185.3190  178.0230  138.9820 C   0  0  0  0  0  2  0  0  0  0  0  0
  189.3390  177.0460  136.6280 C   0  0  0  0  0  0  0  0  0  0  0  0
  189.5280  177.1200  140.8510 C   0  0  1  0  0  3  0  0  0  0  0  0
  184.0300  178.8150  138.7240 C   0  0  2  0  0  3  0  0  0  0  0  0
  186.4820  178.0180  142.7720 O   0  0  0  0  0  0  0  0  0  0  0  0
  190.6920  176.8980  138.6830 C   0  0  0  0  0  0  0  0  0  0  0  0
  188.2900  177.8630  141.1120 C   0  0  0  0  0  0  0  0  0  0  0  0
  183.1060  178.2970  141.1380 C   0  0  2  0  0  3  0  0  0  0  0  0
  189.4440  176.5760  139.4540 C   0  0  2  0  0  3  0  0  0  0  0  0
  187.8040  178.4360  142.4410 C   0  0  2  0  0  3  0  0  0  0  0  0
  191.8350  176.9890  139.2950 N   0  0  0  0  0  0  0  0  0  0  0  0
  183.2850  179.3040  139.9850 C   0  0  0  0  0  2  0  0  0  0  0  0
  188.3230  177.3100  138.8850 N   0  0  0  0  0  0  0  0  0  0  0  0
  189.0330  175.5870  136.3350 C   0  0  0  0  0  1  0  0  0  0  0  0
  190.9610  178.1790  142.5960 C   0  0  0  0  0  3  0  0  0  0  0  0
  191.9370  176.7530  140.7400 C   0  0  0  0  0  2  0  0  0  0  0  0
  188.2000  177.6530  137.4640 C   0  0  0  0  0  2  0  0  0  0  0  0
  184.1380  178.4680  142.2620 C   0  0  0  0  0  2  0  0  0  0  0  0
  185.5530  178.2880  141.7420 C   0  0  1  0  0  3  0  0  0  0  0  0
  190.7220  177.2960  141.4480 C   0  0  2  0  0  3  0  0  0  0  0  0
  187.6600  178.0090  139.9380 C   0  0  0  0  0  0  0  0  0  0  0  0
  190.5930  177.1500  137.3120 O   0  0  0  0  0  0  0  0  0  0  0  0
  188.7150  178.1320  143.5610 N   0  0  0  0  0  0  0  0  0  0  0  0
  189.4300  177.7910  135.3130 C   0  0  0  0  0  1  0  0  0  0  0  0
  185.9240  179.3780  140.9320 O   0  0  0  0  0  0  0  0  0  0  0  0
  183.0560  176.9750  140.6920 O   0  0  0  0  0  1  0  0  0  0  0  0
  186.4010  178.8310  139.7220 C   0  0  2  0  0  3  0  0  0  0  0  0
  190.0820  178.5520  143.5220 C   0  0  0  0  0  3  0  0  0  0  0  0
  189.0270  177.3300  145.8630 C   0  0  0  0  0  3  0  0  0  0  0  0
  188.2010  177.9030  144.8850 C   0  0  0  0  0  0  0  0  0  0  0  0
  186.8960  178.2900  145.2300 C   0  0  0  0  0  3  0  0  0  0  0  0
  185.0920  178.4720  146.8660 N   0  0  0  0  0  1  0  0  0  0  0  0
  187.2440  177.5030  147.4920 C   0  0  0  0  0  3  0  0  0  0  0  0
  186.4180  178.0850  146.5270 C   0  0  0  0  0  0  0  0  0  0  0  0
  188.5490  177.1280  147.1610 C   0  0  0  0  0  3  0  0  0  0  0  0
  183.9490  177.1090  137.1270 C   0  0  0  0  0  1  0  0  0  0  0  0
  183.1300  178.0330  137.8940 N   0  0  0  0  0  2  0  0  0  0  0  0
  2 22  1  0  0  0  0
  2 17  1  0  0  0  0
  3  7  1  6  0  0  0
  3 20  1  0  0  0  0
  4 37  1  1  0  0  0
  4  1  1  0  0  0  0
  4 12  1  0  0  0  0
  6 11  2  0  0  0  0
  8 26  1  6  0  0  0
  8 18  1  0  0  0  0
  9  6  1  6  0  0  0
  9  3  1  0  0  0  0
 10  7  1  6  0  0  0
 10  5  1  0  0  0  0
 10 23  1  0  0  0  0
 11 16  1  0  0  0  0
 12  8  1  0  0  0  0
 13  9  1  0  0  0  0
 13 21  1  0  0  0  0
 14  2  1  0  0  0  0
 15 28  2  0  0  0  0
 17 13  1  0  0  0  0
 19 18  1  1  0  0  0
 19  5  1  0  0  0  0
 20 16  1  6  0  0  0
 20 15  1  0  0  0  0
 21  7  2  0  0  0  0
 22  6  1  0  0  0  0
 23 30  1  0  0  0  0
 24  2  1  0  0  0  0
 25 19  1  0  0  0  0
 27  1  1  1  0  0  0
 27 21  1  0  0  0  0
 27 25  1  0  0  0  0
 28 23  1  0  0  0  0
 29 35  1  0  0  0  0
 30 31  1  0  0  0  0
 30 29  2  0  0  0  0
 31 34  2  0  0  0  0
 34 32  1  0  0  0  0
 34 33  1  0  0  0  0
 35 33  2  0  0  0  0
 36 37  1  0  0  0  0
M  END
>  <MODEL>
4

>  <REMARK>
 VINA RESULT:      -9.5      2.343      5.778
  Name = 
  2 active torsions:
  status: ('A' for Active; 'I' for Inactive)
    1  A    between atoms: C_4  and  N_37
    2  A    between atoms: N_23  and  C_30
                            x       y       z     vdW  Elec       q    Type
                         _______ _______ _______ _____ _____    ______ ____

>  <TORSDO>
F 2

$$$$
=
 OpenBabel11122411403D

 37 43  0  0  1  0  0  0  0  0999 V2000
  190.0310  177.4060  143.0620 C   0  0  0  0  0  2  0  0  0  0  0  0
  188.5390  177.7420  147.5700 C   0  0  0  0  0  0  0  0  0  0  0  0
  185.6180  178.0390  144.5290 C   0  0  1  0  0  3  0  0  0  0  0  0
  191.3150  177.7100  142.2780 C   0  0  2  0  0  3  0  0  0  0  0  0
  186.6990  177.9370  140.9800 O   0  0  0  0  0  0  0  0  0  0  0  0
  186.1930  178.1350  146.9300 C   0  0  0  0  0  0  0  0  0  0  0  0
  186.5070  178.3330  143.4000 C   0  0  0  0  0  0  0  0  0  0  0  0
  190.2070  177.0060  139.9920 C   0  0  2  0  0  3  0  0  0  0  0  0
  186.4570  177.4440  145.6230 C   0  0  2  0  0  3  0  0  0  0  0  0
  186.1170  178.7610  141.9870 C   0  0  2  0  0  3  0  0  0  0  0  0
  185.0170  178.6280  147.1840 N   0  0  0  0  0  0  0  0  0  0  0  0
  191.1270  177.9690  140.7680 C   0  0  0  0  0  2  0  0  0  0  0  0
  187.8150  177.7370  145.1880 N   0  0  0  0  0  0  0  0  0  0  0  0
  188.5470  176.2550  147.8800 C   0  0  0  0  0  1  0  0  0  0  0  0
  183.7520  179.5830  143.9340 C   0  0  0  0  0  3  0  0  0  0  0  0
  183.9190  178.4960  146.2180 C   0  0  0  0  0  2  0  0  0  0  0  0
  188.9400  177.9640  146.1020 C   0  0  0  0  0  2  0  0  0  0  0  0
  188.7900  177.5560  139.7780 C   0  0  0  0  0  2  0  0  0  0  0  0
  188.1040  177.8400  141.1030 C   0  0  1  0  0  3  0  0  0  0  0  0
  184.4400  178.6270  144.8100 C   0  0  2  0  0  3  0  0  0  0  0  0
  187.7660  178.2140  143.8450 C   0  0  0  0  0  0  0  0  0  0  0  0
  187.2430  178.2870  147.8390 O   0  0  0  0  0  0  0  0  0  0  0  0
  184.6570  178.8230  141.7930 N   0  0  0  0  0  0  0  0  0  0  0  0
  189.5560  178.4230  148.4620 C   0  0  0  0  0  1  0  0  0  0  0  0
  188.6850  178.9600  141.7290 O   0  0  0  0  0  0  0  0  0  0  0  0
  190.1760  175.7270  140.5510 O   0  0  0  0  0  1  0  0  0  0  0  0
  189.0090  178.5580  143.0420 C   0  0  2  0  0  3  0  0  0  0  0  0
  183.8480  179.6750  142.6100 C   0  0  0  0  0  3  0  0  0  0  0  0
  184.1810  179.3780  139.4460 C   0  0  0  0  0  3  0  0  0  0  0  0
  184.0690  178.4870  140.5230 C   0  0  0  0  0  0  0  0  0  0  0  0
  183.4250  177.2550  140.3290 C   0  0  0  0  0  3  0  0  0  0  0  0
  182.2220  175.6820  138.8990 N   0  0  0  0  0  1  0  0  0  0  0  0
  182.9870  177.8290  138.0190 C   0  0  0  0  0  3  0  0  0  0  0  0
  182.8810  176.9290  139.0840 C   0  0  0  0  0  0  0  0  0  0  0  0
  183.6380  179.0510  138.1990 C   0  0  0  0  0  3  0  0  0  0  0  0
  191.8040  175.8400  143.5940 C   0  0  0  0  0  1  0  0  0  0  0  0
  192.2770  176.6400  142.4770 N   0  0  0  0  0  2  0  0  0  0  0  0
  2 22  1  0  0  0  0
  2 14  1  0  0  0  0
  2 24  1  0  0  0  0
  3  7  1  1  0  0  0
  3 20  1  0  0  0  0
  3  9  1  0  0  0  0
  4 37  1  6  0  0  0
  4  1  1  0  0  0  0
  5 19  1  0  0  0  0
  6 11  2  0  0  0  0
  6 22  1  0  0  0  0
  7 21  2  0  0  0  0
  8 26  1  1  0  0  0
  8 12  1  0  0  0  0
  9  6  1  1  0  0  0
 10  5  1  6  0  0  0
 10  7  1  0  0  0  0
 12  4  1  0  0  0  0
 13  9  1  0  0  0  0
 13 17  1  0  0  0  0
 16 11  1  0  0  0  0
 17  2  1  0  0  0  0
 18  8  1  0  0  0  0
 19 18  1  6  0  0  0
 19 25  1  0  0  0  0
 20 15  1  1  0  0  0
 20 16  1  0  0  0  0
 21 13  1  0  0  0  0
 23 10  1  0  0  0  0
 23 28  1  0  0  0  0
 25 27  1  0  0  0  0
 27  1  1  6  0  0  0
 27 21  1  0  0  0  0
 28 15  2  0  0  0  0
 29 30  1  0  0  0  0
 30 23  1  0  0  0  0
 31 30  2  0  0  0  0
 32 34  1  0  0  0  0
 33 35  1  0  0  0  0
 33 34  2  0  0  0  0
 34 31  1  0  0  0  0
 35 29  2  0  0  0  0
 37 36  1  0  0  0  0
M  END
>  <MODEL>
5

>  <REMARK>
 VINA RESULT:      -8.8      2.523      4.085
  Name = 
  2 active torsions:
  status: ('A' for Active; 'I' for Inactive)
    1  A    between atoms: C_4  and  N_37
    2  A    between atoms: N_23  and  C_30
                            x       y       z     vdW  Elec       q    Type
                         _______ _______ _______ _____ _____    ______ ____

>  <TORSDO>
F 2

$$$$
=
 OpenBabel11122411403D

 37 43  0  0  1  0  0  0  0  0999 V2000
  189.1250  177.6840  143.3750 C   0  0  0  0  0  2  0  0  0  0  0  0
  185.3350  178.6510  146.0880 C   0  0  0  0  0  0  0  0  0  0  0  0
  184.6910  178.2180  141.9320 C   0  0  0  0  0  0  0  0  0  0  0  0
  190.6360  177.9500  143.4210 C   0  0  2  0  0  3  0  0  0  0  0  0
  187.6050  177.6110  139.7150 O   0  0  0  0  0  0  0  0  0  0  0  0
  183.7920  178.7540  144.1700 C   0  0  0  0  0  0  0  0  0  0  0  0
  186.0760  178.3870  141.4780 C   0  0  0  0  0  0  0  0  0  0  0  0
  191.0130  176.7950  141.0810 C   0  0  2  0  0  3  0  0  0  0  0  0
  184.7320  177.8780  143.3950 C   0  0  2  0  0  3  0  0  0  0  0  0
  186.5790  178.5440  140.0450 C   0  0  2  0  0  3  0  0  0  0  0  0
  182.6990  179.1930  143.6180 N   0  0  0  0  0  0  0  0  0  0  0  0
  191.3550  177.9400  142.0550 C   0  0  0  0  0  2  0  0  0  0  0  0
  186.1040  178.1960  143.7650 N   0  0  0  0  0  0  0  0  0  0  0  0
  185.1130  177.2410  146.6080 C   0  0  0  0  0  1  0  0  0  0  0  0
  183.5550  179.4970  140.1180 C   0  0  0  0  0  3  0  0  0  0  0  0
  182.3480  178.8200  142.2420 C   0  0  0  0  0  2  0  0  0  0  0  0
  186.5110  178.6550  145.0970 C   0  0  0  0  0  2  0  0  0  0  0  0
  189.9920  177.1940  140.0060 C   0  0  0  0  0  2  0  0  0  0  0  0
  188.6820  177.6420  140.6290 C   0  0  1  0  0  3  0  0  0  0  0  0
  183.5850  178.7550  141.3840 C   0  0  0  0  0  0  0  0  0  0  0  0
  186.8490  178.4390  142.5720 C   0  0  0  0  0  0  0  0  0  0  0  0
  184.1370  179.1330  145.4700 O   0  0  0  0  0  0  0  0  0  0  0  0
  185.4950  178.4630  139.0480 N   0  0  0  0  0  0  0  0  0  0  0  0
  185.6800  179.5450  147.2600 C   0  0  0  0  0  1  0  0  0  0  0  0
  188.8370  178.8900  141.2620 O   0  0  0  0  0  0  0  0  0  0  0  0
  190.6240  175.6280  141.7410 O   0  0  0  0  0  1  0  0  0  0  0  0
  188.3380  178.7370  142.5720 C   0  0  2  0  0  3  0  0  0  0  0  0
  184.3940  179.3760  139.0930 C   0  0  0  0  0  3  0  0  0  0  0  0
  186.7230  178.4080  136.9190 C   0  0  0  0  0  3  0  0  0  0  0  0
  185.7290  177.8780  137.7550 C   0  0  0  0  0  0  0  0  0  0  0  0
  185.0090  176.7490  137.3320 C   0  0  0  0  0  3  0  0  0  0  0  0
  184.5230  175.0360  135.6600 N   0  0  0  0  0  1  0  0  0  0  0  0
  186.2480  176.7170  135.2530 C   0  0  0  0  0  3  0  0  0  0  0  0
  185.2630  176.1740  136.0840 C   0  0  0  0  0  0  0  0  0  0  0  0
  186.9790  177.8310  135.6720 C   0  0  0  0  0  3  0  0  0  0  0  0
  190.6190  177.1280  145.6100 C   0  0  0  0  0  1  0  0  0  0  0  0
  191.2750  177.0030  144.3190 N   0  0  0  0  0  2  0  0  0  0  0  0
  1  4  1  0  0  0  0
  2 14  1  0  0  0  0
  2 24  1  0  0  0  0
  4 37  1  1  0  0  0
  5 19  1  0  0  0  0
  6 22  1  0  0  0  0
  7  3  1  0  0  0  0
  7 21  2  0  0  0  0
  8 26  1  1  0  0  0
  8 12  1  0  0  0  0
  9  3  1  6  0  0  0
  9 13  1  0  0  0  0
  9  6  1  0  0  0  0
 10  5  1  6  0  0  0
 10  7  1  0  0  0  0
 11  6  2  0  0  0  0
 12  4  1  0  0  0  0
 13 17  1  0  0  0  0
 15 20  1  0  0  0  0
 16 11  1  0  0  0  0
 17  2  1  0  0  0  0
 18  8  1  0  0  0  0
 19 18  1  6  0  0  0
 19 25  1  0  0  0  0
 20  3  2  0  0  0  0
 20 16  1  0  0  0  0
 21 27  1  0  0  0  0
 21 13  1  0  0  0  0
 22  2  1  0  0  0  0
 23 28  1  0  0  0  0
 23 10  1  0  0  0  0
 25 27  1  0  0  0  0
 27  1  1  6  0  0  0
 28 15  2  0  0  0  0
 29 30  1  0  0  0  0
 30 23  1  0  0  0  0
 31 30  2  0  0  0  0
 32 34  1  0  0  0  0
 33 35  1  0  0  0  0
 33 34  2  0  0  0  0
 34 31  1  0  0  0  0
 35 29  2  0  0  0  0
 37 36  1  0  0  0  0
M  END
>  <MODEL>
6

>  <REMARK>
 VINA RESULT:      -8.3      2.134      5.960
  Name = 
  2 active torsions:
  status: ('A' for Active; 'I' for Inactive)
    1  A    between atoms: C_4  and  N_37
    2  A    between atoms: N_23  and  C_30
                            x       y       z     vdW  Elec       q    Type
                         _______ _______ _______ _____ _____    ______ ____

>  <TORSDO>
F 2

$$$$
=
 OpenBabel11122411403D

 37 43  0  0  1  0  0  0  0  0999 V2000
  187.1740  178.0870  145.0630 C   0  0  0  0  0  2  0  0  0  0  0  0
  191.1270  177.2870  142.5360 C   0  0  0  0  0  0  0  0  0  0  0  0
  187.6800  178.5090  140.4160 C   0  0  1  0  0  3  0  0  0  0  0  0
  186.5580  177.5840  146.3760 C   0  0  2  0  0  3  0  0  0  0  0  0
  184.5090  179.0150  142.2780 O   0  0  0  0  0  0  0  0  0  0  0  0
  190.0310  177.7510  140.3790 C   0  0  0  0  0  0  0  0  0  0  0  0
  186.6740  178.2030  141.4400 C   0  0  0  0  0  0  0  0  0  0  0  0
  184.3880  179.0420  146.0370 C   0  0  2  0  0  3  0  0  0  0  0  0
  189.0140  178.5870  141.1010 C   0  0  2  0  0  3  0  0  0  0  0  0
  185.1540  178.2120  141.2920 C   0  0  2  0  0  3  0  0  0  0  0  0
  189.9510  177.5900  139.0910 N   0  0  0  0  0  0  0  0  0  0  0  0
  185.0230  177.7100  146.4830 C   0  0  0  0  0  2  0  0  0  0  0  0
  188.7460  177.9990  142.4060 N   0  0  0  0  0  0  0  0  0  0  0  0
  191.8140  178.6060  142.8420 C   0  0  0  0  0  1  0  0  0  0  0  0
  186.4030  177.7480  138.4140 C   0  0  0  0  0  3  0  0  0  0  0  0
  188.8880  178.2400  138.3150 C   0  0  0  0  0  2  0  0  0  0  0  0
  189.7380  177.2640  143.1970 C   0  0  0  0  0  2  0  0  0  0  0  0
  183.8090  178.9950  144.6160 C   0  0  0  0  0  2  0  0  0  0  0  0
  184.8810  178.6610  143.5940 C   0  0  1  0  0  3  0  0  0  0  0  0
  187.6000  178.2530  139.0970 C   0  0  2  0  0  3  0  0  0  0  0  0
  187.3340  177.8470  142.5510 C   0  0  0  0  0  0  0  0  0  0  0  0
  191.0280  177.1090  141.1190 O   0  0  0  0  0  0  0  0  0  0  0  0
  184.7150  178.6290  139.9480 N   0  0  0  0  0  0  0  0  0  0  0  0
  191.9620  176.1650  143.1160 C   0  0  0  0  0  1  0  0  0  0  0  0
  185.2770  177.3150  143.7170 O   0  0  0  0  0  0  0  0  0  0  0  0
  185.2510  180.1280  146.1980 O   0  0  0  0  0  1  0  0  0  0  0  0
  186.6840  177.3220  143.8190 C   0  0  2  0  0  3  0  0  0  0  0  0
  185.1360  177.9070  138.7860 C   0  0  0  0  0  3  0  0  0  0  0  0
  183.4860  180.4930  138.9180 C   0  0  0  0  0  3  0  0  0  0  0  0
  183.5000  179.3800  139.7720 C   0  0  0  0  0  0  0  0  0  0  0  0
  182.3100  178.9880  140.4060 C   0  0  0  0  0  3  0  0  0  0  0  0
  179.9320  179.3110  140.8590 N   0  0  0  0  0  1  0  0  0  0  0  0
  181.1300  180.8250  139.3630 C   0  0  0  0  0  3  0  0  0  0  0  0
  181.1310  179.7110  140.2070 C   0  0  0  0  0  0  0  0  0  0  0  0
  182.3060  181.2140  138.7170 C   0  0  0  0  0  3  0  0  0  0  0  0
  188.3790  177.4950  147.8400 C   0  0  0  0  0  1  0  0  0  0  0  0
  187.1860  178.2530  147.5020 N   0  0  0  0  0  2  0  0  0  0  0  0
  1  4  1  0  0  0  0
  2 14  1  0  0  0  0
  2 24  1  0  0  0  0
  2 17  1  0  0  0  0
  3  9  1  0  0  0  0
  3  7  1  1  0  0  0
  4 12  1  0  0  0  0
  4 37  1  1  0  0  0
  5 19  1  0  0  0  0
  6 22  1  0  0  0  0
  7 21  2  0  0  0  0
  8 26  1  6  0  0  0
  8 12  1  0  0  0  0
  9  6  1  6  0  0  0
  9 13  1  0  0  0  0
 10  7  1  6  0  0  0
 10  5  1  0  0  0  0
 11  6  2  0  0  0  0
 13 21  1  0  0  0  0
 13 17  1  0  0  0  0
 15 28  2  0  0  0  0
 15 20  1  0  0  0  0
 16 11  1  0  0  0  0
 18  8  1  0  0  0  0
 19 25  1  0  0  0  0
 19 18  1  1  0  0  0
 20 16  1  1  0  0  0
 20  3  1  0  0  0  0
 21 27  1  0  0  0  0
 22  2  1  0  0  0  0
 23 10  1  0  0  0  0
 25 27  1  0  0  0  0
 27  1  1  1  0  0  0
 28 23  1  0  0  0  0
 29 30  1  0  0  0  0
 30 23  1  0  0  0  0
 30 31  2  0  0  0  0
 33 34  2  0  0  0  0
 34 31  1  0  0  0  0
 34 32  1  0  0  0  0
 35 29  2  0  0  0  0
 35 33  1  0  0  0  0
 37 36  1  0  0  0  0
M  END
>  <MODEL>
7

>  <REMARK>
 VINA RESULT:      -8.1      2.092      5.433
  Name = 
  2 active torsions:
  status: ('A' for Active; 'I' for Inactive)
    1  A    between atoms: C_4  and  N_37
    2  A    between atoms: N_23  and  C_30
                            x       y       z     vdW  Elec       q    Type
                         _______ _______ _______ _____ _____    ______ ____

>  <TORSDO>
F 2

$$$$
