=
 OpenBabel11122412003D

 28 32  0  0  1  0  0  0  0  0999 V2000
  184.7710  174.9350  136.7280 C   0  0  0  0  0  0  0  0  0  0  0  0
  186.0900  178.4120  138.6040 O   0  0  0  0  0  0  0  0  0  0  0  0
  179.3710  176.0700  137.2320 O   0  0  0  0  0  0  0  0  0  0  0  0
  185.0090  177.1290  135.0010 C   0  0  0  0  0  3  0  0  0  0  0  0
  180.4520  176.7700  139.1960 N   0  0  0  0  0  0  0  0  0  0  0  0
  184.5730  173.7260  137.5950 C   0  0  0  0  0  2  0  0  0  0  0  0
  184.5550  180.3000  138.8780 O   0  0  0  0  0  0  0  0  0  0  0  0
  184.8590  178.8960  139.3170 S   0  0  0  0  0  0  0  0  0  0  0  0
  183.8600  178.9340  141.6880 C   0  0  2  0  0  3  0  0  0  0  0  0
  183.4450  177.8450  138.9420 C   0  0  2  0  0  3  0  0  0  0  0  0
  181.6180  172.3130  135.7340 O   0  0  0  0  0  1  0  0  0  0  0  0
  182.5330  175.6330  138.8860 C   0  0  1  0  0  3  0  0  0  0  0  0
  183.0640  177.6840  141.3480 C   0  0  0  0  0  2  0  0  0  0  0  0
  185.1510  178.8830  141.0210 N   0  0  0  0  0  2  0  0  0  0  0  0
  182.3120  173.3000  136.4310 C   0  0  1  0  0  3  0  0  0  0  0  0
  184.3490  176.2140  137.1610 C   0  0  0  0  0  0  0  0  0  0  0  0
  180.3870  176.0640  137.9790 C   0  0  0  0  0  0  0  0  0  0  0  0
  184.0760  178.9950  143.1850 C   0  0  0  0  0  1  0  0  0  0  0  0
  181.4160  173.8630  137.5230 C   0  0  0  0  0  2  0  0  0  0  0  0
  184.4630  177.2990  136.2750 C   0  0  0  0  0  3  0  0  0  0  0  0
  185.3270  174.7760  135.4520 C   0  0  0  0  0  3  0  0  0  0  0  0
  185.4480  175.8690  134.5940 C   0  0  0  0  0  3  0  0  0  0  0  0
  183.6100  172.7020  136.9810 C   0  0  0  0  0  2  0  0  0  0  0  0
  181.7280  176.5360  139.8420 C   0  0  1  0  0  3  0  0  0  0  0  0
  181.6440  175.3600  137.6570 C   0  0  2  0  0  3  0  0  0  0  0  0
  182.4450  177.7980  140.0240 N   0  0  2  0  0  0  0  0  0  0  0  0
  179.3370  177.4680  139.8150 C   0  0  0  0  0  1  0  0  0  0  0  0
  183.8030  176.4160  138.5690 C   0  0  1  0  0  3  0  0  0  0  0  0
  1 16  1  0  0  0  0
  1  6  1  0  0  0  0
  2  8  2  0  0  0  0
  3 17  2  0  0  0  0
  4 20  1  0  0  0  0
  5 27  1  0  0  0  0
  5 24  1  0  0  0  0
  7  8  2  0  0  0  0
  8 14  1  0  0  0  0
  9 18  1  1  0  0  0
 10  8  1  1  0  0  0
 10 26  1  0  0  0  0
 11 15  1  0  0  0  0
 12 24  1  0  0  0  0
 13  9  1  0  0  0  0
 14  9  1  0  0  0  0
 15 23  1  0  0  0  0
 15 19  1  0  0  0  0
 16 28  1  0  0  0  0
 17  5  1  0  0  0  0
 19 25  1  0  0  0  0
 20 16  2  0  0  0  0
 21  1  2  0  0  0  0
 22  4  2  0  0  0  0
 22 21  1  0  0  0  0
 23  6  1  0  0  0  0
 24 26  1  0  0  0  0
 25 17  1  0  0  0  0
 25 12  1  0  0  0  0
 26 13  1  0  0  0  0
 28 12  1  0  0  0  0
 28 10  1  0  0  0  0
M  END
>  <MODEL>
1

>  <REMARK>
 VINA RESULT:      -5.9      0.000      0.000
  Name = 
  0 active torsions:
  status: ('A' for Active; 'I' for Inactive)
                            x       y       z     vdW  Elec       q    Type
                         _______ _______ _______ _____ _____    ______ ____

>  <TORSDO>
F 0

$$$$
=
 OpenBabel11122412003D

 28 32  0  0  1  0  0  0  0  0999 V2000
  179.8470  179.2180  141.3430 C   0  0  0  0  0  0  0  0  0  0  0  0
  178.9320  178.7630  137.3050 O   0  0  0  0  0  0  0  0  0  0  0  0
  185.3120  179.7500  140.5970 O   0  0  0  0  0  0  0  0  0  0  0  0
  179.4870  181.6440  139.9860 C   0  0  0  0  0  3  0  0  0  0  0  0
  184.5220  178.1310  139.0890 N   0  0  0  0  0  0  0  0  0  0  0  0
  180.1010  177.9660  142.1300 C   0  0  0  0  0  2  0  0  0  0  0  0
  180.5710  179.4200  135.6080 O   0  0  0  0  0  0  0  0  0  0  0  0
  180.2640  178.4300  136.6950 S   0  0  0  0  0  0  0  0  0  0  0  0
  181.5570  176.3830  135.8240 C   0  0  2  0  0  3  0  0  0  0  0  0
  181.5710  178.4930  137.9330 C   0  0  2  0  0  3  0  0  0  0  0  0
  182.7300  179.3940  144.4190 O   0  0  0  0  0  1  0  0  0  0  0  0
  182.3710  177.7530  140.0630 C   0  0  1  0  0  3  0  0  0  0  0  0
  182.2480  176.2730  137.1740 C   0  0  0  0  0  2  0  0  0  0  0  0
  180.1910  176.8420  136.0150 N   0  0  0  0  0  2  0  0  0  0  0  0
  182.1740  179.0830  143.1800 C   0  0  1  0  0  3  0  0  0  0  0  0
  180.3760  179.3760  140.0410 C   0  0  0  0  0  0  0  0  0  0  0  0
  184.4000  178.9660  140.2180 C   0  0  0  0  0  0  0  0  0  0  0  0
  181.5370  175.0210  135.1640 C   0  0  0  0  0  1  0  0  0  0  0  0
  183.2260  178.4010  142.3180 C   0  0  0  0  0  2  0  0  0  0  0  0
  180.1980  180.6050  139.3830 C   0  0  0  0  0  3  0  0  0  0  0  0
  179.1270  180.2630  141.9360 C   0  0  0  0  0  3  0  0  0  0  0  0
  178.9450  181.4690  141.2600 C   0  0  0  0  0  3  0  0  0  0  0  0
  180.9320  178.2130  143.3940 C   0  0  0  0  0  2  0  0  0  0  0  0
  183.3290  177.3220  138.9350 C   0  0  1  0  0  3  0  0  0  0  0  0
  183.0820  178.8530  140.8740 C   0  0  2  0  0  3  0  0  0  0  0  0
  182.6980  177.5880  137.6430 N   0  0  2  0  0  0  0  0  0  0  0  0
  185.7360  177.9570  138.3090 C   0  0  0  0  0  1  0  0  0  0  0  0
  181.1060  178.2280  139.3550 C   0  0  1  0  0  3  0  0  0  0  0  0
  1 21  1  0  0  0  0
  1  6  1  0  0  0  0
  4 22  1  0  0  0  0
  5 17  1  0  0  0  0
  6 23  1  0  0  0  0
  7  8  2  0  0  0  0
  8  2  2  0  0  0  0
  9 18  1  1  0  0  0
  9 14  1  0  0  0  0
  9 13  1  0  0  0  0
 10  8  1  6  0  0  0
 10 28  1  0  0  0  0
 12 25  1  0  0  0  0
 13 26  1  0  0  0  0
 14  8  1  0  0  0  0
 15 23  1  0  0  0  0
 15 11  1  0  0  0  0
 16  1  2  0  0  0  0
 17  3  2  0  0  0  0
 17 25  1  0  0  0  0
 19 15  1  0  0  0  0
 20  4  2  0  0  0  0
 20 16  1  0  0  0  0
 22 21  2  0  0  0  0
 24  5  1  0  0  0  0
 24 12  1  0  0  0  0
 25 19  1  0  0  0  0
 26 10  1  0  0  0  0
 26 24  1  0  0  0  0
 27  5  1  0  0  0  0
 28 16  1  0  0  0  0
 28 12  1  0  0  0  0
M  END
>  <MODEL>
2

>  <REMARK>
 VINA RESULT:      -5.6      2.896      6.955
  Name = 
  0 active torsions:
  status: ('A' for Active; 'I' for Inactive)
                            x       y       z     vdW  Elec       q    Type
                         _______ _______ _______ _____ _____    ______ ____

>  <TORSDO>
F 0

$$$$
=
 OpenBabel11122412003D

 28 32  0  0  1  0  0  0  0  0999 V2000
  185.4420  176.1910  135.5640 C   0  0  0  0  0  0  0  0  0  0  0  0
  181.7130  175.6140  137.3280 O   0  0  0  0  0  0  0  0  0  0  0  0
  187.9710  177.8760  140.1970 O   0  0  0  0  0  0  0  0  0  0  0  0
  185.1230  173.6630  136.7300 C   0  0  0  0  0  3  0  0  0  0  0  0
  185.8000  178.7740  140.1810 N   0  0  0  0  0  0  0  0  0  0  0  0
  185.7080  177.5380  134.9580 C   0  0  0  0  0  2  0  0  0  0  0  0
  181.5350  175.4530  139.7650 O   0  0  0  0  0  0  0  0  0  0  0  0
  181.8300  176.3760  138.6170 S   0  0  0  0  0  0  0  0  0  0  0  0
  181.0900  178.6200  139.6370 C   0  0  2  0  0  3  0  0  0  0  0  0
  183.4900  177.0490  138.8170 C   0  0  2  0  0  3  0  0  0  0  0  0
  189.3780  177.6940  135.7930 O   0  0  0  0  0  1  0  0  0  0  0  0
  185.2600  178.3650  137.8880 C   0  0  1  0  0  3  0  0  0  0  0  0
  182.4440  179.2080  139.2690 C   0  0  0  0  0  2  0  0  0  0  0  0
  180.6820  177.6690  138.6160 N   0  0  0  0  0  2  0  0  0  0  0  0
  188.0240  177.5560  136.0910 C   0  0  1  0  0  3  0  0  0  0  0  0
  184.7900  176.0750  136.8140 C   0  0  0  0  0  0  0  0  0  0  0  0
  186.9060  178.1440  139.5770 C   0  0  0  0  0  0  0  0  0  0  0  0
  180.0690  179.7340  139.7150 C   0  0  0  0  0  1  0  0  0  0  0  0
  187.6720  178.4770  137.2500 C   0  0  0  0  0  2  0  0  0  0  0  0
  184.6530  174.8000  137.3890 C   0  0  0  0  0  3  0  0  0  0  0  0
  185.9010  175.0440  134.9050 C   0  0  0  0  0  3  0  0  0  0  0  0
  185.7400  173.7850  135.4840 C   0  0  0  0  0  3  0  0  0  0  0  0
  187.2040  177.8510  134.8320 C   0  0  0  0  0  2  0  0  0  0  0  0
  184.7490  178.9810  139.2050 C   0  0  1  0  0  3  0  0  0  0  0  0
  186.6650  177.7950  138.1630 C   0  0  2  0  0  3  0  0  0  0  0  0
  183.5290  178.2860  139.6170 N   0  0  2  0  0  0  0  0  0  0  0  0
  185.7860  179.3190  141.5280 C   0  0  0  0  0  1  0  0  0  0  0  0
  184.2270  177.3060  137.5130 C   0  0  1  0  0  3  0  0  0  0  0  0
  1 16  1  0  0  0  0
  2  8  2  0  0  0  0
  4 20  1  0  0  0  0
  5 27  1  0  0  0  0
  6  1  1  0  0  0  0
  8  7  2  0  0  0  0
  9 18  1  6  0  0  0
 10  8  1  6  0  0  0
 10 26  1  0  0  0  0
 11 15  1  0  0  0  0
 12 25  1  0  0  0  0
 12 24  1  0  0  0  0
 13 26  1  0  0  0  0
 13  9  1  0  0  0  0
 14  8  1  0  0  0  0
 14  9  1  0  0  0  0
 15 19  1  0  0  0  0
 16 20  2  0  0  0  0
 16 28  1  0  0  0  0
 17  5  1  0  0  0  0
 17  3  2  0  0  0  0
 19 25  1  0  0  0  0
 21 22  1  0  0  0  0
 21  1  2  0  0  0  0
 22  4  2  0  0  0  0
 23  6  1  0  0  0  0
 23 15  1  0  0  0  0
 24 26  1  0  0  0  0
 24  5  1  0  0  0  0
 25 17  1  0  0  0  0
 28 12  1  0  0  0  0
 28 10  1  0  0  0  0
M  END
>  <MODEL>
3

>  <REMARK>
 VINA RESULT:      -5.4      2.268      5.129
  Name = 
  0 active torsions:
  status: ('A' for Active; 'I' for Inactive)
                            x       y       z     vdW  Elec       q    Type
                         _______ _______ _______ _____ _____    ______ ____

>  <TORSDO>
F 0

$$$$
=
 OpenBabel11122412003D

 28 32  0  0  1  0  0  0  0  0999 V2000
  183.0590  176.1940  138.7320 C   0  0  0  0  0  0  0  0  0  0  0  0
  185.8230  177.7830  141.4130 O   0  0  0  0  0  0  0  0  0  0  0  0
  179.3130  180.2260  139.3730 O   0  0  0  0  0  0  0  0  0  0  0  0
  184.7940  178.0710  137.5840 C   0  0  0  0  0  3  0  0  0  0  0  0
  180.2680  179.7750  141.4710 N   0  0  0  0  0  0  0  0  0  0  0  0
  182.0620  175.2140  139.2810 C   0  0  0  0  0  2  0  0  0  0  0  0
  185.6420  180.1280  142.0950 O   0  0  0  0  0  0  0  0  0  0  0  0
  185.0040  178.7710  142.1920 S   0  0  0  0  0  0  0  0  0  0  0  0
  183.8460  178.9770  144.4810 C   0  0  2  0  0  3  0  0  0  0  0  0
  183.3240  178.8650  141.5460 C   0  0  2  0  0  3  0  0  0  0  0  0
  179.1800  176.2150  137.0720 O   0  0  0  0  0  1  0  0  0  0  0  0
  181.3250  177.6950  140.9450 C   0  0  1  0  0  3  0  0  0  0  0  0
  182.5410  178.5390  143.8360 C   0  0  0  0  0  2  0  0  0  0  0  0
  184.9560  178.2820  143.8500 N   0  0  0  0  0  2  0  0  0  0  0  0
  180.1940  176.4450  137.9990 C   0  0  1  0  0  3  0  0  0  0  0  0
  183.3910  177.3680  139.4480 C   0  0  0  0  0  0  0  0  0  0  0  0
  180.0030  179.4800  140.1190 C   0  0  0  0  0  0  0  0  0  0  0  0
  183.8150  178.6280  145.9540 C   0  0  0  0  0  1  0  0  0  0  0  0
  179.6270  177.2270  139.1740 C   0  0  0  0  0  2  0  0  0  0  0  0
  184.2510  178.3040  138.8490 C   0  0  0  0  0  3  0  0  0  0  0  0
  183.6160  175.9640  137.4680 C   0  0  0  0  0  3  0  0  0  0  0  0
  184.4830  176.8970  136.8980 C   0  0  0  0  0  3  0  0  0  0  0  0
  180.7990  175.1020  138.4190 C   0  0  0  0  0  2  0  0  0  0  0  0
  181.0510  178.7120  142.0710 C   0  0  1  0  0  3  0  0  0  0  0  0
  180.6540  178.2340  139.6660 C   0  0  2  0  0  3  0  0  0  0  0  0
  182.3240  179.2350  142.5640 N   0  0  2  0  0  0  0  0  0  0  0  0
  179.6800  180.8780  142.2130 C   0  0  0  0  0  1  0  0  0  0  0  0
  182.8450  177.6020  140.8510 C   0  0  1  0  0  3  0  0  0  0  0  0
  1  6  1  0  0  0  0
  1 16  1  0  0  0  0
  2  8  2  0  0  0  0
  3 17  2  0  0  0  0
  4 20  1  0  0  0  0
  5 24  1  0  0  0  0
  5 27  1  0  0  0  0
  7  8  2  0  0  0  0
  8 14  1  0  0  0  0
  9 18  1  1  0  0  0
 10  8  1  1  0  0  0
 10 26  1  0  0  0  0
 11 15  1  0  0  0  0
 12 24  1  0  0  0  0
 13  9  1  0  0  0  0
 14  9  1  0  0  0  0
 15 23  1  0  0  0  0
 15 19  1  0  0  0  0
 16 28  1  0  0  0  0
 17  5  1  0  0  0  0
 19 25  1  0  0  0  0
 20 16  2  0  0  0  0
 21  1  2  0  0  0  0
 22 21  1  0  0  0  0
 22  4  2  0  0  0  0
 23  6  1  0  0  0  0
 24 26  1  0  0  0  0
 25 17  1  0  0  0  0
 25 12  1  0  0  0  0
 26 13  1  0  0  0  0
 28 12  1  0  0  0  0
 28 10  1  0  0  0  0
M  END
>  <MODEL>
4

>  <REMARK>
 VINA RESULT:      -5.1      2.255      3.370
  Name = 
  0 active torsions:
  status: ('A' for Active; 'I' for Inactive)
                            x       y       z     vdW  Elec       q    Type
                         _______ _______ _______ _____ _____    ______ ____

>  <TORSDO>
F 0

$$$$
=
 OpenBabel11122412003D

 28 32  0  0  1  0  0  0  0  0999 V2000
  183.3990  177.5670  136.3830 C   0  0  0  0  0  0  0  0  0  0  0  0
  187.1790  179.1920  137.0350 O   0  0  0  0  0  0  0  0  0  0  0  0
  184.7370  172.4380  137.9950 O   0  0  0  0  0  0  0  0  0  0  0  0
  183.8160  178.4370  139.0140 C   0  0  0  0  0  3  0  0  0  0  0  0
  186.5560  173.3280  136.8050 N   0  0  0  0  0  0  0  0  0  0  0  0
  183.1140  177.0350  135.0090 C   0  0  0  0  0  2  0  0  0  0  0  0
  188.7920  177.9910  138.4330 O   0  0  0  0  0  0  0  0  0  0  0  0
  188.0560  177.9760  137.1230 S   0  0  0  0  0  0  0  0  0  0  0  0
  189.7320  176.6650  135.6750 C   0  0  2  0  0  3  0  0  0  0  0  0
  187.0750  176.4680  137.0180 C   0  0  2  0  0  3  0  0  0  0  0  0
  180.9020  174.1800  136.0800 O   0  0  0  0  0  1  0  0  0  0  0  0
  185.4500  175.1980  135.8050 C   0  0  1  0  0  3  0  0  0  0  0  0
  188.6120  175.7190  135.2740 C   0  0  0  0  0  2  0  0  0  0  0  0
  189.2010  178.0100  135.8260 N   0  0  0  0  0  2  0  0  0  0  0  0
  182.0770  174.9290  136.0750 C   0  0  1  0  0  3  0  0  0  0  0  0
  184.6420  177.3200  137.0130 C   0  0  0  0  0  0  0  0  0  0  0  0
  185.2110  173.3170  137.2260 C   0  0  0  0  0  0  0  0  0  0  0  0
  190.7920  176.6690  134.5940 C   0  0  0  0  0  1  0  0  0  0  0  0
  183.2620  173.9960  135.8670 C   0  0  0  0  0  2  0  0  0  0  0  0
  184.8260  177.7510  138.3380 C   0  0  0  0  0  3  0  0  0  0  0  0
  182.3960  178.2660  137.0670 C   0  0  0  0  0  3  0  0  0  0  0  0
  182.6040  178.7020  138.3760 C   0  0  0  0  0  3  0  0  0  0  0  0
  181.9770  176.0060  134.9920 C   0  0  0  0  0  2  0  0  0  0  0  0
  186.7870  174.4350  135.8980 C   0  0  1  0  0  3  0  0  0  0  0  0
  184.4390  174.4640  136.7070 C   0  0  2  0  0  3  0  0  0  0  0  0
  187.8110  175.3290  136.4380 N   0  0  2  0  0  0  0  0  0  0  0  0
  187.5220  172.2760  137.0750 C   0  0  0  0  0  1  0  0  0  0  0  0
  185.7660  176.6190  136.2610 C   0  0  1  0  0  3  0  0  0  0  0  0
  1 16  2  0  0  0  0
  1 21  1  0  0  0  0
  2  8  2  0  0  0  0
  5 27  1  0  0  0  0
  5 17  1  0  0  0  0
  6  1  1  0  0  0  0
  8  7  2  0  0  0  0
  9 18  1  6  0  0  0
  9 14  1  0  0  0  0
 10  8  1  6  0  0  0
 12 24  1  0  0  0  0
 12 28  1  0  0  0  0
 12 25  1  0  0  0  0
 13  9  1  0  0  0  0
 13 26  1  0  0  0  0
 14  8  1  0  0  0  0
 15 11  1  0  0  0  0
 16 20  1  0  0  0  0
 17  3  2  0  0  0  0
 19 15  1  0  0  0  0
 19 25  1  0  0  0  0
 20  4  2  0  0  0  0
 21 22  2  0  0  0  0
 22  4  1  0  0  0  0
 23  6  1  0  0  0  0
 23 15  1  0  0  0  0
 24 26  1  0  0  0  0
 24  5  1  0  0  0  0
 25 17  1  0  0  0  0
 26 10  1  0  0  0  0
 28 16  1  0  0  0  0
 28 10  1  0  0  0  0
M  END
>  <MODEL>
5

>  <REMARK>
 VINA RESULT:      -5.1      3.218      5.596
  Name = 
  0 active torsions:
  status: ('A' for Active; 'I' for Inactive)
                            x       y       z     vdW  Elec       q    Type
                         _______ _______ _______ _____ _____    ______ ____

>  <TORSDO>
F 0

$$$$
=
 OpenBabel11122412003D

 28 32  0  0  1  0  0  0  0  0999 V2000
  187.0900  175.9220  135.7500 C   0  0  0  0  0  0  0  0  0  0  0  0
  182.9980  175.3810  136.3110 O   0  0  0  0  0  0  0  0  0  0  0  0
  188.0970  177.7480  140.8830 O   0  0  0  0  0  0  0  0  0  0  0  0
  186.4190  173.4270  136.8350 C   0  0  0  0  0  3  0  0  0  0  0  0
  186.0390  178.6370  140.1810 N   0  0  0  0  0  0  0  0  0  0  0  0
  187.5350  177.2520  135.2150 C   0  0  0  0  0  2  0  0  0  0  0  0
  182.0870  175.2880  138.5820 O   0  0  0  0  0  0  0  0  0  0  0  0
  182.7210  176.1790  137.5530 S   0  0  0  0  0  0  0  0  0  0  0  0
  181.7170  178.4490  138.2350 C   0  0  2  0  0  3  0  0  0  0  0  0
  184.2450  176.8640  138.2290 C   0  0  2  0  0  3  0  0  0  0  0  0
  190.7770  177.4460  137.1230 O   0  0  0  0  0  1  0  0  0  0  0  0
  186.2200  178.1600  137.8450 C   0  0  1  0  0  3  0  0  0  0  0  0
  183.1210  179.0310  138.2790 C   0  0  0  0  0  2  0  0  0  0  0  0
  181.6340  177.4670  137.1660 N   0  0  0  0  0  2  0  0  0  0  0  0
  189.3960  177.3110  136.9980 C   0  0  1  0  0  3  0  0  0  0  0  0
  186.0880  175.8390  136.7450 C   0  0  0  0  0  0  0  0  0  0  0  0
  187.2740  177.9940  139.9610 C   0  0  0  0  0  0  0  0  0  0  0  0
  180.7260  179.5610  137.9660 C   0  0  0  0  0  1  0  0  0  0  0  0
  188.7120  178.2630  137.9690 C   0  0  0  0  0  2  0  0  0  0  0  0
  185.7760  174.5800  137.2870 C   0  0  0  0  0  3  0  0  0  0  0  0
  187.7220  174.7580  135.2950 C   0  0  0  0  0  3  0  0  0  0  0  0
  187.3860  173.5150  135.8330 C   0  0  0  0  0  3  0  0  0  0  0  0
  188.9990  177.5670  135.5420 C   0  0  0  0  0  2  0  0  0  0  0  0
  185.3350  178.8120  138.9270 C   0  0  1  0  0  3  0  0  0  0  0  0
  187.4720  177.6040  138.5510 C   0  0  2  0  0  3  0  0  0  0  0  0
  184.0450  178.1240  138.9670 N   0  0  2  0  0  0  0  0  0  0  0  0
  185.6180  179.2200  141.4450 C   0  0  0  0  0  1  0  0  0  0  0  0
  185.3450  177.0870  137.2040 C   0  0  1  0  0  3  0  0  0  0  0  0
  1 16  1  0  0  0  0
  2  8  2  0  0  0  0
  4 20  1  0  0  0  0
  5 27  1  0  0  0  0
  6 23  1  0  0  0  0
  6  1  1  0  0  0  0
  8  7  2  0  0  0  0
  9 18  1  6  0  0  0
  9 13  1  0  0  0  0
 10  8  1  6  0  0  0
 10 26  1  0  0  0  0
 12 25  1  0  0  0  0
 12 24  1  0  0  0  0
 13 26  1  0  0  0  0
 14  8  1  0  0  0  0
 14  9  1  0  0  0  0
 15 11  1  0  0  0  0
 15 19  1  0  0  0  0
 16 28  1  0  0  0  0
 16 20  2  0  0  0  0
 17  5  1  0  0  0  0
 17  3  2  0  0  0  0
 19 25  1  0  0  0  0
 21  1  2  0  0  0  0
 21 22  1  0  0  0  0
 22  4  2  0  0  0  0
 23 15  1  0  0  0  0
 24 26  1  0  0  0  0
 24  5  1  0  0  0  0
 25 17  1  0  0  0  0
 28 12  1  0  0  0  0
 28 10  1  0  0  0  0
M  END
>  <MODEL>
6

>  <REMARK>
 VINA RESULT:      -5.1      2.899      5.589
  Name = 
  0 active torsions:
  status: ('A' for Active; 'I' for Inactive)
                            x       y       z     vdW  Elec       q    Type
                         _______ _______ _______ _____ _____    ______ ____

>  <TORSDO>
F 0

$$$$
=
 OpenBabel11122412003D

 28 32  0  0  1  0  0  0  0  0999 V2000
  184.5230  176.3920  137.5870 C   0  0  0  0  0  0  0  0  0  0  0  0
  186.1740  177.7930  141.1460 O   0  0  0  0  0  0  0  0  0  0  0  0
  180.9430  180.5760  136.9750 O   0  0  0  0  0  0  0  0  0  0  0  0
  186.6210  178.2130  137.2190 C   0  0  0  0  0  3  0  0  0  0  0  0
  181.0520  180.0350  139.2580 N   0  0  0  0  0  0  0  0  0  0  0  0
  183.3620  175.4470  137.7000 C   0  0  0  0  0  2  0  0  0  0  0  0
  185.8380  180.1280  141.8030 O   0  0  0  0  0  0  0  0  0  0  0  0
  185.1620  178.8000  141.6120 S   0  0  0  0  0  0  0  0  0  0  0  0
  183.2580  179.0080  143.3300 C   0  0  2  0  0  3  0  0  0  0  0  0
  183.8380  178.9850  140.4040 C   0  0  2  0  0  3  0  0  0  0  0  0
  181.5190  176.6270  134.6340 O   0  0  0  0  0  1  0  0  0  0  0  0
  182.1560  177.9220  139.0740 C   0  0  1  0  0  3  0  0  0  0  0  0
  182.2630  178.6440  142.2390 C   0  0  0  0  0  2  0  0  0  0  0  0
  184.4960  178.2770  143.1200 N   0  0  0  0  0  2  0  0  0  0  0  0
  182.1330  176.7900  135.8740 C   0  0  1  0  0  3  0  0  0  0  0  0
  184.6120  177.5330  138.4190 C   0  0  0  0  0  0  0  0  0  0  0  0
  181.2880  179.7830  137.8920 C   0  0  0  0  0  0  0  0  0  0  0  0
  182.6790  178.6280  144.6770 C   0  0  0  0  0  1  0  0  0  0  0  0
  181.2040  177.5710  136.7920 C   0  0  0  0  0  2  0  0  0  0  0  0
  185.6640  178.4420  138.2080 C   0  0  0  0  0  3  0  0  0  0  0  0
  185.4950  176.1650  136.6040 C   0  0  0  0  0  3  0  0  0  0  0  0
  186.5410  177.0700  136.4230 C   0  0  0  0  0  3  0  0  0  0  0  0
  182.4970  175.4120  136.4350 C   0  0  0  0  0  2  0  0  0  0  0  0
  181.5250  178.9250  140.0610 C   0  0  1  0  0  3  0  0  0  0  0  0
  182.0150  178.5190  137.6600 C   0  0  2  0  0  3  0  0  0  0  0  0
  182.5490  179.3780  141.0020 N   0  0  2  0  0  0  0  0  0  0  0  0
  180.2730  181.1470  139.7770 C   0  0  0  0  0  1  0  0  0  0  0  0
  183.6010  177.7600  139.5350 C   0  0  1  0  0  3  0  0  0  0  0  0
  1  6  1  0  0  0  0
  1 16  1  0  0  0  0
  2  8  2  0  0  0  0
  3 17  2  0  0  0  0
  4 20  1  0  0  0  0
  5 27  1  0  0  0  0
  5 24  1  0  0  0  0
  8  7  2  0  0  0  0
  8 14  1  0  0  0  0
  9 18  1  1  0  0  0
 10 26  1  0  0  0  0
 10  8  1  1  0  0  0
 11 15  1  0  0  0  0
 12 28  1  0  0  0  0
 12 24  1  0  0  0  0
 13  9  1  0  0  0  0
 14  9  1  0  0  0  0
 15 23  1  0  0  0  0
 15 19  1  0  0  0  0
 16 28  1  0  0  0  0
 17  5  1  0  0  0  0
 19 25  1  0  0  0  0
 20 16  2  0  0  0  0
 21  1  2  0  0  0  0
 22 21  1  0  0  0  0
 22  4  2  0  0  0  0
 23  6  1  0  0  0  0
 24 26  1  0  0  0  0
 25 17  1  0  0  0  0
 25 12  1  0  0  0  0
 26 13  1  0  0  0  0
 28 10  1  0  0  0  0
M  END
>  <MODEL>
7

>  <REMARK>
 VINA RESULT:      -4.9      2.282      2.817
  Name = 
  0 active torsions:
  status: ('A' for Active; 'I' for Inactive)
                            x       y       z     vdW  Elec       q    Type
                         _______ _______ _______ _____ _____    ______ ____

>  <TORSDO>
F 0

$$$$
=
 OpenBabel11122412003D

 28 32  0  0  1  0  0  0  0  0999 V2000
  182.2430  177.5000  137.2310 C   0  0  0  0  0  0  0  0  0  0  0  0
  186.0580  179.0030  137.9680 O   0  0  0  0  0  0  0  0  0  0  0  0
  183.7600  172.1710  137.2200 O   0  0  0  0  0  0  0  0  0  0  0  0
  182.9030  177.6190  139.9520 C   0  0  0  0  0  3  0  0  0  0  0  0
  185.4520  173.4150  136.1680 N   0  0  0  0  0  0  0  0  0  0  0  0
  181.8310  177.3610  135.7950 C   0  0  0  0  0  2  0  0  0  0  0  0
  187.8030  177.5140  138.8250 O   0  0  0  0  0  0  0  0  0  0  0  0
  186.9470  177.8390  137.6340 S   0  0  0  0  0  0  0  0  0  0  0  0
  188.4850  177.0360  135.7340 C   0  0  2  0  0  3  0  0  0  0  0  0
  185.9700  176.3880  137.2010 C   0  0  2  0  0  3  0  0  0  0  0  0
  179.7490  174.2500  136.2200 O   0  0  0  0  0  1  0  0  0  0  0  0
  184.2440  175.4520  135.8330 C   0  0  1  0  0  3  0  0  0  0  0  0
  187.3370  176.2020  135.1870 C   0  0  0  0  0  2  0  0  0  0  0  0
  187.9620  178.2680  136.3010 N   0  0  0  0  0  2  0  0  0  0  0  0
  180.9140  175.0090  136.3190 C   0  0  1  0  0  3  0  0  0  0  0  0
  183.5410  177.1280  137.6520 C   0  0  0  0  0  0  0  0  0  0  0  0
  184.1530  173.2440  136.6880 C   0  0  0  0  0  0  0  0  0  0  0  0
  189.4360  177.3740  134.6060 C   0  0  0  0  0  1  0  0  0  0  0  0
  182.0790  174.2090  135.7540 C   0  0  0  0  0  2  0  0  0  0  0  0
  183.8480  177.1810  139.0230 C   0  0  0  0  0  3  0  0  0  0  0  0
  181.3050  177.9490  138.1700 C   0  0  0  0  0  3  0  0  0  0  0  0
  181.6350  178.0110  139.5240 C   0  0  0  0  0  3  0  0  0  0  0  0
  180.7040  176.3400  135.5940 C   0  0  0  0  0  2  0  0  0  0  0  0
  185.5880  174.7370  135.5890 C   0  0  1  0  0  3  0  0  0  0  0  0
  183.3280  174.4640  136.5810 C   0  0  2  0  0  3  0  0  0  0  0  0
  186.6530  175.4790  136.2630 N   0  0  2  0  0  0  0  0  0  0  0  0
  186.4450  172.3610  136.0460 C   0  0  0  0  0  1  0  0  0  0  0  0
  184.5930  176.7000  136.6370 C   0  0  1  0  0  3  0  0  0  0  0  0
  1 16  2  0  0  0  0
  1 21  1  0  0  0  0
  5 17  1  0  0  0  0
  6  1  1  0  0  0  0
  8  2  2  0  0  0  0
  8  7  2  0  0  0  0
  9 18  1  6  0  0  0
  9 14  1  0  0  0  0
 10  8  1  6  0  0  0
 11 15  1  0  0  0  0
 12 25  1  0  0  0  0
 12 28  1  0  0  0  0
 13  9  1  0  0  0  0
 13 26  1  0  0  0  0
 14  8  1  0  0  0  0
 16 20  1  0  0  0  0
 17  3  2  0  0  0  0
 19 15  1  0  0  0  0
 19 25  1  0  0  0  0
 20  4  2  0  0  0  0
 21 22  2  0  0  0  0
 22  4  1  0  0  0  0
 23  6  1  0  0  0  0
 23 15  1  0  0  0  0
 24 12  1  0  0  0  0
 24  5  1  0  0  0  0
 24 26  1  0  0  0  0
 25 17  1  0  0  0  0
 26 10  1  0  0  0  0
 27  5  1  0  0  0  0
 28 10  1  0  0  0  0
 28 16  1  0  0  0  0
M  END
>  <MODEL>
8

>  <REMARK>
 VINA RESULT:      -4.8      2.770      5.263
  Name = 
  0 active torsions:
  status: ('A' for Active; 'I' for Inactive)
                            x       y       z     vdW  Elec       q    Type
                         _______ _______ _______ _____ _____    ______ ____

>  <TORSDO>
F 0

$$$$
=
 OpenBabel11122412003D

 28 32  0  0  1  0  0  0  0  0999 V2000
  182.3230  179.1270  138.2440 C   0  0  0  0  0  0  0  0  0  0  0  0
  184.4080  175.8660  136.7030 O   0  0  0  0  0  0  0  0  0  0  0  0
  179.3100  176.1840  141.8430 O   0  0  0  0  0  0  0  0  0  0  0  0
  184.6160  178.4580  139.7090 C   0  0  0  0  0  3  0  0  0  0  0  0
  179.5120  174.9340  139.8650 N   0  0  0  0  0  0  0  0  0  0  0  0
  181.0570  179.5200  137.5410 C   0  0  0  0  0  2  0  0  0  0  0  0
  184.4420  173.7530  137.9410 O   0  0  0  0  0  0  0  0  0  0  0  0
  183.5790  174.6960  137.1510 S   0  0  0  0  0  0  0  0  0  0  0  0
  181.8530  173.0430  136.1970 C   0  0  2  0  0  3  0  0  0  0  0  0
  182.2060  175.2400  138.1840 C   0  0  2  0  0  3  0  0  0  0  0  0
  179.1690  180.6390  140.6030 O   0  0  0  0  0  1  0  0  0  0  0  0
  180.3020  176.6700  138.4220 C   0  0  1  0  0  3  0  0  0  0  0  0
  180.7400  173.9260  136.7400 C   0  0  0  0  0  2  0  0  0  0  0  0
  182.9620  173.8750  135.7600 N   0  0  0  0  0  2  0  0  0  0  0  0
  179.8900  179.7310  139.8310 C   0  0  1  0  0  3  0  0  0  0  0  0
  182.6280  177.7660  138.4820 C   0  0  0  0  0  0  0  0  0  0  0  0
  179.6100  176.1190  140.6200 C   0  0  0  0  0  0  0  0  0  0  0  0
  181.3290  172.2530  135.0170 C   0  0  0  0  0  1  0  0  0  0  0  0
  179.1460  178.4040  139.7990 C   0  0  0  0  0  2  0  0  0  0  0  0
  183.7740  177.4520  139.2320 C   0  0  0  0  0  3  0  0  0  0  0  0
  183.1800  180.1290  138.7180 C   0  0  0  0  0  3  0  0  0  0  0  0
  184.3230  179.7960  139.4440 C   0  0  0  0  0  3  0  0  0  0  0  0
  180.1030  180.3220  138.4350 C   0  0  0  0  0  2  0  0  0  0  0  0
  179.8880  175.1860  138.4880 C   0  0  1  0  0  3  0  0  0  0  0  0
  180.1400  177.2540  139.8390 C   0  0  2  0  0  3  0  0  0  0  0  0
  181.0310  174.3540  138.1120 N   0  0  2  0  0  0  0  0  0  0  0  0
  178.9320  173.6890  140.3400 C   0  0  0  0  0  1  0  0  0  0  0  0
  181.7420  176.6620  137.9180 C   0  0  1  0  0  3  0  0  0  0  0  0
  1 16  2  0  0  0  0
  1 21  1  0  0  0  0
  2  8  2  0  0  0  0
  5 27  1  0  0  0  0
  5 17  1  0  0  0  0
  6  1  1  0  0  0  0
  6 23  1  0  0  0  0
  8  7  2  0  0  0  0
  9 18  1  6  0  0  0
  9 13  1  0  0  0  0
 10  8  1  6  0  0  0
 12 24  1  0  0  0  0
 12 25  1  0  0  0  0
 13 26  1  0  0  0  0
 14  9  1  0  0  0  0
 14  8  1  0  0  0  0
 15 11  1  0  0  0  0
 16 20  1  0  0  0  0
 17  3  2  0  0  0  0
 19 15  1  0  0  0  0
 19 25  1  0  0  0  0
 20  4  2  0  0  0  0
 21 22  2  0  0  0  0
 22  4  1  0  0  0  0
 23 15  1  0  0  0  0
 24  5  1  0  0  0  0
 25 17  1  0  0  0  0
 26 10  1  0  0  0  0
 26 24  1  0  0  0  0
 28 10  1  0  0  0  0
 28 12  1  0  0  0  0
 28 16  1  0  0  0  0
M  END
>  <MODEL>
9

>  <REMARK>
 VINA RESULT:      -4.7      3.213      5.759
  Name = 
  0 active torsions:
  status: ('A' for Active; 'I' for Inactive)
                            x       y       z     vdW  Elec       q    Type
                         _______ _______ _______ _____ _____    ______ ____

>  <TORSDO>
F 0

$$$$
