=
 OpenBabel11122411503D

 28 32  0  0  1  0  0  0  0  0999 V2000
  185.4560  178.8820  144.2930 C   0  0  0  0  0  0  0  0  0  0  0  0
  189.0670  179.1980  142.0200 O   0  0  0  0  0  0  0  0  0  0  0  0
  181.8220  176.8270  139.9790 O   0  0  0  0  0  0  0  0  0  0  0  0
  187.2290  176.8330  145.0140 C   0  0  0  0  0  3  0  0  0  0  0  0
  183.8050  177.8250  139.1720 N   0  0  0  0  0  0  0  0  0  0  0  0
  184.5080  179.9930  143.9720 C   0  0  0  0  0  2  0  0  0  0  0  0
  188.9420  176.7960  141.4430 O   0  0  0  0  0  0  0  0  0  0  0  0
  188.5560  178.1880  141.0320 S   0  0  0  0  0  0  0  0  0  0  0  0
  188.3300  178.5410  138.3230 C   0  0  0  0  0  0  0  0  0  0  0  0
  186.8410  178.3250  140.8770 N   0  0  0  0  0  0  0  0  0  0  0  0
  181.1540  178.5360  143.9730 O   0  0  0  0  0  0  0  0  0  0  0  0
  184.6510  178.4850  141.2200 C   0  0  0  0  0  0  0  0  0  0  0  0
  186.9250  178.0010  138.3860 C   0  0  0  0  0  2  0  0  0  0  0  0
  189.1940  178.5290  139.4650 N   0  0  0  0  0  2  0  0  0  0  0  0
  182.2020  179.0460  143.5000 C   0  0  0  0  0  0  0  0  0  0  0  0
  186.1090  178.1330  143.2860 C   0  0  0  0  0  0  0  0  0  0  0  0
  182.8770  177.4770  140.2020 C   0  0  0  0  0  0  0  0  0  0  0  0
  188.9580  178.9060  136.8610 S   0  0  0  0  0  0  0  0  0  0  0  0
  182.4020  179.0610  142.0210 C   0  0  0  0  0  2  0  0  0  0  0  0
  186.9860  177.1080  143.6670 C   0  0  0  0  0  3  0  0  0  0  0  0
  185.7110  178.6020  145.6410 C   0  0  0  0  0  3  0  0  0  0  0  0
  186.5910  177.5820  146.0020 C   0  0  0  0  0  3  0  0  0  0  0  0
  183.1630  179.6200  144.3880 N   0  0  0  0  0  2  0  0  0  0  0  0
  184.8720  178.4330  139.8780 C   0  0  0  0  0  0  0  0  0  0  0  0
  183.3080  177.9270  141.5750 C   0  0  2  0  0  3  0  0  0  0  0  0
  186.2320  178.3410  139.6740 C   0  0  0  0  0  0  0  0  0  0  0  0
  183.8950  177.1730  137.8760 C   0  0  0  0  0  1  0  0  0  0  0  0
  185.8870  178.3860  141.8430 C   0  0  0  0  0  0  0  0  0  0  0  0
  1 21  1  0  0  0  0
  3 17  2  0  0  0  0
  4 22  1  0  0  0  0
  5 24  1  0  0  0  0
  5 17  1  0  0  0  0
  6  1  1  0  0  0  0
  6 23  1  0  0  0  0
  8  7  2  0  0  0  0
  8  2  2  0  0  0  0
  9 13  1  0  0  0  0
  9 14  1  0  0  0  0
 10  8  1  0  0  0  0
 10 28  1  0  0  0  0
 12 25  1  0  0  0  0
 12 28  2  0  0  0  0
 13 26  1  0  0  0  0
 14  8  1  0  0  0  0
 15 11  2  0  0  0  0
 15 23  1  0  0  0  0
 16 20  1  0  0  0  0
 16  1  2  0  0  0  0
 17 25  1  0  0  0  0
 18  9  2  0  0  0  0
 19 15  1  0  0  0  0
 20  4  2  0  0  0  0
 21 22  2  0  0  0  0
 24 12  1  0  0  0  0
 25 19  1  6  0  0  0
 26 24  2  0  0  0  0
 26 10  1  0  0  0  0
 27  5  1  0  0  0  0
 28 16  1  0  0  0  0
M  END
>  <MODEL>
1

>  <REMARK>
 VINA RESULT:      -8.5      0.000      0.000
  Name = 
  0 active torsions:
  status: ('A' for Active; 'I' for Inactive)
                            x       y       z     vdW  Elec       q    Type
                         _______ _______ _______ _____ _____    ______ ____

>  <TORSDO>
F 0

$$$$
=
 OpenBabel11122411503D

 28 32  0  0  1  0  0  0  0  0999 V2000
  184.3720  177.7570  138.6650 C   0  0  0  0  0  0  0  0  0  0  0  0
  180.2740  178.5230  139.6250 O   0  0  0  0  0  0  0  0  0  0  0  0
  186.6240  177.6430  144.2290 O   0  0  0  0  0  0  0  0  0  0  0  0
  182.8440  175.4390  138.2750 C   0  0  0  0  0  3  0  0  0  0  0  0
  184.5080  178.6820  144.0680 N   0  0  0  0  0  0  0  0  0  0  0  0
  185.2080  178.9890  138.8100 C   0  0  0  0  0  2  0  0  0  0  0  0
  180.1990  176.4890  141.0300 O   0  0  0  0  0  0  0  0  0  0  0  0
  180.4740  177.9650  141.0060 S   0  0  0  0  0  0  0  0  0  0  0  0
  179.9370  179.2510  143.3680 C   0  0  0  0  0  0  0  0  0  0  0  0
  182.0780  178.2960  141.5530 N   0  0  0  0  0  0  0  0  0  0  0  0
  188.4080  177.9190  140.2210 O   0  0  0  0  0  0  0  0  0  0  0  0
  184.2790  178.5170  141.7730 C   0  0  0  0  0  0  0  0  0  0  0  0
  181.2960  178.8460  143.8770 C   0  0  0  0  0  2  0  0  0  0  0  0
  179.4270  178.7700  142.1190 N   0  0  0  0  0  2  0  0  0  0  0  0
  187.2760  178.4680  140.1830 C   0  0  0  0  0  0  0  0  0  0  0  0
  183.4530  177.3480  139.6590 C   0  0  0  0  0  0  0  0  0  0  0  0
  185.6830  178.0820  143.5170 C   0  0  0  0  0  0  0  0  0  0  0  0
  178.9310  180.0410  144.3790 S   0  0  0  0  0  0  0  0  0  0  0  0
  186.6710  178.9750  141.4500 C   0  0  0  0  0  2  0  0  0  0  0  0
  182.7030  176.1830  139.4490 C   0  0  0  0  0  3  0  0  0  0  0  0
  184.5010  177.0080  137.4890 C   0  0  0  0  0  3  0  0  0  0  0  0
  183.7430  175.8530  137.2940 C   0  0  0  0  0  3  0  0  0  0  0  0
  186.6110  178.6140  138.9280 N   0  0  0  0  0  2  0  0  0  0  0  0
  183.6900  178.9140  142.9340 C   0  0  0  0  0  0  0  0  0  0  0  0
  185.6590  177.9910  142.0110 C   0  0  2  0  0  3  0  0  0  0  0  0
  182.3260  178.7800  142.7880 C   0  0  0  0  0  0  0  0  0  0  0  0
  184.0500  178.5130  145.4360 C   0  0  0  0  0  1  0  0  0  0  0  0
  183.2660  178.1020  140.9210 C   0  0  0  0  0  0  0  0  0  0  0  0
  1  6  1  0  0  0  0
  1 16  1  0  0  0  0
  2  8  2  0  0  0  0
  4 20  1  0  0  0  0
  5 27  1  0  0  0  0
  6 23  1  0  0  0  0
  8  7  2  0  0  0  0
  8 10  1  0  0  0  0
  8 14  1  0  0  0  0
  9 13  1  0  0  0  0
  9 18  2  0  0  0  0
 10 26  1  0  0  0  0
 12 25  1  0  0  0  0
 12 24  1  0  0  0  0
 14  9  1  0  0  0  0
 15 11  2  0  0  0  0
 15 19  1  0  0  0  0
 16 28  1  0  0  0  0
 17  5  1  0  0  0  0
 17  3  2  0  0  0  0
 20 16  2  0  0  0  0
 21  1  2  0  0  0  0
 22 21  1  0  0  0  0
 22  4  2  0  0  0  0
 23 15  1  0  0  0  0
 24  5  1  0  0  0  0
 25 19  1  6  0  0  0
 25 17  1  0  0  0  0
 26 24  2  0  0  0  0
 26 13  1  0  0  0  0
 28 10  1  0  0  0  0
 28 12  2  0  0  0  0
M  END
>  <MODEL>
2

>  <REMARK>
 VINA RESULT:      -7.3      3.060      7.003
  Name = 
  0 active torsions:
  status: ('A' for Active; 'I' for Inactive)
                            x       y       z     vdW  Elec       q    Type
                         _______ _______ _______ _____ _____    ______ ____

>  <TORSDO>
F 0

$$$$
=
 OpenBabel11122411503D

 28 32  0  0  1  0  0  0  0  0999 V2000
  186.9750  177.8210  142.5310 C   0  0  0  0  0  0  0  0  0  0  0  0
  190.7140  175.8700  143.2500 O   0  0  0  0  0  0  0  0  0  0  0  0
  186.0560  180.1120  148.0030 O   0  0  0  0  0  0  0  0  0  0  0  0
  189.0550  179.2470  141.3070 C   0  0  0  0  0  3  0  0  0  0  0  0
  187.6450  178.3650  147.9460 N   0  0  0  0  0  0  0  0  0  0  0  0
  185.8350  177.0570  143.1250 C   0  0  0  0  0  2  0  0  0  0  0  0
  191.7220  178.0120  143.9620 O   0  0  0  0  0  0  0  0  0  0  0  0
  190.9880  176.7820  144.4120 S   0  0  0  0  0  0  0  0  0  0  0  0
  191.5490  176.0110  146.9820 C   0  0  0  0  0  0  0  0  0  0  0  0
  189.5080  177.2070  145.1950 N   0  0  0  0  0  0  0  0  0  0  0  0
  183.5050  179.5340  144.4700 O   0  0  0  0  0  0  0  0  0  0  0  0
  187.4460  177.8670  145.6970 C   0  0  0  0  0  0  0  0  0  0  0  0
  190.5250  176.9960  147.4830 C   0  0  0  0  0  2  0  0  0  0  0  0
  191.9220  175.9490  145.6010 N   0  0  0  0  0  2  0  0  0  0  0  0
  184.3680  178.6180  144.4820 C   0  0  0  0  0  0  0  0  0  0  0  0
  188.1580  178.0960  143.2550 C   0  0  0  0  0  0  0  0  0  0  0  0
  186.6410  179.1990  147.3630 C   0  0  0  0  0  0  0  0  0  0  0  0
  192.4300  175.1810  148.0760 S   0  0  0  0  0  0  0  0  0  0  0  0
  185.0210  178.2520  145.7740 C   0  0  0  0  0  2  0  0  0  0  0  0
  189.1840  178.8160  142.6280 C   0  0  0  0  0  3  0  0  0  0  0  0
  186.8590  178.2530  141.2030 C   0  0  0  0  0  3  0  0  0  0  0  0
  187.8920  178.9640  140.5930 C   0  0  0  0  0  3  0  0  0  0  0  0
  184.6820  177.9350  143.2680 N   0  0  0  0  0  2  0  0  0  0  0  0
  188.0980  177.5800  146.8560 C   0  0  0  0  0  0  0  0  0  0  0  0
  186.3870  178.9030  145.9060 C   0  0  2  0  0  3  0  0  0  0  0  0
  189.3730  177.1660  146.5370 C   0  0  0  0  0  0  0  0  0  0  0  0
  188.4010  178.6850  149.1450 C   0  0  0  0  0  1  0  0  0  0  0  0
  188.3440  177.6600  144.6590 C   0  0  0  0  0  0  0  0  0  0  0  0
  1  6  1  0  0  0  0
  1 16  1  0  0  0  0
  2  8  2  0  0  0  0
  4 20  1  0  0  0  0
  5 27  1  0  0  0  0
  6 23  1  0  0  0  0
  7  8  2  0  0  0  0
  8 10  1  0  0  0  0
  8 14  1  0  0  0  0
  9 13  1  0  0  0  0
  9 18  2  0  0  0  0
 10 26  1  0  0  0  0
 11 15  2  0  0  0  0
 12 25  1  0  0  0  0
 12 24  1  0  0  0  0
 14  9  1  0  0  0  0
 15 19  1  0  0  0  0
 16 28  1  0  0  0  0
 17  5  1  0  0  0  0
 17  3  2  0  0  0  0
 20 16  2  0  0  0  0
 21  1  2  0  0  0  0
 22 21  1  0  0  0  0
 22  4  2  0  0  0  0
 23 15  1  0  0  0  0
 24  5  1  0  0  0  0
 25 19  1  1  0  0  0
 25 17  1  0  0  0  0
 26 24  2  0  0  0  0
 26 13  1  0  0  0  0
 28 10  1  0  0  0  0
 28 12  2  0  0  0  0
M  END
>  <MODEL>
3

>  <REMARK>
 VINA RESULT:      -6.5      3.708      6.575
  Name = 
  0 active torsions:
  status: ('A' for Active; 'I' for Inactive)
                            x       y       z     vdW  Elec       q    Type
                         _______ _______ _______ _____ _____    ______ ____

>  <TORSDO>
F 0

$$$$
=
 OpenBabel11122411503D

 28 32  0  0  1  0  0  0  0  0999 V2000
  190.7520  177.0420  145.0130 C   0  0  0  0  0  0  0  0  0  0  0  0
  192.0360  177.5670  140.9660 O   0  0  0  0  0  0  0  0  0  0  0  0
  184.8260  177.5030  144.1740 O   0  0  0  0  0  0  0  0  0  0  0  0
  191.6140  174.5940  143.9520 C   0  0  0  0  0  3  0  0  0  0  0  0
  186.1190  178.3660  142.3960 N   0  0  0  0  0  0  0  0  0  0  0  0
  190.3360  178.3400  145.6290 C   0  0  0  0  0  2  0  0  0  0  0  0
  190.6580  175.6410  140.2540 O   0  0  0  0  0  0  0  0  0  0  0  0
  190.6900  177.1280  140.4620 S   0  0  0  0  0  0  0  0  0  0  0  0
  189.0500  178.5380  138.7780 C   0  0  0  0  0  0  0  0  0  0  0  0
  189.4550  177.6160  141.5660 N   0  0  0  0  0  0  0  0  0  0  0  0
  187.4230  177.6190  147.7180 O   0  0  0  0  0  0  0  0  0  0  0  0
  188.1950  178.0180  143.3530 C   0  0  0  0  0  0  0  0  0  0  0  0
  187.8950  178.2750  139.7090 C   0  0  0  0  0  2  0  0  0  0  0  0
  190.3320  177.9310  138.9770 N   0  0  0  0  0  2  0  0  0  0  0  0
  188.0730  178.0770  146.7430 C   0  0  0  0  0  0  0  0  0  0  0  0
  190.3110  176.6390  143.7310 C   0  0  0  0  0  0  0  0  0  0  0  0
  185.9510  177.8170  143.7050 C   0  0  0  0  0  0  0  0  0  0  0  0
  188.7570  179.3230  137.3780 S   0  0  0  0  0  0  0  0  0  0  0  0
  187.3320  178.6280  145.5700 C   0  0  0  0  0  2  0  0  0  0  0  0
  190.7470  175.4090  143.2210 C   0  0  0  0  0  3  0  0  0  0  0  0
  191.6270  176.2200  145.7360 C   0  0  0  0  0  3  0  0  0  0  0  0
  192.0550  175.0020  145.2100 C   0  0  0  0  0  3  0  0  0  0  0  0
  189.5000  178.0810  146.7930 N   0  0  0  0  0  2  0  0  0  0  0  0
  187.5260  178.4520  142.2500 C   0  0  0  0  0  0  0  0  0  0  0  0
  187.2510  177.6140  144.4420 C   0  0  2  0  0  3  0  0  0  0  0  0
  188.3160  178.2060  141.1480 C   0  0  0  0  0  0  0  0  0  0  0  0
  185.1500  178.2630  141.3180 C   0  0  0  0  0  1  0  0  0  0  0  0
  189.3910  177.4670  142.9160 C   0  0  0  0  0  0  0  0  0  0  0  0
  1  6  1  0  0  0  0
  1 21  1  0  0  0  0
  4 22  1  0  0  0  0
  5 17  1  0  0  0  0
  6 23  1  0  0  0  0
  7  8  2  0  0  0  0
  8  2  2  0  0  0  0
  8 10  1  0  0  0  0
  9 14  1  0  0  0  0
  9 13  1  0  0  0  0
 10 28  1  0  0  0  0
 12 25  1  0  0  0  0
 13 26  1  0  0  0  0
 14  8  1  0  0  0  0
 15 23  1  0  0  0  0
 15 11  2  0  0  0  0
 16  1  2  0  0  0  0
 17  3  2  0  0  0  0
 17 25  1  0  0  0  0
 18  9  2  0  0  0  0
 19 15  1  0  0  0  0
 20 16  1  0  0  0  0
 20  4  2  0  0  0  0
 22 21  2  0  0  0  0
 24  5  1  0  0  0  0
 24 12  1  0  0  0  0
 25 19  1  1  0  0  0
 26 10  1  0  0  0  0
 26 24  2  0  0  0  0
 27  5  1  0  0  0  0
 28 12  2  0  0  0  0
 28 16  1  0  0  0  0
M  END
>  <MODEL>
4

>  <REMARK>
 VINA RESULT:      -6.5      3.161      4.589
  Name = 
  0 active torsions:
  status: ('A' for Active; 'I' for Inactive)
                            x       y       z     vdW  Elec       q    Type
                         _______ _______ _______ _____ _____    ______ ____

>  <TORSDO>
F 0

$$$$
=
 OpenBabel11122411503D

 28 32  0  0  1  0  0  0  0  0999 V2000
  190.7160  177.1600  139.4540 C   0  0  0  0  0  0  0  0  0  0  0  0
  187.6210  178.7900  136.9910 O   0  0  0  0  0  0  0  0  0  0  0  0
  187.5970  176.4830  144.5390 O   0  0  0  0  0  0  0  0  0  0  0  0
  189.8420  175.2380  137.6100 C   0  0  0  0  0  3  0  0  0  0  0  0
  186.6010  177.9610  142.9890 N   0  0  0  0  0  0  0  0  0  0  0  0
  191.2450  178.1760  140.4150 C   0  0  0  0  0  2  0  0  0  0  0  0
  186.2090  176.8040  137.4100 O   0  0  0  0  0  0  0  0  0  0  0  0
  186.5700  178.1840  137.8780 S   0  0  0  0  0  0  0  0  0  0  0  0
  184.5270  179.5250  139.1210 C   0  0  0  0  0  0  0  0  0  0  0  0
  187.1230  178.1490  139.5140 N   0  0  0  0  0  0  0  0  0  0  0  0
  191.8810  176.4150  143.5560 O   0  0  0  0  0  0  0  0  0  0  0  0
  188.2750  177.8810  141.3960 C   0  0  0  0  0  0  0  0  0  0  0  0
  184.8740  178.8260  140.4090 C   0  0  0  0  0  2  0  0  0  0  0  0
  185.1630  179.1830  137.8830 N   0  0  0  0  0  2  0  0  0  0  0  0
  191.3090  177.1980  142.7540 C   0  0  0  0  0  0  0  0  0  0  0  0
  189.3310  176.9480  139.2660 C   0  0  0  0  0  0  0  0  0  0  0  0
  187.6620  177.1260  143.4580 C   0  0  0  0  0  0  0  0  0  0  0  0
  183.2210  180.5030  139.0930 S   0  0  0  0  0  0  0  0  0  0  0  0
  190.0030  177.8080  143.1410 C   0  0  0  0  0  2  0  0  0  0  0  0
  188.9130  175.9780  138.3450 C   0  0  0  0  0  3  0  0  0  0  0  0
  191.6390  176.4160  138.7080 C   0  0  0  0  0  3  0  0  0  0  0  0
  191.2060  175.4580  137.7920 C   0  0  0  0  0  3  0  0  0  0  0  0
  191.9340  177.5030  141.5070 N   0  0  0  0  0  2  0  0  0  0  0  0
  187.0500  178.3810  141.7120 C   0  0  0  0  0  0  0  0  0  0  0  0
  188.8370  177.0620  142.5150 C   0  0  2  0  0  3  0  0  0  0  0  0
  186.3440  178.5500  140.5400 C   0  0  0  0  0  0  0  0  0  0  0  0
  185.2180  177.8780  143.4270 C   0  0  0  0  0  1  0  0  0  0  0  0
  188.3060  177.7080  140.0200 C   0  0  0  0  0  0  0  0  0  0  0  0
  1  6  1  0  0  0  0
  2  8  2  0  0  0  0
  4 22  2  0  0  0  0
  4 20  1  0  0  0  0
  5 27  1  0  0  0  0
  5 17  1  0  0  0  0
  6 23  1  0  0  0  0
  7  8  2  0  0  0  0
  8 14  1  0  0  0  0
  8 10  1  0  0  0  0
  9 13  1  0  0  0  0
 10 28  1  0  0  0  0
 10 26  1  0  0  0  0
 12 24  1  0  0  0  0
 12 25  1  0  0  0  0
 13 26  1  0  0  0  0
 14  9  1  0  0  0  0
 15 19  1  0  0  0  0
 15 11  2  0  0  0  0
 16  1  1  0  0  0  0
 16 28  1  0  0  0  0
 17  3  2  0  0  0  0
 18  9  2  0  0  0  0
 20 16  2  0  0  0  0
 21  1  2  0  0  0  0
 22 21  1  0  0  0  0
 23 15  1  0  0  0  0
 24  5  1  0  0  0  0
 25 19  1  1  0  0  0
 25 17  1  0  0  0  0
 26 24  2  0  0  0  0
 28 12  2  0  0  0  0
M  END
>  <MODEL>
5

>  <REMARK>
 VINA RESULT:      -6.4      3.128      6.376
  Name = 
  0 active torsions:
  status: ('A' for Active; 'I' for Inactive)
                            x       y       z     vdW  Elec       q    Type
                         _______ _______ _______ _____ _____    ______ ____

>  <TORSDO>
F 0

$$$$
=
 OpenBabel11122411503D

 28 32  0  0  1  0  0  0  0  0999 V2000
  186.5600  177.5300  142.9120 C   0  0  0  0  0  0  0  0  0  0  0  0
  186.5370  176.6450  138.7260 O   0  0  0  0  0  0  0  0  0  0  0  0
  192.4220  178.6230  143.5990 O   0  0  0  0  0  0  0  0  0  0  0  0
  185.4190  179.6570  141.4850 C   0  0  0  0  0  3  0  0  0  0  0  0
  191.8900  177.4330  141.6290 N   0  0  0  0  0  0  0  0  0  0  0  0
  187.1130  176.3930  143.7100 C   0  0  0  0  0  2  0  0  0  0  0  0
  187.5270  178.8560  138.2290 O   0  0  0  0  0  0  0  0  0  0  0  0
  187.8140  177.4150  138.5380 S   0  0  0  0  0  0  0  0  0  0  0  0
  190.1320  176.4630  137.4240 C   0  0  0  0  0  0  0  0  0  0  0  0
  188.8040  177.2770  139.9470 N   0  0  0  0  0  0  0  0  0  0  0  0
  189.1110  177.8710  146.3910 O   0  0  0  0  0  0  0  0  0  0  0  0
  189.6190  177.2380  142.0140 C   0  0  0  0  0  0  0  0  0  0  0  0
  190.9030  177.0290  138.5880 C   0  0  0  0  0  2  0  0  0  0  0  0
  188.7330  176.7170  137.2530 N   0  0  0  0  0  2  0  0  0  0  0  0
  188.8710  177.2490  145.3240 C   0  0  0  0  0  0  0  0  0  0  0  0
  187.2020  178.0210  141.7510 C   0  0  0  0  0  0  0  0  0  0  0  0
  191.5710  178.0210  142.8920 C   0  0  0  0  0  0  0  0  0  0  0  0
  190.9630  175.7670  136.2050 S   0  0  0  0  0  0  0  0  0  0  0  0
  190.0030  176.8980  144.4160 C   0  0  0  0  0  2  0  0  0  0  0  0
  186.6200  179.0890  141.0560 C   0  0  0  0  0  3  0  0  0  0  0  0
  185.3520  178.1030  143.3310 C   0  0  0  0  0  3  0  0  0  0  0  0
  184.7830  179.1620  142.6230 C   0  0  0  0  0  3  0  0  0  0  0  0
  187.5280  176.8730  145.0200 N   0  0  0  0  0  2  0  0  0  0  0  0
  190.6360  176.9810  141.1480 C   0  0  0  0  0  0  0  0  0  0  0  0
  190.1170  177.8850  143.2680 C   0  0  2  0  0  3  0  0  0  0  0  0
  190.1220  177.0000  139.8690 C   0  0  0  0  0  0  0  0  0  0  0  0
  193.0470  177.7740  140.8190 C   0  0  0  0  0  1  0  0  0  0  0  0
  188.4780  177.4530  141.2540 C   0  0  0  0  0  0  0  0  0  0  0  0
  1 21  1  0  0  0  0
  1  6  1  0  0  0  0
  4 22  1  0  0  0  0
  5 17  1  0  0  0  0
  6 23  1  0  0  0  0
  7  8  2  0  0  0  0
  8  2  2  0  0  0  0
  8 10  1  0  0  0  0
  9 13  1  0  0  0  0
 10 28  1  0  0  0  0
 12 25  1  0  0  0  0
 13 26  1  0  0  0  0
 14  9  1  0  0  0  0
 14  8  1  0  0  0  0
 15 11  2  0  0  0  0
 16  1  2  0  0  0  0
 17 25  1  0  0  0  0
 17  3  2  0  0  0  0
 18  9  2  0  0  0  0
 19 15  1  0  0  0  0
 20  4  2  0  0  0  0
 20 16  1  0  0  0  0
 22 21  2  0  0  0  0
 23 15  1  0  0  0  0
 24  5  1  0  0  0  0
 24 12  1  0  0  0  0
 25 19  1  1  0  0  0
 26 10  1  0  0  0  0
 26 24  2  0  0  0  0
 27  5  1  0  0  0  0
 28 16  1  0  0  0  0
 28 12  2  0  0  0  0
M  END
>  <MODEL>
6

>  <REMARK>
 VINA RESULT:      -6.3      3.180      5.723
  Name = 
  0 active torsions:
  status: ('A' for Active; 'I' for Inactive)
                            x       y       z     vdW  Elec       q    Type
                         _______ _______ _______ _____ _____    ______ ____

>  <TORSDO>
F 0

$$$$
=
 OpenBabel11122411503D

 28 32  0  0  1  0  0  0  0  0999 V2000
  188.5890  175.5670  135.8440 C   0  0  0  0  0  0  0  0  0  0  0  0
  184.5180  176.7840  135.3410 O   0  0  0  0  0  0  0  0  0  0  0  0
  189.4310  177.4490  141.4810 O   0  0  0  0  0  0  0  0  0  0  0  0
  186.9030  173.3280  135.8950 C   0  0  0  0  0  3  0  0  0  0  0  0
  187.5700  178.4300  140.4070 N   0  0  0  0  0  0  0  0  0  0  0  0
  189.5230  176.7330  135.7670 C   0  0  0  0  0  2  0  0  0  0  0  0
  183.8460  175.4230  137.2930 O   0  0  0  0  0  0  0  0  0  0  0  0
  184.3120  176.7730  136.8290 S   0  0  0  0  0  0  0  0  0  0  0  0
  183.4080  178.8630  138.3560 C   0  0  0  0  0  0  0  0  0  0  0  0
  185.7710  177.2250  137.6340 N   0  0  0  0  0  0  0  0  0  0  0  0
  192.1300  176.1500  138.2640 O   0  0  0  0  0  0  0  0  0  0  0  0
  187.8680  177.4320  138.3430 C   0  0  0  0  0  0  0  0  0  0  0  0
  184.5430  178.6280  139.3190 C   0  0  0  0  0  2  0  0  0  0  0  0
  183.1480  177.9710  137.2660 N   0  0  0  0  0  2  0  0  0  0  0  0
  191.1210  176.6850  137.7350 C   0  0  0  0  0  0  0  0  0  0  0  0
  187.4160  175.5910  136.6330 C   0  0  0  0  0  0  0  0  0  0  0  0
  188.7510  177.6260  140.4370 C   0  0  0  0  0  0  0  0  0  0  0  0
  182.3050  180.0090  138.7190 S   0  0  0  0  0  0  0  0  0  0  0  0
  190.3070  177.6490  138.5330 C   0  0  0  0  0  2  0  0  0  0  0  0
  186.5890  174.4600  136.6510 C   0  0  0  0  0  3  0  0  0  0  0  0
  188.8910  174.4300  135.0840 C   0  0  0  0  0  3  0  0  0  0  0  0
  188.0540  173.3140  135.1090 C   0  0  0  0  0  3  0  0  0  0  0  0
  190.7960  176.3790  136.3790 N   0  0  0  0  0  2  0  0  0  0  0  0
  187.0800  178.2530  139.0900 C   0  0  0  0  0  0  0  0  0  0  0  0
  189.0710  176.9820  139.1110 C   0  0  2  0  0  3  0  0  0  0  0  0
  185.7830  178.1240  138.6400 C   0  0  0  0  0  0  0  0  0  0  0  0
  186.7830  178.7990  141.5720 C   0  0  0  0  0  1  0  0  0  0  0  0
  187.0380  176.7670  137.4520 C   0  0  0  0  0  0  0  0  0  0  0  0
  1 16  1  0  0  0  0
  2  8  2  0  0  0  0
  4 20  1  0  0  0  0
  5 17  1  0  0  0  0
  5 27  1  0  0  0  0
  6  1  1  0  0  0  0
  6 23  1  0  0  0  0
  8 14  1  0  0  0  0
  8  7  2  0  0  0  0
  8 10  1  0  0  0  0
  9 18  2  0  0  0  0
  9 13  1  0  0  0  0
 10 26  1  0  0  0  0
 12 24  1  0  0  0  0
 12 25  1  0  0  0  0
 14  9  1  0  0  0  0
 15 11  2  0  0  0  0
 15 19  1  0  0  0  0
 16 20  2  0  0  0  0
 16 28  1  0  0  0  0
 17  3  2  0  0  0  0
 21 22  1  0  0  0  0
 21  1  2  0  0  0  0
 22  4  2  0  0  0  0
 23 15  1  0  0  0  0
 24  5  1  0  0  0  0
 25 19  1  6  0  0  0
 25 17  1  0  0  0  0
 26 24  2  0  0  0  0
 26 13  1  0  0  0  0
 28 10  1  0  0  0  0
 28 12  2  0  0  0  0
M  END
>  <MODEL>
7

>  <REMARK>
 VINA RESULT:      -6.2      3.493      7.743
  Name = 
  0 active torsions:
  status: ('A' for Active; 'I' for Inactive)
                            x       y       z     vdW  Elec       q    Type
                         _______ _______ _______ _____ _____    ______ ____

>  <TORSDO>
F 0

$$$$
=
 OpenBabel11122411503D

 28 32  0  0  1  0  0  0  0  0999 V2000
  183.2270  178.0720  137.3000 C   0  0  0  0  0  0  0  0  0  0  0  0
  187.2560  179.4600  136.9220 O   0  0  0  0  0  0  0  0  0  0  0  0
  184.3070  172.1800  137.6910 O   0  0  0  0  0  0  0  0  0  0  0  0
  184.0530  179.2890  139.6870 C   0  0  0  0  0  3  0  0  0  0  0  0
  186.1040  173.4300  136.8030 N   0  0  0  0  0  0  0  0  0  0  0  0
  182.7340  177.4640  136.0250 C   0  0  0  0  0  2  0  0  0  0  0  0
  187.8560  178.3740  139.0610 O   0  0  0  0  0  0  0  0  0  0  0  0
  187.7690  178.2050  137.5720 S   0  0  0  0  0  0  0  0  0  0  0  0
  189.6190  176.4750  136.5230 C   0  0  0  0  0  0  0  0  0  0  0  0
  186.7520  176.8690  137.1670 N   0  0  0  0  0  0  0  0  0  0  0  0
  180.6950  174.5770  136.9630 O   0  0  0  0  0  0  0  0  0  0  0  0
  185.0490  175.4880  136.8000 C   0  0  0  0  0  0  0  0  0  0  0  0
  188.7100  175.3230  136.8650 C   0  0  0  0  0  2  0  0  0  0  0  0
  189.3270  177.8150  136.9390 N   0  0  0  0  0  2  0  0  0  0  0  0
  181.6820  175.2060  136.4990 C   0  0  0  0  0  0  0  0  0  0  0  0
  184.4860  177.7440  137.8550 C   0  0  0  0  0  0  0  0  0  0  0  0
  184.7610  173.2750  137.2680 C   0  0  0  0  0  0  0  0  0  0  0  0
  191.0880  176.1480  135.8930 S   0  0  0  0  0  0  0  0  0  0  0  0
  182.9210  174.4550  136.1410 C   0  0  0  0  0  2  0  0  0  0  0  0
  184.8780  178.3580  139.0520 C   0  0  0  0  0  3  0  0  0  0  0  0
  182.4090  179.0110  137.9410 C   0  0  0  0  0  3  0  0  0  0  0  0
  182.8180  179.6170  139.1300 C   0  0  0  0  0  3  0  0  0  0  0  0
  181.5830  176.6170  136.3020 N   0  0  0  0  0  2  0  0  0  0  0  0
  186.2060  174.8200  136.5430 C   0  0  0  0  0  0  0  0  0  0  0  0
  183.9650  174.5560  137.2400 C   0  0  2  0  0  3  0  0  0  0  0  0
  187.2570  175.6840  136.7670 C   0  0  0  0  0  0  0  0  0  0  0  0
  187.2020  172.5330  137.1150 C   0  0  0  0  0  1  0  0  0  0  0  0
  185.3980  176.7640  137.2210 C   0  0  0  0  0  0  0  0  0  0  0  0
  1 16  2  0  0  0  0
  1 21  1  0  0  0  0
  2  8  2  0  0  0  0
  5 27  1  0  0  0  0
  5 17  1  0  0  0  0
  6 23  1  0  0  0  0
  6  1  1  0  0  0  0
  8  7  2  0  0  0  0
  9 13  1  0  0  0  0
  9 14  1  0  0  0  0
 10 28  1  0  0  0  0
 10  8  1  0  0  0  0
 12 28  2  0  0  0  0
 12 25  1  0  0  0  0
 14  8  1  0  0  0  0
 15 11  2  0  0  0  0
 16 20  1  0  0  0  0
 17  3  2  0  0  0  0
 18  9  2  0  0  0  0
 19 15  1  0  0  0  0
 20  4  2  0  0  0  0
 21 22  2  0  0  0  0
 22  4  1  0  0  0  0
 23 15  1  0  0  0  0
 24 26  2  0  0  0  0
 24 12  1  0  0  0  0
 24  5  1  0  0  0  0
 25 19  1  6  0  0  0
 25 17  1  0  0  0  0
 26 13  1  0  0  0  0
 26 10  1  0  0  0  0
 28 16  1  0  0  0  0
M  END
>  <MODEL>
8

>  <REMARK>
 VINA RESULT:      -6.1      4.272      5.947
  Name = 
  0 active torsions:
  status: ('A' for Active; 'I' for Inactive)
                            x       y       z     vdW  Elec       q    Type
                         _______ _______ _______ _____ _____    ______ ____

>  <TORSDO>
F 0

$$$$
=
 OpenBabel11122411503D

 28 32  0  0  1  0  0  0  0  0999 V2000
  185.8600  177.9070  144.6430 C   0  0  0  0  0  0  0  0  0  0  0  0
  184.2100  177.6560  140.7040 O   0  0  0  0  0  0  0  0  0  0  0  0
  191.6570  178.4680  143.1880 O   0  0  0  0  0  0  0  0  0  0  0  0
  184.5450  180.2970  143.9980 C   0  0  0  0  0  3  0  0  0  0  0  0
  190.3050  177.6240  141.4440 N   0  0  0  0  0  0  0  0  0  0  0  0
  186.5240  176.6270  145.0420 C   0  0  0  0  0  2  0  0  0  0  0  0
  185.2110  179.8400  140.1200 O   0  0  0  0  0  0  0  0  0  0  0  0
  185.4140  178.3520  140.1350 S   0  0  0  0  0  0  0  0  0  0  0  0
  187.0350  177.4150  138.1320 C   0  0  0  0  0  0  0  0  0  0  0  0
  186.8240  177.9380  141.0430 N   0  0  0  0  0  0  0  0  0  0  0  0
  189.5240  177.5470  146.9190 O   0  0  0  0  0  0  0  0  0  0  0  0
  188.3240  177.5350  142.6330 C   0  0  0  0  0  0  0  0  0  0  0  0
  188.2390  177.7460  138.9750 C   0  0  0  0  0  2  0  0  0  0  0  0
  185.7100  177.7900  138.5300 N   0  0  0  0  0  2  0  0  0  0  0  0
  188.8390  177.1080  145.9590 C   0  0  0  0  0  0  0  0  0  0  0  0
  186.0910  178.5170  143.3890 C   0  0  0  0  0  0  0  0  0  0  0  0
  190.5420  178.0400  142.7910 C   0  0  0  0  0  0  0  0  0  0  0  0
  187.2740  176.8500  136.6200 S   0  0  0  0  0  0  0  0  0  0  0  0
  189.5110  176.8160  144.6590 C   0  0  0  0  0  2  0  0  0  0  0  0
  185.4290  179.7150  143.0870 C   0  0  0  0  0  3  0  0  0  0  0  0
  184.9660  178.4950  145.5470 C   0  0  0  0  0  3  0  0  0  0  0  0
  184.3120  179.6840  145.2280 C   0  0  0  0  0  3  0  0  0  0  0  0
  187.4420  176.8780  146.1440 N   0  0  0  0  0  2  0  0  0  0  0  0
  188.9170  177.3380  141.4240 C   0  0  0  0  0  0  0  0  0  0  0  0
  189.3190  177.9520  143.6700 C   0  0  2  0  0  3  0  0  0  0  0  0
  187.9790  177.5830  140.4440 C   0  0  0  0  0  0  0  0  0  0  0  0
  191.1200  177.9990  140.3010 C   0  0  0  0  0  1  0  0  0  0  0  0
  187.0190  177.9410  142.3880 C   0  0  0  0  0  0  0  0  0  0  0  0
  1  6  1  0  0  0  0
  1 21  1  0  0  0  0
  4 22  1  0  0  0  0
  5 17  1  0  0  0  0
  6 23  1  0  0  0  0
  7  8  2  0  0  0  0
  8  2  2  0  0  0  0
  8 10  1  0  0  0  0
  9 14  1  0  0  0  0
  9 13  1  0  0  0  0
 10 28  1  0  0  0  0
 12 25  1  0  0  0  0
 13 26  1  0  0  0  0
 14  8  1  0  0  0  0
 15 23  1  0  0  0  0
 15 11  2  0  0  0  0
 16  1  2  0  0  0  0
 17  3  2  0  0  0  0
 17 25  1  0  0  0  0
 18  9  2  0  0  0  0
 19 15  1  0  0  0  0
 20 16  1  0  0  0  0
 20  4  2  0  0  0  0
 22 21  2  0  0  0  0
 24  5  1  0  0  0  0
 24 12  1  0  0  0  0
 25 19  1  1  0  0  0
 26 10  1  0  0  0  0
 26 24  2  0  0  0  0
 27  5  1  0  0  0  0
 28 12  2  0  0  0  0
 28 16  1  0  0  0  0
M  END
>  <MODEL>
9

>  <REMARK>
 VINA RESULT:      -6.1      2.608      5.132
  Name = 
  0 active torsions:
  status: ('A' for Active; 'I' for Inactive)
                            x       y       z     vdW  Elec       q    Type
                         _______ _______ _______ _____ _____    ______ ____

>  <TORSDO>
F 0

$$$$
