=
 OpenBabel11122412113D

 34 41  0  0  1  0  0  0  0  0999 V2000
  187.8920  178.1270  140.4220 C   0  0  0  0  0  0  0  0  0  0  0  0
  185.8680  178.6060  138.9440 C   0  0  0  0  0  2  0  0  0  0  0  0
  190.8950  176.7300  146.0190 C   0  0  0  0  0  0  0  0  0  0  0  0
  189.6070  177.3790  141.9560 C   0  0  0  0  0  0  0  0  0  0  0  0
  189.1450  177.5620  144.4630 C   0  0  2  0  0  3  0  0  0  0  0  0
  189.4190  177.7790  146.9050 C   0  0  0  0  0  2  0  0  0  0  0  0
  190.7930  177.5670  147.1910 O   0  0  0  0  0  0  0  0  0  0  0  0
  191.6820  175.4280  144.1020 C   0  0  0  0  0  2  0  0  0  0  0  0
  185.7680  179.1120  141.3100 C   0  0  2  0  0  3  0  0  0  0  0  0
  182.9480  178.3550  142.6740 C   0  0  0  0  0  3  0  0  0  0  0  0
  187.6850  177.3060  144.1000 C   0  0  0  0  0  2  0  0  0  0  0  0
  190.3600  175.6290  143.4860 N   0  0  0  0  0  2  0  0  0  0  0  0
  185.9240  178.1910  142.5330 C   0  0  1  0  0  3  0  0  0  0  0  0
  184.4990  179.1990  139.2360 C   0  0  0  0  0  2  0  0  0  0  0  0
  190.0910  177.0590  143.3410 C   0  0  1  0  0  3  0  0  0  0  0  0
  191.8590  176.1550  145.3700 N   0  0  0  0  0  0  0  0  0  0  0  0
  183.4070  178.1250  141.2560 C   0  0  2  0  0  3  0  0  0  0  0  0
  188.2880  177.8130  141.7310 C   0  0  0  0  0  0  0  0  0  0  0  0
  189.4310  176.8700  145.8030 C   0  0  2  0  0  3  0  0  0  0  0  0
  187.3460  177.9300  142.8200 N   0  0  0  0  0  0  0  0  0  0  0  0
  190.0820  177.5120  139.6280 C   0  0  0  0  0  3  0  0  0  0  0  0
  183.7340  178.6290  143.7300 C   0  0  0  0  0  3  0  0  0  0  0  0
  190.4610  177.2370  140.9050 N   0  0  0  0  0  0  0  0  0  0  0  0
  185.2250  178.8510  143.7150 C   0  0  0  0  0  2  0  0  0  0  0  0
  184.3400  179.2450  140.7600 C   0  0  1  0  0  3  0  0  0  0  0  0
  188.7880  177.9640  139.3620 C   0  0  0  0  0  3  0  0  0  0  0  0
  186.5710  178.6280  140.2080 N   0  0  0  0  0  0  0  0  0  0  0  0
  182.2810  178.0130  140.4350 O   0  0  0  0  0  0  0  0  0  0  0  0
  181.2310  178.5420  141.1900 C   0  0  0  0  0  2  0  0  0  0  0  0
  179.6850  181.5200  139.9870 O   0  0  0  0  0  0  0  0  0  0  0  0
  180.9230  179.7420  139.0400 C   0  0  0  0  0  2  0  0  0  0  0  0
  180.2400  179.2430  140.2800 C   0  0  2  0  0  3  0  0  0  0  0  0
  180.7290  181.2380  139.0930 C   0  0  0  0  0  2  0  0  0  0  0  0
  179.7410  180.5020  140.9490 C   0  0  0  0  0  2  0  0  0  0  0  0
  1 18  1  0  0  0  0
  2 14  1  0  0  0  0
  2 27  1  0  0  0  0
  3  7  1  0  0  0  0
  5 11  1  6  0  0  0
  5 19  1  0  0  0  0
  6  7  1  0  0  0  0
  8 16  1  0  0  0  0
  9 27  1  6  0  0  0
  9 13  1  0  0  0  0
 10 22  2  0  0  0  0
 12  8  1  0  0  0  0
 13 20  1  0  0  0  0
 13 24  1  1  0  0  0
 15  4  1  6  0  0  0
 15 12  1  0  0  0  0
 15  5  1  0  0  0  0
 16  3  2  0  0  0  0
 17 28  1  6  0  0  0
 17 10  1  0  0  0  0
 18  4  2  0  0  0  0
 18 20  1  0  0  0  0
 19  3  1  0  0  0  0
 19  6  1  1  0  0  0
 20 11  1  0  0  0  0
 21 23  2  0  0  0  0
 23  4  1  0  0  0  0
 24 22  1  0  0  0  0
 25 14  1  6  0  0  0
 25 17  1  0  0  0  0
 25  9  1  0  0  0  0
 26 21  1  0  0  0  0
 26  1  2  0  0  0  0
 27  1  1  0  0  0  0
 28 29  1  0  0  0  0
 30 34  1  0  0  0  0
 31 33  1  0  0  0  0
 31 32  1  0  0  0  0
 32 34  1  0  0  0  0
 32 29  1  1  0  0  0
 33 30  1  0  0  0  0
M  END
>  <MODEL>
1

>  <REMARK>
 VINA RESULT:      -9.5      0.000      0.000
  Name = 
  3 active torsions:
  status: ('A' for Active; 'I' for Inactive)
    1  A    between atoms: C_17  and  O_28
    2  A    between atoms: O_28  and  C_29
    3  A    between atoms: C_29  and  C_32
                            x       y       z     vdW  Elec       q    Type
                         _______ _______ _______ _____ _____    ______ ____

>  <TORSDO>
F 3

$$$$
=
 OpenBabel11122412113D

 34 41  0  0  1  0  0  0  0  0999 V2000
  187.9400  178.1240  140.2080 C   0  0  0  0  0  0  0  0  0  0  0  0
  185.9730  178.5280  138.6350 C   0  0  0  0  0  2  0  0  0  0  0  0
  190.7250  176.8670  145.9490 C   0  0  0  0  0  0  0  0  0  0  0  0
  189.6050  177.4410  141.8270 C   0  0  0  0  0  0  0  0  0  0  0  0
  189.0230  177.6320  144.3080 C   0  0  2  0  0  3  0  0  0  0  0  0
  189.1780  177.8780  146.7570 C   0  0  0  0  0  2  0  0  0  0  0  0
  190.5430  177.7110  147.1080 O   0  0  0  0  0  0  0  0  0  0  0  0
  191.6370  175.5730  144.0840 C   0  0  0  0  0  2  0  0  0  0  0  0
  185.7490  179.0500  140.9880 C   0  0  2  0  0  3  0  0  0  0  0  0
  182.8940  178.2200  142.2290 C   0  0  0  0  0  3  0  0  0  0  0  0
  187.5900  177.3280  143.8800 C   0  0  0  0  0  2  0  0  0  0  0  0
  190.3390  175.7280  143.4070 N   0  0  0  0  0  2  0  0  0  0  0  0
  185.8770  178.1450  142.2260 C   0  0  1  0  0  3  0  0  0  0  0  0
  184.5750  179.0800  138.8570 C   0  0  0  0  0  2  0  0  0  0  0  0
  190.0350  177.1490  143.2350 C   0  0  1  0  0  3  0  0  0  0  0  0
  191.7340  176.3170  145.3510 N   0  0  0  0  0  0  0  0  0  0  0  0
  183.4240  177.9910  140.8370 C   0  0  2  0  0  3  0  0  0  0  0  0
  188.2850  177.8330  141.5360 C   0  0  0  0  0  0  0  0  0  0  0  0
  189.2690  176.9600  145.6660 C   0  0  2  0  0  3  0  0  0  0  0  0
  187.2910  177.9300  142.5810 N   0  0  0  0  0  0  0  0  0  0  0  0
  190.1820  177.5690  139.5210 C   0  0  0  0  0  3  0  0  0  0  0  0
  183.6220  178.5270  143.3180 C   0  0  0  0  0  3  0  0  0  0  0  0
  190.5100  177.3160  140.8170 N   0  0  0  0  0  0  0  0  0  0  0  0
  185.1050  178.7940  143.3690 C   0  0  0  0  0  2  0  0  0  0  0  0
  184.3450  179.1350  140.3730 C   0  0  1  0  0  3  0  0  0  0  0  0
  188.8890  177.9790  139.1920 C   0  0  0  0  0  3  0  0  0  0  0  0
  186.6160  178.5820  139.9290 N   0  0  0  0  0  0  0  0  0  0  0  0
  182.3410  177.8380  139.9660 O   0  0  0  0  0  0  0  0  0  0  0  0
  182.0030  176.4850  140.0480 C   0  0  0  0  0  2  0  0  0  0  0  0
  182.4300  176.7480  136.5180 O   0  0  0  0  0  0  0  0  0  0  0  0
  183.2230  175.3200  138.2280 C   0  0  0  0  0  2  0  0  0  0  0  0
  181.9020  175.8910  138.6550 C   0  0  2  0  0  3  0  0  0  0  0  0
  183.5880  176.1230  137.0020 C   0  0  0  0  0  2  0  0  0  0  0  0
  181.6430  176.9910  137.6530 C   0  0  0  0  0  2  0  0  0  0  0  0
  1 18  1  0  0  0  0
  2 14  1  0  0  0  0
  2 27  1  0  0  0  0
  3  7  1  0  0  0  0
  5 11  1  6  0  0  0
  5 19  1  0  0  0  0
  6  7  1  0  0  0  0
  8 16  1  0  0  0  0
  9 27  1  6  0  0  0
  9 13  1  0  0  0  0
 10 22  2  0  0  0  0
 12  8  1  0  0  0  0
 13 20  1  0  0  0  0
 13 24  1  1  0  0  0
 15  4  1  6  0  0  0
 15 12  1  0  0  0  0
 15  5  1  0  0  0  0
 16  3  2  0  0  0  0
 17 28  1  6  0  0  0
 17 10  1  0  0  0  0
 18  4  2  0  0  0  0
 18 20  1  0  0  0  0
 19  3  1  0  0  0  0
 19  6  1  1  0  0  0
 20 11  1  0  0  0  0
 21 23  2  0  0  0  0
 22 24  1  0  0  0  0
 23  4  1  0  0  0  0
 25 14  1  6  0  0  0
 25 17  1  0  0  0  0
 25  9  1  0  0  0  0
 26 21  1  0  0  0  0
 26  1  2  0  0  0  0
 27  1  1  0  0  0  0
 28 29  1  0  0  0  0
 30 33  1  0  0  0  0
 30 34  1  0  0  0  0
 31 32  1  0  0  0  0
 32 29  1  1  0  0  0
 33 31  1  0  0  0  0
 34 32  1  0  0  0  0
M  END
>  <MODEL>
2

>  <REMARK>
 VINA RESULT:      -9.1      1.569      2.160
  Name = 
  3 active torsions:
  status: ('A' for Active; 'I' for Inactive)
    1  A    between atoms: C_17  and  O_28
    2  A    between atoms: O_28  and  C_29
    3  A    between atoms: C_29  and  C_32
                            x       y       z     vdW  Elec       q    Type
                         _______ _______ _______ _____ _____    ______ ____

>  <TORSDO>
F 3

$$$$
=
 OpenBabel11122412113D

 34 41  0  0  1  0  0  0  0  0999 V2000
  187.8960  177.9440  138.2690 C   0  0  0  0  0  0  0  0  0  0  0  0
  186.2630  178.6140  140.1120 C   0  0  0  0  0  2  0  0  0  0  0  0
  193.2700  175.1580  135.8920 C   0  0  0  0  0  0  0  0  0  0  0  0
  189.4350  176.9620  136.6810 C   0  0  0  0  0  0  0  0  0  0  0  0
  191.7300  176.2200  137.5270 C   0  0  2  0  0  3  0  0  0  0  0  0
  194.1220  175.6320  137.6570 C   0  0  0  0  0  2  0  0  0  0  0  0
  194.5980  175.5260  136.3240 O   0  0  0  0  0  0  0  0  0  0  0  0
  191.2430  174.7030  134.5980 C   0  0  0  0  0  2  0  0  0  0  0  0
  188.5980  178.2690  140.6500 C   0  0  2  0  0  3  0  0  0  0  0  0
  189.0670  176.7170  143.4350 C   0  0  0  0  0  3  0  0  0  0  0  0
  191.0190  175.9050  138.8410 C   0  0  0  0  0  2  0  0  0  0  0  0
  190.4680  174.9170  135.8300 N   0  0  0  0  0  2  0  0  0  0  0  0
  189.4820  177.0190  140.4960 C   0  0  1  0  0  3  0  0  0  0  0  0
  186.4420  178.8790  141.5980 C   0  0  0  0  0  2  0  0  0  0  0  0
  190.7210  176.2620  136.3490 C   0  0  1  0  0  3  0  0  0  0  0  0
  192.6820  174.9750  134.7510 N   0  0  0  0  0  0  0  0  0  0  0  0
  187.7700  177.0460  142.7400 C   0  0  2  0  0  3  0  0  0  0  0  0
  189.0950  177.2630  138.0130 C   0  0  0  0  0  0  0  0  0  0  0  0
  192.8180  175.1610  137.3080 C   0  0  2  0  0  3  0  0  0  0  0  0
  189.9540  176.8730  139.1070 N   0  0  0  0  0  0  0  0  0  0  0  0
  187.4070  177.9400  135.9100 C   0  0  0  0  0  3  0  0  0  0  0  0
  190.2910  176.7220  142.8780 C   0  0  0  0  0  3  0  0  0  0  0  0
  188.5850  177.3030  135.6730 N   0  0  0  0  0  0  0  0  0  0  0  0
  190.6450  177.1370  141.4730 C   0  0  0  0  0  2  0  0  0  0  0  0
  187.8420  178.3840  141.9810 C   0  0  1  0  0  3  0  0  0  0  0  0
  187.0400  178.2740  137.2140 C   0  0  0  0  0  3  0  0  0  0  0  0
  187.5860  178.3020  139.6170 N   0  0  0  0  0  0  0  0  0  0  0  0
  186.7460  177.0660  143.6910 O   0  0  0  0  0  0  0  0  0  0  0  0
  187.3750  177.4130  144.8890 C   0  0  0  0  0  2  0  0  0  0  0  0
  184.3220  178.8630  146.0210 O   0  0  0  0  0  0  0  0  0  0  0  0
  186.3700  178.2180  147.0110 C   0  0  0  0  0  2  0  0  0  0  0  0
  186.6160  178.5400  145.5660 C   0  0  2  0  0  3  0  0  0  0  0  0
  184.8640  178.1940  147.1280 C   0  0  0  0  0  2  0  0  0  0  0  0
  185.2300  178.6410  144.9760 C   0  0  0  0  0  2  0  0  0  0  0  0
  1 27  1  0  0  0  0
  2 14  1  0  0  0  0
  3  7  1  0  0  0  0
  3 19  1  0  0  0  0
  4 18  2  0  0  0  0
  5 11  1  1  0  0  0
  7  6  1  0  0  0  0
  8 16  1  0  0  0  0
  8 12  1  0  0  0  0
  9 27  1  6  0  0  0
  9 25  1  0  0  0  0
 11 20  1  0  0  0  0
 13  9  1  0  0  0  0
 13 24  1  1  0  0  0
 15 12  1  1  0  0  0
 15  4  1  0  0  0  0
 15  5  1  0  0  0  0
 16  3  2  0  0  0  0
 17 10  1  0  0  0  0
 17 28  1  1  0  0  0
 18  1  1  0  0  0  0
 18 20  1  0  0  0  0
 19  5  1  0  0  0  0
 19  6  1  1  0  0  0
 20 13  1  0  0  0  0
 21 26  1  0  0  0  0
 22 10  2  0  0  0  0
 23 21  2  0  0  0  0
 23  4  1  0  0  0  0
 24 22  1  0  0  0  0
 25 14  1  6  0  0  0
 25 17  1  0  0  0  0
 26  1  2  0  0  0  0
 27  2  1  0  0  0  0
 28 29  1  0  0  0  0
 30 33  1  0  0  0  0
 31 33  1  0  0  0  0
 32 29  1  6  0  0  0
 32 31  1  0  0  0  0
 34 32  1  0  0  0  0
 34 30  1  0  0  0  0
M  END
>  <MODEL>
3

>  <REMARK>
 VINA RESULT:      -8.7      3.881      6.954
  Name = 
  3 active torsions:
  status: ('A' for Active; 'I' for Inactive)
    1  A    between atoms: C_17  and  O_28
    2  A    between atoms: O_28  and  C_29
    3  A    between atoms: C_29  and  C_32
                            x       y       z     vdW  Elec       q    Type
                         _______ _______ _______ _____ _____    ______ ____

>  <TORSDO>
F 3

$$$$
=
 OpenBabel11122412113D

 34 41  0  0  1  0  0  0  0  0999 V2000
  182.1220  178.7070  143.5580 C   0  0  0  0  0  0  0  0  0  0  0  0
  183.7430  178.7230  145.5290 C   0  0  0  0  0  2  0  0  0  0  0  0
  180.4630  178.0380  137.3060 C   0  0  0  0  0  0  0  0  0  0  0  0
  180.7500  178.3610  141.5950 C   0  0  0  0  0  0  0  0  0  0  0  0
  181.8790  178.4580  139.3040 C   0  0  2  0  0  3  0  0  0  0  0  0
  182.3040  178.7480  136.8910 C   0  0  0  0  0  2  0  0  0  0  0  0
  181.0400  178.8410  136.2530 O   0  0  0  0  0  0  0  0  0  0  0  0
  178.9510  176.9230  138.8730 C   0  0  0  0  0  2  0  0  0  0  0  0
  184.5610  179.2130  143.3030 C   0  0  2  0  0  3  0  0  0  0  0  0
  187.4180  177.8730  142.6530 C   0  0  0  0  0  3  0  0  0  0  0  0
  183.1080  177.8880  140.0090 C   0  0  0  0  0  2  0  0  0  0  0  0
  180.0770  176.8270  139.8150 N   0  0  0  0  0  2  0  0  0  0  0  0
  184.5420  178.3570  142.0240 C   0  0  1  0  0  3  0  0  0  0  0  0
  185.2330  179.0070  145.6320 C   0  0  0  0  0  2  0  0  0  0  0  0
  180.5900  178.1640  140.1150 C   0  0  1  0  0  3  0  0  0  0  0  0
  179.2660  177.6820  137.6510 N   0  0  0  0  0  0  0  0  0  0  0  0
  186.5670  177.7370  143.8900 C   0  0  2  0  0  3  0  0  0  0  0  0
  182.0260  178.4970  142.1750 C   0  0  0  0  0  0  0  0  0  0  0  0
  181.8160  177.8550  137.8940 C   0  0  2  0  0  3  0  0  0  0  0  0
  183.2230  178.4140  141.3700 N   0  0  0  0  0  0  0  0  0  0  0  0
  179.7220  178.5760  143.7300 C   0  0  0  0  0  3  0  0  0  0  0  0
  187.0100  178.3190  141.4520 C   0  0  0  0  0  3  0  0  0  0  0  0
  179.6420  178.3990  142.3840 N   0  0  0  0  0  0  0  0  0  0  0  0
  185.6470  178.8590  141.1020 C   0  0  0  0  0  2  0  0  0  0  0  0
  185.7900  179.0290  144.2040 C   0  0  1  0  0  3  0  0  0  0  0  0
  180.9660  178.7350  144.3430 C   0  0  0  0  0  3  0  0  0  0  0  0
  183.4150  178.9070  144.1320 N   0  0  0  0  0  0  0  0  0  0  0  0
  187.3900  177.3770  144.9620 O   0  0  0  0  0  0  0  0  0  0  0  0
  188.6840  177.3730  144.4340 C   0  0  0  0  0  2  0  0  0  0  0  0
  190.6970  176.8090  147.3230 O   0  0  0  0  0  0  0  0  0  0  0  0
  191.0740  177.5010  145.0930 C   0  0  0  0  0  2  0  0  0  0  0  0
  189.6700  177.8670  145.4780 C   0  0  2  0  0  3  0  0  0  0  0  0
  191.5400  176.6100  146.2200 C   0  0  0  0  0  2  0  0  0  0  0  0
  189.4460  177.1270  146.7750 C   0  0  0  0  0  2  0  0  0  0  0  0
  1 27  1  0  0  0  0
  1 26  1  0  0  0  0
  2 14  1  0  0  0  0
  3 16  2  0  0  0  0
  3 19  1  0  0  0  0
  4 18  1  0  0  0  0
  4 23  2  0  0  0  0
  5 11  1  1  0  0  0
  5 15  1  0  0  0  0
  7  6  1  0  0  0  0
  7  3  1  0  0  0  0
  8 12  1  0  0  0  0
  9 27  1  1  0  0  0
  9 25  1  0  0  0  0
 10 17  1  0  0  0  0
 11 20  1  0  0  0  0
 13 24  1  6  0  0  0
 13  9  1  0  0  0  0
 15 12  1  1  0  0  0
 15  4  1  0  0  0  0
 16  8  1  0  0  0  0
 17 25  1  0  0  0  0
 17 28  1  1  0  0  0
 18  1  2  0  0  0  0
 19  6  1  6  0  0  0
 19  5  1  0  0  0  0
 20 13  1  0  0  0  0
 20 18  1  0  0  0  0
 21 26  2  0  0  0  0
 22 10  2  0  0  0  0
 23 21  1  0  0  0  0
 24 22  1  0  0  0  0
 25 14  1  1  0  0  0
 27  2  1  0  0  0  0
 29 28  1  0  0  0  0
 31 32  1  0  0  0  0
 31 33  1  0  0  0  0
 32 29  1  6  0  0  0
 32 34  1  0  0  0  0
 33 30  1  0  0  0  0
 34 30  1  0  0  0  0
M  END
>  <MODEL>
4

>  <REMARK>
 VINA RESULT:      -8.5      3.197      9.461
  Name = 
  3 active torsions:
  status: ('A' for Active; 'I' for Inactive)
    1  A    between atoms: C_17  and  O_28
    2  A    between atoms: O_28  and  C_29
    3  A    between atoms: C_29  and  C_32
                            x       y       z     vdW  Elec       q    Type
                         _______ _______ _______ _____ _____    ______ ____

>  <TORSDO>
F 3

$$$$
=
 OpenBabel11122412113D

 34 41  0  0  1  0  0  0  0  0999 V2000
  190.1890  177.7070  141.5190 C   0  0  0  0  0  0  0  0  0  0  0  0
  190.5530  177.4090  139.0120 C   0  0  0  0  0  2  0  0  0  0  0  0
  186.6150  178.4020  146.9070 C   0  0  0  0  0  0  0  0  0  0  0  0
  189.5870  177.7090  143.8630 C   0  0  0  0  0  0  0  0  0  0  0  0
  187.2310  178.4670  144.5010 C   0  0  2  0  0  3  0  0  0  0  0  0
  185.2930  179.3690  145.7320 C   0  0  0  0  0  2  0  0  0  0  0  0
  185.6810  179.4880  147.0920 O   0  0  0  0  0  0  0  0  0  0  0  0
  188.4510  176.7980  147.1180 C   0  0  0  0  0  2  0  0  0  0  0  0
  188.5430  178.4990  139.8070 C   0  0  2  0  0  3  0  0  0  0  0  0
  185.8860  177.6440  138.1960 C   0  0  0  0  0  3  0  0  0  0  0  0
  186.7980  177.8690  143.1650 C   0  0  0  0  0  2  0  0  0  0  0  0
  188.3710  176.5900  145.6630 N   0  0  0  0  0  2  0  0  0  0  0  0
  187.4270  177.9790  140.7300 C   0  0  1  0  0  3  0  0  0  0  0  0
  189.7270  177.8050  137.7980 C   0  0  0  0  0  2  0  0  0  0  0  0
  188.5810  177.8600  144.9670 C   0  0  1  0  0  3  0  0  0  0  0  0
  187.5550  177.8560  147.6140 N   0  0  0  0  0  0  0  0  0  0  0  0
  187.2950  177.1310  138.0400 C   0  0  2  0  0  3  0  0  0  0  0  0
  189.2070  177.8270  142.5130 C   0  0  0  0  0  0  0  0  0  0  0  0
  186.1120  178.2170  145.5210 C   0  0  2  0  0  3  0  0  0  0  0  0
  187.8290  178.0600  142.1450 N   0  0  0  0  0  0  0  0  0  0  0  0
  191.8430  177.3010  143.2240 C   0  0  0  0  0  3  0  0  0  0  0  0
  185.3990  178.3240  139.2500 C   0  0  0  0  0  3  0  0  0  0  0  0
  190.8850  177.4470  144.1790 N   0  0  0  0  0  0  0  0  0  0  0  0
  186.1690  178.7940  140.4570 C   0  0  0  0  0  2  0  0  0  0  0  0
  188.3440  178.2260  138.3090 C   0  0  1  0  0  3  0  0  0  0  0  0
  191.5130  177.4300  141.8740 C   0  0  0  0  0  3  0  0  0  0  0  0
  189.8090  177.8900  140.1540 N   0  0  0  0  0  0  0  0  0  0  0  0
  187.4400  176.6070  136.7520 O   0  0  0  0  0  0  0  0  0  0  0  0
  187.1890  175.2400  136.8900 C   0  0  0  0  0  2  0  0  0  0  0  0
  190.1820  175.0360  134.9640 O   0  0  0  0  0  0  0  0  0  0  0  0
  189.3090  173.9490  136.8740 C   0  0  0  0  0  2  0  0  0  0  0  0
  188.1640  174.4460  136.0400 C   0  0  2  0  0  3  0  0  0  0  0  0
  190.5220  174.6000  136.2530 C   0  0  0  0  0  2  0  0  0  0  0  0
  188.8200  175.3610  135.0340 C   0  0  0  0  0  2  0  0  0  0  0  0
  1 26  2  0  0  0  0
  1 18  1  0  0  0  0
  2 27  1  0  0  0  0
  3  7  1  0  0  0  0
  3 16  2  0  0  0  0
  4 23  1  0  0  0  0
  5 11  1  6  0  0  0
  5 15  1  0  0  0  0
  5 19  1  0  0  0  0
  6  7  1  0  0  0  0
  8 16  1  0  0  0  0
  9 27  1  1  0  0  0
  9 13  1  0  0  0  0
 10 22  2  0  0  0  0
 12  8  1  0  0  0  0
 13 24  1  1  0  0  0
 13 20  1  0  0  0  0
 14  2  1  0  0  0  0
 15  4  1  6  0  0  0
 15 12  1  0  0  0  0
 17 28  1  6  0  0  0
 17 10  1  0  0  0  0
 17 25  1  0  0  0  0
 18  4  2  0  0  0  0
 19  6  1  6  0  0  0
 19  3  1  0  0  0  0
 20 18  1  0  0  0  0
 20 11  1  0  0  0  0
 21 23  2  0  0  0  0
 22 24  1  0  0  0  0
 25 14  1  1  0  0  0
 25  9  1  0  0  0  0
 26 21  1  0  0  0  0
 27  1  1  0  0  0  0
 28 29  1  0  0  0  0
 30 34  1  0  0  0  0
 30 33  1  0  0  0  0
 32 31  1  0  0  0  0
 32 29  1  1  0  0  0
 33 31  1  0  0  0  0
 34 32  1  0  0  0  0
M  END
>  <MODEL>
5

>  <REMARK>
 VINA RESULT:      -8.3      3.364      5.922
  Name = 
  3 active torsions:
  status: ('A' for Active; 'I' for Inactive)
    1  A    between atoms: C_17  and  O_28
    2  A    between atoms: O_28  and  C_29
    3  A    between atoms: C_29  and  C_32
                            x       y       z     vdW  Elec       q    Type
                         _______ _______ _______ _____ _____    ______ ____

>  <TORSDO>
F 3

$$$$
=
 OpenBabel11122412113D

 34 41  0  0  1  0  0  0  0  0999 V2000
  187.5640  177.8760  138.6300 C   0  0  0  0  0  0  0  0  0  0  0  0
  186.1000  178.4140  140.6490 C   0  0  0  0  0  2  0  0  0  0  0  0
  192.8890  175.6230  135.6520 C   0  0  0  0  0  0  0  0  0  0  0  0
  189.0010  177.0240  136.8780 C   0  0  0  0  0  0  0  0  0  0  0  0
  191.4480  176.5550  137.4490 C   0  0  2  0  0  3  0  0  0  0  0  0
  193.8880  176.2320  137.2940 C   0  0  0  0  0  2  0  0  0  0  0  0
  194.2100  176.1430  135.9150 O   0  0  0  0  0  0  0  0  0  0  0  0
  190.7850  174.9200  134.6200 C   0  0  0  0  0  2  0  0  0  0  0  0
  188.5060  178.3360  140.9030 C   0  0  2  0  0  3  0  0  0  0  0  0
  189.4720  176.9160  143.6300 C   0  0  0  0  0  3  0  0  0  0  0  0
  190.9390  176.2000  138.8440 C   0  0  0  0  0  2  0  0  0  0  0  0
  190.1430  175.0810  135.9350 N   0  0  0  0  0  2  0  0  0  0  0  0
  189.4970  177.1850  140.6580 C   0  0  1  0  0  3  0  0  0  0  0  0
  186.4250  178.7350  142.0990 C   0  0  0  0  0  2  0  0  0  0  0  0
  190.3070  176.4580  136.4020 C   0  0  1  0  0  3  0  0  0  0  0  0
  192.1930  175.3490  134.5940 N   0  0  0  0  0  0  0  0  0  0  0  0
  188.0730  177.0850  143.0940 C   0  0  2  0  0  3  0  0  0  0  0  0
  188.7910  177.3210  138.2380 C   0  0  0  0  0  0  0  0  0  0  0  0
  192.6120  175.6140  137.1120 C   0  0  2  0  0  3  0  0  0  0  0  0
  189.8130  177.0550  139.2250 N   0  0  0  0  0  0  0  0  0  0  0  0
  186.8000  177.7580  136.3480 C   0  0  0  0  0  3  0  0  0  0  0  0
  190.6130  177.0380  142.9290 C   0  0  0  0  0  3  0  0  0  0  0  0
  188.0040  177.2450  135.9780 N   0  0  0  0  0  0  0  0  0  0  0  0
  190.7490  177.4530  141.4860 C   0  0  0  0  0  2  0  0  0  0  0  0
  187.9070  178.4040  142.3150 C   0  0  1  0  0  3  0  0  0  0  0  0
  186.5570  178.0850  137.6830 C   0  0  0  0  0  3  0  0  0  0  0  0
  187.3810  178.2330  140.0010 N   0  0  0  0  0  0  0  0  0  0  0  0
  187.1740  177.0200  144.1620 O   0  0  0  0  0  0  0  0  0  0  0  0
  187.7450  177.8130  145.1610 C   0  0  0  0  0  2  0  0  0  0  0  0
  188.1120  177.3300  148.6740 O   0  0  0  0  0  0  0  0  0  0  0  0
  186.7590  178.6690  147.2720 C   0  0  0  0  0  2  0  0  0  0  0  0
  187.1660  177.4390  146.5130 C   0  0  2  0  0  3  0  0  0  0  0  0
  187.6180  178.6330  148.5130 C   0  0  0  0  0  2  0  0  0  0  0  0
  188.2440  176.8240  147.3730 C   0  0  0  0  0  2  0  0  0  0  0  0
  1 27  1  0  0  0  0
  2 14  1  0  0  0  0
  3  7  1  0  0  0  0
  3 19  1  0  0  0  0
  4 18  2  0  0  0  0
  5 11  1  1  0  0  0
  7  6  1  0  0  0  0
  8 12  1  0  0  0  0
  9 27  1  6  0  0  0
  9 25  1  0  0  0  0
 11 20  1  0  0  0  0
 13  9  1  0  0  0  0
 13 24  1  1  0  0  0
 15 12  1  1  0  0  0
 15  4  1  0  0  0  0
 15  5  1  0  0  0  0
 16  8  1  0  0  0  0
 16  3  2  0  0  0  0
 17 10  1  0  0  0  0
 17 28  1  1  0  0  0
 18  1  1  0  0  0  0
 18 20  1  0  0  0  0
 19  6  1  1  0  0  0
 19  5  1  0  0  0  0
 20 13  1  0  0  0  0
 21 26  1  0  0  0  0
 22 10  2  0  0  0  0
 23 21  2  0  0  0  0
 23  4  1  0  0  0  0
 24 22  1  0  0  0  0
 25 14  1  6  0  0  0
 25 17  1  0  0  0  0
 26  1  2  0  0  0  0
 27  2  1  0  0  0  0
 28 29  1  0  0  0  0
 31 33  1  0  0  0  0
 32 29  1  6  0  0  0
 32 31  1  0  0  0  0
 32 34  1  0  0  0  0
 33 30  1  0  0  0  0
 34 30  1  0  0  0  0
M  END
>  <MODEL>
6

>  <REMARK>
 VINA RESULT:      -8.2      3.708      7.530
  Name = 
  3 active torsions:
  status: ('A' for Active; 'I' for Inactive)
    1  A    between atoms: C_17  and  O_28
    2  A    between atoms: O_28  and  C_29
    3  A    between atoms: C_29  and  C_32
                            x       y       z     vdW  Elec       q    Type
                         _______ _______ _______ _____ _____    ______ ____

>  <TORSDO>
F 3

$$$$
=
 OpenBabel11122412113D

 34 41  0  0  1  0  0  0  0  0999 V2000
  188.1270  178.0900  140.9080 C   0  0  0  0  0  0  0  0  0  0  0  0
  187.0030  178.0480  138.6180 C   0  0  0  0  0  2  0  0  0  0  0  0
  188.2530  177.9160  147.4070 C   0  0  0  0  0  0  0  0  0  0  0  0
  188.9750  177.8250  143.1590 C   0  0  0  0  0  0  0  0  0  0  0  0
  187.3770  178.2530  145.1070 C   0  0  2  0  0  3  0  0  0  0  0  0
  186.4540  178.8220  147.3220 C   0  0  0  0  0  2  0  0  0  0  0  0
  187.5450  178.8690  148.2290 O   0  0  0  0  0  0  0  0  0  0  0  0
  189.9490  176.5200  146.3300 C   0  0  0  0  0  2  0  0  0  0  0  0
  185.7630  178.8300  140.5440 C   0  0  2  0  0  3  0  0  0  0  0  0
  182.7050  177.8180  140.6110 C   0  0  0  0  0  3  0  0  0  0  0  0
  186.2850  177.7250  144.1810 C   0  0  0  0  0  2  0  0  0  0  0  0
  189.0600  176.4270  145.1610 N   0  0  0  0  0  2  0  0  0  0  0  0
  185.4010  178.1110  141.8550 C   0  0  1  0  0  3  0  0  0  0  0  0
  185.6140  178.4490  138.1460 C   0  0  0  0  0  2  0  0  0  0  0  0
  188.7760  177.7670  144.6460 C   0  0  1  0  0  3  0  0  0  0  0  0
  189.4520  177.4220  147.3810 N   0  0  0  0  0  0  0  0  0  0  0  0
  183.7920  177.4840  139.6220 C   0  0  2  0  0  3  0  0  0  0  0  0
  187.8860  178.0130  142.2870 C   0  0  0  0  0  0  0  0  0  0  0  0
  187.0560  177.7930  146.5350 C   0  0  2  0  0  3  0  0  0  0  0  0
  186.5370  178.1170  142.7940 N   0  0  0  0  0  0  0  0  0  0  0  0
  190.4750  177.7320  141.3130 C   0  0  0  0  0  3  0  0  0  0  0  0
  182.8780  178.3460  141.8350 C   0  0  0  0  0  3  0  0  0  0  0  0
  190.2300  177.6870  142.6500 N   0  0  0  0  0  0  0  0  0  0  0  0
  184.1780  178.7980  142.4510 C   0  0  0  0  0  2  0  0  0  0  0  0
  184.7550  178.6640  139.3980 C   0  0  1  0  0  3  0  0  0  0  0  0
  189.4260  177.9370  140.4150 C   0  0  0  0  0  3  0  0  0  0  0  0
  187.0250  178.3430  140.0340 N   0  0  0  0  0  0  0  0  0  0  0  0
  183.1970  177.0910  138.4190 O   0  0  0  0  0  0  0  0  0  0  0  0
  182.8730  175.7440  138.6020 C   0  0  0  0  0  2  0  0  0  0  0  0
  185.0330  175.1370  135.8310 O   0  0  0  0  0  0  0  0  0  0  0  0
  184.2690  173.9020  137.6980 C   0  0  0  0  0  2  0  0  0  0  0  0
  183.2460  174.9480  137.3650 C   0  0  2  0  0  3  0  0  0  0  0  0
  185.4630  174.2770  136.8520 C   0  0  0  0  0  2  0  0  0  0  0  0
  183.9560  175.8470  136.3800 C   0  0  0  0  0  2  0  0  0  0  0  0
  1 18  1  0  0  0  0
  2 27  1  0  0  0  0
  3  7  1  0  0  0  0
  5 11  1  6  0  0  0
  5 19  1  0  0  0  0
  6  7  1  0  0  0  0
  8 16  1  0  0  0  0
  9 27  1  6  0  0  0
  9 13  1  0  0  0  0
 10 22  2  0  0  0  0
 12  8  1  0  0  0  0
 13 24  1  1  0  0  0
 13 20  1  0  0  0  0
 14  2  1  0  0  0  0
 15  4  1  6  0  0  0
 15  5  1  0  0  0  0
 15 12  1  0  0  0  0
 16  3  2  0  0  0  0
 17 28  1  6  0  0  0
 17 10  1  0  0  0  0
 18 20  1  0  0  0  0
 18  4  2  0  0  0  0
 19  6  1  1  0  0  0
 19  3  1  0  0  0  0
 20 11  1  0  0  0  0
 21 23  2  0  0  0  0
 22 24  1  0  0  0  0
 23  4  1  0  0  0  0
 25 14  1  6  0  0  0
 25 17  1  0  0  0  0
 25  9  1  0  0  0  0
 26  1  2  0  0  0  0
 26 21  1  0  0  0  0
 27  1  1  0  0  0  0
 28 29  1  0  0  0  0
 30 34  1  0  0  0  0
 30 33  1  0  0  0  0
 32 31  1  0  0  0  0
 32 29  1  1  0  0  0
 33 31  1  0  0  0  0
 34 32  1  0  0  0  0
M  END
>  <MODEL>
7

>  <REMARK>
 VINA RESULT:      -8.0      2.535      3.600
  Name = 
  3 active torsions:
  status: ('A' for Active; 'I' for Inactive)
    1  A    between atoms: C_17  and  O_28
    2  A    between atoms: O_28  and  C_29
    3  A    between atoms: C_29  and  C_32
                            x       y       z     vdW  Elec       q    Type
                         _______ _______ _______ _____ _____    ______ ____

>  <TORSDO>
F 3

$$$$
=
 OpenBabel11122412113D

 34 41  0  0  1  0  0  0  0  0999 V2000
  187.5170  177.9920  140.1230 C   0  0  0  0  0  0  0  0  0  0  0  0
  189.7830  177.6440  141.2430 C   0  0  0  0  0  2  0  0  0  0  0  0
  181.1250  179.1840  140.0140 C   0  0  0  0  0  0  0  0  0  0  0  0
  185.3370  178.6280  139.2870 C   0  0  0  0  0  0  0  0  0  0  0  0
  183.3430  178.4670  140.8760 C   0  0  2  0  0  3  0  0  0  0  0  0
  181.0630  178.2270  141.7880 C   0  0  0  0  0  2  0  0  0  0  0  0
  180.1630  178.3520  140.6980 O   0  0  0  0  0  0  0  0  0  0  0  0
  182.4120  180.4400  138.3540 C   0  0  0  0  0  2  0  0  0  0  0  0
  187.7550  177.1390  142.4650 C   0  0  2  0  0  3  0  0  0  0  0  0
  187.8400  178.0650  145.5500 C   0  0  0  0  0  3  0  0  0  0  0  0
  184.3370  178.8140  141.9810 C   0  0  0  0  0  2  0  0  0  0  0  0
  183.5790  180.3240  139.2440 N   0  0  0  0  0  2  0  0  0  0  0  0
  186.5720  178.0450  142.8500 C   0  0  1  0  0  3  0  0  0  0  0  0
  190.1830  177.1370  142.6200 C   0  0  0  0  0  2  0  0  0  0  0  0
  183.8770  178.9130  139.4900 C   0  0  1  0  0  3  0  0  0  0  0  0
  181.2310  179.7000  138.8290 N   0  0  0  0  0  0  0  0  0  0  0  0
  188.8720  178.2710  144.4700 C   0  0  2  0  0  3  0  0  0  0  0  0
  186.1660  178.2770  140.3690 C   0  0  0  0  0  0  0  0  0  0  0  0
  182.0030  179.1370  141.2120 C   0  0  2  0  0  3  0  0  0  0  0  0
  185.6460  178.2160  141.7160 N   0  0  0  0  0  0  0  0  0  0  0  0
  187.1790  178.4720  137.7870 C   0  0  0  0  0  3  0  0  0  0  0  0
  186.5480  177.7400  145.3650 C   0  0  0  0  0  3  0  0  0  0  0  0
  185.8640  178.7200  138.0350 N   0  0  0  0  0  0  0  0  0  0  0  0
  185.8730  177.4260  144.0540 C   0  0  0  0  0  2  0  0  0  0  0  0
  188.9100  177.0960  143.4750 C   0  0  1  0  0  3  0  0  0  0  0  0
  188.0310  178.1010  138.8280 C   0  0  0  0  0  3  0  0  0  0  0  0
  188.3380  177.5750  141.2160 N   0  0  0  0  0  0  0  0  0  0  0  0
  190.1200  178.4540  145.0730 O   0  0  0  0  0  0  0  0  0  0  0  0
  190.1380  177.5540  146.1420 C   0  0  0  0  0  2  0  0  0  0  0  0
  192.4910  175.6760  148.0520 O   0  0  0  0  0  0  0  0  0  0  0  0
  191.9250  175.8750  145.7650 C   0  0  0  0  0  2  0  0  0  0  0  0
  191.5680  177.1560  146.4600 C   0  0  2  0  0  3  0  0  0  0  0  0
  192.2450  174.9240  146.8940 C   0  0  0  0  0  2  0  0  0  0  0  0
  191.6850  176.8160  147.9260 C   0  0  0  0  0  2  0  0  0  0  0  0
  1 18  1  0  0  0  0
  1 27  1  0  0  0  0
  2 14  1  0  0  0  0
  3  7  1  0  0  0  0
  3 19  1  0  0  0  0
  4 15  1  0  0  0  0
  4 18  2  0  0  0  0
  5 19  1  0  0  0  0
  5 11  1  1  0  0  0
  7  6  1  0  0  0  0
  8 16  1  0  0  0  0
  8 12  1  0  0  0  0
  9 27  1  6  0  0  0
  9 13  1  0  0  0  0
  9 25  1  0  0  0  0
 13 24  1  1  0  0  0
 15 12  1  1  0  0  0
 15  5  1  0  0  0  0
 16  3  2  0  0  0  0
 17 28  1  1  0  0  0
 17 10  1  0  0  0  0
 18 20  1  0  0  0  0
 19  6  1  1  0  0  0
 20 11  1  0  0  0  0
 20 13  1  0  0  0  0
 21 23  2  0  0  0  0
 21 26  1  0  0  0  0
 22 10  2  0  0  0  0
 23  4  1  0  0  0  0
 24 22  1  0  0  0  0
 25 14  1  6  0  0  0
 25 17  1  0  0  0  0
 26  1  2  0  0  0  0
 27  2  1  0  0  0  0
 28 29  1  0  0  0  0
 31 32  1  0  0  0  0
 31 33  1  0  0  0  0
 32 29  1  1  0  0  0
 32 34  1  0  0  0  0
 33 30  1  0  0  0  0
 34 30  1  0  0  0  0
M  END
>  <MODEL>
8

>  <REMARK>
 VINA RESULT:      -7.9      1.858      8.609
  Name = 
  3 active torsions:
  status: ('A' for Active; 'I' for Inactive)
    1  A    between atoms: C_17  and  O_28
    2  A    between atoms: O_28  and  C_29
    3  A    between atoms: C_29  and  C_32
                            x       y       z     vdW  Elec       q    Type
                         _______ _______ _______ _____ _____    ______ ____

>  <TORSDO>
F 3

$$$$
=
 OpenBabel11122412113D

 34 41  0  0  1  0  0  0  0  0999 V2000
  190.4070  177.6570  143.5640 C   0  0  0  0  0  0  0  0  0  0  0  0
  192.2340  176.9980  141.9100 C   0  0  0  0  0  2  0  0  0  0  0  0
  184.2900  178.8910  145.3950 C   0  0  0  0  0  0  0  0  0  0  0  0
  188.4840  177.9790  144.9980 C   0  0  0  0  0  0  0  0  0  0  0  0
  186.2640  178.6260  143.9100 C   0  0  2  0  0  3  0  0  0  0  0  0
  184.0110  179.5450  143.5090 C   0  0  0  0  0  2  0  0  0  0  0  0
  183.4780  179.9100  144.7730 O   0  0  0  0  0  0  0  0  0  0  0  0
  185.5500  177.5020  146.9670 C   0  0  0  0  0  2  0  0  0  0  0  0
  190.1990  178.0260  141.0970 C   0  0  2  0  0  3  0  0  0  0  0  0
  189.0820  176.7060  138.3770 C   0  0  0  0  0  3  0  0  0  0  0  0
  186.7310  177.7900  142.7210 C   0  0  0  0  0  2  0  0  0  0  0  0
  186.3800  177.0600  145.8340 N   0  0  0  0  0  2  0  0  0  0  0  0
  188.7350  177.5660  141.2140 C   0  0  1  0  0  3  0  0  0  0  0  0
  192.3490  177.1260  140.4000 C   0  0  0  0  0  2  0  0  0  0  0  0
  187.0160  178.2170  145.2040 C   0  0  1  0  0  3  0  0  0  0  0  0
  184.5740  178.5450  146.6120 N   0  0  0  0  0  0  0  0  0  0  0  0
  190.2680  176.2950  139.2130 C   0  0  2  0  0  3  0  0  0  0  0  0
  189.0250  177.8490  143.7050 C   0  0  0  0  0  0  0  0  0  0  0  0
  184.7470  178.4480  144.0520 C   0  0  2  0  0  3  0  0  0  0  0  0
  188.1780  177.9040  142.5350 N   0  0  0  0  0  0  0  0  0  0  0  0
  190.6380  177.6670  145.9630 C   0  0  0  0  0  3  0  0  0  0  0  0
  188.0700  177.5000  138.7690 C   0  0  0  0  0  3  0  0  0  0  0  0
  189.3000  177.8800  146.0840 N   0  0  0  0  0  0  0  0  0  0  0  0
  187.9420  178.2190  140.0880 C   0  0  0  0  0  2  0  0  0  0  0  0
  190.9600  177.5040  139.8700 C   0  0  1  0  0  3  0  0  0  0  0  0
  191.2180  177.5520  144.6980 C   0  0  0  0  0  3  0  0  0  0  0  0
  190.9580  177.5890  142.2480 N   0  0  0  0  0  0  0  0  0  0  0  0
  191.1620  175.5880  138.4030 O   0  0  0  0  0  0  0  0  0  0  0  0
  190.8180  175.9410  137.0950 C   0  0  0  0  0  2  0  0  0  0  0  0
  194.3210  175.4410  136.6580 O   0  0  0  0  0  0  0  0  0  0  0  0
  192.3430  174.5470  135.7200 C   0  0  0  0  0  2  0  0  0  0  0  0
  192.0540  175.9340  136.2150 C   0  0  2  0  0  3  0  0  0  0  0  0
  193.7090  174.2350  136.2840 C   0  0  0  0  0  2  0  0  0  0  0  0
  193.2680  176.2830  137.0430 C   0  0  0  0  0  2  0  0  0  0  0  0
  1 18  2  0  0  0  0
  1 26  1  0  0  0  0
  2 27  1  0  0  0  0
  3 16  2  0  0  0  0
  4 23  2  0  0  0  0
  5 11  1  6  0  0  0
  5 19  1  0  0  0  0
  5 15  1  0  0  0  0
  6  7  1  0  0  0  0
  7  3  1  0  0  0  0
  9 13  1  0  0  0  0
  9 27  1  1  0  0  0
 10 22  2  0  0  0  0
 10 17  1  0  0  0  0
 12  8  1  0  0  0  0
 13 24  1  6  0  0  0
 13 20  1  0  0  0  0
 14  2  1  0  0  0  0
 15  4  1  6  0  0  0
 15 12  1  0  0  0  0
 16  8  1  0  0  0  0
 17 28  1  6  0  0  0
 17 25  1  0  0  0  0
 18  4  1  0  0  0  0
 19  6  1  6  0  0  0
 19  3  1  0  0  0  0
 20 11  1  0  0  0  0
 20 18  1  0  0  0  0
 21 23  1  0  0  0  0
 22 24  1  0  0  0  0
 25 14  1  1  0  0  0
 25  9  1  0  0  0  0
 26 21  2  0  0  0  0
 27  1  1  0  0  0  0
 29 28  1  0  0  0  0
 30 34  1  0  0  0  0
 31 32  1  0  0  0  0
 31 33  1  0  0  0  0
 32 34  1  0  0  0  0
 32 29  1  1  0  0  0
 33 30  1  0  0  0  0
M  END
>  <MODEL>
9

>  <REMARK>
 VINA RESULT:      -7.9      3.587      7.909
  Name = 
  3 active torsions:
  status: ('A' for Active; 'I' for Inactive)
    1  A    between atoms: C_17  and  O_28
    2  A    between atoms: O_28  and  C_29
    3  A    between atoms: C_29  and  C_32
                            x       y       z     vdW  Elec       q    Type
                         _______ _______ _______ _____ _____    ______ ____

>  <TORSDO>
F 3

$$$$
