=
 OpenBabel11122410263D

 30 35  0  0  1  0  0  0  0  0999 V2000
  186.0750  178.4020  141.6770 C   0  0  0  0  0  0  0  0  0  0  0  0
  183.6150  179.0540  141.8110 C   0  0  0  0  0  0  0  0  0  0  0  0
  186.2530  177.6490  145.7980 N   0  0  0  0  0  2  0  0  0  0  0  0
  187.2730  177.9920  142.3090 C   0  0  0  0  0  0  0  0  0  0  0  0
  186.0810  178.5830  140.2590 N   0  0  0  0  0  2  0  0  0  0  0  0
  189.5220  177.6880  139.4140 O   0  0  0  0  0  1  0  0  0  0  0  0
  190.0880  178.5480  143.3300 C   0  0  1  0  0  3  0  0  0  0  0  0
  188.5070  178.3270  140.1310 C   0  0  1  0  0  3  0  0  0  0  0  0
  189.4630  178.2260  144.6330 N   0  0  2  0  0  0  0  0  0  0  0  0
  187.6080  177.2230  145.8840 C   0  0  0  0  0  0  0  0  0  0  0  0
  187.1690  178.0630  139.4460 C   0  0  2  0  0  3  0  0  0  0  0  0
  188.4890  177.8640  141.5290 N   0  0  0  0  0  0  0  0  0  0  0  0
  182.3920  179.0940  142.6190 C   0  0  0  0  0  3  0  0  0  0  0  0
  190.5370  177.6510  145.4330 C   0  0  0  0  0  2  0  0  0  0  0  0
  191.5890  178.6480  143.5380 C   0  0  0  0  0  2  0  0  0  0  0  0
  183.5480  179.3670  140.5940 O   0  0  0  0  0  0  0  0  0  0  0  0
  186.0900  177.9560  144.4240 C   0  0  0  0  0  0  0  0  0  0  0  0
  182.4220  178.8820  143.9330 C   0  0  0  0  0  3  0  0  0  0  0  0
  184.8930  178.6250  142.4350 C   0  0  0  0  0  0  0  0  0  0  0  0
  187.2430  177.7630  143.6920 C   0  0  0  0  0  0  0  0  0  0  0  0
  188.1140  176.8150  146.9620 O   0  0  0  0  0  0  0  0  0  0  0  0
  188.3480  177.2660  144.5740 C   0  0  1  0  0  3  0  0  0  0  0  0
  191.8220  178.3050  144.9870 C   0  0  0  0  0  2  0  0  0  0  0  0
  190.0020  176.1120  142.4280 C   0  0  0  0  0  1  0  0  0  0  0  0
  183.6970  178.6500  144.6970 C   0  0  0  0  0  2  0  0  0  0  0  0
  184.9050  178.3900  143.8300 C   0  0  0  0  0  0  0  0  0  0  0  0
  189.7870  177.5970  142.1530 C   0  0  2  0  0  3  0  0  0  0  0  0
  187.1430  178.6710  138.1890 O   0  0  0  0  0  0  0  0  0  0  0  0
  186.8610  176.5440  137.1650 C   0  0  0  0  0  1  0  0  0  0  0  0
  186.2530  177.9030  137.4380 C   0  0  0  0  0  2  0  0  0  0  0  0
  1  4  2  0  0  0  0
  1 19  1  0  0  0  0
  2 19  1  0  0  0  0
  2 13  1  0  0  0  0
  3 10  1  0  0  0  0
  4 20  1  0  0  0  0
  5  1  1  0  0  0  0
  7 15  1  1  0  0  0
  7  9  1  0  0  0  0
  8  6  1  6  0  0  0
  8 12  1  0  0  0  0
  9 14  1  1  0  0  0
 10 21  2  0  0  0  0
 11 28  1  6  0  0  0
 11  8  1  0  0  0  0
 11  5  1  0  0  0  0
 12 27  1  0  0  0  0
 12  4  1  0  0  0  0
 13 18  2  0  0  0  0
 15 23  1  0  0  0  0
 16  2  2  0  0  0  0
 17  3  1  0  0  0  0
 18 25  1  0  0  0  0
 19 26  2  0  0  0  0
 20 17  2  0  0  0  0
 22 20  1  6  0  0  0
 22  9  1  0  0  0  0
 22 10  1  0  0  0  0
 23 14  1  0  0  0  0
 26 17  1  0  0  0  0
 26 25  1  0  0  0  0
 27 24  1  1  0  0  0
 27  7  1  0  0  0  0
 29 30  1  0  0  0  0
 30 28  1  0  0  0  0
M  END
>  <MODEL>
1

>  <REMARK>
 VINA RESULT:      -9.8      0.000      0.000
  Name = 
  2 active torsions:
  status: ('A' for Active; 'I' for Inactive)
    1  A    between atoms: C_11  and  O_28
    2  A    between atoms: O_28  and  C_30
                            x       y       z     vdW  Elec       q    Type
                         _______ _______ _______ _____ _____    ______ ____

>  <TORSDO>
F 2

$$$$
=
 OpenBabel11122410263D

 30 35  0  0  1  0  0  0  0  0999 V2000
  186.9290  178.1370  142.3520 C   0  0  0  0  0  0  0  0  0  0  0  0
  188.1350  177.7150  144.5560 C   0  0  0  0  0  0  0  0  0  0  0  0
  183.2520  178.6730  144.2950 N   0  0  0  0  0  2  0  0  0  0  0  0
  185.7390  178.4020  141.6350 C   0  0  0  0  0  0  0  0  0  0  0  0
  188.1530  178.0240  141.6210 N   0  0  0  0  0  2  0  0  0  0  0  0
  187.0280  178.6300  138.1970 O   0  0  0  0  0  1  0  0  0  0  0  0
  183.4720  177.5350  139.7940 C   0  0  1  0  0  3  0  0  0  0  0  0
  186.9950  178.0560  139.4710 C   0  0  1  0  0  3  0  0  0  0  0  0
  182.6520  177.8530  140.9850 N   0  0  2  0  0  0  0  0  0  0  0  0
  182.4460  178.9650  143.1600 C   0  0  0  0  0  0  0  0  0  0  0  0
  188.2420  178.4770  140.2420 C   0  0  2  0  0  3  0  0  0  0  0  0
  185.7690  178.4510  140.1850 N   0  0  0  0  0  0  0  0  0  0  0  0
  188.0780  177.7510  146.0210 C   0  0  0  0  0  3  0  0  0  0  0  0
  181.3670  178.2850  140.4510 C   0  0  0  0  0  2  0  0  0  0  0  0
  182.5330  177.2850  138.6260 C   0  0  0  0  0  2  0  0  0  0  0  0
  189.2370  177.4670  144.0000 O   0  0  0  0  0  0  0  0  0  0  0  0
  184.5370  178.4490  143.7390 C   0  0  0  0  0  0  0  0  0  0  0  0
  186.9210  177.8970  146.6650 C   0  0  0  0  0  3  0  0  0  0  0  0
  186.9090  177.9910  143.7660 C   0  0  0  0  0  0  0  0  0  0  0  0
  184.5530  178.5670  142.3640 C   0  0  0  0  0  0  0  0  0  0  0  0
  181.2290  179.2720  143.2650 O   0  0  0  0  0  0  0  0  0  0  0  0
  183.1890  178.9150  141.8520 C   0  0  1  0  0  3  0  0  0  0  0  0
  181.1460  177.5340  139.1610 C   0  0  0  0  0  2  0  0  0  0  0  0
  184.0680  180.0080  139.2630 C   0  0  0  0  0  1  0  0  0  0  0  0
  185.5940  177.9710  145.9610 C   0  0  0  0  0  2  0  0  0  0  0  0
  185.6910  178.1570  144.4660 C   0  0  0  0  0  0  0  0  0  0  0  0
  184.5460  178.5650  139.3870 C   0  0  2  0  0  3  0  0  0  0  0  0
  189.3830  177.9350  139.6460 O   0  0  0  0  0  0  0  0  0  0  0  0
  191.5060  177.3710  140.5530 C   0  0  0  0  0  1  0  0  0  0  0  0
  190.0060  177.2070  140.6610 C   0  0  0  0  0  2  0  0  0  0  0  0
  1 19  1  0  0  0  0
  2 13  1  0  0  0  0
  4  1  2  0  0  0  0
  4 20  1  0  0  0  0
  5  1  1  0  0  0  0
  7 15  1  6  0  0  0
  7  9  1  0  0  0  0
  8  6  1  6  0  0  0
  8 12  1  0  0  0  0
  8 11  1  0  0  0  0
  9 14  1  6  0  0  0
  9 22  1  0  0  0  0
 10 21  2  0  0  0  0
 10  3  1  0  0  0  0
 11 28  1  6  0  0  0
 11  5  1  0  0  0  0
 12  4  1  0  0  0  0
 13 18  2  0  0  0  0
 15 23  1  0  0  0  0
 16  2  2  0  0  0  0
 17  3  1  0  0  0  0
 17 26  1  0  0  0  0
 19 26  2  0  0  0  0
 19  2  1  0  0  0  0
 20 17  2  0  0  0  0
 22 20  1  1  0  0  0
 22 10  1  0  0  0  0
 23 14  1  0  0  0  0
 25 18  1  0  0  0  0
 26 25  1  0  0  0  0
 27 24  1  1  0  0  0
 27  7  1  0  0  0  0
 27 12  1  0  0  0  0
 28 30  1  0  0  0  0
 29 30  1  0  0  0  0
M  END
>  <MODEL>
2

>  <REMARK>
 VINA RESULT:      -9.2      2.002      5.803
  Name = 
  2 active torsions:
  status: ('A' for Active; 'I' for Inactive)
    1  A    between atoms: C_11  and  O_28
    2  A    between atoms: O_28  and  C_30
                            x       y       z     vdW  Elec       q    Type
                         _______ _______ _______ _____ _____    ______ ____

>  <TORSDO>
F 2

$$$$
=
 OpenBabel11122410263D

 30 35  0  0  1  0  0  0  0  0999 V2000
  188.0030  177.8010  142.9310 C   0  0  0  0  0  0  0  0  0  0  0  0
  186.8880  177.8710  145.2210 C   0  0  0  0  0  0  0  0  0  0  0  0
  184.4700  178.9910  141.0110 N   0  0  0  0  0  2  0  0  0  0  0  0
  187.9300  177.9440  141.5250 C   0  0  0  0  0  0  0  0  0  0  0  0
  189.2590  177.4480  143.5150 N   0  0  0  0  0  2  0  0  0  0  0  0
  191.4150  177.2520  140.5700 O   0  0  0  0  0  1  0  0  0  0  0  0
  187.8480  176.7710  138.7150 C   0  0  1  0  0  3  0  0  0  0  0  0
  190.2700  177.0110  141.3350 C   0  0  1  0  0  3  0  0  0  0  0  0
  186.5150  177.4150  138.7030 N   0  0  2  0  0  0  0  0  0  0  0  0
  184.9530  179.0370  139.6730 C   0  0  0  0  0  0  0  0  0  0  0  0
  190.4910  177.5430  142.7480 C   0  0  2  0  0  3  0  0  0  0  0  0
  189.0900  177.6340  140.7110 N   0  0  0  0  0  0  0  0  0  0  0  0
  185.7200  178.2700  146.0130 C   0  0  0  0  0  3  0  0  0  0  0  0
  186.2820  177.7690  137.3080 C   0  0  0  0  0  2  0  0  0  0  0  0
  188.1550  176.2910  137.3070 C   0  0  0  0  0  2  0  0  0  0  0  0
  187.9070  177.4380  145.8210 O   0  0  0  0  0  0  0  0  0  0  0  0
  185.6000  178.5700  141.7560 C   0  0  0  0  0  0  0  0  0  0  0  0
  184.5790  178.6300  145.4310 C   0  0  0  0  0  3  0  0  0  0  0  0
  186.8540  178.0090  143.7430 C   0  0  0  0  0  0  0  0  0  0  0  0
  186.7090  178.3460  140.9660 C   0  0  0  0  0  0  0  0  0  0  0  0
  184.2340  179.4230  138.7150 O   0  0  0  0  0  0  0  0  0  0  0  0
  186.3950  178.6280  139.5280 C   0  0  1  0  0  3  0  0  0  0  0  0
  186.9880  176.7370  136.4640 C   0  0  0  0  0  2  0  0  0  0  0  0
  189.1770  179.0030  138.6410 C   0  0  0  0  0  1  0  0  0  0  0  0
  184.3720  178.5980  143.9410 C   0  0  0  0  0  2  0  0  0  0  0  0
  185.6370  178.4060  143.1400 C   0  0  0  0  0  0  0  0  0  0  0  0
  189.0270  177.6120  139.2470 C   0  0  2  0  0  3  0  0  0  0  0  0
  191.4950  176.8120  143.3860 O   0  0  0  0  0  0  0  0  0  0  0  0
  191.6800  176.3780  145.7150 C   0  0  0  0  0  1  0  0  0  0  0  0
  191.6550  177.4290  144.6270 C   0  0  0  0  0  2  0  0  0  0  0  0
  1  5  1  0  0  0  0
  1 19  1  0  0  0  0
  2 16  2  0  0  0  0
  2 13  1  0  0  0  0
  3 17  1  0  0  0  0
  4  1  2  0  0  0  0
  7 15  1  6  0  0  0
  7 27  1  0  0  0  0
  8  6  1  6  0  0  0
  8 11  1  0  0  0  0
  9 14  1  6  0  0  0
  9  7  1  0  0  0  0
  9 22  1  0  0  0  0
 10  3  1  0  0  0  0
 11 28  1  1  0  0  0
 11  5  1  0  0  0  0
 12  8  1  0  0  0  0
 12  4  1  0  0  0  0
 17 26  1  0  0  0  0
 18 13  2  0  0  0  0
 19  2  1  0  0  0  0
 20  4  1  0  0  0  0
 20 17  2  0  0  0  0
 21 10  2  0  0  0  0
 22 10  1  1  0  0  0
 22 20  1  0  0  0  0
 23 15  1  0  0  0  0
 23 14  1  0  0  0  0
 25 18  1  0  0  0  0
 26 19  2  0  0  0  0
 26 25  1  0  0  0  0
 27 24  1  1  0  0  0
 27 12  1  0  0  0  0
 28 30  1  0  0  0  0
 30 29  1  0  0  0  0
M  END
>  <MODEL>
3

>  <REMARK>
 VINA RESULT:      -8.7      1.601      5.660
  Name = 
  2 active torsions:
  status: ('A' for Active; 'I' for Inactive)
    1  A    between atoms: C_11  and  O_28
    2  A    between atoms: O_28  and  C_30
                            x       y       z     vdW  Elec       q    Type
                         _______ _______ _______ _____ _____    ______ ____

>  <TORSDO>
F 2

$$$$
=
 OpenBabel11122410263D

 30 35  0  0  1  0  0  0  0  0999 V2000
  189.3710  177.1920  143.6080 C   0  0  0  0  0  0  0  0  0  0  0  0
  191.2960  176.1330  144.8980 C   0  0  0  0  0  0  0  0  0  0  0  0
  187.3550  178.1940  147.1450 N   0  0  0  0  0  2  0  0  0  0  0  0
  188.1120  177.8380  143.5910 C   0  0  0  0  0  0  0  0  0  0  0  0
  190.0210  176.9360  142.3600 N   0  0  0  0  0  2  0  0  0  0  0  0
  187.6430  178.3640  139.9800 O   0  0  0  0  0  1  0  0  0  0  0  0
  185.1070  177.8350  143.0920 C   0  0  1  0  0  3  0  0  0  0  0  0
  188.0510  177.6000  141.0770 C   0  0  1  0  0  3  0  0  0  0  0  0
  185.0690  178.1170  144.5450 N   0  0  2  0  0  0  0  0  0  0  0  0
  186.2290  178.8520  146.5760 C   0  0  0  0  0  0  0  0  0  0  0  0
  189.5760  177.5900  141.1400 C   0  0  2  0  0  3  0  0  0  0  0  0
  187.4710  178.1300  142.3230 N   0  0  0  0  0  0  0  0  0  0  0  0
  191.9450  175.9270  146.1970 C   0  0  0  0  0  3  0  0  0  0  0  0
  183.8630  178.9130  144.7410 C   0  0  0  0  0  2  0  0  0  0  0  0
  183.7030  178.0080  142.5390 C   0  0  0  0  0  2  0  0  0  0  0  0
  191.8880  175.7460  143.8570 O   0  0  0  0  0  0  0  0  0  0  0  0
  188.1060  177.7870  146.0140 C   0  0  0  0  0  0  0  0  0  0  0  0
  191.3200  176.2150  147.3360 C   0  0  0  0  0  3  0  0  0  0  0  0
  189.9760  176.8110  144.8360 C   0  0  0  0  0  0  0  0  0  0  0  0
  187.5080  178.1360  144.8200 C   0  0  0  0  0  0  0  0  0  0  0  0
  185.3450  179.4010  147.2860 O   0  0  0  0  0  0  0  0  0  0  0  0
  186.2230  178.8650  145.0710 C   0  0  1  0  0  3  0  0  0  0  0  0
  182.8630  178.4660  143.7040 C   0  0  0  0  0  2  0  0  0  0  0  0
  186.0520  180.1650  142.4340 C   0  0  0  0  0  1  0  0  0  0  0  0
  189.8990  176.7060  147.3920 C   0  0  0  0  0  2  0  0  0  0  0  0
  189.3310  177.1220  146.0570 C   0  0  0  0  0  0  0  0  0  0  0  0
  186.1050  178.6530  142.2460 C   0  0  2  0  0  3  0  0  0  0  0  0
  190.0990  176.9170  140.0330 O   0  0  0  0  0  0  0  0  0  0  0  0
  192.1810  176.6080  138.9290 C   0  0  0  0  0  1  0  0  0  0  0  0
  191.3420  177.5100  139.8080 C   0  0  0  0  0  2  0  0  0  0  0  0
  1 19  1  0  0  0  0
  2 13  1  0  0  0  0
  4  1  2  0  0  0  0
  4 20  1  0  0  0  0
  5  1  1  0  0  0  0
  7 15  1  6  0  0  0
  7  9  1  0  0  0  0
  8  6  1  6  0  0  0
  8 11  1  0  0  0  0
  8 12  1  0  0  0  0
  9 14  1  6  0  0  0
  9 22  1  0  0  0  0
 10  3  1  0  0  0  0
 10 21  2  0  0  0  0
 11 28  1  6  0  0  0
 11  5  1  0  0  0  0
 12  4  1  0  0  0  0
 13 18  2  0  0  0  0
 15 23  1  0  0  0  0
 16  2  2  0  0  0  0
 17 26  1  0  0  0  0
 17  3  1  0  0  0  0
 18 25  1  0  0  0  0
 19  2  1  0  0  0  0
 19 26  2  0  0  0  0
 20 17  2  0  0  0  0
 22 20  1  6  0  0  0
 22 10  1  0  0  0  0
 23 14  1  0  0  0  0
 26 25  1  0  0  0  0
 27 12  1  0  0  0  0
 27 24  1  1  0  0  0
 27  7  1  0  0  0  0
 29 30  1  0  0  0  0
 30 28  1  0  0  0  0
M  END
>  <MODEL>
4

>  <REMARK>
 VINA RESULT:      -8.6      2.062      5.629
  Name = 
  2 active torsions:
  status: ('A' for Active; 'I' for Inactive)
    1  A    between atoms: C_11  and  O_28
    2  A    between atoms: O_28  and  C_30
                            x       y       z     vdW  Elec       q    Type
                         _______ _______ _______ _____ _____    ______ ____

>  <TORSDO>
F 2

$$$$
=
 OpenBabel11122410263D

 30 35  0  0  1  0  0  0  0  0999 V2000
  186.1440  178.2260  142.1330 C   0  0  0  0  0  0  0  0  0  0  0  0
  187.4430  177.8640  144.2950 C   0  0  0  0  0  0  0  0  0  0  0  0
  182.5740  178.9240  144.2200 N   0  0  0  0  0  2  0  0  0  0  0  0
  184.9260  178.4900  141.4610 C   0  0  0  0  0  0  0  0  0  0  0  0
  187.3290  178.0560  141.3520 N   0  0  0  0  0  2  0  0  0  0  0  0
  186.0580  178.5530  137.9610 O   0  0  0  0  0  1  0  0  0  0  0  0
  182.5580  177.6040  139.7630 C   0  0  1  0  0  3  0  0  0  0  0  0
  186.0720  178.0300  139.2580 C   0  0  1  0  0  3  0  0  0  0  0  0
  181.8020  177.9870  140.9770 N   0  0  2  0  0  0  0  0  0  0  0  0
  181.7210  179.1890  143.1120 C   0  0  0  0  0  0  0  0  0  0  0  0
  187.3630  178.4530  139.9530 C   0  0  2  0  0  3  0  0  0  0  0  0
  184.8900  178.4820  140.0110 N   0  0  0  0  0  0  0  0  0  0  0  0
  187.4540  177.9590  145.7580 C   0  0  0  0  0  3  0  0  0  0  0  0
  180.5020  178.4280  140.4860 C   0  0  0  0  0  2  0  0  0  0  0  0
  181.5610  177.3300  138.6510 C   0  0  0  0  0  2  0  0  0  0  0  0
  188.5120  177.5690  143.6990 O   0  0  0  0  0  0  0  0  0  0  0  0
  183.8260  178.6480  143.6150 C   0  0  0  0  0  0  0  0  0  0  0  0
  186.3330  178.1570  146.4480 C   0  0  0  0  0  3  0  0  0  0  0  0
  186.1870  178.1370  143.5510 C   0  0  0  0  0  0  0  0  0  0  0  0
  183.7800  178.7110  142.2380 C   0  0  0  0  0  0  0  0  0  0  0  0
  180.5180  179.5280  143.2610 O   0  0  0  0  0  0  0  0  0  0  0  0
  182.4010  179.0700  141.7750 C   0  0  1  0  0  3  0  0  0  0  0  0
  180.2060  177.6320  139.2390 C   0  0  0  0  0  2  0  0  0  0  0  0
  183.1810  180.0400  139.1060 C   0  0  0  0  0  1  0  0  0  0  0  0
  184.9760  178.2340  145.8040 C   0  0  0  0  0  2  0  0  0  0  0  0
  185.0060  178.3590  144.2990 C   0  0  0  0  0  0  0  0  0  0  0  0
  183.6330  178.5930  139.2660 C   0  0  2  0  0  3  0  0  0  0  0  0
  188.4630  177.8610  139.3280 O   0  0  0  0  0  0  0  0  0  0  0  0
  189.3670  178.4490  137.2100 C   0  0  0  0  0  1  0  0  0  0  0  0
  189.0770  178.8990  138.6250 C   0  0  0  0  0  2  0  0  0  0  0  0
  1 19  1  0  0  0  0
  2 13  1  0  0  0  0
  4  1  2  0  0  0  0
  4 20  1  0  0  0  0
  5  1  1  0  0  0  0
  7 15  1  6  0  0  0
  7  9  1  0  0  0  0
  8  6  1  6  0  0  0
  8 11  1  0  0  0  0
  8 12  1  0  0  0  0
  9 14  1  6  0  0  0
  9 22  1  0  0  0  0
 10 21  2  0  0  0  0
 10  3  1  0  0  0  0
 11 28  1  6  0  0  0
 11  5  1  0  0  0  0
 12  4  1  0  0  0  0
 13 18  2  0  0  0  0
 15 23  1  0  0  0  0
 16  2  2  0  0  0  0
 17  3  1  0  0  0  0
 17 26  1  0  0  0  0
 19  2  1  0  0  0  0
 19 26  2  0  0  0  0
 20 17  2  0  0  0  0
 22 20  1  1  0  0  0
 22 10  1  0  0  0  0
 23 14  1  0  0  0  0
 25 18  1  0  0  0  0
 26 25  1  0  0  0  0
 27 24  1  1  0  0  0
 27  7  1  0  0  0  0
 27 12  1  0  0  0  0
 29 30  1  0  0  0  0
 30 28  1  0  0  0  0
M  END
>  <MODEL>
5

>  <REMARK>
 VINA RESULT:      -8.1      2.344      6.027
  Name = 
  2 active torsions:
  status: ('A' for Active; 'I' for Inactive)
    1  A    between atoms: C_11  and  O_28
    2  A    between atoms: O_28  and  C_30
                            x       y       z     vdW  Elec       q    Type
                         _______ _______ _______ _____ _____    ______ ____

>  <TORSDO>
F 2

$$$$
=
 OpenBabel11122410263D

 30 35  0  0  1  0  0  0  0  0999 V2000
  188.0690  177.5720  142.9380 C   0  0  0  0  0  0  0  0  0  0  0  0
  186.0710  178.0360  144.4490 C   0  0  0  0  0  0  0  0  0  0  0  0
  185.9520  178.7710  139.5220 N   0  0  0  0  0  2  0  0  0  0  0  0
  188.6500  177.5310  141.6480 C   0  0  0  0  0  0  0  0  0  0  0  0
  188.8750  177.2010  144.0590 N   0  0  0  0  0  2  0  0  0  0  0  0
  192.0700  176.4430  142.4550 O   0  0  0  0  0  1  0  0  0  0  0  0
  189.6750  176.0030  139.2210 C   0  0  1  0  0  3  0  0  0  0  0  0
  190.6830  176.3980  142.6280 C   0  0  1  0  0  3  0  0  0  0  0  0
  188.5840  176.7430  138.5460 N   0  0  2  0  0  0  0  0  0  0  0  0
  186.9820  178.5990  138.5550 C   0  0  0  0  0  0  0  0  0  0  0  0
  190.3200  177.0950  143.9360 C   0  0  2  0  0  3  0  0  0  0  0  0
  189.9990  177.0230  141.4840 N   0  0  0  0  0  0  0  0  0  0  0  0
  184.7360  178.6280  144.5830 C   0  0  0  0  0  3  0  0  0  0  0  0
  189.0460  176.9250  137.1750 C   0  0  0  0  0  2  0  0  0  0  0  0
  190.5100  175.3170  138.1540 C   0  0  0  0  0  2  0  0  0  0  0  0
  186.6480  177.6070  145.4820 O   0  0  0  0  0  0  0  0  0  0  0  0
  186.5660  178.3650  140.7340 C   0  0  0  0  0  0  0  0  0  0  0  0
  184.0320  178.9970  143.5150 C   0  0  0  0  0  3  0  0  0  0  0  0
  186.7170  177.9770  143.1140 C   0  0  0  0  0  0  0  0  0  0  0  0
  187.8700  177.9500  140.5610 C   0  0  0  0  0  0  0  0  0  0  0  0
  186.8230  178.9100  137.3460 O   0  0  0  0  0  0  0  0  0  0  0  0
  188.2690  178.0610  139.1210 C   0  0  1  0  0  3  0  0  0  0  0  0
  189.9110  175.7370  136.8370 C   0  0  0  0  0  2  0  0  0  0  0  0
  191.1780  178.0920  139.5780 C   0  0  0  0  0  1  0  0  0  0  0  0
  184.5080  178.7820  142.1040 C   0  0  0  0  0  2  0  0  0  0  0  0
  185.9600  178.3850  141.9900 C   0  0  0  0  0  0  0  0  0  0  0  0
  190.5920  176.8120  140.1610 C   0  0  2  0  0  3  0  0  0  0  0  0
  190.8290  176.3780  145.0210 O   0  0  0  0  0  0  0  0  0  0  0  0
  191.2350  176.6730  147.3440 C   0  0  0  0  0  1  0  0  0  0  0  0
  190.4050  177.0840  146.1470 C   0  0  0  0  0  2  0  0  0  0  0  0
  1 19  1  0  0  0  0
  1  5  1  0  0  0  0
  2 13  1  0  0  0  0
  2 16  2  0  0  0  0
  3 17  1  0  0  0  0
  4  1  2  0  0  0  0
  7 15  1  6  0  0  0
  7 27  1  0  0  0  0
  8  6  1  6  0  0  0
  8 11  1  0  0  0  0
  9 14  1  6  0  0  0
  9 22  1  0  0  0  0
  9  7  1  0  0  0  0
 10  3  1  0  0  0  0
 11  5  1  0  0  0  0
 11 28  1  1  0  0  0
 12  4  1  0  0  0  0
 12  8  1  0  0  0  0
 17 26  1  0  0  0  0
 18 13  2  0  0  0  0
 19  2  1  0  0  0  0
 20 17  2  0  0  0  0
 20  4  1  0  0  0  0
 21 10  2  0  0  0  0
 22 10  1  6  0  0  0
 22 20  1  0  0  0  0
 23 14  1  0  0  0  0
 23 15  1  0  0  0  0
 25 18  1  0  0  0  0
 26 25  1  0  0  0  0
 26 19  2  0  0  0  0
 27 24  1  6  0  0  0
 27 12  1  0  0  0  0
 28 30  1  0  0  0  0
 30 29  1  0  0  0  0
M  END
>  <MODEL>
6

>  <REMARK>
 VINA RESULT:      -7.5      1.999      5.718
  Name = 
  2 active torsions:
  status: ('A' for Active; 'I' for Inactive)
    1  A    between atoms: C_11  and  O_28
    2  A    between atoms: O_28  and  C_30
                            x       y       z     vdW  Elec       q    Type
                         _______ _______ _______ _____ _____    ______ ____

>  <TORSDO>
F 2

$$$$
=
 OpenBabel11122410263D

 30 35  0  0  1  0  0  0  0  0999 V2000
  189.2390  177.0480  140.4930 C   0  0  0  0  0  0  0  0  0  0  0  0
  189.9170  176.8180  142.9390 C   0  0  0  0  0  0  0  0  0  0  0  0
  185.5940  178.8510  141.5180 N   0  0  0  0  0  2  0  0  0  0  0  0
  188.2970  177.4360  139.5110 C   0  0  0  0  0  0  0  0  0  0  0  0
  190.4830  176.4920  140.0600 N   0  0  0  0  0  2  0  0  0  0  0  0
  190.1260  176.6210  136.4250 O   0  0  0  0  0  1  0  0  0  0  0  0
  186.2000  176.7760  137.4030 C   0  0  1  0  0  3  0  0  0  0  0  0
  189.7340  176.3520  137.7400 C   0  0  1  0  0  3  0  0  0  0  0  0
  185.3220  177.5250  138.3310 N   0  0  2  0  0  0  0  0  0  0  0  0
  185.0900  179.0840  140.2090 C   0  0  0  0  0  0  0  0  0  0  0  0
  190.9110  176.6120  138.6750 C   0  0  2  0  0  3  0  0  0  0  0  0
  188.5680  177.1720  138.1110 N   0  0  0  0  0  0  0  0  0  0  0  0
  189.6400  177.1730  144.3340 C   0  0  0  0  0  3  0  0  0  0  0  0
  184.3070  178.1330  137.4800 C   0  0  0  0  0  2  0  0  0  0  0  0
  185.4260  176.5210  136.1220 C   0  0  0  0  0  2  0  0  0  0  0  0
  190.9810  176.2020  142.6700 O   0  0  0  0  0  0  0  0  0  0  0  0
  186.8380  178.2120  141.2850 C   0  0  0  0  0  0  0  0  0  0  0  0
  188.4830  177.7260  144.6920 C   0  0  0  0  0  3  0  0  0  0  0  0
  188.9560  177.2100  141.8770 C   0  0  0  0  0  0  0  0  0  0  0  0
  187.1030  178.0320  139.9430 C   0  0  0  0  0  0  0  0  0  0  0  0
  184.0050  179.6900  140.0080 O   0  0  0  0  0  0  0  0  0  0  0  0
  185.9870  178.5840  139.1090 C   0  0  1  0  0  3  0  0  0  0  0  0
  184.0950  177.2040  136.3090 C   0  0  0  0  0  2  0  0  0  0  0  0
  187.5330  178.8650  136.6180 C   0  0  0  0  0  1  0  0  0  0  0  0
  187.3560  177.9690  143.7250 C   0  0  0  0  0  2  0  0  0  0  0  0
  187.7360  177.8090  142.2730 C   0  0  0  0  0  0  0  0  0  0  0  0
  187.5670  177.4080  137.0680 C   0  0  2  0  0  3  0  0  0  0  0  0
  191.9370  175.6980  138.4240 O   0  0  0  0  0  0  0  0  0  0  0  0
  193.5990  176.3130  136.8410 C   0  0  0  0  0  1  0  0  0  0  0  0
  193.0800  176.4790  138.2530 C   0  0  0  0  0  2  0  0  0  0  0  0
  1 19  1  0  0  0  0
  2 13  1  0  0  0  0
  4 20  1  0  0  0  0
  4  1  2  0  0  0  0
  5  1  1  0  0  0  0
  7 15  1  6  0  0  0
  7  9  1  0  0  0  0
  8  6  1  6  0  0  0
  8 12  1  0  0  0  0
  8 11  1  0  0  0  0
  9 14  1  6  0  0  0
  9 22  1  0  0  0  0
 10  3  1  0  0  0  0
 11 28  1  6  0  0  0
 11  5  1  0  0  0  0
 12  4  1  0  0  0  0
 13 18  2  0  0  0  0
 15 23  1  0  0  0  0
 16  2  2  0  0  0  0
 17  3  1  0  0  0  0
 17 26  1  0  0  0  0
 19 26  2  0  0  0  0
 19  2  1  0  0  0  0
 20 17  2  0  0  0  0
 21 10  2  0  0  0  0
 22 20  1  1  0  0  0
 22 10  1  0  0  0  0
 23 14  1  0  0  0  0
 25 18  1  0  0  0  0
 26 25  1  0  0  0  0
 27 24  1  1  0  0  0
 27  7  1  0  0  0  0
 27 12  1  0  0  0  0
 29 30  1  0  0  0  0
 30 28  1  0  0  0  0
M  END
>  <MODEL>
7

>  <REMARK>
 VINA RESULT:      -7.3      2.592      6.334
  Name = 
  2 active torsions:
  status: ('A' for Active; 'I' for Inactive)
    1  A    between atoms: C_11  and  O_28
    2  A    between atoms: O_28  and  C_30
                            x       y       z     vdW  Elec       q    Type
                         _______ _______ _______ _____ _____    ______ ____

>  <TORSDO>
F 2

$$$$
=
 OpenBabel11122410263D

 30 35  0  0  1  0  0  0  0  0999 V2000
  186.5090  178.0140  144.7470 C   0  0  0  0  0  0  0  0  0  0  0  0
  184.0180  178.3080  145.1930 C   0  0  0  0  0  0  0  0  0  0  0  0
  186.0280  178.8470  140.6660 N   0  0  0  0  0  2  0  0  0  0  0  0
  187.6020  177.9910  143.8480 C   0  0  0  0  0  0  0  0  0  0  0  0
  186.7650  177.7750  146.1340 N   0  0  0  0  0  2  0  0  0  0  0  0
  190.3900  177.3180  146.1510 O   0  0  0  0  0  1  0  0  0  0  0  0
  189.7180  176.5000  142.2430 C   0  0  1  0  0  3  0  0  0  0  0  0
  189.0800  177.1260  145.7040 C   0  0  1  0  0  3  0  0  0  0  0  0
  188.9790  177.0890  141.1030 N   0  0  2  0  0  0  0  0  0  0  0  0
  187.3900  178.7560  140.2620 C   0  0  0  0  0  0  0  0  0  0  0  0
  188.1190  177.8250  146.6620 C   0  0  2  0  0  3  0  0  0  0  0  0
  188.9210  177.6300  144.3300 N   0  0  0  0  0  0  0  0  0  0  0  0
  182.7170  178.7520  144.6830 C   0  0  0  0  0  3  0  0  0  0  0  0
  189.9830  177.2720  140.0610 C   0  0  0  0  0  2  0  0  0  0  0  0
  190.9920  175.8720  141.7070 C   0  0  0  0  0  2  0  0  0  0  0  0
  184.1130  177.9820  146.4060 O   0  0  0  0  0  0  0  0  0  0  0  0
  186.0740  178.5560  142.0530 C   0  0  0  0  0  0  0  0  0  0  0  0
  182.5300  179.0020  143.3890 C   0  0  0  0  0  3  0  0  0  0  0  0
  185.1900  178.2720  144.2830 C   0  0  0  0  0  0  0  0  0  0  0  0
  187.3500  178.2810  142.5000 C   0  0  0  0  0  0  0  0  0  0  0  0
  187.7560  179.0030  139.0840 O   0  0  0  0  0  0  0  0  0  0  0  0
  188.3340  178.3850  141.3740 C   0  0  1  0  0  3  0  0  0  0  0  0
  191.0050  176.1750  140.2310 C   0  0  0  0  0  2  0  0  0  0  0  0
  190.7280  178.7540  143.0490 C   0  0  0  0  0  1  0  0  0  0  0  0
  183.5970  178.7910  142.3500 C   0  0  0  0  0  2  0  0  0  0  0  0
  184.9770  178.5540  142.9130 C   0  0  0  0  0  0  0  0  0  0  0  0
  190.0540  177.4380  143.4200 C   0  0  2  0  0  3  0  0  0  0  0  0
  188.1530  177.2090  147.9150 O   0  0  0  0  0  0  0  0  0  0  0  0
  189.7850  178.6270  148.9020 C   0  0  0  0  0  1  0  0  0  0  0  0
  188.3210  178.2530  148.8240 C   0  0  0  0  0  2  0  0  0  0  0  0
  1  5  1  0  0  0  0
  2 16  2  0  0  0  0
  3 17  1  0  0  0  0
  4 12  1  0  0  0  0
  4  1  2  0  0  0  0
  5 11  1  0  0  0  0
  7 15  1  6  0  0  0
  7 27  1  0  0  0  0
  8  6  1  1  0  0  0
  8 11  1  0  0  0  0
  9 14  1  6  0  0  0
  9 22  1  0  0  0  0
  9  7  1  0  0  0  0
 10  3  1  0  0  0  0
 11 28  1  1  0  0  0
 12  8  1  0  0  0  0
 13  2  1  0  0  0  0
 14 23  1  0  0  0  0
 17 20  2  0  0  0  0
 17 26  1  0  0  0  0
 18 13  2  0  0  0  0
 19  1  1  0  0  0  0
 19  2  1  0  0  0  0
 20  4  1  0  0  0  0
 21 10  2  0  0  0  0
 22 10  1  6  0  0  0
 22 20  1  0  0  0  0
 23 15  1  0  0  0  0
 25 26  1  0  0  0  0
 25 18  1  0  0  0  0
 26 19  2  0  0  0  0
 27 24  1  6  0  0  0
 27 12  1  0  0  0  0
 28 30  1  0  0  0  0
 30 29  1  0  0  0  0
M  END
>  <MODEL>
8

>  <REMARK>
 VINA RESULT:      -7.2      1.570      5.414
  Name = 
  2 active torsions:
  status: ('A' for Active; 'I' for Inactive)
    1  A    between atoms: C_11  and  O_28
    2  A    between atoms: O_28  and  C_30
                            x       y       z     vdW  Elec       q    Type
                         _______ _______ _______ _____ _____    ______ ____

>  <TORSDO>
F 2

$$$$
=
 OpenBabel11122410263D

 30 35  0  0  1  0  0  0  0  0999 V2000
  187.8070  177.8820  142.4710 C   0  0  0  0  0  0  0  0  0  0  0  0
  188.8060  177.7280  144.8100 C   0  0  0  0  0  0  0  0  0  0  0  0
  191.3050  176.3760  140.7170 N   0  0  0  0  0  2  0  0  0  0  0  0
  187.9300  177.7250  141.0700 C   0  0  0  0  0  0  0  0  0  0  0  0
  186.5610  178.3470  142.9960 N   0  0  0  0  0  2  0  0  0  0  0  0
  184.5670  178.7130  139.9550 O   0  0  0  0  0  1  0  0  0  0  0  0
  188.2430  178.8690  138.2640 C   0  0  1  0  0  3  0  0  0  0  0  0
  185.6930  178.8570  140.7710 C   0  0  1  0  0  3  0  0  0  0  0  0
  189.5140  178.1120  138.3150 N   0  0  2  0  0  0  0  0  0  0  0  0
  190.8820  176.3650  139.3580 C   0  0  0  0  0  0  0  0  0  0  0  0
  185.3620  178.3550  142.1730 C   0  0  2  0  0  3  0  0  0  0  0  0
  186.8410  178.1300  140.2020 N   0  0  0  0  0  0  0  0  0  0  0  0
  189.8970  177.2340  145.6550 C   0  0  0  0  0  3  0  0  0  0  0  0
  189.7780  177.7300  136.9330 C   0  0  0  0  0  2  0  0  0  0  0  0
  188.0430  179.3660  136.8430 C   0  0  0  0  0  2  0  0  0  0  0  0
  187.8030  178.2530  145.3610 O   0  0  0  0  0  0  0  0  0  0  0  0
  190.1840  176.8990  141.4090 C   0  0  0  0  0  0  0  0  0  0  0  0
  191.0280  176.7720  145.1260 C   0  0  0  0  0  3  0  0  0  0  0  0
  188.8950  177.5800  143.3350 C   0  0  0  0  0  0  0  0  0  0  0  0
  189.1360  177.2150  140.5680 C   0  0  0  0  0  0  0  0  0  0  0  0
  191.6070  175.9120  138.4350 O   0  0  0  0  0  0  0  0  0  0  0  0
  189.4900  176.8980  139.1470 C   0  0  1  0  0  3  0  0  0  0  0  0
  189.2040  178.8150  136.0550 C   0  0  0  0  0  2  0  0  0  0  0  0
  186.7280  176.7620  138.1340 C   0  0  0  0  0  1  0  0  0  0  0  0
  191.3040  176.7770  143.6480 C   0  0  0  0  0  2  0  0  0  0  0  0
  190.0980  177.0740  142.7890 C   0  0  0  0  0  0  0  0  0  0  0  0
  186.9720  178.1380  138.7430 C   0  0  2  0  0  3  0  0  0  0  0  0
  184.3980  179.1750  142.7630 O   0  0  0  0  0  0  0  0  0  0  0  0
  183.4310  179.0030  144.9280 C   0  0  0  0  0  1  0  0  0  0  0  0
  184.7030  179.1660  144.1240 C   0  0  0  0  0  2  0  0  0  0  0  0
  1  5  1  0  0  0  0
  1 19  1  0  0  0  0
  2 16  2  0  0  0  0
  2 13  1  0  0  0  0
  3 17  1  0  0  0  0
  4  1  2  0  0  0  0
  7 15  1  6  0  0  0
  7  9  1  0  0  0  0
  7 27  1  0  0  0  0
  8  6  1  6  0  0  0
  8 11  1  0  0  0  0
  9 14  1  6  0  0  0
  9 22  1  0  0  0  0
 10  3  1  0  0  0  0
 11 28  1  1  0  0  0
 11  5  1  0  0  0  0
 12  8  1  0  0  0  0
 12  4  1  0  0  0  0
 17 26  1  0  0  0  0
 18 13  2  0  0  0  0
 19  2  1  0  0  0  0
 20  4  1  0  0  0  0
 20 17  2  0  0  0  0
 21 10  2  0  0  0  0
 22 10  1  1  0  0  0
 22 20  1  0  0  0  0
 23 15  1  0  0  0  0
 23 14  1  0  0  0  0
 25 18  1  0  0  0  0
 26 19  2  0  0  0  0
 26 25  1  0  0  0  0
 27 24  1  1  0  0  0
 27 12  1  0  0  0  0
 28 30  1  0  0  0  0
 30 29  1  0  0  0  0
M  END
>  <MODEL>
9

>  <REMARK>
 VINA RESULT:      -7.1      1.928      6.214
  Name = 
  2 active torsions:
  status: ('A' for Active; 'I' for Inactive)
    1  A    between atoms: C_11  and  O_28
    2  A    between atoms: O_28  and  C_30
                            x       y       z     vdW  Elec       q    Type
                         _______ _______ _______ _____ _____    ______ ____

>  <TORSDO>
F 2

$$$$
