=
 OpenBabel11122412083D

 34 40  0  0  1  0  0  0  0  0999 V2000
  182.0760  178.7970  143.2360 C   0  0  0  0  0  0  0  0  0  0  0  0
  183.5870  178.8160  145.2780 C   0  0  0  0  0  2  0  0  0  0  0  0
  180.6040  179.9050  137.4810 C   0  0  1  0  0  3  0  0  0  0  0  0
  180.7860  178.3530  141.2310 C   0  0  0  0  0  0  0  0  0  0  0  0
  181.9040  178.2540  138.9590 C   0  0  1  0  0  3  0  0  0  0  0  0
  182.2560  180.6530  139.0300 O   0  0  0  0  0  1  0  0  0  0  0  0
  180.8690  180.7310  136.2380 C   0  0  0  0  0  1  0  0  0  0  0  0
  178.9590  178.5730  138.1540 C   0  0  0  0  0  2  0  0  0  0  0  0
  184.5460  179.3150  143.1090 C   0  0  2  0  0  3  0  0  0  0  0  0
  187.5380  178.1700  142.6390 C   0  0  0  0  0  2  0  0  0  0  0  0
  183.1960  177.9610  139.7290 C   0  0  0  0  0  2  0  0  0  0  0  0
  179.4890  177.6060  139.2100 C   0  0  0  0  0  2  0  0  0  0  0  0
  184.5520  178.4970  141.8040 C   0  0  1  0  0  3  0  0  0  0  0  0
  185.0780  179.0200  145.4750 C   0  0  0  0  0  2  0  0  0  0  0  0
  180.7170  178.1210  139.8110 N   0  0  0  0  0  0  0  0  0  0  0  0
  179.9050  178.7420  137.1340 O   0  0  0  0  0  0  0  0  0  0  0  0
  186.5840  177.8580  143.7870 C   0  0  2  0  0  3  0  0  0  0  0  0
  182.0240  178.6270  141.8430 C   0  0  0  0  0  0  0  0  0  0  0  0
  181.9280  179.5900  138.1880 C   0  0  2  0  0  3  0  0  0  0  0  0
  183.2740  178.8010  141.0070 C   0  0  2  0  0  3  0  0  0  0  0  0
  179.6970  178.4070  143.3470 C   0  0  0  0  0  3  0  0  0  0  0  0
  186.9080  177.8760  141.2860 C   0  0  0  0  0  2  0  0  0  0  0  0
  179.6650  178.2480  141.9980 N   0  0  0  0  0  0  0  0  0  0  0  0
  185.7800  178.8450  140.9740 C   0  0  0  0  0  2  0  0  0  0  0  0
  185.7160  179.0950  144.0840 C   0  0  1  0  0  3  0  0  0  0  0  0
  180.9040  178.6800  143.9920 C   0  0  0  0  0  3  0  0  0  0  0  0
  183.3400  179.0410  143.8700 N   0  0  0  0  0  0  0  0  0  0  0  0
  187.3770  177.4950  144.9520 N   0  0  0  0  0  2  0  0  0  0  0  0
  188.7400  177.2920  144.4890 C   0  0  0  0  0  2  0  0  0  0  0  0
  190.8390  176.6810  147.2280 N   0  0  0  0  0  2  0  0  0  0  0  0
  191.1320  177.5140  145.1120 C   0  0  0  0  0  2  0  0  0  0  0  0
  189.7200  177.8670  145.4960 C   0  0  0  0  0  3  0  0  0  0  0  0
  191.5890  176.5040  146.0530 N   0  0  0  0  0  2  0  0  0  0  0  0
  189.5340  177.1770  146.8190 C   0  0  0  0  0  2  0  0  0  0  0  0
  1 27  1  0  0  0  0
  1 26  1  0  0  0  0
  2 14  1  0  0  0  0
  3  7  1  6  0  0  0
  3 19  1  0  0  0  0
  4 18  1  0  0  0  0
  4 23  2  0  0  0  0
  5 11  1  1  0  0  0
  5 15  1  0  0  0  0
  8 12  1  0  0  0  0
  9 27  1  1  0  0  0
  9 25  1  0  0  0  0
 10 17  1  0  0  0  0
 12 15  1  0  0  0  0
 13 24  1  6  0  0  0
 13  9  1  0  0  0  0
 15  4  1  0  0  0  0
 16  3  1  0  0  0  0
 16  8  1  0  0  0  0
 17 25  1  0  0  0  0
 17 28  1  1  0  0  0
 18  1  2  0  0  0  0
 19  5  1  0  0  0  0
 19  6  1  1  0  0  0
 20 11  1  6  0  0  0
 20 13  1  0  0  0  0
 20 18  1  0  0  0  0
 21 26  2  0  0  0  0
 22 10  1  0  0  0  0
 23 21  1  0  0  0  0
 24 22  1  0  0  0  0
 25 14  1  1  0  0  0
 27  2  1  0  0  0  0
 29 28  1  0  0  0  0
 29 32  1  0  0  0  0
 31 32  1  0  0  0  0
 31 33  1  0  0  0  0
 32 34  1  0  0  0  0
 33 30  1  0  0  0  0
 34 30  1  0  0  0  0
M  END
>  <MODEL>
1

>  <REMARK>
 VINA RESULT:      -8.8      0.000      0.000
  Name = 
  3 active torsions:
  status: ('A' for Active; 'I' for Inactive)
    1  A    between atoms: C_17  and  N_28
    2  A    between atoms: N_28  and  C_29
    3  A    between atoms: C_29  and  C_32
                            x       y       z     vdW  Elec       q    Type
                         _______ _______ _______ _____ _____    ______ ____

>  <TORSDO>
F 3

$$$$
=
 OpenBabel11122412083D

 34 40  0  0  1  0  0  0  0  0999 V2000
  186.3040  178.3860  141.7790 C   0  0  0  0  0  0  0  0  0  0  0  0
  188.7540  177.7520  141.9970 C   0  0  0  0  0  2  0  0  0  0  0  0
  181.4770  180.8130  139.0710 C   0  0  1  0  0  3  0  0  0  0  0  0
  183.9120  178.5640  141.4210 C   0  0  0  0  0  0  0  0  0  0  0  0
  182.9520  178.7100  139.0800 C   0  0  1  0  0  3  0  0  0  0  0  0
  183.8480  180.9540  138.8550 O   0  0  0  0  0  1  0  0  0  0  0  0
  180.9580  181.8020  138.0470 C   0  0  0  0  0  1  0  0  0  0  0  0
  180.5710  179.6820  140.7550 C   0  0  0  0  0  2  0  0  0  0  0  0
  187.9230  178.4830  139.8410 C   0  0  2  0  0  3  0  0  0  0  0  0
  189.1970  176.9490  137.2910 C   0  0  0  0  0  2  0  0  0  0  0  0
  184.2610  178.0550  138.6220 C   0  0  0  0  0  2  0  0  0  0  0  0
  181.4260  178.4540  141.0590 C   0  0  0  0  0  2  0  0  0  0  0  0
  186.7690  177.9420  138.9760 C   0  0  1  0  0  3  0  0  0  0  0  0
  189.9020  177.6540  141.0090 C   0  0  0  0  0  2  0  0  0  0  0  0
  182.7790  178.6240  140.5350 N   0  0  0  0  0  0  0  0  0  0  0  0
  180.4790  179.8760  139.3700 O   0  0  0  0  0  0  0  0  0  0  0  0
  189.3400  176.5940  138.7660 C   0  0  2  0  0  3  0  0  0  0  0  0
  185.2170  178.4970  140.8970 C   0  0  0  0  0  0  0  0  0  0  0  0
  182.7530  180.1440  138.5480 C   0  0  2  0  0  3  0  0  0  0  0  0
  185.4530  178.6090  139.4060 C   0  0  2  0  0  3  0  0  0  0  0  0
  184.7660  178.4010  143.6380 C   0  0  0  0  0  3  0  0  0  0  0  0
  187.7380  177.0320  136.8690 C   0  0  0  0  0  2  0  0  0  0  0  0
  183.7260  178.5110  142.7700 N   0  0  0  0  0  0  0  0  0  0  0  0
  187.0420  178.2240  137.5040 C   0  0  0  0  0  2  0  0  0  0  0  0
  189.3200  177.8820  139.6100 C   0  0  1  0  0  3  0  0  0  0  0  0
  186.0740  178.3320  143.1580 C   0  0  0  0  0  3  0  0  0  0  0  0
  187.6340  178.2820  141.2500 N   0  0  0  0  0  0  0  0  0  0  0  0
  190.5970  175.8820  138.9430 N   0  0  0  0  0  2  0  0  0  0  0  0
  190.9290  175.2840  137.6610 C   0  0  0  0  0  2  0  0  0  0  0  0
  193.9910  175.8640  136.0610 N   0  0  0  0  0  2  0  0  0  0  0  0
  193.2080  176.1050  138.2020 C   0  0  0  0  0  2  0  0  0  0  0  0
  192.4140  174.9740  137.6020 C   0  0  0  0  0  3  0  0  0  0  0  0
  193.8570  176.7990  137.1020 N   0  0  0  0  0  2  0  0  0  0  0  0
  192.8610  174.9560  136.1670 C   0  0  0  0  0  2  0  0  0  0  0  0
  1 26  1  0  0  0  0
  3  7  1  6  0  0  0
  3 16  1  0  0  0  0
  4 23  2  0  0  0  0
  5 11  1  1  0  0  0
  5 15  1  0  0  0  0
  8 12  1  0  0  0  0
  9 27  1  1  0  0  0
 10 17  1  0  0  0  0
 13 24  1  6  0  0  0
 13 20  1  0  0  0  0
 13  9  1  0  0  0  0
 14  2  1  0  0  0  0
 15 12  1  0  0  0  0
 15  4  1  0  0  0  0
 16  8  1  0  0  0  0
 17 28  1  6  0  0  0
 17 25  1  0  0  0  0
 18  4  1  0  0  0  0
 18  1  2  0  0  0  0
 19  6  1  1  0  0  0
 19  3  1  0  0  0  0
 19  5  1  0  0  0  0
 20 11  1  6  0  0  0
 20 18  1  0  0  0  0
 22 10  1  0  0  0  0
 22 24  1  0  0  0  0
 23 21  1  0  0  0  0
 25  9  1  0  0  0  0
 25 14  1  1  0  0  0
 26 21  2  0  0  0  0
 27  1  1  0  0  0  0
 27  2  1  0  0  0  0
 29 28  1  0  0  0  0
 30 34  1  0  0  0  0
 30 33  1  0  0  0  0
 32 29  1  0  0  0  0
 32 31  1  0  0  0  0
 33 31  1  0  0  0  0
 34 32  1  0  0  0  0
M  END
>  <MODEL>
2

>  <REMARK>
 VINA RESULT:      -8.3      4.194      5.515
  Name = 
  3 active torsions:
  status: ('A' for Active; 'I' for Inactive)
    1  A    between atoms: C_17  and  N_28
    2  A    between atoms: N_28  and  C_29
    3  A    between atoms: C_29  and  C_32
                            x       y       z     vdW  Elec       q    Type
                         _______ _______ _______ _____ _____    ______ ____

>  <TORSDO>
F 3

$$$$
=
 OpenBabel11122412083D

 34 40  0  0  1  0  0  0  0  0999 V2000
  184.1660  178.7220  142.7740 C   0  0  0  0  0  0  0  0  0  0  0  0
  186.3000  178.2520  144.0700 C   0  0  0  0  0  2  0  0  0  0  0  0
  180.9010  180.8160  138.1400 C   0  0  1  0  0  3  0  0  0  0  0  0
  182.1730  178.7410  141.3930 C   0  0  0  0  0  0  0  0  0  0  0  0
  182.3400  178.8150  138.8650 C   0  0  1  0  0  3  0  0  0  0  0  0
  183.1120  181.1120  138.9860 O   0  0  0  0  0  1  0  0  0  0  0  0
  180.8330  181.7660  136.9610 C   0  0  0  0  0  1  0  0  0  0  0  0
  179.4120  179.6330  139.2870 C   0  0  0  0  0  2  0  0  0  0  0  0
  186.4660  178.9190  141.7460 C   0  0  2  0  0  3  0  0  0  0  0  0
  188.8220  177.4630  140.0690 C   0  0  0  0  0  2  0  0  0  0  0  0
  183.7510  178.2470  139.0530 C   0  0  0  0  0  2  0  0  0  0  0  0
  180.1130  178.4660  139.9760 C   0  0  0  0  0  2  0  0  0  0  0  0
  185.8470  178.2990  140.4790 C   0  0  1  0  0  3  0  0  0  0  0  0
  187.7690  178.2260  143.6930 C   0  0  0  0  0  2  0  0  0  0  0  0
  181.5460  178.7230  140.0970 N   0  0  0  0  0  0  0  0  0  0  0  0
  179.9300  179.8170  137.9980 O   0  0  0  0  0  0  0  0  0  0  0  0
  188.3180  177.1230  141.4670 C   0  0  2  0  0  3  0  0  0  0  0  0
  183.5760  178.7580  141.5000 C   0  0  0  0  0  0  0  0  0  0  0  0
  182.3140  180.2310  138.2540 C   0  0  2  0  0  3  0  0  0  0  0  0
  184.4400  178.8800  140.2630 C   0  0  2  0  0  3  0  0  0  0  0  0
  181.9670  178.6410  143.7630 C   0  0  0  0  0  3  0  0  0  0  0  0
  187.6980  177.4490  139.0450 C   0  0  0  0  0  2  0  0  0  0  0  0
  181.4130  178.6800  142.5220 N   0  0  0  0  0  0  0  0  0  0  0  0
  186.7250  178.5950  139.2700 C   0  0  0  0  0  2  0  0  0  0  0  0
  187.8540  178.4100  142.1740 C   0  0  1  0  0  3  0  0  0  0  0  0
  183.3530  178.6570  143.9110 C   0  0  0  0  0  3  0  0  0  0  0  0
  185.5960  178.7040  142.8890 N   0  0  0  0  0  0  0  0  0  0  0  0
  189.4070  176.4960  142.2030 N   0  0  0  0  0  2  0  0  0  0  0  0
  190.6460  176.9540  141.5980 C   0  0  0  0  0  2  0  0  0  0  0  0
  191.4280  177.9990  144.8490 N   0  0  0  0  0  2  0  0  0  0  0  0
  191.5860  176.0230  143.6970 C   0  0  0  0  0  2  0  0  0  0  0  0
  191.7170  177.1090  142.6630 C   0  0  0  0  0  3  0  0  0  0  0  0
  191.0580  176.6440  144.9020 N   0  0  0  0  0  2  0  0  0  0  0  0
  191.4610  178.3690  143.4430 C   0  0  0  0  0  2  0  0  0  0  0  0
  1 27  1  0  0  0  0
  1 26  1  0  0  0  0
  3  7  1  6  0  0  0
  3 19  1  0  0  0  0
  4 18  1  0  0  0  0
  4 23  2  0  0  0  0
  5 11  1  1  0  0  0
  5 15  1  0  0  0  0
  8 12  1  0  0  0  0
  9 25  1  0  0  0  0
  9 27  1  1  0  0  0
 10 17  1  0  0  0  0
 12 15  1  0  0  0  0
 13 24  1  6  0  0  0
 13  9  1  0  0  0  0
 14  2  1  0  0  0  0
 15  4  1  0  0  0  0
 16  3  1  0  0  0  0
 16  8  1  0  0  0  0
 17 25  1  0  0  0  0
 17 28  1  1  0  0  0
 18  1  2  0  0  0  0
 19  5  1  0  0  0  0
 19  6  1  1  0  0  0
 20 11  1  6  0  0  0
 20 13  1  0  0  0  0
 20 18  1  0  0  0  0
 21 26  2  0  0  0  0
 22 24  1  0  0  0  0
 22 10  1  0  0  0  0
 23 21  1  0  0  0  0
 25 14  1  1  0  0  0
 27  2  1  0  0  0  0
 29 28  1  0  0  0  0
 29 32  1  0  0  0  0
 30 33  1  0  0  0  0
 31 33  1  0  0  0  0
 32 34  1  0  0  0  0
 32 31  1  0  0  0  0
 34 30  1  0  0  0  0
M  END
>  <MODEL>
3

>  <REMARK>
 VINA RESULT:      -7.6      1.662      2.291
  Name = 
  3 active torsions:
  status: ('A' for Active; 'I' for Inactive)
    1  A    between atoms: C_17  and  N_28
    2  A    between atoms: N_28  and  C_29
    3  A    between atoms: C_29  and  C_32
                            x       y       z     vdW  Elec       q    Type
                         _______ _______ _______ _____ _____    ______ ____

>  <TORSDO>
F 3

$$$$
=
 OpenBabel11122412083D

 34 40  0  0  1  0  0  0  0  0999 V2000
  187.9800  177.5970  138.2810 C   0  0  0  0  0  0  0  0  0  0  0  0
  186.4150  178.5800  140.0240 C   0  0  0  0  0  2  0  0  0  0  0  0
  193.3280  175.9210  136.0200 C   0  0  1  0  0  3  0  0  0  0  0  0
  189.3550  176.2570  136.7980 C   0  0  0  0  0  0  0  0  0  0  0  0
  191.4790  175.1560  137.6320 C   0  0  1  0  0  3  0  0  0  0  0  0
  192.5460  177.3300  137.7780 O   0  0  0  0  0  1  0  0  0  0  0  0
  194.8340  176.0930  136.0570 C   0  0  0  0  0  1  0  0  0  0  0  0
  191.8910  175.0070  134.5940 C   0  0  0  0  0  2  0  0  0  0  0  0
  188.6940  178.0540  140.6610 C   0  0  2  0  0  3  0  0  0  0  0  0
  189.0410  176.8860  143.6610 C   0  0  0  0  0  2  0  0  0  0  0  0
  190.8620  175.2760  139.0290 C   0  0  0  0  0  2  0  0  0  0  0  0
  190.6060  174.6420  135.3330 C   0  0  0  0  0  2  0  0  0  0  0  0
  189.4770  176.7300  140.5780 C   0  0  1  0  0  3  0  0  0  0  0  0
  186.5570  178.8840  141.5040 C   0  0  0  0  0  2  0  0  0  0  0  0
  190.4910  175.4010  136.5750 N   0  0  0  0  0  0  0  0  0  0  0  0
  193.0070  174.7120  135.3880 O   0  0  0  0  0  0  0  0  0  0  0  0
  187.7480  177.1130  142.8870 C   0  0  2  0  0  3  0  0  0  0  0  0
  189.1230  176.8080  138.0730 C   0  0  0  0  0  0  0  0  0  0  0  0
  192.7620  175.9920  137.4440 C   0  0  2  0  0  3  0  0  0  0  0  0
  190.1250  176.6080  139.1900 C   0  0  2  0  0  3  0  0  0  0  0  0
  187.3520  177.2490  135.9770 C   0  0  0  0  0  3  0  0  0  0  0  0
  190.0070  175.9930  142.8980 C   0  0  0  0  0  2  0  0  0  0  0  0
  188.4640  176.4900  135.7930 N   0  0  0  0  0  0  0  0  0  0  0  0
  190.5480  176.6880  141.6600 C   0  0  0  0  0  2  0  0  0  0  0  0
  187.9110  178.3300  141.9570 C   0  0  1  0  0  3  0  0  0  0  0  0
  187.0870  177.8120  137.2260 C   0  0  0  0  0  3  0  0  0  0  0  0
  187.7200  178.1310  139.5870 N   0  0  0  0  0  0  0  0  0  0  0  0
  186.6770  177.3390  143.8470 N   0  0  0  0  0  2  0  0  0  0  0  0
  187.2960  177.8420  145.0610 C   0  0  0  0  0  2  0  0  0  0  0  0
  184.0650  178.9810  145.7970 N   0  0  0  0  0  2  0  0  0  0  0  0
  185.9480  178.5370  147.0260 C   0  0  0  0  0  2  0  0  0  0  0  0
  186.4390  178.9430  145.6620 C   0  0  0  0  0  3  0  0  0  0  0  0
  184.5300  178.2420  146.8990 N   0  0  0  0  0  2  0  0  0  0  0  0
  185.1740  179.0790  144.8610 C   0  0  0  0  0  2  0  0  0  0  0  0
  1 27  1  0  0  0  0
  2 14  1  0  0  0  0
  3  7  1  1  0  0  0
  3 19  1  0  0  0  0
  4 18  2  0  0  0  0
  5 11  1  1  0  0  0
  8 12  1  0  0  0  0
  8 16  1  0  0  0  0
  9 27  1  6  0  0  0
  9 25  1  0  0  0  0
 12 15  1  0  0  0  0
 13  9  1  0  0  0  0
 13 24  1  1  0  0  0
 15  4  1  0  0  0  0
 15  5  1  0  0  0  0
 16  3  1  0  0  0  0
 17 10  1  0  0  0  0
 17 28  1  1  0  0  0
 18  1  1  0  0  0  0
 18 20  1  0  0  0  0
 19  5  1  0  0  0  0
 19  6  1  6  0  0  0
 20 11  1  6  0  0  0
 20 13  1  0  0  0  0
 21 26  1  0  0  0  0
 22 10  1  0  0  0  0
 23 21  2  0  0  0  0
 23  4  1  0  0  0  0
 24 22  1  0  0  0  0
 25 14  1  6  0  0  0
 25 17  1  0  0  0  0
 26  1  2  0  0  0  0
 27  2  1  0  0  0  0
 28 29  1  0  0  0  0
 29 32  1  0  0  0  0
 30 33  1  0  0  0  0
 32 31  1  0  0  0  0
 33 31  1  0  0  0  0
 34 32  1  0  0  0  0
 34 30  1  0  0  0  0
M  END
>  <MODEL>
4

>  <REMARK>
 VINA RESULT:      -7.4      5.628      8.484
  Name = 
  3 active torsions:
  status: ('A' for Active; 'I' for Inactive)
    1  A    between atoms: C_17  and  N_28
    2  A    between atoms: N_28  and  C_29
    3  A    between atoms: C_29  and  C_32
                            x       y       z     vdW  Elec       q    Type
                         _______ _______ _______ _____ _____    ______ ____

>  <TORSDO>
F 3

$$$$
=
 OpenBabel11122412083D

 34 40  0  0  1  0  0  0  0  0999 V2000
  189.4480  176.2520  136.9560 C   0  0  0  0  0  0  0  0  0  0  0  0
  187.5270  177.3930  138.1670 C   0  0  0  0  0  2  0  0  0  0  0  0
  195.2420  175.2520  135.5610 C   0  0  1  0  0  3  0  0  0  0  0  0
  191.2390  174.8450  136.1240 C   0  0  0  0  0  0  0  0  0  0  0  0
  193.4620  174.7130  137.3340 C   0  0  1  0  0  3  0  0  0  0  0  0
  193.9800  176.9750  136.6230 O   0  0  0  0  0  1  0  0  0  0  0  0
  196.6550  175.7980  135.5360 C   0  0  0  0  0  1  0  0  0  0  0  0
  194.2080  173.5370  134.5990 C   0  0  0  0  0  2  0  0  0  0  0  0
  189.7870  177.7380  138.9720 C   0  0  2  0  0  3  0  0  0  0  0  0
  190.0820  177.9190  142.1910 C   0  0  0  0  0  2  0  0  0  0  0  0
  192.6920  175.1930  138.5690 C   0  0  0  0  0  2  0  0  0  0  0  0
  192.9730  173.1670  135.4150 C   0  0  0  0  0  2  0  0  0  0  0  0
  190.8580  176.7250  139.4180 C   0  0  1  0  0  3  0  0  0  0  0  0
  187.4410  178.2590  139.4100 C   0  0  0  0  0  2  0  0  0  0  0  0
  192.5580  174.2840  136.2600 N   0  0  0  0  0  0  0  0  0  0  0  0
  195.2740  173.8560  135.4510 O   0  0  0  0  0  0  0  0  0  0  0  0
  188.8580  177.5030  141.3830 C   0  0  2  0  0  3  0  0  0  0  0  0
  190.7570  175.7590  137.0800 C   0  0  0  0  0  0  0  0  0  0  0  0
  194.5300  175.7110  136.8400 C   0  0  2  0  0  3  0  0  0  0  0  0
  191.6570  176.2550  138.1920 C   0  0  2  0  0  3  0  0  0  0  0  0
  189.1580  174.9150  134.9700 C   0  0  0  0  0  3  0  0  0  0  0  0
  191.3000  177.0780  141.8440 C   0  0  0  0  0  2  0  0  0  0  0  0
  190.4280  174.4490  135.1030 N   0  0  0  0  0  0  0  0  0  0  0  0
  191.7930  177.3660  140.4350 C   0  0  0  0  0  2  0  0  0  0  0  0
  188.8330  178.2770  140.0520 C   0  0  1  0  0  3  0  0  0  0  0  0
  188.6430  175.8210  135.8970 C   0  0  0  0  0  3  0  0  0  0  0  0
  188.9380  177.1570  137.9470 N   0  0  0  0  0  0  0  0  0  0  0  0
  187.6700  177.7970  142.1720 N   0  0  0  0  0  2  0  0  0  0  0  0
  188.0740  177.7790  143.5670 C   0  0  0  0  0  2  0  0  0  0  0  0
  186.2010  178.2850  146.4850 N   0  0  0  0  0  2  0  0  0  0  0  0
  185.7250  178.2130  144.2430 C   0  0  0  0  0  2  0  0  0  0  0  0
  186.9180  177.3140  144.4360 C   0  0  0  0  0  3  0  0  0  0  0  0
  185.6010  179.0190  145.4470 N   0  0  0  0  0  2  0  0  0  0  0  0
  187.2750  177.5110  145.8830 C   0  0  0  0  0  2  0  0  0  0  0  0
  1 18  1  0  0  0  0
  1 27  1  0  0  0  0
  2 14  1  0  0  0  0
  3  7  1  1  0  0  0
  3 19  1  0  0  0  0
  4 15  1  0  0  0  0
  4 18  2  0  0  0  0
  5 11  1  1  0  0  0
  8 12  1  0  0  0  0
  8 16  1  0  0  0  0
  9 27  1  6  0  0  0
  9 13  1  0  0  0  0
  9 25  1  0  0  0  0
 12 15  1  0  0  0  0
 13 24  1  1  0  0  0
 15  5  1  0  0  0  0
 16  3  1  0  0  0  0
 17 28  1  1  0  0  0
 17 10  1  0  0  0  0
 18 20  1  0  0  0  0
 19  6  1  6  0  0  0
 19  5  1  0  0  0  0
 20 11  1  1  0  0  0
 20 13  1  0  0  0  0
 21 23  2  0  0  0  0
 21 26  1  0  0  0  0
 22 10  1  0  0  0  0
 23  4  1  0  0  0  0
 24 22  1  0  0  0  0
 25 14  1  6  0  0  0
 25 17  1  0  0  0  0
 26  1  2  0  0  0  0
 27  2  1  0  0  0  0
 28 29  1  0  0  0  0
 29 32  1  0  0  0  0
 31 32  1  0  0  0  0
 31 33  1  0  0  0  0
 32 34  1  0  0  0  0
 33 30  1  0  0  0  0
 34 30  1  0  0  0  0
M  END
>  <MODEL>
5

>  <REMARK>
 VINA RESULT:      -7.4      6.997     10.054
  Name = 
  3 active torsions:
  status: ('A' for Active; 'I' for Inactive)
    1  A    between atoms: C_17  and  N_28
    2  A    between atoms: N_28  and  C_29
    3  A    between atoms: C_29  and  C_32
                            x       y       z     vdW  Elec       q    Type
                         _______ _______ _______ _____ _____    ______ ____

>  <TORSDO>
F 3

$$$$
=
 OpenBabel11122412083D

 34 40  0  0  1  0  0  0  0  0999 V2000
  188.0770  177.8160  140.3550 C   0  0  0  0  0  0  0  0  0  0  0  0
  186.2430  178.6960  138.8340 C   0  0  0  0  0  2  0  0  0  0  0  0
  191.1180  177.2690  145.5490 C   0  0  1  0  0  3  0  0  0  0  0  0
  189.5550  176.6140  141.8560 C   0  0  0  0  0  0  0  0  0  0  0  0
  189.0250  176.4180  144.3260 C   0  0  1  0  0  3  0  0  0  0  0  0
  189.5200  178.7760  144.6170 O   0  0  0  0  0  1  0  0  0  0  0  0
  191.4470  177.8760  146.8980 C   0  0  0  0  0  1  0  0  0  0  0  0
  191.9970  175.6570  144.3000 C   0  0  0  0  0  2  0  0  0  0  0  0
  186.0400  179.0290  141.2260 C   0  0  2  0  0  3  0  0  0  0  0  0
  183.0280  178.7850  142.3910 C   0  0  0  0  0  2  0  0  0  0  0  0
  187.5710  176.6920  143.9220 C   0  0  0  0  0  2  0  0  0  0  0  0
  190.9390  175.1260  143.3380 C   0  0  0  0  0  2  0  0  0  0  0  0
  186.0490  178.0130  142.3840 C   0  0  1  0  0  3  0  0  0  0  0  0
  184.9120  179.3820  139.0880 C   0  0  0  0  0  2  0  0  0  0  0  0
  189.8630  176.0990  143.1650 N   0  0  0  0  0  0  0  0  0  0  0  0
  191.4300  175.9040  145.5570 O   0  0  0  0  0  0  0  0  0  0  0  0
  183.5250  178.4290  140.9950 C   0  0  2  0  0  3  0  0  0  0  0  0
  188.3840  177.3680  141.6500 C   0  0  0  0  0  0  0  0  0  0  0  0
  189.6420  177.5190  145.2130 C   0  0  2  0  0  3  0  0  0  0  0  0
  187.4990  177.7490  142.8180 C   0  0  2  0  0  3  0  0  0  0  0  0
  190.0800  176.7470  139.5380 C   0  0  0  0  0  3  0  0  0  0  0  0
  183.8090  178.0530  143.4730 C   0  0  0  0  0  2  0  0  0  0  0  0
  190.3630  176.3240  140.7980 N   0  0  0  0  0  0  0  0  0  0  0  0
  185.2420  178.5510  143.5580 C   0  0  0  0  0  2  0  0  0  0  0  0
  184.6760  179.3740  140.6020 C   0  0  1  0  0  3  0  0  0  0  0  0
  188.9300  177.4970  139.2920 C   0  0  0  0  0  3  0  0  0  0  0  0
  186.8670  178.5540  140.1320 N   0  0  0  0  0  0  0  0  0  0  0  0
  182.4110  178.5610  140.0680 N   0  0  0  0  0  2  0  0  0  0  0  0
  181.9420  177.2170  139.7760 C   0  0  0  0  0  2  0  0  0  0  0  0
  178.9310  175.8790  140.9680 N   0  0  0  0  0  2  0  0  0  0  0  0
  179.8250  177.9850  140.8200 C   0  0  0  0  0  2  0  0  0  0  0  0
  180.4260  177.2060  139.6800 C   0  0  0  0  0  3  0  0  0  0  0  0
  179.2370  177.0180  141.7330 N   0  0  0  0  0  2  0  0  0  0  0  0
  179.9250  175.8070  139.9090 C   0  0  0  0  0  2  0  0  0  0  0  0
  1 18  1  0  0  0  0
  2 14  1  0  0  0  0
  2 27  1  0  0  0  0
  3 16  1  0  0  0  0
  3  7  1  1  0  0  0
  4 15  1  0  0  0  0
  5 11  1  6  0  0  0
  5 19  1  0  0  0  0
  8 16  1  0  0  0  0
  9 27  1  6  0  0  0
  9 13  1  0  0  0  0
 10 22  1  0  0  0  0
 12  8  1  0  0  0  0
 13 20  1  0  0  0  0
 13 24  1  1  0  0  0
 15 12  1  0  0  0  0
 15  5  1  0  0  0  0
 17 28  1  6  0  0  0
 17 10  1  0  0  0  0
 18  4  2  0  0  0  0
 18 20  1  0  0  0  0
 19  6  1  6  0  0  0
 19  3  1  0  0  0  0
 20 11  1  1  0  0  0
 21 23  2  0  0  0  0
 22 24  1  0  0  0  0
 23  4  1  0  0  0  0
 25 14  1  6  0  0  0
 25 17  1  0  0  0  0
 25  9  1  0  0  0  0
 26 21  1  0  0  0  0
 26  1  2  0  0  0  0
 27  1  1  0  0  0  0
 29 28  1  0  0  0  0
 30 33  1  0  0  0  0
 31 33  1  0  0  0  0
 32 29  1  0  0  0  0
 32 34  1  0  0  0  0
 32 31  1  0  0  0  0
 34 30  1  0  0  0  0
M  END
>  <MODEL>
6

>  <REMARK>
 VINA RESULT:      -6.8      3.401      9.425
  Name = 
  3 active torsions:
  status: ('A' for Active; 'I' for Inactive)
    1  A    between atoms: C_17  and  N_28
    2  A    between atoms: N_28  and  C_29
    3  A    between atoms: C_29  and  C_32
                            x       y       z     vdW  Elec       q    Type
                         _______ _______ _______ _____ _____    ______ ____

>  <TORSDO>
F 3

$$$$
=
 OpenBabel11122412083D

 34 40  0  0  1  0  0  0  0  0999 V2000
  187.3840  177.9600  140.3610 C   0  0  0  0  0  0  0  0  0  0  0  0
  189.5870  177.4510  141.5190 C   0  0  0  0  0  2  0  0  0  0  0  0
  181.3780  177.8750  139.6970 C   0  0  1  0  0  3  0  0  0  0  0  0
  185.3150  178.8500  139.4620 C   0  0  0  0  0  0  0  0  0  0  0  0
  183.2650  179.1130  140.9270 C   0  0  1  0  0  3  0  0  0  0  0  0
  183.0030  176.7010  140.9890 O   0  0  0  0  0  1  0  0  0  0  0  0
  180.0690  177.2030  140.0600 C   0  0  0  0  0  1  0  0  0  0  0  0
  182.0190  179.3120  138.1290 C   0  0  0  0  0  2  0  0  0  0  0  0
  187.5210  177.1340  142.7440 C   0  0  2  0  0  3  0  0  0  0  0  0
  187.6570  177.9160  145.8840 C   0  0  0  0  0  2  0  0  0  0  0  0
  184.2440  179.1170  142.1060 C   0  0  0  0  0  2  0  0  0  0  0  0
  183.2780  180.0410  138.5920 C   0  0  0  0  0  2  0  0  0  0  0  0
  186.3750  178.1170  143.0490 C   0  0  1  0  0  3  0  0  0  0  0  0
  189.9540  177.0200  142.9270 C   0  0  0  0  0  2  0  0  0  0  0  0
  183.9550  179.2850  139.6430 N   0  0  0  0  0  0  0  0  0  0  0  0
  181.1260  179.1600  139.1980 O   0  0  0  0  0  0  0  0  0  0  0  0
  188.6960  178.1910  144.8030 C   0  0  2  0  0  3  0  0  0  0  0  0
  186.0420  178.3280  140.5490 C   0  0  0  0  0  0  0  0  0  0  0  0
  182.3030  177.9060  140.9200 C   0  0  2  0  0  3  0  0  0  0  0  0
  185.3700  178.1040  141.8860 C   0  0  2  0  0  3  0  0  0  0  0  0
  187.2250  178.6490  138.0540 C   0  0  0  0  0  3  0  0  0  0  0  0
  186.2940  178.4790  145.5120 C   0  0  0  0  0  2  0  0  0  0  0  0
  185.9270  178.9980  138.2530 N   0  0  0  0  0  0  0  0  0  0  0  0
  185.6790  177.7240  144.3450 C   0  0  0  0  0  2  0  0  0  0  0  0
  188.6710  177.0540  143.7640 C   0  0  1  0  0  3  0  0  0  0  0  0
  187.9790  178.1280  139.1050 C   0  0  0  0  0  3  0  0  0  0  0  0
  188.1410  177.4600  141.4730 N   0  0  0  0  0  0  0  0  0  0  0  0
  190.0030  178.2770  145.4390 N   0  0  0  0  0  2  0  0  0  0  0  0
  190.2040  177.0340  146.1620 C   0  0  0  0  0  2  0  0  0  0  0  0
  192.6220  175.9700  148.4650 N   0  0  0  0  0  2  0  0  0  0  0  0
  192.0580  175.3910  146.3190 C   0  0  0  0  0  2  0  0  0  0  0  0
  191.6800  176.8420  146.4620 C   0  0  0  0  0  3  0  0  0  0  0  0
  192.2700  174.8720  147.6610 N   0  0  0  0  0  2  0  0  0  0  0  0
  191.9320  177.1270  147.9170 C   0  0  0  0  0  2  0  0  0  0  0  0
  1 18  1  0  0  0  0
  1 27  1  0  0  0  0
  2 14  1  0  0  0  0
  3  7  1  1  0  0  0
  3 19  1  0  0  0  0
  4 15  1  0  0  0  0
  4 18  2  0  0  0  0
  5 11  1  1  0  0  0
  8 12  1  0  0  0  0
  8 16  1  0  0  0  0
  9 27  1  6  0  0  0
  9 13  1  0  0  0  0
  9 25  1  0  0  0  0
 12 15  1  0  0  0  0
 13 24  1  1  0  0  0
 15  5  1  0  0  0  0
 16  3  1  0  0  0  0
 17 28  1  1  0  0  0
 17 10  1  0  0  0  0
 18 20  1  0  0  0  0
 19  5  1  0  0  0  0
 19  6  1  6  0  0  0
 20 11  1  1  0  0  0
 20 13  1  0  0  0  0
 21 23  2  0  0  0  0
 21 26  1  0  0  0  0
 22 10  1  0  0  0  0
 23  4  1  0  0  0  0
 24 22  1  0  0  0  0
 25 14  1  6  0  0  0
 25 17  1  0  0  0  0
 26  1  2  0  0  0  0
 27  2  1  0  0  0  0
 28 29  1  0  0  0  0
 29 32  1  0  0  0  0
 31 32  1  0  0  0  0
 31 33  1  0  0  0  0
 32 34  1  0  0  0  0
 33 30  1  0  0  0  0
 34 30  1  0  0  0  0
M  END
>  <MODEL>
7

>  <REMARK>
 VINA RESULT:      -6.8      2.171      4.433
  Name = 
  3 active torsions:
  status: ('A' for Active; 'I' for Inactive)
    1  A    between atoms: C_17  and  N_28
    2  A    between atoms: N_28  and  C_29
    3  A    between atoms: C_29  and  C_32
                            x       y       z     vdW  Elec       q    Type
                         _______ _______ _______ _____ _____    ______ ____

>  <TORSDO>
F 3

$$$$
=
 OpenBabel11122412083D

 34 40  0  0  1  0  0  0  0  0999 V2000
  187.8980  177.8290  140.4020 C   0  0  0  0  0  0  0  0  0  0  0  0
  186.0220  178.7280  138.9450 C   0  0  0  0  0  2  0  0  0  0  0  0
  191.1120  177.2550  145.4880 C   0  0  1  0  0  3  0  0  0  0  0  0
  189.4130  176.6120  141.8540 C   0  0  0  0  0  0  0  0  0  0  0  0
  188.9670  176.4270  144.3410 C   0  0  1  0  0  3  0  0  0  0  0  0
  189.5000  178.7790  144.6100 O   0  0  0  0  0  1  0  0  0  0  0  0
  191.4950  177.8600  146.8240 C   0  0  0  0  0  1  0  0  0  0  0  0
  191.9280  175.6300  144.2130 C   0  0  0  0  0  2  0  0  0  0  0  0
  185.9070  179.0680  141.3420 C   0  0  2  0  0  3  0  0  0  0  0  0
  182.9350  178.8620  142.6130 C   0  0  0  0  0  2  0  0  0  0  0  0
  187.5040  176.7170  143.9880 C   0  0  0  0  0  2  0  0  0  0  0  0
  190.8300  175.1100  143.2890 C   0  0  0  0  0  2  0  0  0  0  0  0
  185.9440  178.0530  142.5010 C   0  0  1  0  0  3  0  0  0  0  0  0
  184.7090  179.4300  139.2440 C   0  0  0  0  0  2  0  0  0  0  0  0
  189.7600  176.0950  143.1520 N   0  0  0  0  0  0  0  0  0  0  0  0
  191.4080  175.8850  145.4880 O   0  0  0  0  0  0  0  0  0  0  0  0
  183.3790  178.4970  141.2010 C   0  0  2  0  0  3  0  0  0  0  0  0
  188.2450  177.3800  141.6870 C   0  0  0  0  0  0  0  0  0  0  0  0
  189.6290  177.5220  145.2030 C   0  0  2  0  0  3  0  0  0  0  0  0
  187.4060  177.7730  142.8840 C   0  0  2  0  0  3  0  0  0  0  0  0
  189.8580  176.7350  139.5180 C   0  0  0  0  0  3  0  0  0  0  0  0
  183.7440  178.1220  143.6670 C   0  0  0  0  0  2  0  0  0  0  0  0
  190.1800  176.3110  140.7680 N   0  0  0  0  0  0  0  0  0  0  0  0
  185.1860  178.6030  143.7020 C   0  0  0  0  0  2  0  0  0  0  0  0
  184.5260  179.4270  140.7650 C   0  0  1  0  0  3  0  0  0  0  0  0
  188.7090  177.4970  139.3110 C   0  0  0  0  0  3  0  0  0  0  0  0
  186.6900  178.5810  140.2210 N   0  0  0  0  0  0  0  0  0  0  0  0
  182.2340  178.6410  140.3130 N   0  0  0  0  0  2  0  0  0  0  0  0
  181.0680  178.8450  141.1550 C   0  0  0  0  0  2  0  0  0  0  0  0
  179.3620  181.7470  140.1840 N   0  0  0  0  0  2  0  0  0  0  0  0
  180.4770  180.0740  139.0820 C   0  0  0  0  0  2  0  0  0  0  0  0
  179.9370  179.4450  140.3380 C   0  0  0  0  0  3  0  0  0  0  0  0
  180.3940  181.5150  139.2580 N   0  0  0  0  0  2  0  0  0  0  0  0
  179.3470  180.6070  141.0870 C   0  0  0  0  0  2  0  0  0  0  0  0
  1 18  1  0  0  0  0
  2 14  1  0  0  0  0
  2 27  1  0  0  0  0
  3 16  1  0  0  0  0
  3  7  1  1  0  0  0
  4 15  1  0  0  0  0
  5 11  1  6  0  0  0
  5 19  1  0  0  0  0
  8 16  1  0  0  0  0
  9 27  1  6  0  0  0
  9 13  1  0  0  0  0
 10 22  1  0  0  0  0
 12  8  1  0  0  0  0
 13 20  1  0  0  0  0
 13 24  1  1  0  0  0
 15 12  1  0  0  0  0
 15  5  1  0  0  0  0
 17 28  1  6  0  0  0
 17 10  1  0  0  0  0
 18  4  2  0  0  0  0
 18 20  1  0  0  0  0
 19  6  1  6  0  0  0
 19  3  1  0  0  0  0
 20 11  1  1  0  0  0
 21 23  2  0  0  0  0
 22 24  1  0  0  0  0
 23  4  1  0  0  0  0
 25 14  1  6  0  0  0
 25 17  1  0  0  0  0
 25  9  1  0  0  0  0
 26 21  1  0  0  0  0
 26  1  2  0  0  0  0
 27  1  1  0  0  0  0
 28 29  1  0  0  0  0
 30 34  1  0  0  0  0
 31 33  1  0  0  0  0
 31 32  1  0  0  0  0
 32 34  1  0  0  0  0
 32 29  1  0  0  0  0
 33 30  1  0  0  0  0
M  END
>  <MODEL>
8

>  <REMARK>
 VINA RESULT:      -6.7      3.467      9.485
  Name = 
  3 active torsions:
  status: ('A' for Active; 'I' for Inactive)
    1  A    between atoms: C_17  and  N_28
    2  A    between atoms: N_28  and  C_29
    3  A    between atoms: C_29  and  C_32
                            x       y       z     vdW  Elec       q    Type
                         _______ _______ _______ _____ _____    ______ ____

>  <TORSDO>
F 3

$$$$
=
 OpenBabel11122412083D

 34 40  0  0  1  0  0  0  0  0999 V2000
  184.5080  178.4250  144.2750 C   0  0  0  0  0  0  0  0  0  0  0  0
  182.1640  178.9470  143.4490 C   0  0  0  0  0  2  0  0  0  0  0  0
  190.0360  176.0030  143.9510 C   0  0  1  0  0  3  0  0  0  0  0  0
  186.8500  178.3390  144.9010 C   0  0  0  0  0  0  0  0  0  0  0  0
  188.6550  178.0170  143.1510 C   0  0  1  0  0  3  0  0  0  0  0  0
  187.9430  175.7170  142.8430 O   0  0  0  0  0  1  0  0  0  0  0  0
  190.9260  174.9470  143.3260 C   0  0  0  0  0  1  0  0  0  0  0  0
  190.1940  177.3390  145.7180 C   0  0  0  0  0  2  0  0  0  0  0  0
  183.7840  178.0540  141.8830 C   0  0  2  0  0  3  0  0  0  0  0  0
  183.6010  179.2640  138.8850 C   0  0  0  0  0  2  0  0  0  0  0  0
  187.6260  178.5530  142.1500 C   0  0  0  0  0  2  0  0  0  0  0  0
  189.2770  178.5440  145.5280 C   0  0  0  0  0  2  0  0  0  0  0  0
  185.1790  178.5690  141.4820 C   0  0  1  0  0  3  0  0  0  0  0  0
  181.4970  178.8880  142.0870 C   0  0  0  0  0  2  0  0  0  0  0  0
  188.2410  178.2530  144.5390 N   0  0  0  0  0  0  0  0  0  0  0  0
  190.8260  177.0160  144.5100 O   0  0  0  0  0  0  0  0  0  0  0  0
  182.8850  179.7530  140.1390 C   0  0  2  0  0  3  0  0  0  0  0  0
  185.8560  178.2850  143.9050 C   0  0  0  0  0  0  0  0  0  0  0  0
  189.0620  176.5500  142.9000 C   0  0  2  0  0  3  0  0  0  0  0  0
  186.2270  178.0160  142.4620 C   0  0  2  0  0  3  0  0  0  0  0  0
  185.1910  178.6720  146.5760 C   0  0  0  0  0  3  0  0  0  0  0  0
  185.1090  179.2160  139.0780 C   0  0  0  0  0  2  0  0  0  0  0  0
  186.4900  178.5330  146.2000 N   0  0  0  0  0  0  0  0  0  0  0  0
  185.5110  178.1300  140.0620 C   0  0  0  0  0  2  0  0  0  0  0  0
  182.5840  178.5560  141.0600 C   0  0  1  0  0  3  0  0  0  0  0  0
  184.1770  178.6250  145.6190 C   0  0  0  0  0  3  0  0  0  0  0  0
  183.4930  178.4070  143.2610 N   0  0  0  0  0  0  0  0  0  0  0  0
  181.6530  180.4110  139.7320 N   0  0  0  0  0  2  0  0  0  0  0  0
  181.8790  180.9480  138.4000 C   0  0  0  0  0  2  0  0  0  0  0  0
  179.3070  183.3250  138.4820 N   0  0  0  0  0  2  0  0  0  0  0  0
  180.8040  182.6070  136.9010 C   0  0  0  0  0  2  0  0  0  0  0  0
  180.5670  181.4260  137.8040 C   0  0  0  0  0  3  0  0  0  0  0  0
  180.2960  183.7810  137.5930 N   0  0  0  0  0  2  0  0  0  0  0  0
  179.7020  181.9880  138.8970 C   0  0  0  0  0  2  0  0  0  0  0  0
  1 26  1  0  0  0  0
  3  7  1  6  0  0  0
  3 16  1  0  0  0  0
  4 23  2  0  0  0  0
  5 11  1  6  0  0  0
  5 15  1  0  0  0  0
  9 27  1  1  0  0  0
 10 22  1  0  0  0  0
 10 17  1  0  0  0  0
 12  8  1  0  0  0  0
 13 24  1  6  0  0  0
 13  9  1  0  0  0  0
 13 20  1  0  0  0  0
 14  2  1  0  0  0  0
 15  4  1  0  0  0  0
 15 12  1  0  0  0  0
 16  8  1  0  0  0  0
 17 28  1  6  0  0  0
 17 25  1  0  0  0  0
 18  1  2  0  0  0  0
 18  4  1  0  0  0  0
 19  6  1  1  0  0  0
 19  5  1  0  0  0  0
 19  3  1  0  0  0  0
 20 11  1  6  0  0  0
 20 18  1  0  0  0  0
 22 24  1  0  0  0  0
 23 21  1  0  0  0  0
 25  9  1  0  0  0  0
 25 14  1  1  0  0  0
 26 21  2  0  0  0  0
 27  2  1  0  0  0  0
 27  1  1  0  0  0  0
 29 28  1  0  0  0  0
 30 34  1  0  0  0  0
 31 33  1  0  0  0  0
 31 32  1  0  0  0  0
 32 29  1  0  0  0  0
 32 34  1  0  0  0  0
 33 30  1  0  0  0  0
M  END
>  <MODEL>
9

>  <REMARK>
 VINA RESULT:      -6.7      3.083      8.901
  Name = 
  3 active torsions:
  status: ('A' for Active; 'I' for Inactive)
    1  A    between atoms: C_17  and  N_28
    2  A    between atoms: N_28  and  C_29
    3  A    between atoms: C_29  and  C_32
                            x       y       z     vdW  Elec       q    Type
                         _______ _______ _______ _____ _____    ______ ____

>  <TORSDO>
F 3

$$$$
