=
 OpenBabel11122410343D

 30 35  0  0  1  0  0  0  0  0999 V2000
  187.1360  178.0670  143.4010 C   0  0  0  0  0  0  0  0  0  0  0  0
  184.7010  178.4620  143.0300 C   0  0  2  0  0  3  0  0  0  0  0  0
  186.9760  178.0130  147.6400 C   0  0  0  0  0  2  0  0  0  0  0  0
  188.3200  177.8090  144.2660 C   0  0  0  0  0  0  0  0  0  0  0  0
  187.3230  178.0550  141.9800 N   0  0  0  0  0  0  0  0  0  0  0  0
  190.2660  179.5120  142.3180 C   0  0  0  0  0  1  0  0  0  0  0  0
  191.0650  176.5990  145.4200 C   0  0  1  0  0  3  0  0  0  0  0  0
  189.7610  178.0820  142.2410 C   0  0  2  0  0  3  0  0  0  0  0  0
  190.0080  176.3700  146.4650 C   0  0  1  0  0  3  0  0  0  0  0  0
  188.4340  177.6840  147.9710 C   0  0  2  0  0  3  0  0  0  0  0  0
  188.4990  178.0230  141.4190 C   0  0  0  0  0  0  0  0  0  0  0  0
  189.5700  177.5460  143.5920 N   0  0  0  0  0  0  0  0  0  0  0  0
  183.4600  178.8680  143.7850 C   0  0  0  0  0  3  0  0  0  0  0  0
  190.8000  175.9630  147.6950 C   0  0  0  0  0  2  0  0  0  0  0  0
  192.1380  175.5620  145.6950 C   0  0  0  0  0  2  0  0  0  0  0  0
  184.4430  177.2920  142.3400 F   0  0  0  0  0  0  0  0  0  0  0  0
  186.9010  178.0110  146.1940 N   0  0  0  0  0  0  0  0  0  0  0  0
  183.4000  178.8990  145.1180 C   0  0  0  0  0  3  0  0  0  0  0  0
  185.9080  178.2720  143.9230 C   0  0  0  0  0  0  0  0  0  0  0  0
  188.1710  177.8000  145.6100 C   0  0  0  0  0  0  0  0  0  0  0  0
  188.9970  178.7430  148.8970 C   0  0  0  0  0  1  0  0  0  0  0  0
  189.2280  177.6670  146.6520 C   0  0  2  0  0  3  0  0  0  0  0  0
  192.0350  175.2470  147.1770 C   0  0  0  0  0  2  0  0  0  0  0  0
  190.8750  175.6450  143.2320 O   0  0  0  0  0  0  0  0  0  0  0  0
  184.5680  178.5720  145.9500 C   0  0  0  0  0  3  0  0  0  0  0  0
  185.7470  178.2790  145.3950 C   0  0  0  0  0  0  0  0  0  0  0  0
  190.4950  176.5410  144.0370 C   0  0  0  0  0  0  0  0  0  0  0  0
  188.6170  177.9820  140.0260 O   0  0  0  0  0  0  0  0  0  0  0  0
  189.5490  177.4780  137.8590 C   0  0  0  0  0  1  0  0  0  0  0  0
  189.6680  177.2920  139.3600 C   0  0  0  0  0  2  0  0  0  0  0  0
  1 19  2  0  0  0  0
  1  4  1  0  0  0  0
  2 16  1  1  0  0  0
  2 13  1  0  0  0  0
  2 19  1  0  0  0  0
  3 10  1  0  0  0  0
  4 20  2  0  0  0  0
  5  1  1  0  0  0  0
  7 15  1  6  0  0  0
  7  9  1  0  0  0  0
  8  6  1  1  0  0  0
  8 12  1  0  0  0  0
  9 22  1  0  0  0  0
  9 14  1  1  0  0  0
 10 21  1  1  0  0  0
 11  5  2  0  0  0  0
 11  8  1  0  0  0  0
 12 27  1  0  0  0  0
 12  4  1  0  0  0  0
 13 18  2  0  0  0  0
 15 23  1  0  0  0  0
 17  3  1  0  0  0  0
 18 25  1  0  0  0  0
 19 26  1  0  0  0  0
 20 17  1  0  0  0  0
 22 20  1  6  0  0  0
 22 10  1  0  0  0  0
 23 14  1  0  0  0  0
 24 27  2  0  0  0  0
 26 25  2  0  0  0  0
 26 17  1  0  0  0  0
 27  7  1  0  0  0  0
 28 11  1  0  0  0  0
 29 30  1  0  0  0  0
 30 28  1  0  0  0  0
M  END
>  <MODEL>
1

>  <REMARK>
 VINA RESULT:      -8.5      0.000      0.000
  Name = 
  2 active torsions:
  status: ('A' for Active; 'I' for Inactive)
    1  A    between atoms: C_11  and  O_28
    2  A    between atoms: O_28  and  C_30
                            x       y       z     vdW  Elec       q    Type
                         _______ _______ _______ _____ _____    ______ ____

>  <TORSDO>
F 2

$$$$
=
 OpenBabel11122410343D

 30 35  0  0  1  0  0  0  0  0999 V2000
  185.5380  178.2990  142.1150 C   0  0  0  0  0  0  0  0  0  0  0  0
  183.2120  178.3840  141.2160 C   0  0  2  0  0  3  0  0  0  0  0  0
  184.4870  178.7140  146.2050 C   0  0  0  0  0  2  0  0  0  0  0  0
  186.5290  178.2700  143.2270 C   0  0  0  0  0  0  0  0  0  0  0  0
  186.0220  178.1440  140.7760 N   0  0  0  0  0  0  0  0  0  0  0  0
  188.6970  179.9380  141.4970 C   0  0  0  0  0  1  0  0  0  0  0  0
  189.0560  177.5040  145.0590 C   0  0  1  0  0  3  0  0  0  0  0  0
  188.3390  178.4630  141.5130 C   0  0  2  0  0  3  0  0  0  0  0  0
  187.8230  177.2830  145.8920 C   0  0  1  0  0  3  0  0  0  0  0  0
  185.8640  178.5840  146.8620 C   0  0  2  0  0  3  0  0  0  0  0  0
  187.2880  178.1750  140.4710 C   0  0  0  0  0  0  0  0  0  0  0  0
  187.9100  178.0680  142.8580 N   0  0  0  0  0  0  0  0  0  0  0  0
  181.8110  178.7370  141.6460 C   0  0  0  0  0  3  0  0  0  0  0  0
  188.3680  177.1080  147.2990 C   0  0  0  0  0  2  0  0  0  0  0  0
  190.1270  176.6270  145.6790 C   0  0  0  0  0  2  0  0  0  0  0  0
  183.2030  177.1210  140.6520 F   0  0  0  0  0  0  0  0  0  0  0  0
  184.7220  178.5380  144.7880 N   0  0  0  0  0  0  0  0  0  0  0  0
  181.4670  178.9140  142.9240 C   0  0  0  0  0  3  0  0  0  0  0  0
  184.2140  178.4280  142.3490 C   0  0  0  0  0  0  0  0  0  0  0  0
  186.0990  178.3990  144.5030 C   0  0  0  0  0  0  0  0  0  0  0  0
  186.1290  179.7960  147.7310 C   0  0  0  0  0  1  0  0  0  0  0  0
  186.9190  178.5010  145.7430 C   0  0  2  0  0  3  0  0  0  0  0  0
  189.7390  176.4740  147.1390 C   0  0  0  0  0  2  0  0  0  0  0  0
  189.4120  176.2900  143.0250 O   0  0  0  0  0  0  0  0  0  0  0  0
  182.4550  178.8130  144.0080 C   0  0  0  0  0  3  0  0  0  0  0  0
  183.7450  178.5870  143.7450 C   0  0  0  0  0  0  0  0  0  0  0  0
  188.7990  177.2270  143.6100 C   0  0  0  0  0  0  0  0  0  0  0  0
  187.7020  177.9880  139.1480 O   0  0  0  0  0  0  0  0  0  0  0  0
  189.0790  178.9040  137.3920 C   0  0  0  0  0  1  0  0  0  0  0  0
  189.0480  178.1800  138.7250 C   0  0  0  0  0  2  0  0  0  0  0  0
  1 19  2  0  0  0  0
  1  4  1  0  0  0  0
  2 16  1  1  0  0  0
  2 13  1  0  0  0  0
  2 19  1  0  0  0  0
  3 10  1  0  0  0  0
  4 20  2  0  0  0  0
  5  1  1  0  0  0  0
  7 15  1  1  0  0  0
  7  9  1  0  0  0  0
  8  6  1  1  0  0  0
  8 12  1  0  0  0  0
  9 14  1  1  0  0  0
 10 21  1  1  0  0  0
 11  5  2  0  0  0  0
 11  8  1  0  0  0  0
 12  4  1  0  0  0  0
 12 27  1  0  0  0  0
 13 18  2  0  0  0  0
 15 23  1  0  0  0  0
 17  3  1  0  0  0  0
 18 25  1  0  0  0  0
 19 26  1  0  0  0  0
 20 17  1  0  0  0  0
 22 20  1  6  0  0  0
 22  9  1  0  0  0  0
 22 10  1  0  0  0  0
 23 14  1  0  0  0  0
 24 27  2  0  0  0  0
 26 25  2  0  0  0  0
 26 17  1  0  0  0  0
 27  7  1  0  0  0  0
 28 11  1  0  0  0  0
 29 30  1  0  0  0  0
 30 28  1  0  0  0  0
M  END
>  <MODEL>
2

>  <REMARK>
 VINA RESULT:      -7.8      1.461      2.310
  Name = 
  2 active torsions:
  status: ('A' for Active; 'I' for Inactive)
    1  A    between atoms: C_11  and  O_28
    2  A    between atoms: O_28  and  C_30
                            x       y       z     vdW  Elec       q    Type
                         _______ _______ _______ _____ _____    ______ ____

>  <TORSDO>
F 2

$$$$
=
 OpenBabel11122410343D

 30 35  0  0  1  0  0  0  0  0999 V2000
  185.1240  178.5080  140.9560 C   0  0  0  0  0  0  0  0  0  0  0  0
  187.2140  178.1640  142.2760 C   0  0  2  0  0  3  0  0  0  0  0  0
  182.4790  178.6430  144.2710 C   0  0  0  0  0  2  0  0  0  0  0  0
  183.6610  178.7540  140.8320 C   0  0  0  0  0  0  0  0  0  0  0  0
  185.9090  178.4900  139.7580 N   0  0  0  0  0  0  0  0  0  0  0  0
  183.4680  176.9690  138.1380 C   0  0  0  0  0  1  0  0  0  0  0  0
  180.8200  179.9190  139.8810 C   0  0  1  0  0  3  0  0  0  0  0  0
  183.8920  178.4090  138.3660 C   0  0  2  0  0  3  0  0  0  0  0  0
  180.9380  180.1920  141.3560 C   0  0  1  0  0  3  0  0  0  0  0  0
  181.1570  178.9440  143.5620 C   0  0  2  0  0  3  0  0  0  0  0  0
  185.3840  178.4830  138.5660 C   0  0  0  0  0  0  0  0  0  0  0  0
  183.1520  178.9740  139.4990 N   0  0  0  0  0  0  0  0  0  0  0  0
  187.6640  177.8030  143.6680 C   0  0  0  0  0  3  0  0  0  0  0  0
  179.5330  180.6020  141.7580 C   0  0  0  0  0  2  0  0  0  0  0  0
  179.8220  180.9340  139.3590 C   0  0  0  0  0  2  0  0  0  0  0  0
  187.8520  179.3280  141.8860 F   0  0  0  0  0  0  0  0  0  0  0  0
  183.4790  178.6210  143.2240 N   0  0  0  0  0  0  0  0  0  0  0  0
  186.8400  177.7970  144.7190 C   0  0  0  0  0  3  0  0  0  0  0  0
  185.7150  178.3420  142.1590 C   0  0  0  0  0  0  0  0  0  0  0  0
  182.8970  178.7910  141.9470 C   0  0  0  0  0  0  0  0  0  0  0  0
  180.1330  177.8890  143.9270 C   0  0  0  0  0  1  0  0  0  0  0  0
  181.4150  178.9180  142.0430 C   0  0  2  0  0  3  0  0  0  0  0  0
  178.9310  181.2790  140.5390 C   0  0  0  0  0  2  0  0  0  0  0  0
  182.3870  180.8360  138.3190 O   0  0  0  0  0  0  0  0  0  0  0  0
  185.4100  178.1110  144.5770 C   0  0  0  0  0  3  0  0  0  0  0  0
  184.8770  178.3660  143.3790 C   0  0  0  0  0  0  0  0  0  0  0  0
  182.1550  179.9640  139.2030 C   0  0  0  0  0  0  0  0  0  0  0  0
  186.2040  178.4950  137.4320 O   0  0  0  0  0  0  0  0  0  0  0  0
  188.5710  178.8390  137.1180 C   0  0  0  0  0  1  0  0  0  0  0  0
  187.4640  177.8350  137.3830 C   0  0  0  0  0  2  0  0  0  0  0  0
  1 19  2  0  0  0  0
  2 16  1  1  0  0  0
  2 13  1  0  0  0  0
  4  1  1  0  0  0  0
  4 20  2  0  0  0  0
  5  1  1  0  0  0  0
  7 15  1  6  0  0  0
  7  9  1  0  0  0  0
  8  6  1  1  0  0  0
  8 11  1  0  0  0  0
  8 12  1  0  0  0  0
  9 14  1  1  0  0  0
  9 22  1  0  0  0  0
 10 21  1  6  0  0  0
 10  3  1  0  0  0  0
 11  5  2  0  0  0  0
 12  4  1  0  0  0  0
 13 18  2  0  0  0  0
 15 23  1  0  0  0  0
 17 26  1  0  0  0  0
 17  3  1  0  0  0  0
 19  2  1  0  0  0  0
 19 26  1  0  0  0  0
 20 17  1  0  0  0  0
 22 20  1  1  0  0  0
 22 10  1  0  0  0  0
 23 14  1  0  0  0  0
 24 27  2  0  0  0  0
 25 18  1  0  0  0  0
 26 25  2  0  0  0  0
 27 12  1  0  0  0  0
 27  7  1  0  0  0  0
 28 11  1  0  0  0  0
 29 30  1  0  0  0  0
 30 28  1  0  0  0  0
M  END
>  <MODEL>
3

>  <REMARK>
 VINA RESULT:      -7.8      3.681      7.856
  Name = 
  2 active torsions:
  status: ('A' for Active; 'I' for Inactive)
    1  A    between atoms: C_11  and  O_28
    2  A    between atoms: O_28  and  C_30
                            x       y       z     vdW  Elec       q    Type
                         _______ _______ _______ _____ _____    ______ ____

>  <TORSDO>
F 2

$$$$
=
 OpenBabel11122410343D

 30 35  0  0  1  0  0  0  0  0999 V2000
  185.6830  178.1390  138.6740 C   0  0  0  0  0  0  0  0  0  0  0  0
  187.4640  178.4420  136.9540 C   0  0  2  0  0  3  0  0  0  0  0  0
  188.2670  178.0970  142.0390 C   0  0  0  0  0  2  0  0  0  0  0  0
  185.2020  178.0340  140.0800 C   0  0  0  0  0  0  0  0  0  0  0  0
  184.7060  178.1460  137.6270 N   0  0  0  0  0  0  0  0  0  0  0  0
  182.8870  175.9260  139.2570 C   0  0  0  0  0  1  0  0  0  0  0  0
  183.4670  178.4030  142.7600 C   0  0  1  0  0  3  0  0  0  0  0  0
  182.9460  177.4410  139.1810 C   0  0  2  0  0  3  0  0  0  0  0  0
  184.8600  178.8800  143.0670 C   0  0  1  0  0  3  0  0  0  0  0  0
  187.2450  178.0010  143.1760 C   0  0  2  0  0  3  0  0  0  0  0  0
  183.4480  177.8710  137.8270 C   0  0  0  0  0  0  0  0  0  0  0  0
  183.7730  177.9640  140.2720 N   0  0  0  0  0  0  0  0  0  0  0  0
  188.9620  178.3690  136.8050 C   0  0  0  0  0  3  0  0  0  0  0  0
  184.8700  179.0120  144.5800 C   0  0  0  0  0  2  0  0  0  0  0  0
  182.5700  179.0950  143.7690 C   0  0  0  0  0  2  0  0  0  0  0  0
  187.0240  179.6600  136.4680 F   0  0  0  0  0  0  0  0  0  0  0  0
  187.4830  178.1660  140.8240 N   0  0  0  0  0  0  0  0  0  0  0  0
  189.7930  178.3120  137.8490 C   0  0  0  0  0  3  0  0  0  0  0  0
  186.9950  178.2630  138.3820 C   0  0  0  0  0  0  0  0  0  0  0  0
  186.1010  178.0390  141.0910 C   0  0  0  0  0  0  0  0  0  0  0  0
  187.5590  176.7990  144.0420 C   0  0  0  0  0  1  0  0  0  0  0  0
  185.8480  177.8420  142.5460 C   0  0  2  0  0  3  0  0  0  0  0  0
  183.4490  179.3780  144.9750 C   0  0  0  0  0  2  0  0  0  0  0  0
  182.1460  179.4430  141.0550 O   0  0  0  0  0  0  0  0  0  0  0  0
  189.2910  178.2770  139.2310 C   0  0  0  0  0  3  0  0  0  0  0  0
  187.9800  178.2530  139.4870 C   0  0  0  0  0  0  0  0  0  0  0  0
  183.0980  178.6600  141.3320 C   0  0  0  0  0  0  0  0  0  0  0  0
  182.5360  177.9240  136.7680 O   0  0  0  0  0  0  0  0  0  0  0  0
  181.1800  179.9050  137.0060 C   0  0  0  0  0  1  0  0  0  0  0  0
  181.2000  178.3900  136.9220 C   0  0  0  0  0  2  0  0  0  0  0  0
  1  4  1  0  0  0  0
  2 16  1  1  0  0  0
  2 19  1  0  0  0  0
  3 10  1  0  0  0  0
  4 12  1  0  0  0  0
  4 20  2  0  0  0  0
  5 11  2  0  0  0  0
  5  1  1  0  0  0  0
  7  9  1  0  0  0  0
  7 15  1  1  0  0  0
  8  6  1  6  0  0  0
  8 12  1  0  0  0  0
  9 14  1  1  0  0  0
 10 21  1  1  0  0  0
 11  8  1  0  0  0  0
 12 27  1  0  0  0  0
 13  2  1  0  0  0  0
 13 18  2  0  0  0  0
 14 23  1  0  0  0  0
 15 23  1  0  0  0  0
 17 20  1  0  0  0  0
 17  3  1  0  0  0  0
 18 25  1  0  0  0  0
 19  1  2  0  0  0  0
 19 26  1  0  0  0  0
 22 20  1  6  0  0  0
 22  9  1  0  0  0  0
 22 10  1  0  0  0  0
 24 27  2  0  0  0  0
 25 26  2  0  0  0  0
 26 17  1  0  0  0  0
 27  7  1  0  0  0  0
 28 30  1  0  0  0  0
 28 11  1  0  0  0  0
 30 29  1  0  0  0  0
M  END
>  <MODEL>
4

>  <REMARK>
 VINA RESULT:      -7.0      3.840      7.307
  Name = 
  2 active torsions:
  status: ('A' for Active; 'I' for Inactive)
    1  A    between atoms: C_11  and  O_28
    2  A    between atoms: O_28  and  C_30
                            x       y       z     vdW  Elec       q    Type
                         _______ _______ _______ _____ _____    ______ ____

>  <TORSDO>
F 2

$$$$
=
 OpenBabel11122410343D

 30 35  0  0  1  0  0  0  0  0999 V2000
  188.0720  177.9660  141.1360 C   0  0  0  0  0  0  0  0  0  0  0  0
  185.8630  179.0750  141.4750 C   0  0  0  0  0  0  0  0  0  0  0  0
  187.4460  176.8760  137.0840 C   0  0  0  0  0  2  0  0  0  0  0  0
  189.0970  177.2820  140.2990 C   0  0  0  0  0  0  0  0  0  0  0  0
  188.4100  178.2830  142.4910 N   0  0  0  0  0  0  0  0  0  0  0  0
  190.0700  175.4450  142.7810 C   0  0  0  0  0  1  0  0  0  0  0  0
  191.9010  176.4250  138.9820 C   0  0  1  0  0  3  0  0  0  0  0  0
  190.4110  176.8710  142.3870 C   0  0  2  0  0  3  0  0  0  0  0  0
  191.0050  176.8770  137.8600 C   0  0  1  0  0  3  0  0  0  0  0  0
  188.8040  176.2540  136.7480 C   0  0  2  0  0  3  0  0  0  0  0  0
  189.4830  177.8350  143.0790 C   0  0  0  0  0  0  0  0  0  0  0  0
  190.3680  177.0090  140.9280 N   0  0  0  0  0  0  0  0  0  0  0  0
  184.5150  179.2070  140.8150 C   0  0  0  0  0  3  0  0  0  0  0  0
  191.7350  176.4170  136.6110 C   0  0  0  0  0  2  0  0  0  0  0  0
  193.3160  176.5870  138.4610 C   0  0  0  0  0  2  0  0  0  0  0  0
  186.3500  180.3390  141.7560 F   0  0  0  0  0  0  0  0  0  0  0  0
  187.5620  177.3330  138.4520 N   0  0  0  0  0  0  0  0  0  0  0  0
  184.2830  178.8310  139.5550 C   0  0  0  0  0  3  0  0  0  0  0  0
  186.8680  178.3170  140.6350 C   0  0  0  0  0  0  0  0  0  0  0  0
  188.8120  176.9830  139.0120 C   0  0  0  0  0  0  0  0  0  0  0  0
  188.6030  174.8460  136.2260 C   0  0  0  0  0  1  0  0  0  0  0  0
  189.6420  176.2180  138.0400 C   0  0  2  0  0  3  0  0  0  0  0  0
  193.2150  176.4660  136.9510 C   0  0  0  0  0  2  0  0  0  0  0  0
  192.5130  177.9120  140.7560 O   0  0  0  0  0  0  0  0  0  0  0  0
  185.3350  178.2200  138.7290 C   0  0  0  0  0  3  0  0  0  0  0  0
  186.5490  177.9750  139.2310 C   0  0  2  0  0  3  0  0  0  0  0  0
  191.6220  177.1760  140.2470 C   0  0  0  0  0  0  0  0  0  0  0  0
  189.7750  178.2040  144.3960 O   0  0  0  0  0  0  0  0  0  0  0  0
  189.7440  177.0680  146.5240 C   0  0  0  0  0  1  0  0  0  0  0  0
  188.9460  177.8510  145.4990 C   0  0  0  0  0  2  0  0  0  0  0  0
  1  5  1  0  0  0  0
  2 16  1  0  0  0  0
  3 17  1  0  0  0  0
  4 12  1  0  0  0  0
  4  1  1  0  0  0  0
  5 11  2  0  0  0  0
  7 15  1  6  0  0  0
  7 27  1  0  0  0  0
  8  6  1  6  0  0  0
  8 11  1  0  0  0  0
  9 14  1  6  0  0  0
  9 22  1  0  0  0  0
  9  7  1  0  0  0  0
 10 21  1  1  0  0  0
 10  3  1  0  0  0  0
 10 22  1  0  0  0  0
 11 28  1  0  0  0  0
 12  8  1  0  0  0  0
 13  2  2  0  0  0  0
 14 23  1  0  0  0  0
 17 20  1  0  0  0  0
 17 26  1  0  0  0  0
 18 13  1  0  0  0  0
 19  1  2  0  0  0  0
 19  2  1  0  0  0  0
 20  4  2  0  0  0  0
 22 20  1  1  0  0  0
 23 15  1  0  0  0  0
 25 18  2  0  0  0  0
 26 25  1  1  0  0  0
 26 19  1  0  0  0  0
 27 24  2  0  0  0  0
 27 12  1  0  0  0  0
 28 30  1  0  0  0  0
 30 29  1  0  0  0  0
M  END
>  <MODEL>
5

>  <REMARK>
 VINA RESULT:      -6.9      2.552      6.792
  Name = 
  2 active torsions:
  status: ('A' for Active; 'I' for Inactive)
    1  A    between atoms: C_11  and  O_28
    2  A    between atoms: O_28  and  C_30
                            x       y       z     vdW  Elec       q    Type
                         _______ _______ _______ _____ _____    ______ ____

>  <TORSDO>
F 2

$$$$
=
 OpenBabel11122410343D

 30 35  0  0  1  0  0  0  0  0999 V2000
  188.6630  177.6910  139.7460 C   0  0  0  0  0  0  0  0  0  0  0  0
  188.9710  178.3050  142.1440 C   0  0  0  0  0  0  0  0  0  0  0  0
  192.5830  176.1900  139.1260 C   0  0  0  0  0  2  0  0  0  0  0  0
  189.1220  177.0950  138.4610 C   0  0  0  0  0  0  0  0  0  0  0  0
  187.3110  178.1590  139.8270 N   0  0  0  0  0  0  0  0  0  0  0  0
  187.4700  179.2690  136.7220 C   0  0  0  0  0  1  0  0  0  0  0  0
  189.2040  175.4320  135.7110 C   0  0  1  0  0  3  0  0  0  0  0  0
  187.0390  177.9790  137.3970 C   0  0  2  0  0  3  0  0  0  0  0  0
  190.3170  174.9090  136.5770 C   0  0  1  0  0  3  0  0  0  0  0  0
  192.4690  175.6980  137.6810 C   0  0  2  0  0  3  0  0  0  0  0  0
  186.5330  178.2660  138.7870 C   0  0  0  0  0  0  0  0  0  0  0  0
  188.1490  177.0200  137.3970 N   0  0  0  0  0  0  0  0  0  0  0  0
  190.0630  178.4850  143.1680 C   0  0  0  0  0  3  0  0  0  0  0  0
  191.1470  174.0670  135.6240 C   0  0  0  0  0  2  0  0  0  0  0  0
  188.8890  174.3140  134.7350 C   0  0  0  0  0  2  0  0  0  0  0  0
  188.0080  177.4570  142.6600 F   0  0  0  0  0  0  0  0  0  0  0  0
  191.2670  176.6890  139.4650 N   0  0  0  0  0  0  0  0  0  0  0  0
  191.3140  178.0580  142.9770 C   0  0  0  0  0  3  0  0  0  0  0  0
  189.4730  177.7620  140.8240 C   0  0  0  0  0  0  0  0  0  0  0  0
  190.3880  176.6310  138.3590 C   0  0  0  0  0  0  0  0  0  0  0  0
  193.5460  176.3460  136.8360 C   0  0  0  0  0  1  0  0  0  0  0  0
  191.0780  176.0980  137.1510 C   0  0  2  0  0  3  0  0  0  0  0  0
  190.1720  173.5140  134.5990 C   0  0  0  0  0  2  0  0  0  0  0  0
  186.9180  175.2990  136.4130 O   0  0  0  0  0  0  0  0  0  0  0  0
  191.7230  177.4110  141.7220 C   0  0  0  0  0  3  0  0  0  0  0  0
  190.8650  177.2700  140.7080 C   0  0  2  0  0  3  0  0  0  0  0  0
  188.0330  175.8810  136.5300 C   0  0  0  0  0  0  0  0  0  0  0  0
  185.2120  178.7010  138.9340 O   0  0  0  0  0  0  0  0  0  0  0  0
  183.5630  178.0300  140.5610 C   0  0  0  0  0  1  0  0  0  0  0  0
  184.6440  179.0300  140.1970 C   0  0  0  0  0  2  0  0  0  0  0  0
  1  5  1  0  0  0  0
  1 19  2  0  0  0  0
  2 16  1  0  0  0  0
  2 13  2  0  0  0  0
  3 17  1  0  0  0  0
  4  1  1  0  0  0  0
  7 15  1  6  0  0  0
  7 27  1  0  0  0  0
  7  9  1  0  0  0  0
  8  6  1  1  0  0  0
  8 12  1  0  0  0  0
  8 11  1  0  0  0  0
  9 14  1  6  0  0  0
  9 22  1  0  0  0  0
 10 21  1  6  0  0  0
 10  3  1  0  0  0  0
 11 28  1  0  0  0  0
 11  5  2  0  0  0  0
 12  4  1  0  0  0  0
 17 26  1  0  0  0  0
 18 13  1  0  0  0  0
 19  2  1  0  0  0  0
 20  4  2  0  0  0  0
 20 17  1  0  0  0  0
 22 10  1  0  0  0  0
 22 20  1  1  0  0  0
 23 15  1  0  0  0  0
 23 14  1  0  0  0  0
 24 27  2  0  0  0  0
 25 18  2  0  0  0  0
 26 19  1  0  0  0  0
 26 25  1  6  0  0  0
 27 12  1  0  0  0  0
 28 30  1  0  0  0  0
 30 29  1  0  0  0  0
M  END
>  <MODEL>
6

>  <REMARK>
 VINA RESULT:      -6.9      3.994      8.053
  Name = 
  2 active torsions:
  status: ('A' for Active; 'I' for Inactive)
    1  A    between atoms: C_11  and  O_28
    2  A    between atoms: O_28  and  C_30
                            x       y       z     vdW  Elec       q    Type
                         _______ _______ _______ _____ _____    ______ ____

>  <TORSDO>
F 2

$$$$
=
 OpenBabel11122410343D

 30 35  0  0  1  0  0  0  0  0999 V2000
  189.1590  177.3640  140.1590 C   0  0  0  0  0  0  0  0  0  0  0  0
  190.3260  176.4550  138.1500 C   0  0  0  0  0  0  0  0  0  0  0  0
  185.5710  178.4580  138.1780 C   0  0  0  0  0  2  0  0  0  0  0  0
  187.9790  177.9470  140.8560 C   0  0  0  0  0  0  0  0  0  0  0  0
  190.3110  177.0350  140.9450 N   0  0  0  0  0  0  0  0  0  0  0  0
  189.8560  179.7210  142.8080 C   0  0  0  0  0  1  0  0  0  0  0  0
  185.6960  178.5430  143.0390 C   0  0  1  0  0  3  0  0  0  0  0  0
  189.4250  178.2670  142.8710 C   0  0  2  0  0  3  0  0  0  0  0  0
  184.9980  178.1570  141.7630 C   0  0  1  0  0  3  0  0  0  0  0  0
  184.7380  178.9560  139.3620 C   0  0  2  0  0  3  0  0  0  0  0  0
  190.4480  177.3950  142.1900 C   0  0  0  0  0  0  0  0  0  0  0  0
  188.0890  178.1160  142.2860 N   0  0  0  0  0  0  0  0  0  0  0  0
  190.2080  176.4330  136.6480 C   0  0  0  0  0  3  0  0  0  0  0  0
  183.5500  178.5380  142.0180 C   0  0  0  0  0  2  0  0  0  0  0  0
  184.7030  178.2520  144.1480 C   0  0  0  0  0  2  0  0  0  0  0  0
  190.4640  175.1570  138.6080 F   0  0  0  0  0  0  0  0  0  0  0  0
  186.8210  178.0080  138.7520 N   0  0  0  0  0  0  0  0  0  0  0  0
  189.1030  176.8130  136.0010 C   0  0  0  0  0  3  0  0  0  0  0  0
  189.1460  177.1140  138.8330 C   0  0  0  0  0  0  0  0  0  0  0  0
  186.8720  178.2550  140.1430 C   0  0  0  0  0  0  0  0  0  0  0  0
  184.2650  180.3700  139.0930 C   0  0  0  0  0  1  0  0  0  0  0  0
  185.6330  178.9340  140.6150 C   0  0  2  0  0  3  0  0  0  0  0  0
  183.3290  178.3650  143.5110 C   0  0  0  0  0  2  0  0  0  0  0  0
  187.1870  177.0290  144.1430 O   0  0  0  0  0  0  0  0  0  0  0  0
  187.9260  177.3210  136.7200 C   0  0  0  0  0  3  0  0  0  0  0  0
  187.9410  177.4660  138.0480 C   0  0  2  0  0  3  0  0  0  0  0  0
  187.0070  177.8330  143.1870 C   0  0  0  0  0  0  0  0  0  0  0  0
  191.5830  177.0170  142.9140 O   0  0  0  0  0  0  0  0  0  0  0  0
  191.6520  176.7470  145.3100 C   0  0  0  0  0  1  0  0  0  0  0  0
  191.5450  176.0560  143.9640 C   0  0  0  0  0  2  0  0  0  0  0  0
  1  4  1  0  0  0  0
  1  5  1  0  0  0  0
  2 16  1  0  0  0  0
  2 19  1  0  0  0  0
  3 17  1  0  0  0  0
  3 10  1  0  0  0  0
  4 12  1  0  0  0  0
  5 11  2  0  0  0  0
  7 27  1  0  0  0  0
  7 15  1  1  0  0  0
  8  6  1  6  0  0  0
  9 14  1  1  0  0  0
  9  7  1  0  0  0  0
 10 21  1  6  0  0  0
 10 22  1  0  0  0  0
 11  8  1  0  0  0  0
 11 28  1  0  0  0  0
 12  8  1  0  0  0  0
 12 27  1  0  0  0  0
 13  2  2  0  0  0  0
 14 23  1  0  0  0  0
 17 20  1  0  0  0  0
 18 13  1  0  0  0  0
 18 25  2  0  0  0  0
 19  1  2  0  0  0  0
 20  4  2  0  0  0  0
 22 20  1  6  0  0  0
 22  9  1  0  0  0  0
 23 15  1  0  0  0  0
 26 25  1  6  0  0  0
 26 17  1  0  0  0  0
 26 19  1  0  0  0  0
 27 24  2  0  0  0  0
 28 30  1  0  0  0  0
 30 29  1  0  0  0  0
M  END
>  <MODEL>
7

>  <REMARK>
 VINA RESULT:      -6.6      2.648      7.071
  Name = 
  2 active torsions:
  status: ('A' for Active; 'I' for Inactive)
    1  A    between atoms: C_11  and  O_28
    2  A    between atoms: O_28  and  C_30
                            x       y       z     vdW  Elec       q    Type
                         _______ _______ _______ _____ _____    ______ ____

>  <TORSDO>
F 2

$$$$
=
 OpenBabel11122410343D

 30 35  0  0  1  0  0  0  0  0999 V2000
  188.8190  177.7990  141.1280 C   0  0  0  0  0  0  0  0  0  0  0  0
  188.3260  177.5810  138.6920 C   0  0  2  0  0  3  0  0  0  0  0  0
  184.8830  178.8350  142.3250 C   0  0  0  0  0  2  0  0  0  0  0  0
  188.4220  178.0230  142.5460 C   0  0  0  0  0  0  0  0  0  0  0  0
  190.1820  177.4500  140.8560 N   0  0  0  0  0  0  0  0  0  0  0  0
  191.2190  179.5080  143.2190 C   0  0  0  0  0  1  0  0  0  0  0  0
  188.1720  177.7430  145.7380 C   0  0  1  0  0  3  0  0  0  0  0  0
  190.8510  178.0370  143.1400 C   0  0  2  0  0  3  0  0  0  0  0  0
  186.7870  177.5890  145.1710 C   0  0  1  0  0  3  0  0  0  0  0  0
  185.0620  178.9070  143.8440 C   0  0  2  0  0  3  0  0  0  0  0  0
  191.1230  177.5100  141.7550 C   0  0  0  0  0  0  0  0  0  0  0  0
  189.4530  177.8500  143.5420 N   0  0  0  0  0  0  0  0  0  0  0  0
  187.2500  177.9110  137.6890 C   0  0  0  0  0  3  0  0  0  0  0  0
  185.8870  177.6900  146.3890 C   0  0  0  0  0  2  0  0  0  0  0  0
  188.1360  177.0540  147.0890 C   0  0  0  0  0  2  0  0  0  0  0  0
  188.6540  176.2420  138.5730 F   0  0  0  0  0  0  0  0  0  0  0  0
  186.1740  178.4360  141.8060 N   0  0  0  0  0  0  0  0  0  0  0  0
  186.0160  178.2810  138.0430 C   0  0  0  0  0  3  0  0  0  0  0  0
  187.9240  177.8810  140.1200 C   0  0  0  0  0  0  0  0  0  0  0  0
  187.1400  178.3390  142.8340 C   0  0  0  0  0  0  0  0  0  0  0  0
  184.6130  180.2640  144.3460 C   0  0  0  0  0  1  0  0  0  0  0  0
  186.5570  178.7030  144.1560 C   0  0  2  0  0  3  0  0  0  0  0  0
  186.6900  177.1280  147.5490 C   0  0  0  0  0  2  0  0  0  0  0  0
  189.9300  176.2270  145.1490 O   0  0  0  0  0  0  0  0  0  0  0  0
  185.6330  178.4290  139.4550 C   0  0  0  0  0  3  0  0  0  0  0  0
  186.5240  178.2440  140.4330 C   0  0  0  0  0  0  0  0  0  0  0  0
  189.2130  177.2070  144.8040 C   0  0  0  0  0  0  0  0  0  0  0  0
  192.4300  177.1270  141.4370 O   0  0  0  0  0  0  0  0  0  0  0  0
  192.8400  176.7490  139.0900 C   0  0  0  0  0  1  0  0  0  0  0  0
  193.1240  177.6220  140.2970 C   0  0  0  0  0  2  0  0  0  0  0  0
  1  4  1  0  0  0  0
  2 16  1  1  0  0  0
  2 19  1  0  0  0  0
  3 10  1  0  0  0  0
  4 20  2  0  0  0  0
  4 12  1  0  0  0  0
  5  1  1  0  0  0  0
  5 11  2  0  0  0  0
  7 15  1  1  0  0  0
  8  6  1  6  0  0  0
  8 12  1  0  0  0  0
  9  7  1  0  0  0  0
  9 14  1  1  0  0  0
 10 22  1  0  0  0  0
 10 21  1  6  0  0  0
 11  8  1  0  0  0  0
 12 27  1  0  0  0  0
 13 18  2  0  0  0  0
 13  2  1  0  0  0  0
 14 23  1  0  0  0  0
 15 23  1  0  0  0  0
 17  3  1  0  0  0  0
 17 20  1  0  0  0  0
 18 25  1  0  0  0  0
 19 26  1  0  0  0  0
 19  1  2  0  0  0  0
 22 20  1  6  0  0  0
 22  9  1  0  0  0  0
 25 26  2  0  0  0  0
 26 17  1  0  0  0  0
 27 24  2  0  0  0  0
 27  7  1  0  0  0  0
 28 11  1  0  0  0  0
 29 30  1  0  0  0  0
 30 28  1  0  0  0  0
M  END
>  <MODEL>
8

>  <REMARK>
 VINA RESULT:      -6.5      2.254      4.468
  Name = 
  2 active torsions:
  status: ('A' for Active; 'I' for Inactive)
    1  A    between atoms: C_11  and  O_28
    2  A    between atoms: O_28  and  C_30
                            x       y       z     vdW  Elec       q    Type
                         _______ _______ _______ _____ _____    ______ ____

>  <TORSDO>
F 2

$$$$
=
 OpenBabel11122410343D

 30 35  0  0  1  0  0  0  0  0999 V2000
  185.0520  178.3840  142.9420 C   0  0  0  0  0  0  0  0  0  0  0  0
  182.9390  178.9490  144.1430 C   0  0  0  0  0  0  0  0  0  0  0  0
  183.3430  178.0980  139.0690 C   0  0  0  0  0  2  0  0  0  0  0  0
  185.8440  178.1070  141.7120 C   0  0  0  0  0  0  0  0  0  0  0  0
  185.7510  178.4590  144.1910 N   0  0  0  0  0  0  0  0  0  0  0  0
  187.7450  175.9970  143.2650 C   0  0  0  0  0  1  0  0  0  0  0  0
  188.1860  178.1090  139.5110 C   0  0  1  0  0  3  0  0  0  0  0  0
  187.7760  177.5130  143.1830 C   0  0  2  0  0  3  0  0  0  0  0  0
  186.9420  178.6130  138.8320 C   0  0  1  0  0  3  0  0  0  0  0  0
  184.5960  177.8360  138.2290 C   0  0  2  0  0  3  0  0  0  0  0  0
  186.9980  178.1080  144.3290 C   0  0  0  0  0  0  0  0  0  0  0  0
  187.2690  177.9530  141.8800 N   0  0  0  0  0  0  0  0  0  0  0  0
  181.4470  178.9600  143.9290 C   0  0  0  0  0  3  0  0  0  0  0  0
  187.3010  178.5830  137.3570 C   0  0  0  0  0  2  0  0  0  0  0  0
  189.3430  178.6480  138.6910 C   0  0  0  0  0  2  0  0  0  0  0  0
  183.3350  180.1910  144.6050 F   0  0  0  0  0  0  0  0  0  0  0  0
  183.8200  178.2620  140.4260 N   0  0  0  0  0  0  0  0  0  0  0  0
  180.8860  178.8290  142.7240 C   0  0  0  0  0  3  0  0  0  0  0  0
  183.7200  178.5980  142.8940 C   0  0  0  0  0  0  0  0  0  0  0  0
  185.2130  178.0450  140.5170 C   0  0  0  0  0  0  0  0  0  0  0  0
  184.4140  176.5630  137.4290 C   0  0  0  0  0  1  0  0  0  0  0  0
  185.7890  177.6820  139.1910 C   0  0  2  0  0  3  0  0  0  0  0  0
  188.7970  178.8400  137.2870 C   0  0  0  0  0  2  0  0  0  0  0  0
  189.1340  179.2650  141.3820 O   0  0  0  0  0  0  0  0  0  0  0  0
  181.6970  178.6240  141.5150 C   0  0  0  0  0  3  0  0  0  0  0  0
  183.0260  178.5130  141.5890 C   0  0  2  0  0  3  0  0  0  0  0  0
  188.2230  178.5010  140.9560 C   0  0  0  0  0  0  0  0  0  0  0  0
  187.6340  178.2320  145.5680 O   0  0  0  0  0  0  0  0  0  0  0  0
  188.0620  177.6070  147.8580 C   0  0  0  0  0  1  0  0  0  0  0  0
  187.0120  177.8690  146.7960 C   0  0  0  0  0  2  0  0  0  0  0  0
  1  5  1  0  0  0  0
  2 16  1  0  0  0  0
  3 17  1  0  0  0  0
  4 12  1  0  0  0  0
  4  1  1  0  0  0  0
  5 11  2  0  0  0  0
  7 15  1  6  0  0  0
  7 27  1  0  0  0  0
  8  6  1  6  0  0  0
  8 11  1  0  0  0  0
  9 14  1  6  0  0  0
  9 22  1  0  0  0  0
  9  7  1  0  0  0  0
 10 21  1  1  0  0  0
 10  3  1  0  0  0  0
 10 22  1  0  0  0  0
 11 28  1  0  0  0  0
 12  8  1  0  0  0  0
 13  2  2  0  0  0  0
 17 20  1  0  0  0  0
 17 26  1  0  0  0  0
 18 13  1  0  0  0  0
 19  1  2  0  0  0  0
 19  2  1  0  0  0  0
 20  4  2  0  0  0  0
 22 20  1  1  0  0  0
 23 14  1  0  0  0  0
 23 15  1  0  0  0  0
 25 18  2  0  0  0  0
 26 25  1  1  0  0  0
 26 19  1  0  0  0  0
 27 24  2  0  0  0  0
 27 12  1  0  0  0  0
 28 30  1  0  0  0  0
 30 29  1  0  0  0  0
M  END
>  <MODEL>
9

>  <REMARK>
 VINA RESULT:      -6.4      2.645      6.646
  Name = 
  2 active torsions:
  status: ('A' for Active; 'I' for Inactive)
    1  A    between atoms: C_11  and  O_28
    2  A    between atoms: O_28  and  C_30
                            x       y       z     vdW  Elec       q    Type
                         _______ _______ _______ _____ _____    ______ ____

>  <TORSDO>
F 2

$$$$
