=
 OpenBabel11122410343D

 30 35  0  0  1  0  0  0  0  0999 V2000
  187.0390  177.9570  142.1890 C   0  0  2  0  0  3  0  0  0  0  0  0
  184.9220  179.2070  141.6150 C   0  0  0  0  0  0  0  0  0  0  0  0
  185.9100  177.8430  146.1610 O   0  0  0  0  0  0  0  0  0  0  0  0
  187.9740  177.5320  143.3240 C   0  0  2  0  0  3  0  0  0  0  0  0
  187.8010  178.6850  141.2540 O   0  0  0  0  0  0  0  0  0  0  0  0
  190.5370  176.3500  140.8650 O   0  0  0  0  0  1  0  0  0  0  0  0
  190.5350  177.1610  144.8450 C   0  0  1  0  0  3  0  0  0  0  0  0
  189.7440  177.2830  141.5370 C   0  0  1  0  0  3  0  0  0  0  0  0
  189.4230  177.8470  145.6690 C   0  0  2  0  0  3  0  0  0  0  0  0
  187.1370  177.6320  146.7470 C   0  0  0  0  0  0  0  0  0  0  0  0
  188.6420  177.7750  140.5880 C   0  0  2  0  0  3  0  0  0  0  0  0
  189.0750  176.6240  142.7550 C   0  0  1  0  0  3  0  0  0  0  0  0
  183.5920  179.4640  141.9530 O   0  0  0  0  0  0  0  0  0  0  0  0
  190.0490  178.2340  146.9960 C   0  0  0  0  0  2  0  0  0  0  0  0
  191.7640  176.4380  145.9920 S   0  0  0  0  0  0  0  0  0  0  0  0
  185.2770  179.2920  140.4080 O   0  0  0  0  0  0  0  0  0  0  0  0
  185.8600  177.3070  144.8540 C   0  0  2  0  0  3  0  0  0  0  0  0
  183.2040  179.6140  143.3150 C   0  0  0  0  0  2  0  0  0  0  0  0
  185.9180  178.8630  142.7070 C   0  0  1  0  0  3  0  0  0  0  0  0
  187.2980  176.8480  144.5230 C   0  0  2  0  0  3  0  0  0  0  0  0
  187.3560  177.8950  147.9580 O   0  0  0  0  0  0  0  0  0  0  0  0
  188.1270  176.9970  145.8350 C   0  0  1  0  0  3  0  0  0  0  0  0
  190.8970  177.0730  147.4490 C   0  0  0  0  0  2  0  0  0  0  0  0
  191.1120  175.3960  143.2820 O   0  0  0  0  0  1  0  0  0  0  0  0
  183.9250  178.6150  144.1700 C   0  0  0  0  0  3  0  0  0  0  0  0
  185.1960  178.2680  143.9050 C   0  0  0  0  0  0  0  0  0  0  0  0
  190.0440  176.1030  143.8420 C   0  0  1  0  0  3  0  0  0  0  0  0
  189.2570  178.4580  139.3770 C   0  0  0  0  0  2  0  0  0  0  0  0
  188.7500  179.6280  137.5210 O   0  0  0  0  0  1  0  0  0  0  0  0
  188.2290  178.7300  138.3880 N   0  0  0  0  0  2  0  0  0  0  0  0
  1  5  1  6  0  0  0
  1 19  1  0  0  0  0
  1  4  1  0  0  0  0
  2 13  1  0  0  0  0
  2 19  1  0  0  0  0
  3 10  1  0  0  0  0
  4 20  1  0  0  0  0
  6  8  1  0  0  0  0
  7  9  1  0  0  0  0
  7 15  1  0  0  0  0
  8 12  1  0  0  0  0
  9 22  1  0  0  0  0
  9 14  1  0  0  0  0
 10 21  2  0  0  0  0
 11  5  1  0  0  0  0
 11  8  1  0  0  0  0
 12  4  1  0  0  0  0
 12 27  1  0  0  0  0
 13 18  1  0  0  0  0
 14 23  1  0  0  0  0
 15 23  1  0  0  0  0
 16  2  2  0  0  0  0
 17  3  1  0  0  0  0
 18 25  1  0  0  0  0
 19 26  1  0  0  0  0
 20 17  1  0  0  0  0
 20 22  1  0  0  0  0
 22 10  1  0  0  0  0
 24 27  1  0  0  0  0
 26 25  2  0  0  0  0
 26 17  1  0  0  0  0
 27  7  1  0  0  0  0
 28 11  1  0  0  0  0
 29 30  1  0  0  0  0
 30 28  1  0  0  0  0
M  END
>  <MODEL>
1

>  <REMARK>
 VINA RESULT:     -10.0      0.000      0.000
  Name = 
  2 active torsions:
  status: ('A' for Active; 'I' for Inactive)
    1  A    between atoms: C_11  and  C_28
    2  A    between atoms: C_28  and  N_30
                            x       y       z     vdW  Elec       q    Type
                         _______ _______ _______ _____ _____    ______ ____

>  <TORSDO>
F 2

$$$$
=
 OpenBabel11122410343D

 30 35  0  0  1  0  0  0  0  0999 V2000
  187.0360  178.2420  143.2010 C   0  0  2  0  0  3  0  0  0  0  0  0
  188.0270  177.6440  145.4450 C   0  0  0  0  0  0  0  0  0  0  0  0
  183.3830  178.9640  144.9900 O   0  0  0  0  0  0  0  0  0  0  0  0
  185.7360  178.4480  142.4210 C   0  0  2  0  0  3  0  0  0  0  0  0
  187.7890  177.2570  142.5320 O   0  0  0  0  0  0  0  0  0  0  0  0
  187.6210  178.6380  139.1920 O   0  0  0  0  0  1  0  0  0  0  0  0
  183.7220  178.1430  140.2160 C   0  0  1  0  0  3  0  0  0  0  0  0
  187.1210  178.0330  140.3480 C   0  0  1  0  0  3  0  0  0  0  0  0
  183.1400  177.8790  141.6220 C   0  0  2  0  0  3  0  0  0  0  0  0
  182.5580  178.8390  143.8960 C   0  0  0  0  0  0  0  0  0  0  0  0
  188.2740  177.8270  141.3400 C   0  0  2  0  0  3  0  0  0  0  0  0
  186.0710  178.9440  141.0060 C   0  0  1  0  0  3  0  0  0  0  0  0
  187.9680  177.8190  146.8290 O   0  0  0  0  0  0  0  0  0  0  0  0
  181.7100  177.4160  141.4150 C   0  0  0  0  0  2  0  0  0  0  0  0
  182.3510  178.5440  139.0720 S   0  0  0  0  0  0  0  0  0  0  0  0
  189.1330  177.3740  144.9060 O   0  0  0  0  0  0  0  0  0  0  0  0
  184.6770  179.3980  144.6190 C   0  0  2  0  0  3  0  0  0  0  0  0
  186.7150  177.8860  147.5020 C   0  0  0  0  0  2  0  0  0  0  0  0
  186.7550  177.7500  144.6240 C   0  0  1  0  0  3  0  0  0  0  0  0
  184.7070  179.3830  143.0740 C   0  0  2  0  0  3  0  0  0  0  0  0
  181.3270  178.6070  144.0090 O   0  0  0  0  0  0  0  0  0  0  0  0
  183.2510  179.0860  142.6020 C   0  0  1  0  0  3  0  0  0  0  0  0
  181.0990  178.2990  140.3580 C   0  0  0  0  0  2  0  0  0  0  0  0
  185.1440  179.5430  138.8340 O   0  0  0  0  0  1  0  0  0  0  0  0
  185.7360  178.6820  146.6900 C   0  0  0  0  0  3  0  0  0  0  0  0
  185.7350  178.6150  145.3470 C   0  0  0  0  0  0  0  0  0  0  0  0
  184.8120  179.2270  140.1550 C   0  0  1  0  0  3  0  0  0  0  0  0
  189.3270  176.9090  140.7410 C   0  0  0  0  0  2  0  0  0  0  0  0
  190.4160  175.6680  142.2710 O   0  0  0  0  0  1  0  0  0  0  0  0
  190.4850  176.8490  141.6150 N   0  0  0  0  0  2  0  0  0  0  0  0
  1  5  1  6  0  0  0
  1 19  1  0  0  0  0
  2 13  1  0  0  0  0
  4 20  1  0  0  0  0
  4  1  1  0  0  0  0
  6  8  1  0  0  0  0
  7  9  1  0  0  0  0
  8 12  1  0  0  0  0
  8 11  1  0  0  0  0
  9 22  1  0  0  0  0
 10 21  2  0  0  0  0
 10  3  1  0  0  0  0
 11  5  1  0  0  0  0
 12  4  1  0  0  0  0
 13 18  1  0  0  0  0
 14  9  1  0  0  0  0
 15  7  1  0  0  0  0
 15 23  1  0  0  0  0
 16  2  2  0  0  0  0
 17  3  1  0  0  0  0
 17 26  1  0  0  0  0
 19 26  1  0  0  0  0
 19  2  1  0  0  0  0
 20 17  1  0  0  0  0
 22 20  1  0  0  0  0
 22 10  1  0  0  0  0
 23 14  1  0  0  0  0
 24 27  1  0  0  0  0
 25 18  1  0  0  0  0
 26 25  2  0  0  0  0
 27  7  1  0  0  0  0
 27 12  1  0  0  0  0
 28 11  1  0  0  0  0
 28 30  1  0  0  0  0
 30 29  1  0  0  0  0
M  END
>  <MODEL>
2

>  <REMARK>
 VINA RESULT:      -9.1      2.947      5.974
  Name = 
  2 active torsions:
  status: ('A' for Active; 'I' for Inactive)
    1  A    between atoms: C_11  and  C_28
    2  A    between atoms: C_28  and  N_30
                            x       y       z     vdW  Elec       q    Type
                         _______ _______ _______ _____ _____    ______ ____

>  <TORSDO>
F 2

$$$$
=
 OpenBabel11122410343D

 30 35  0  0  1  0  0  0  0  0999 V2000
  188.0340  177.8440  143.3280 C   0  0  2  0  0  3  0  0  0  0  0  0
  185.8620  177.9770  144.6100 C   0  0  0  0  0  0  0  0  0  0  0  0
  186.0170  178.6120  139.8060 O   0  0  0  0  0  0  0  0  0  0  0  0
  188.6620  177.6910  141.9410 C   0  0  2  0  0  3  0  0  0  0  0  0
  188.5270  176.8050  144.1420 O   0  0  0  0  0  0  0  0  0  0  0  0
  192.0540  177.2210  143.4520 O   0  0  0  0  0  1  0  0  0  0  0  0
  190.4330  176.5930  139.7810 C   0  0  1  0  0  3  0  0  0  0  0  0
  190.7280  176.8940  143.1580 C   0  0  1  0  0  3  0  0  0  0  0  0
  188.9410  176.6500  139.3840 C   0  0  2  0  0  3  0  0  0  0  0  0
  186.9250  178.1120  138.9020 C   0  0  0  0  0  0  0  0  0  0  0  0
  189.8770  177.0860  144.4210 C   0  0  2  0  0  3  0  0  0  0  0  0
  190.1870  177.8270  142.0620 C   0  0  1  0  0  3  0  0  0  0  0  0
  184.5710  178.5060  144.6650 O   0  0  0  0  0  0  0  0  0  0  0  0
  188.8340  175.9950  138.0200 C   0  0  0  0  0  2  0  0  0  0  0  0
  191.4500  176.5230  138.2610 S   0  0  0  0  0  0  0  0  0  0  0  0
  186.4580  177.6950  145.6850 O   0  0  0  0  0  0  0  0  0  0  0  0
  186.6520  179.0710  140.9830 C   0  0  2  0  0  3  0  0  0  0  0  0
  183.7780  178.6130  143.4870 C   0  0  0  0  0  2  0  0  0  0  0  0
  186.5080  177.7210  143.2610 C   0  0  1  0  0  3  0  0  0  0  0  0
  188.1340  178.6490  140.8610 C   0  0  2  0  0  3  0  0  0  0  0  0
  186.5970  177.7850  137.7330 O   0  0  0  0  0  0  0  0  0  0  0  0
  188.3190  178.0790  139.4220 C   0  0  1  0  0  3  0  0  0  0  0  0
  189.9900  176.4930  137.1900 C   0  0  0  0  0  2  0  0  0  0  0  0
  192.2970  177.7210  140.8490 O   0  0  0  0  0  1  0  0  0  0  0  0
  184.6270  179.0520  142.3310 C   0  0  0  0  0  3  0  0  0  0  0  0
  185.8970  178.6300  142.2070 C   0  0  0  0  0  0  0  0  0  0  0  0
  190.9080  177.7340  140.6970 C   0  0  1  0  0  3  0  0  0  0  0  0
  190.3600  176.1630  145.5280 C   0  0  0  0  0  2  0  0  0  0  0  0
  192.0970  176.6890  146.8610 O   0  0  0  0  0  1  0  0  0  0  0  0
  190.7820  176.9470  146.6750 N   0  0  0  0  0  2  0  0  0  0  0  0
  1  5  1  1  0  0  0
  2 13  1  0  0  0  0
  2 16  2  0  0  0  0
  3 17  1  0  0  0  0
  4 12  1  0  0  0  0
  4  1  1  0  0  0  0
  5 11  1  0  0  0  0
  7 27  1  0  0  0  0
  8  6  1  0  0  0  0
  8 11  1  0  0  0  0
  9 22  1  0  0  0  0
  9  7  1  0  0  0  0
 10 22  1  0  0  0  0
 10  3  1  0  0  0  0
 11 28  1  0  0  0  0
 12  8  1  0  0  0  0
 14  9  1  0  0  0  0
 15  7  1  0  0  0  0
 17 26  1  0  0  0  0
 18 13  1  0  0  0  0
 19  1  1  0  0  0  0
 19  2  1  0  0  0  0
 20 17  1  0  0  0  0
 20  4  1  0  0  0  0
 21 10  2  0  0  0  0
 22 20  1  0  0  0  0
 23 14  1  0  0  0  0
 23 15  1  0  0  0  0
 25 18  1  0  0  0  0
 26 25  2  0  0  0  0
 26 19  1  0  0  0  0
 27 24  1  0  0  0  0
 27 12  1  0  0  0  0
 28 30  1  0  0  0  0
 30 29  1  0  0  0  0
M  END
>  <MODEL>
3

>  <REMARK>
 VINA RESULT:      -8.4      2.789      5.705
  Name = 
  2 active torsions:
  status: ('A' for Active; 'I' for Inactive)
    1  A    between atoms: C_11  and  C_28
    2  A    between atoms: C_28  and  N_30
                            x       y       z     vdW  Elec       q    Type
                         _______ _______ _______ _____ _____    ______ ____

>  <TORSDO>
F 2

$$$$
=
 OpenBabel11122410343D

 30 35  0  0  1  0  0  0  0  0999 V2000
  187.4720  178.1860  144.2620 C   0  0  2  0  0  3  0  0  0  0  0  0
  185.0500  178.1840  144.9770 C   0  0  0  0  0  0  0  0  0  0  0  0
  186.3230  178.7040  140.3270 O   0  0  0  0  0  0  0  0  0  0  0  0
  188.4270  178.0460  143.0740 C   0  0  2  0  0  3  0  0  0  0  0  0
  187.8230  177.2090  145.2150 O   0  0  0  0  0  0  0  0  0  0  0  0
  191.3750  177.8770  145.3750 O   0  0  0  0  0  1  0  0  0  0  0  0
  190.7410  177.0320  141.4530 C   0  0  1  0  0  3  0  0  0  0  0  0
  190.1850  177.4420  144.7860 C   0  0  1  0  0  3  0  0  0  0  0  0
  189.3900  176.9630  140.7080 C   0  0  2  0  0  3  0  0  0  0  0  0
  187.4560  178.2520  139.6920 C   0  0  0  0  0  0  0  0  0  0  0  0
  189.0420  177.6010  145.7980 C   0  0  2  0  0  3  0  0  0  0  0  0
  189.8650  178.3020  143.5520 C   0  0  1  0  0  3  0  0  0  0  0  0
  183.7520  178.6130  144.6970 O   0  0  0  0  0  0  0  0  0  0  0  0
  189.6630  176.2670  139.3880 C   0  0  0  0  0  2  0  0  0  0  0  0
  192.0990  177.0010  140.2270 S   0  0  0  0  0  0  0  0  0  0  0  0
  185.3850  177.9770  146.1740 O   0  0  0  0  0  0  0  0  0  0  0  0
  186.6210  179.2410  141.6020 C   0  0  2  0  0  3  0  0  0  0  0  0
  183.2630  178.6270  143.3590 C   0  0  0  0  0  2  0  0  0  0  0  0
  186.0210  177.9440  143.8350 C   0  0  1  0  0  3  0  0  0  0  0  0
  188.1140  178.9310  141.8580 C   0  0  2  0  0  3  0  0  0  0  0  0
  187.4450  177.8710  138.4930 O   0  0  0  0  0  0  0  0  0  0  0  0
  188.6810  178.3400  140.5320 C   0  0  1  0  0  3  0  0  0  0  0  0
  190.9490  176.8310  138.8390 C   0  0  0  0  0  2  0  0  0  0  0  0
  192.2080  178.3270  142.8880 O   0  0  0  0  0  1  0  0  0  0  0  0
  184.3350  179.1010  142.4230 C   0  0  0  0  0  3  0  0  0  0  0  0
  185.6230  178.7750  142.6270 C   0  0  0  0  0  0  0  0  0  0  0  0
  190.9000  178.2290  142.4060 C   0  0  1  0  0  3  0  0  0  0  0  0
  189.3040  176.7470  147.0280 C   0  0  0  0  0  2  0  0  0  0  0  0
  188.7050  178.2110  148.6300 O   0  0  0  0  0  1  0  0  0  0  0  0
  188.3230  177.0470  148.0550 N   0  0  0  0  0  2  0  0  0  0  0  0
  1  5  1  1  0  0  0
  2 16  2  0  0  0  0
  3 17  1  0  0  0  0
  4 12  1  0  0  0  0
  4  1  1  0  0  0  0
  5 11  1  0  0  0  0
  7 27  1  0  0  0  0
  8  6  1  0  0  0  0
  8 11  1  0  0  0  0
  9  7  1  0  0  0  0
 10  3  1  0  0  0  0
 10 22  1  0  0  0  0
 11 28  1  0  0  0  0
 12  8  1  0  0  0  0
 13  2  1  0  0  0  0
 14  9  1  0  0  0  0
 15  7  1  0  0  0  0
 17 20  1  0  0  0  0
 17 26  1  0  0  0  0
 18 13  1  0  0  0  0
 19  1  1  0  0  0  0
 19  2  1  0  0  0  0
 20  4  1  0  0  0  0
 21 10  2  0  0  0  0
 22  9  1  0  0  0  0
 22 20  1  0  0  0  0
 23 14  1  0  0  0  0
 23 15  1  0  0  0  0
 25 26  2  0  0  0  0
 25 18  1  0  0  0  0
 26 19  1  0  0  0  0
 27 24  1  0  0  0  0
 27 12  1  0  0  0  0
 28 30  1  0  0  0  0
 30 29  1  0  0  0  0
M  END
>  <MODEL>
4

>  <REMARK>
 VINA RESULT:      -8.2      2.632      5.453
  Name = 
  2 active torsions:
  status: ('A' for Active; 'I' for Inactive)
    1  A    between atoms: C_11  and  C_28
    2  A    between atoms: C_28  and  N_30
                            x       y       z     vdW  Elec       q    Type
                         _______ _______ _______ _____ _____    ______ ____

>  <TORSDO>
F 2

$$$$
=
 OpenBabel11122410343D

 30 35  0  0  1  0  0  0  0  0999 V2000
  188.2030  177.7290  142.2450 C   0  0  2  0  0  3  0  0  0  0  0  0
  186.9300  178.6310  140.2590 C   0  0  0  0  0  0  0  0  0  0  0  0
  184.8870  178.2900  144.6430 O   0  0  0  0  0  0  0  0  0  0  0  0
  188.2340  177.6270  143.7710 C   0  0  2  0  0  3  0  0  0  0  0  0
  189.4080  178.3280  141.8280 O   0  0  0  0  0  0  0  0  0  0  0  0
  191.7090  176.2360  143.6790 O   0  0  0  0  0  1  0  0  0  0  0  0
  189.3220  177.8110  146.5630 C   0  0  1  0  0  3  0  0  0  0  0  0
  190.7130  177.2030  143.5170 C   0  0  1  0  0  3  0  0  0  0  0  0
  187.9690  178.5350  146.3790 C   0  0  2  0  0  3  0  0  0  0  0  0
  185.4930  178.3180  145.8770 C   0  0  0  0  0  0  0  0  0  0  0  0
  190.4400  177.3900  142.0180 C   0  0  2  0  0  3  0  0  0  0  0  0
  189.4130  176.7350  144.1920 C   0  0  1  0  0  3  0  0  0  0  0  0
  185.6820  178.8210  139.6630 O   0  0  0  0  0  0  0  0  0  0  0  0
  187.6750  179.2350  147.6940 C   0  0  0  0  0  2  0  0  0  0  0  0
  189.5660  177.4500  148.3400 S   0  0  0  0  0  0  0  0  0  0  0  0
  187.9500  178.5110  139.5270 O   0  0  0  0  0  0  0  0  0  0  0  0
  185.6190  177.5050  143.7220 C   0  0  2  0  0  3  0  0  0  0  0  0
  184.5530  179.1980  140.4440 C   0  0  0  0  0  2  0  0  0  0  0  0
  187.0400  178.6060  141.7730 C   0  0  1  0  0  3  0  0  0  0  0  0
  186.9390  177.1310  144.4330 C   0  0  2  0  0  3  0  0  0  0  0  0
  184.9410  178.8340  146.8830 O   0  0  0  0  0  0  0  0  0  0  0  0
  186.8040  177.6140  145.9090 C   0  0  1  0  0  3  0  0  0  0  0  0
  188.0200  178.2730  148.8020 C   0  0  0  0  0  2  0  0  0  0  0  0
  190.6510  175.8370  146.0880 O   0  0  0  0  0  1  0  0  0  0  0  0
  184.5590  178.4600  141.7500 C   0  0  0  0  0  3  0  0  0  0  0  0
  185.7130  178.1920  142.3870 C   0  0  0  0  0  0  0  0  0  0  0  0
  189.4950  176.5340  145.7230 C   0  0  1  0  0  3  0  0  0  0  0  0
  191.6940  177.8770  141.3110 C   0  0  0  0  0  2  0  0  0  0  0  0
  190.8540  176.3510  139.8850 O   0  0  0  0  0  1  0  0  0  0  0  0
  191.7030  177.4030  139.9380 N   0  0  0  0  0  2  0  0  0  0  0  0
  1  5  1  1  0  0  0
  1  4  1  0  0  0  0
  2 19  1  0  0  0  0
  3 10  1  0  0  0  0
  4 12  1  0  0  0  0
  4 20  1  0  0  0  0
  5 11  1  0  0  0  0
  7 15  1  0  0  0  0
  8  6  1  0  0  0  0
  8 12  1  0  0  0  0
  9  7  1  0  0  0  0
  9 14  1  0  0  0  0
 10 22  1  0  0  0  0
 10 21  2  0  0  0  0
 11  8  1  0  0  0  0
 12 27  1  0  0  0  0
 13  2  1  0  0  0  0
 13 18  1  0  0  0  0
 14 23  1  0  0  0  0
 15 23  1  0  0  0  0
 16  2  2  0  0  0  0
 17 20  1  0  0  0  0
 17  3  1  0  0  0  0
 18 25  1  0  0  0  0
 19  1  1  0  0  0  0
 19 26  1  0  0  0  0
 20 22  1  0  0  0  0
 22  9  1  0  0  0  0
 25 26  2  0  0  0  0
 26 17  1  0  0  0  0
 27 24  1  0  0  0  0
 27  7  1  0  0  0  0
 28 11  1  0  0  0  0
 29 30  1  0  0  0  0
 30 28  1  0  0  0  0
M  END
>  <MODEL>
5

>  <REMARK>
 VINA RESULT:      -8.2      1.806      2.510
  Name = 
  2 active torsions:
  status: ('A' for Active; 'I' for Inactive)
    1  A    between atoms: C_11  and  C_28
    2  A    between atoms: C_28  and  N_30
                            x       y       z     vdW  Elec       q    Type
                         _______ _______ _______ _____ _____    ______ ____

>  <TORSDO>
F 2

$$$$
=
 OpenBabel11122410343D

 30 35  0  0  1  0  0  0  0  0999 V2000
  188.3700  177.6350  142.6790 C   0  0  2  0  0  3  0  0  0  0  0  0
  186.6270  177.7230  144.5050 C   0  0  0  0  0  0  0  0  0  0  0  0
  185.4880  178.5570  139.8660 O   0  0  0  0  0  0  0  0  0  0  0  0
  188.5970  177.5370  141.1690 C   0  0  2  0  0  3  0  0  0  0  0  0
  189.0480  176.5600  143.2880 O   0  0  0  0  0  0  0  0  0  0  0  0
  192.2640  176.9890  141.6860 O   0  0  0  0  0  1  0  0  0  0  0  0
  189.7030  176.5210  138.5690 C   0  0  1  0  0  3  0  0  0  0  0  0
  190.9030  176.6800  141.7500 C   0  0  1  0  0  3  0  0  0  0  0  0
  188.1600  176.6020  138.5930 C   0  0  2  0  0  3  0  0  0  0  0  0
  186.1120  178.0910  138.7310 C   0  0  0  0  0  0  0  0  0  0  0  0
  190.4280  176.8240  143.2030 C   0  0  2  0  0  3  0  0  0  0  0  0
  190.1010  177.6600  140.8780 C   0  0  1  0  0  3  0  0  0  0  0  0
  185.4080  178.2550  144.9270 O   0  0  0  0  0  0  0  0  0  0  0  0
  187.6790  176.0050  137.2840 C   0  0  0  0  0  2  0  0  0  0  0  0
  190.2700  176.5100  136.8290 S   0  0  0  0  0  0  0  0  0  0  0  0
  187.4860  177.3940  145.3660 O   0  0  0  0  0  0  0  0  0  0  0  0
  186.4250  178.9630  140.8440 C   0  0  2  0  0  3  0  0  0  0  0  0
  184.3280  178.4140  144.0130 C   0  0  0  0  0  2  0  0  0  0  0  0
  186.8810  177.5210  143.0220 C   0  0  1  0  0  3  0  0  0  0  0  0
  187.8130  178.5400  140.3100 C   0  0  2  0  0  3  0  0  0  0  0  0
  185.4740  177.8140  137.6830 O   0  0  0  0  0  0  0  0  0  0  0  0
  187.5940  178.0300  138.8530 C   0  0  1  0  0  3  0  0  0  0  0  0
  188.5750  176.5310  136.1920 C   0  0  0  0  0  2  0  0  0  0  0  0
  191.8030  177.5960  139.1370 O   0  0  0  0  0  1  0  0  0  0  0  0
  184.8390  178.8980  142.6880 C   0  0  0  0  0  3  0  0  0  0  0  0
  186.0220  178.4750  142.2090 C   0  0  0  0  0  0  0  0  0  0  0  0
  190.4240  177.6210  139.3660 C   0  0  1  0  0  3  0  0  0  0  0  0
  191.1780  175.8530  144.1010 C   0  0  0  0  0  2  0  0  0  0  0  0
  191.6180  177.8400  145.0620 O   0  0  0  0  0  1  0  0  0  0  0  0
  191.5590  176.5170  145.3350 N   0  0  0  0  0  2  0  0  0  0  0  0
  1 19  1  0  0  0  0
  1  5  1  1  0  0  0
  2 13  1  0  0  0  0
  2 16  2  0  0  0  0
  3 17  1  0  0  0  0
  4  1  1  0  0  0  0
  6  8  1  0  0  0  0
  7  9  1  0  0  0  0
  7 27  1  0  0  0  0
  8 11  1  0  0  0  0
  9 22  1  0  0  0  0
 10 22  1  0  0  0  0
 10  3  1  0  0  0  0
 11  5  1  0  0  0  0
 11 28  1  0  0  0  0
 12  4  1  0  0  0  0
 12  8  1  0  0  0  0
 14  9  1  0  0  0  0
 15  7  1  0  0  0  0
 17 26  1  0  0  0  0
 18 13  1  0  0  0  0
 19  2  1  0  0  0  0
 20 17  1  0  0  0  0
 20  4  1  0  0  0  0
 21 10  2  0  0  0  0
 22 20  1  0  0  0  0
 23 15  1  0  0  0  0
 23 14  1  0  0  0  0
 24 27  1  0  0  0  0
 25 18  1  0  0  0  0
 26 25  2  0  0  0  0
 26 19  1  0  0  0  0
 27 12  1  0  0  0  0
 28 30  1  0  0  0  0
 29 30  1  0  0  0  0
M  END
>  <MODEL>
6

>  <REMARK>
 VINA RESULT:      -8.0      2.967      5.903
  Name = 
  2 active torsions:
  status: ('A' for Active; 'I' for Inactive)
    1  A    between atoms: C_11  and  C_28
    2  A    between atoms: C_28  and  N_30
                            x       y       z     vdW  Elec       q    Type
                         _______ _______ _______ _____ _____    ______ ____

>  <TORSDO>
F 2

$$$$
=
 OpenBabel11122410343D

 30 35  0  0  1  0  0  0  0  0999 V2000
  185.9080  178.1030  142.1450 C   0  0  2  0  0  3  0  0  0  0  0  0
  183.6760  178.9170  142.9990 C   0  0  0  0  0  0  0  0  0  0  0  0
  187.3090  177.8360  146.0220 O   0  0  0  0  0  0  0  0  0  0  0  0
  187.3800  177.8810  142.5010 C   0  0  2  0  0  3  0  0  0  0  0  0
  185.8600  178.9490  141.0190 O   0  0  0  0  0  0  0  0  0  0  0  0
  188.2120  177.1730  138.9210 O   0  0  0  0  0  1  0  0  0  0  0  0
  190.3680  178.0290  142.2550 C   0  0  1  0  0  3  0  0  0  0  0  0
  187.8100  177.9480  140.0120 C   0  0  1  0  0  3  0  0  0  0  0  0
  189.8390  178.5020  143.6270 C   0  0  2  0  0  3  0  0  0  0  0  0
  188.6640  177.8720  145.7840 C   0  0  0  0  0  0  0  0  0  0  0  0
  186.3000  178.2060  139.9080 C   0  0  2  0  0  3  0  0  0  0  0  0
  188.0840  177.1920  141.3220 C   0  0  1  0  0  3  0  0  0  0  0  0
  182.7630  178.9210  144.0560 O   0  0  0  0  0  0  0  0  0  0  0  0
  191.0400  179.0220  144.3940 C   0  0  0  0  0  2  0  0  0  0  0  0
  192.1320  177.5710  142.4240 S   0  0  0  0  0  0  0  0  0  0  0  0
  183.2520  179.0500  141.8200 O   0  0  0  0  0  0  0  0  0  0  0  0
  186.6040  177.2810  144.9290 C   0  0  2  0  0  3  0  0  0  0  0  0
  183.2120  179.0150  145.4040 C   0  0  0  0  0  2  0  0  0  0  0  0
  185.1590  178.7860  143.2930 C   0  0  1  0  0  3  0  0  0  0  0  0
  187.6420  177.1000  143.7980 C   0  0  2  0  0  3  0  0  0  0  0  0
  189.4920  178.1910  146.6760 O   0  0  0  0  0  0  0  0  0  0  0  0
  189.0360  177.4240  144.4150 C   0  0  1  0  0  3  0  0  0  0  0  0
  192.1720  178.0520  144.1700 C   0  0  0  0  0  2  0  0  0  0  0  0
  190.2210  176.3830  140.4780 O   0  0  0  0  0  1  0  0  0  0  0  0
  184.4460  178.1850  145.5970 C   0  0  0  0  0  3  0  0  0  0  0  0
  185.3690  178.0830  144.6240 C   0  0  0  0  0  0  0  0  0  0  0  0
  189.5710  176.8810  141.6100 C   0  0  1  0  0  3  0  0  0  0  0  0
  185.9830  178.9750  138.6360 C   0  0  0  0  0  2  0  0  0  0  0  0
  184.3930  180.5450  138.9110 O   0  0  0  0  0  1  0  0  0  0  0  0
  184.5580  179.2480  138.5660 N   0  0  0  0  0  2  0  0  0  0  0  0
  1  5  1  6  0  0  0
  1  4  1  0  0  0  0
  1 19  1  0  0  0  0
  2 19  1  0  0  0  0
  2 13  1  0  0  0  0
  4 20  1  0  0  0  0
  6  8  1  0  0  0  0
  7 15  1  0  0  0  0
  7  9  1  0  0  0  0
  8 12  1  0  0  0  0
  9 14  1  0  0  0  0
  9 22  1  0  0  0  0
 10  3  1  0  0  0  0
 10 21  2  0  0  0  0
 11  8  1  0  0  0  0
 11  5  1  0  0  0  0
 12 27  1  0  0  0  0
 12  4  1  0  0  0  0
 13 18  1  0  0  0  0
 15 23  1  0  0  0  0
 16  2  2  0  0  0  0
 17  3  1  0  0  0  0
 18 25  1  0  0  0  0
 19 26  1  0  0  0  0
 20 22  1  0  0  0  0
 20 17  1  0  0  0  0
 22 10  1  0  0  0  0
 23 14  1  0  0  0  0
 24 27  1  0  0  0  0
 26 17  1  0  0  0  0
 26 25  2  0  0  0  0
 27  7  1  0  0  0  0
 28 11  1  0  0  0  0
 30 28  1  0  0  0  0
 30 29  1  0  0  0  0
M  END
>  <MODEL>
7

>  <REMARK>
 VINA RESULT:      -7.8      1.810      2.467
  Name = 
  2 active torsions:
  status: ('A' for Active; 'I' for Inactive)
    1  A    between atoms: C_11  and  C_28
    2  A    between atoms: C_28  and  N_30
                            x       y       z     vdW  Elec       q    Type
                         _______ _______ _______ _____ _____    ______ ____

>  <TORSDO>
F 2

$$$$
=
 OpenBabel11122410343D

 30 35  0  0  1  0  0  0  0  0999 V2000
  183.6020  178.6850  141.5710 C   0  0  2  0  0  3  0  0  0  0  0  0
  182.5250  178.3490  139.3110 C   0  0  0  0  0  0  0  0  0  0  0  0
  187.3290  178.0670  139.9010 O   0  0  0  0  0  0  0  0  0  0  0  0
  184.8760  178.4810  142.3930 C   0  0  2  0  0  3  0  0  0  0  0  0
  182.5460  178.0380  142.2430 O   0  0  0  0  0  0  0  0  0  0  0  0
  183.0820  179.4340  145.5380 O   0  0  0  0  0  1  0  0  0  0  0  0
  186.6160  177.6240  144.6840 C   0  0  1  0  0  3  0  0  0  0  0  0
  183.3800  178.6450  144.4240 C   0  0  1  0  0  3  0  0  0  0  0  0
  187.1110  177.1170  143.3110 C   0  0  2  0  0  3  0  0  0  0  0  0
  188.0380  177.7260  141.0300 C   0  0  0  0  0  0  0  0  0  0  0  0
  182.2500  178.7900  143.3950 C   0  0  2  0  0  3  0  0  0  0  0  0
  184.6900  179.1240  143.7760 C   0  0  1  0  0  3  0  0  0  0  0  0
  182.6730  178.4320  137.9260 O   0  0  0  0  0  0  0  0  0  0  0  0
  188.2990  176.2150  143.5890 C   0  0  0  0  0  2  0  0  0  0  0  0
  188.0130  177.5980  145.8660 S   0  0  0  0  0  0  0  0  0  0  0  0
  181.3790  178.4870  139.8170 O   0  0  0  0  0  0  0  0  0  0  0  0
  186.2460  178.9240  140.2060 C   0  0  2  0  0  3  0  0  0  0  0  0
  183.8940  178.0480  137.3010 C   0  0  0  0  0  2  0  0  0  0  0  0
  183.7380  178.0630  140.1770 C   0  0  1  0  0  3  0  0  0  0  0  0
  186.1740  178.9900  141.7490 C   0  0  2  0  0  3  0  0  0  0  0  0
  189.1230  177.0920  140.9730 O   0  0  0  0  0  0  0  0  0  0  0  0
  187.4350  178.2470  142.2870 C   0  0  1  0  0  3  0  0  0  0  0  0
  189.1430  176.8910  144.6390 C   0  0  0  0  0  2  0  0  0  0  0  0
  185.7090  179.4780  145.9600 O   0  0  0  0  0  1  0  0  0  0  0  0
  185.0620  178.5080  138.1220 C   0  0  0  0  0  3  0  0  0  0  0  0
  185.0060  178.5050  139.4650 C   0  0  0  0  0  0  0  0  0  0  0  0
  185.9500  179.0100  144.6650 C   0  0  1  0  0  3  0  0  0  0  0  0
  180.9360  178.3030  143.9850 C   0  0  0  0  0  2  0  0  0  0  0  0
  179.3300  177.5930  142.5760 O   0  0  0  0  0  1  0  0  0  0  0  0
  179.8320  178.7170  143.1370 N   0  0  0  0  0  2  0  0  0  0  0  0
  1  5  1  1  0  0  0
  1  4  1  0  0  0  0
  2 16  2  0  0  0  0
  2 19  1  0  0  0  0
  3 17  1  0  0  0  0
  3 10  1  0  0  0  0
  4 12  1  0  0  0  0
  5 11  1  0  0  0  0
  7 15  1  0  0  0  0
  8  6  1  0  0  0  0
  9 14  1  0  0  0  0
  9  7  1  0  0  0  0
 10 22  1  0  0  0  0
 11 28  1  0  0  0  0
 11  8  1  0  0  0  0
 12  8  1  0  0  0  0
 12 27  1  0  0  0  0
 13  2  1  0  0  0  0
 14 23  1  0  0  0  0
 17 20  1  0  0  0  0
 18 13  1  0  0  0  0
 18 25  1  0  0  0  0
 19  1  1  0  0  0  0
 20 22  1  0  0  0  0
 20  4  1  0  0  0  0
 21 10  2  0  0  0  0
 22  9  1  0  0  0  0
 23 15  1  0  0  0  0
 25 26  2  0  0  0  0
 26 19  1  0  0  0  0
 26 17  1  0  0  0  0
 27  7  1  0  0  0  0
 27 24  1  0  0  0  0
 29 30  1  0  0  0  0
 30 28  1  0  0  0  0
M  END
>  <MODEL>
8

>  <REMARK>
 VINA RESULT:      -7.6      2.932      5.929
  Name = 
  2 active torsions:
  status: ('A' for Active; 'I' for Inactive)
    1  A    between atoms: C_11  and  C_28
    2  A    between atoms: C_28  and  N_30
                            x       y       z     vdW  Elec       q    Type
                         _______ _______ _______ _____ _____    ______ ____

>  <TORSDO>
F 2

$$$$
=
 OpenBabel11122410343D

 30 35  0  0  1  0  0  0  0  0999 V2000
  188.7240  177.5890  138.7330 C   0  0  2  0  0  3  0  0  0  0  0  0
  190.4130  176.5450  137.1730 C   0  0  0  0  0  0  0  0  0  0  0  0
  191.3280  177.1000  141.9020 O   0  0  0  0  0  0  0  0  0  0  0  0
  188.3230  177.7800  140.1970 C   0  0  2  0  0  3  0  0  0  0  0  0
  187.6380  176.9910  138.0630 O   0  0  0  0  0  0  0  0  0  0  0  0
  185.0280  179.2350  139.1770 O   0  0  0  0  0  1  0  0  0  0  0  0
  186.5770  177.7830  142.6390 C   0  0  1  0  0  3  0  0  0  0  0  0
  185.9990  178.2400  139.3160 C   0  0  1  0  0  3  0  0  0  0  0  0
  187.9070  177.0210  142.8330 C   0  0  2  0  0  3  0  0  0  0  0  0
  190.4360  177.1570  142.9480 C   0  0  0  0  0  0  0  0  0  0  0  0
  186.6250  177.9600  137.9430 C   0  0  2  0  0  3  0  0  0  0  0  0
  187.1080  178.7190  140.2670 C   0  0  1  0  0  3  0  0  0  0  0  0
  191.7620  176.2950  136.9140 O   0  0  0  0  0  0  0  0  0  0  0  0
  187.8440  176.3940  144.2130 C   0  0  0  0  0  2  0  0  0  0  0  0
  185.9160  178.2530  144.2800 S   0  0  0  0  0  0  0  0  0  0  0  0
  189.6100  176.6440  136.2070 O   0  0  0  0  0  0  0  0  0  0  0  0
  190.8730  177.8440  140.7900 C   0  0  2  0  0  3  0  0  0  0  0  0
  192.6510  175.9410  137.9690 C   0  0  0  0  0  2  0  0  0  0  0  0
  189.9360  176.6610  138.6090 C   0  0  1  0  0  3  0  0  0  0  0  0
  189.4320  178.2870  141.1320 C   0  0  2  0  0  3  0  0  0  0  0  0
  190.7060  176.6890  144.0840 O   0  0  0  0  0  0  0  0  0  0  0  0
  189.1830  177.8890  142.6180 C   0  0  1  0  0  3  0  0  0  0  0  0
  187.2710  177.4250  145.1510 C   0  0  0  0  0  2  0  0  0  0  0  0
  185.4740  179.7530  141.7490 O   0  0  0  0  0  1  0  0  0  0  0  0
  192.3500  176.7530  139.1930 C   0  0  0  0  0  3  0  0  0  0  0  0
  191.0850  177.0820  139.5100 C   0  0  0  0  0  0  0  0  0  0  0  0
  186.6590  179.0120  141.7170 C   0  0  1  0  0  3  0  0  0  0  0  0
  185.5670  177.4590  136.9740 C   0  0  0  0  0  2  0  0  0  0  0  0
  186.7010  178.0670  135.1270 O   0  0  0  0  0  1  0  0  0  0  0  0
  186.1990  176.9800  135.7570 N   0  0  0  0  0  2  0  0  0  0  0  0
  1  5  1  6  0  0  0
  1  4  1  0  0  0  0
  2 19  1  0  0  0  0
  3 10  1  0  0  0  0
  4 12  1  0  0  0  0
  4 20  1  0  0  0  0
  6  8  1  0  0  0  0
  7  9  1  0  0  0  0
  7 15  1  0  0  0  0
  8 12  1  0  0  0  0
  9 14  1  0  0  0  0
 10 21  2  0  0  0  0
 11  5  1  0  0  0  0
 11  8  1  0  0  0  0
 12 27  1  0  0  0  0
 13  2  1  0  0  0  0
 13 18  1  0  0  0  0
 14 23  1  0  0  0  0
 15 23  1  0  0  0  0
 16  2  2  0  0  0  0
 17 20  1  0  0  0  0
 17  3  1  0  0  0  0
 18 25  1  0  0  0  0
 19  1  1  0  0  0  0
 19 26  1  0  0  0  0
 20 22  1  0  0  0  0
 22  9  1  0  0  0  0
 22 10  1  0  0  0  0
 25 26  2  0  0  0  0
 26 17  1  0  0  0  0
 27 24  1  0  0  0  0
 27  7  1  0  0  0  0
 28 11  1  0  0  0  0
 29 30  1  0  0  0  0
 30 28  1  0  0  0  0
M  END
>  <MODEL>
9

>  <REMARK>
 VINA RESULT:      -7.6      2.691      5.933
  Name = 
  2 active torsions:
  status: ('A' for Active; 'I' for Inactive)
    1  A    between atoms: C_11  and  C_28
    2  A    between atoms: C_28  and  N_30
                            x       y       z     vdW  Elec       q    Type
                         _______ _______ _______ _____ _____    ______ ____

>  <TORSDO>
F 2

$$$$
