=
 OpenBabel11122411413D

 37 43  0  0  1  0  0  0  0  0999 V2000
  190.1380  176.4010  137.7170 C   0  0  1  0  0  0  0  0  0  0  0  0
  186.7980  178.2890  137.3370 C   0  0  1  0  0  3  0  0  0  0  0  0
  185.2430  179.5440  139.9920 O   0  0  0  0  0  0  0  0  0  0  0  0
  189.0980  177.7940  136.2120 C   0  0  2  0  0  3  0  0  0  0  0  0
  186.5600  177.9370  138.8040 C   0  0  2  0  0  3  0  0  0  0  0  0
  188.3080  178.5550  137.2930 C   0  0  2  0  0  3  0  0  0  0  0  0
  185.1750  178.2990  139.3510 C   0  0  2  0  0  3  0  0  0  0  0  0
  188.3300  177.8640  134.9030 C   0  0  0  0  0  2  0  0  0  0  0  0
  188.8130  178.3300  138.7190 C   0  0  2  0  0  3  0  0  0  0  0  0
  191.2960  177.1520  137.5650 F   0  0  0  0  0  0  0  0  0  0  0  0
  184.8130  177.1480  136.2360 C   0  0  0  0  0  2  0  0  0  0  0  0
  186.9400  177.2220  134.9990 C   0  0  0  0  0  2  0  0  0  0  0  0
  189.3340  176.8870  138.9140 C   0  0  0  0  0  2  0  0  0  0  0  0
  185.4780  178.0190  142.0310 C   0  0  0  0  0  2  0  0  0  0  0  0
  185.3310  179.4070  141.4070 C   0  0  1  0  0  3  0  0  0  0  0  0
  186.3320  177.1490  136.4100 C   0  0  1  0  0  3  0  0  0  0  0  0
  187.6290  178.6020  139.5530 N   0  0  2  0  0  0  0  0  0  0  0  0
  189.3350  176.4470  136.5580 O   0  0  0  0  0  0  0  0  0  0  0  0
  184.0300  178.2490  138.3330 C   0  0  1  0  0  3  0  0  0  0  0  0
  190.5370  174.9620  137.9700 C   0  0  0  0  0  1  0  0  0  0  0  0
  186.7100  178.8950  141.8800 C   0  0  2  0  0  3  0  0  0  0  0  0
  187.6800  178.1250  140.9520 C   0  0  2  0  0  3  0  0  0  0  0  0
  184.0510  176.9480  137.5370 C   0  0  0  0  0  2  0  0  0  0  0  0
  182.1550  177.3470  139.7170 C   0  0  0  0  0  3  0  0  0  0  0  0
  182.7050  178.4230  139.0110 C   0  0  0  0  0  0  0  0  0  0  0  0
  182.0050  179.6370  138.9390 C   0  0  0  0  0  3  0  0  0  0  0  0
  180.0270  181.0570  139.4930 C   0  0  0  0  0  1  0  0  0  0  0  0
  180.2210  178.6940  140.2770 C   0  0  0  0  0  3  0  0  0  0  0  0
  180.7660  179.7700  139.5720 C   0  0  0  0  0  0  0  0  0  0  0  0
  180.9160  177.4820  140.3500 C   0  0  0  0  0  3  0  0  0  0  0  0
  189.0750  178.2840  141.5630 C   0  0  0  0  0  2  0  0  0  0  0  0
  189.4540  177.0790  142.2900 N   0  0  0  0  0  0  0  0  0  0  0  0
  191.7220  177.2960  141.7370 O   0  0  0  0  0  0  0  0  0  0  0  0
  190.8250  176.6760  142.3690 C   0  0  0  0  0  3  0  0  0  0  0  0
  188.4860  176.4050  143.0510 N   0  0  0  0  0  2  0  0  0  0  0  0
  188.6660  176.7890  144.4440 C   0  0  0  0  0  2  0  0  0  0  0  0
  187.5100  177.4100  144.9140 O   0  0  0  0  0  1  0  0  0  0  0  0
  1 20  1  1  0  0  0
  1 13  1  0  0  0  0
  2  5  1  0  0  0  0
  3 15  1  0  0  0  0
  4 18  1  0  0  0  0
  4  6  1  0  0  0  0
  5  7  1  0  0  0  0
  5 17  1  0  0  0  0
  6  2  1  0  0  0  0
  6  9  1  0  0  0  0
  7  3  1  0  0  0  0
  8 12  1  0  0  0  0
  8  4  1  0  0  0  0
  9 13  1  0  0  0  0
  9 17  1  0  0  0  0
 10  1  1  0  0  0  0
 11 16  1  0  0  0  0
 11 23  1  0  0  0  0
 12 16  1  0  0  0  0
 15 21  1  0  0  0  0
 15 14  1  0  0  0  0
 16  2  1  0  0  0  0
 17 22  1  0  0  0  0
 18  1  1  0  0  0  0
 19 25  1  0  0  0  0
 19  7  1  0  0  0  0
 21 14  1  0  0  0  0
 22 31  1  0  0  0  0
 22 21  1  0  0  0  0
 23 19  1  0  0  0  0
 24 30  1  0  0  0  0
 25 24  2  0  0  0  0
 26 25  1  0  0  0  0
 26 29  2  0  0  0  0
 27 29  1  0  0  0  0
 28 30  2  0  0  0  0
 29 28  1  0  0  0  0
 31 32  1  0  0  0  0
 32 34  1  0  0  0  0
 32 35  1  0  0  0  0
 33 34  2  0  0  0  0
 35 36  1  0  0  0  0
 36 37  1  0  0  0  0
M  END
>  <MODEL>
1

>  <REMARK>
 VINA RESULT:      -8.0      0.000      0.000
  Name = 
  5 active torsions:
  status: ('A' for Active; 'I' for Inactive)
    1  A    between atoms: C_1  and  N_4
    2  A    between atoms: C_1  and  C_27
    3  A    between atoms: N_4  and  N_12
    4  A    between atoms: C_8  and  N_12
    5  A    between atoms: C_23  and  C_30
                            x       y       z     vdW  Elec       q    Type
                         _______ _______ _______ _____ _____    ______ ____

>  <TORSDO>
F 5

$$$$
=
 OpenBabel11122411413D

 37 43  0  0  1  0  0  0  0  0999 V2000
  186.5190  177.1270  137.7800 C   0  0  1  0  0  0  0  0  0  0  0  0
  186.9710  178.5910  141.3180 C   0  0  1  0  0  3  0  0  0  0  0  0
  189.9500  178.5850  142.7920 O   0  0  0  0  0  0  0  0  0  0  0  0
  185.6720  178.8320  139.0700 C   0  0  2  0  0  3  0  0  0  0  0  0
  188.2100  177.7010  141.4070 C   0  0  2  0  0  3  0  0  0  0  0  0
  186.9820  179.0400  139.8520 C   0  0  2  0  0  3  0  0  0  0  0  0
  188.8950  177.6620  142.7770 C   0  0  2  0  0  3  0  0  0  0  0  0
  184.5070  179.2780  139.9380 C   0  0  0  0  0  2  0  0  0  0  0  0
  188.2070  178.3760  139.2210 C   0  0  2  0  0  3  0  0  0  0  0  0
  186.6210  178.0210  136.7220 F   0  0  0  0  0  0  0  0  0  0  0  0
  185.5880  177.6920  143.2500 C   0  0  0  0  0  2  0  0  0  0  0  0
  184.4010  178.4770  141.2410 C   0  0  0  0  0  2  0  0  0  0  0  0
  187.8350  177.0390  138.5380 C   0  0  0  0  0  2  0  0  0  0  0  0
  191.2680  176.4640  142.2460 C   0  0  0  0  0  2  0  0  0  0  0  0
  191.2090  177.9530  142.5840 C   0  0  1  0  0  3  0  0  0  0  0  0
  185.7020  177.8180  141.7300 C   0  0  1  0  0  3  0  0  0  0  0  0
  189.1180  178.1750  140.3600 N   0  0  2  0  0  0  0  0  0  0  0  0
  185.4850  177.4920  138.6680 O   0  0  0  0  0  0  0  0  0  0  0  0
  187.9670  177.8440  143.9840 C   0  0  1  0  0  3  0  0  0  0  0  0
  186.2070  175.7580  137.2140 C   0  0  0  0  0  1  0  0  0  0  0  0
  191.4150  177.4810  141.1270 C   0  0  2  0  0  3  0  0  0  0  0  0
  190.2380  177.2310  140.1550 C   0  0  2  0  0  3  0  0  0  0  0  0
  186.7450  176.9370  143.8860 C   0  0  0  0  0  2  0  0  0  0  0  0
  188.1200  177.9900  146.4740 C   0  0  0  0  0  3  0  0  0  0  0  0
  188.7020  177.5910  145.2650 C   0  0  0  0  0  0  0  0  0  0  0  0
  189.9620  176.9750  145.2720 C   0  0  0  0  0  3  0  0  0  0  0  0
  191.9670  176.1080  146.4830 C   0  0  0  0  0  1  0  0  0  0  0  0
  190.0450  177.1580  147.6850 C   0  0  0  0  0  3  0  0  0  0  0  0
  190.6310  176.7590  146.4800 C   0  0  0  0  0  0  0  0  0  0  0  0
  188.7890  177.7730  147.6820 C   0  0  0  0  0  3  0  0  0  0  0  0
  190.8200  177.3290  138.7420 C   0  0  0  0  0  2  0  0  0  0  0  0
  191.3900  176.0500  138.3350 N   0  0  0  0  0  0  0  0  0  0  0  0
  193.5760  176.8940  138.2660 O   0  0  0  0  0  0  0  0  0  0  0  0
  192.8030  175.9030  138.1630 C   0  0  0  0  0  3  0  0  0  0  0  0
  190.5610  174.9200  138.2720 N   0  0  0  0  0  2  0  0  0  0  0  0
  190.6140  174.4010  136.9130 C   0  0  0  0  0  2  0  0  0  0  0  0
  189.6950  175.0790  136.1140 O   0  0  0  0  0  1  0  0  0  0  0  0
  1 20  1  6  0  0  0
  1 13  1  0  0  0  0
  1 18  1  0  0  0  0
  2  5  1  0  0  0  0
  2 16  1  0  0  0  0
  4  6  1  0  0  0  0
  4  8  1  0  0  0  0
  5  7  1  0  0  0  0
  6  2  1  0  0  0  0
  7  3  1  0  0  0  0
  7 19  1  0  0  0  0
  8 12  1  0  0  0  0
  9  6  1  0  0  0  0
  9 17  1  0  0  0  0
 10  1  1  0  0  0  0
 11 23  1  0  0  0  0
 12 16  1  0  0  0  0
 13  9  1  0  0  0  0
 14 15  1  0  0  0  0
 15  3  1  0  0  0  0
 16 11  1  0  0  0  0
 17  5  1  0  0  0  0
 18  4  1  0  0  0  0
 19 25  1  0  0  0  0
 21 14  1  0  0  0  0
 21 15  1  0  0  0  0
 22 17  1  0  0  0  0
 22 21  1  0  0  0  0
 23 19  1  0  0  0  0
 24 30  1  0  0  0  0
 25 26  1  0  0  0  0
 25 24  2  0  0  0  0
 26 29  2  0  0  0  0
 29 27  1  0  0  0  0
 29 28  1  0  0  0  0
 30 28  2  0  0  0  0
 31 22  1  0  0  0  0
 32 31  1  0  0  0  0
 34 33  2  0  0  0  0
 34 32  1  0  0  0  0
 35 32  1  0  0  0  0
 36 35  1  0  0  0  0
 37 36  1  0  0  0  0
M  END
>  <MODEL>
2

>  <REMARK>
 VINA RESULT:      -7.8      2.456      6.831
  Name = 
  5 active torsions:
  status: ('A' for Active; 'I' for Inactive)
    1  A    between atoms: C_1  and  N_4
    2  A    between atoms: C_1  and  C_27
    3  A    between atoms: N_4  and  N_12
    4  A    between atoms: C_8  and  N_12
    5  A    between atoms: C_23  and  C_30
                            x       y       z     vdW  Elec       q    Type
                         _______ _______ _______ _____ _____    ______ ____

>  <TORSDO>
F 5

$$$$
=
 OpenBabel11122411413D

 37 43  0  0  1  0  0  0  0  0999 V2000
  190.3100  178.5180  143.9480 C   0  0  1  0  0  0  0  0  0  0  0  0
  186.6080  177.4720  144.2130 C   0  0  1  0  0  3  0  0  0  0  0  0
  184.6490  177.4590  141.5280 O   0  0  0  0  0  0  0  0  0  0  0  0
  189.0080  177.0450  145.1390 C   0  0  2  0  0  3  0  0  0  0  0  0
  186.4030  178.2810  142.9330 C   0  0  2  0  0  3  0  0  0  0  0  0
  187.9920  176.8460  143.9990 C   0  0  2  0  0  3  0  0  0  0  0  0
  184.9480  178.4410  142.4830 C   0  0  2  0  0  3  0  0  0  0  0  0
  188.3120  176.7870  146.4660 C   0  0  0  0  0  2  0  0  0  0  0  0
  188.4700  177.3450  142.6340 C   0  0  2  0  0  3  0  0  0  0  0  0
  191.2300  177.4970  143.7500 F   0  0  0  0  0  0  0  0  0  0  0  0
  185.0560  178.6910  145.8120 C   0  0  0  0  0  2  0  0  0  0  0  0
  187.1420  177.7460  146.7160 C   0  0  0  0  0  2  0  0  0  0  0  0
  189.3480  178.6110  142.7710 C   0  0  0  0  0  2  0  0  0  0  0  0
  185.1860  179.4050  139.9590 C   0  0  0  0  0  2  0  0  0  0  0  0
  184.7020  177.9750  140.2020 C   0  0  1  0  0  3  0  0  0  0  0  0
  186.5100  178.3720  145.4610 C   0  0  1  0  0  3  0  0  0  0  0  0
  187.2190  177.6230  141.9090 N   0  0  2  0  0  0  0  0  0  0  0  0
  189.5800  178.3350  145.1410 O   0  0  0  0  0  0  0  0  0  0  0  0
  183.9080  178.4710  143.6090 C   0  0  1  0  0  3  0  0  0  0  0  0
  191.0670  179.8260  144.0420 C   0  0  0  0  0  1  0  0  0  0  0  0
  186.1440  178.2500  139.7190 C   0  0  2  0  0  3  0  0  0  0  0  0
  187.3280  178.4580  140.6940 C   0  0  2  0  0  3  0  0  0  0  0  0
  184.3140  179.4390  144.7150 C   0  0  0  0  0  2  0  0  0  0  0  0
  181.4740  178.9110  143.9620 C   0  0  0  0  0  3  0  0  0  0  0  0
  182.5540  178.8290  143.0760 C   0  0  0  0  0  0  0  0  0  0  0  0
  182.3500  179.0700  141.7090 C   0  0  0  0  0  3  0  0  0  0  0  0
  180.8630  179.6460  139.7870 C   0  0  0  0  0  1  0  0  0  0  0  0
  179.9990  179.4760  142.1250 C   0  0  0  0  0  3  0  0  0  0  0  0
  181.0750  179.3930  141.2360 C   0  0  0  0  0  0  0  0  0  0  0  0
  180.1990  179.2350  143.4880 C   0  0  0  0  0  3  0  0  0  0  0  0
  188.5980  178.1490  139.8970 C   0  0  0  0  0  2  0  0  0  0  0  0
  188.2620  177.7390  138.5390 N   0  0  0  0  0  0  0  0  0  0  0  0
  188.8270  179.8230  137.6260 O   0  0  0  0  0  0  0  0  0  0  0  0
  188.4540  178.6340  137.4380 C   0  0  0  0  0  3  0  0  0  0  0  0
  187.9040  176.4040  138.2960 N   0  0  0  0  0  2  0  0  0  0  0  0
  188.9120  175.8230  137.4210 C   0  0  0  0  0  2  0  0  0  0  0  0
  189.9930  175.3770  138.1810 O   0  0  0  0  0  1  0  0  0  0  0  0
  1 20  1  1  0  0  0
  1 18  1  0  0  0  0
  2 16  1  0  0  0  0
  3  7  1  0  0  0  0
  4 18  1  0  0  0  0
  4  8  1  0  0  0  0
  5  2  1  0  0  0  0
  6  2  1  0  0  0  0
  6  4  1  0  0  0  0
  7  5  1  0  0  0  0
  7 19  1  0  0  0  0
  8 12  1  0  0  0  0
  9 13  1  0  0  0  0
  9  6  1  0  0  0  0
 10  1  1  0  0  0  0
 13  1  1  0  0  0  0
 14 15  1  0  0  0  0
 15  3  1  0  0  0  0
 16 11  1  0  0  0  0
 16 12  1  0  0  0  0
 17  9  1  0  0  0  0
 17  5  1  0  0  0  0
 19 23  1  0  0  0  0
 21 14  1  0  0  0  0
 21 15  1  0  0  0  0
 21 22  1  0  0  0  0
 22 17  1  0  0  0  0
 23 11  1  0  0  0  0
 25 19  1  0  0  0  0
 25 24  2  0  0  0  0
 26 25  1  0  0  0  0
 27 29  1  0  0  0  0
 28 30  2  0  0  0  0
 29 26  2  0  0  0  0
 29 28  1  0  0  0  0
 30 24  1  0  0  0  0
 31 22  1  0  0  0  0
 32 31  1  0  0  0  0
 34 33  2  0  0  0  0
 34 32  1  0  0  0  0
 35 32  1  0  0  0  0
 36 37  1  0  0  0  0
 36 35  1  0  0  0  0
M  END
>  <MODEL>
3

>  <REMARK>
 VINA RESULT:      -7.8      2.434      5.939
  Name = 
  5 active torsions:
  status: ('A' for Active; 'I' for Inactive)
    1  A    between atoms: C_1  and  N_4
    2  A    between atoms: C_1  and  C_27
    3  A    between atoms: N_4  and  N_12
    4  A    between atoms: C_8  and  N_12
    5  A    between atoms: C_23  and  C_30
                            x       y       z     vdW  Elec       q    Type
                         _______ _______ _______ _____ _____    ______ ____

>  <TORSDO>
F 5

$$$$
=
 OpenBabel11122411413D

 37 43  0  0  1  0  0  0  0  0999 V2000
  185.8780  179.1740  146.7320 C   0  0  1  0  0  0  0  0  0  0  0  0
  186.4270  177.5990  143.2560 C   0  0  1  0  0  3  0  0  0  0  0  0
  189.1750  175.8490  142.5970 O   0  0  0  0  0  0  0  0  0  0  0  0
  184.6370  178.2200  145.0480 C   0  0  2  0  0  3  0  0  0  0  0  0
  187.9140  177.6160  143.6060 C   0  0  2  0  0  3  0  0  0  0  0  0
  185.7670  177.2730  144.6010 C   0  0  2  0  0  3  0  0  0  0  0  0
  188.8610  177.2100  142.4720 C   0  0  2  0  0  3  0  0  0  0  0  0
  183.7280  178.4920  143.8610 C   0  0  0  0  0  2  0  0  0  0  0  0
  186.9110  177.1370  145.6060 C   0  0  2  0  0  3  0  0  0  0  0  0
  185.1580  178.4190  147.6480 F   0  0  0  0  0  0  0  0  0  0  0  0
  186.4000  179.0630  141.1800 C   0  0  0  0  0  2  0  0  0  0  0  0
  184.4630  179.1660  142.6960 C   0  0  0  0  0  2  0  0  0  0  0  0
  187.1710  178.4680  146.3500 C   0  0  0  0  0  2  0  0  0  0  0  0
  191.2280  176.8500  143.7450 C   0  0  0  0  0  2  0  0  0  0  0  0
  190.4490  175.6530  143.2010 C   0  0  1  0  0  3  0  0  0  0  0  0
  185.9850  178.9440  142.6470 C   0  0  1  0  0  3  0  0  0  0  0  0
  188.0600  176.7420  144.7730 N   0  0  2  0  0  0  0  0  0  0  0  0
  185.1220  179.4380  145.5700 O   0  0  0  0  0  0  0  0  0  0  0  0
  188.3810  177.5520  141.0570 C   0  0  1  0  0  3  0  0  0  0  0  0
  186.2360  180.4940  147.3830 C   0  0  0  0  0  1  0  0  0  0  0  0
  190.4560  175.9700  144.7130 C   0  0  2  0  0  3  0  0  0  0  0  0
  189.4000  176.8820  145.3820 C   0  0  2  0  0  3  0  0  0  0  0  0
  187.9050  178.9980  140.9660 C   0  0  0  0  0  2  0  0  0  0  0  0
  189.1050  176.9180  138.7510 C   0  0  0  0  0  3  0  0  0  0  0  0
  189.4610  177.2960  140.0500 C   0  0  0  0  0  0  0  0  0  0  0  0
  190.8160  177.4170  140.3900 C   0  0  0  0  0  3  0  0  0  0  0  0
  193.2400  177.2920  139.8000 C   0  0  0  0  0  1  0  0  0  0  0  0
  191.4450  176.7880  138.1380 C   0  0  0  0  0  3  0  0  0  0  0  0
  191.8050  177.1640  139.4350 C   0  0  0  0  0  0  0  0  0  0  0  0
  190.0940  176.6650  137.7960 C   0  0  0  0  0  3  0  0  0  0  0  0
  189.3960  176.5150  146.8680 C   0  0  0  0  0  2  0  0  0  0  0  0
  190.3250  177.3630  147.6060 N   0  0  0  0  0  0  0  0  0  0  0  0
  188.6410  178.2440  148.9790 O   0  0  0  0  0  0  0  0  0  0  0  0
  189.8670  178.1720  148.6940 C   0  0  0  0  0  3  0  0  0  0  0  0
  191.7000  177.2560  147.3490 N   0  0  0  0  0  2  0  0  0  0  0  0
  192.1340  175.9330  147.7740 C   0  0  0  0  0  2  0  0  0  0  0  0
  193.2080  176.0500  148.6550 O   0  0  0  0  0  1  0  0  0  0  0  0
  1 20  1  1  0  0  0
  1 10  1  0  0  0  0
  2  5  1  0  0  0  0
  2  6  1  0  0  0  0
  3 15  1  0  0  0  0
  4 18  1  0  0  0  0
  5 17  1  0  0  0  0
  6  4  1  0  0  0  0
  6  9  1  0  0  0  0
  7  3  1  0  0  0  0
  7  5  1  0  0  0  0
  8  4  1  0  0  0  0
  9 13  1  0  0  0  0
 11 16  1  0  0  0  0
 12  8  1  0  0  0  0
 13  1  1  0  0  0  0
 14 21  1  0  0  0  0
 15 14  1  0  0  0  0
 15 21  1  0  0  0  0
 16 12  1  0  0  0  0
 16  2  1  0  0  0  0
 17 22  1  0  0  0  0
 17  9  1  0  0  0  0
 18  1  1  0  0  0  0
 19  7  1  0  0  0  0
 21 22  1  0  0  0  0
 22 31  1  0  0  0  0
 23 19  1  0  0  0  0
 23 11  1  0  0  0  0
 24 25  1  0  0  0  0
 25 26  2  0  0  0  0
 25 19  1  0  0  0  0
 28 29  2  0  0  0  0
 29 27  1  0  0  0  0
 29 26  1  0  0  0  0
 30 28  1  0  0  0  0
 30 24  2  0  0  0  0
 31 32  1  0  0  0  0
 32 34  1  0  0  0  0
 34 33  2  0  0  0  0
 35 32  1  0  0  0  0
 35 36  1  0  0  0  0
 36 37  1  0  0  0  0
M  END
>  <MODEL>
4

>  <REMARK>
 VINA RESULT:      -7.7      3.962      7.971
  Name = 
  5 active torsions:
  status: ('A' for Active; 'I' for Inactive)
    1  A    between atoms: C_1  and  N_4
    2  A    between atoms: C_1  and  C_27
    3  A    between atoms: N_4  and  N_12
    4  A    between atoms: C_8  and  N_12
    5  A    between atoms: C_23  and  C_30
                            x       y       z     vdW  Elec       q    Type
                         _______ _______ _______ _____ _____    ______ ____

>  <TORSDO>
F 5

$$$$
=
 OpenBabel11122411413D

 37 43  0  0  1  0  0  0  0  0999 V2000
  183.2190  178.1150  140.7430 C   0  0  1  0  0  0  0  0  0  0  0  0
  185.7500  178.8740  143.5510 C   0  0  1  0  0  3  0  0  0  0  0  0
  189.0200  178.6730  142.9930 O   0  0  0  0  0  0  0  0  0  0  0  0
  183.4230  179.5090  142.5610 C   0  0  2  0  0  3  0  0  0  0  0  0
  186.7300  178.0220  142.7460 C   0  0  2  0  0  3  0  0  0  0  0  0
  184.9570  179.6010  142.4590 C   0  0  2  0  0  3  0  0  0  0  0  0
  188.0710  177.7390  143.4310 C   0  0  2  0  0  3  0  0  0  0  0  0
  183.0130  179.7410  144.0060 C   0  0  0  0  0  2  0  0  0  0  0  0
  185.5310  179.1110  141.1290 C   0  0  2  0  0  3  0  0  0  0  0  0
  182.7730  179.2010  140.0010 F   0  0  0  0  0  0  0  0  0  0  0  0
  185.6550  177.5740  145.7310 C   0  0  0  0  0  2  0  0  0  0  0  0
  183.6050  178.6990  144.9630 C   0  0  0  0  0  2  0  0  0  0  0  0
  184.7180  177.9210  140.5660 C   0  0  0  0  0  2  0  0  0  0  0  0
  189.5900  176.7400  141.4190 C   0  0  0  0  0  2  0  0  0  0  0  0
  189.8690  178.1320  141.9850 C   0  0  1  0  0  3  0  0  0  0  0  0
  184.8860  177.9980  144.4800 C   0  0  1  0  0  3  0  0  0  0  0  0
  186.9090  178.7190  141.4700 N   0  0  2  0  0  0  0  0  0  0  0  0
  182.9210  178.2680  142.1140 O   0  0  0  0  0  0  0  0  0  0  0  0
  188.0260  177.6530  144.9600 C   0  0  1  0  0  3  0  0  0  0  0  0
  182.5190  176.8730  140.2340 C   0  0  0  0  0  1  0  0  0  0  0  0
  189.1570  177.9600  140.6240 C   0  0  2  0  0  3  0  0  0  0  0  0
  187.6190  177.8680  140.4900 C   0  0  2  0  0  3  0  0  0  0  0  0
  186.8950  176.7450  145.4330 C   0  0  0  0  0  2  0  0  0  0  0  0
  189.7090  177.5520  146.8040 C   0  0  0  0  0  3  0  0  0  0  0  0
  189.3370  177.1780  145.5080 C   0  0  0  0  0  0  0  0  0  0  0  0
  190.1980  176.3780  144.7420 C   0  0  0  0  0  3  0  0  0  0  0  0
  192.3310  175.1100  144.4580 C   0  0  0  0  0  1  0  0  0  0  0  0
  191.7880  176.3310  146.5680 C   0  0  0  0  0  3  0  0  0  0  0  0
  191.4210  175.9560  145.2730 C   0  0  0  0  0  0  0  0  0  0  0  0
  190.9320  177.1280  147.3340 C   0  0  0  0  0  3  0  0  0  0  0  0
  187.2900  178.2580  139.0470 C   0  0  0  0  0  2  0  0  0  0  0  0
  188.2080  177.6060  138.1210 N   0  0  0  0  0  0  0  0  0  0  0  0
  189.0590  179.6390  137.3220 O   0  0  0  0  0  0  0  0  0  0  0  0
  189.1050  178.3800  137.3170 C   0  0  0  0  0  3  0  0  0  0  0  0
  188.3220  176.2070  138.1400 N   0  0  0  0  0  2  0  0  0  0  0  0
  189.4860  175.8430  137.3440 C   0  0  0  0  0  2  0  0  0  0  0  0
  190.5090  175.4020  138.1820 O   0  0  0  0  0  1  0  0  0  0  0  0
  1 20  1  6  0  0  0
  1 18  1  0  0  0  0
  2 16  1  0  0  0  0
  3  7  1  0  0  0  0
  4  8  1  0  0  0  0
  5  7  1  0  0  0  0
  5  2  1  0  0  0  0
  6  4  1  0  0  0  0
  6  2  1  0  0  0  0
  7 19  1  0  0  0  0
  8 12  1  0  0  0  0
  9 17  1  0  0  0  0
  9  6  1  0  0  0  0
 10  1  1  0  0  0  0
 13  1  1  0  0  0  0
 13  9  1  0  0  0  0
 14 15  1  0  0  0  0
 15  3  1  0  0  0  0
 16 12  1  0  0  0  0
 16 11  1  0  0  0  0
 17  5  1  0  0  0  0
 18  4  1  0  0  0  0
 19 23  1  0  0  0  0
 19 25  1  0  0  0  0
 21 14  1  0  0  0  0
 21 15  1  0  0  0  0
 22 21  1  0  0  0  0
 22 17  1  0  0  0  0
 23 11  1  0  0  0  0
 24 30  1  0  0  0  0
 25 24  2  0  0  0  0
 26 29  2  0  0  0  0
 26 25  1  0  0  0  0
 27 29  1  0  0  0  0
 28 30  2  0  0  0  0
 29 28  1  0  0  0  0
 31 22  1  0  0  0  0
 32 35  1  0  0  0  0
 32 31  1  0  0  0  0
 34 33  2  0  0  0  0
 34 32  1  0  0  0  0
 36 35  1  0  0  0  0
 36 37  1  0  0  0  0
M  END
>  <MODEL>
5

>  <REMARK>
 VINA RESULT:      -7.7      2.738      7.982
  Name = 
  5 active torsions:
  status: ('A' for Active; 'I' for Inactive)
    1  A    between atoms: C_1  and  N_4
    2  A    between atoms: C_1  and  C_27
    3  A    between atoms: N_4  and  N_12
    4  A    between atoms: C_8  and  N_12
    5  A    between atoms: C_23  and  C_30
                            x       y       z     vdW  Elec       q    Type
                         _______ _______ _______ _____ _____    ______ ____

>  <TORSDO>
F 5

$$$$
=
 OpenBabel11122411413D

 37 43  0  0  1  0  0  0  0  0999 V2000
  185.8430  179.0940  146.2560 C   0  0  1  0  0  0  0  0  0  0  0  0
  186.9420  177.4550  142.9440 C   0  0  1  0  0  3  0  0  0  0  0  0
  189.8180  175.8030  142.7360 O   0  0  0  0  0  0  0  0  0  0  0  0
  184.8920  178.0470  144.4430 C   0  0  2  0  0  3  0  0  0  0  0  0
  188.3620  177.5420  143.5010 C   0  0  2  0  0  3  0  0  0  0  0  0
  186.1080  177.1360  144.1900 C   0  0  2  0  0  3  0  0  0  0  0  0
  189.4750  177.1460  142.5260 C   0  0  2  0  0  3  0  0  0  0  0  0
  184.1530  178.2530  143.1320 C   0  0  0  0  0  2  0  0  0  0  0  0
  187.1010  177.0720  145.3520 C   0  0  2  0  0  3  0  0  0  0  0  0
  185.0280  178.3330  147.0840 F   0  0  0  0  0  0  0  0  0  0  0  0
  187.1590  178.8650  140.8410 C   0  0  0  0  0  2  0  0  0  0  0  0
  185.0220  178.9260  142.0620 C   0  0  0  0  0  2  0  0  0  0  0  0
  187.2030  178.4310  146.0840 C   0  0  0  0  0  2  0  0  0  0  0  0
  191.6480  176.9160  144.1330 C   0  0  0  0  0  2  0  0  0  0  0  0
  190.9990  175.6740  143.5200 C   0  0  1  0  0  3  0  0  0  0  0  0
  186.5420  178.7660  142.2370 C   0  0  1  0  0  3  0  0  0  0  0  0
  188.3710  176.7040  144.7030 N   0  0  2  0  0  0  0  0  0  0  0  0
  185.2530  179.2970  144.9910 O   0  0  0  0  0  0  0  0  0  0  0  0
  189.1910  177.4330  141.0470 C   0  0  1  0  0  3  0  0  0  0  0  0
  186.0550  180.4420  146.9110 C   0  0  0  0  0  1  0  0  0  0  0  0
  190.7780  176.0290  145.0080 C   0  0  2  0  0  3  0  0  0  0  0  0
  189.6040  176.9130  145.4920 C   0  0  2  0  0  3  0  0  0  0  0  0
  188.6800  178.8550  140.8460 C   0  0  0  0  0  2  0  0  0  0  0  0
  191.6580  177.6150  140.6920 C   0  0  0  0  0  3  0  0  0  0  0  0
  190.4120  177.1950  140.2120 C   0  0  0  0  0  0  0  0  0  0  0  0
  190.3260  176.5730  138.9580 C   0  0  0  0  0  3  0  0  0  0  0  0
  191.3840  175.7130  136.8650 C   0  0  0  0  0  1  0  0  0  0  0  0
  192.7210  176.7910  138.6780 C   0  0  0  0  0  3  0  0  0  0  0  0
  191.4790  176.3710  138.1940 C   0  0  0  0  0  0  0  0  0  0  0  0
  192.8110  177.4130  139.9280 C   0  0  0  0  0  3  0  0  0  0  0  0
  189.4010  176.5840  146.9730 C   0  0  0  0  0  2  0  0  0  0  0  0
  190.1750  177.4940  147.8090 N   0  0  0  0  0  0  0  0  0  0  0  0
  188.2890  178.2250  148.9940 O   0  0  0  0  0  0  0  0  0  0  0  0
  189.5400  178.2530  148.8430 C   0  0  0  0  0  3  0  0  0  0  0  0
  191.5740  177.4980  147.7030 N   0  0  0  0  0  2  0  0  0  0  0  0
  192.0560  176.1760  148.0770 C   0  0  0  0  0  2  0  0  0  0  0  0
  193.2140  176.2970  148.8430 O   0  0  0  0  0  1  0  0  0  0  0  0
  1 20  1  1  0  0  0
  1 10  1  0  0  0  0
  2  5  1  0  0  0  0
  2  6  1  0  0  0  0
  3 15  1  0  0  0  0
  4 18  1  0  0  0  0
  5 17  1  0  0  0  0
  6  4  1  0  0  0  0
  6  9  1  0  0  0  0
  7  3  1  0  0  0  0
  7  5  1  0  0  0  0
  8  4  1  0  0  0  0
  9 13  1  0  0  0  0
 11 23  1  0  0  0  0
 11 16  1  0  0  0  0
 12 16  1  0  0  0  0
 12  8  1  0  0  0  0
 13  1  1  0  0  0  0
 14 21  1  0  0  0  0
 15 14  1  0  0  0  0
 15 21  1  0  0  0  0
 16  2  1  0  0  0  0
 17  9  1  0  0  0  0
 17 22  1  0  0  0  0
 18  1  1  0  0  0  0
 19  7  1  0  0  0  0
 21 22  1  0  0  0  0
 22 31  1  0  0  0  0
 23 19  1  0  0  0  0
 25 24  1  0  0  0  0
 25 19  1  0  0  0  0
 26 25  2  0  0  0  0
 27 29  1  0  0  0  0
 28 30  1  0  0  0  0
 29 28  2  0  0  0  0
 29 26  1  0  0  0  0
 30 24  2  0  0  0  0
 31 32  1  0  0  0  0
 32 34  1  0  0  0  0
 34 33  2  0  0  0  0
 35 32  1  0  0  0  0
 35 36  1  0  0  0  0
 36 37  1  0  0  0  0
M  END
>  <MODEL>
6

>  <REMARK>
 VINA RESULT:      -7.6      4.039      8.066
  Name = 
  5 active torsions:
  status: ('A' for Active; 'I' for Inactive)
    1  A    between atoms: C_1  and  N_4
    2  A    between atoms: C_1  and  C_27
    3  A    between atoms: N_4  and  N_12
    4  A    between atoms: C_8  and  N_12
    5  A    between atoms: C_23  and  C_30
                            x       y       z     vdW  Elec       q    Type
                         _______ _______ _______ _____ _____    ______ ____

>  <TORSDO>
F 5

$$$$
=
 OpenBabel11122411413D

 37 43  0  0  1  0  0  0  0  0999 V2000
  182.6840  177.3720  139.2520 C   0  0  1  0  0  0  0  0  0  0  0  0
  185.3260  178.8860  141.6180 C   0  0  1  0  0  3  0  0  0  0  0  0
  188.5090  179.1140  140.6880 O   0  0  0  0  0  0  0  0  0  0  0  0
  182.8370  179.0150  140.8540 C   0  0  2  0  0  3  0  0  0  0  0  0
  186.3480  178.0930  140.8040 C   0  0  2  0  0  3  0  0  0  0  0  0
  184.3150  179.3270  140.5530 C   0  0  2  0  0  3  0  0  0  0  0  0
  187.7800  178.1140  141.3460 C   0  0  2  0  0  3  0  0  0  0  0  0
  182.5440  179.3760  142.3000 C   0  0  0  0  0  2  0  0  0  0  0  0
  184.8240  178.7530  139.2300 C   0  0  2  0  0  3  0  0  0  0  0  0
  181.9890  178.2650  138.4470 F   0  0  0  0  0  0  0  0  0  0  0  0
  185.6750  177.8960  143.9310 C   0  0  0  0  0  2  0  0  0  0  0  0
  183.3970  178.5780  143.2930 C   0  0  0  0  0  2  0  0  0  0  0  0
  184.1690  177.3880  138.9160 C   0  0  0  0  0  2  0  0  0  0  0  0
  189.2320  177.0950  139.2950 C   0  0  0  0  0  2  0  0  0  0  0  0
  189.3290  178.5780  139.6540 C   0  0  1  0  0  3  0  0  0  0  0  0
  184.7210  178.0220  142.7420 C   0  0  1  0  0  3  0  0  0  0  0  0
  186.2760  178.6280  139.4420 N   0  0  2  0  0  0  0  0  0  0  0  0
  182.5070  177.6630  140.6210 O   0  0  0  0  0  0  0  0  0  0  0  0
  187.9070  178.2320  142.8690 C   0  0  1  0  0  3  0  0  0  0  0  0
  182.1540  175.9800  138.9830 C   0  0  0  0  0  1  0  0  0  0  0  0
  188.5210  178.1150  138.4210 C   0  0  2  0  0  3  0  0  0  0  0  0
  187.0140  177.7700  138.4900 C   0  0  2  0  0  3  0  0  0  0  0  0
  187.0000  177.2340  143.5810 C   0  0  0  0  0  2  0  0  0  0  0  0
  190.1150  179.1690  143.5710 C   0  0  0  0  0  3  0  0  0  0  0  0
  189.3290  178.0430  143.3030 C   0  0  0  0  0  0  0  0  0  0  0  0
  189.8850  176.7620  143.4350 C   0  0  0  0  0  3  0  0  0  0  0  0
  191.8030  175.2530  143.9680 C   0  0  0  0  0  1  0  0  0  0  0  0
  191.9980  177.7400  144.0990 C   0  0  0  0  0  3  0  0  0  0  0  0
  191.2170  176.6120  143.8320 C   0  0  0  0  0  0  0  0  0  0  0  0
  191.4470  179.0190  143.9690 C   0  0  0  0  0  3  0  0  0  0  0  0
  186.4770  177.9040  137.0620 C   0  0  0  0  0  2  0  0  0  0  0  0
  186.7000  176.6720  136.3160 N   0  0  0  0  0  0  0  0  0  0  0  0
  188.0150  177.7340  134.6910 O   0  0  0  0  0  0  0  0  0  0  0  0
  187.5330  176.6640  135.1510 C   0  0  0  0  0  3  0  0  0  0  0  0
  186.2260  175.4590  136.8390 N   0  0  0  0  0  2  0  0  0  0  0  0
  187.3170  174.4960  136.7940 C   0  0  0  0  0  2  0  0  0  0  0  0
  186.8600  173.2480  137.2150 O   0  0  0  0  0  1  0  0  0  0  0  0
  1 20  1  6  0  0  0
  1 18  1  0  0  0  0
  2 16  1  0  0  0  0
  3  7  1  0  0  0  0
  4  8  1  0  0  0  0
  5  7  1  0  0  0  0
  5  2  1  0  0  0  0
  6  4  1  0  0  0  0
  6  2  1  0  0  0  0
  7 19  1  0  0  0  0
  8 12  1  0  0  0  0
  9 17  1  0  0  0  0
  9  6  1  0  0  0  0
 10  1  1  0  0  0  0
 13  9  1  0  0  0  0
 13  1  1  0  0  0  0
 14 15  1  0  0  0  0
 15  3  1  0  0  0  0
 16 12  1  0  0  0  0
 16 11  1  0  0  0  0
 17  5  1  0  0  0  0
 18  4  1  0  0  0  0
 19 25  1  0  0  0  0
 19 23  1  0  0  0  0
 21 22  1  0  0  0  0
 21 14  1  0  0  0  0
 21 15  1  0  0  0  0
 22 17  1  0  0  0  0
 23 11  1  0  0  0  0
 24 30  1  0  0  0  0
 25 26  1  0  0  0  0
 25 24  2  0  0  0  0
 26 29  2  0  0  0  0
 29 27  1  0  0  0  0
 29 28  1  0  0  0  0
 30 28  2  0  0  0  0
 31 22  1  0  0  0  0
 32 35  1  0  0  0  0
 32 31  1  0  0  0  0
 33 34  2  0  0  0  0
 34 32  1  0  0  0  0
 36 35  1  0  0  0  0
 36 37  1  0  0  0  0
M  END
>  <MODEL>
7

>  <REMARK>
 VINA RESULT:      -7.6      2.688      7.567
  Name = 
  5 active torsions:
  status: ('A' for Active; 'I' for Inactive)
    1  A    between atoms: C_1  and  N_4
    2  A    between atoms: C_1  and  C_27
    3  A    between atoms: N_4  and  N_12
    4  A    between atoms: C_8  and  N_12
    5  A    between atoms: C_23  and  C_30
                            x       y       z     vdW  Elec       q    Type
                         _______ _______ _______ _____ _____    ______ ____

>  <TORSDO>
F 5

$$$$
=
 OpenBabel11122411413D

 37 43  0  0  1  0  0  0  0  0999 V2000
  190.1210  176.8690  141.8010 C   0  0  1  0  0  0  0  0  0  0  0  0
  188.3110  177.5500  138.4650 C   0  0  1  0  0  3  0  0  0  0  0  0
  185.2710  178.8930  138.4230 O   0  0  0  0  0  0  0  0  0  0  0  0
  190.6340  177.4950  139.6490 C   0  0  2  0  0  3  0  0  0  0  0  0
  187.0210  177.5060  139.2840 C   0  0  2  0  0  3  0  0  0  0  0  0
  189.2980  178.2270  139.4240 C   0  0  2  0  0  3  0  0  0  0  0  0
  185.7250  177.5670  138.4710 C   0  0  2  0  0  3  0  0  0  0  0  0
  191.1650  177.0210  138.3070 C   0  0  0  0  0  2  0  0  0  0  0  0
  188.5090  178.5090  140.7040 C   0  0  2  0  0  3  0  0  0  0  0  0
  190.9700  177.8670  142.2610 F   0  0  0  0  0  0  0  0  0  0  0  0
  187.9110  175.6490  136.8280 C   0  0  0  0  0  2  0  0  0  0  0  0
  190.2130  176.0430  137.6060 C   0  0  0  0  0  2  0  0  0  0  0  0
  188.6850  177.3720  141.7380 C   0  0  0  0  0  2  0  0  0  0  0  0
  183.8360  178.0390  140.3590 C   0  0  0  0  0  2  0  0  0  0  0  0
  184.2290  179.1310  139.3640 C   0  0  1  0  0  3  0  0  0  0  0  0
  188.7350  176.1360  138.0210 C   0  0  1  0  0  3  0  0  0  0  0  0
  187.1160  178.6140  140.2380 N   0  0  2  0  0  0  0  0  0  0  0  0
  190.5130  176.3990  140.5310 O   0  0  0  0  0  0  0  0  0  0  0  0
  185.7920  176.9420  137.0730 C   0  0  1  0  0  3  0  0  0  0  0  0
  190.1740  175.7150  142.7800 C   0  0  0  0  0  1  0  0  0  0  0  0
  184.7320  179.1740  140.8240 C   0  0  2  0  0  3  0  0  0  0  0  0
  186.0620  178.5220  141.2710 C   0  0  2  0  0  3  0  0  0  0  0  0
  186.4200  175.5530  137.1160 C   0  0  0  0  0  2  0  0  0  0  0  0
  184.2290  177.4540  135.1910 C   0  0  0  0  0  3  0  0  0  0  0  0
  184.4300  176.8780  136.4500 C   0  0  0  0  0  0  0  0  0  0  0  0
  183.3570  176.2620  137.1110 C   0  0  0  0  0  3  0  0  0  0  0  0
  180.9590  175.5710  137.2170 C   0  0  0  0  0  1  0  0  0  0  0  0
  181.8980  176.7990  135.2550 C   0  0  0  0  0  3  0  0  0  0  0  0
  182.0940  176.2230  136.5130 C   0  0  0  0  0  0  0  0  0  0  0  0
  182.9660  177.4140  134.5940 C   0  0  0  0  0  3  0  0  0  0  0  0
  186.4690  179.2240  142.5700 C   0  0  0  0  0  2  0  0  0  0  0  0
  185.9540  178.4980  143.7250 N   0  0  0  0  0  0  0  0  0  0  0  0
  184.1380  179.9550  144.0000 O   0  0  0  0  0  0  0  0  0  0  0  0
  184.7380  178.9070  144.3610 C   0  0  0  0  0  3  0  0  0  0  0  0
  186.5690  177.2970  144.1080 N   0  0  0  0  0  2  0  0  0  0  0  0
  187.2210  177.5170  145.3910 C   0  0  0  0  0  2  0  0  0  0  0  0
  188.5470  177.8940  145.1860 O   0  0  0  0  0  1  0  0  0  0  0  0
  1 10  1  0  0  0  0
  1 20  1  1  0  0  0
  2  5  1  0  0  0  0
  2  6  1  0  0  0  0
  3  7  1  0  0  0  0
  3 15  1  0  0  0  0
  4 18  1  0  0  0  0
  5 17  1  0  0  0  0
  6  4  1  0  0  0  0
  6  9  1  0  0  0  0
  7  5  1  0  0  0  0
  8  4  1  0  0  0  0
  9 13  1  0  0  0  0
 11 23  1  0  0  0  0
 11 16  1  0  0  0  0
 12 16  1  0  0  0  0
 12  8  1  0  0  0  0
 13  1  1  0  0  0  0
 14 21  1  0  0  0  0
 15 14  1  0  0  0  0
 15 21  1  0  0  0  0
 16  2  1  0  0  0  0
 17  9  1  0  0  0  0
 17 22  1  0  0  0  0
 18  1  1  0  0  0  0
 19 23  1  0  0  0  0
 19  7  1  0  0  0  0
 21 22  1  0  0  0  0
 22 31  1  0  0  0  0
 24 25  1  0  0  0  0
 25 19  1  0  0  0  0
 25 26  2  0  0  0  0
 28 29  2  0  0  0  0
 29 26  1  0  0  0  0
 29 27  1  0  0  0  0
 30 24  2  0  0  0  0
 30 28  1  0  0  0  0
 31 32  1  0  0  0  0
 32 35  1  0  0  0  0
 32 34  1  0  0  0  0
 33 34  2  0  0  0  0
 35 36  1  0  0  0  0
 37 36  1  0  0  0  0
M  END
>  <MODEL>
8

>  <REMARK>
 VINA RESULT:      -7.0      2.198      3.857
  Name = 
  5 active torsions:
  status: ('A' for Active; 'I' for Inactive)
    1  A    between atoms: C_1  and  N_4
    2  A    between atoms: C_1  and  C_27
    3  A    between atoms: N_4  and  N_12
    4  A    between atoms: C_8  and  N_12
    5  A    between atoms: C_23  and  C_30
                            x       y       z     vdW  Elec       q    Type
                         _______ _______ _______ _____ _____    ______ ____

>  <TORSDO>
F 5

$$$$
=
 OpenBabel11122411413D

 37 43  0  0  1  0  0  0  0  0999 V2000
  190.2580  176.1290  137.6500 C   0  0  1  0  0  0  0  0  0  0  0  0
  187.8080  178.6220  139.2770 C   0  0  1  0  0  3  0  0  0  0  0  0
  187.5060  178.7980  142.5820 O   0  0  0  0  0  0  0  0  0  0  0  0
  189.4310  178.2400  137.2720 C   0  0  2  0  0  3  0  0  0  0  0  0
  187.8360  177.6890  140.4870 C   0  0  2  0  0  3  0  0  0  0  0  0
  189.2530  178.5600  138.7680 C   0  0  2  0  0  3  0  0  0  0  0  0
  186.8500  178.0340  141.6070 C   0  0  2  0  0  3  0  0  0  0  0  0
  188.4340  179.0640  136.4730 C   0  0  0  0  0  2  0  0  0  0  0  0
  189.9870  177.6030  139.7090 C   0  0  2  0  0  3  0  0  0  0  0  0
  191.5280  176.6080  137.3590 F   0  0  0  0  0  0  0  0  0  0  0  0
  185.3420  178.5560  138.6720 C   0  0  0  0  0  2  0  0  0  0  0  0
  186.9790  178.7540  136.8440 C   0  0  0  0  0  2  0  0  0  0  0  0
  190.0010  176.1610  139.1500 C   0  0  0  0  0  2  0  0  0  0  0  0
  187.6950  176.4910  143.6700 C   0  0  0  0  0  2  0  0  0  0  0  0
  187.8910  178.0070  143.7020 C   0  0  1  0  0  3  0  0  0  0  0  0
  186.7570  178.1630  138.2470 C   0  0  1  0  0  3  0  0  0  0  0  0
  189.2220  177.6960  140.9640 N   0  0  2  0  0  0  0  0  0  0  0  0
  189.2590  176.8690  136.9840 O   0  0  0  0  0  0  0  0  0  0  0  0
  185.5440  178.6980  141.1540 C   0  0  1  0  0  3  0  0  0  0  0  0
  190.1780  174.6890  137.1890 C   0  0  0  0  0  1  0  0  0  0  0  0
  189.0750  177.0630  143.3970 C   0  0  2  0  0  3  0  0  0  0  0  0
  189.4500  176.6270  141.9600 C   0  0  2  0  0  3  0  0  0  0  0  0
  184.9090  177.9390  139.9930 C   0  0  0  0  0  2  0  0  0  0  0  0
  185.0680  179.0470  143.5820 C   0  0  0  0  0  3  0  0  0  0  0  0
  184.5770  178.8080  142.2940 C   0  0  0  0  0  0  0  0  0  0  0  0
  183.1960  178.6650  142.0930 C   0  0  0  0  0  3  0  0  0  0  0  0
  180.8540  178.6090  142.9580 C   0  0  0  0  0  1  0  0  0  0  0  0
  182.8110  179.0020  144.4590 C   0  0  0  0  0  3  0  0  0  0  0  0
  182.3160  178.7630  143.1740 C   0  0  0  0  0  0  0  0  0  0  0  0
  184.1870  179.1440  144.6630 C   0  0  0  0  0  3  0  0  0  0  0  0
  190.9170  176.1950  142.0120 C   0  0  0  0  0  2  0  0  0  0  0  0
  191.5980  176.8310  143.1340 N   0  0  0  0  0  0  0  0  0  0  0  0
  191.7280  174.8370  144.3610 O   0  0  0  0  0  0  0  0  0  0  0  0
  192.0180  176.0600  144.2650 C   0  0  0  0  0  3  0  0  0  0  0  0
  191.9850  178.1750  143.0270 N   0  0  0  0  0  2  0  0  0  0  0  0
  191.8660  178.7820  144.3450 C   0  0  0  0  0  2  0  0  0  0  0  0
  190.9430  179.8260  144.3000 O   0  0  0  0  0  1  0  0  0  0  0  0
  1 20  1  6  0  0  0
  1 13  1  0  0  0  0
  2  5  1  0  0  0  0
  3 15  1  0  0  0  0
  4  6  1  0  0  0  0
  5 17  1  0  0  0  0
  5  7  1  0  0  0  0
  6  2  1  0  0  0  0
  6  9  1  0  0  0  0
  7  3  1  0  0  0  0
  8 12  1  0  0  0  0
  8  4  1  0  0  0  0
  9 17  1  0  0  0  0
 10  1  1  0  0  0  0
 11 23  1  0  0  0  0
 12 16  1  0  0  0  0
 13  9  1  0  0  0  0
 14 15  1  0  0  0  0
 16 11  1  0  0  0  0
 16  2  1  0  0  0  0
 17 22  1  0  0  0  0
 18  4  1  0  0  0  0
 18  1  1  0  0  0  0
 19  7  1  0  0  0  0
 19 25  1  0  0  0  0
 21 14  1  0  0  0  0
 21 15  1  0  0  0  0
 22 31  1  0  0  0  0
 22 21  1  0  0  0  0
 23 19  1  0  0  0  0
 24 30  1  0  0  0  0
 25 24  2  0  0  0  0
 26 25  1  0  0  0  0
 26 29  2  0  0  0  0
 27 29  1  0  0  0  0
 28 30  2  0  0  0  0
 29 28  1  0  0  0  0
 31 32  1  0  0  0  0
 32 34  1  0  0  0  0
 34 33  2  0  0  0  0
 35 32  1  0  0  0  0
 35 36  1  0  0  0  0
 37 36  1  0  0  0  0
M  END
>  <MODEL>
9

>  <REMARK>
 VINA RESULT:      -6.4      2.098      3.080
  Name = 
  5 active torsions:
  status: ('A' for Active; 'I' for Inactive)
    1  A    between atoms: C_1  and  N_4
    2  A    between atoms: C_1  and  C_27
    3  A    between atoms: N_4  and  N_12
    4  A    between atoms: C_8  and  N_12
    5  A    between atoms: C_23  and  C_30
                            x       y       z     vdW  Elec       q    Type
                         _______ _______ _______ _____ _____    ______ ____

>  <TORSDO>
F 5

$$$$
