=
 OpenBabel11122411413D

 37 43  0  0  1  0  0  0  0  0999 V2000
  190.4660  178.5170  143.9340 C   0  0  0  0  0  0  0  0  0  0  0  0
  186.6910  177.4980  144.1320 C   0  0  1  0  0  3  0  0  0  0  0  0
  184.8140  177.5500  141.3860 O   0  0  0  0  0  0  0  0  0  0  0  0
  189.0470  176.9490  145.1180 C   0  0  2  0  0  3  0  0  0  0  0  0
  186.5250  178.3320  142.8620 C   0  0  2  0  0  3  0  0  0  0  0  0
  188.0690  176.8590  143.9360 C   0  0  2  0  0  3  0  0  0  0  0  0
  185.0830  178.5050  142.3780 C   0  0  2  0  0  3  0  0  0  0  0  0
  188.2840  176.7080  146.4100 C   0  0  0  0  0  2  0  0  0  0  0  0
  188.5920  177.3820  142.6000 C   0  0  2  0  0  3  0  0  0  0  0  0
  191.5190  177.4540  143.6400 C   0  0  0  0  0  1  0  0  0  0  0  0
  185.1110  178.6910  145.7170 C   0  0  0  0  0  2  0  0  0  0  0  0
  187.1920  177.7580  146.6500 C   0  0  0  0  0  2  0  0  0  0  0  0
  189.4710  178.6400  142.7880 C   0  0  0  0  0  2  0  0  0  0  0  0
  185.4020  179.4400  140.0240 O   0  0  0  0  0  0  0  0  0  0  0  0
  184.9240  178.1110  140.0830 C   0  0  1  0  0  3  0  0  0  0  0  0
  186.5720  178.3830  145.3890 C   0  0  1  0  0  3  0  0  0  0  0  0
  187.3630  177.6860  141.8470 N   0  0  2  0  0  0  0  0  0  0  0  0
  189.7510  178.2340  145.1800 N   0  0  0  0  0  2  0  0  0  0  0  0
  184.0150  178.4980  143.4780 C   0  0  1  0  0  3  0  0  0  0  0  0
  191.1740  179.8460  144.0800 C   0  0  0  0  0  1  0  0  0  0  0  0
  186.3350  178.4440  139.6670 C   0  0  2  0  0  3  0  0  0  0  0  0
  187.5210  178.5480  140.6570 C   0  0  2  0  0  3  0  0  0  0  0  0
  184.3840  179.4470  144.6140 C   0  0  0  0  0  2  0  0  0  0  0  0
  181.5840  178.9810  143.7940 C   0  0  0  0  0  3  0  0  0  0  0  0
  182.6700  178.8510  142.9210 C   0  0  0  0  0  0  0  0  0  0  0  0
  182.4790  179.0450  141.5440 C   0  0  0  0  0  3  0  0  0  0  0  0
  181.0280  179.5560  139.6870 O   0  0  0  0  0  1  0  0  0  0  0  0
  180.1320  179.4950  141.9250 C   0  0  0  0  0  3  0  0  0  0  0  0
  181.2120  179.3660  141.0490 C   0  0  0  0  0  0  0  0  0  0  0  0
  180.3170  179.3030  143.2980 C   0  0  0  0  0  3  0  0  0  0  0  0
  188.7820  178.1900  139.8630 C   0  0  0  0  0  2  0  0  0  0  0  0
  188.4390  177.7870  138.5050 N   0  0  0  0  0  0  0  0  0  0  0  0
  188.9230  179.8940  137.6030 O   0  0  0  0  0  0  0  0  0  0  0  0
  188.5780  178.6980  137.4110 C   0  0  0  0  0  3  0  0  0  0  0  0
  188.0800  176.3990  138.2440 C   0  0  0  0  0  2  0  0  0  0  0  0
  189.1410  175.7180  137.3950 C   0  0  0  0  0  2  0  0  0  0  0  0
  190.2250  175.3440  138.1900 O   0  0  0  0  0  1  0  0  0  0  0  0
  1 20  1  0  0  0  0
  1 18  1  0  0  0  0
  2 16  1  0  0  0  0
  3  7  1  0  0  0  0
  4 18  1  0  0  0  0
  4  8  1  0  0  0  0
  5  2  1  0  0  0  0
  6  2  1  0  0  0  0
  6  4  1  0  0  0  0
  7  5  1  0  0  0  0
  7 19  1  0  0  0  0
  8 12  1  0  0  0  0
  9 13  1  0  0  0  0
  9  6  1  0  0  0  0
 10  1  1  0  0  0  0
 13  1  1  0  0  0  0
 14 15  1  0  0  0  0
 15  3  1  0  0  0  0
 16 11  1  0  0  0  0
 16 12  1  0  0  0  0
 17  9  1  0  0  0  0
 17  5  1  0  0  0  0
 19 23  1  0  0  0  0
 21 14  1  0  0  0  0
 21 15  1  0  0  0  0
 21 22  1  0  0  0  0
 22 17  1  0  0  0  0
 23 11  1  0  0  0  0
 25 19  1  0  0  0  0
 25 24  2  0  0  0  0
 26 25  1  0  0  0  0
 27 29  1  0  0  0  0
 28 30  2  0  0  0  0
 29 26  2  0  0  0  0
 29 28  1  0  0  0  0
 30 24  1  0  0  0  0
 31 22  1  0  0  0  0
 32 31  1  0  0  0  0
 34 33  2  0  0  0  0
 34 32  1  0  0  0  0
 35 32  1  0  0  0  0
 36 37  1  0  0  0  0
 36 35  1  0  0  0  0
M  END
>  <MODEL>
1

>  <REMARK>
 VINA RESULT:      -9.9      0.000      0.000
  Name = 
  5 active torsions:
  status: ('A' for Active; 'I' for Inactive)
    1  A    between atoms: C_1  and  N_4
    2  A    between atoms: C_1  and  C_27
    3  A    between atoms: N_4  and  C_12
    4  A    between atoms: C_8  and  C_12
    5  A    between atoms: C_23  and  C_30
                            x       y       z     vdW  Elec       q    Type
                         _______ _______ _______ _____ _____    ______ ____

>  <TORSDO>
F 5

$$$$
=
 OpenBabel11122411413D

 37 43  0  0  1  0  0  0  0  0999 V2000
  183.2390  178.1020  140.6390 C   0  0  0  0  0  0  0  0  0  0  0  0
  185.9370  178.8030  143.3870 C   0  0  1  0  0  3  0  0  0  0  0  0
  189.1680  178.5410  142.6420 O   0  0  0  0  0  0  0  0  0  0  0  0
  183.5880  179.5660  142.5370 C   0  0  2  0  0  3  0  0  0  0  0  0
  186.8590  177.9340  142.5310 C   0  0  2  0  0  3  0  0  0  0  0  0
  185.1110  179.5520  142.3360 C   0  0  2  0  0  3  0  0  0  0  0  0
  188.2270  177.6310  143.1460 C   0  0  2  0  0  3  0  0  0  0  0  0
  183.2850  179.7660  144.0130 C   0  0  0  0  0  2  0  0  0  0  0  0
  185.5980  179.0490  140.9790 C   0  0  2  0  0  3  0  0  0  0  0  0
  182.7480  179.2430  139.7540 C   0  0  0  0  0  1  0  0  0  0  0  0
  185.9250  177.5120  145.5690 C   0  0  0  0  0  2  0  0  0  0  0  0
  183.8410  178.6330  144.8840 C   0  0  0  0  0  2  0  0  0  0  0  0
  184.7340  177.8730  140.4660 C   0  0  0  0  0  2  0  0  0  0  0  0
  189.5230  176.6820  141.1620 O   0  0  0  0  0  0  0  0  0  0  0  0
  189.9310  177.9670  141.5870 C   0  0  1  0  0  3  0  0  0  0  0  0
  185.1050  177.9350  144.3520 C   0  0  1  0  0  3  0  0  0  0  0  0
  186.9840  178.6290  141.2460 N   0  0  2  0  0  0  0  0  0  0  0  0
  182.9350  178.3470  142.0500 N   0  0  0  0  0  2  0  0  0  0  0  0
  188.2610  177.5700  144.6780 C   0  0  1  0  0  3  0  0  0  0  0  0
  182.5230  176.8400  140.2080 C   0  0  0  0  0  1  0  0  0  0  0  0
  189.1590  177.7460  140.3110 C   0  0  2  0  0  3  0  0  0  0  0  0
  187.6120  177.7610  140.2280 C   0  0  2  0  0  3  0  0  0  0  0  0
  187.1490  176.6760  145.2200 C   0  0  0  0  0  2  0  0  0  0  0  0
  190.4090  176.3510  144.3040 C   0  0  0  0  0  3  0  0  0  0  0  0
  189.5940  177.0940  145.1660 C   0  0  0  0  0  0  0  0  0  0  0  0
  190.0350  177.3710  146.4690 C   0  0  0  0  0  3  0  0  0  0  0  0
  191.7120  177.1850  148.1920 O   0  0  0  0  0  1  0  0  0  0  0  0
  192.0910  176.1680  146.0390 C   0  0  0  0  0  3  0  0  0  0  0  0
  191.2810  176.9090  146.9030 C   0  0  0  0  0  0  0  0  0  0  0  0
  191.6560  175.8890  144.7390 C   0  0  0  0  0  3  0  0  0  0  0  0
  187.2570  178.2080  138.8070 C   0  0  0  0  0  2  0  0  0  0  0  0
  188.1930  177.6460  137.8400 N   0  0  0  0  0  0  0  0  0  0  0  0
  189.0870  179.7360  137.2740 O   0  0  0  0  0  0  0  0  0  0  0  0
  189.1140  178.4840  137.1370 C   0  0  0  0  0  3  0  0  0  0  0  0
  188.2780  176.1990  137.6910 C   0  0  0  0  0  2  0  0  0  0  0  0
  189.6470  175.7920  137.1700 C   0  0  0  0  0  2  0  0  0  0  0  0
  190.3620  175.1260  138.1660 O   0  0  0  0  0  1  0  0  0  0  0  0
  1 18  1  0  0  0  0
  2 16  1  0  0  0  0
  3  7  1  0  0  0  0
  4  8  1  0  0  0  0
  5  7  1  0  0  0  0
  5  2  1  0  0  0  0
  6  4  1  0  0  0  0
  6  2  1  0  0  0  0
  7 19  1  0  0  0  0
  8 12  1  0  0  0  0
  9 17  1  0  0  0  0
  9  6  1  0  0  0  0
 10  1  1  0  0  0  0
 13  1  1  0  0  0  0
 13  9  1  0  0  0  0
 14 15  1  0  0  0  0
 15  3  1  0  0  0  0
 16 12  1  0  0  0  0
 16 11  1  0  0  0  0
 17  5  1  0  0  0  0
 18  4  1  0  0  0  0
 19 25  1  0  0  0  0
 19 23  1  0  0  0  0
 20  1  1  0  0  0  0
 21 14  1  0  0  0  0
 21 15  1  0  0  0  0
 22 21  1  0  0  0  0
 22 17  1  0  0  0  0
 23 11  1  0  0  0  0
 24 30  2  0  0  0  0
 24 25  1  0  0  0  0
 25 26  2  0  0  0  0
 26 29  1  0  0  0  0
 28 29  2  0  0  0  0
 29 27  1  0  0  0  0
 30 28  1  0  0  0  0
 31 22  1  0  0  0  0
 32 31  1  0  0  0  0
 34 33  2  0  0  0  0
 34 32  1  0  0  0  0
 35 32  1  0  0  0  0
 36 35  1  0  0  0  0
 36 37  1  0  0  0  0
M  END
>  <MODEL>
2

>  <REMARK>
 VINA RESULT:      -9.4      2.404      6.352
  Name = 
  5 active torsions:
  status: ('A' for Active; 'I' for Inactive)
    1  A    between atoms: C_1  and  N_4
    2  A    between atoms: C_1  and  C_27
    3  A    between atoms: N_4  and  C_12
    4  A    between atoms: C_8  and  C_12
    5  A    between atoms: C_23  and  C_30
                            x       y       z     vdW  Elec       q    Type
                         _______ _______ _______ _____ _____    ______ ____

>  <TORSDO>
F 5

$$$$
=
 OpenBabel11122411413D

 37 43  0  0  1  0  0  0  0  0999 V2000
  189.5510  176.2820  137.3660 C   0  0  0  0  0  0  0  0  0  0  0  0
  186.1910  178.2880  137.2690 C   0  0  1  0  0  3  0  0  0  0  0  0
  184.9610  179.5970  140.0690 O   0  0  0  0  0  0  0  0  0  0  0  0
  188.3570  177.7930  135.8960 C   0  0  2  0  0  3  0  0  0  0  0  0
  186.0850  177.9460  138.7550 C   0  0  2  0  0  3  0  0  0  0  0  0
  187.6950  178.5100  137.0830 C   0  0  2  0  0  3  0  0  0  0  0  0
  184.7750  178.3620  139.4290 C   0  0  2  0  0  3  0  0  0  0  0  0
  187.4320  177.8690  134.6930 C   0  0  0  0  0  2  0  0  0  0  0  0
  188.3320  178.2620  138.4480 C   0  0  2  0  0  3  0  0  0  0  0  0
  190.8730  177.0150  137.1670 C   0  0  0  0  0  1  0  0  0  0  0  0
  184.0750  177.2230  136.3640 C   0  0  0  0  0  2  0  0  0  0  0  0
  186.0870  177.1750  134.9430 C   0  0  0  0  0  2  0  0  0  0  0  0
  188.8130  176.7990  138.5930 C   0  0  0  0  0  2  0  0  0  0  0  0
  185.3240  178.0940  141.9080 O   0  0  0  0  0  0  0  0  0  0  0  0
  185.1910  179.4300  141.4630 C   0  0  1  0  0  3  0  0  0  0  0  0
  185.6010  177.1570  136.4030 C   0  0  1  0  0  3  0  0  0  0  0  0
  187.2460  178.5730  139.3940 N   0  0  2  0  0  0  0  0  0  0  0  0
  188.6910  176.3950  136.1860 N   0  0  0  0  0  2  0  0  0  0  0  0
  183.5420  178.3740  138.5190 C   0  0  1  0  0  3  0  0  0  0  0  0
  189.8610  174.8180  137.5930 C   0  0  0  0  0  1  0  0  0  0  0  0
  186.5290  178.8210  141.8040 C   0  0  2  0  0  3  0  0  0  0  0  0
  187.4240  178.0850  140.7770 C   0  0  2  0  0  3  0  0  0  0  0  0
  183.4230  177.0720  137.7320 C   0  0  0  0  0  2  0  0  0  0  0  0
  181.7710  177.5830  140.0930 C   0  0  0  0  0  3  0  0  0  0  0  0
  182.2940  178.6180  139.3100 C   0  0  0  0  0  0  0  0  0  0  0  0
  181.6390  179.8590  139.2740 C   0  0  0  0  0  3  0  0  0  0  0  0
  179.8260  181.2860  139.9760 O   0  0  0  0  0  1  0  0  0  0  0  0
  179.9530  179.0220  140.7960 C   0  0  0  0  0  3  0  0  0  0  0  0
  180.4710  180.0590  140.0160 C   0  0  0  0  0  0  0  0  0  0  0  0
  180.6020  177.7840  140.8360 C   0  0  0  0  0  3  0  0  0  0  0  0
  188.8690  178.2580  141.2570 C   0  0  0  0  0  2  0  0  0  0  0  0
  189.3250  177.0650  141.9610 N   0  0  0  0  0  0  0  0  0  0  0  0
  191.4810  177.1770  141.0520 O   0  0  0  0  0  0  0  0  0  0  0  0
  190.6740  176.6090  141.8350 C   0  0  0  0  0  3  0  0  0  0  0  0
  188.4300  176.4120  142.9080 C   0  0  0  0  0  2  0  0  0  0  0  0
  188.6480  176.9480  144.3140 C   0  0  0  0  0  2  0  0  0  0  0  0
  187.4280  177.3160  144.8810 O   0  0  0  0  0  1  0  0  0  0  0  0
  1 20  1  0  0  0  0
  1 13  1  0  0  0  0
  2  5  1  0  0  0  0
  3 15  1  0  0  0  0
  4 18  1  0  0  0  0
  4  6  1  0  0  0  0
  5 17  1  0  0  0  0
  5  7  1  0  0  0  0
  6  2  1  0  0  0  0
  6  9  1  0  0  0  0
  7  3  1  0  0  0  0
  8 12  1  0  0  0  0
  8  4  1  0  0  0  0
  9 13  1  0  0  0  0
  9 17  1  0  0  0  0
 10  1  1  0  0  0  0
 11 16  1  0  0  0  0
 11 23  1  0  0  0  0
 12 16  1  0  0  0  0
 15 21  1  0  0  0  0
 15 14  1  0  0  0  0
 16  2  1  0  0  0  0
 17 22  1  0  0  0  0
 18  1  1  0  0  0  0
 19 25  1  0  0  0  0
 19  7  1  0  0  0  0
 21 14  1  0  0  0  0
 22 31  1  0  0  0  0
 22 21  1  0  0  0  0
 23 19  1  0  0  0  0
 24 30  1  0  0  0  0
 25 24  2  0  0  0  0
 26 25  1  0  0  0  0
 26 29  2  0  0  0  0
 27 29  1  0  0  0  0
 28 30  2  0  0  0  0
 29 28  1  0  0  0  0
 31 32  1  0  0  0  0
 32 35  1  0  0  0  0
 33 34  2  0  0  0  0
 34 32  1  0  0  0  0
 35 36  1  0  0  0  0
 36 37  1  0  0  0  0
M  END
>  <MODEL>
3

>  <REMARK>
 VINA RESULT:      -9.0      2.281      5.933
  Name = 
  5 active torsions:
  status: ('A' for Active; 'I' for Inactive)
    1  A    between atoms: C_1  and  N_4
    2  A    between atoms: C_1  and  C_27
    3  A    between atoms: N_4  and  C_12
    4  A    between atoms: C_8  and  C_12
    5  A    between atoms: C_23  and  C_30
                            x       y       z     vdW  Elec       q    Type
                         _______ _______ _______ _____ _____    ______ ____

>  <TORSDO>
F 5

$$$$
=
 OpenBabel11122411413D

 37 43  0  0  1  0  0  0  0  0999 V2000
  182.4450  177.4240  139.5430 C   0  0  0  0  0  0  0  0  0  0  0  0
  185.2450  178.8850  141.8570 C   0  0  1  0  0  3  0  0  0  0  0  0
  188.3780  179.0690  140.7550 O   0  0  0  0  0  0  0  0  0  0  0  0
  182.7230  179.1440  141.2270 C   0  0  2  0  0  3  0  0  0  0  0  0
  186.2130  178.0820  140.9880 C   0  0  2  0  0  3  0  0  0  0  0  0
  184.1960  179.3560  140.8450 C   0  0  2  0  0  3  0  0  0  0  0  0
  187.6690  178.0840  141.4590 C   0  0  2  0  0  3  0  0  0  0  0  0
  182.5430  179.4690  142.7010 C   0  0  0  0  0  2  0  0  0  0  0  0
  184.6220  178.7800  139.4960 C   0  0  2  0  0  3  0  0  0  0  0  0
  181.6730  178.3550  138.6140 C   0  0  0  0  0  1  0  0  0  0  0  0
  185.6850  177.8820  144.1440 C   0  0  0  0  0  2  0  0  0  0  0  0
  183.3770  178.5550  143.6080 C   0  0  0  0  0  2  0  0  0  0  0  0
  183.9310  177.4250  139.2140 C   0  0  0  0  0  2  0  0  0  0  0  0
  188.9020  177.1280  139.4380 O   0  0  0  0  0  0  0  0  0  0  0  0
  189.1170  178.5050  139.6780 C   0  0  1  0  0  3  0  0  0  0  0  0
  184.6820  178.0140  142.9990 C   0  0  1  0  0  3  0  0  0  0  0  0
  186.0810  178.6280  139.6340 N   0  0  2  0  0  0  0  0  0  0  0  0
  182.2500  177.7840  140.9490 N   0  0  0  0  0  2  0  0  0  0  0  0
  187.8690  178.2140  142.9740 C   0  0  1  0  0  3  0  0  0  0  0  0
  181.9230  176.0190  139.3330 C   0  0  0  0  0  1  0  0  0  0  0  0
  188.2690  178.0070  138.5340 C   0  0  2  0  0  3  0  0  0  0  0  0
  186.7440  177.7590  138.6400 C   0  0  2  0  0  3  0  0  0  0  0  0
  186.9950  177.2220  143.7350 C   0  0  0  0  0  2  0  0  0  0  0  0
  190.0920  179.1500  143.6250 C   0  0  0  0  0  3  0  0  0  0  0  0
  189.3090  178.0260  143.3410 C   0  0  0  0  0  0  0  0  0  0  0  0
  189.8860  176.7470  143.3970 C   0  0  0  0  0  3  0  0  0  0  0  0
  191.8010  175.3340  143.7880 O   0  0  0  0  0  1  0  0  0  0  0  0
  192.0120  177.7250  144.0170 C   0  0  0  0  0  3  0  0  0  0  0  0
  191.2350  176.5990  143.7350 C   0  0  0  0  0  0  0  0  0  0  0  0
  191.4410  179.0010  143.9640 C   0  0  0  0  0  3  0  0  0  0  0  0
  186.1720  177.9670  137.2340 C   0  0  0  0  0  2  0  0  0  0  0  0
  186.3460  176.7670  136.4240 N   0  0  0  0  0  0  0  0  0  0  0  0
  187.8990  177.7840  134.9950 O   0  0  0  0  0  0  0  0  0  0  0  0
  187.2710  176.7460  135.3330 C   0  0  0  0  0  3  0  0  0  0  0  0
  185.6680  175.5390  136.8160 C   0  0  0  0  0  2  0  0  0  0  0  0
  186.6720  174.4250  137.0650 C   0  0  0  0  0  2  0  0  0  0  0  0
  186.0350  173.3250  137.6400 O   0  0  0  0  0  1  0  0  0  0  0  0
  1 18  1  0  0  0  0
  2 16  1  0  0  0  0
  3  7  1  0  0  0  0
  4  8  1  0  0  0  0
  5  7  1  0  0  0  0
  5  2  1  0  0  0  0
  6  4  1  0  0  0  0
  6  2  1  0  0  0  0
  7 19  1  0  0  0  0
  8 12  1  0  0  0  0
  9 17  1  0  0  0  0
  9  6  1  0  0  0  0
 10  1  1  0  0  0  0
 13  9  1  0  0  0  0
 13  1  1  0  0  0  0
 14 15  1  0  0  0  0
 15  3  1  0  0  0  0
 16 12  1  0  0  0  0
 16 11  1  0  0  0  0
 17  5  1  0  0  0  0
 18  4  1  0  0  0  0
 19 25  1  0  0  0  0
 19 23  1  0  0  0  0
 20  1  1  0  0  0  0
 21 22  1  0  0  0  0
 21 14  1  0  0  0  0
 21 15  1  0  0  0  0
 22 17  1  0  0  0  0
 23 11  1  0  0  0  0
 24 30  1  0  0  0  0
 25 26  1  0  0  0  0
 25 24  2  0  0  0  0
 26 29  2  0  0  0  0
 29 27  1  0  0  0  0
 29 28  1  0  0  0  0
 30 28  2  0  0  0  0
 31 22  1  0  0  0  0
 32 35  1  0  0  0  0
 32 31  1  0  0  0  0
 33 34  2  0  0  0  0
 34 32  1  0  0  0  0
 35 36  1  0  0  0  0
 36 37  1  0  0  0  0
M  END
>  <MODEL>
4

>  <REMARK>
 VINA RESULT:      -8.7      2.484      6.537
  Name = 
  5 active torsions:
  status: ('A' for Active; 'I' for Inactive)
    1  A    between atoms: C_1  and  N_4
    2  A    between atoms: C_1  and  C_27
    3  A    between atoms: N_4  and  C_12
    4  A    between atoms: C_8  and  C_12
    5  A    between atoms: C_23  and  C_30
                            x       y       z     vdW  Elec       q    Type
                         _______ _______ _______ _____ _____    ______ ____

>  <TORSDO>
F 5

$$$$
=
 OpenBabel11122411413D

 37 43  0  0  1  0  0  0  0  0999 V2000
  186.3020  177.0310  137.5480 C   0  0  0  0  0  0  0  0  0  0  0  0
  186.8450  178.5550  141.1130 C   0  0  1  0  0  3  0  0  0  0  0  0
  189.8580  178.4480  142.5200 O   0  0  0  0  0  0  0  0  0  0  0  0
  185.5210  178.8930  138.8860 C   0  0  2  0  0  3  0  0  0  0  0  0
  188.0480  177.6150  141.1980 C   0  0  2  0  0  3  0  0  0  0  0  0
  186.8570  178.9810  139.6410 C   0  0  2  0  0  3  0  0  0  0  0  0
  188.7550  177.5810  142.5550 C   0  0  2  0  0  3  0  0  0  0  0  0
  184.4050  179.3740  139.7990 C   0  0  0  0  0  2  0  0  0  0  0  0
  188.0320  178.2490  138.9980 C   0  0  2  0  0  3  0  0  0  0  0  0
  186.5030  177.9060  136.3150 C   0  0  0  0  0  1  0  0  0  0  0  0
  185.4580  177.7650  143.0820 C   0  0  0  0  0  2  0  0  0  0  0  0
  184.2650  178.5110  141.0590 C   0  0  0  0  0  2  0  0  0  0  0  0
  187.5870  176.9140  138.3560 C   0  0  0  0  0  2  0  0  0  0  0  0
  190.9290  176.3580  142.0120 O   0  0  0  0  0  0  0  0  0  0  0  0
  191.0690  177.7370  142.2900 C   0  0  1  0  0  3  0  0  0  0  0  0
  185.5560  177.8380  141.5580 C   0  0  1  0  0  3  0  0  0  0  0  0
  188.9560  178.0280  140.1240 N   0  0  2  0  0  0  0  0  0  0  0  0
  185.2270  177.5420  138.4000 N   0  0  0  0  0  2  0  0  0  0  0  0
  187.8600  177.8520  143.7700 C   0  0  1  0  0  3  0  0  0  0  0  0
  185.9210  175.6440  137.0770 C   0  0  0  0  0  1  0  0  0  0  0  0
  191.2060  177.1760  140.8960 C   0  0  2  0  0  3  0  0  0  0  0  0
  190.0210  177.0270  139.9100 C   0  0  2  0  0  3  0  0  0  0  0  0
  186.5990  176.9930  143.7310 C   0  0  0  0  0  2  0  0  0  0  0  0
  187.9350  177.7710  146.2660 C   0  0  0  0  0  3  0  0  0  0  0  0
  188.6060  177.6200  145.0480 C   0  0  0  0  0  0  0  0  0  0  0  0
  189.9640  177.2630  145.0440 C   0  0  0  0  0  3  0  0  0  0  0  0
  191.9820  176.7090  146.2430 O   0  0  0  0  0  1  0  0  0  0  0  0
  189.9640  177.2130  147.4640 C   0  0  0  0  0  3  0  0  0  0  0  0
  190.6400  177.0600  146.2510 C   0  0  0  0  0  0  0  0  0  0  0  0
  188.6120  177.5670  147.4730 C   0  0  0  0  0  3  0  0  0  0  0  0
  190.6140  177.1240  138.5010 C   0  0  0  0  0  2  0  0  0  0  0  0
  191.5930  176.0660  138.2790 N   0  0  0  0  0  0  0  0  0  0  0  0
  189.9640  174.4840  137.7010 O   0  0  0  0  0  0  0  0  0  0  0  0
  191.1840  174.7690  137.8350 C   0  0  0  0  0  3  0  0  0  0  0  0
  193.0120  176.3760  138.3820 C   0  0  0  0  0  2  0  0  0  0  0  0
  193.8560  175.1970  137.9270 C   0  0  0  0  0  2  0  0  0  0  0  0
  195.1770  175.3610  138.3470 O   0  0  0  0  0  1  0  0  0  0  0  0
  1 13  1  0  0  0  0
  1 18  1  0  0  0  0
  2  5  1  0  0  0  0
  2 16  1  0  0  0  0
  3  7  1  0  0  0  0
  4  6  1  0  0  0  0
  4  8  1  0  0  0  0
  5  7  1  0  0  0  0
  6  2  1  0  0  0  0
  7 19  1  0  0  0  0
  8 12  1  0  0  0  0
  9  6  1  0  0  0  0
  9 17  1  0  0  0  0
 10  1  1  0  0  0  0
 11 23  1  0  0  0  0
 12 16  1  0  0  0  0
 13  9  1  0  0  0  0
 14 15  1  0  0  0  0
 15  3  1  0  0  0  0
 16 11  1  0  0  0  0
 17  5  1  0  0  0  0
 18  4  1  0  0  0  0
 19 25  1  0  0  0  0
 20  1  1  0  0  0  0
 21 14  1  0  0  0  0
 21 15  1  0  0  0  0
 22 17  1  0  0  0  0
 22 21  1  0  0  0  0
 23 19  1  0  0  0  0
 24 30  1  0  0  0  0
 25 24  2  0  0  0  0
 26 25  1  0  0  0  0
 26 29  2  0  0  0  0
 27 29  1  0  0  0  0
 28 30  2  0  0  0  0
 29 28  1  0  0  0  0
 31 22  1  0  0  0  0
 32 35  1  0  0  0  0
 32 31  1  0  0  0  0
 33 34  2  0  0  0  0
 34 32  1  0  0  0  0
 36 37  1  0  0  0  0
 36 35  1  0  0  0  0
M  END
>  <MODEL>
5

>  <REMARK>
 VINA RESULT:      -8.7      3.002      6.539
  Name = 
  5 active torsions:
  status: ('A' for Active; 'I' for Inactive)
    1  A    between atoms: C_1  and  N_4
    2  A    between atoms: C_1  and  C_27
    3  A    between atoms: N_4  and  C_12
    4  A    between atoms: C_8  and  C_12
    5  A    between atoms: C_23  and  C_30
                            x       y       z     vdW  Elec       q    Type
                         _______ _______ _______ _____ _____    ______ ____

>  <TORSDO>
F 5

$$$$
=
 OpenBabel11122411413D

 37 43  0  0  1  0  0  0  0  0999 V2000
  185.8080  179.0770  146.1870 C   0  0  0  0  0  0  0  0  0  0  0  0
  186.9190  177.5040  142.7780 C   0  0  1  0  0  3  0  0  0  0  0  0
  189.7950  175.8430  142.5790 O   0  0  0  0  0  0  0  0  0  0  0  0
  184.8210  178.0040  144.2520 C   0  0  2  0  0  3  0  0  0  0  0  0
  188.3370  177.5750  143.3470 C   0  0  2  0  0  3  0  0  0  0  0  0
  186.0800  177.1570  144.0120 C   0  0  2  0  0  3  0  0  0  0  0  0
  189.4510  177.1880  142.3720 C   0  0  2  0  0  3  0  0  0  0  0  0
  184.1310  178.2530  142.9200 C   0  0  0  0  0  2  0  0  0  0  0  0
  187.0590  177.0770  145.1810 C   0  0  2  0  0  3  0  0  0  0  0  0
  184.9730  178.2530  147.1610 C   0  0  0  0  0  1  0  0  0  0  0  0
  187.1460  178.9430  140.7030 C   0  0  0  0  0  2  0  0  0  0  0  0
  185.0160  179.0320  141.9390 C   0  0  0  0  0  2  0  0  0  0  0  0
  187.1600  178.4260  145.9300 C   0  0  0  0  0  2  0  0  0  0  0  0
  191.4670  176.9310  143.9180 O   0  0  0  0  0  0  0  0  0  0  0  0
  190.9640  175.7240  143.3810 C   0  0  1  0  0  3  0  0  0  0  0  0
  186.5330  178.8330  142.0990 C   0  0  1  0  0  3  0  0  0  0  0  0
  188.3340  176.7180  144.5360 N   0  0  2  0  0  0  0  0  0  0  0  0
  185.1070  179.2790  144.9170 N   0  0  0  0  0  2  0  0  0  0  0  0
  189.1640  177.4800  140.8950 C   0  0  1  0  0  3  0  0  0  0  0  0
  186.0560  180.4310  146.8160 C   0  0  0  0  0  1  0  0  0  0  0  0
  190.7690  176.1090  144.8260 C   0  0  2  0  0  3  0  0  0  0  0  0
  189.5550  176.9190  145.3430 C   0  0  2  0  0  3  0  0  0  0  0  0
  188.6680  178.9090  140.7000 C   0  0  0  0  0  2  0  0  0  0  0  0
  190.2190  176.7120  138.7640 C   0  0  0  0  0  3  0  0  0  0  0  0
  190.3780  177.2320  140.0540 C   0  0  0  0  0  0  0  0  0  0  0  0
  191.6670  177.5020  140.5380 C   0  0  0  0  0  3  0  0  0  0  0  0
  194.0580  177.5230  140.2190 O   0  0  0  0  0  1  0  0  0  0  0  0
  192.6210  176.7360  138.4490 C   0  0  0  0  0  3  0  0  0  0  0  0
  192.7860  177.2540  139.7360 C   0  0  0  0  0  0  0  0  0  0  0  0
  191.3380  176.4650  137.9630 C   0  0  0  0  0  3  0  0  0  0  0  0
  189.3440  176.5030  146.8030 C   0  0  0  0  0  2  0  0  0  0  0  0
  190.1640  177.3150  147.6940 N   0  0  0  0  0  0  0  0  0  0  0  0
  188.3120  178.2500  148.7810 O   0  0  0  0  0  0  0  0  0  0  0  0
  189.5640  178.1410  148.6950 C   0  0  0  0  0  3  0  0  0  0  0  0
  191.6140  177.1770  147.6490 C   0  0  0  0  0  2  0  0  0  0  0  0
  192.0220  175.7200  147.7950 C   0  0  0  0  0  2  0  0  0  0  0  0
  193.3930  175.6280  148.0380 O   0  0  0  0  0  1  0  0  0  0  0  0
  1 20  1  0  0  0  0
  1 10  1  0  0  0  0
  2  5  1  0  0  0  0
  2  6  1  0  0  0  0
  3 15  1  0  0  0  0
  4 18  1  0  0  0  0
  5 17  1  0  0  0  0
  6  4  1  0  0  0  0
  6  9  1  0  0  0  0
  7  3  1  0  0  0  0
  7  5  1  0  0  0  0
  8  4  1  0  0  0  0
  9 13  1  0  0  0  0
 11 16  1  0  0  0  0
 12 16  1  0  0  0  0
 12  8  1  0  0  0  0
 13  1  1  0  0  0  0
 14 21  1  0  0  0  0
 15 14  1  0  0  0  0
 15 21  1  0  0  0  0
 16  2  1  0  0  0  0
 17  9  1  0  0  0  0
 17 22  1  0  0  0  0
 18  1  1  0  0  0  0
 19  7  1  0  0  0  0
 21 22  1  0  0  0  0
 22 31  1  0  0  0  0
 23 11  1  0  0  0  0
 23 19  1  0  0  0  0
 24 25  1  0  0  0  0
 25 26  2  0  0  0  0
 25 19  1  0  0  0  0
 28 29  2  0  0  0  0
 29 27  1  0  0  0  0
 29 26  1  0  0  0  0
 30 28  1  0  0  0  0
 30 24  2  0  0  0  0
 31 32  1  0  0  0  0
 32 34  1  0  0  0  0
 34 33  2  0  0  0  0
 35 32  1  0  0  0  0
 35 36  1  0  0  0  0
 36 37  1  0  0  0  0
M  END
>  <MODEL>
6

>  <REMARK>
 VINA RESULT:      -8.3      3.306      7.790
  Name = 
  5 active torsions:
  status: ('A' for Active; 'I' for Inactive)
    1  A    between atoms: C_1  and  N_4
    2  A    between atoms: C_1  and  C_27
    3  A    between atoms: N_4  and  C_12
    4  A    between atoms: C_8  and  C_12
    5  A    between atoms: C_23  and  C_30
                            x       y       z     vdW  Elec       q    Type
                         _______ _______ _______ _____ _____    ______ ____

>  <TORSDO>
F 5

$$$$
=
 OpenBabel11122411413D

 37 43  0  0  1  0  0  0  0  0999 V2000
  190.0440  176.9620  141.7890 C   0  0  0  0  0  0  0  0  0  0  0  0
  188.1790  177.5610  138.4000 C   0  0  1  0  0  3  0  0  0  0  0  0
  185.1250  178.8800  138.3990 O   0  0  0  0  0  0  0  0  0  0  0  0
  190.5440  177.6100  139.5090 C   0  0  2  0  0  3  0  0  0  0  0  0
  186.9000  177.5140  139.2350 C   0  0  2  0  0  3  0  0  0  0  0  0
  189.1650  178.2670  139.3360 C   0  0  2  0  0  3  0  0  0  0  0  0
  185.5960  177.5590  138.4350 C   0  0  2  0  0  3  0  0  0  0  0  0
  191.0230  177.1030  138.1580 C   0  0  0  0  0  2  0  0  0  0  0  0
  188.3970  178.5470  140.6260 C   0  0  2  0  0  3  0  0  0  0  0  0
  190.9210  178.0650  142.3730 C   0  0  0  0  0  1  0  0  0  0  0  0
  187.7870  175.6470  136.7840 C   0  0  0  0  0  2  0  0  0  0  0  0
  190.0890  176.0370  137.5690 C   0  0  0  0  0  2  0  0  0  0  0  0
  188.5970  177.4170  141.6630 C   0  0  0  0  0  2  0  0  0  0  0  0
  183.8560  178.0160  140.2470 O   0  0  0  0  0  0  0  0  0  0  0  0
  184.1040  179.0940  139.3660 C   0  0  1  0  0  3  0  0  0  0  0  0
  188.6090  176.1430  137.9730 C   0  0  1  0  0  3  0  0  0  0  0  0
  186.9960  178.6320  140.1780 N   0  0  2  0  0  0  0  0  0  0  0  0
  190.5380  176.5160  140.4850 N   0  0  0  0  0  2  0  0  0  0  0  0
  185.6620  176.9410  137.0340 C   0  0  1  0  0  3  0  0  0  0  0  0
  190.0800  175.7870  142.7410 C   0  0  0  0  0  1  0  0  0  0  0  0
  184.5890  179.0900  140.7940 C   0  0  2  0  0  3  0  0  0  0  0  0
  185.9660  178.5330  141.2330 C   0  0  2  0  0  3  0  0  0  0  0  0
  186.2940  175.5530  137.0700 C   0  0  0  0  0  2  0  0  0  0  0  0
  184.0770  177.5230  135.1920 C   0  0  0  0  0  3  0  0  0  0  0  0
  184.3010  176.8750  136.4120 C   0  0  0  0  0  0  0  0  0  0  0  0
  183.2480  176.1860  137.0340 C   0  0  0  0  0  3  0  0  0  0  0  0
  180.9470  175.4650  137.0560 O   0  0  0  0  0  1  0  0  0  0  0  0
  181.7670  176.7950  135.2190 C   0  0  0  0  0  3  0  0  0  0  0  0
  181.9840  176.1470  136.4370 C   0  0  0  0  0  0  0  0  0  0  0  0
  182.8130  177.4830  134.5960 C   0  0  0  0  0  3  0  0  0  0  0  0
  186.3680  179.3080  142.4920 C   0  0  0  0  0  2  0  0  0  0  0  0
  185.9390  178.5990  143.6920 N   0  0  0  0  0  0  0  0  0  0  0  0
  184.0360  179.9350  143.9760 O   0  0  0  0  0  0  0  0  0  0  0  0
  184.7250  178.9530  144.3590 C   0  0  0  0  0  3  0  0  0  0  0  0
  186.6900  177.4320  144.1350 C   0  0  0  0  0  2  0  0  0  0  0  0
  187.3700  177.7030  145.4680 C   0  0  0  0  0  2  0  0  0  0  0  0
  188.7210  177.9880  145.2680 O   0  0  0  0  0  1  0  0  0  0  0  0
  1 10  1  0  0  0  0
  1 20  1  0  0  0  0
  2  5  1  0  0  0  0
  2  6  1  0  0  0  0
  3  7  1  0  0  0  0
  3 15  1  0  0  0  0
  4 18  1  0  0  0  0
  5 17  1  0  0  0  0
  6  4  1  0  0  0  0
  6  9  1  0  0  0  0
  7  5  1  0  0  0  0
  8  4  1  0  0  0  0
  9 13  1  0  0  0  0
 11 23  1  0  0  0  0
 11 16  1  0  0  0  0
 12 16  1  0  0  0  0
 12  8  1  0  0  0  0
 13  1  1  0  0  0  0
 14 21  1  0  0  0  0
 15 14  1  0  0  0  0
 15 21  1  0  0  0  0
 16  2  1  0  0  0  0
 17  9  1  0  0  0  0
 17 22  1  0  0  0  0
 18  1  1  0  0  0  0
 19 23  1  0  0  0  0
 19  7  1  0  0  0  0
 21 22  1  0  0  0  0
 22 31  1  0  0  0  0
 24 25  1  0  0  0  0
 25 26  2  0  0  0  0
 25 19  1  0  0  0  0
 28 29  2  0  0  0  0
 29 26  1  0  0  0  0
 29 27  1  0  0  0  0
 30 24  2  0  0  0  0
 30 28  1  0  0  0  0
 31 32  1  0  0  0  0
 32 35  1  0  0  0  0
 32 34  1  0  0  0  0
 33 34  2  0  0  0  0
 35 36  1  0  0  0  0
 37 36  1  0  0  0  0
M  END
>  <MODEL>
7

>  <REMARK>
 VINA RESULT:      -8.0      2.835      6.085
  Name = 
  5 active torsions:
  status: ('A' for Active; 'I' for Inactive)
    1  A    between atoms: C_1  and  N_4
    2  A    between atoms: C_1  and  C_27
    3  A    between atoms: N_4  and  C_12
    4  A    between atoms: C_8  and  C_12
    5  A    between atoms: C_23  and  C_30
                            x       y       z     vdW  Elec       q    Type
                         _______ _______ _______ _____ _____    ______ ____

>  <TORSDO>
F 5

$$$$
=
 OpenBabel11122411413D

 37 43  0  0  1  0  0  0  0  0999 V2000
  190.4530  178.4280  143.7310 C   0  0  0  0  0  0  0  0  0  0  0  0
  186.7230  177.4860  143.0010 C   0  0  1  0  0  3  0  0  0  0  0  0
  185.6180  177.4080  139.8650 O   0  0  0  0  0  0  0  0  0  0  0  0
  188.7290  176.9570  144.5890 C   0  0  2  0  0  3  0  0  0  0  0  0
  186.9160  178.2460  141.6880 C   0  0  2  0  0  3  0  0  0  0  0  0
  188.0850  176.8140  143.2010 C   0  0  2  0  0  3  0  0  0  0  0  0
  185.6530  178.4150  140.8410 C   0  0  2  0  0  3  0  0  0  0  0  0
  187.6530  176.8060  145.6520 C   0  0  0  0  0  2  0  0  0  0  0  0
  188.9500  177.2480  142.0200 C   0  0  2  0  0  3  0  0  0  0  0  0
  191.5120  177.3320  143.7760 C   0  0  0  0  0  1  0  0  0  0  0  0
  184.8280  178.7970  144.0590 C   0  0  0  0  0  2  0  0  0  0  0  0
  186.5690  177.8870  145.5460 C   0  0  0  0  0  2  0  0  0  0  0  0
  189.7910  178.5000  142.3620 C   0  0  0  0  0  2  0  0  0  0  0  0
  186.5950  179.2030  138.6030 O   0  0  0  0  0  0  0  0  0  0  0  0
  186.0770  177.8880  138.6060 C   0  0  1  0  0  3  0  0  0  0  0  0
  186.3140  178.4460  144.1360 C   0  0  1  0  0  3  0  0  0  0  0  0
  187.9660  177.5280  140.9600 N   0  0  2  0  0  0  0  0  0  0  0  0
  189.4330  178.2320  144.7640 N   0  0  0  0  0  2  0  0  0  0  0  0
  184.3390  178.4900  141.6260 C   0  0  1  0  0  3  0  0  0  0  0  0
  191.1410  179.7520  143.9850 C   0  0  0  0  0  1  0  0  0  0  0  0
  187.5570  178.1730  138.5520 C   0  0  2  0  0  3  0  0  0  0  0  0
  188.4520  178.3150  139.8080 C   0  0  2  0  0  3  0  0  0  0  0  0
  184.4330  179.4990  142.7670 C   0  0  0  0  0  2  0  0  0  0  0  0
  183.4000  179.7340  139.6730 C   0  0  0  0  0  3  0  0  0  0  0  0
  183.1940  178.8330  140.7230 C   0  0  0  0  0  0  0  0  0  0  0  0
  181.9210  178.2740  140.9170 C   0  0  0  0  0  3  0  0  0  0  0  0
  179.6100  178.0620  140.2600 O   0  0  0  0  0  1  0  0  0  0  0  0
  181.0790  179.5170  139.0180 C   0  0  0  0  0  3  0  0  0  0  0  0
  180.8660  178.6160  140.0650 C   0  0  0  0  0  0  0  0  0  0  0  0
  182.3450  180.0750  138.8210 C   0  0  0  0  0  3  0  0  0  0  0  0
  189.8620  177.8900  139.3870 C   0  0  0  0  0  2  0  0  0  0  0  0
  189.8670  177.4100  138.0100 N   0  0  0  0  0  0  0  0  0  0  0  0
  190.5200  175.2430  138.6160 O   0  0  0  0  0  0  0  0  0  0  0  0
  190.1710  176.0460  137.7090 C   0  0  0  0  0  3  0  0  0  0  0  0
  189.4270  178.3010  136.9450 C   0  0  0  0  0  2  0  0  0  0  0  0
  189.3650  177.5630  135.6170 C   0  0  0  0  0  2  0  0  0  0  0  0
  188.0690  177.6090  135.1020 O   0  0  0  0  0  1  0  0  0  0  0  0
  1 10  1  0  0  0  0
  1 20  1  0  0  0  0
  1 18  1  0  0  0  0
  2  6  1  0  0  0  0
  2 16  1  0  0  0  0
  3  7  1  0  0  0  0
  4 18  1  0  0  0  0
  4  8  1  0  0  0  0
  5  2  1  0  0  0  0
  6  4  1  0  0  0  0
  7 19  1  0  0  0  0
  7  5  1  0  0  0  0
  9 13  1  0  0  0  0
  9  6  1  0  0  0  0
 11 16  1  0  0  0  0
 12  8  1  0  0  0  0
 13  1  1  0  0  0  0
 14 15  1  0  0  0  0
 15  3  1  0  0  0  0
 16 12  1  0  0  0  0
 17  5  1  0  0  0  0
 17  9  1  0  0  0  0
 19 23  1  0  0  0  0
 21 14  1  0  0  0  0
 21 15  1  0  0  0  0
 21 22  1  0  0  0  0
 22 17  1  0  0  0  0
 23 11  1  0  0  0  0
 24 25  1  0  0  0  0
 25 26  2  0  0  0  0
 25 19  1  0  0  0  0
 28 29  2  0  0  0  0
 29 27  1  0  0  0  0
 29 26  1  0  0  0  0
 30 28  1  0  0  0  0
 30 24  2  0  0  0  0
 31 22  1  0  0  0  0
 32 31  1  0  0  0  0
 34 32  1  0  0  0  0
 34 33  2  0  0  0  0
 35 32  1  0  0  0  0
 36 35  1  0  0  0  0
 37 36  1  0  0  0  0
M  END
>  <MODEL>
8

>  <REMARK>
 VINA RESULT:      -7.3      1.416      2.185
  Name = 
  5 active torsions:
  status: ('A' for Active; 'I' for Inactive)
    1  A    between atoms: C_1  and  N_4
    2  A    between atoms: C_1  and  C_27
    3  A    between atoms: N_4  and  C_12
    4  A    between atoms: C_8  and  C_12
    5  A    between atoms: C_23  and  C_30
                            x       y       z     vdW  Elec       q    Type
                         _______ _______ _______ _____ _____    ______ ____

>  <TORSDO>
F 5

$$$$
