=
 OpenBabel11122412223D

 34 41  0  0  1  0  0  0  0  0999 V2000
  186.7110  178.5980  141.1310 C   0  0  1  0  0  3  0  0  0  0  0  0
  186.5200  178.0890  143.6500 C   0  0  0  0  0  2  0  0  0  0  0  0
  188.4830  175.7560  135.7290 C   0  0  1  0  0  3  0  0  0  0  0  0
  186.9720  178.3700  138.5800 C   0  0  0  0  0  0  0  0  0  0  0  0
  188.9970  177.1820  137.5930 C   0  0  2  0  0  3  0  0  0  0  0  0
  189.4040  174.6790  137.1240 C   0  0  0  0  0  2  0  0  0  0  0  0
  189.2580  174.5890  135.7260 O   0  0  0  0  0  0  0  0  0  0  0  0
  185.9890  176.9740  135.7260 S   0  0  0  0  0  0  0  0  0  0  0  0
  188.3300  177.3270  142.5050 C   0  0  0  0  0  0  0  0  0  0  0  0
  191.1130  177.5390  143.9750 C   0  0  0  0  0  2  0  0  0  0  0  0
  189.4980  177.1590  138.9670 N   0  0  0  0  0  0  0  0  0  0  0  0
  187.2530  178.2980  135.9970 C   0  0  0  0  0  2  0  0  0  0  0  0
  189.1740  177.1680  141.4720 C   0  0  0  0  0  0  0  0  0  0  0  0
  187.4170  177.5400  144.6110 O   0  0  0  0  0  0  0  0  0  0  0  0
  187.9190  178.2820  137.4010 C   0  0  1  0  0  3  0  0  0  0  0  0
  187.0890  175.6100  135.1550 C   0  0  0  0  0  2  0  0  0  0  0  0
  189.7570  178.1240  144.3580 C   0  0  1  0  0  3  0  0  0  0  0  0
  187.4930  178.0900  139.9340 C   0  0  1  0  0  3  0  0  0  0  0  0
  188.4300  175.8250  137.2200 C   0  0  2  0  0  3  0  0  0  0  0  0
  188.6900  177.4920  140.1050 C   0  0  0  0  0  0  0  0  0  0  0  0
  184.7690  178.7560  139.6080 C   0  0  0  0  0  3  0  0  0  0  0  0
  191.3930  177.6730  142.4830 C   0  0  0  0  0  2  0  0  0  0  0  0
  185.6830  178.7170  138.4450 C   0  0  0  0  0  3  0  0  0  0  0  0
  190.5730  176.6720  141.6810 C   0  0  0  0  0  2  0  0  0  0  0  0
  188.6180  177.1810  143.9440 C   0  0  2  0  0  3  0  0  0  0  0  0
  185.2320  178.6450  140.8580 C   0  0  0  0  0  3  0  0  0  0  0  0
  187.0350  177.8180  142.3230 N   0  0  0  0  0  0  0  0  0  0  0  0
  189.7370  178.3370  145.7390 O   0  0  0  0  0  0  0  0  0  0  0  0
  190.3970  177.2310  146.2820 C   0  0  0  0  0  2  0  0  0  0  0  0
  188.2490  178.5450  148.4040 C   0  0  0  0  0  2  0  0  0  0  0  0
  188.6730  176.3490  147.6100 C   0  0  0  0  0  2  0  0  0  0  0  0
  189.9680  177.0240  147.6560 N   0  0  0  0  0  0  0  0  0  0  0  0
  187.6920  177.1510  148.4330 C   0  0  0  0  0  2  0  0  0  0  0  0
  189.7390  178.3480  148.2300 C   0  0  0  0  0  2  0  0  0  0  0  0
  1 26  1  6  0  0  0
  1 27  1  0  0  0  0
  2 14  1  0  0  0  0
  3 16  1  6  0  0  0
  3 19  1  0  0  0  0
  5 11  1  1  0  0  0
  7  3  1  0  0  0  0
  7  6  1  0  0  0  0
  8 12  1  0  0  0  0
 10 17  1  0  0  0  0
 11 20  2  0  0  0  0
 13 24  1  0  0  0  0
 13  9  2  0  0  0  0
 15 12  1  6  0  0  0
 15  5  1  0  0  0  0
 15  4  1  0  0  0  0
 16  8  1  0  0  0  0
 17 28  1  1  0  0  0
 18  4  1  6  0  0  0
 18 20  1  0  0  0  0
 18  1  1  0  0  0  0
 19  6  1  1  0  0  0
 19  5  1  0  0  0  0
 20 13  1  0  0  0  0
 21 26  2  0  0  0  0
 22 10  1  0  0  0  0
 23  4  2  0  0  0  0
 23 21  1  0  0  0  0
 24 22  1  0  0  0  0
 25  9  1  6  0  0  0
 25 17  1  0  0  0  0
 25 14  1  0  0  0  0
 27  9  1  0  0  0  0
 27  2  1  0  0  0  0
 28 29  1  0  0  0  0
 29 32  1  0  0  0  0
 30 33  1  0  0  0  0
 31 32  1  0  0  0  0
 31 33  1  0  0  0  0
 32 34  1  0  0  0  0
 34 30  1  0  0  0  0
M  END
>  <MODEL>
1

>  <REMARK>
 VINA RESULT:      -8.6      0.000      0.000
  Name = 
  3 active torsions:
  status: ('A' for Active; 'I' for Inactive)
    1  A    between atoms: C_17  and  O_28
    2  A    between atoms: O_28  and  C_29
    3  A    between atoms: C_29  and  N_32
                            x       y       z     vdW  Elec       q    Type
                         _______ _______ _______ _____ _____    ______ ____

>  <TORSDO>
F 3

$$$$
=
 OpenBabel11122412223D

 34 41  0  0  1  0  0  0  0  0999 V2000
  185.9800  177.4740  138.2580 C   0  0  1  0  0  3  0  0  0  0  0  0
  188.2690  178.0720  139.2790 C   0  0  0  0  0  2  0  0  0  0  0  0
  180.1780  179.9760  137.5600 C   0  0  1  0  0  3  0  0  0  0  0  0
  183.5790  177.6020  137.3370 C   0  0  0  0  0  0  0  0  0  0  0  0
  181.7000  178.5610  138.7660 C   0  0  2  0  0  3  0  0  0  0  0  0
  180.9250  180.9980  139.0940 C   0  0  0  0  0  2  0  0  0  0  0  0
  179.7430  181.0620  138.3300 O   0  0  0  0  0  0  0  0  0  0  0  0
  181.3920  179.0040  135.2610 S   0  0  0  0  0  0  0  0  0  0  0  0
  186.3770  178.6220  140.4140 C   0  0  0  0  0  0  0  0  0  0  0  0
  186.4360  178.1850  143.5370 C   0  0  0  0  0  2  0  0  0  0  0  0
  182.6930  178.5750  139.8410 N   0  0  0  0  0  2  0  0  0  0  0  0
  181.1510  177.5730  136.4090 C   0  0  0  0  0  2  0  0  0  0  0  0
  185.0660  178.6690  140.7000 C   0  0  0  0  0  0  0  0  0  0  0  0
  188.6770  178.5580  140.5540 O   0  0  0  0  0  0  0  0  0  0  0  0
  182.0950  177.5650  137.6420 C   0  0  1  0  0  3  0  0  0  0  0  0
  180.2900  180.2390  136.0730 C   0  0  0  0  0  2  0  0  0  0  0  0
  187.4330  177.7440  142.4690 C   0  0  1  0  0  3  0  0  0  0  0  0
  184.5260  177.8690  138.4400 C   0  0  0  0  0  0  0  0  0  0  0  0
  181.5320  179.9550  138.1910 C   0  0  2  0  0  3  0  0  0  0  0  0
  184.0940  178.3540  139.6220 C   0  0  0  0  0  0  0  0  0  0  0  0
  185.5180  177.4600  135.8280 C   0  0  0  0  0  3  0  0  0  0  0  0
  184.9930  177.9820  143.0920 C   0  0  0  0  0  2  0  0  0  0  0  0
  184.0670  177.3780  136.1080 C   0  0  0  0  0  3  0  0  0  0  0  0
  184.5830  179.0340  142.0710 C   0  0  0  0  0  2  0  0  0  0  0  0
  187.5150  178.7800  141.3380 C   0  0  2  0  0  3  0  0  0  0  0  0
  186.4110  177.5620  136.8190 C   0  0  0  0  0  3  0  0  0  0  0  0
  186.8380  178.2530  139.1470 N   0  0  0  0  0  0  0  0  0  0  0  0
  188.6840  177.5750  143.0680 O   0  0  0  0  0  0  0  0  0  0  0  0
  188.4130  177.4580  144.4340 C   0  0  0  0  0  2  0  0  0  0  0  0
  190.1060  176.7530  147.1700 C   0  0  0  0  0  2  0  0  0  0  0  0
  190.6980  177.2210  144.9200 C   0  0  0  0  0  2  0  0  0  0  0  0
  189.5110  178.0220  145.2040 N   0  0  0  0  0  0  0  0  0  0  0  0
  191.2790  176.7530  146.2340 C   0  0  0  0  0  2  0  0  0  0  0  0
  189.1860  177.8180  146.6140 C   0  0  0  0  0  2  0  0  0  0  0  0
  1 26  1  6  0  0  0
  1 18  1  0  0  0  0
  1 27  1  0  0  0  0
  2 14  1  0  0  0  0
  3 16  1  6  0  0  0
  3 19  1  0  0  0  0
  3  7  1  0  0  0  0
  4 15  1  0  0  0  0
  4 18  1  0  0  0  0
  5 11  1  1  0  0  0
  7  6  1  0  0  0  0
  8 16  1  0  0  0  0
  8 12  1  0  0  0  0
  9 13  2  0  0  0  0
 13 24  1  0  0  0  0
 14 25  1  0  0  0  0
 15 12  1  6  0  0  0
 15  5  1  0  0  0  0
 17 28  1  1  0  0  0
 17 10  1  0  0  0  0
 18 20  2  0  0  0  0
 19  5  1  0  0  0  0
 19  6  1  1  0  0  0
 20 11  1  0  0  0  0
 20 13  1  0  0  0  0
 21 23  1  0  0  0  0
 21 26  2  0  0  0  0
 22 10  1  0  0  0  0
 23  4  2  0  0  0  0
 24 22  1  0  0  0  0
 25  9  1  6  0  0  0
 25 17  1  0  0  0  0
 27  2  1  0  0  0  0
 27  9  1  0  0  0  0
 28 29  1  0  0  0  0
 29 32  1  0  0  0  0
 31 32  1  0  0  0  0
 31 33  1  0  0  0  0
 32 34  1  0  0  0  0
 33 30  1  0  0  0  0
 34 30  1  0  0  0  0
M  END
>  <MODEL>
2

>  <REMARK>
 VINA RESULT:      -7.9      3.359      5.573
  Name = 
  3 active torsions:
  status: ('A' for Active; 'I' for Inactive)
    1  A    between atoms: C_17  and  O_28
    2  A    between atoms: O_28  and  C_29
    3  A    between atoms: C_29  and  N_32
                            x       y       z     vdW  Elec       q    Type
                         _______ _______ _______ _____ _____    ______ ____

>  <TORSDO>
F 3

$$$$
=
 OpenBabel11122412223D

 34 41  0  0  1  0  0  0  0  0999 V2000
  186.0050  177.1260  137.4580 C   0  0  1  0  0  3  0  0  0  0  0  0
  188.5010  177.5580  137.9290 C   0  0  0  0  0  2  0  0  0  0  0  0
  180.4190  180.1450  137.7480 C   0  0  1  0  0  3  0  0  0  0  0  0
  183.4830  177.4320  137.0420 C   0  0  0  0  0  0  0  0  0  0  0  0
  182.0390  178.6710  138.7360 C   0  0  2  0  0  3  0  0  0  0  0  0
  181.5590  181.1910  138.9980 C   0  0  0  0  0  2  0  0  0  0  0  0
  180.2510  181.3210  138.4920 O   0  0  0  0  0  0  0  0  0  0  0  0
  181.0300  178.9000  135.3440 S   0  0  0  0  0  0  0  0  0  0  0  0
  186.9480  178.3740  139.3760 C   0  0  0  0  0  0  0  0  0  0  0  0
  187.6330  178.1500  142.4460 C   0  0  0  0  0  2  0  0  0  0  0  0
  183.2350  178.6590  139.5780 N   0  0  0  0  0  2  0  0  0  0  0  0
  180.9200  177.5830  136.6390 C   0  0  0  0  0  2  0  0  0  0  0  0
  185.7360  178.5720  139.9200 C   0  0  0  0  0  0  0  0  0  0  0  0
  189.2110  178.0880  139.0450 O   0  0  0  0  0  0  0  0  0  0  0  0
  182.1000  177.5650  137.6480 C   0  0  1  0  0  3  0  0  0  0  0  0
  180.2340  180.2930  136.2520 C   0  0  0  0  0  2  0  0  0  0  0  0
  188.3390  177.5380  141.2390 C   0  0  1  0  0  3  0  0  0  0  0  0
  184.6620  177.6770  137.8990 C   0  0  0  0  0  0  0  0  0  0  0  0
  181.8700  180.0320  138.0870 C   0  0  2  0  0  3  0  0  0  0  0  0
  184.5330  178.2840  139.0970 C   0  0  0  0  0  0  0  0  0  0  0  0
  185.0370  176.9910  135.1860 C   0  0  0  0  0  3  0  0  0  0  0  0
  186.1160  178.0630  142.3270 C   0  0  0  0  0  2  0  0  0  0  0  0
  183.6780  177.0740  135.7640 C   0  0  0  0  0  3  0  0  0  0  0  0
  185.5880  179.0780  141.3230 C   0  0  0  0  0  2  0  0  0  0  0  0
  188.2650  178.4800  140.0290 C   0  0  2  0  0  3  0  0  0  0  0  0
  186.1260  177.0700  135.9590 C   0  0  0  0  0  3  0  0  0  0  0  0
  187.0950  177.8740  138.0790 N   0  0  0  0  0  0  0  0  0  0  0  0
  189.6700  177.2850  141.5810 O   0  0  0  0  0  0  0  0  0  0  0  0
  189.6010  176.3490  142.6170 C   0  0  0  0  0  2  0  0  0  0  0  0
  191.6280  178.5850  143.9370 C   0  0  0  0  0  2  0  0  0  0  0  0
  190.4840  176.6790  144.7680 C   0  0  0  0  0  2  0  0  0  0  0  0
  190.8360  176.3720  143.3850 N   0  0  0  0  0  0  0  0  0  0  0  0
  191.3070  177.8650  145.2140 C   0  0  0  0  0  2  0  0  0  0  0  0
  191.6240  177.4970  142.8850 C   0  0  0  0  0  2  0  0  0  0  0  0
  1 26  1  6  0  0  0
  1 18  1  0  0  0  0
  1 27  1  0  0  0  0
  2 27  1  0  0  0  0
  2 14  1  0  0  0  0
  3 16  1  6  0  0  0
  3 19  1  0  0  0  0
  3  7  1  0  0  0  0
  4 15  1  0  0  0  0
  4 18  1  0  0  0  0
  5 11  1  6  0  0  0
  7  6  1  0  0  0  0
  8 16  1  0  0  0  0
  8 12  1  0  0  0  0
  9 13  2  0  0  0  0
  9 25  1  0  0  0  0
 13 24  1  0  0  0  0
 15 12  1  6  0  0  0
 15  5  1  0  0  0  0
 17 28  1  1  0  0  0
 17 10  1  0  0  0  0
 18 20  2  0  0  0  0
 19  5  1  0  0  0  0
 19  6  1  1  0  0  0
 20 11  1  0  0  0  0
 20 13  1  0  0  0  0
 21 23  1  0  0  0  0
 21 26  2  0  0  0  0
 22 10  1  0  0  0  0
 23  4  2  0  0  0  0
 24 22  1  0  0  0  0
 25 14  1  6  0  0  0
 25 17  1  0  0  0  0
 27  9  1  0  0  0  0
 28 29  1  0  0  0  0
 29 32  1  0  0  0  0
 30 33  1  0  0  0  0
 31 33  1  0  0  0  0
 32 31  1  0  0  0  0
 34 32  1  0  0  0  0
 34 30  1  0  0  0  0
M  END
>  <MODEL>
3

>  <REMARK>
 VINA RESULT:      -7.6      3.438      5.840
  Name = 
  3 active torsions:
  status: ('A' for Active; 'I' for Inactive)
    1  A    between atoms: C_17  and  O_28
    2  A    between atoms: O_28  and  C_29
    3  A    between atoms: C_29  and  N_32
                            x       y       z     vdW  Elec       q    Type
                         _______ _______ _______ _____ _____    ______ ____

>  <TORSDO>
F 3

$$$$
=
 OpenBabel11122412223D

 34 41  0  0  1  0  0  0  0  0999 V2000
  184.4760  178.8280  144.0150 C   0  0  1  0  0  3  0  0  0  0  0  0
  186.1570  177.9550  145.7620 C   0  0  0  0  0  2  0  0  0  0  0  0
  181.9730  177.1370  138.4230 C   0  0  1  0  0  3  0  0  0  0  0  0
  182.8480  179.0020  142.0280 C   0  0  0  0  0  0  0  0  0  0  0  0
  183.6080  178.3680  139.6810 C   0  0  2  0  0  3  0  0  0  0  0  0
  183.6540  176.0760  138.5000 C   0  0  0  0  0  2  0  0  0  0  0  0
  182.5590  176.1500  137.6180 O   0  0  0  0  0  0  0  0  0  0  0  0
  180.1790  177.8450  140.4180 S   0  0  0  0  0  0  0  0  0  0  0  0
  186.6380  177.7160  143.5520 C   0  0  0  0  0  0  0  0  0  0  0  0
  189.6260  178.2540  142.6990 C   0  0  0  0  0  2  0  0  0  0  0  0
  184.9390  178.2550  140.2760 N   0  0  0  0  0  0  0  0  0  0  0  0
  181.2070  179.3360  140.0410 C   0  0  0  0  0  2  0  0  0  0  0  0
  186.4980  177.8630  142.2250 C   0  0  0  0  0  0  0  0  0  0  0  0
  187.4920  177.4630  145.6790 O   0  0  0  0  0  0  0  0  0  0  0  0
  182.6740  179.2570  140.5450 C   0  0  1  0  0  3  0  0  0  0  0  0
  180.5940  176.8060  138.9520 C   0  0  0  0  0  2  0  0  0  0  0  0
  188.9270  178.5120  144.0310 C   0  0  1  0  0  3  0  0  0  0  0  0
  184.1890  178.6470  142.5360 C   0  0  1  0  0  3  0  0  0  0  0  0
  182.9970  176.9910  139.5010 C   0  0  2  0  0  3  0  0  0  0  0  0
  185.1730  178.2700  141.6920 C   0  0  0  0  0  0  0  0  0  0  0  0
  182.0240  178.8180  144.3400 C   0  0  0  0  0  3  0  0  0  0  0  0
  188.7530  178.6400  141.5100 C   0  0  0  0  0  2  0  0  0  0  0  0
  181.8360  179.1120  142.9020 C   0  0  0  0  0  3  0  0  0  0  0  0
  187.6450  177.6190  141.2920 C   0  0  0  0  0  2  0  0  0  0  0  0
  187.8700  177.4340  144.3110 C   0  0  2  0  0  3  0  0  0  0  0  0
  183.2440  178.6280  144.8550 C   0  0  0  0  0  3  0  0  0  0  0  0
  185.5820  177.9700  144.4320 N   0  0  0  0  0  0  0  0  0  0  0  0
  189.8900  178.5280  145.0440 O   0  0  0  0  0  0  0  0  0  0  0  0
  190.7700  177.4920  144.7180 C   0  0  0  0  0  2  0  0  0  0  0  0
  190.7020  176.1350  147.7180 C   0  0  0  0  0  2  0  0  0  0  0  0
  192.0550  175.8450  145.7890 C   0  0  0  0  0  2  0  0  0  0  0  0
  191.6880  177.2580  145.8210 N   0  0  0  0  0  0  0  0  0  0  0  0
  191.7760  175.2520  147.1510 C   0  0  0  0  0  2  0  0  0  0  0  0
  190.9310  177.4740  147.0530 C   0  0  0  0  0  2  0  0  0  0  0  0
  1 27  1  0  0  0  0
  1 26  1  1  0  0  0
  3 16  1  1  0  0  0
  3 19  1  0  0  0  0
  4 18  1  0  0  0  0
  4 23  2  0  0  0  0
  5 11  1  1  0  0  0
  5 15  1  0  0  0  0
  7  3  1  0  0  0  0
  7  6  1  0  0  0  0
  9 27  1  0  0  0  0
 10 17  1  0  0  0  0
 11 20  2  0  0  0  0
 12  8  1  0  0  0  0
 13  9  2  0  0  0  0
 14  2  1  0  0  0  0
 15 12  1  6  0  0  0
 15  4  1  0  0  0  0
 16  8  1  0  0  0  0
 17 25  1  0  0  0  0
 17 28  1  1  0  0  0
 18 20  1  6  0  0  0
 18  1  1  0  0  0  0
 19  6  1  6  0  0  0
 19  5  1  0  0  0  0
 20 13  1  0  0  0  0
 21 26  2  0  0  0  0
 22 10  1  0  0  0  0
 23 21  1  0  0  0  0
 24 22  1  0  0  0  0
 24 13  1  0  0  0  0
 25  9  1  6  0  0  0
 25 14  1  0  0  0  0
 27  2  1  0  0  0  0
 29 28  1  0  0  0  0
 29 32  1  0  0  0  0
 31 32  1  0  0  0  0
 31 33  1  0  0  0  0
 32 34  1  0  0  0  0
 33 30  1  0  0  0  0
 34 30  1  0  0  0  0
M  END
>  <MODEL>
4

>  <REMARK>
 VINA RESULT:      -7.6      3.308      4.580
  Name = 
  3 active torsions:
  status: ('A' for Active; 'I' for Inactive)
    1  A    between atoms: C_17  and  O_28
    2  A    between atoms: O_28  and  C_29
    3  A    between atoms: C_29  and  N_32
                            x       y       z     vdW  Elec       q    Type
                         _______ _______ _______ _____ _____    ______ ____

>  <TORSDO>
F 3

$$$$
=
 OpenBabel11122412223D

 34 41  0  0  1  0  0  0  0  0999 V2000
  188.3300  177.7480  143.5780 C   0  0  1  0  0  3  0  0  0  0  0  0
  190.2590  176.1590  142.9490 C   0  0  0  0  0  2  0  0  0  0  0  0
  182.2740  178.8790  142.0150 C   0  0  1  0  0  3  0  0  0  0  0  0
  186.0090  178.8330  143.8290 C   0  0  0  0  0  0  0  0  0  0  0  0
  184.6110  179.3780  141.7710 C   0  0  2  0  0  3  0  0  0  0  0  0
  182.9730  177.9100  140.4250 C   0  0  0  0  0  2  0  0  0  0  0  0
  181.7110  178.3880  140.8300 O   0  0  0  0  0  0  0  0  0  0  0  0
  182.8160  178.5630  144.7190 S   0  0  0  0  0  0  0  0  0  0  0  0
  188.9310  176.9870  141.3000 C   0  0  0  0  0  0  0  0  0  0  0  0
  190.3780  177.8680  138.6410 C   0  0  0  0  0  2  0  0  0  0  0  0
  185.8050  179.0000  141.0130 N   0  0  0  0  0  0  0  0  0  0  0  0
  183.7380  180.0590  144.1390 C   0  0  0  0  0  2  0  0  0  0  0  0
  187.9760  177.7410  140.7320 C   0  0  0  0  0  0  0  0  0  0  0  0
  190.8420  175.7660  141.7100 O   0  0  0  0  0  0  0  0  0  0  0  0
  184.9640  179.7550  143.2350 C   0  0  1  0  0  3  0  0  0  0  0  0
  181.6690  178.3360  143.2930 C   0  0  0  0  0  2  0  0  0  0  0  0
  190.9690  177.4690  139.9900 C   0  0  1  0  0  3  0  0  0  0  0  0
  187.0580  178.2820  142.9460 C   0  0  1  0  0  3  0  0  0  0  0  0
  183.6010  178.2460  141.7530 C   0  0  2  0  0  3  0  0  0  0  0  0
  186.9380  178.3480  141.6040 C   0  0  0  0  0  0  0  0  0  0  0  0
  187.0400  177.5810  145.6810 C   0  0  0  0  0  3  0  0  0  0  0  0
  189.1560  178.7670  138.7940 C   0  0  0  0  0  2  0  0  0  0  0  0
  186.0330  178.5170  145.1330 C   0  0  0  0  0  3  0  0  0  0  0  0
  187.9440  177.9660  139.2500 C   0  0  0  0  0  2  0  0  0  0  0  0
  190.1140  176.3840  140.6610 C   0  0  2  0  0  3  0  0  0  0  0  0
  188.0810  177.1740  144.9460 C   0  0  0  0  0  3  0  0  0  0  0  0
  188.9850  176.7960  142.6840 N   0  0  0  0  0  0  0  0  0  0  0  0
  192.2730  177.0080  139.7870 O   0  0  0  0  0  0  0  0  0  0  0  0
  192.2480  176.4080  138.5250 C   0  0  0  0  0  2  0  0  0  0  0  0
  194.3130  174.2610  137.1200 C   0  0  0  0  0  2  0  0  0  0  0  0
  193.4370  176.3780  136.5000 C   0  0  0  0  0  2  0  0  0  0  0  0
  193.5850  176.4070  137.9530 N   0  0  0  0  0  0  0  0  0  0  0  0
  194.2440  175.2180  135.9660 C   0  0  0  0  0  2  0  0  0  0  0  0
  194.2110  175.1460  138.3430 C   0  0  0  0  0  2  0  0  0  0  0  0
  1 26  1  1  0  0  0
  3 16  1  1  0  0  0
  4 23  2  0  0  0  0
  5 11  1  6  0  0  0
  5 15  1  0  0  0  0
  6  7  1  0  0  0  0
  7  3  1  0  0  0  0
  9 27  1  0  0  0  0
 10 22  1  0  0  0  0
 10 17  1  0  0  0  0
 11 20  2  0  0  0  0
 12  8  1  0  0  0  0
 13  9  2  0  0  0  0
 13 20  1  0  0  0  0
 14  2  1  0  0  0  0
 15  4  1  0  0  0  0
 15 12  1  1  0  0  0
 16  8  1  0  0  0  0
 17 28  1  6  0  0  0
 17 25  1  0  0  0  0
 18 20  1  6  0  0  0
 18  1  1  0  0  0  0
 18  4  1  0  0  0  0
 19  6  1  6  0  0  0
 19  5  1  0  0  0  0
 19  3  1  0  0  0  0
 22 24  1  0  0  0  0
 23 21  1  0  0  0  0
 24 13  1  0  0  0  0
 25  9  1  1  0  0  0
 25 14  1  0  0  0  0
 26 21  2  0  0  0  0
 27  2  1  0  0  0  0
 27  1  1  0  0  0  0
 29 28  1  0  0  0  0
 30 34  1  0  0  0  0
 31 32  1  0  0  0  0
 32 34  1  0  0  0  0
 32 29  1  0  0  0  0
 33 31  1  0  0  0  0
 33 30  1  0  0  0  0
M  END
>  <MODEL>
5

>  <REMARK>
 VINA RESULT:      -7.6      3.482      7.426
  Name = 
  3 active torsions:
  status: ('A' for Active; 'I' for Inactive)
    1  A    between atoms: C_17  and  O_28
    2  A    between atoms: O_28  and  C_29
    3  A    between atoms: C_29  and  N_32
                            x       y       z     vdW  Elec       q    Type
                         _______ _______ _______ _____ _____    ______ ____

>  <TORSDO>
F 3

$$$$
=
 OpenBabel11122412223D

 34 41  0  0  1  0  0  0  0  0999 V2000
  191.3980  176.9820  140.9300 C   0  0  1  0  0  3  0  0  0  0  0  0
  191.8150  178.3680  143.0620 C   0  0  0  0  0  2  0  0  0  0  0  0
  188.1220  177.3110  135.4930 C   0  0  1  0  0  3  0  0  0  0  0  0
  190.7060  176.2420  138.5630 C   0  0  0  0  0  0  0  0  0  0  0  0
  188.3070  176.5530  137.7660 C   0  0  2  0  0  3  0  0  0  0  0  0
  187.1570  178.5870  136.6750 C   0  0  0  0  0  2  0  0  0  0  0  0
  187.0620  178.2120  135.3210 O   0  0  0  0  0  0  0  0  0  0  0  0
  190.8250  176.7250  135.2760 S   0  0  0  0  0  0  0  0  0  0  0  0
  189.7140  178.2810  142.1970 C   0  0  0  0  0  0  0  0  0  0  0  0
  187.3520  178.0140  144.2690 C   0  0  0  0  0  2  0  0  0  0  0  0
  188.0310  176.9500  139.1470 N   0  0  0  0  0  0  0  0  0  0  0  0
  190.0330  175.3450  136.2190 C   0  0  0  0  0  2  0  0  0  0  0  0
  188.7150  177.8850  141.3900 C   0  0  0  0  0  0  0  0  0  0  0  0
  190.9550  179.0150  143.9950 O   0  0  0  0  0  0  0  0  0  0  0  0
  189.6060  175.7100  137.6670 C   0  0  1  0  0  3  0  0  0  0  0  0
  189.3180  177.5380  134.5940 C   0  0  0  0  0  2  0  0  0  0  0  0
  188.8590  177.9000  144.4830 C   0  0  1  0  0  3  0  0  0  0  0  0
  190.3360  176.8610  139.8530 C   0  0  1  0  0  3  0  0  0  0  0  0
  188.4140  177.7810  136.8810 C   0  0  2  0  0  3  0  0  0  0  0  0
  189.0600  177.2140  140.1110 C   0  0  0  0  0  0  0  0  0  0  0  0
  193.0580  176.7140  139.1160 C   0  0  0  0  0  3  0  0  0  0  0  0
  186.9000  177.3100  142.9950 C   0  0  0  0  0  2  0  0  0  0  0  0
  192.0060  176.1500  138.2420 C   0  0  0  0  0  3  0  0  0  0  0  0
  187.2820  178.1160  141.7610 C   0  0  0  0  0  2  0  0  0  0  0  0
  189.6160  178.8560  143.5510 C   0  0  2  0  0  3  0  0  0  0  0  0
  192.7740  177.1560  140.3470 C   0  0  0  0  0  3  0  0  0  0  0  0
  191.0530  178.0420  141.8740 N   0  0  0  0  0  0  0  0  0  0  0  0
  189.1430  178.1930  145.8190 O   0  0  0  0  0  0  0  0  0  0  0  0
  189.6700  177.0090  146.3420 C   0  0  0  0  0  2  0  0  0  0  0  0
  192.1200  175.6030  148.0350 C   0  0  0  0  0  2  0  0  0  0  0  0
  191.6850  175.9700  145.7310 C   0  0  0  0  0  2  0  0  0  0  0  0
  191.1170  177.1130  146.4410 N   0  0  0  0  0  0  0  0  0  0  0  0
  192.6300  175.2540  146.6670 C   0  0  0  0  0  2  0  0  0  0  0  0
  191.4570  176.9510  147.8520 C   0  0  0  0  0  2  0  0  0  0  0  0
  1 26  1  6  0  0  0
  1 27  1  0  0  0  0
  2 14  1  0  0  0  0
  3 16  1  6  0  0  0
  3 19  1  0  0  0  0
  5 11  1  1  0  0  0
  7  3  1  0  0  0  0
  7  6  1  0  0  0  0
  8 12  1  0  0  0  0
 10 17  1  0  0  0  0
 11 20  2  0  0  0  0
 13 24  1  0  0  0  0
 13  9  2  0  0  0  0
 15 12  1  6  0  0  0
 15  5  1  0  0  0  0
 15  4  1  0  0  0  0
 16  8  1  0  0  0  0
 17 28  1  1  0  0  0
 18  4  1  1  0  0  0
 18 20  1  0  0  0  0
 18  1  1  0  0  0  0
 19  6  1  1  0  0  0
 19  5  1  0  0  0  0
 20 13  1  0  0  0  0
 21 26  2  0  0  0  0
 22 10  1  0  0  0  0
 23  4  2  0  0  0  0
 23 21  1  0  0  0  0
 24 22  1  0  0  0  0
 25  9  1  6  0  0  0
 25 14  1  0  0  0  0
 25 17  1  0  0  0  0
 27  9  1  0  0  0  0
 27  2  1  0  0  0  0
 28 29  1  0  0  0  0
 29 32  1  0  0  0  0
 31 32  1  0  0  0  0
 31 33  1  0  0  0  0
 32 34  1  0  0  0  0
 33 30  1  0  0  0  0
 34 30  1  0  0  0  0
M  END
>  <MODEL>
6

>  <REMARK>
 VINA RESULT:      -7.4      2.100      3.955
  Name = 
  3 active torsions:
  status: ('A' for Active; 'I' for Inactive)
    1  A    between atoms: C_17  and  O_28
    2  A    between atoms: O_28  and  C_29
    3  A    between atoms: C_29  and  N_32
                            x       y       z     vdW  Elec       q    Type
                         _______ _______ _______ _____ _____    ______ ____

>  <TORSDO>
F 3

$$$$
=
 OpenBabel11122412223D

 34 41  0  0  1  0  0  0  0  0999 V2000
  191.6330  176.9090  140.7110 C   0  0  1  0  0  3  0  0  0  0  0  0
  192.2310  178.2690  142.8170 C   0  0  0  0  0  2  0  0  0  0  0  0
  187.8830  177.2910  135.5930 C   0  0  1  0  0  3  0  0  0  0  0  0
  190.7370  176.1970  138.4050 C   0  0  0  0  0  0  0  0  0  0  0  0
  188.2750  176.5030  137.8290 C   0  0  2  0  0  3  0  0  0  0  0  0
  187.0210  178.5440  136.8750 C   0  0  0  0  0  2  0  0  0  0  0  0
  186.8070  178.1870  135.5290 O   0  0  0  0  0  0  0  0  0  0  0  0
  190.5600  176.7260  135.1270 S   0  0  0  0  0  0  0  0  0  0  0  0
  190.0620  178.1790  142.1410 C   0  0  0  0  0  0  0  0  0  0  0  0
  187.8950  177.8670  144.4110 C   0  0  0  0  0  2  0  0  0  0  0  0
  188.1200  176.8780  139.2350 N   0  0  0  0  0  0  0  0  0  0  0  0
  189.8620  175.3280  136.1170 C   0  0  0  0  0  2  0  0  0  0  0  0
  188.9970  177.7880  141.4210 C   0  0  0  0  0  0  0  0  0  0  0  0
  191.4540  178.8970  143.8320 O   0  0  0  0  0  0  0  0  0  0  0  0
  189.5650  175.6700  137.6030 C   0  0  1  0  0  3  0  0  0  0  0  0
  188.9930  177.5380  134.5940 C   0  0  0  0  0  2  0  0  0  0  0  0
  189.4160  177.7600  144.4890 C   0  0  1  0  0  3  0  0  0  0  0  0
  190.4800  176.7960  139.7310 C   0  0  1  0  0  3  0  0  0  0  0  0
  188.2950  177.7440  136.9560 C   0  0  2  0  0  3  0  0  0  0  0  0
  189.2300  177.1370  140.1070 C   0  0  0  0  0  0  0  0  0  0  0  0
  193.1260  176.6780  138.7530 C   0  0  0  0  0  3  0  0  0  0  0  0
  187.3350  177.1780  143.1720 C   0  0  0  0  0  2  0  0  0  0  0  0
  192.0030  176.1190  137.9670 C   0  0  0  0  0  3  0  0  0  0  0  0
  187.6010  178.0040  141.9210 C   0  0  0  0  0  2  0  0  0  0  0  0
  190.0820  178.7340  143.5060 C   0  0  2  0  0  3  0  0  0  0  0  0
  192.9500  177.1010  140.0100 C   0  0  0  0  0  3  0  0  0  0  0  0
  191.3680  177.9540  141.6970 N   0  0  0  0  0  0  0  0  0  0  0  0
  189.8160  178.0370  145.7990 O   0  0  0  0  0  0  0  0  0  0  0  0
  190.1580  176.7940  146.3390 C   0  0  0  0  0  2  0  0  0  0  0  0
  188.4370  178.6270  148.4680 C   0  0  0  0  0  2  0  0  0  0  0  0
  188.3030  176.3790  147.7190 C   0  0  0  0  0  2  0  0  0  0  0  0
  189.7230  176.7220  147.7250 N   0  0  0  0  0  0  0  0  0  0  0  0
  187.5630  177.4090  148.5390 C   0  0  0  0  0  2  0  0  0  0  0  0
  189.8320  178.0730  148.2730 C   0  0  0  0  0  2  0  0  0  0  0  0
  1 26  1  6  0  0  0
  1 27  1  0  0  0  0
  2 14  1  0  0  0  0
  3 16  1  6  0  0  0
  3 19  1  0  0  0  0
  5 11  1  1  0  0  0
  7  3  1  0  0  0  0
  7  6  1  0  0  0  0
  8 12  1  0  0  0  0
 10 17  1  0  0  0  0
 11 20  2  0  0  0  0
 13 24  1  0  0  0  0
 13  9  2  0  0  0  0
 15 12  1  6  0  0  0
 15  5  1  0  0  0  0
 15  4  1  0  0  0  0
 16  8  1  0  0  0  0
 17 28  1  1  0  0  0
 18  4  1  1  0  0  0
 18 20  1  0  0  0  0
 18  1  1  0  0  0  0
 19  6  1  1  0  0  0
 19  5  1  0  0  0  0
 20 13  1  0  0  0  0
 21 26  2  0  0  0  0
 22 10  1  0  0  0  0
 23  4  2  0  0  0  0
 23 21  1  0  0  0  0
 24 22  1  0  0  0  0
 25  9  1  6  0  0  0
 25 14  1  0  0  0  0
 25 17  1  0  0  0  0
 27  9  1  0  0  0  0
 27  2  1  0  0  0  0
 28 29  1  0  0  0  0
 29 32  1  0  0  0  0
 30 33  1  0  0  0  0
 31 32  1  0  0  0  0
 31 33  1  0  0  0  0
 32 34  1  0  0  0  0
 34 30  1  0  0  0  0
M  END
>  <MODEL>
7

>  <REMARK>
 VINA RESULT:      -7.3      1.931      3.699
  Name = 
  3 active torsions:
  status: ('A' for Active; 'I' for Inactive)
    1  A    between atoms: C_17  and  O_28
    2  A    between atoms: O_28  and  C_29
    3  A    between atoms: C_29  and  N_32
                            x       y       z     vdW  Elec       q    Type
                         _______ _______ _______ _____ _____    ______ ____

>  <TORSDO>
F 3

$$$$
=
 OpenBabel11122412223D

 34 41  0  0  1  0  0  0  0  0999 V2000
  186.1830  178.3850  142.7600 C   0  0  1  0  0  3  0  0  0  0  0  0
  187.7000  177.0620  144.3690 C   0  0  0  0  0  2  0  0  0  0  0  0
  183.5770  177.8270  136.9900 C   0  0  1  0  0  3  0  0  0  0  0  0
  184.6300  179.0480  140.8170 C   0  0  0  0  0  0  0  0  0  0  0  0
  185.3390  178.6430  138.4040 C   0  0  2  0  0  3  0  0  0  0  0  0
  185.0990  176.5480  136.9190 C   0  0  0  0  0  2  0  0  0  0  0  0
  184.0390  176.8890  136.0560 O   0  0  0  0  0  0  0  0  0  0  0  0
  181.8590  178.4930  139.0640 S   0  0  0  0  0  0  0  0  0  0  0  0
  188.1840  177.0630  142.1480 C   0  0  0  0  0  0  0  0  0  0  0  0
  191.2320  177.3030  141.3740 C   0  0  0  0  0  2  0  0  0  0  0  0
  186.6330  178.2700  138.9780 N   0  0  0  0  0  0  0  0  0  0  0  0
  183.0840  179.8690  138.8950 C   0  0  0  0  0  2  0  0  0  0  0  0
  188.0890  177.4080  140.8530 C   0  0  0  0  0  0  0  0  0  0  0  0
  188.9570  176.4100  144.2180 O   0  0  0  0  0  0  0  0  0  0  0  0
  184.5180  179.5240  139.3830 C   0  0  1  0  0  3  0  0  0  0  0  0
  182.1560  177.6170  137.4700 C   0  0  0  0  0  2  0  0  0  0  0  0
  190.5500  177.4700  142.7300 C   0  0  1  0  0  3  0  0  0  0  0  0
  185.9010  178.4480  141.2700 C   0  0  1  0  0  3  0  0  0  0  0  0
  184.5520  177.3980  138.0370 C   0  0  2  0  0  3  0  0  0  0  0  0
  186.8400  178.0600  140.3820 C   0  0  0  0  0  0  0  0  0  0  0  0
  183.7460  178.6630  143.0820 C   0  0  0  0  0  3  0  0  0  0  0  0
  190.4400  177.9630  140.2510 C   0  0  0  0  0  2  0  0  0  0  0  0
  183.6250  179.1730  141.6980 C   0  0  0  0  0  3  0  0  0  0  0  0
  189.2100  177.1410  139.8940 C   0  0  0  0  0  2  0  0  0  0  0  0
  189.3530  176.5170  142.8590 C   0  0  2  0  0  3  0  0  0  0  0  0
  184.9200  178.2410  143.5660 C   0  0  0  0  0  3  0  0  0  0  0  0
  187.1560  177.3370  143.0550 N   0  0  0  0  0  0  0  0  0  0  0  0
  191.4880  177.2160  143.7350 O   0  0  0  0  0  0  0  0  0  0  0  0
  191.2340  178.1820  144.7130 C   0  0  0  0  0  2  0  0  0  0  0  0
  190.0590  176.5830  147.3420 C   0  0  0  0  0  2  0  0  0  0  0  0
  191.9180  176.2740  145.8980 C   0  0  0  0  0  2  0  0  0  0  0  0
  191.7180  177.7170  146.0030 N   0  0  0  0  0  0  0  0  0  0  0  0
  191.1540  175.6080  147.0190 C   0  0  0  0  0  2  0  0  0  0  0  0
  190.6360  177.9290  146.9620 C   0  0  0  0  0  2  0  0  0  0  0  0
  1 27  1  0  0  0  0
  1 26  1  1  0  0  0
  3 16  1  1  0  0  0
  3 19  1  0  0  0  0
  4 18  1  0  0  0  0
  4 23  2  0  0  0  0
  5 11  1  1  0  0  0
  5 15  1  0  0  0  0
  7  6  1  0  0  0  0
  7  3  1  0  0  0  0
  9 27  1  0  0  0  0
 10 17  1  0  0  0  0
 11 20  2  0  0  0  0
 12  8  1  0  0  0  0
 13  9  2  0  0  0  0
 14  2  1  0  0  0  0
 15 12  1  6  0  0  0
 15  4  1  0  0  0  0
 16  8  1  0  0  0  0
 17 25  1  0  0  0  0
 17 28  1  1  0  0  0
 18 20  1  6  0  0  0
 18  1  1  0  0  0  0
 19  6  1  6  0  0  0
 19  5  1  0  0  0  0
 20 13  1  0  0  0  0
 21 26  2  0  0  0  0
 22 10  1  0  0  0  0
 23 21  1  0  0  0  0
 24 22  1  0  0  0  0
 24 13  1  0  0  0  0
 25  9  1  6  0  0  0
 25 14  1  0  0  0  0
 27  2  1  0  0  0  0
 28 29  1  0  0  0  0
 29 32  1  0  0  0  0
 31 32  1  0  0  0  0
 31 33  1  0  0  0  0
 32 34  1  0  0  0  0
 33 30  1  0  0  0  0
 34 30  1  0  0  0  0
M  END
>  <MODEL>
8

>  <REMARK>
 VINA RESULT:      -7.2      2.376      3.381
  Name = 
  3 active torsions:
  status: ('A' for Active; 'I' for Inactive)
    1  A    between atoms: C_17  and  O_28
    2  A    between atoms: O_28  and  C_29
    3  A    between atoms: C_29  and  N_32
                            x       y       z     vdW  Elec       q    Type
                         _______ _______ _______ _____ _____    ______ ____

>  <TORSDO>
F 3

$$$$
=
 OpenBabel11122412223D

 34 41  0  0  1  0  0  0  0  0999 V2000
  187.0480  178.0430  140.2950 C   0  0  1  0  0  3  0  0  0  0  0  0
  187.3320  179.1520  137.9860 C   0  0  0  0  0  2  0  0  0  0  0  0
  190.2400  177.2860  145.7390 C   0  0  1  0  0  3  0  0  0  0  0  0
  187.3490  177.3620  142.7600 C   0  0  0  0  0  0  0  0  0  0  0  0
  189.5820  176.4560  143.5830 C   0  0  2  0  0  3  0  0  0  0  0  0
  191.6800  177.6940  144.4290 C   0  0  0  0  0  2  0  0  0  0  0  0
  191.6220  177.5030  145.8230 O   0  0  0  0  0  0  0  0  0  0  0  0
  187.6480  178.2530  145.9490 S   0  0  0  0  0  0  0  0  0  0  0  0
  189.1060  178.0780  138.9200 C   0  0  0  0  0  0  0  0  0  0  0  0
  190.8760  176.3370  136.9760 C   0  0  0  0  0  2  0  0  0  0  0  0
  189.9650  176.4640  142.1710 N   0  0  0  0  0  2  0  0  0  0  0  0
  187.5490  176.5550  145.2220 C   0  0  0  0  0  2  0  0  0  0  0  0
  189.7800  177.3220  139.8030 C   0  0  0  0  0  0  0  0  0  0  0  0
  188.3620  179.1190  137.0030 O   0  0  0  0  0  0  0  0  0  0  0  0
  188.0390  176.4490  143.7520 C   0  0  1  0  0  3  0  0  0  0  0  0
  189.3860  178.2250  146.5640 C   0  0  0  0  0  2  0  0  0  0  0  0
  189.5290  177.0110  136.7320 C   0  0  1  0  0  3  0  0  0  0  0  0
  187.9320  177.5180  141.4110 C   0  0  0  0  0  0  0  0  0  0  0  0
  190.1800  177.6560  144.2930 C   0  0  2  0  0  3  0  0  0  0  0  0
  189.1900  177.1060  141.1480 C   0  0  0  0  0  0  0  0  0  0  0  0
  185.5800  178.9310  142.0760 C   0  0  0  0  0  3  0  0  0  0  0  0
  190.9440  175.6720  138.3460 C   0  0  0  0  0  2  0  0  0  0  0  0
  186.2120  178.0140  143.0500 C   0  0  0  0  0  3  0  0  0  0  0  0
  191.1010  176.7090  139.4490 C   0  0  0  0  0  2  0  0  0  0  0  0
  189.4330  178.3340  137.5060 C   0  0  2  0  0  3  0  0  0  0  0  0
  185.9990  178.9920  140.8070 C   0  0  0  0  0  3  0  0  0  0  0  0
  187.8590  178.6280  139.2310 N   0  0  0  0  0  0  0  0  0  0  0  0
  189.3840  177.2350  135.3610 O   0  0  0  0  0  0  0  0  0  0  0  0
  188.5620  176.1970  134.9130 C   0  0  0  0  0  2  0  0  0  0  0  0
  185.3050  175.8290  134.5980 C   0  0  0  0  0  2  0  0  0  0  0  0
  187.0020  174.6760  135.7890 C   0  0  0  0  0  2  0  0  0  0  0  0
  187.3970  176.0820  135.7760 N   0  0  0  0  0  0  0  0  0  0  0  0
  185.5420  174.5900  135.4110 C   0  0  0  0  0  2  0  0  0  0  0  0
  186.3170  176.8220  135.1260 C   0  0  0  0  0  2  0  0  0  0  0  0
  1 26  1  1  0  0  0
  1 18  1  0  0  0  0
  2 27  1  0  0  0  0
  3  7  1  0  0  0  0
  3 16  1  1  0  0  0
  4 23  2  0  0  0  0
  4 15  1  0  0  0  0
  5 11  1  6  0  0  0
  5 15  1  0  0  0  0
  5 19  1  0  0  0  0
  6  7  1  0  0  0  0
  8 16  1  0  0  0  0
  9 27  1  0  0  0  0
  9 13  2  0  0  0  0
 10 22  1  0  0  0  0
 12  8  1  0  0  0  0
 13 20  1  0  0  0  0
 14  2  1  0  0  0  0
 15 12  1  1  0  0  0
 17 28  1  6  0  0  0
 17 10  1  0  0  0  0
 17 25  1  0  0  0  0
 18  4  1  0  0  0  0
 19  6  1  6  0  0  0
 19  3  1  0  0  0  0
 20 18  2  0  0  0  0
 20 11  1  0  0  0  0
 21 23  1  0  0  0  0
 22 24  1  0  0  0  0
 24 13  1  0  0  0  0
 25 14  1  6  0  0  0
 25  9  1  0  0  0  0
 26 21  2  0  0  0  0
 27  1  1  0  0  0  0
 29 28  1  0  0  0  0
 29 32  1  0  0  0  0
 30 34  1  0  0  0  0
 30 33  1  0  0  0  0
 32 31  1  0  0  0  0
 33 31  1  0  0  0  0
 34 32  1  0  0  0  0
M  END
>  <MODEL>
9

>  <REMARK>
 VINA RESULT:      -7.1      2.668      8.122
  Name = 
  3 active torsions:
  status: ('A' for Active; 'I' for Inactive)
    1  A    between atoms: C_17  and  O_28
    2  A    between atoms: O_28  and  C_29
    3  A    between atoms: C_29  and  N_32
                            x       y       z     vdW  Elec       q    Type
                         _______ _______ _______ _____ _____    ______ ____

>  <TORSDO>
F 3

$$$$
