=
 OpenBabel11122411093D

 31 35  0  0  0  0  0  0  0  0999 V2000
  184.8500  178.7490  144.5260 C   0  0  0  0  0  0  0  0  0  0  0  0
  188.3740  177.5790  143.9040 C   0  0  0  0  0  0  0  0  0  0  0  0
  189.0020  177.4310  145.1750 C   0  0  0  0  0  0  0  0  0  0  0  0
  187.8150  177.5310  138.6740 O   0  0  0  0  0  0  0  0  0  0  0  0
  188.9870  177.1640  138.9530 C   0  0  0  0  0  0  0  0  0  0  0  0
  189.0020  177.5380  147.6150 C   0  0  0  0  0  0  0  0  0  0  0  0
  187.0270  178.0070  143.7050 C   0  0  0  0  0  0  0  0  0  0  0  0
  184.3750  178.8460  143.2190 C   0  0  0  0  0  3  0  0  0  0  0  0
  188.3490  177.6960  146.3910 C   0  0  0  0  0  3  0  0  0  0  0  0
  188.6020  177.3990  141.4720 C   0  0  0  0  0  0  0  0  0  0  0  0
  184.0190  179.0660  145.5920 O   0  0  0  0  0  1  0  0  0  0  0  0
  191.0180  176.7300  144.0820 N   0  0  0  0  0  0  0  0  0  0  0  0
  188.1560  177.8780  149.1080 Cl  0  0  0  0  0  0  0  0  0  0  0  0
  187.3170  177.8090  141.3250 N   0  0  0  0  0  0  0  0  0  0  0  0
  189.1520  177.2760  142.7560 C   0  0  0  0  0  0  0  0  0  0  0  0
  189.4050  177.0870  140.3240 N   0  0  0  0  0  2  0  0  0  0  0  0
  186.1610  178.3340  144.7650 C   0  0  0  0  0  3  0  0  0  0  0  0
  190.3290  177.1090  147.6470 C   0  0  0  0  0  3  0  0  0  0  0  0
  186.5280  178.1110  142.3820 C   0  0  0  0  0  0  0  0  0  0  0  0
  185.2120  178.5270  142.1500 C   0  0  0  0  0  3  0  0  0  0  0  0
  190.4400  176.8650  142.8920 N   0  0  0  0  0  0  0  0  0  0  0  0
  190.3480  176.9970  145.2270 C   0  0  0  0  0  0  0  0  0  0  0  0
  191.0010  176.8390  146.4540 C   0  0  0  0  0  3  0  0  0  0  0  0
  191.8900  176.1180  135.9560 C   0  0  0  0  0  0  0  0  0  0  0  0
  191.2890  176.5920  138.2460 C   0  0  0  0  0  3  0  0  0  0  0  0
  187.9570  176.9000  135.9040 Cl  0  0  0  0  0  0  0  0  0  0  0  0
  192.8230  175.7870  135.0320 F   0  0  0  0  0  0  0  0  0  0  0  0
  192.2510  176.2520  137.2960 C   0  0  0  0  0  3  0  0  0  0  0  0
  189.5900  176.6650  136.5130 C   0  0  0  0  0  0  0  0  0  0  0  0
  189.9490  176.8040  137.8800 C   0  0  0  0  0  0  0  0  0  0  0  0
  190.5660  176.3240  135.5700 C   0  0  0  0  0  3  0  0  0  0  0  0
  1 17  1  0  0  0  0
  1 11  1  0  0  0  0
  2  3  1  0  0  0  0
  3 22  2  0  0  0  0
  3  9  1  0  0  0  0
  4  5  2  0  0  0  0
  5 16  1  0  0  0  0
  6 18  1  0  0  0  0
  6 13  1  0  0  0  0
  7  2  1  0  0  0  0
  7 17  2  0  0  0  0
  8  1  2  0  0  0  0
  9  6  2  0  0  0  0
 10 15  1  0  0  0  0
 12 22  1  0  0  0  0
 14 10  2  0  0  0  0
 14 19  1  0  0  0  0
 15 21  1  0  0  0  0
 15  2  2  0  0  0  0
 16 10  1  0  0  0  0
 19  7  1  0  0  0  0
 20 19  2  0  0  0  0
 20  8  1  0  0  0  0
 21 12  2  0  0  0  0
 22 23  1  0  0  0  0
 23 18  2  0  0  0  0
 24 28  1  0  0  0  0
 26 29  1  0  0  0  0
 27 24  1  0  0  0  0
 28 25  2  0  0  0  0
 29 30  2  0  0  0  0
 30 25  1  0  0  0  0
 30  5  1  0  0  0  0
 31 24  2  0  0  0  0
 31 29  1  0  0  0  0
M  END
>  <MODEL>
1

>  <REMARK>
 VINA RESULT:     -11.4      0.000      0.000
  Name = 
  1 active torsions:
  status: ('A' for Active; 'I' for Inactive)
    1  A    between atoms: C_5  and  C_30
                            x       y       z     vdW  Elec       q    Type
                         _______ _______ _______ _____ _____    ______ ____

>  <TORSDO>
F 1

$$$$
=
 OpenBabel11122411093D

 31 35  0  0  0  0  0  0  0  0999 V2000
  190.7010  177.4100  141.4770 C   0  0  0  0  0  0  0  0  0  0  0  0
  187.3540  178.0850  143.0640 C   0  0  0  0  0  0  0  0  0  0  0  0
  187.4990  177.8710  144.4660 C   0  0  0  0  0  0  0  0  0  0  0  0
  185.0260  179.2660  138.4970 O   0  0  0  0  0  0  0  0  0  0  0  0
  184.1750  179.3720  139.4190 C   0  0  0  0  0  0  0  0  0  0  0  0
  188.8080  177.2800  146.4420 C   0  0  0  0  0  0  0  0  0  0  0  0
  188.4000  177.9320  142.1040 C   0  0  0  0  0  0  0  0  0  0  0  0
  190.4060  177.6560  140.1370 C   0  0  0  0  0  3  0  0  0  0  0  0
  188.7100  177.4790  145.0630 C   0  0  0  0  0  3  0  0  0  0  0  0
  185.8550  178.7060  141.2310 C   0  0  0  0  0  0  0  0  0  0  0  0
  191.9840  177.0290  141.8470 O   0  0  0  0  0  1  0  0  0  0  0  0
  185.1890  178.4340  144.7770 N   0  0  0  0  0  0  0  0  0  0  0  0
  190.3320  176.7940  147.1490 Cl  0  0  0  0  0  0  0  0  0  0  0  0
  186.8740  178.5510  140.3490 N   0  0  0  0  0  0  0  0  0  0  0  0
  186.0730  178.4780  142.5960 C   0  0  0  0  0  0  0  0  0  0  0  0
  184.5530  179.1040  140.7770 N   0  0  0  0  0  2  0  0  0  0  0  0
  189.7080  177.5480  142.4480 C   0  0  0  0  0  3  0  0  0  0  0  0
  187.6900  177.4710  147.2550 C   0  0  0  0  0  3  0  0  0  0  0  0
  188.1170  178.1780  140.7370 C   0  0  0  0  0  0  0  0  0  0  0  0
  189.1170  178.0390  139.7680 C   0  0  0  0  0  3  0  0  0  0  0  0
  185.0450  178.6360  143.4700 N   0  0  0  0  0  0  0  0  0  0  0  0
  186.3760  178.0580  145.3060 C   0  0  0  0  0  0  0  0  0  0  0  0
  186.4760  177.8580  146.6870 C   0  0  0  0  0  3  0  0  0  0  0  0
  180.1810  180.6890  138.5160 C   0  0  0  0  0  0  0  0  0  0  0  0
  182.5560  181.0900  138.6740 C   0  0  0  0  0  3  0  0  0  0  0  0
  181.7770  177.2450  139.8110 Cl  0  0  0  0  0  0  0  0  0  0  0  0
  178.9330  181.1280  138.2250 F   0  0  0  0  0  0  0  0  0  0  0  0
  181.2720  181.5440  138.3740 C   0  0  0  0  0  3  0  0  0  0  0  0
  181.6580  178.9120  139.2630 C   0  0  0  0  0  0  0  0  0  0  0  0
  182.7770  179.7760  139.1200 C   0  0  0  0  0  0  0  0  0  0  0  0
  180.3750  179.3810  138.9580 C   0  0  0  0  0  3  0  0  0  0  0  0
  1 11  1  0  0  0  0
  1 17  1  0  0  0  0
  2  3  1  0  0  0  0
  3  9  2  0  0  0  0
  3 22  1  0  0  0  0
  4  5  2  0  0  0  0
  5 16  1  0  0  0  0
  6 13  1  0  0  0  0
  6 18  2  0  0  0  0
  7 17  2  0  0  0  0
  7  2  1  0  0  0  0
  8  1  2  0  0  0  0
  9  6  1  0  0  0  0
 10 15  1  0  0  0  0
 12 22  1  0  0  0  0
 14 19  1  0  0  0  0
 14 10  2  0  0  0  0
 15  2  2  0  0  0  0
 15 21  1  0  0  0  0
 16 10  1  0  0  0  0
 19  7  1  0  0  0  0
 20  8  1  0  0  0  0
 20 19  2  0  0  0  0
 21 12  2  0  0  0  0
 22 23  2  0  0  0  0
 23 18  1  0  0  0  0
 24 31  1  0  0  0  0
 25 30  2  0  0  0  0
 27 24  1  0  0  0  0
 28 24  2  0  0  0  0
 28 25  1  0  0  0  0
 29 26  1  0  0  0  0
 30 29  1  0  0  0  0
 30  5  1  0  0  0  0
 31 29  2  0  0  0  0
M  END
>  <MODEL>
2

>  <REMARK>
 VINA RESULT:     -11.2      4.332      6.731
  Name = 
  1 active torsions:
  status: ('A' for Active; 'I' for Inactive)
    1  A    between atoms: C_5  and  C_30
                            x       y       z     vdW  Elec       q    Type
                         _______ _______ _______ _____ _____    ______ ____

>  <TORSDO>
F 1

$$$$
=
 OpenBabel11122411093D

 31 35  0  0  0  0  0  0  0  0999 V2000
  186.7220  178.1420  147.3460 C   0  0  0  0  0  0  0  0  0  0  0  0
  187.5050  177.7400  143.6850 C   0  0  0  0  0  0  0  0  0  0  0  0
  188.8750  177.3590  143.5840 C   0  0  0  0  0  0  0  0  0  0  0  0
  182.6370  178.9970  142.1380 O   0  0  0  0  0  0  0  0  0  0  0  0
  183.3310  178.7540  141.1150 C   0  0  0  0  0  0  0  0  0  0  0  0
  191.0480  176.8140  144.5580 C   0  0  0  0  0  0  0  0  0  0  0  0
  186.8170  177.9920  144.9100 C   0  0  0  0  0  0  0  0  0  0  0  0
  185.3780  178.5070  147.2830 C   0  0  0  0  0  3  0  0  0  0  0  0
  189.7100  177.1880  144.7020 C   0  0  0  0  0  3  0  0  0  0  0  0
  185.4280  178.2500  142.4930 C   0  0  0  0  0  0  0  0  0  0  0  0
  187.3550  178.0310  148.5760 O   0  0  0  0  0  1  0  0  0  0  0  0
  188.6670  177.2950  141.1960 N   0  0  0  0  0  0  0  0  0  0  0  0
  192.0560  176.6090  145.9730 Cl  0  0  0  0  0  0  0  0  0  0  0  0
  184.8080  178.4800  143.6790 N   0  0  0  0  0  0  0  0  0  0  0  0
  186.7790  177.8780  142.4730 C   0  0  0  0  0  0  0  0  0  0  0  0
  184.7100  178.3830  141.2580 N   0  0  0  0  0  2  0  0  0  0  0  0
  187.4320  177.8880  146.1710 C   0  0  0  0  0  3  0  0  0  0  0  0
  191.5790  176.6020  143.2860 C   0  0  0  0  0  3  0  0  0  0  0  0
  185.4500  178.3640  144.8650 C   0  0  0  0  0  0  0  0  0  0  0  0
  184.7440  178.6180  146.0460 C   0  0  0  0  0  3  0  0  0  0  0  0
  187.3880  177.6500  141.2810 N   0  0  0  0  0  0  0  0  0  0  0  0
  189.4320  177.1410  142.3020 C   0  0  0  0  0  0  0  0  0  0  0  0
  190.7720  176.7670  142.1590 C   0  0  0  0  0  3  0  0  0  0  0  0
  181.6200  179.1810  137.1920 C   0  0  0  0  0  0  0  0  0  0  0  0
  182.4850  180.1270  139.2380 C   0  0  0  0  0  3  0  0  0  0  0  0
  182.6800  176.0540  139.4680 Cl  0  0  0  0  0  0  0  0  0  0  0  0
  181.0820  179.3430  135.9600 F   0  0  0  0  0  0  0  0  0  0  0  0
  181.9300  180.2960  137.9690 C   0  0  0  0  0  3  0  0  0  0  0  0
  182.4190  177.7170  138.9560 C   0  0  0  0  0  0  0  0  0  0  0  0
  182.7400  178.8460  139.7560 C   0  0  0  0  0  0  0  0  0  0  0  0
  181.8640  177.9000  137.6860 C   0  0  0  0  0  3  0  0  0  0  0  0
  1 11  1  0  0  0  0
  2  7  1  0  0  0  0
  3  2  1  0  0  0  0
  3  9  1  0  0  0  0
  5 16  1  0  0  0  0
  5  4  2  0  0  0  0
  6  9  2  0  0  0  0
  6 13  1  0  0  0  0
  7 17  1  0  0  0  0
  8  1  1  0  0  0  0
 10 14  2  0  0  0  0
 12 21  2  0  0  0  0
 12 22  1  0  0  0  0
 14 19  1  0  0  0  0
 15 10  1  0  0  0  0
 15  2  2  0  0  0  0
 16 10  1  0  0  0  0
 17  1  2  0  0  0  0
 18  6  1  0  0  0  0
 19  7  2  0  0  0  0
 19 20  1  0  0  0  0
 20  8  2  0  0  0  0
 21 15  1  0  0  0  0
 22  3  2  0  0  0  0
 23 22  1  0  0  0  0
 23 18  2  0  0  0  0
 24 31  2  0  0  0  0
 24 28  1  0  0  0  0
 25 30  1  0  0  0  0
 27 24  1  0  0  0  0
 28 25  2  0  0  0  0
 29 26  1  0  0  0  0
 29 30  2  0  0  0  0
 30  5  1  0  0  0  0
 31 29  1  0  0  0  0
M  END
>  <MODEL>
3

>  <REMARK>
 VINA RESULT:     -10.5      4.059      5.854
  Name = 
  1 active torsions:
  status: ('A' for Active; 'I' for Inactive)
    1  A    between atoms: C_5  and  C_30
                            x       y       z     vdW  Elec       q    Type
                         _______ _______ _______ _____ _____    ______ ____

>  <TORSDO>
F 1

$$$$
=
 OpenBabel11122411093D

 31 35  0  0  0  0  0  0  0  0999 V2000
  186.4900  177.9150  145.4440 C   0  0  0  0  0  0  0  0  0  0  0  0
  186.9880  178.2270  141.7260 C   0  0  0  0  0  0  0  0  0  0  0  0
  188.3530  177.9180  141.4540 C   0  0  0  0  0  0  0  0  0  0  0  0
  181.9890  179.5830  140.8080 O   0  0  0  0  0  0  0  0  0  0  0  0
  182.6040  179.5590  139.7090 C   0  0  0  0  0  0  0  0  0  0  0  0
  190.6060  177.2750  142.1430 C   0  0  0  0  0  0  0  0  0  0  0  0
  186.3950  178.2230  143.0240 C   0  0  0  0  0  0  0  0  0  0  0  0
  185.1380  178.2400  145.5520 C   0  0  0  0  0  3  0  0  0  0  0  0
  189.2770  177.5700  142.4550 C   0  0  0  0  0  3  0  0  0  0  0  0
  184.8130  178.8780  140.8080 C   0  0  0  0  0  0  0  0  0  0  0  0
  187.2200  177.5990  146.5810 O   0  0  0  0  0  1  0  0  0  0  0  0
  187.9580  178.2910  139.1180 N   0  0  0  0  0  0  0  0  0  0  0  0
  191.7270  176.8440  143.4170 Cl  0  0  0  0  0  0  0  0  0  0  0  0
  184.2850  178.8630  142.0580 N   0  0  0  0  0  0  0  0  0  0  0  0
  186.1650  178.5630  140.6180 C   0  0  0  0  0  0  0  0  0  0  0  0
  183.9970  179.2140  139.6770 N   0  0  0  0  0  2  0  0  0  0  0  0
  187.1090  177.9070  144.1940 C   0  0  0  0  0  3  0  0  0  0  0  0
  191.0390  177.3210  140.8180 C   0  0  0  0  0  3  0  0  0  0  0  0
  185.0210  178.5510  143.1510 C   0  0  0  0  0  0  0  0  0  0  0  0
  184.4060  178.5570  144.4080 C   0  0  0  0  0  3  0  0  0  0  0  0
  186.6830  178.5810  139.3630 N   0  0  0  0  0  0  0  0  0  0  0  0
  188.8110  177.9610  140.1150 C   0  0  0  0  0  0  0  0  0  0  0  0
  190.1420  177.6650  139.8060 C   0  0  0  0  0  3  0  0  0  0  0  0
  180.5680  180.6470  136.0810 C   0  0  0  0  0  0  0  0  0  0  0  0
  181.4930  181.2100  138.2380 C   0  0  0  0  0  3  0  0  0  0  0  0
  182.0860  177.2310  137.5320 Cl  0  0  0  0  0  0  0  0  0  0  0  0
  179.9250  181.0160  134.9470 F   0  0  0  0  0  0  0  0  0  0  0  0
  180.8310  181.5910  137.0710 C   0  0  0  0  0  3  0  0  0  0  0  0
  181.6330  178.9270  137.4240 C   0  0  0  0  0  0  0  0  0  0  0  0
  181.9060  179.8820  138.4390 C   0  0  0  0  0  0  0  0  0  0  0  0
  180.9670  179.3230  136.2580 C   0  0  0  0  0  3  0  0  0  0  0  0
  1  8  1  0  0  0  0
  1 11  1  0  0  0  0
  2  7  1  0  0  0  0
  3  2  1  0  0  0  0
  3  9  1  0  0  0  0
  5  4  2  0  0  0  0
  6  9  2  0  0  0  0
  6 13  1  0  0  0  0
  7 19  2  0  0  0  0
  7 17  1  0  0  0  0
 10 14  2  0  0  0  0
 12 21  2  0  0  0  0
 12 22  1  0  0  0  0
 14 19  1  0  0  0  0
 15 10  1  0  0  0  0
 15  2  2  0  0  0  0
 16  5  1  0  0  0  0
 16 10  1  0  0  0  0
 17  1  2  0  0  0  0
 18  6  1  0  0  0  0
 19 20  1  0  0  0  0
 20  8  2  0  0  0  0
 21 15  1  0  0  0  0
 22  3  2  0  0  0  0
 23 22  1  0  0  0  0
 23 18  2  0  0  0  0
 24 31  2  0  0  0  0
 24 28  1  0  0  0  0
 25 30  1  0  0  0  0
 27 24  1  0  0  0  0
 28 25  2  0  0  0  0
 29 26  1  0  0  0  0
 29 30  2  0  0  0  0
 30  5  1  0  0  0  0
 31 29  1  0  0  0  0
M  END
>  <MODEL>
4

>  <REMARK>
 VINA RESULT:     -10.3      4.615      6.740
  Name = 
  1 active torsions:
  status: ('A' for Active; 'I' for Inactive)
    1  A    between atoms: C_5  and  C_30
                            x       y       z     vdW  Elec       q    Type
                         _______ _______ _______ _____ _____    ______ ____

>  <TORSDO>
F 1

$$$$
=
 OpenBabel11122411093D

 31 35  0  0  0  0  0  0  0  0999 V2000
  185.1960  179.0000  142.7730 C   0  0  0  0  0  0  0  0  0  0  0  0
  188.6540  177.5390  143.0660 C   0  0  0  0  0  0  0  0  0  0  0  0
  188.9450  177.4130  144.4560 C   0  0  0  0  0  0  0  0  0  0  0  0
  189.3600  177.2480  137.8610 O   0  0  0  0  0  0  0  0  0  0  0  0
  190.3950  176.8110  138.4300 C   0  0  0  0  0  0  0  0  0  0  0  0
  188.3710  177.6530  146.8180 C   0  0  0  0  0  0  0  0  0  0  0  0
  187.4350  178.0550  142.5310 C   0  0  0  0  0  0  0  0  0  0  0  0
  185.0580  179.0600  141.3870 C   0  0  0  0  0  3  0  0  0  0  0  0
  188.0450  177.7930  145.4670 C   0  0  0  0  0  3  0  0  0  0  0  0
  189.4410  177.2100  140.7700 C   0  0  0  0  0  0  0  0  0  0  0  0
  184.1640  179.4340  143.5940 O   0  0  0  0  0  1  0  0  0  0  0  0
  191.0960  176.5060  143.9100 N   0  0  0  0  0  0  0  0  0  0  0  0
  187.2240  178.1350  148.0480 Cl  0  0  0  0  0  0  0  0  0  0  0  0
  188.2680  177.7060  140.3010 N   0  0  0  0  0  0  0  0  0  0  0  0
  189.6560  177.1170  142.1520 C   0  0  0  0  0  0  0  0  0  0  0  0
  190.4650  176.7780  139.8630 N   0  0  0  0  0  2  0  0  0  0  0  0
  186.3720  178.5020  143.3370 C   0  0  0  0  0  3  0  0  0  0  0  0
  189.6100  177.1280  147.1850 C   0  0  0  0  0  3  0  0  0  0  0  0
  187.2770  178.1230  141.1240 C   0  0  0  0  0  0  0  0  0  0  0  0
  186.0960  178.6220  140.5650 C   0  0  0  0  0  3  0  0  0  0  0  0
  190.8340  176.6200  142.6110 N   0  0  0  0  0  0  0  0  0  0  0  0
  190.1980  176.8840  144.8480 C   0  0  0  0  0  0  0  0  0  0  0  0
  190.5230  176.7450  146.2010 C   0  0  0  0  0  3  0  0  0  0  0  0
  193.6390  175.3460  136.0140 C   0  0  0  0  0  0  0  0  0  0  0  0
  191.2850  175.7260  136.3910 C   0  0  0  0  0  3  0  0  0  0  0  0
  193.3900  177.1420  139.5910 Cl  0  0  0  0  0  0  0  0  0  0  0  0
  194.6420  174.8780  135.2340 F   0  0  0  0  0  0  0  0  0  0  0  0
  192.3160  175.2420  135.5860 C   0  0  0  0  0  3  0  0  0  0  0  0
  192.9020  176.4230  138.0620 C   0  0  0  0  0  0  0  0  0  0  0  0
  191.5510  176.3220  137.6350 C   0  0  0  0  0  0  0  0  0  0  0  0
  193.9270  175.9340  137.2450 C   0  0  0  0  0  3  0  0  0  0  0  0
  1 17  1  0  0  0  0
  1 11  1  0  0  0  0
  2  3  1  0  0  0  0
  3 22  2  0  0  0  0
  3  9  1  0  0  0  0
  4  5  2  0  0  0  0
  5 16  1  0  0  0  0
  6 18  1  0  0  0  0
  6 13  1  0  0  0  0
  7  2  1  0  0  0  0
  7 17  2  0  0  0  0
  8  1  2  0  0  0  0
  9  6  2  0  0  0  0
 10 15  1  0  0  0  0
 12 22  1  0  0  0  0
 14 10  2  0  0  0  0
 14 19  1  0  0  0  0
 15 21  1  0  0  0  0
 15  2  2  0  0  0  0
 16 10  1  0  0  0  0
 19  7  1  0  0  0  0
 20 19  2  0  0  0  0
 20  8  1  0  0  0  0
 21 12  2  0  0  0  0
 22 23  1  0  0  0  0
 23 18  2  0  0  0  0
 24 31  1  0  0  0  0
 25 30  2  0  0  0  0
 27 24  1  0  0  0  0
 28 24  2  0  0  0  0
 28 25  1  0  0  0  0
 29 26  1  0  0  0  0
 30 29  1  0  0  0  0
 30  5  1  0  0  0  0
 31 29  2  0  0  0  0
M  END
>  <MODEL>
5

>  <REMARK>
 VINA RESULT:     -10.3      1.649      2.030
  Name = 
  1 active torsions:
  status: ('A' for Active; 'I' for Inactive)
    1  A    between atoms: C_5  and  C_30
                            x       y       z     vdW  Elec       q    Type
                         _______ _______ _______ _____ _____    ______ ____

>  <TORSDO>
F 1

$$$$
=
 OpenBabel11122411093D

 31 35  0  0  0  0  0  0  0  0999 V2000
  183.7100  179.0060  139.5880 C   0  0  0  0  0  0  0  0  0  0  0  0
  187.3510  178.0900  139.8730 C   0  0  0  0  0  0  0  0  0  0  0  0
  187.8730  178.0140  138.5490 C   0  0  0  0  0  0  0  0  0  0  0  0
  187.2600  177.9010  145.1290 O   0  0  0  0  0  0  0  0  0  0  0  0
  188.4260  177.6270  144.7400 C   0  0  0  0  0  0  0  0  0  0  0  0
  187.6510  178.1660  136.1220 C   0  0  0  0  0  0  0  0  0  0  0  0
  185.9990  178.4120  140.1980 C   0  0  0  0  0  0  0  0  0  0  0  0
  183.3470  179.0420  140.9330 C   0  0  0  0  0  3  0  0  0  0  0  0
  187.0980  178.2520  137.4010 C   0  0  0  0  0  3  0  0  0  0  0  0
  187.8050  177.8800  142.2700 C   0  0  0  0  0  0  0  0  0  0  0  0
  182.7670  179.2790  138.6060 O   0  0  0  0  0  1  0  0  0  0  0  0
  190.0230  177.4440  139.4450 N   0  0  0  0  0  0  0  0  0  0  0  0
  186.6540  178.4710  134.7160 Cl  0  0  0  0  0  0  0  0  0  0  0  0
  186.5110  178.1910  142.5390 N   0  0  0  0  0  0  0  0  0  0  0  0
  188.2470  177.8240  140.9410 C   0  0  0  0  0  0  0  0  0  0  0  0
  188.7260  177.6090  143.3360 N   0  0  0  0  0  2  0  0  0  0  0  0
  185.0220  178.6940  139.2260 C   0  0  0  0  0  3  0  0  0  0  0  0
  188.9980  177.8390  135.9650 C   0  0  0  0  0  3  0  0  0  0  0  0
  185.6120  178.4540  141.5620 C   0  0  0  0  0  0  0  0  0  0  0  0
  184.2960  178.7670  141.9170 C   0  0  0  0  0  3  0  0  0  0  0  0
  189.5440  177.5120  140.6840 N   0  0  0  0  0  0  0  0  0  0  0  0
  189.2370  177.6820  138.3700 C   0  0  0  0  0  0  0  0  0  0  0  0
  189.7900  177.5960  137.0880 C   0  0  0  0  0  3  0  0  0  0  0  0
  191.6350  176.6890  147.4450 C   0  0  0  0  0  0  0  0  0  0  0  0
  190.7070  176.7960  145.2200 C   0  0  0  0  0  3  0  0  0  0  0  0
  187.9370  178.1760  147.8840 Cl  0  0  0  0  0  0  0  0  0  0  0  0
  192.6610  176.3860  148.2760 F   0  0  0  0  0  0  0  0  0  0  0  0
  191.7650  176.4820  146.0730 C   0  0  0  0  0  3  0  0  0  0  0  0
  189.3800  177.5270  147.1170 C   0  0  0  0  0  0  0  0  0  0  0  0
  189.5020  177.3210  145.7170 C   0  0  0  0  0  0  0  0  0  0  0  0
  190.4490  177.2090  147.9620 C   0  0  0  0  0  3  0  0  0  0  0  0
  1  8  1  0  0  0  0
  2  7  1  0  0  0  0
  2 15  1  0  0  0  0
  3  2  2  0  0  0  0
  5  4  2  0  0  0  0
  5 30  1  0  0  0  0
  6  9  2  0  0  0  0
  7 19  2  0  0  0  0
  8 20  2  0  0  0  0
  9  3  1  0  0  0  0
 10 14  2  0  0  0  0
 10 16  1  0  0  0  0
 11  1  1  0  0  0  0
 12 21  1  0  0  0  0
 13  6  1  0  0  0  0
 15 10  1  0  0  0  0
 16  5  1  0  0  0  0
 17  1  2  0  0  0  0
 17  7  1  0  0  0  0
 18  6  1  0  0  0  0
 18 23  2  0  0  0  0
 19 20  1  0  0  0  0
 19 14  1  0  0  0  0
 21 15  2  0  0  0  0
 22  3  1  0  0  0  0
 22 12  2  0  0  0  0
 23 22  1  0  0  0  0
 24 31  1  0  0  0  0
 24 27  1  0  0  0  0
 25 30  2  0  0  0  0
 25 28  1  0  0  0  0
 28 24  2  0  0  0  0
 29 26  1  0  0  0  0
 29 31  2  0  0  0  0
 30 29  1  0  0  0  0
M  END
>  <MODEL>
6

>  <REMARK>
 VINA RESULT:     -10.2      3.065      7.891
  Name = 
  1 active torsions:
  status: ('A' for Active; 'I' for Inactive)
    1  A    between atoms: C_5  and  C_30
                            x       y       z     vdW  Elec       q    Type
                         _______ _______ _______ _____ _____    ______ ____

>  <TORSDO>
F 1

$$$$
=
 OpenBabel11122411093D

 31 35  0  0  0  0  0  0  0  0999 V2000
  186.2910  178.1460  145.9770 C   0  0  0  0  0  0  0  0  0  0  0  0
  186.4810  178.3380  142.2210 C   0  0  0  0  0  0  0  0  0  0  0  0
  187.8370  178.1010  141.8530 C   0  0  0  0  0  0  0  0  0  0  0  0
  181.3490  179.3500  141.6570 O   0  0  0  0  0  0  0  0  0  0  0  0
  181.8780  179.3190  140.5140 C   0  0  0  0  0  0  0  0  0  0  0  0
  190.1730  177.6240  142.3840 C   0  0  0  0  0  0  0  0  0  0  0  0
  185.9900  178.3500  143.5620 C   0  0  0  0  0  0  0  0  0  0  0  0
  184.9340  178.3930  146.1790 C   0  0  0  0  0  3  0  0  0  0  0  0
  188.8560  177.8500  142.7890 C   0  0  0  0  0  3  0  0  0  0  0  0
  184.2040  178.8180  141.4580 C   0  0  0  0  0  0  0  0  0  0  0  0
  187.1260  177.9210  147.0630 O   0  0  0  0  0  1  0  0  0  0  0  0
  187.2400  178.3550  139.5450 N   0  0  0  0  0  0  0  0  0  0  0  0
  191.4130  177.3140  143.5780 Cl  0  0  0  0  0  0  0  0  0  0  0  0
  183.7760  178.8220  142.7450 N   0  0  0  0  0  0  0  0  0  0  0  0
  185.5550  178.5780  141.1720 C   0  0  0  0  0  0  0  0  0  0  0  0
  183.2840  179.0580  140.3830 N   0  0  0  0  0  2  0  0  0  0  0  0
  186.8110  178.1250  144.6820 C   0  0  0  0  0  3  0  0  0  0  0  0
  190.4980  177.6430  141.0270 C   0  0  0  0  0  3  0  0  0  0  0  0
  184.6130  178.5990  143.7870 C   0  0  0  0  0  0  0  0  0  0  0  0
  184.0970  178.6180  145.0870 C   0  0  0  0  0  3  0  0  0  0  0  0
  185.9720  178.5770  139.8790 N   0  0  0  0  0  0  0  0  0  0  0  0
  188.1860  178.1180  140.4810 C   0  0  0  0  0  0  0  0  0  0  0  0
  189.5060  177.8900  140.0780 C   0  0  0  0  0  3  0  0  0  0  0  0
  179.6230  180.1010  136.9360 C   0  0  0  0  0  0  0  0  0  0  0  0
  181.4740  180.5650  138.4140 C   0  0  0  0  0  3  0  0  0  0  0  0
  179.2680  177.4990  139.9670 Cl  0  0  0  0  0  0  0  0  0  0  0  0
  178.9310  180.3670  135.8030 F   0  0  0  0  0  0  0  0  0  0  0  0
  180.7620  180.8410  137.2470 C   0  0  0  0  0  3  0  0  0  0  0  0
  179.9020  178.7990  138.9670 C   0  0  0  0  0  0  0  0  0  0  0  0
  181.0650  179.5470  139.2930 C   0  0  0  0  0  0  0  0  0  0  0  0
  179.1980  179.0860  137.7930 C   0  0  0  0  0  3  0  0  0  0  0  0
  1  8  1  0  0  0  0
  1 11  1  0  0  0  0
  2  7  1  0  0  0  0
  3  2  1  0  0  0  0
  3  9  1  0  0  0  0
  5  4  2  0  0  0  0
  6  9  2  0  0  0  0
  6 13  1  0  0  0  0
  7 19  2  0  0  0  0
  7 17  1  0  0  0  0
 10 14  2  0  0  0  0
 12 21  2  0  0  0  0
 12 22  1  0  0  0  0
 14 19  1  0  0  0  0
 15 10  1  0  0  0  0
 15  2  2  0  0  0  0
 16  5  1  0  0  0  0
 16 10  1  0  0  0  0
 17  1  2  0  0  0  0
 18  6  1  0  0  0  0
 19 20  1  0  0  0  0
 20  8  2  0  0  0  0
 21 15  1  0  0  0  0
 22  3  2  0  0  0  0
 23 22  1  0  0  0  0
 23 18  2  0  0  0  0
 24 28  2  0  0  0  0
 24 31  1  0  0  0  0
 25 30  2  0  0  0  0
 27 24  1  0  0  0  0
 28 25  1  0  0  0  0
 29 30  1  0  0  0  0
 29 26  1  0  0  0  0
 30  5  1  0  0  0  0
 31 29  2  0  0  0  0
M  END
>  <MODEL>
7

>  <REMARK>
 VINA RESULT:     -10.0      4.830      7.218
  Name = 
  1 active torsions:
  status: ('A' for Active; 'I' for Inactive)
    1  A    between atoms: C_5  and  C_30
                            x       y       z     vdW  Elec       q    Type
                         _______ _______ _______ _____ _____    ______ ____

>  <TORSDO>
F 1

$$$$
=
 OpenBabel11122411093D

 31 35  0  0  0  0  0  0  0  0999 V2000
  185.4720  178.2640  146.3190 C   0  0  0  0  0  0  0  0  0  0  0  0
  185.5980  178.3070  142.5560 C   0  0  0  0  0  0  0  0  0  0  0  0
  184.2880  178.6190  142.0920 C   0  0  0  0  0  0  0  0  0  0  0  0
  190.7210  177.1280  142.3580 O   0  0  0  0  0  0  0  0  0  0  0  0
  190.2940  177.2490  141.1790 C   0  0  0  0  0  0  0  0  0  0  0  0
  181.9330  179.1550  142.4550 C   0  0  0  0  0  0  0  0  0  0  0  0
  185.9720  178.1940  143.9290 C   0  0  0  0  0  0  0  0  0  0  0  0
  186.7980  177.9520  146.6180 C   0  0  0  0  0  3  0  0  0  0  0  0
  183.2020  178.8530  142.9540 C   0  0  0  0  0  3  0  0  0  0  0  0
  187.9140  177.7840  141.9560 C   0  0  0  0  0  0  0  0  0  0  0  0
  184.5560  178.4560  147.3440 O   0  0  0  0  0  1  0  0  0  0  0  0
  185.0710  178.4820  139.8300 N   0  0  0  0  0  0  0  0  0  0  0  0
  180.6060  179.4410  143.5600 Cl  0  0  0  0  0  0  0  0  0  0  0  0
  188.2300  177.6860  143.2720 N   0  0  0  0  0  0  0  0  0  0  0  0
  186.6020  178.0950  141.5740 C   0  0  0  0  0  0  0  0  0  0  0  0
  188.9140  177.5730  140.9490 N   0  0  0  0  0  2  0  0  0  0  0  0
  185.0660  178.3830  144.9890 C   0  0  0  0  0  3  0  0  0  0  0  0
  181.7240  179.2310  141.0780 C   0  0  0  0  0  3  0  0  0  0  0  0
  187.3150  177.8780  144.2520 C   0  0  0  0  0  0  0  0  0  0  0  0
  187.7170  177.7600  145.5870 C   0  0  0  0  0  3  0  0  0  0  0  0
  186.2970  178.1900  140.2540 N   0  0  0  0  0  0  0  0  0  0  0  0
  184.0560  178.6990  140.6980 C   0  0  0  0  0  0  0  0  0  0  0  0
  182.7840  179.0020  140.2010 C   0  0  0  0  0  3  0  0  0  0  0  0
  193.0440  176.7530  137.9100 C   0  0  0  0  0  0  0  0  0  0  0  0
  192.5740  177.2810  140.2180 C   0  0  0  0  0  3  0  0  0  0  0  0
  189.0730  176.3770  138.3200 Cl  0  0  0  0  0  0  0  0  0  0  0  0
  193.9310  176.6030  136.8980 F   0  0  0  0  0  0  0  0  0  0  0  0
  193.4890  177.1270  139.1770 C   0  0  0  0  0  3  0  0  0  0  0  0
  190.7570  176.6830  138.7230 C   0  0  0  0  0  0  0  0  0  0  0  0
  191.2000  177.0630  140.0180 C   0  0  0  0  0  0  0  0  0  0  0  0
  191.6850  176.5320  137.6870 C   0  0  0  0  0  3  0  0  0  0  0  0
  1  8  1  0  0  0  0
  1 11  1  0  0  0  0
  2  7  1  0  0  0  0
  3  2  1  0  0  0  0
  3  9  1  0  0  0  0
  5  4  2  0  0  0  0
  6  9  2  0  0  0  0
  6 13  1  0  0  0  0
  7 19  2  0  0  0  0
  7 17  1  0  0  0  0
 10 14  2  0  0  0  0
 12 21  2  0  0  0  0
 12 22  1  0  0  0  0
 14 19  1  0  0  0  0
 15 10  1  0  0  0  0
 15  2  2  0  0  0  0
 16  5  1  0  0  0  0
 16 10  1  0  0  0  0
 17  1  2  0  0  0  0
 18  6  1  0  0  0  0
 19 20  1  0  0  0  0
 20  8  2  0  0  0  0
 21 15  1  0  0  0  0
 22  3  2  0  0  0  0
 23 22  1  0  0  0  0
 23 18  2  0  0  0  0
 24 28  1  0  0  0  0
 26 29  1  0  0  0  0
 27 24  1  0  0  0  0
 28 25  2  0  0  0  0
 29 30  2  0  0  0  0
 30 25  1  0  0  0  0
 30  5  1  0  0  0  0
 31 24  2  0  0  0  0
 31 29  1  0  0  0  0
M  END
>  <MODEL>
8

>  <REMARK>
 VINA RESULT:      -9.8      2.643      4.996
  Name = 
  1 active torsions:
  status: ('A' for Active; 'I' for Inactive)
    1  A    between atoms: C_5  and  C_30
                            x       y       z     vdW  Elec       q    Type
                         _______ _______ _______ _____ _____    ______ ____

>  <TORSDO>
F 1

$$$$
=
 OpenBabel11122411093D

 31 35  0  0  0  0  0  0  0  0999 V2000
  191.6190  176.0220  146.0040 C   0  0  0  0  0  0  0  0  0  0  0  0
  188.5070  177.4270  144.4190 C   0  0  0  0  0  0  0  0  0  0  0  0
  187.6470  177.8480  145.4750 C   0  0  0  0  0  0  0  0  0  0  0  0
  190.1790  176.5480  139.5100 O   0  0  0  0  0  0  0  0  0  0  0  0
  189.0360  177.0750  139.4540 C   0  0  0  0  0  0  0  0  0  0  0  0
  187.1060  178.1490  147.8380 C   0  0  0  0  0  0  0  0  0  0  0  0
  189.7930  176.8360  144.6020 C   0  0  0  0  0  0  0  0  0  0  0  0
  192.3460  175.6620  144.8710 C   0  0  0  0  0  3  0  0  0  0  0  0
  187.9800  177.7230  146.8350 C   0  0  0  0  0  3  0  0  0  0  0  0
  188.8340  177.2230  142.0010 C   0  0  0  0  0  0  0  0  0  0  0  0
  192.1500  175.8040  147.2680 O   0  0  0  0  0  1  0  0  0  0  0  0
  186.0290  178.5610  143.8550 N   0  0  0  0  0  0  0  0  0  0  0  0
  187.5570  177.9770  149.5200 Cl  0  0  0  0  0  0  0  0  0  0  0  0
  190.0520  176.6650  142.2160 N   0  0  0  0  0  0  0  0  0  0  0  0
  188.0430  177.6130  143.0900 C   0  0  0  0  0  0  0  0  0  0  0  0
  188.3480  177.4200  140.6650 N   0  0  0  0  0  2  0  0  0  0  0  0
  190.3570  176.6030  145.8700 C   0  0  0  0  0  3  0  0  0  0  0  0
  185.8760  178.7110  147.4980 C   0  0  0  0  0  3  0  0  0  0  0  0
  190.5460  176.4630  143.4600 C   0  0  0  0  0  0  0  0  0  0  0  0
  191.8110  175.8820  143.6020 C   0  0  0  0  0  3  0  0  0  0  0  0
  186.8250  178.1710  142.8630 N   0  0  0  0  0  0  0  0  0  0  0  0
  186.3940  178.4200  145.1500 C   0  0  0  0  0  0  0  0  0  0  0  0
  185.5200  178.8460  146.1560 C   0  0  0  0  0  3  0  0  0  0  0  0
  187.0210  177.9090  135.7470 C   0  0  0  0  0  0  0  0  0  0  0  0
  187.0640  177.8220  138.1590 C   0  0  0  0  0  3  0  0  0  0  0  0
  190.6730  176.5660  136.7180 Cl  0  0  0  0  0  0  0  0  0  0  0  0
  186.3650  178.1790  134.5940 F   0  0  0  0  0  0  0  0  0  0  0  0
  186.3860  178.1010  136.9720 C   0  0  0  0  0  3  0  0  0  0  0  0
  189.0250  177.1540  136.8920 C   0  0  0  0  0  0  0  0  0  0  0  0
  188.3870  177.3480  138.1460 C   0  0  0  0  0  0  0  0  0  0  0  0
  188.3330  177.4380  135.7100 C   0  0  0  0  0  3  0  0  0  0  0  0
  1 11  1  0  0  0  0
  2  7  1  0  0  0  0
  2  3  1  0  0  0  0
  3  9  1  0  0  0  0
  5  4  2  0  0  0  0
  5 16  1  0  0  0  0
  6 13  1  0  0  0  0
  7 17  2  0  0  0  0
  8  1  2  0  0  0  0
  9  6  2  0  0  0  0
 10 14  2  0  0  0  0
 10 15  1  0  0  0  0
 12 22  1  0  0  0  0
 14 19  1  0  0  0  0
 15  2  2  0  0  0  0
 16 10  1  0  0  0  0
 17  1  1  0  0  0  0
 18  6  1  0  0  0  0
 19 20  2  0  0  0  0
 19  7  1  0  0  0  0
 20  8  1  0  0  0  0
 21 15  1  0  0  0  0
 21 12  2  0  0  0  0
 22  3  2  0  0  0  0
 22 23  1  0  0  0  0
 23 18  2  0  0  0  0
 24 28  1  0  0  0  0
 26 29  1  0  0  0  0
 27 24  1  0  0  0  0
 28 25  2  0  0  0  0
 29 30  2  0  0  0  0
 30 25  1  0  0  0  0
 30  5  1  0  0  0  0
 31 24  2  0  0  0  0
 31 29  1  0  0  0  0
M  END
>  <MODEL>
9

>  <REMARK>
 VINA RESULT:      -9.7      2.674      4.437
  Name = 
  1 active torsions:
  status: ('A' for Active; 'I' for Inactive)
    1  A    between atoms: C_5  and  C_30
                            x       y       z     vdW  Elec       q    Type
                         _______ _______ _______ _____ _____    ______ ____

>  <TORSDO>
F 1

$$$$
