=
 OpenBabel11122411303D

 37 44  0  0  1  0  0  0  0  0999 V2000
  186.7900  175.0500  137.1860 C   0  0  0  0  0  2  0  0  0  0  0  0
  191.1730  176.6690  137.8890 C   0  0  1  0  0  0  0  0  0  0  0  0
  187.5750  177.8480  139.6510 C   0  0  0  0  0  0  0  0  0  0  0  0
  186.7510  173.8870  136.1900 C   0  0  2  0  0  3  0  0  0  0  0  0
  184.4090  178.1930  137.3260 C   0  0  0  0  0  2  0  0  0  0  0  0
  189.9480  177.4510  139.9070 C   0  0  0  0  0  0  0  0  0  0  0  0
  186.6270  177.8940  138.5760 N   0  0  0  0  0  0  0  0  0  0  0  0
  184.4570  174.7240  135.6090 C   0  0  0  0  0  0  0  0  0  0  0  0
  188.7820  177.4390  139.1760 C   0  0  0  0  0  0  0  0  0  0  0  0
  185.2470  178.3910  138.5750 C   0  0  0  0  0  0  0  0  0  0  0  0
  189.8780  177.8240  141.2520 C   0  0  0  0  0  3  0  0  0  0  0  0
  185.6990  174.0660  135.0910 C   0  0  0  0  0  2  0  0  0  0  0  0
  188.7640  177.1980  137.8030 N   0  0  0  0  0  0  0  0  0  0  0  0
  191.0810  175.1540  137.8920 C   0  0  0  0  0  1  0  0  0  0  0  0
  186.2560  178.7410  141.6080 C   0  0  0  0  0  3  0  0  0  0  0  0
  188.6330  178.2150  141.7900 C   0  0  0  0  0  3  0  0  0  0  0  0
  190.0090  177.2460  137.0410 C   0  0  0  0  0  2  0  0  0  0  0  0
  184.3300  176.2200  135.6030 C   0  0  1  0  0  3  0  0  0  0  0  0
  184.6260  176.7730  136.9130 C   0  0  1  0  0  3  0  0  0  0  0  0
  187.4700  178.2540  140.9850 C   0  0  0  0  0  0  0  0  0  0  0  0
  187.4250  177.5560  137.3450 C   0  0  1  0  0  3  0  0  0  0  0  0
  191.1480  177.1480  139.2500 O   0  0  0  0  0  0  0  0  0  0  0  0
  184.6050  178.9250  139.6540 C   0  0  0  0  0  0  0  0  0  0  0  0
  192.3710  177.0340  137.3060 F   0  0  0  0  0  0  0  0  0  0  0  0
  185.6190  176.9160  135.8360 N   0  0  1  0  0  0  0  0  0  0  0  0
  183.5450  174.0380  136.0430 O   0  0  0  0  0  0  0  0  0  0  0  0
  186.8490  176.4170  136.4750 C   0  0  2  0  0  3  0  0  0  0  0  0
  185.0910  179.0130  141.0440 C   0  0  0  0  0  3  0  0  0  0  0  0
  182.1530  178.8130  140.1510 C   0  0  0  0  0  3  0  0  0  0  0  0
  183.2270  179.4590  139.5190 C   0  0  0  0  0  0  0  0  0  0  0  0
  182.9870  180.6360  138.7920 C   0  0  0  0  0  3  0  0  0  0  0  0
  181.4030  182.6100  137.7670 Cl  0  0  0  0  0  0  0  0  0  0  0  0
  180.6270  180.4920  139.3070 C   0  0  0  0  0  3  0  0  0  0  0  0
  181.6910  181.1470  138.6840 C   0  0  0  0  0  0  0  0  0  0  0  0
  180.8580  179.3260  140.0420 C   0  0  0  0  0  3  0  0  0  0  0  0
  185.8240  172.8170  138.1150 O   0  0  0  0  0  1  0  0  0  0  0  0
  186.5150  172.5790  136.9260 C   0  0  0  0  0  2  0  0  0  0  0  0
  2 14  1  1  0  0  0
  2 22  1  0  0  0  0
  3 20  1  0  0  0  0
  4 37  1  1  0  0  0
  4  1  1  0  0  0  0
  5 10  1  0  0  0  0
  6 11  2  0  0  0  0
  7  3  1  0  0  0  0
  8 26  2  0  0  0  0
  9  3  2  0  0  0  0
  9  6  1  0  0  0  0
 10  7  1  0  0  0  0
 10 23  2  0  0  0  0
 11 16  1  0  0  0  0
 12  8  1  0  0  0  0
 12  4  1  0  0  0  0
 13  9  1  0  0  0  0
 17 13  1  0  0  0  0
 17  2  1  0  0  0  0
 18  8  1  1  0  0  0
 18 25  1  0  0  0  0
 18 19  1  0  0  0  0
 19  5  1  6  0  0  0
 20 15  1  0  0  0  0
 20 16  2  0  0  0  0
 21 13  1  1  0  0  0
 21  7  1  0  0  0  0
 22  6  1  0  0  0  0
 23 28  1  0  0  0  0
 24  2  1  0  0  0  0
 25 27  1  0  0  0  0
 25 19  1  0  0  0  0
 27  1  1  0  0  0  0
 27 21  1  0  0  0  0
 28 15  2  0  0  0  0
 30 23  1  0  0  0  0
 30 29  2  0  0  0  0
 31 30  1  0  0  0  0
 32 34  1  0  0  0  0
 33 35  2  0  0  0  0
 34 31  2  0  0  0  0
 34 33  1  0  0  0  0
 35 29  1  0  0  0  0
 37 36  1  0  0  0  0
M  END
>  <MODEL>
1

>  <REMARK>
 VINA RESULT:      -7.9      0.000      0.000
  Name = 
  2 active torsions:
  status: ('A' for Active; 'I' for Inactive)
    1  A    between atoms: C_4  and  C_37
    2  A    between atoms: C_23  and  C_30
                            x       y       z     vdW  Elec       q    Type
                         _______ _______ _______ _____ _____    ______ ____

>  <TORSDO>
F 2

$$$$
=
 OpenBabel11122411303D

 37 44  0  0  1  0  0  0  0  0999 V2000
  180.7390  180.2650  139.2910 C   0  0  0  0  0  2  0  0  0  0  0  0
  180.0890  178.7000  143.7020 C   0  0  1  0  0  0  0  0  0  0  0  0
  183.5450  178.7200  141.3560 C   0  0  0  0  0  0  0  0  0  0  0  0
  179.4720  180.8920  138.7030 C   0  0  2  0  0  3  0  0  0  0  0  0
  183.2010  177.7140  137.5590 C   0  0  0  0  0  2  0  0  0  0  0  0
  182.5570  178.9670  143.5510 C   0  0  0  0  0  0  0  0  0  0  0  0
  183.1150  178.3090  140.0500 N   0  0  0  0  0  0  0  0  0  0  0  0
  180.3500  180.1040  136.4870 C   0  0  0  0  0  0  0  0  0  0  0  0
  182.4730  178.7750  142.1910 C   0  0  0  0  0  0  0  0  0  0  0  0
  183.9200  177.9890  138.8660 C   0  0  0  0  0  0  0  0  0  0  0  0
  183.8180  179.2100  144.1040 C   0  0  0  0  0  3  0  0  0  0  0  0
  179.1240  180.3620  137.3080 C   0  0  0  0  0  2  0  0  0  0  0  0
  181.2840  178.4100  141.5610 N   0  0  0  0  0  0  0  0  0  0  0  0
  179.4940  180.0740  143.4540 C   0  0  0  0  0  1  0  0  0  0  0  0
  186.0510  178.8690  141.1080 C   0  0  0  0  0  3  0  0  0  0  0  0
  184.9490  179.2000  143.2600 C   0  0  0  0  0  3  0  0  0  0  0  0
  180.1580  177.9290  142.3580 C   0  0  0  0  0  2  0  0  0  0  0  0
  181.0300  178.7660  136.5350 C   0  0  1  0  0  3  0  0  0  0  0  0
  182.1810  178.7970  137.4210 C   0  0  1  0  0  3  0  0  0  0  0  0
  184.8250  178.9310  141.8760 C   0  0  0  0  0  0  0  0  0  0  0  0
  181.6460  178.0170  140.2030 C   0  0  1  0  0  3  0  0  0  0  0  0
  181.3880  178.8500  144.3150 O   0  0  0  0  0  0  0  0  0  0  0  0
  185.2820  178.0260  138.8110 C   0  0  0  0  0  0  0  0  0  0  0  0
  179.2610  178.0130  144.5680 F   0  0  0  0  0  0  0  0  0  0  0  0
  180.9520  178.1180  137.8680 N   0  0  1  0  0  0  0  0  0  0  0  0
  180.8020  180.9900  135.7800 O   0  0  0  0  0  0  0  0  0  0  0  0
  180.7220  178.7260  139.1900 C   0  0  2  0  0  3  0  0  0  0  0  0
  186.2190  178.4920  139.8500 C   0  0  0  0  0  3  0  0  0  0  0  0
  186.7490  178.5500  136.8500 C   0  0  0  0  0  3  0  0  0  0  0  0
  185.9940  177.6150  137.5740 C   0  0  0  0  0  0  0  0  0  0  0  0
  185.9510  176.2810  137.1390 C   0  0  0  0  0  3  0  0  0  0  0  0
  186.5720  174.2300  135.4470 Cl  0  0  0  0  0  0  0  0  0  0  0  0
  187.3810  176.8320  135.2650 C   0  0  0  0  0  3  0  0  0  0  0  0
  186.6390  175.8930  135.9860 C   0  0  0  0  0  0  0  0  0  0  0  0
  187.4370  178.1590  135.6970 C   0  0  0  0  0  3  0  0  0  0  0  0
  178.9310  182.9760  139.7380 O   0  0  0  0  0  1  0  0  0  0  0  0
  179.6100  182.4050  138.6610 C   0  0  0  0  0  2  0  0  0  0  0  0
  2 14  1  6  0  0  0
  2 22  1  0  0  0  0
  2 24  1  0  0  0  0
  3 20  2  0  0  0  0
  3  9  1  0  0  0  0
  4 37  1  6  0  0  0
  4  1  1  0  0  0  0
  5 10  1  0  0  0  0
  6 11  1  0  0  0  0
  6 22  1  0  0  0  0
  7  3  1  0  0  0  0
  8 12  1  0  0  0  0
  9  6  2  0  0  0  0
 10  7  1  0  0  0  0
 12  4  1  0  0  0  0
 13  9  1  0  0  0  0
 13 17  1  0  0  0  0
 15 20  1  0  0  0  0
 16 11  2  0  0  0  0
 17  2  1  0  0  0  0
 18  8  1  1  0  0  0
 18 19  1  0  0  0  0
 18 25  1  0  0  0  0
 19  5  1  6  0  0  0
 19 25  1  0  0  0  0
 20 16  1  0  0  0  0
 21  7  1  6  0  0  0
 21 13  1  0  0  0  0
 23 10  2  0  0  0  0
 23 28  1  0  0  0  0
 25 27  1  0  0  0  0
 26  8  2  0  0  0  0
 27  1  1  0  0  0  0
 27 21  1  0  0  0  0
 28 15  2  0  0  0  0
 29 30  1  0  0  0  0
 30 23  1  0  0  0  0
 31 30  2  0  0  0  0
 32 34  1  0  0  0  0
 33 35  1  0  0  0  0
 33 34  2  0  0  0  0
 34 31  1  0  0  0  0
 35 29  2  0  0  0  0
 37 36  1  0  0  0  0
M  END
>  <MODEL>
2

>  <REMARK>
 VINA RESULT:      -7.7      4.771      7.929
  Name = 
  2 active torsions:
  status: ('A' for Active; 'I' for Inactive)
    1  A    between atoms: C_4  and  C_37
    2  A    between atoms: C_23  and  C_30
                            x       y       z     vdW  Elec       q    Type
                         _______ _______ _______ _____ _____    ______ ____

>  <TORSDO>
F 2

$$$$
=
 OpenBabel11122411303D

 37 44  0  0  1  0  0  0  0  0999 V2000
  185.0730  176.7710  138.3250 C   0  0  0  0  0  2  0  0  0  0  0  0
  188.9780  177.9880  135.9590 C   0  0  1  0  0  0  0  0  0  0  0  0
  188.4190  177.3600  140.0500 C   0  0  0  0  0  0  0  0  0  0  0  0
  183.8780  176.5380  137.3960 C   0  0  2  0  0  3  0  0  0  0  0  0
  185.1440  178.8020  141.7070 C   0  0  0  0  0  2  0  0  0  0  0  0
  189.8650  177.1400  138.1230 C   0  0  0  0  0  0  0  0  0  0  0  0
  187.1710  177.9950  140.3610 N   0  0  0  0  0  0  0  0  0  0  0  0
  182.4780  177.3090  139.3310 C   0  0  0  0  0  0  0  0  0  0  0  0
  188.6740  177.4850  138.7200 C   0  0  0  0  0  0  0  0  0  0  0  0
  186.5480  178.2270  141.6690 C   0  0  0  0  0  0  0  0  0  0  0  0
  190.8490  176.5400  138.9130 C   0  0  0  0  0  3  0  0  0  0  0  0
  182.6120  177.2780  137.8400 C   0  0  0  0  0  2  0  0  0  0  0  0
  187.6800  178.1930  138.0490 N   0  0  0  0  0  0  0  0  0  0  0  0
  188.2220  176.8360  135.3250 C   0  0  0  0  0  1  0  0  0  0  0  0
  189.2610  176.6250  142.3130 C   0  0  0  0  0  3  0  0  0  0  0  0
  190.6020  176.3570  140.2910 C   0  0  0  0  0  3  0  0  0  0  0  0
  187.9870  178.8520  136.7820 C   0  0  0  0  0  2  0  0  0  0  0  0
  183.0890  178.4270  140.1270 C   0  0  1  0  0  3  0  0  0  0  0  0
  184.3590  178.0230  140.7020 C   0  0  1  0  0  3  0  0  0  0  0  0
  189.3900  176.7880  140.8790 C   0  0  0  0  0  0  0  0  0  0  0  0
  186.7260  178.6220  139.0670 C   0  0  1  0  0  3  0  0  0  0  0  0
  190.0500  177.4630  136.7710 O   0  0  0  0  0  0  0  0  0  0  0  0
  187.0840  177.8620  142.8690 C   0  0  0  0  0  0  0  0  0  0  0  0
  189.5170  178.7660  134.9530 F   0  0  0  0  0  0  0  0  0  0  0  0
  184.3550  178.9330  139.5450 N   0  0  1  0  0  0  0  0  0  0  0  0
  181.8730  176.4160  139.9030 O   0  0  0  0  0  0  0  0  0  0  0  0
  185.2900  178.2690  138.6210 C   0  0  2  0  0  3  0  0  0  0  0  0
  188.3080  177.0760  143.1120 C   0  0  0  0  0  3  0  0  0  0  0  0
  185.0410  178.5820  144.1250 C   0  0  0  0  0  3  0  0  0  0  0  0
  186.3930  178.2090  144.1360 C   0  0  0  0  0  0  0  0  0  0  0  0
  187.0730  178.1300  145.3620 C   0  0  0  0  0  3  0  0  0  0  0  0
  187.2750  178.3450  148.0760 Cl  0  0  0  0  0  0  0  0  0  0  0  0
  185.0710  178.8180  146.5340 C   0  0  0  0  0  3  0  0  0  0  0  0
  186.4150  178.4380  146.5550 C   0  0  0  0  0  0  0  0  0  0  0  0
  184.3830  178.8880  145.3200 C   0  0  0  0  0  3  0  0  0  0  0  0
  184.7420  174.3190  137.5810 O   0  0  0  0  0  1  0  0  0  0  0  0
  183.5940  175.0510  137.2760 C   0  0  0  0  0  2  0  0  0  0  0  0
  1 27  1  0  0  0  0
  2 14  1  6  0  0  0
  2 22  1  0  0  0  0
  2 17  1  0  0  0  0
  3  7  1  0  0  0  0
  3 20  1  0  0  0  0
  4 37  1  1  0  0  0
  4 12  1  0  0  0  0
  4  1  1  0  0  0  0
  6  9  1  0  0  0  0
  6 11  2  0  0  0  0
  7 10  1  0  0  0  0
  8 26  2  0  0  0  0
  9  3  2  0  0  0  0
 10  5  1  0  0  0  0
 10 23  2  0  0  0  0
 11 16  1  0  0  0  0
 12  8  1  0  0  0  0
 13  9  1  0  0  0  0
 15 28  2  0  0  0  0
 16 20  2  0  0  0  0
 17 13  1  0  0  0  0
 18  8  1  6  0  0  0
 18 19  1  0  0  0  0
 19  5  1  1  0  0  0
 20 15  1  0  0  0  0
 21 13  1  6  0  0  0
 21  7  1  0  0  0  0
 22  6  1  0  0  0  0
 23 28  1  0  0  0  0
 23 30  1  0  0  0  0
 24  2  1  0  0  0  0
 25 18  1  0  0  0  0
 25 19  1  0  0  0  0
 27 21  1  0  0  0  0
 27 25  1  0  0  0  0
 29 30  2  0  0  0  0
 29 35  1  0  0  0  0
 30 31  1  0  0  0  0
 31 34  2  0  0  0  0
 33 34  1  0  0  0  0
 34 32  1  0  0  0  0
 35 33  2  0  0  0  0
 37 36  1  0  0  0  0
M  END
>  <MODEL>
3

>  <REMARK>
 VINA RESULT:      -7.3      3.133      4.816
  Name = 
  2 active torsions:
  status: ('A' for Active; 'I' for Inactive)
    1  A    between atoms: C_4  and  C_37
    2  A    between atoms: C_23  and  C_30
                            x       y       z     vdW  Elec       q    Type
                         _______ _______ _______ _____ _____    ______ ____

>  <TORSDO>
F 2

$$$$
=
 OpenBabel11122411303D

 37 44  0  0  1  0  0  0  0  0999 V2000
  185.6320  174.8180  136.6270 C   0  0  0  0  0  2  0  0  0  0  0  0
  189.9810  176.5150  135.8970 C   0  0  1  0  0  0  0  0  0  0  0  0
  187.0330  177.7820  138.5700 C   0  0  0  0  0  0  0  0  0  0  0  0
  185.3320  173.5920  135.7620 C   0  0  2  0  0  3  0  0  0  0  0  0
  183.3130  177.9450  137.2710 C   0  0  0  0  0  2  0  0  0  0  0  0
  189.3850  177.4220  138.1350 C   0  0  0  0  0  0  0  0  0  0  0  0
  185.8080  177.7490  137.8240 N   0  0  0  0  0  0  0  0  0  0  0  0
  182.9470  174.3690  135.8350 C   0  0  0  0  0  0  0  0  0  0  0  0
  188.0560  177.3520  137.7850 C   0  0  0  0  0  0  0  0  0  0  0  0
  184.4770  178.2340  138.2010 C   0  0  0  0  0  0  0  0  0  0  0  0
  189.7050  177.8830  139.4150 C   0  0  0  0  0  3  0  0  0  0  0  0
  183.9980  173.6870  135.0140 C   0  0  0  0  0  2  0  0  0  0  0  0
  187.6400  177.0190  136.4970 N   0  0  0  0  0  0  0  0  0  0  0  0
  189.9350  175.0030  136.0210 C   0  0  0  0  0  1  0  0  0  0  0  0
  186.3270  178.7950  140.7710 C   0  0  0  0  0  3  0  0  0  0  0  0
  188.6640  178.3010  140.2720 C   0  0  0  0  0  3  0  0  0  0  0  0
  188.6040  177.0240  135.3990 C   0  0  0  0  0  2  0  0  0  0  0  0
  182.7830  175.8610  135.7750 C   0  0  1  0  0  3  0  0  0  0  0  0
  183.4370  176.5030  136.9020 C   0  0  1  0  0  3  0  0  0  0  0  0
  187.3150  178.2760  139.8470 C   0  0  0  0  0  0  0  0  0  0  0  0
  186.2160  177.3350  136.4350 C   0  0  1  0  0  3  0  0  0  0  0  0
  190.3460  177.0850  137.1730 O   0  0  0  0  0  0  0  0  0  0  0  0
  184.1680  178.8340  139.3870 C   0  0  0  0  0  0  0  0  0  0  0  0
  190.9430  176.8490  134.9640 F   0  0  0  0  0  0  0  0  0  0  0  0
  184.0640  176.5810  135.5710 N   0  0  1  0  0  0  0  0  0  0  0  0
  182.2230  173.7080  136.5620 O   0  0  0  0  0  0  0  0  0  0  0  0
  185.4410  176.1360  135.8480 C   0  0  2  0  0  3  0  0  0  0  0  0
  185.0400  179.0200  140.5620 C   0  0  0  0  0  3  0  0  0  0  0  0
  182.3070  180.4380  138.9000 C   0  0  0  0  0  3  0  0  0  0  0  0
  182.7970  179.3470  139.6330 C   0  0  0  0  0  0  0  0  0  0  0  0
  181.9630  178.7220  140.5740 C   0  0  0  0  0  3  0  0  0  0  0  0
  179.6370  178.4140  141.9710 Cl  0  0  0  0  0  0  0  0  0  0  0  0
  180.1890  180.2880  140.0630 C   0  0  0  0  0  3  0  0  0  0  0  0
  180.6650  179.1940  140.7900 C   0  0  0  0  0  0  0  0  0  0  0  0
  181.0090  180.9080  139.1170 C   0  0  0  0  0  3  0  0  0  0  0  0
  185.1990  172.6650  137.9590 O   0  0  0  0  0  1  0  0  0  0  0  0
  185.3590  172.3340  136.6140 C   0  0  0  0  0  2  0  0  0  0  0  0
  2 14  1  1  0  0  0
  2 22  1  0  0  0  0
  3 20  1  0  0  0  0
  4 37  1  1  0  0  0
  4  1  1  0  0  0  0
  5 10  1  0  0  0  0
  6 11  2  0  0  0  0
  7 10  1  0  0  0  0
  7  3  1  0  0  0  0
  8 26  2  0  0  0  0
  9  6  1  0  0  0  0
  9  3  2  0  0  0  0
 10 23  2  0  0  0  0
 11 16  1  0  0  0  0
 12  4  1  0  0  0  0
 12  8  1  0  0  0  0
 13  9  1  0  0  0  0
 17  2  1  0  0  0  0
 17 13  1  0  0  0  0
 18  8  1  1  0  0  0
 18 19  1  0  0  0  0
 19  5  1  6  0  0  0
 20 16  2  0  0  0  0
 20 15  1  0  0  0  0
 21 13  1  1  0  0  0
 21  7  1  0  0  0  0
 22  6  1  0  0  0  0
 23 30  1  0  0  0  0
 23 28  1  0  0  0  0
 24  2  1  0  0  0  0
 25 18  1  0  0  0  0
 25 27  1  0  0  0  0
 25 19  1  0  0  0  0
 27 21  1  0  0  0  0
 27  1  1  0  0  0  0
 28 15  2  0  0  0  0
 29 35  2  0  0  0  0
 29 30  1  0  0  0  0
 30 31  2  0  0  0  0
 31 34  1  0  0  0  0
 33 34  2  0  0  0  0
 34 32  1  0  0  0  0
 35 33  1  0  0  0  0
 37 36  1  0  0  0  0
M  END
>  <MODEL>
4

>  <REMARK>
 VINA RESULT:      -7.2      1.631      1.935
  Name = 
  2 active torsions:
  status: ('A' for Active; 'I' for Inactive)
    1  A    between atoms: C_4  and  C_37
    2  A    between atoms: C_23  and  C_30
                            x       y       z     vdW  Elec       q    Type
                         _______ _______ _______ _____ _____    ______ ____

>  <TORSDO>
F 2

$$$$
=
 OpenBabel11122411303D

 37 44  0  0  1  0  0  0  0  0999 V2000
  188.0220  176.3400  138.3950 C   0  0  0  0  0  2  0  0  0  0  0  0
  192.4390  177.3070  139.7670 C   0  0  1  0  0  0  0  0  0  0  0  0
  188.9130  177.1870  142.0020 C   0  0  0  0  0  0  0  0  0  0  0  0
  187.9390  175.9760  136.9100 C   0  0  2  0  0  3  0  0  0  0  0  0
  185.6710  178.7790  140.4180 C   0  0  0  0  0  2  0  0  0  0  0  0
  191.2900  176.7490  141.9010 C   0  0  0  0  0  0  0  0  0  0  0  0
  187.9280  177.8380  141.1870 N   0  0  0  0  0  0  0  0  0  0  0  0
  185.6330  176.9630  137.0000 C   0  0  0  0  0  0  0  0  0  0  0  0
  190.0990  177.1490  141.3390 C   0  0  0  0  0  0  0  0  0  0  0  0
  186.5530  178.2240  141.5210 C   0  0  0  0  0  0  0  0  0  0  0  0
  191.2690  176.2650  143.2120 C   0  0  0  0  0  3  0  0  0  0  0  0
  186.8520  176.7480  136.1560 C   0  0  0  0  0  2  0  0  0  0  0  0
  190.0320  177.7530  140.0850 N   0  0  0  0  0  0  0  0  0  0  0  0
  192.3350  176.0730  138.8890 C   0  0  0  0  0  1  0  0  0  0  0  0
  187.6690  176.7530  144.1550 C   0  0  0  0  0  3  0  0  0  0  0  0
  190.0470  176.2530  143.9170 C   0  0  0  0  0  3  0  0  0  0  0  0
  191.2510  178.2530  139.4530 C   0  0  0  0  0  2  0  0  0  0  0  0
  185.5180  178.1800  137.8730 C   0  0  1  0  0  3  0  0  0  0  0  0
  185.8630  177.8700  139.2490 C   0  0  1  0  0  3  0  0  0  0  0  0
  188.8570  176.7380  143.3250 C   0  0  0  0  0  0  0  0  0  0  0  0
  188.6810  178.2930  139.9640 C   0  0  1  0  0  3  0  0  0  0  0  0
  192.4650  176.9020  141.1520 O   0  0  0  0  0  0  0  0  0  0  0  0
  185.9540  178.0190  142.7290 C   0  0  0  0  0  0  0  0  0  0  0  0
  193.6190  177.9590  139.4680 F   0  0  0  0  0  0  0  0  0  0  0  0
  186.8200  178.6280  138.4250 N   0  0  1  0  0  0  0  0  0  0  0  0
  184.7320  176.1400  136.9830 O   0  0  0  0  0  0  0  0  0  0  0  0
  188.0660  177.8670  138.6130 C   0  0  2  0  0  3  0  0  0  0  0  0
  186.4870  177.2870  143.8930 C   0  0  0  0  0  3  0  0  0  0  0  0
  184.2900  179.2710  144.1210 C   0  0  0  0  0  3  0  0  0  0  0  0
  184.5750  178.5120  142.9760 C   0  0  0  0  0  0  0  0  0  0  0  0
  183.5530  178.2600  142.0470 C   0  0  0  0  0  3  0  0  0  0  0  0
  180.9910  178.4140  141.1130 Cl  0  0  0  0  0  0  0  0  0  0  0  0
  181.9820  179.4880  143.4200 C   0  0  0  0  0  3  0  0  0  0  0  0
  182.2610  178.7430  142.2720 C   0  0  0  0  0  0  0  0  0  0  0  0
  182.9970  179.7530  144.3430 C   0  0  0  0  0  3  0  0  0  0  0  0
  188.8790  173.7880  137.0960 O   0  0  0  0  0  1  0  0  0  0  0  0
  187.7180  174.4810  136.7510 C   0  0  0  0  0  2  0  0  0  0  0  0
  1 27  1  0  0  0  0
  2 14  1  6  0  0  0
  2 22  1  0  0  0  0
  3 20  1  0  0  0  0
  4 37  1  1  0  0  0
  4  1  1  0  0  0  0
  5 10  1  0  0  0  0
  6 11  2  0  0  0  0
  7 10  1  0  0  0  0
  7  3  1  0  0  0  0
  9  6  1  0  0  0  0
  9  3  2  0  0  0  0
 10 23  2  0  0  0  0
 11 16  1  0  0  0  0
 12  4  1  0  0  0  0
 12  8  1  0  0  0  0
 13  9  1  0  0  0  0
 17  2  1  0  0  0  0
 17 13  1  0  0  0  0
 18  8  1  6  0  0  0
 18 25  1  0  0  0  0
 18 19  1  0  0  0  0
 19  5  1  1  0  0  0
 20 16  2  0  0  0  0
 20 15  1  0  0  0  0
 21 13  1  1  0  0  0
 21  7  1  0  0  0  0
 22  6  1  0  0  0  0
 23 30  1  0  0  0  0
 23 28  1  0  0  0  0
 24  2  1  0  0  0  0
 25 27  1  0  0  0  0
 25 19  1  0  0  0  0
 26  8  2  0  0  0  0
 27 21  1  0  0  0  0
 28 15  2  0  0  0  0
 29 35  1  0  0  0  0
 30 29  2  0  0  0  0
 31 34  2  0  0  0  0
 31 30  1  0  0  0  0
 32 34  1  0  0  0  0
 33 35  2  0  0  0  0
 34 33  1  0  0  0  0
 37 36  1  0  0  0  0
M  END
>  <MODEL>
5

>  <REMARK>
 VINA RESULT:      -6.6      2.317      3.269
  Name = 
  2 active torsions:
  status: ('A' for Active; 'I' for Inactive)
    1  A    between atoms: C_4  and  C_37
    2  A    between atoms: C_23  and  C_30
                            x       y       z     vdW  Elec       q    Type
                         _______ _______ _______ _____ _____    ______ ____

>  <TORSDO>
F 2

$$$$
=
 OpenBabel11122411303D

 37 44  0  0  1  0  0  0  0  0999 V2000
  188.3050  176.9950  141.0310 C   0  0  0  0  0  2  0  0  0  0  0  0
  184.5320  178.5510  138.6510 C   0  0  1  0  0  0  0  0  0  0  0  0
  187.5600  175.9390  137.4470 C   0  0  0  0  0  0  0  0  0  0  0  0
  188.3460  177.5210  142.4690 C   0  0  2  0  0  3  0  0  0  0  0  0
  191.2710  176.8390  138.4330 C   0  0  0  0  0  2  0  0  0  0  0  0
  185.2150  176.5280  137.3750 C   0  0  0  0  0  0  0  0  0  0  0  0
  188.7760  176.5240  137.9320 N   0  0  0  0  0  0  0  0  0  0  0  0
  190.8410  177.3740  142.2420 C   0  0  0  0  0  0  0  0  0  0  0  0
  186.5040  176.7100  137.8210 C   0  0  0  0  0  0  0  0  0  0  0  0
  190.1650  176.1280  137.6740 C   0  0  0  0  0  0  0  0  0  0  0  0
  184.9510  175.4290  136.5540 C   0  0  0  0  0  3  0  0  0  0  0  0
  189.6990  178.1250  142.8560 C   0  0  0  0  0  2  0  0  0  0  0  0
  186.8920  177.8360  138.5440 N   0  0  0  0  0  0  0  0  0  0  0  0
  184.2080  178.0810  140.0580 C   0  0  0  0  0  1  0  0  0  0  0  0
  188.3770  173.9650  136.1040 C   0  0  0  0  0  3  0  0  0  0  0  0
  186.0170  174.5840  136.1780 C   0  0  0  0  0  3  0  0  0  0  0  0
  186.0140  179.0030  138.5970 C   0  0  0  0  0  2  0  0  0  0  0  0
  191.3600  177.7550  140.8850 C   0  0  1  0  0  3  0  0  0  0  0  0
  190.8230  176.8810  139.8580 C   0  0  1  0  0  3  0  0  0  0  0  0
  187.3410  174.8460  136.6030 C   0  0  0  0  0  0  0  0  0  0  0  0
  188.3510  177.8170  138.5750 C   0  0  1  0  0  3  0  0  0  0  0  0
  184.2500  177.4850  137.7190 O   0  0  0  0  0  0  0  0  0  0  0  0
  190.5480  175.0850  136.8840 C   0  0  0  0  0  0  0  0  0  0  0  0
  183.7260  179.6320  138.3540 F   0  0  0  0  0  0  0  0  0  0  0  0
  190.3010  178.2530  139.9740 N   0  0  1  0  0  0  0  0  0  0  0  0
  191.3480  176.4430  142.8470 O   0  0  0  0  0  0  0  0  0  0  0  0
  188.8460  178.0300  140.0220 C   0  0  2  0  0  3  0  0  0  0  0  0
  189.6890  174.0820  136.2270 C   0  0  0  0  0  3  0  0  0  0  0  0
  192.6090  175.2880  135.4740 C   0  0  0  0  0  3  0  0  0  0  0  0
  191.9890  174.8170  136.6410 C   0  0  0  0  0  0  0  0  0  0  0  0
  192.7540  174.1250  137.5930 C   0  0  0  0  0  3  0  0  0  0  0  0
  195.0560  173.0200  138.5610 Cl  0  0  0  0  0  0  0  0  0  0  0  0
  194.7210  174.3560  136.2020 C   0  0  0  0  0  3  0  0  0  0  0  0
  194.1140  173.8920  137.3720 C   0  0  0  0  0  0  0  0  0  0  0  0
  193.9690  175.0550  135.2550 C   0  0  0  0  0  3  0  0  0  0  0  0
  188.3830  176.7530  144.7300 O   0  0  0  0  0  1  0  0  0  0  0  0
  187.9760  176.4130  143.4400 C   0  0  0  0  0  2  0  0  0  0  0  0
  1  4  1  0  0  0  0
  2 14  1  1  0  0  0
  3  9  1  0  0  0  0
  3  7  1  0  0  0  0
  4 12  1  0  0  0  0
  4 37  1  1  0  0  0
  6 22  1  0  0  0  0
  6  9  2  0  0  0  0
  8 26  2  0  0  0  0
  8 12  1  0  0  0  0
  9 13  1  0  0  0  0
 10  7  1  0  0  0  0
 10  5  1  0  0  0  0
 11  6  1  0  0  0  0
 13 21  1  0  0  0  0
 13 17  1  0  0  0  0
 15 28  2  0  0  0  0
 15 20  1  0  0  0  0
 16 11  2  0  0  0  0
 16 20  1  0  0  0  0
 17  2  1  0  0  0  0
 18  8  1  1  0  0  0
 19  5  1  6  0  0  0
 19 25  1  0  0  0  0
 19 18  1  0  0  0  0
 20  3  2  0  0  0  0
 21  7  1  1  0  0  0
 21 27  1  0  0  0  0
 22  2  1  0  0  0  0
 23 10  2  0  0  0  0
 24  2  1  0  0  0  0
 25 27  1  0  0  0  0
 25 18  1  0  0  0  0
 27  1  1  0  0  0  0
 28 23  1  0  0  0  0
 29 30  1  0  0  0  0
 30 23  1  0  0  0  0
 30 31  2  0  0  0  0
 33 34  2  0  0  0  0
 34 31  1  0  0  0  0
 34 32  1  0  0  0  0
 35 29  2  0  0  0  0
 35 33  1  0  0  0  0
 37 36  1  0  0  0  0
M  END
>  <MODEL>
6

>  <REMARK>
 VINA RESULT:      -6.5      3.802      8.609
  Name = 
  2 active torsions:
  status: ('A' for Active; 'I' for Inactive)
    1  A    between atoms: C_4  and  C_37
    2  A    between atoms: C_23  and  C_30
                            x       y       z     vdW  Elec       q    Type
                         _______ _______ _______ _____ _____    ______ ____

>  <TORSDO>
F 2

$$$$
=
 OpenBabel11122411303D

 37 44  0  0  1  0  0  0  0  0999 V2000
  188.9920  176.7300  139.1840 C   0  0  0  0  0  2  0  0  0  0  0  0
  190.8200  178.2020  143.2850 C   0  0  1  0  0  0  0  0  0  0  0  0
  186.8410  178.0950  142.0190 C   0  0  0  0  0  0  0  0  0  0  0  0
  190.0580  176.1750  138.2360 C   0  0  2  0  0  3  0  0  0  0  0  0
  186.0520  179.2180  138.3220 C   0  0  0  0  0  2  0  0  0  0  0  0
  188.4220  177.8330  143.8320 C   0  0  0  0  0  0  0  0  0  0  0  0
  186.8660  178.5590  140.6620 N   0  0  0  0  0  0  0  0  0  0  0  0
  188.5580  176.9840  136.3940 C   0  0  0  0  0  0  0  0  0  0  0  0
  188.1080  178.0650  142.5120 C   0  0  0  0  0  0  0  0  0  0  0  0
  185.7470  178.8770  139.7680 C   0  0  0  0  0  0  0  0  0  0  0  0
  187.3810  177.5200  144.7110 C   0  0  0  0  0  3  0  0  0  0  0  0
  189.9760  176.7580  136.8220 C   0  0  0  0  0  2  0  0  0  0  0  0
  189.0550  178.4980  141.5850 N   0  0  0  0  0  0  0  0  0  0  0  0
  191.3660  176.8630  142.8260 C   0  0  0  0  0  1  0  0  0  0  0  0
  184.3750  177.8430  142.4870 C   0  0  0  0  0  3  0  0  0  0  0  0
  186.0560  177.5030  144.2230 C   0  0  0  0  0  3  0  0  0  0  0  0
  190.3440  179.0060  142.0470 C   0  0  0  0  0  2  0  0  0  0  0  0
  187.8750  178.2900  136.6840 C   0  0  1  0  0  3  0  0  0  0  0  0
  187.0270  178.1840  137.8590 C   0  0  1  0  0  3  0  0  0  0  0  0
  185.7710  177.8140  142.8730 C   0  0  0  0  0  0  0  0  0  0  0  0
  188.3060  178.9110  140.4020 C   0  0  1  0  0  3  0  0  0  0  0  0
  189.7560  177.9800  144.2350 O   0  0  0  0  0  0  0  0  0  0  0  0
  184.4270  178.7810  140.1010 C   0  0  0  0  0  0  0  0  0  0  0  0
  191.8370  178.9010  143.9050 F   0  0  0  0  0  0  0  0  0  0  0  0
  188.3080  178.9030  137.9640 N   0  0  1  0  0  0  0  0  0  0  0  0
  187.9540  176.0990  135.8100 O   0  0  0  0  0  0  0  0  0  0  0  0
  188.9260  178.2710  139.1410 C   0  0  2  0  0  3  0  0  0  0  0  0
  183.8430  178.2470  141.3450 C   0  0  0  0  0  3  0  0  0  0  0  0
  182.7940  178.2480  138.2790 C   0  0  0  0  0  3  0  0  0  0  0  0
  183.3780  179.1940  139.1340 C   0  0  0  0  0  0  0  0  0  0  0  0
  182.9330  180.5240  139.0940 C   0  0  0  0  0  3  0  0  0  0  0  0
  181.3890  182.5690  138.1480 Cl  0  0  0  0  0  0  0  0  0  0  0  0
  181.3610  179.9600  137.3410 C   0  0  0  0  0  3  0  0  0  0  0  0
  181.9300  180.9060  138.1970 C   0  0  0  0  0  0  0  0  0  0  0  0
  181.7910  178.6310  137.3830 C   0  0  0  0  0  3  0  0  0  0  0  0
  191.1180  174.1330  137.5940 O   0  0  0  0  0  1  0  0  0  0  0  0
  189.9660  174.6600  138.1780 C   0  0  0  0  0  2  0  0  0  0  0  0
  2 14  1  6  0  0  0
  2 24  1  0  0  0  0
  2 22  1  0  0  0  0
  3  9  2  0  0  0  0
  3 20  1  0  0  0  0
  4 37  1  6  0  0  0
  4  1  1  0  0  0  0
  5 10  1  0  0  0  0
  6 22  1  0  0  0  0
  6 11  2  0  0  0  0
  7  3  1  0  0  0  0
  8 12  1  0  0  0  0
  9  6  1  0  0  0  0
 10 23  2  0  0  0  0
 10  7  1  0  0  0  0
 12  4  1  0  0  0  0
 13 17  1  0  0  0  0
 13  9  1  0  0  0  0
 15 20  1  0  0  0  0
 16 11  1  0  0  0  0
 17  2  1  0  0  0  0
 18  8  1  1  0  0  0
 18 19  1  0  0  0  0
 18 25  1  0  0  0  0
 19 25  1  0  0  0  0
 19  5  1  6  0  0  0
 20 16  2  0  0  0  0
 21  7  1  1  0  0  0
 21 13  1  0  0  0  0
 23 28  1  0  0  0  0
 25 27  1  0  0  0  0
 26  8  2  0  0  0  0
 27  1  1  0  0  0  0
 27 21  1  0  0  0  0
 28 15  2  0  0  0  0
 29 30  1  0  0  0  0
 30 23  1  0  0  0  0
 31 30  2  0  0  0  0
 32 34  1  0  0  0  0
 33 35  1  0  0  0  0
 33 34  2  0  0  0  0
 34 31  1  0  0  0  0
 35 29  2  0  0  0  0
 36 37  1  0  0  0  0
M  END
>  <MODEL>
7

>  <REMARK>
 VINA RESULT:      -6.4      2.671      3.725
  Name = 
  2 active torsions:
  status: ('A' for Active; 'I' for Inactive)
    1  A    between atoms: C_4  and  C_37
    2  A    between atoms: C_23  and  C_30
                            x       y       z     vdW  Elec       q    Type
                         _______ _______ _______ _____ _____    ______ ____

>  <TORSDO>
F 2

$$$$
=
 OpenBabel11122411303D

 37 44  0  0  1  0  0  0  0  0999 V2000
  188.6800  176.8930  141.0270 C   0  0  0  0  0  2  0  0  0  0  0  0
  185.0300  178.2530  138.3540 C   0  0  1  0  0  0  0  0  0  0  0  0
  188.2090  175.7050  137.4370 C   0  0  0  0  0  0  0  0  0  0  0  0
  188.6080  177.4630  142.4460 C   0  0  2  0  0  3  0  0  0  0  0  0
  191.8170  176.7530  138.6360 C   0  0  0  0  0  2  0  0  0  0  0  0
  185.8570  176.2160  137.1910 C   0  0  0  0  0  0  0  0  0  0  0  0
  189.3720  176.3430  137.9820 N   0  0  0  0  0  0  0  0  0  0  0  0
  191.1170  177.3890  142.3900 C   0  0  0  0  0  0  0  0  0  0  0  0
  187.1080  176.4520  137.7150 C   0  0  0  0  0  0  0  0  0  0  0  0
  190.7860  175.9840  137.8300 C   0  0  0  0  0  0  0  0  0  0  0  0
  185.6820  175.0830  136.3900 C   0  0  0  0  0  3  0  0  0  0  0  0
  189.9140  178.1210  142.9020 C   0  0  0  0  0  2  0  0  0  0  0  0
  187.4120  177.6120  138.4250 N   0  0  0  0  0  0  0  0  0  0  0  0
  184.6260  177.8160  139.7500 C   0  0  0  0  0  1  0  0  0  0  0  0
  189.1730  173.7180  136.2150 C   0  0  0  0  0  3  0  0  0  0  0  0
  186.7960  174.2620  136.1140 C   0  0  0  0  0  3  0  0  0  0  0  0
  186.4980  178.7500  138.3830 C   0  0  0  0  0  2  0  0  0  0  0  0
  191.7140  177.7460  141.0580 C   0  0  1  0  0  3  0  0  0  0  0  0
  191.2730  176.8240  140.0260 C   0  0  1  0  0  3  0  0  0  0  0  0
  188.0800  174.5800  136.6170 C   0  0  0  0  0  0  0  0  0  0  0  0
  188.8660  177.6410  138.5540 C   0  0  1  0  0  3  0  0  0  0  0  0
  184.8430  177.1510  137.4390 O   0  0  0  0  0  0  0  0  0  0  0  0
  191.2530  174.9300  137.1010 C   0  0  0  0  0  0  0  0  0  0  0  0
  184.2130  179.2980  137.9680 F   0  0  0  0  0  0  0  0  0  0  0  0
  190.7030  178.1810  140.0630 N   0  0  1  0  0  0  0  0  0  0  0  0
  191.6100  176.4940  143.0560 O   0  0  0  0  0  0  0  0  0  0  0  0
  189.2560  177.9130  140.0230 C   0  0  2  0  0  3  0  0  0  0  0  0
  190.4700  173.8810  136.4210 C   0  0  0  0  0  3  0  0  0  0  0  0
  193.3210  173.6060  137.5930 C   0  0  0  0  0  3  0  0  0  0  0  0
  192.7130  174.7020  136.9620 C   0  0  0  0  0  0  0  0  0  0  0  0
  193.4950  175.5560  136.1680 C   0  0  0  0  0  3  0  0  0  0  0  0
  195.8320  176.4030  135.0380 Cl  0  0  0  0  0  0  0  0  0  0  0  0
  195.4640  174.2390  136.6630 C   0  0  0  0  0  3  0  0  0  0  0  0
  194.8660  175.3270  136.0230 C   0  0  0  0  0  0  0  0  0  0  0  0
  194.6920  173.3780  137.4470 C   0  0  0  0  0  3  0  0  0  0  0  0
  188.5430  176.7530  144.7250 O   0  0  0  0  0  1  0  0  0  0  0  0
  188.2080  176.3730  143.4250 C   0  0  0  0  0  2  0  0  0  0  0  0
  1  4  1  0  0  0  0
  2 17  1  0  0  0  0
  2 14  1  1  0  0  0
  3  9  1  0  0  0  0
  3  7  1  0  0  0  0
  4 12  1  0  0  0  0
  4 37  1  1  0  0  0
  6 22  1  0  0  0  0
  6  9  2  0  0  0  0
  8 12  1  0  0  0  0
  8 26  2  0  0  0  0
  9 13  1  0  0  0  0
 10  7  1  0  0  0  0
 10  5  1  0  0  0  0
 11  6  1  0  0  0  0
 13 21  1  0  0  0  0
 15 28  2  0  0  0  0
 15 20  1  0  0  0  0
 16 11  2  0  0  0  0
 16 20  1  0  0  0  0
 17 13  1  0  0  0  0
 18  8  1  1  0  0  0
 19  5  1  6  0  0  0
 19 25  1  0  0  0  0
 19 18  1  0  0  0  0
 20  3  2  0  0  0  0
 21  7  1  1  0  0  0
 21 27  1  0  0  0  0
 22  2  1  0  0  0  0
 23 10  2  0  0  0  0
 24  2  1  0  0  0  0
 25 18  1  0  0  0  0
 27 25  1  0  0  0  0
 27  1  1  0  0  0  0
 28 23  1  0  0  0  0
 30 23  1  0  0  0  0
 30 29  2  0  0  0  0
 31 30  1  0  0  0  0
 32 34  1  0  0  0  0
 33 35  2  0  0  0  0
 34 31  2  0  0  0  0
 34 33  1  0  0  0  0
 35 29  1  0  0  0  0
 37 36  1  0  0  0  0
M  END
>  <MODEL>
8

>  <REMARK>
 VINA RESULT:      -6.3      3.773      8.743
  Name = 
  2 active torsions:
  status: ('A' for Active; 'I' for Inactive)
    1  A    between atoms: C_4  and  C_37
    2  A    between atoms: C_23  and  C_30
                            x       y       z     vdW  Elec       q    Type
                         _______ _______ _______ _____ _____    ______ ____

>  <TORSDO>
F 2

$$$$
=
 OpenBabel11122411303D

 37 44  0  0  1  0  0  0  0  0999 V2000
  187.9480  177.1290  140.8020 C   0  0  0  0  0  2  0  0  0  0  0  0
  183.9680  178.9500  139.0240 C   0  0  1  0  0  0  0  0  0  0  0  0
  186.6480  176.2280  137.3360 C   0  0  0  0  0  0  0  0  0  0  0  0
  188.2200  177.6060  142.2320 C   0  0  2  0  0  3  0  0  0  0  0  0
  190.5040  176.9050  137.8040 C   0  0  0  0  0  2  0  0  0  0  0  0
  184.3510  176.9380  137.6140 C   0  0  0  0  0  0  0  0  0  0  0  0
  187.9510  176.7340  137.6570 N   0  0  0  0  0  0  0  0  0  0  0  0
  190.6470  177.3390  141.6480 C   0  0  0  0  0  0  0  0  0  0  0  0
  185.6990  177.0390  137.8750 C   0  0  0  0  0  0  0  0  0  0  0  0
  189.2650  176.2760  137.1940 C   0  0  0  0  0  0  0  0  0  0  0  0
  183.9140  175.8800  136.8120 C   0  0  0  0  0  3  0  0  0  0  0  0
  189.6460  178.1270  142.4370 C   0  0  0  0  0  2  0  0  0  0  0  0
  186.2460  178.1200  138.5630 N   0  0  0  0  0  0  0  0  0  0  0  0
  183.8200  178.4530  140.4500 C   0  0  0  0  0  1  0  0  0  0  0  0
  187.1570  174.2590  135.8420 C   0  0  0  0  0  3  0  0  0  0  0  0
  184.8690  174.9940  136.2680 C   0  0  0  0  0  3  0  0  0  0  0  0
  185.4500  179.3280  138.7700 C   0  0  0  0  0  2  0  0  0  0  0  0
  190.9890  177.7360  140.2410 C   0  0  1  0  0  3  0  0  0  0  0  0
  190.2650  176.9240  139.2790 C   0  0  1  0  0  3  0  0  0  0  0  0
  186.2520  175.1750  136.5060 C   0  0  0  0  0  0  0  0  0  0  0  0
  187.6920  178.0260  138.3860 C   0  0  1  0  0  3  0  0  0  0  0  0
  183.4990  177.9310  138.1150 O   0  0  0  0  0  0  0  0  0  0  0  0
  189.4750  175.2410  136.3320 C   0  0  0  0  0  0  0  0  0  0  0  0
  183.1890  180.0810  138.8710 F   0  0  0  0  0  0  0  0  0  0  0  0
  189.8400  178.3160  139.5020 N   0  0  1  0  0  0  0  0  0  0  0  0
  191.1820  176.3640  142.1510 O   0  0  0  0  0  0  0  0  0  0  0  0
  188.3970  178.1670  139.7520 C   0  0  2  0  0  3  0  0  0  0  0  0
  188.4780  174.3050  135.7800 C   0  0  0  0  0  3  0  0  0  0  0  0
  191.5470  175.7820  135.0330 C   0  0  0  0  0  3  0  0  0  0  0  0
  190.8500  174.9080  135.8800 C   0  0  0  0  0  0  0  0  0  0  0  0
  191.4800  173.7360  136.3250 C   0  0  0  0  0  3  0  0  0  0  0  0
  193.5560  171.9660  136.4690 Cl  0  0  0  0  0  0  0  0  0  0  0  0
  193.4650  174.3060  135.0630 C   0  0  0  0  0  3  0  0  0  0  0  0
  192.7820  173.4350  135.9150 C   0  0  0  0  0  0  0  0  0  0  0  0
  192.8490  175.4800  134.6240 C   0  0  0  0  0  3  0  0  0  0  0  0
  188.5530  176.7530  144.4380 O   0  0  0  0  0  1  0  0  0  0  0  0
  187.9300  176.4870  143.2180 C   0  0  0  0  0  2  0  0  0  0  0  0
  1  4  1  0  0  0  0
  2 14  1  1  0  0  0
  3  7  1  0  0  0  0
  3  9  1  0  0  0  0
  4 12  1  0  0  0  0
  4 37  1  1  0  0  0
  6  9  2  0  0  0  0
  6 22  1  0  0  0  0
  8 26  2  0  0  0  0
  8 12  1  0  0  0  0
  9 13  1  0  0  0  0
 10  7  1  0  0  0  0
 10  5  1  0  0  0  0
 11  6  1  0  0  0  0
 13 17  1  0  0  0  0
 15 20  1  0  0  0  0
 16 20  1  0  0  0  0
 16 11  2  0  0  0  0
 17  2  1  0  0  0  0
 18  8  1  1  0  0  0
 19  5  1  6  0  0  0
 19 25  1  0  0  0  0
 19 18  1  0  0  0  0
 20  3  2  0  0  0  0
 21  7  1  1  0  0  0
 21 13  1  0  0  0  0
 21 27  1  0  0  0  0
 22  2  1  0  0  0  0
 23 10  2  0  0  0  0
 24  2  1  0  0  0  0
 25 27  1  0  0  0  0
 25 18  1  0  0  0  0
 27  1  1  0  0  0  0
 28 15  2  0  0  0  0
 28 23  1  0  0  0  0
 29 30  1  0  0  0  0
 30 31  2  0  0  0  0
 30 23  1  0  0  0  0
 33 34  2  0  0  0  0
 34 31  1  0  0  0  0
 34 32  1  0  0  0  0
 35 29  2  0  0  0  0
 35 33  1  0  0  0  0
 37 36  1  0  0  0  0
M  END
>  <MODEL>
9

>  <REMARK>
 VINA RESULT:      -6.0      3.739      8.337
  Name = 
  2 active torsions:
  status: ('A' for Active; 'I' for Inactive)
    1  A    between atoms: C_4  and  C_37
    2  A    between atoms: C_23  and  C_30
                            x       y       z     vdW  Elec       q    Type
                         _______ _______ _______ _____ _____    ______ ____

>  <TORSDO>
F 2

$$$$
