=
 OpenBabel11122411083D

 31 35  0  0  0  0  0  0  0  0999 V2000
  184.6140  178.7560  144.9930 C   0  0  0  0  0  0  0  0  0  0  0  0
  188.2490  177.5840  144.2730 C   0  0  0  0  0  0  0  0  0  0  0  0
  188.9270  177.4770  145.5290 C   0  0  0  0  0  0  0  0  0  0  0  0
  189.0070  177.6670  147.9660 C   0  0  0  0  0  0  0  0  0  0  0  0
  186.8920  178.0190  144.1180 C   0  0  0  0  0  0  0  0  0  0  0  0
  184.1300  178.8020  143.6130 C   0  0  0  0  0  3  0  0  0  0  0  0
  188.3160  177.7830  146.7590 C   0  0  0  0  0  3  0  0  0  0  0  0
  188.3960  177.3000  141.8310 C   0  0  0  0  0  0  0  0  0  0  0  0
  183.8170  178.9960  145.9360 O   0  0  0  0  0  0  0  0  0  0  0  0
  190.9250  176.7170  144.3790 C   0  0  0  0  0  3  0  0  0  0  0  0
  188.3890  177.9700  149.1320 F   0  0  0  0  0  0  0  0  0  0  0  0
  187.0740  177.7190  141.7080 C   0  0  0  0  0  3  0  0  0  0  0  0
  188.9840  177.2300  143.1020 C   0  0  0  0  0  0  0  0  0  0  0  0
  186.0540  178.4670  145.3020 C   0  0  0  0  0  2  0  0  0  0  0  0
  190.3340  177.2370  147.9710 C   0  0  0  0  0  3  0  0  0  0  0  0
  186.3270  178.0740  142.8230 C   0  0  0  0  0  0  0  0  0  0  0  0
  184.9330  178.4880  142.6030 C   0  0  0  0  0  3  0  0  0  0  0  0
  190.2760  176.8160  143.1970 N   0  0  0  0  0  0  0  0  0  0  0  0
  190.2760  177.0390  145.5600 C   0  0  0  0  0  0  0  0  0  0  0  0
  190.9670  176.9240  146.7700 C   0  0  0  0  0  3  0  0  0  0  0  0
  188.9030  178.8790  139.3990 O   0  0  0  0  0  0  0  0  0  0  0  0
  189.4010  177.7250  139.4980 C   0  0  0  0  0  0  0  0  0  0  0  0
  189.1690  176.9350  140.6740 N   0  0  0  0  0  2  0  0  0  0  0  0
  191.7220  176.1190  136.2610 C   0  0  0  0  0  0  0  0  0  0  0  0
  189.6230  176.9030  137.1660 C   0  0  0  0  0  3  0  0  0  0  0  0
  192.2680  177.1440  139.7550 O   0  0  0  0  0  1  0  0  0  0  0  0
  192.5100  175.5630  135.1300 C   0  0  0  0  0  1  0  0  0  0  0  0
  190.3620  176.3810  136.1020 C   0  0  0  0  0  3  0  0  0  0  0  0
  191.6110  176.9010  138.5540 C   0  0  0  0  0  0  0  0  0  0  0  0
  190.2310  177.1710  138.4020 C   0  0  0  0  0  0  0  0  0  0  0  0
  192.3440  176.3770  137.4830 C   0  0  0  0  0  3  0  0  0  0  0  0
  1 14  1  0  0  0  0
  1  9  2  0  0  0  0
  2  3  2  0  0  0  0
  3 19  1  0  0  0  0
  3  7  1  0  0  0  0
  4 15  1  0  0  0  0
  4 11  1  0  0  0  0
  5  2  1  0  0  0  0
  5 14  1  0  0  0  0
  6  1  1  0  0  0  0
  7  4  2  0  0  0  0
  8 13  1  0  0  0  0
 10 19  2  0  0  0  0
 12  8  2  0  0  0  0
 12 16  1  0  0  0  0
 13 18  2  0  0  0  0
 13  2  1  0  0  0  0
 16  5  2  0  0  0  0
 17 16  1  0  0  0  0
 17  6  2  0  0  0  0
 18 10  1  0  0  0  0
 19 20  1  0  0  0  0
 20 15  2  0  0  0  0
 21 22  2  0  0  0  0
 22 23  1  0  0  0  0
 23  8  1  0  0  0  0
 24 31  1  0  0  0  0
 25 30  2  0  0  0  0
 27 24  1  0  0  0  0
 28 24  2  0  0  0  0
 28 25  1  0  0  0  0
 29 26  1  0  0  0  0
 30 29  1  0  0  0  0
 30 22  1  0  0  0  0
 31 29  2  0  0  0  0
M  END
>  <MODEL>
1

>  <REMARK>
 VINA RESULT:     -11.5      0.000      0.000
  Name = 
  2 active torsions:
  status: ('A' for Active; 'I' for Inactive)
    1  A    between atoms: C_5  and  C_30
    2  A    between atoms: C_10  and  N_16
                            x       y       z     vdW  Elec       q    Type
                         _______ _______ _______ _____ _____    ______ ____

>  <TORSDO>
F 2

$$$$
=
 OpenBabel11122411083D

 31 35  0  0  0  0  0  0  0  0999 V2000
  191.1280  176.8750  146.3450 C   0  0  0  0  0  0  0  0  0  0  0  0
  189.0500  177.4660  143.1150 C   0  0  0  0  0  0  0  0  0  0  0  0
  189.9580  177.4640  142.0080 C   0  0  0  0  0  0  0  0  0  0  0  0
  192.2050  177.2950  141.0550 C   0  0  0  0  0  0  0  0  0  0  0  0
  189.4400  177.3070  144.4850 C   0  0  0  0  0  0  0  0  0  0  0  0
  190.0310  176.9220  147.3130 C   0  0  0  0  0  3  0  0  0  0  0  0
  191.3470  177.2920  142.1570 C   0  0  0  0  0  3  0  0  0  0  0  0
  186.7050  177.6470  143.8440 C   0  0  0  0  0  0  0  0  0  0  0  0
  192.2910  176.6090  146.7420 O   0  0  0  0  0  0  0  0  0  0  0  0
  188.0970  177.8010  140.4870 C   0  0  0  0  0  3  0  0  0  0  0  0
  193.5360  177.1280  141.2340 F   0  0  0  0  0  0  0  0  0  0  0  0
  187.1080  177.4840  145.1660 C   0  0  0  0  0  3  0  0  0  0  0  0
  187.6640  177.6380  142.8210 C   0  0  0  0  0  0  0  0  0  0  0  0
  190.8950  177.1750  144.8930 C   0  0  0  0  0  2  0  0  0  0  0  0
  191.6890  177.4690  139.7710 C   0  0  0  0  0  3  0  0  0  0  0  0
  188.4470  177.3170  145.4920 C   0  0  0  0  0  0  0  0  0  0  0  0
  188.7830  177.1340  146.9120 C   0  0  0  0  0  3  0  0  0  0  0  0
  187.2450  177.7980  141.5370 N   0  0  0  0  0  0  0  0  0  0  0  0
  189.4580  177.6360  140.6930 C   0  0  0  0  0  0  0  0  0  0  0  0
  190.3170  177.6390  139.5900 C   0  0  0  0  0  3  0  0  0  0  0  0
  185.0670  180.0830  144.0580 O   0  0  0  0  0  0  0  0  0  0  0  0
  184.5390  179.0240  143.6230 C   0  0  0  0  0  0  0  0  0  0  0  0
  185.3170  177.8230  143.5080 N   0  0  0  0  0  2  0  0  0  0  0  0
  180.3760  178.9760  142.5700 C   0  0  0  0  0  0  0  0  0  0  0  0
  182.1320  179.0010  144.2300 C   0  0  0  0  0  3  0  0  0  0  0  0
  183.6220  179.0020  140.8330 O   0  0  0  0  0  1  0  0  0  0  0  0
  178.9310  178.9590  142.2240 C   0  0  0  0  0  1  0  0  0  0  0  0
  180.7740  178.9860  143.9060 C   0  0  0  0  0  3  0  0  0  0  0  0
  182.6990  178.9980  141.8720 C   0  0  0  0  0  0  0  0  0  0  0  0
  183.1120  179.0080  143.2250 C   0  0  0  0  0  0  0  0  0  0  0  0
  181.3360  178.9810  141.5570 C   0  0  0  0  0  3  0  0  0  0  0  0
  1  9  2  0  0  0  0
  1  6  1  0  0  0  0
  2  5  1  0  0  0  0
  3  7  2  0  0  0  0
  3  2  1  0  0  0  0
  4 11  1  0  0  0  0
  4  7  1  0  0  0  0
  5 14  1  0  0  0  0
  5 16  2  0  0  0  0
  8 12  2  0  0  0  0
 10 19  1  0  0  0  0
 10 18  2  0  0  0  0
 12 16  1  0  0  0  0
 13  2  2  0  0  0  0
 13  8  1  0  0  0  0
 14  1  1  0  0  0  0
 15  4  2  0  0  0  0
 16 17  1  0  0  0  0
 17  6  2  0  0  0  0
 18 13  1  0  0  0  0
 19  3  1  0  0  0  0
 20 15  1  0  0  0  0
 20 19  2  0  0  0  0
 22 21  2  0  0  0  0
 23 22  1  0  0  0  0
 23  8  1  0  0  0  0
 24 28  1  0  0  0  0
 26 29  1  0  0  0  0
 27 24  1  0  0  0  0
 28 25  2  0  0  0  0
 29 30  2  0  0  0  0
 30 22  1  0  0  0  0
 30 25  1  0  0  0  0
 31 29  1  0  0  0  0
 31 24  2  0  0  0  0
M  END
>  <MODEL>
2

>  <REMARK>
 VINA RESULT:     -10.6      3.142      7.723
  Name = 
  2 active torsions:
  status: ('A' for Active; 'I' for Inactive)
    1  A    between atoms: C_5  and  C_30
    2  A    between atoms: C_10  and  N_16
                            x       y       z     vdW  Elec       q    Type
                         _______ _______ _______ _____ _____    ______ ____

>  <TORSDO>
F 2

$$$$
=
 OpenBabel11122411083D

 31 35  0  0  0  0  0  0  0  0999 V2000
  186.7810  177.7810  146.0200 C   0  0  0  0  0  0  0  0  0  0  0  0
  187.1770  178.1770  142.1750 C   0  0  0  0  0  0  0  0  0  0  0  0
  188.5020  177.7570  141.8300 C   0  0  0  0  0  0  0  0  0  0  0  0
  190.7220  176.9100  142.4100 C   0  0  0  0  0  0  0  0  0  0  0  0
  186.6580  178.2060  143.5100 C   0  0  0  0  0  0  0  0  0  0  0  0
  185.4020  178.2590  146.1410 C   0  0  0  0  0  3  0  0  0  0  0  0
  189.4380  177.3130  142.7820 C   0  0  0  0  0  3  0  0  0  0  0  0
  185.0110  179.0140  141.3550 C   0  0  0  0  0  0  0  0  0  0  0  0
  187.3750  177.3470  147.0400 O   0  0  0  0  0  0  0  0  0  0  0  0
  188.0250  178.1950  139.4900 C   0  0  0  0  0  3  0  0  0  0  0  0
  191.5980  176.4890  143.3530 F   0  0  0  0  0  0  0  0  0  0  0  0
  184.5280  179.0260  142.6600 C   0  0  0  0  0  3  0  0  0  0  0  0
  186.3250  178.5920  141.1070 C   0  0  0  0  0  0  0  0  0  0  0  0
  187.5100  177.8360  144.7100 C   0  0  0  0  0  2  0  0  0  0  0  0
  191.1010  176.9390  141.0690 C   0  0  0  0  0  3  0  0  0  0  0  0
  185.3260  178.6330  143.7250 C   0  0  0  0  0  0  0  0  0  0  0  0
  184.7300  178.6610  145.0690 C   0  0  0  0  0  3  0  0  0  0  0  0
  186.7750  178.5860  139.8240 N   0  0  0  0  0  0  0  0  0  0  0  0
  188.9100  177.7750  140.4720 C   0  0  0  0  0  0  0  0  0  0  0  0
  190.1950  177.3710  140.1010 C   0  0  0  0  0  3  0  0  0  0  0  0
  182.3540  178.0040  140.5910 O   0  0  0  0  0  0  0  0  0  0  0  0
  182.8880  178.9140  139.9000 C   0  0  0  0  0  0  0  0  0  0  0  0
  184.1830  179.4240  140.2530 N   0  0  0  0  0  2  0  0  0  0  0  0
  180.8410  180.6070  136.5260 C   0  0  0  0  0  0  0  0  0  0  0  0
  181.7430  180.7980  138.7600 C   0  0  0  0  0  3  0  0  0  0  0  0
  182.3540  177.3810  137.4530 O   0  0  0  0  0  1  0  0  0  0  0  0
  180.1310  181.2100  135.3680 C   0  0  0  0  0  1  0  0  0  0  0  0
  181.0760  181.3660  137.6720 C   0  0  0  0  0  3  0  0  0  0  0  0
  181.9410  178.7050  137.5530 C   0  0  0  0  0  0  0  0  0  0  0  0
  182.1850  179.4670  138.7180 C   0  0  0  0  0  0  0  0  0  0  0  0
  181.2720  179.2810  136.4670 C   0  0  0  0  0  3  0  0  0  0  0  0
  1  6  1  0  0  0  0
  1  9  2  0  0  0  0
  2  5  1  0  0  0  0
  3  2  1  0  0  0  0
  3  7  2  0  0  0  0
  4  7  1  0  0  0  0
  4 11  1  0  0  0  0
  5 16  2  0  0  0  0
  5 14  1  0  0  0  0
  8 12  2  0  0  0  0
 10 18  2  0  0  0  0
 10 19  1  0  0  0  0
 12 16  1  0  0  0  0
 13  8  1  0  0  0  0
 13  2  2  0  0  0  0
 14  1  1  0  0  0  0
 15  4  2  0  0  0  0
 16 17  1  0  0  0  0
 17  6  2  0  0  0  0
 18 13  1  0  0  0  0
 19  3  1  0  0  0  0
 20 19  2  0  0  0  0
 20 15  1  0  0  0  0
 22 23  1  0  0  0  0
 22 21  2  0  0  0  0
 23  8  1  0  0  0  0
 24 28  1  0  0  0  0
 26 29  1  0  0  0  0
 27 24  1  0  0  0  0
 28 25  2  0  0  0  0
 29 30  2  0  0  0  0
 30 25  1  0  0  0  0
 30 22  1  0  0  0  0
 31 24  2  0  0  0  0
 31 29  1  0  0  0  0
M  END
>  <MODEL>
3

>  <REMARK>
 VINA RESULT:     -10.4      4.205      6.772
  Name = 
  2 active torsions:
  status: ('A' for Active; 'I' for Inactive)
    1  A    between atoms: C_5  and  C_30
    2  A    between atoms: C_10  and  N_16
                            x       y       z     vdW  Elec       q    Type
                         _______ _______ _______ _____ _____    ______ ____

>  <TORSDO>
F 2

$$$$
=
 OpenBabel11122411083D

 31 35  0  0  0  0  0  0  0  0999 V2000
  190.6240  176.9460  142.1840 C   0  0  0  0  0  0  0  0  0  0  0  0
  187.1710  178.1650  143.4840 C   0  0  0  0  0  0  0  0  0  0  0  0
  187.1820  178.0570  144.9120 C   0  0  0  0  0  0  0  0  0  0  0  0
  188.2610  177.4750  147.0280 C   0  0  0  0  0  0  0  0  0  0  0  0
  188.2580  177.7810  142.6330 C   0  0  0  0  0  0  0  0  0  0  0  0
  190.3870  177.1320  140.7510 C   0  0  0  0  0  3  0  0  0  0  0  0
  188.2840  177.5650  145.6350 C   0  0  0  0  0  3  0  0  0  0  0  0
  185.8960  178.8380  141.4870 C   0  0  0  0  0  0  0  0  0  0  0  0
  191.7570  176.5690  142.5800 O   0  0  0  0  0  0  0  0  0  0  0  0
  184.9310  178.9640  144.9920 C   0  0  0  0  0  3  0  0  0  0  0  0
  189.3390  176.9960  147.6920 F   0  0  0  0  0  0  0  0  0  0  0  0
  186.9690  178.4650  140.6830 C   0  0  0  0  0  3  0  0  0  0  0  0
  185.9910  178.6930  142.8790 C   0  0  0  0  0  0  0  0  0  0  0  0
  189.5270  177.1600  143.1860 C   0  0  0  0  0  2  0  0  0  0  0  0
  187.1290  177.8780  147.7340 C   0  0  0  0  0  3  0  0  0  0  0  0
  188.1320  177.9450  141.2340 C   0  0  0  0  0  0  0  0  0  0  0  0
  189.2220  177.5920  140.3120 C   0  0  0  0  0  3  0  0  0  0  0  0
  184.9300  179.0660  143.6440 N   0  0  0  0  0  0  0  0  0  0  0  0
  186.0430  178.4640  145.6520 C   0  0  0  0  0  0  0  0  0  0  0  0
  186.0210  178.3720  147.0470 C   0  0  0  0  0  3  0  0  0  0  0  0
  183.5030  177.3860  140.5760 O   0  0  0  0  0  0  0  0  0  0  0  0
  183.5350  178.6420  140.4760 C   0  0  0  0  0  0  0  0  0  0  0  0
  184.6900  179.3740  140.9140 N   0  0  0  0  0  2  0  0  0  0  0  0
  180.2530  180.8070  138.7480 C   0  0  0  0  0  0  0  0  0  0  0  0
  182.5650  180.1030  138.7180 C   0  0  0  0  0  3  0  0  0  0  0  0
  180.8620  178.6810  141.6920 O   0  0  0  0  0  1  0  0  0  0  0  0
  179.1280  181.5610  138.1360 C   0  0  0  0  0  1  0  0  0  0  0  0
  181.5090  180.8120  138.1420 C   0  0  0  0  0  3  0  0  0  0  0  0
  181.1040  179.3780  140.5140 C   0  0  0  0  0  0  0  0  0  0  0  0
  182.3810  179.3780  139.9070 C   0  0  0  0  0  0  0  0  0  0  0  0
  180.0520  180.0920  139.9300 C   0  0  0  0  0  3  0  0  0  0  0  0
  1  9  2  0  0  0  0
  1 14  1  0  0  0  0
  2  3  2  0  0  0  0
  3  7  1  0  0  0  0
  3 19  1  0  0  0  0
  4 11  1  0  0  0  0
  4 15  1  0  0  0  0
  5 14  1  0  0  0  0
  5  2  1  0  0  0  0
  6  1  1  0  0  0  0
  7  4  2  0  0  0  0
  8 13  1  0  0  0  0
 10 19  2  0  0  0  0
 12 16  1  0  0  0  0
 12  8  2  0  0  0  0
 13  2  1  0  0  0  0
 13 18  2  0  0  0  0
 16  5  2  0  0  0  0
 17  6  2  0  0  0  0
 17 16  1  0  0  0  0
 18 10  1  0  0  0  0
 19 20  1  0  0  0  0
 20 15  2  0  0  0  0
 22 21  2  0  0  0  0
 22 23  1  0  0  0  0
 23  8  1  0  0  0  0
 24 31  1  0  0  0  0
 25 30  2  0  0  0  0
 27 24  1  0  0  0  0
 28 25  1  0  0  0  0
 28 24  2  0  0  0  0
 29 26  1  0  0  0  0
 30 22  1  0  0  0  0
 30 29  1  0  0  0  0
 31 29  2  0  0  0  0
M  END
>  <MODEL>
4

>  <REMARK>
 VINA RESULT:     -10.3      3.531      7.040
  Name = 
  2 active torsions:
  status: ('A' for Active; 'I' for Inactive)
    1  A    between atoms: C_5  and  C_30
    2  A    between atoms: C_10  and  N_16
                            x       y       z     vdW  Elec       q    Type
                         _______ _______ _______ _____ _____    ______ ____

>  <TORSDO>
F 2

$$$$
=
 OpenBabel11122411083D

 31 35  0  0  0  0  0  0  0  0999 V2000
  187.5910  177.4450  146.9920 C   0  0  0  0  0  0  0  0  0  0  0  0
  187.4280  178.0160  143.1520 C   0  0  0  0  0  0  0  0  0  0  0  0
  188.6950  177.6390  142.6020 C   0  0  0  0  0  0  0  0  0  0  0  0
  190.9880  176.8140  142.8220 C   0  0  0  0  0  0  0  0  0  0  0  0
  187.1050  177.9760  144.5470 C   0  0  0  0  0  0  0  0  0  0  0  0
  186.2370  177.8880  147.3290 C   0  0  0  0  0  3  0  0  0  0  0  0
  189.7640  177.1740  143.3900 C   0  0  0  0  0  3  0  0  0  0  0  0
  185.1550  178.8420  142.6870 C   0  0  0  0  0  0  0  0  0  0  0  0
  188.3320  176.9790  147.8950 O   0  0  0  0  0  0  0  0  0  0  0  0
  187.8830  178.1690  140.3770 C   0  0  0  0  0  3  0  0  0  0  0  0
  191.9960  176.3720  143.6090 F   0  0  0  0  0  0  0  0  0  0  0  0
  184.8630  178.7880  144.0470 C   0  0  0  0  0  3  0  0  0  0  0  0
  186.4260  178.4590  142.2360 C   0  0  0  0  0  0  0  0  0  0  0  0
  188.1250  177.5720  145.5950 C   0  0  0  0  0  2  0  0  0  0  0  0
  191.1700  176.9100  141.4420 C   0  0  0  0  0  3  0  0  0  0  0  0
  185.8110  178.3650  144.9680 C   0  0  0  0  0  0  0  0  0  0  0  0
  185.4120  178.3220  146.3830 C   0  0  0  0  0  3  0  0  0  0  0  0
  186.6870  178.5190  140.9030 N   0  0  0  0  0  0  0  0  0  0  0  0
  188.9040  177.7250  141.2020 C   0  0  0  0  0  0  0  0  0  0  0  0
  190.1290  177.3650  140.6340 C   0  0  0  0  0  3  0  0  0  0  0  0
  183.4380  177.2060  140.9440 O   0  0  0  0  0  0  0  0  0  0  0  0
  183.3460  178.4620  140.8930 C   0  0  0  0  0  0  0  0  0  0  0  0
  184.1710  179.2830  141.7340 N   0  0  0  0  0  2  0  0  0  0  0  0
  180.4830  180.2690  138.2510 C   0  0  0  0  0  0  0  0  0  0  0  0
  181.0310  178.7430  140.0430 C   0  0  0  0  0  3  0  0  0  0  0  0
  184.1050  180.4670  138.8860 O   0  0  0  0  0  1  0  0  0  0  0  0
  179.4790  180.8850  137.3450 C   0  0  0  0  0  1  0  0  0  0  0  0
  180.0860  179.3200  139.1920 C   0  0  0  0  0  3  0  0  0  0  0  0
  182.7790  180.0680  139.0100 C   0  0  0  0  0  0  0  0  0  0  0  0
  182.3850  179.1050  139.9670 C   0  0  0  0  0  0  0  0  0  0  0  0
  181.8260  180.6420  138.1600 C   0  0  0  0  0  3  0  0  0  0  0  0
  1  6  1  0  0  0  0
  1  9  2  0  0  0  0
  2  5  1  0  0  0  0
  3  2  1  0  0  0  0
  3  7  2  0  0  0  0
  4  7  1  0  0  0  0
  4 11  1  0  0  0  0
  5 16  2  0  0  0  0
  5 14  1  0  0  0  0
  8 12  2  0  0  0  0
 10 18  2  0  0  0  0
 10 19  1  0  0  0  0
 12 16  1  0  0  0  0
 13  8  1  0  0  0  0
 13  2  2  0  0  0  0
 14  1  1  0  0  0  0
 15  4  2  0  0  0  0
 16 17  1  0  0  0  0
 17  6  2  0  0  0  0
 18 13  1  0  0  0  0
 19  3  1  0  0  0  0
 20 19  2  0  0  0  0
 20 15  1  0  0  0  0
 22 21  2  0  0  0  0
 22 23  1  0  0  0  0
 23  8  1  0  0  0  0
 24 28  1  0  0  0  0
 26 29  1  0  0  0  0
 27 24  1  0  0  0  0
 28 25  2  0  0  0  0
 29 30  2  0  0  0  0
 30 25  1  0  0  0  0
 30 22  1  0  0  0  0
 31 24  2  0  0  0  0
 31 29  1  0  0  0  0
M  END
>  <MODEL>
5

>  <REMARK>
 VINA RESULT:     -10.2      3.733      6.729
  Name = 
  2 active torsions:
  status: ('A' for Active; 'I' for Inactive)
    1  A    between atoms: C_5  and  C_30
    2  A    between atoms: C_10  and  N_16
                            x       y       z     vdW  Elec       q    Type
                         _______ _______ _______ _____ _____    ______ ____

>  <TORSDO>
F 2

$$$$
=
 OpenBabel11122411083D

 31 35  0  0  0  0  0  0  0  0999 V2000
  185.2790  178.5660  143.7960 C   0  0  0  0  0  0  0  0  0  0  0  0
  189.0170  177.5570  143.4600 C   0  0  0  0  0  0  0  0  0  0  0  0
  189.5140  177.2910  144.7760 C   0  0  0  0  0  0  0  0  0  0  0  0
  189.2430  177.1510  147.2030 C   0  0  0  0  0  0  0  0  0  0  0  0
  187.6810  177.9880  143.1700 C   0  0  0  0  0  0  0  0  0  0  0  0
  184.9930  178.7900  142.3780 C   0  0  0  0  0  3  0  0  0  0  0  0
  188.7260  177.4190  145.9340 C   0  0  0  0  0  3  0  0  0  0  0  0
  189.5160  177.6070  141.0490 C   0  0  0  0  0  0  0  0  0  0  0  0
  184.3490  178.6640  144.6370 O   0  0  0  0  0  0  0  0  0  0  0  0
  191.6790  176.7230  143.8370 C   0  0  0  0  0  3  0  0  0  0  0  0
  188.4570  177.2850  148.2970 F   0  0  0  0  0  0  0  0  0  0  0  0
  188.2120  178.0180  140.7930 C   0  0  0  0  0  3  0  0  0  0  0  0
  189.9220  177.3740  142.3710 C   0  0  0  0  0  0  0  0  0  0  0  0
  186.6700  178.2590  144.2680 C   0  0  0  0  0  2  0  0  0  0  0  0
  190.5700  176.7450  147.3430 C   0  0  0  0  0  3  0  0  0  0  0  0
  187.3030  178.2090  141.8250 C   0  0  0  0  0  0  0  0  0  0  0  0
  185.9410  178.6280  141.4620 C   0  0  0  0  0  3  0  0  0  0  0  0
  191.2010  176.9720  142.5970 N   0  0  0  0  0  0  0  0  0  0  0  0
  190.8590  176.8740  144.9440 C   0  0  0  0  0  0  0  0  0  0  0  0
  191.3770  176.6060  146.2150 C   0  0  0  0  0  3  0  0  0  0  0  0
  189.4240  175.6280  138.8720 O   0  0  0  0  0  0  0  0  0  0  0  0
  190.3890  176.4370  138.9270 C   0  0  0  0  0  0  0  0  0  0  0  0
  190.4570  177.4120  139.9790 N   0  0  0  0  0  2  0  0  0  0  0  0
  193.5740  176.3040  136.0490 C   0  0  0  0  0  0  0  0  0  0  0  0
  192.8000  176.3760  138.3370 C   0  0  0  0  0  3  0  0  0  0  0  0
  189.8930  176.3750  136.0330 O   0  0  0  0  0  1  0  0  0  0  0  0
  194.6890  176.2570  135.0670 C   0  0  0  0  0  1  0  0  0  0  0  0
  193.8480  176.3320  137.4160 C   0  0  0  0  0  3  0  0  0  0  0  0
  191.1950  176.3610  136.5190 C   0  0  0  0  0  0  0  0  0  0  0  0
  191.4640  176.3910  137.9070 C   0  0  0  0  0  0  0  0  0  0  0  0
  192.2510  176.3180  135.6030 C   0  0  0  0  0  3  0  0  0  0  0  0
  1 14  1  0  0  0  0
  1  9  2  0  0  0  0
  2  3  2  0  0  0  0
  3 19  1  0  0  0  0
  3  7  1  0  0  0  0
  4 15  1  0  0  0  0
  4 11  1  0  0  0  0
  5  2  1  0  0  0  0
  5 14  1  0  0  0  0
  6  1  1  0  0  0  0
  7  4  2  0  0  0  0
  8 13  1  0  0  0  0
 10 19  2  0  0  0  0
 12  8  2  0  0  0  0
 12 16  1  0  0  0  0
 13 18  2  0  0  0  0
 13  2  1  0  0  0  0
 16  5  2  0  0  0  0
 17 16  1  0  0  0  0
 17  6  2  0  0  0  0
 18 10  1  0  0  0  0
 19 20  1  0  0  0  0
 20 15  2  0  0  0  0
 21 22  2  0  0  0  0
 22 23  1  0  0  0  0
 23  8  1  0  0  0  0
 24 28  1  0  0  0  0
 26 29  1  0  0  0  0
 27 24  1  0  0  0  0
 28 25  2  0  0  0  0
 29 30  2  0  0  0  0
 30 25  1  0  0  0  0
 30 22  1  0  0  0  0
 31 24  2  0  0  0  0
 31 29  1  0  0  0  0
M  END
>  <MODEL>
6

>  <REMARK>
 VINA RESULT:     -10.0      1.454      1.884
  Name = 
  2 active torsions:
  status: ('A' for Active; 'I' for Inactive)
    1  A    between atoms: C_5  and  C_30
    2  A    between atoms: C_10  and  N_16
                            x       y       z     vdW  Elec       q    Type
                         _______ _______ _______ _____ _____    ______ ____

>  <TORSDO>
F 2

$$$$
=
 OpenBabel11122411083D

 31 35  0  0  0  0  0  0  0  0999 V2000
  187.6300  178.3790  148.2770 C   0  0  0  0  0  0  0  0  0  0  0  0
  188.0320  177.4270  144.5310 C   0  0  0  0  0  0  0  0  0  0  0  0
  189.3540  176.9040  144.3560 C   0  0  0  0  0  0  0  0  0  0  0  0
  191.5670  176.2930  145.2000 C   0  0  0  0  0  0  0  0  0  0  0  0
  187.5120  177.9160  145.7730 C   0  0  0  0  0  0  0  0  0  0  0  0
  186.2550  178.8790  148.2210 C   0  0  0  0  0  3  0  0  0  0  0  0
  190.2860  176.8090  145.4060 C   0  0  0  0  0  3  0  0  0  0  0  0
  185.8740  177.9460  143.4660 C   0  0  0  0  0  0  0  0  0  0  0  0
  188.2200  178.3170  149.3860 O   0  0  0  0  0  0  0  0  0  0  0  0
  188.8830  176.5150  142.0070 C   0  0  0  0  0  3  0  0  0  0  0  0
  192.4390  176.2160  146.2330 F   0  0  0  0  0  0  0  0  0  0  0  0
  185.3890  178.4090  144.6850 C   0  0  0  0  0  3  0  0  0  0  0  0
  187.1850  177.4550  143.3830 C   0  0  0  0  0  0  0  0  0  0  0  0
  188.3600  177.9750  147.0300 C   0  0  0  0  0  2  0  0  0  0  0  0
  191.9470  175.8570  143.9310 C   0  0  0  0  0  3  0  0  0  0  0  0
  186.1840  178.4000  145.8230 C   0  0  0  0  0  0  0  0  0  0  0  0
  185.5860  178.8930  147.0730 C   0  0  0  0  0  3  0  0  0  0  0  0
  187.6350  177.0060  142.1810 N   0  0  0  0  0  0  0  0  0  0  0  0
  189.7630  176.4520  143.0760 C   0  0  0  0  0  0  0  0  0  0  0  0
  191.0460  175.9360  142.8710 C   0  0  0  0  0  3  0  0  0  0  0  0
  185.8610  179.9010  141.2660 O   0  0  0  0  0  0  0  0  0  0  0  0
  185.0630  178.9260  141.2260 C   0  0  0  0  0  0  0  0  0  0  0  0
  185.0500  177.9580  142.2870 N   0  0  0  0  0  2  0  0  0  0  0  0
  182.2780  178.4770  137.9870 C   0  0  0  0  0  0  0  0  0  0  0  0
  182.7490  178.8040  140.3350 C   0  0  0  0  0  3  0  0  0  0  0  0
  185.9310  178.5370  138.4480 O   0  0  0  0  0  1  0  0  0  0  0  0
  181.3010  178.3240  136.8780 C   0  0  0  0  0  1  0  0  0  0  0  0
  181.8290  178.6600  139.2950 C   0  0  0  0  0  3  0  0  0  0  0  0
  184.5770  178.5820  138.7570 C   0  0  0  0  0  0  0  0  0  0  0  0
  184.1300  178.7680  140.0850 C   0  0  0  0  0  0  0  0  0  0  0  0
  183.6480  178.4380  137.7200 C   0  0  0  0  0  3  0  0  0  0  0  0
  1  9  2  0  0  0  0
  2  5  1  0  0  0  0
  3  2  1  0  0  0  0
  3  7  2  0  0  0  0
  4  7  1  0  0  0  0
  4 11  1  0  0  0  0
  5 16  2  0  0  0  0
  5 14  1  0  0  0  0
  6  1  1  0  0  0  0
  8 12  2  0  0  0  0
 10 18  2  0  0  0  0
 10 19  1  0  0  0  0
 12 16  1  0  0  0  0
 13  8  1  0  0  0  0
 13  2  2  0  0  0  0
 14  1  1  0  0  0  0
 15  4  2  0  0  0  0
 16 17  1  0  0  0  0
 17  6  2  0  0  0  0
 18 13  1  0  0  0  0
 19  3  1  0  0  0  0
 20 19  2  0  0  0  0
 20 15  1  0  0  0  0
 22 21  2  0  0  0  0
 22 23  1  0  0  0  0
 23  8  1  0  0  0  0
 24 28  1  0  0  0  0
 26 29  1  0  0  0  0
 27 24  1  0  0  0  0
 28 25  2  0  0  0  0
 29 30  2  0  0  0  0
 30 25  1  0  0  0  0
 30 22  1  0  0  0  0
 31 24  2  0  0  0  0
 31 29  1  0  0  0  0
M  END
>  <MODEL>
7

>  <REMARK>
 VINA RESULT:      -9.9      3.517      5.441
  Name = 
  2 active torsions:
  status: ('A' for Active; 'I' for Inactive)
    1  A    between atoms: C_5  and  C_30
    2  A    between atoms: C_10  and  N_16
                            x       y       z     vdW  Elec       q    Type
                         _______ _______ _______ _____ _____    ______ ____

>  <TORSDO>
F 2

$$$$
=
 OpenBabel11122411083D

 31 35  0  0  0  0  0  0  0  0999 V2000
  191.6800  176.1960  146.3440 C   0  0  0  0  0  0  0  0  0  0  0  0
  188.3850  177.3280  144.6240 C   0  0  0  0  0  0  0  0  0  0  0  0
  187.5190  177.8440  145.6420 C   0  0  0  0  0  0  0  0  0  0  0  0
  187.0040  178.3900  147.9700 C   0  0  0  0  0  0  0  0  0  0  0  0
  189.6870  176.7830  144.8680 C   0  0  0  0  0  0  0  0  0  0  0  0
  192.3840  175.7140  145.1550 C   0  0  0  0  0  3  0  0  0  0  0  0
  187.8720  177.8780  147.0030 C   0  0  0  0  0  3  0  0  0  0  0  0
  188.6900  176.8850  142.2210 C   0  0  0  0  0  0  0  0  0  0  0  0
  192.2710  176.1960  147.4550 O   0  0  0  0  0  0  0  0  0  0  0  0
  185.8500  178.3540  143.9550 C   0  0  0  0  0  3  0  0  0  0  0  0
  187.3750  178.4070  149.2720 F   0  0  0  0  0  0  0  0  0  0  0  0
  189.9540  176.3670  142.4830 C   0  0  0  0  0  3  0  0  0  0  0  0
  187.9060  177.3660  143.2800 C   0  0  0  0  0  0  0  0  0  0  0  0
  190.2530  176.6530  146.2700 C   0  0  0  0  0  2  0  0  0  0  0  0
  185.7550  178.8840  147.5930 C   0  0  0  0  0  3  0  0  0  0  0  0
  190.4540  176.3110  143.7760 C   0  0  0  0  0  0  0  0  0  0  0  0
  191.8070  175.7640  143.9600 C   0  0  0  0  0  3  0  0  0  0  0  0
  186.6740  177.8690  142.9990 N   0  0  0  0  0  0  0  0  0  0  0  0
  186.2460  178.3560  145.2830 C   0  0  0  0  0  0  0  0  0  0  0  0
  185.3770  178.8670  146.2520 C   0  0  0  0  0  3  0  0  0  0  0  0
  189.5540  178.6110  139.9990 O   0  0  0  0  0  0  0  0  0  0  0  0
  188.6120  177.7940  139.8120 C   0  0  0  0  0  0  0  0  0  0  0  0
  188.1730  176.9400  140.8800 N   0  0  0  0  0  2  0  0  0  0  0  0
  186.7790  177.4910  135.9400 C   0  0  0  0  0  0  0  0  0  0  0  0
  188.6590  177.1400  137.4180 C   0  0  0  0  0  3  0  0  0  0  0  0
  185.8810  178.7360  139.2870 O   0  0  0  0  0  1  0  0  0  0  0  0
  186.1600  177.3780  134.5940 C   0  0  0  0  0  1  0  0  0  0  0  0
  188.0790  177.0320  136.1520 C   0  0  0  0  0  3  0  0  0  0  0  0
  186.6330  178.1670  138.2660 C   0  0  0  0  0  0  0  0  0  0  0  0
  187.9500  177.7040  138.4890 C   0  0  0  0  0  0  0  0  0  0  0  0
  186.0590  178.0560  136.9940 C   0  0  0  0  0  3  0  0  0  0  0  0
  1  9  2  0  0  0  0
  2  5  1  0  0  0  0
  2  3  2  0  0  0  0
  3  7  1  0  0  0  0
  4 11  1  0  0  0  0
  5 14  1  0  0  0  0
  6  1  1  0  0  0  0
  7  4  2  0  0  0  0
  8 12  2  0  0  0  0
  8 13  1  0  0  0  0
 10 19  2  0  0  0  0
 12 16  1  0  0  0  0
 13  2  1  0  0  0  0
 14  1  1  0  0  0  0
 15  4  1  0  0  0  0
 16 17  1  0  0  0  0
 16  5  2  0  0  0  0
 17  6  2  0  0  0  0
 18 13  2  0  0  0  0
 18 10  1  0  0  0  0
 19  3  1  0  0  0  0
 19 20  1  0  0  0  0
 20 15  2  0  0  0  0
 22 21  2  0  0  0  0
 22 23  1  0  0  0  0
 23  8  1  0  0  0  0
 24 28  2  0  0  0  0
 24 31  1  0  0  0  0
 25 30  2  0  0  0  0
 27 24  1  0  0  0  0
 28 25  1  0  0  0  0
 29 30  1  0  0  0  0
 29 26  1  0  0  0  0
 30 22  1  0  0  0  0
 31 29  2  0  0  0  0
M  END
>  <MODEL>
8

>  <REMARK>
 VINA RESULT:      -9.7      2.359      4.641
  Name = 
  2 active torsions:
  status: ('A' for Active; 'I' for Inactive)
    1  A    between atoms: C_5  and  C_30
    2  A    between atoms: C_10  and  N_16
                            x       y       z     vdW  Elec       q    Type
                         _______ _______ _______ _____ _____    ______ ____

>  <TORSDO>
F 2

$$$$
=
 OpenBabel11122411083D

 31 35  0  0  0  0  0  0  0  0999 V2000
  183.1860  179.1080  139.0090 C   0  0  0  0  0  0  0  0  0  0  0  0
  186.9450  178.2790  139.5400 C   0  0  0  0  0  0  0  0  0  0  0  0
  187.5520  178.1730  138.2480 C   0  0  0  0  0  0  0  0  0  0  0  0
  187.4600  178.2260  135.8040 C   0  0  0  0  0  0  0  0  0  0  0  0
  185.5550  178.5470  139.7630 C   0  0  0  0  0  0  0  0  0  0  0  0
  182.7810  179.1600  140.4150 C   0  0  0  0  0  3  0  0  0  0  0  0
  186.8350  178.3350  137.0480 C   0  0  0  0  0  3  0  0  0  0  0  0
  187.2810  178.1980  141.9780 C   0  0  0  0  0  0  0  0  0  0  0  0
  182.3480  179.3880  138.1140 O   0  0  0  0  0  0  0  0  0  0  0  0
  189.6970  177.7390  139.2980 C   0  0  0  0  0  3  0  0  0  0  0  0
  186.7400  178.3860  134.6690 F   0  0  0  0  0  0  0  0  0  0  0  0
  185.9290  178.4650  142.1690 C   0  0  0  0  0  3  0  0  0  0  0  0
  187.7920  178.1060  140.6760 C   0  0  0  0  0  0  0  0  0  0  0  0
  184.5720  178.6910  138.6160 C   0  0  0  0  0  2  0  0  0  0  0  0
  188.8260  177.9530  135.7320 C   0  0  0  0  0  3  0  0  0  0  0  0
  185.0730  178.6380  141.0900 C   0  0  0  0  0  0  0  0  0  0  0  0
  183.6620  178.9350  141.3820 C   0  0  0  0  0  3  0  0  0  0  0  0
  189.1170  177.8450  140.5150 N   0  0  0  0  0  0  0  0  0  0  0  0
  188.9400  177.9000  138.1480 C   0  0  0  0  0  0  0  0  0  0  0  0
  189.5650  177.7900  136.9020 C   0  0  0  0  0  3  0  0  0  0  0  0
  188.1840  175.6790  143.2050 O   0  0  0  0  0  0  0  0  0  0  0  0
  188.5920  176.7740  143.6780 C   0  0  0  0  0  0  0  0  0  0  0  0
  188.1670  178.0170  143.0970 N   0  0  0  0  0  2  0  0  0  0  0  0
  191.1830  176.8480  147.1020 C   0  0  0  0  0  0  0  0  0  0  0  0
  188.9920  177.0780  146.1100 C   0  0  0  0  0  3  0  0  0  0  0  0
  191.4730  176.2420  143.4820 O   0  0  0  0  0  1  0  0  0  0  0  0
  192.0650  176.8780  148.2980 C   0  0  0  0  0  1  0  0  0  0  0  0
  189.8190  177.1060  147.2340 C   0  0  0  0  0  3  0  0  0  0  0  0
  190.8980  176.5310  144.7140 C   0  0  0  0  0  0  0  0  0  0  0  0
  189.5140  176.7910  144.8380 C   0  0  0  0  0  0  0  0  0  0  0  0
  191.7210  176.5620  145.8460 C   0  0  0  0  0  3  0  0  0  0  0  0
  1  6  1  0  0  0  0
  2  5  2  0  0  0  0
  2 13  1  0  0  0  0
  3  2  1  0  0  0  0
  4  7  1  0  0  0  0
  5 16  1  0  0  0  0
  6 17  2  0  0  0  0
  7  3  2  0  0  0  0
  8 12  1  0  0  0  0
  8 23  1  0  0  0  0
  9  1  2  0  0  0  0
 10 18  2  0  0  0  0
 11  4  1  0  0  0  0
 13  8  2  0  0  0  0
 14  1  1  0  0  0  0
 14  5  1  0  0  0  0
 15  4  2  0  0  0  0
 15 20  1  0  0  0  0
 16 17  1  0  0  0  0
 16 12  2  0  0  0  0
 18 13  1  0  0  0  0
 19  3  1  0  0  0  0
 19 10  1  0  0  0  0
 20 19  2  0  0  0  0
 21 22  2  0  0  0  0
 22 30  1  0  0  0  0
 23 22  1  0  0  0  0
 24 28  1  0  0  0  0
 24 27  1  0  0  0  0
 25 28  2  0  0  0  0
 26 29  1  0  0  0  0
 29 30  2  0  0  0  0
 29 31  1  0  0  0  0
 30 25  1  0  0  0  0
 31 24  2  0  0  0  0
M  END
>  <MODEL>
9

>  <REMARK>
 VINA RESULT:      -9.6      3.616      7.635
  Name = 
  2 active torsions:
  status: ('A' for Active; 'I' for Inactive)
    1  A    between atoms: C_5  and  C_30
    2  A    between atoms: C_10  and  N_16
                            x       y       z     vdW  Elec       q    Type
                         _______ _______ _______ _____ _____    ______ ____

>  <TORSDO>
F 2

$$$$
