=
 OpenBabel11122411543D

 28 32  0  0  1  0  0  0  0  0999 V2000
  189.3420  178.0590  138.1120 C   0  0  0  0  0  0  0  0  0  0  0  0
  192.4670  176.3920  134.7980 O   0  0  0  0  0  0  0  0  0  0  0  0
  186.6740  173.9270  135.0970 C   0  0  0  0  0  1  0  0  0  0  0  0
  189.8660  176.9180  140.6150 C   0  0  0  0  0  3  0  0  0  0  0  0
  188.5490  173.1330  136.5490 C   0  0  1  0  0  3  0  0  0  0  0  0
  189.0600  178.6100  136.8590 O   0  0  0  0  0  0  0  0  0  0  0  0
  194.0400  176.3950  136.6750 O   0  0  0  0  0  0  0  0  0  0  0  0
  193.0080  175.5840  135.9450 S   0  0  0  0  0  0  0  0  0  0  0  0
  192.6800  172.6900  135.7830 C   0  0  2  0  0  3  0  0  0  0  0  0
  191.6820  175.1970  137.0940 C   0  0  2  0  0  3  0  0  0  0  0  0
  185.7870  177.6160  136.6320 O   0  0  0  0  0  0  0  0  0  0  0  0
  189.4130  175.2470  136.3760 C   0  0  1  0  0  3  0  0  0  0  0  0
  191.4000  173.2330  135.6600 O   0  0  0  0  0  0  0  0  0  0  0  0
  193.9290  173.8610  135.1600 S   0  0  0  0  0  0  0  0  0  0  0  0
  186.9450  177.6740  136.2540 C   0  0  0  0  0  0  0  0  0  0  0  0
  190.0880  176.8700  138.1950 C   0  0  0  0  0  0  0  0  0  0  0  0
  187.4090  174.1650  136.4170 C   0  0  1  0  0  3  0  0  0  0  0  0
  192.7630  171.4000  134.9960 C   0  0  0  0  0  1  0  0  0  0  0  0
  187.5690  176.4950  135.5750 C   0  0  0  0  0  2  0  0  0  0  0  0
  190.3350  176.3000  139.4540 C   0  0  0  0  0  3  0  0  0  0  0  0
  188.8640  178.6690  139.2800 C   0  0  0  0  0  3  0  0  0  0  0  0
  189.1310  178.1020  140.5290 C   0  0  0  0  0  3  0  0  0  0  0  0
  187.7330  178.9320  136.4650 C   0  0  0  0  0  2  0  0  0  0  0  0
  189.6450  173.9910  137.0970 C   0  0  2  0  0  3  0  0  0  0  0  0
  188.0040  175.5260  136.5810 N   0  0  2  0  0  0  0  0  0  0  0  0
  191.1240  173.7550  136.9310 C   0  0  2  0  0  3  0  0  0  0  0  0
  188.2010  172.1590  137.4850 O   0  0  0  0  0  1  0  0  0  0  0  0
  190.4900  176.1700  136.9170 C   0  0  1  0  0  3  0  0  0  0  0  0
  1 16  2  0  0  0  0
  1 21  1  0  0  0  0
  2  8  2  0  0  0  0
  3 17  1  0  0  0  0
  5 24  1  0  0  0  0
  5 27  1  1  0  0  0
  6  1  1  0  0  0  0
  8  7  2  0  0  0  0
  9 18  1  6  0  0  0
 10  8  1  6  0  0  0
 12 25  1  0  0  0  0
 12 28  1  0  0  0  0
 12 24  1  0  0  0  0
 13  9  1  0  0  0  0
 13 26  1  0  0  0  0
 14  9  1  0  0  0  0
 14  8  1  0  0  0  0
 15 23  1  0  0  0  0
 15 11  2  0  0  0  0
 16 20  1  0  0  0  0
 17  5  1  0  0  0  0
 17 25  1  0  0  0  0
 19 15  1  0  0  0  0
 19 25  1  0  0  0  0
 20  4  2  0  0  0  0
 21 22  2  0  0  0  0
 22  4  1  0  0  0  0
 23  6  1  0  0  0  0
 26 10  1  0  0  0  0
 26 24  1  0  0  0  0
 28 10  1  0  0  0  0
 28 16  1  0  0  0  0
M  END
>  <MODEL>
1

>  <REMARK>
 VINA RESULT:      -6.2      0.000      0.000
  Name = 
  0 active torsions:
  status: ('A' for Active; 'I' for Inactive)
                            x       y       z     vdW  Elec       q    Type
                         _______ _______ _______ _____ _____    ______ ____

>  <TORSDO>
F 0

$$$$
=
 OpenBabel11122411543D

 28 32  0  0  1  0  0  0  0  0999 V2000
  180.1340  179.2740  141.8250 C   0  0  0  0  0  0  0  0  0  0  0  0
  180.8200  174.8310  140.0050 O   0  0  0  0  0  0  0  0  0  0  0  0
  185.8210  178.3430  141.5490 C   0  0  0  0  0  1  0  0  0  0  0  0
  179.5890  181.1010  139.7750 C   0  0  0  0  0  3  0  0  0  0  0  0
  184.6730  178.5390  139.3360 C   0  0  1  0  0  3  0  0  0  0  0  0
  180.4320  178.3700  142.8490 O   0  0  0  0  0  0  0  0  0  0  0  0
  179.1200  175.5270  138.3850 O   0  0  0  0  0  0  0  0  0  0  0  0
  180.5920  175.5100  138.6830 S   0  0  0  0  0  0  0  0  0  0  0  0
  182.8660  175.6310  136.8600 C   0  0  2  0  0  3  0  0  0  0  0  0
  181.1690  177.2090  138.7650 C   0  0  2  0  0  3  0  0  0  0  0  0
  183.1430  180.0140  144.1540 O   0  0  0  0  0  0  0  0  0  0  0  0
  182.7640  177.8620  140.4070 C   0  0  1  0  0  3  0  0  0  0  0  0
  183.2920  176.2220  138.0510 O   0  0  0  0  0  0  0  0  0  0  0  0
  181.5730  174.3930  137.1920 S   0  0  0  0  0  0  0  0  0  0  0  0
  182.5770  179.0580  143.6520 C   0  0  0  0  0  0  0  0  0  0  0  0
  180.4890  178.9620  140.5010 C   0  0  0  0  0  0  0  0  0  0  0  0
  184.6790  179.0310  140.7990 C   0  0  1  0  0  3  0  0  0  0  0  0
  184.0400  174.9640  136.1750 C   0  0  0  0  0  1  0  0  0  0  0  0
  183.3100  178.1790  142.6870 C   0  0  0  0  0  2  0  0  0  0  0  0
  180.2220  179.8910  139.4820 C   0  0  0  0  0  3  0  0  0  0  0  0
  179.5100  180.4950  142.1150 C   0  0  0  0  0  3  0  0  0  0  0  0
  179.2330  181.4030  141.0910 C   0  0  0  0  0  3  0  0  0  0  0  0
  181.1510  178.7660  144.0110 C   0  0  0  0  0  2  0  0  0  0  0  0
  183.2050  178.3680  139.1030 C   0  0  2  0  0  3  0  0  0  0  0  0
  183.3140  178.8030  141.3630 N   0  0  2  0  0  0  0  0  0  0  0  0
  182.5680  177.4190  138.1200 C   0  0  2  0  0  3  0  0  0  0  0  0
  185.1700  179.5360  138.4980 O   0  0  0  0  0  1  0  0  0  0  0  0
  181.2660  177.6940  140.2330 C   0  0  1  0  0  3  0  0  0  0  0  0
  1 21  1  0  0  0  0
  1  6  1  0  0  0  0
  4 22  1  0  0  0  0
  5 27  1  6  0  0  0
  5 17  1  0  0  0  0
  6 23  1  0  0  0  0
  7  8  2  0  0  0  0
  8  2  2  0  0  0  0
  9 18  1  1  0  0  0
  9 14  1  0  0  0  0
  9 13  1  0  0  0  0
 10  8  1  1  0  0  0
 10 28  1  0  0  0  0
 12 25  1  0  0  0  0
 13 26  1  0  0  0  0
 14  8  1  0  0  0  0
 15 23  1  0  0  0  0
 15 11  2  0  0  0  0
 16  1  2  0  0  0  0
 17 25  1  0  0  0  0
 17  3  1  0  0  0  0
 19 15  1  0  0  0  0
 20  4  2  0  0  0  0
 20 16  1  0  0  0  0
 22 21  2  0  0  0  0
 24  5  1  0  0  0  0
 24 12  1  0  0  0  0
 25 19  1  0  0  0  0
 26 10  1  0  0  0  0
 26 24  1  0  0  0  0
 28 12  1  0  0  0  0
 28 16  1  0  0  0  0
M  END
>  <MODEL>
2

>  <REMARK>
 VINA RESULT:      -5.8      7.294      9.970
  Name = 
  0 active torsions:
  status: ('A' for Active; 'I' for Inactive)
                            x       y       z     vdW  Elec       q    Type
                         _______ _______ _______ _____ _____    ______ ____

>  <TORSDO>
F 0

$$$$
=
 OpenBabel11122411543D

 28 32  0  0  1  0  0  0  0  0999 V2000
  181.6840  175.7050  136.4870 C   0  0  0  0  0  0  0  0  0  0  0  0
  186.2470  174.3250  137.3770 O   0  0  0  0  0  0  0  0  0  0  0  0
  183.3530  178.2100  141.4080 C   0  0  0  0  0  1  0  0  0  0  0  0
  181.6340  177.7670  134.5940 C   0  0  0  0  0  3  0  0  0  0  0  0
  184.5210  179.0310  139.3540 C   0  0  1  0  0  3  0  0  0  0  0  0
  181.7060  174.6940  137.4520 O   0  0  0  0  0  0  0  0  0  0  0  0
  186.5760  174.8300  135.0030 O   0  0  0  0  0  0  0  0  0  0  0  0
  186.5980  175.4040  136.3900 S   0  0  0  0  0  0  0  0  0  0  0  0
  188.0440  177.7140  137.4310 C   0  0  2  0  0  3  0  0  0  0  0  0
  185.3800  176.7220  136.4730 C   0  0  2  0  0  3  0  0  0  0  0  0
  180.0160  176.3640  139.9230 O   0  0  0  0  0  0  0  0  0  0  0  0
  184.0340  176.9980  138.4170 C   0  0  1  0  0  3  0  0  0  0  0  0
  186.8790  177.6110  138.1920 O   0  0  0  0  0  0  0  0  0  0  0  0
  188.5480  176.0760  136.8150 S   0  0  0  0  0  0  0  0  0  0  0  0
  180.9700  175.7640  139.4590 C   0  0  0  0  0  0  0  0  0  0  0  0
  182.8440  176.4620  136.2500 C   0  0  0  0  0  0  0  0  0  0  0  0
  183.1870  178.4910  139.9140 C   0  0  1  0  0  3  0  0  0  0  0  0
  189.1550  178.2980  138.2780 C   0  0  0  0  0  1  0  0  0  0  0  0
  182.3610  176.1510  139.8590 C   0  0  0  0  0  2  0  0  0  0  0  0
  182.8050  177.5030  135.3080 C   0  0  0  0  0  3  0  0  0  0  0  0
  180.5080  175.9820  135.7760 C   0  0  0  0  0  3  0  0  0  0  0  0
  180.4860  177.0080  134.8270 C   0  0  0  0  0  3  0  0  0  0  0  0
  180.7440  174.6370  138.4980 C   0  0  0  0  0  2  0  0  0  0  0  0
  184.5940  178.3030  138.0500 C   0  0  2  0  0  3  0  0  0  0  0  0
  182.7850  177.3160  139.0820 N   0  0  2  0  0  0  0  0  0  0  0  0
  185.8540  177.9510  137.3000 C   0  0  2  0  0  3  0  0  0  0  0  0
  184.4180  180.4020  139.1240 O   0  0  0  0  0  1  0  0  0  0  0  0
  184.0610  176.2220  137.1130 C   0  0  1  0  0  3  0  0  0  0  0  0
  1  6  1  0  0  0  0
  4 22  2  0  0  0  0
  4 20  1  0  0  0  0
  5 27  1  6  0  0  0
  5 17  1  0  0  0  0
  6 23  1  0  0  0  0
  7  8  2  0  0  0  0
  8 14  1  0  0  0  0
  8  2  2  0  0  0  0
  9 13  1  0  0  0  0
  9 18  1  1  0  0  0
 10  8  1  1  0  0  0
 10 28  1  0  0  0  0
 10 26  1  0  0  0  0
 12 25  1  0  0  0  0
 14  9  1  0  0  0  0
 15 19  1  0  0  0  0
 15 11  2  0  0  0  0
 16  1  1  0  0  0  0
 16 28  1  0  0  0  0
 17  3  1  0  0  0  0
 20 16  2  0  0  0  0
 21  1  2  0  0  0  0
 22 21  1  0  0  0  0
 23 15  1  0  0  0  0
 24 12  1  0  0  0  0
 24  5  1  0  0  0  0
 25 19  1  0  0  0  0
 25 17  1  0  0  0  0
 26 24  1  0  0  0  0
 26 13  1  0  0  0  0
 28 12  1  0  0  0  0
M  END
>  <MODEL>
3

>  <REMARK>
 VINA RESULT:      -5.8      4.813      7.671
  Name = 
  0 active torsions:
  status: ('A' for Active; 'I' for Inactive)
                            x       y       z     vdW  Elec       q    Type
                         _______ _______ _______ _____ _____    ______ ____

>  <TORSDO>
F 0

$$$$
=
 OpenBabel11122411543D

 28 32  0  0  1  0  0  0  0  0999 V2000
  179.6010  180.1550  139.3110 C   0  0  0  0  0  0  0  0  0  0  0  0
  180.5610  175.6110  137.9130 O   0  0  0  0  0  0  0  0  0  0  0  0
  183.9710  178.2060  142.5350 C   0  0  0  0  0  1  0  0  0  0  0  0
  180.7570  181.9910  137.5410 C   0  0  0  0  0  3  0  0  0  0  0  0
  184.5090  178.5430  140.1160 C   0  0  1  0  0  3  0  0  0  0  0  0
  179.0450  179.2420  140.2120 O   0  0  0  0  0  0  0  0  0  0  0  0
  180.3860  176.5550  135.6590 O   0  0  0  0  0  0  0  0  0  0  0  0
  181.3210  176.2810  136.8020 S   0  0  0  0  0  0  0  0  0  0  0  0
  184.2180  175.9390  136.8010 C   0  0  2  0  0  3  0  0  0  0  0  0
  181.9790  177.8500  137.3790 C   0  0  2  0  0  3  0  0  0  0  0  0
  180.5600  180.4070  143.0580 O   0  0  0  0  0  0  0  0  0  0  0  0
  182.2740  178.2520  139.7060 C   0  0  1  0  0  3  0  0  0  0  0  0
  183.8920  176.4770  138.0480 O   0  0  0  0  0  0  0  0  0  0  0  0
  182.8260  174.9640  136.1460 S   0  0  0  0  0  0  0  0  0  0  0  0
  180.2900  179.5550  142.2290 C   0  0  0  0  0  0  0  0  0  0  0  0
  180.6510  179.7470  138.4700 C   0  0  0  0  0  0  0  0  0  0  0  0
  183.6760  179.0670  141.3050 C   0  0  1  0  0  3  0  0  0  0  0  0
  185.4370  175.0510  136.9350 C   0  0  0  0  0  1  0  0  0  0  0  0
  181.3150  178.5300  141.8510 C   0  0  0  0  0  2  0  0  0  0  0  0
  181.2320  180.6780  137.5950 C   0  0  0  0  0  3  0  0  0  0  0  0
  179.1370  181.4770  139.2610 C   0  0  0  0  0  3  0  0  0  0  0  0
  179.7100  182.3900  138.3740 C   0  0  0  0  0  3  0  0  0  0  0  0
  178.9310  179.5350  141.5990 C   0  0  0  0  0  2  0  0  0  0  0  0
  183.5070  178.6320  139.0090 C   0  0  2  0  0  3  0  0  0  0  0  0
  182.2450  179.1050  140.8790 N   0  0  2  0  0  0  0  0  0  0  0  0
  183.4850  177.7860  137.7620 C   0  0  2  0  0  3  0  0  0  0  0  0
  185.5710  179.4090  139.8620 O   0  0  0  0  0  1  0  0  0  0  0  0
  181.2120  178.3520  138.6270 C   0  0  1  0  0  3  0  0  0  0  0  0
  1  6  1  0  0  0  0
  4 20  2  0  0  0  0
  4 22  1  0  0  0  0
  5 27  1  6  0  0  0
  5 17  1  0  0  0  0
  6 23  1  0  0  0  0
  7  8  2  0  0  0  0
  8  2  2  0  0  0  0
  9 18  1  1  0  0  0
  9 13  1  0  0  0  0
 10  8  1  1  0  0  0
 10 26  1  0  0  0  0
 10 28  1  0  0  0  0
 12 25  1  0  0  0  0
 14  9  1  0  0  0  0
 14  8  1  0  0  0  0
 15 11  2  0  0  0  0
 16 28  1  0  0  0  0
 16  1  2  0  0  0  0
 17  3  1  0  0  0  0
 19 15  1  0  0  0  0
 20 16  1  0  0  0  0
 21  1  1  0  0  0  0
 22 21  2  0  0  0  0
 23 15  1  0  0  0  0
 24 12  1  0  0  0  0
 24  5  1  0  0  0  0
 25 17  1  0  0  0  0
 25 19  1  0  0  0  0
 26 13  1  0  0  0  0
 26 24  1  0  0  0  0
 28 12  1  0  0  0  0
M  END
>  <MODEL>
4

>  <REMARK>
 VINA RESULT:      -5.6      7.034      9.745
  Name = 
  0 active torsions:
  status: ('A' for Active; 'I' for Inactive)
                            x       y       z     vdW  Elec       q    Type
                         _______ _______ _______ _____ _____    ______ ____

>  <TORSDO>
F 0

$$$$
=
 OpenBabel11122411543D

 28 32  0  0  1  0  0  0  0  0999 V2000
  182.5120  177.5370  137.3050 C   0  0  0  0  0  0  0  0  0  0  0  0
  184.6810  173.2460  137.9340 O   0  0  0  0  0  0  0  0  0  0  0  0
  188.1730  178.4920  137.8750 C   0  0  0  0  0  1  0  0  0  0  0  0
  181.9640  177.9720  134.5940 C   0  0  0  0  0  3  0  0  0  0  0  0
  187.5070  177.2970  135.7810 C   0  0  1  0  0  3  0  0  0  0  0  0
  182.8080  177.3360  138.6560 O   0  0  0  0  0  0  0  0  0  0  0  0
  183.2420  172.5510  136.0770 O   0  0  0  0  0  0  0  0  0  0  0  0
  184.5720  173.1490  136.4370 S   0  0  0  0  0  0  0  0  0  0  0  0
  187.0710  173.1810  134.9330 C   0  0  2  0  0  3  0  0  0  0  0  0
  184.6640  174.7910  135.7150 C   0  0  2  0  0  3  0  0  0  0  0  0
  184.6680  180.1720  139.1580 O   0  0  0  0  0  0  0  0  0  0  0  0
  185.6540  176.5860  136.9240 C   0  0  1  0  0  3  0  0  0  0  0  0
  187.0700  174.3420  135.7080 O   0  0  0  0  0  0  0  0  0  0  0  0
  186.0980  171.8740  135.7460 S   0  0  0  0  0  0  0  0  0  0  0  0
  184.4850  178.9670  139.1520 C   0  0  0  0  0  0  0  0  0  0  0  0
  183.2060  176.8040  136.3270 C   0  0  0  0  0  0  0  0  0  0  0  0
  187.0780  178.3600  136.8140 C   0  0  1  0  0  3  0  0  0  0  0  0
  188.4940  172.7030  134.7360 C   0  0  0  0  0  1  0  0  0  0  0  0
  185.6060  178.0430  138.7880 C   0  0  0  0  0  2  0  0  0  0  0  0
  182.9320  177.0380  134.9700 C   0  0  0  0  0  3  0  0  0  0  0  0
  181.5490  178.4820  136.9220 C   0  0  0  0  0  3  0  0  0  0  0  0
  181.2720  178.6930  135.5690 C   0  0  0  0  0  3  0  0  0  0  0  0
  183.1390  178.4180  139.5180 C   0  0  0  0  0  2  0  0  0  0  0  0
  186.2160  176.5720  135.5690 C   0  0  2  0  0  3  0  0  0  0  0  0
  185.7300  177.9760  137.3310 N   0  0  2  0  0  0  0  0  0  0  0  0
  186.0660  175.1360  135.1380 C   0  0  2  0  0  3  0  0  0  0  0  0
  187.8990  177.9190  134.5950 O   0  0  0  0  0  1  0  0  0  0  0  0
  184.3200  175.8800  136.7610 C   0  0  1  0  0  3  0  0  0  0  0  0
  1  6  1  0  0  0  0
  4 20  2  0  0  0  0
  4 22  1  0  0  0  0
  5 27  1  6  0  0  0
  5 17  1  0  0  0  0
  6 23  1  0  0  0  0
  7  8  2  0  0  0  0
  8  2  2  0  0  0  0
  9 18  1  1  0  0  0
  9 13  1  0  0  0  0
  9 14  1  0  0  0  0
 10  8  1  1  0  0  0
 10 28  1  0  0  0  0
 12 25  1  0  0  0  0
 14  8  1  0  0  0  0
 15 11  2  0  0  0  0
 15 23  1  0  0  0  0
 16 28  1  0  0  0  0
 16  1  2  0  0  0  0
 17 25  1  0  0  0  0
 17  3  1  0  0  0  0
 19 15  1  0  0  0  0
 20 16  1  0  0  0  0
 21  1  1  0  0  0  0
 22 21  2  0  0  0  0
 24  5  1  0  0  0  0
 24 12  1  0  0  0  0
 25 19  1  0  0  0  0
 26 24  1  0  0  0  0
 26 13  1  0  0  0  0
 26 10  1  0  0  0  0
 28 12  1  0  0  0  0
M  END
>  <MODEL>
5

>  <REMARK>
 VINA RESULT:      -5.3      4.052      6.673
  Name = 
  0 active torsions:
  status: ('A' for Active; 'I' for Inactive)
                            x       y       z     vdW  Elec       q    Type
                         _______ _______ _______ _____ _____    ______ ____

>  <TORSDO>
F 0

$$$$
=
 OpenBabel11122411543D

 28 32  0  0  1  0  0  0  0  0999 V2000
  179.5520  179.0820  138.1350 C   0  0  0  0  0  0  0  0  0  0  0  0
  180.8770  174.4170  138.1680 O   0  0  0  0  0  0  0  0  0  0  0  0
  184.0790  178.5640  141.6730 C   0  0  0  0  0  1  0  0  0  0  0  0
  180.5460  180.3680  135.8550 C   0  0  0  0  0  3  0  0  0  0  0  0
  184.5780  178.1800  139.2520 C   0  0  1  0  0  3  0  0  0  0  0  0
  179.0760  178.4510  139.2870 O   0  0  0  0  0  0  0  0  0  0  0  0
  180.6170  174.6060  135.7400 O   0  0  0  0  0  0  0  0  0  0  0  0
  181.5760  174.7700  136.8840 S   0  0  0  0  0  0  0  0  0  0  0  0
  184.4910  174.6690  136.9040 C   0  0  2  0  0  3  0  0  0  0  0  0
  182.1050  176.4860  136.9330 C   0  0  2  0  0  3  0  0  0  0  0  0
  180.5000  180.5480  141.5950 O   0  0  0  0  0  0  0  0  0  0  0  0
  182.3740  177.6060  139.0170 C   0  0  1  0  0  3  0  0  0  0  0  0
  184.1260  175.5370  137.9350 O   0  0  0  0  0  0  0  0  0  0  0  0
  183.1820  173.4350  136.6200 S   0  0  0  0  0  0  0  0  0  0  0  0
  180.2990  179.4640  141.0750 C   0  0  0  0  0  0  0  0  0  0  0  0
  180.6280  178.5180  137.4290 C   0  0  0  0  0  0  0  0  0  0  0  0
  183.7100  178.9790  140.2480 C   0  0  1  0  0  3  0  0  0  0  0  0
  185.7800  173.9630  137.2680 C   0  0  0  0  0  1  0  0  0  0  0  0
  181.4030  178.4560  140.9990 C   0  0  0  0  0  2  0  0  0  0  0  0
  181.1270  179.1770  136.2940 C   0  0  0  0  0  3  0  0  0  0  0  0
  178.9800  180.2850  137.6960 C   0  0  0  0  0  3  0  0  0  0  0  0
  179.4720  180.9220  136.5550 C   0  0  0  0  0  3  0  0  0  0  0  0
  178.9430  179.1460  140.5200 C   0  0  0  0  0  2  0  0  0  0  0  0
  183.5690  177.8480  138.2010 C   0  0  2  0  0  3  0  0  0  0  0  0
  182.2790  178.7740  139.8710 N   0  0  2  0  0  0  0  0  0  0  0  0
  183.6120  176.6600  137.2740 C   0  0  2  0  0  3  0  0  0  0  0  0
  185.5650  179.0070  138.7150 O   0  0  0  0  0  1  0  0  0  0  0  0
  181.3030  177.2870  137.9890 C   0  0  1  0  0  3  0  0  0  0  0  0
  1  6  1  0  0  0  0
  4 20  2  0  0  0  0
  4 22  1  0  0  0  0
  5 27  1  6  0  0  0
  5 17  1  0  0  0  0
  6 23  1  0  0  0  0
  7  8  2  0  0  0  0
  8  2  2  0  0  0  0
  9 18  1  1  0  0  0
  9 13  1  0  0  0  0
 10  8  1  1  0  0  0
 10 26  1  0  0  0  0
 10 28  1  0  0  0  0
 12 25  1  0  0  0  0
 14  8  1  0  0  0  0
 14  9  1  0  0  0  0
 15 11  2  0  0  0  0
 16 28  1  0  0  0  0
 16  1  2  0  0  0  0
 17  3  1  0  0  0  0
 19 15  1  0  0  0  0
 20 16  1  0  0  0  0
 21  1  1  0  0  0  0
 22 21  2  0  0  0  0
 23 15  1  0  0  0  0
 24 12  1  0  0  0  0
 24  5  1  0  0  0  0
 25 17  1  0  0  0  0
 25 19  1  0  0  0  0
 26 13  1  0  0  0  0
 26 24  1  0  0  0  0
 28 12  1  0  0  0  0
M  END
>  <MODEL>
6

>  <REMARK>
 VINA RESULT:      -5.1      6.610      9.369
  Name = 
  0 active torsions:
  status: ('A' for Active; 'I' for Inactive)
                            x       y       z     vdW  Elec       q    Type
                         _______ _______ _______ _____ _____    ______ ____

>  <TORSDO>
F 0

$$$$
=
 OpenBabel11122411543D

 28 32  0  0  1  0  0  0  0  0999 V2000
  180.8910  178.0820  136.2070 C   0  0  0  0  0  0  0  0  0  0  0  0
  184.8390  177.6820  138.9960 O   0  0  0  0  0  0  0  0  0  0  0  0
  179.6090  174.5400  140.5770 C   0  0  0  0  0  1  0  0  0  0  0  0
  179.5300  180.4640  136.7700 C   0  0  0  0  0  3  0  0  0  0  0  0
  179.9920  176.9250  141.2260 C   0  0  1  0  0  3  0  0  0  0  0  0
  181.5530  176.8800  135.9430 O   0  0  0  0  0  0  0  0  0  0  0  0
  184.9360  180.1160  138.7390 O   0  0  0  0  0  0  0  0  0  0  0  0
  184.3760  178.9950  139.5660 S   0  0  0  0  0  0  0  0  0  0  0  0
  183.5060  178.9840  142.3500 C   0  0  2  0  0  3  0  0  0  0  0  0
  182.5830  179.0870  139.4980 C   0  0  2  0  0  3  0  0  0  0  0  0
  178.9310  174.7560  136.5470 O   0  0  0  0  0  0  0  0  0  0  0  0
  181.2790  177.1010  139.3390 C   0  0  1  0  0  3  0  0  0  0  0  0
  182.7300  178.0240  141.6980 O   0  0  0  0  0  0  0  0  0  0  0  0
  185.1220  179.1600  141.5280 S   0  0  0  0  0  0  0  0  0  0  0  0
  180.0570  175.1870  136.7250 C   0  0  0  0  0  0  0  0  0  0  0  0
  181.1210  178.7460  137.4240 C   0  0  0  0  0  0  0  0  0  0  0  0
  179.4500  175.9920  140.1220 C   0  0  1  0  0  3  0  0  0  0  0  0
  183.7170  178.5720  143.7920 C   0  0  0  0  0  1  0  0  0  0  0  0
  180.6470  175.1870  138.1010 C   0  0  0  0  0  2  0  0  0  0  0  0
  180.4240  179.9340  137.7020 C   0  0  0  0  0  3  0  0  0  0  0  0
  179.9830  178.6120  135.2800 C   0  0  0  0  0  3  0  0  0  0  0  0
  179.3090  179.8040  135.5590 C   0  0  0  0  0  3  0  0  0  0  0  0
  180.8470  175.7060  135.5620 C   0  0  0  0  0  2  0  0  0  0  0  0
  180.7200  177.9410  140.4050 C   0  0  2  0  0  3  0  0  0  0  0  0
  180.1460  176.3420  138.8470 N   0  0  2  0  0  0  0  0  0  0  0  0
  181.8960  178.7700  140.8560 C   0  0  2  0  0  3  0  0  0  0  0  0
  178.9310  177.5330  141.8960 O   0  0  0  0  0  1  0  0  0  0  0  0
  182.0130  178.0930  138.4550 C   0  0  1  0  0  3  0  0  0  0  0  0
  1 16  1  0  0  0  0
  2  8  2  0  0  0  0
  4 20  1  0  0  0  0
  5 27  1  6  0  0  0
  6  1  1  0  0  0  0
  7  8  2  0  0  0  0
  8 14  1  0  0  0  0
  9 18  1  1  0  0  0
 10  8  1  1  0  0  0
 10 26  1  0  0  0  0
 11 15  2  0  0  0  0
 12 24  1  0  0  0  0
 13  9  1  0  0  0  0
 14  9  1  0  0  0  0
 15 19  1  0  0  0  0
 16 20  2  0  0  0  0
 16 28  1  0  0  0  0
 17  3  1  0  0  0  0
 17  5  1  0  0  0  0
 19 25  1  0  0  0  0
 21 22  1  0  0  0  0
 21  1  2  0  0  0  0
 22  4  2  0  0  0  0
 23  6  1  0  0  0  0
 23 15  1  0  0  0  0
 24 26  1  0  0  0  0
 24  5  1  0  0  0  0
 25 12  1  0  0  0  0
 25 17  1  0  0  0  0
 26 13  1  0  0  0  0
 28 12  1  0  0  0  0
 28 10  1  0  0  0  0
M  END
>  <MODEL>
7

>  <REMARK>
 VINA RESULT:      -5.0      8.265     10.020
  Name = 
  0 active torsions:
  status: ('A' for Active; 'I' for Inactive)
                            x       y       z     vdW  Elec       q    Type
                         _______ _______ _______ _____ _____    ______ ____

>  <TORSDO>
F 0

$$$$
=
 OpenBabel11122411543D

 28 32  0  0  1  0  0  0  0  0999 V2000
  181.4430  178.8960  137.3160 C   0  0  0  0  0  0  0  0  0  0  0  0
  181.6390  174.1080  138.0620 O   0  0  0  0  0  0  0  0  0  0  0  0
  186.9950  177.4230  137.8560 C   0  0  0  0  0  1  0  0  0  0  0  0
  181.0930  179.4510  134.5940 C   0  0  0  0  0  3  0  0  0  0  0  0
  185.8670  176.5620  135.7960 C   0  0  1  0  0  3  0  0  0  0  0  0
  181.6450  178.6240  138.6720 O   0  0  0  0  0  0  0  0  0  0  0  0
  180.0190  174.0290  136.2260 O   0  0  0  0  0  0  0  0  0  0  0  0
  181.4810  174.0280  136.5690 S   0  0  0  0  0  0  0  0  0  0  0  0
  183.7490  172.9800  135.0630 C   0  0  2  0  0  3  0  0  0  0  0  0
  182.2390  175.4650  135.8010 C   0  0  2  0  0  3  0  0  0  0  0  0
  184.5220  180.4400  139.0940 O   0  0  0  0  0  0  0  0  0  0  0  0
  183.9010  176.7150  136.9600 C   0  0  1  0  0  3  0  0  0  0  0  0
  184.2410  174.0560  135.8050 O   0  0  0  0  0  0  0  0  0  0  0  0
  182.3310  172.2170  135.9130 S   0  0  0  0  0  0  0  0  0  0  0  0
  183.8540  179.4210  139.1220 C   0  0  0  0  0  0  0  0  0  0  0  0
  181.7570  177.9160  136.3580 C   0  0  0  0  0  0  0  0  0  0  0  0
  185.9320  177.7320  136.8000 C   0  0  1  0  0  3  0  0  0  0  0  0
  184.8420  171.9490  134.8790 C   0  0  0  0  0  1  0  0  0  0  0  0
  184.4850  178.1060  138.7820 C   0  0  0  0  0  2  0  0  0  0  0  0
  181.5900  178.2090  134.9950 C   0  0  0  0  0  3  0  0  0  0  0  0
  180.9560  180.1450  136.9070 C   0  0  0  0  0  3  0  0  0  0  0  0
  180.7760  180.4190  135.5490 C   0  0  0  0  0  3  0  0  0  0  0  0
  182.4060  179.4900  139.5030 C   0  0  0  0  0  2  0  0  0  0  0  0
  184.3900  176.4340  135.6060 C   0  0  2  0  0  3  0  0  0  0  0  0
  184.5520  177.9570  137.3280 N   0  0  2  0  0  0  0  0  0  0  0  0
  183.6510  175.1800  135.2140 C   0  0  2  0  0  3  0  0  0  0  0  0
  186.4680  176.9340  134.5940 O   0  0  0  0  0  1  0  0  0  0  0  0
  182.3920  176.6240  136.8170 C   0  0  1  0  0  3  0  0  0  0  0  0
  1  6  1  0  0  0  0
  4 20  2  0  0  0  0
  4 22  1  0  0  0  0
  5 27  1  6  0  0  0
  5 17  1  0  0  0  0
  6 23  1  0  0  0  0
  7  8  2  0  0  0  0
  8  2  2  0  0  0  0
  9 18  1  1  0  0  0
  9 13  1  0  0  0  0
  9 14  1  0  0  0  0
 10  8  1  1  0  0  0
 10 28  1  0  0  0  0
 11 15  2  0  0  0  0
 12 25  1  0  0  0  0
 14  8  1  0  0  0  0
 15 23  1  0  0  0  0
 16 28  1  0  0  0  0
 16  1  2  0  0  0  0
 17 25  1  0  0  0  0
 17  3  1  0  0  0  0
 19 15  1  0  0  0  0
 20 16  1  0  0  0  0
 21  1  1  0  0  0  0
 22 21  2  0  0  0  0
 24  5  1  0  0  0  0
 24 12  1  0  0  0  0
 25 19  1  0  0  0  0
 26 24  1  0  0  0  0
 26 10  1  0  0  0  0
 26 13  1  0  0  0  0
 28 12  1  0  0  0  0
M  END
>  <MODEL>
8

>  <REMARK>
 VINA RESULT:      -4.9      5.348      8.195
  Name = 
  0 active torsions:
  status: ('A' for Active; 'I' for Inactive)
                            x       y       z     vdW  Elec       q    Type
                         _______ _______ _______ _____ _____    ______ ____

>  <TORSDO>
F 0

$$$$
=
 OpenBabel11122411543D

 28 32  0  0  1  0  0  0  0  0999 V2000
  182.3580  179.3290  142.6090 C   0  0  0  0  0  0  0  0  0  0  0  0
  179.9940  181.4410  138.9390 O   0  0  0  0  0  0  0  0  0  0  0  0
  178.9310  175.3590  140.2040 C   0  0  0  0  0  1  0  0  0  0  0  0
  184.9540  178.6270  141.8300 C   0  0  0  0  0  3  0  0  0  0  0  0
  180.8340  176.1220  138.7720 C   0  0  1  0  0  3  0  0  0  0  0  0
  181.0540  179.6530  142.9940 O   0  0  0  0  0  0  0  0  0  0  0  0
  182.2030  182.3500  138.3950 O   0  0  0  0  0  0  0  0  0  0  0  0
  181.2700  181.1930  138.1820 S   0  0  0  0  0  0  0  0  0  0  0  0
  181.1410  179.2810  135.9830 C   0  0  2  0  0  3  0  0  0  0  0  0
  182.0640  179.7070  138.8050 C   0  0  2  0  0  3  0  0  0  0  0  0
  180.0550  176.5210  143.9640 O   0  0  0  0  0  0  0  0  0  0  0  0
  180.8020  178.0670  139.9800 C   0  0  1  0  0  3  0  0  0  0  0  0
  180.6820  178.6020  137.1140 O   0  0  0  0  0  0  0  0  0  0  0  0
  180.8050  181.0650  136.1320 S   0  0  0  0  0  0  0  0  0  0  0  0
  179.9760  177.5420  143.3030 C   0  0  0  0  0  0  0  0  0  0  0  0
  182.6690  179.2150  141.2430 C   0  0  0  0  0  0  0  0  0  0  0  0
  180.3830  175.8410  140.2210 C   0  0  1  0  0  3  0  0  0  0  0  0
  180.4490  178.7390  134.7500 C   0  0  0  0  0  1  0  0  0  0  0  0
  179.5190  177.4750  141.8780 C   0  0  0  0  0  2  0  0  0  0  0  0
  183.9700  178.8500  140.8630 C   0  0  0  0  0  3  0  0  0  0  0  0
  183.3450  179.0910  143.5750 C   0  0  0  0  0  3  0  0  0  0  0  0
  184.6420  178.7470  143.1850 C   0  0  0  0  0  3  0  0  0  0  0  0
  180.3290  178.8590  143.9240 C   0  0  0  0  0  2  0  0  0  0  0  0
  181.6050  177.3900  138.9570 C   0  0  2  0  0  3  0  0  0  0  0  0
  180.6380  177.0740  141.0250 N   0  0  2  0  0  0  0  0  0  0  0  0
  181.8220  178.4560  137.9140 C   0  0  2  0  0  3  0  0  0  0  0  0
  181.6890  175.1090  138.3370 O   0  0  0  0  0  1  0  0  0  0  0  0
  181.5590  179.3590  140.2270 C   0  0  1  0  0  3  0  0  0  0  0  0
  1  6  1  0  0  0  0
  1 21  1  0  0  0  0
  3 17  1  0  0  0  0
  4 22  1  0  0  0  0
  5 27  1  1  0  0  0
  5 24  1  0  0  0  0
  5 17  1  0  0  0  0
  6 23  1  0  0  0  0
  8  7  2  0  0  0  0
  8  2  2  0  0  0  0
  9 18  1  6  0  0  0
  9 14  1  0  0  0  0
  9 13  1  0  0  0  0
 10  8  1  6  0  0  0
 10 28  1  0  0  0  0
 12 28  1  0  0  0  0
 12 25  1  0  0  0  0
 13 26  1  0  0  0  0
 14  8  1  0  0  0  0
 15 23  1  0  0  0  0
 15 11  2  0  0  0  0
 16  1  2  0  0  0  0
 17 25  1  0  0  0  0
 19 15  1  0  0  0  0
 20 16  1  0  0  0  0
 20  4  2  0  0  0  0
 22 21  2  0  0  0  0
 24 12  1  0  0  0  0
 25 19  1  0  0  0  0
 26 10  1  0  0  0  0
 26 24  1  0  0  0  0
 28 16  1  0  0  0  0
M  END
>  <MODEL>
9

>  <REMARK>
 VINA RESULT:      -4.8      8.694     10.283
  Name = 
  0 active torsions:
  status: ('A' for Active; 'I' for Inactive)
                            x       y       z     vdW  Elec       q    Type
                         _______ _______ _______ _____ _____    ______ ____

>  <TORSDO>
F 0

$$$$
