=
 OpenBabel11122410483D

 32 37  0  0  1  0  0  0  0  0999 V2000
  188.3830  177.7720  141.6030 C   0  0  0  0  0  0  0  0  0  0  0  0
  191.7210  176.9260  144.9990 C   0  0  0  0  0  3  0  0  0  0  0  0
  190.6720  176.8700  146.0350 C   0  0  0  0  0  3  0  0  0  0  0  0
  186.1060  178.3770  142.3040 C   0  0  0  0  0  0  0  0  0  0  0  0
  185.2390  178.5720  143.3740 C   0  0  0  0  0  0  0  0  0  0  0  0
  189.0750  177.9940  139.2580 C   0  0  0  0  0  0  0  0  0  0  0  0
  190.6910  177.1620  140.8920 C   0  0  0  0  0  3  0  0  0  0  0  0
  184.5850  178.6110  145.5260 N   0  0  0  0  0  0  0  0  0  0  0  0
  191.4060  176.9070  143.6990 C   0  0  0  0  0  3  0  0  0  0  0  0
  189.7100  177.3080  141.9340 N   0  0  0  0  0  0  0  0  0  0  0  0
  189.9770  176.7130  143.2450 C   0  0  2  0  0  3  0  0  0  0  0  0
  187.7780  177.6390  143.9490 C   0  0  0  0  0  0  0  0  0  0  0  0
  183.4370  179.0560  144.8430 N   0  0  0  0  0  0  0  0  0  0  0  0
  190.4180  177.4690  139.6180 C   0  0  0  0  0  0  0  0  0  0  0  0
  183.8230  179.0480  143.4100 C   0  0  0  0  0  3  0  0  0  0  0  0
  189.3830  177.0010  145.7090 C   0  0  0  0  0  3  0  0  0  0  0  0
  188.9930  177.1730  144.2910 C   0  0  0  0  0  0  0  0  0  0  0  0
  186.8640  177.8770  144.9410 N   0  0  0  0  0  2  0  0  0  0  0  0
  188.1280  178.1250  140.1890 C   0  0  0  0  0  3  0  0  0  0  0  0
  185.6930  178.6160  141.1370 O   0  0  0  0  0  0  0  0  0  0  0  0
  184.6470  178.4600  146.9680 C   0  0  0  0  0  1  0  0  0  0  0  0
  187.4360  177.9140  142.5770 C   0  0  0  0  0  0  0  0  0  0  0  0
  185.6310  178.3350  144.6330 C   0  0  0  0  0  0  0  0  0  0  0  0
  192.6390  176.7270  139.1440 O   0  0  0  0  0  0  0  0  0  0  0  0
  191.5020  177.3480  138.5860 C   0  0  1  0  0  3  0  0  0  0  0  0
  191.8260  175.9240  138.3290 C   0  0  1  0  0  3  0  0  0  0  0  0
  192.4800  175.7830  136.9680 C   0  0  0  0  0  2  0  0  0  0  0  0
  193.8160  175.1400  137.1070 C   0  0  0  0  0  0  0  0  0  0  0  0
  194.8510  175.7510  136.7390 O   0  0  0  0  0  0  0  0  0  0  0  0
  193.9220  173.8780  137.6760 O   0  0  0  0  0  1  0  0  0  0  0  0
  187.2840  178.1010  137.5570 C   0  0  0  0  0  1  0  0  0  0  0  0
  188.7480  178.3740  137.8510 C   0  0  0  0  0  2  0  0  0  0  0  0
  1 10  1  0  0  0  0
  1 22  2  0  0  0  0
  2  3  1  0  0  0  0
  4 22  1  0  0  0  0
  4  5  1  0  0  0  0
  5 15  1  0  0  0  0
  5 23  2  0  0  0  0
  6 14  1  0  0  0  0
  6 19  2  0  0  0  0
  7 10  1  0  0  0  0
  8 21  1  0  0  0  0
  9  2  2  0  0  0  0
 10 11  1  0  0  0  0
 11  9  1  1  0  0  0
 11 17  1  0  0  0  0
 12 17  2  0  0  0  0
 12 18  1  0  0  0  0
 13  8  1  0  0  0  0
 14  7  2  0  0  0  0
 15 13  2  0  0  0  0
 16  3  2  0  0  0  0
 17 16  1  0  0  0  0
 19  1  1  0  0  0  0
 20  4  2  0  0  0  0
 22 12  1  0  0  0  0
 23 18  1  0  0  0  0
 23  8  1  0  0  0  0
 25 24  1  0  0  0  0
 25 14  1  1  0  0  0
 26 27  1  6  0  0  0
 26 25  1  0  0  0  0
 26 24  1  0  0  0  0
 27 28  1  0  0  0  0
 28 30  1  0  0  0  0
 29 28  2  0  0  0  0
 31 32  1  0  0  0  0
 32  6  1  0  0  0  0
M  END
>  <MODEL>
1

>  <REMARK>
 VINA RESULT:      -9.5      0.000      0.000
  Name = 
  4 active torsions:
  status: ('A' for Active; 'I' for Inactive)
    1  A    between atoms: C_7  and  C_19
    2  A    between atoms: C_10  and  C_17
    3  A    between atoms: C_20  and  C_29
    4  A    between atoms: C_29  and  C_30
                            x       y       z     vdW  Elec       q    Type
                         _______ _______ _______ _____ _____    ______ ____

>  <TORSDO>
F 4

$$$$
=
 OpenBabel11122410483D

 32 37  0  0  1  0  0  0  0  0999 V2000
  187.1230  178.0040  142.0630 C   0  0  0  0  0  0  0  0  0  0  0  0
  185.2950  178.6280  146.4960 C   0  0  0  0  0  3  0  0  0  0  0  0
  183.9390  178.7730  145.9310 C   0  0  0  0  0  3  0  0  0  0  0  0
  185.7180  178.5310  140.1160 C   0  0  0  0  0  0  0  0  0  0  0  0
  184.4670  178.9430  139.6710 C   0  0  0  0  0  0  0  0  0  0  0  0
  189.5250  177.5730  141.7970 C   0  0  0  0  0  0  0  0  0  0  0  0
  188.5490  177.4730  144.0350 C   0  0  0  0  0  3  0  0  0  0  0  0
  182.3120  179.5660  139.8430 N   0  0  0  0  0  0  0  0  0  0  0  0
  186.3070  178.1760  145.7490 C   0  0  0  0  0  3  0  0  0  0  0  0
  187.2640  177.8180  143.4880 N   0  0  0  0  0  0  0  0  0  0  0  0
  186.0770  177.6890  144.3360 C   0  0  2  0  0  3  0  0  0  0  0  0
  184.7760  178.5290  142.3870 C   0  0  0  0  0  0  0  0  0  0  0  0
  182.5500  179.6450  138.4580 N   0  0  0  0  0  0  0  0  0  0  0  0
  189.6320  177.3410  143.2610 C   0  0  0  0  0  0  0  0  0  0  0  0
  183.9690  179.2420  138.2950 C   0  0  0  0  0  3  0  0  0  0  0  0
  183.7300  178.6490  144.6170 C   0  0  0  0  0  3  0  0  0  0  0  0
  184.8610  178.3330  143.7160 C   0  0  0  0  0  0  0  0  0  0  0  0
  183.5850  178.9540  141.8630 N   0  0  0  0  0  2  0  0  0  0  0  0
  188.3480  177.8740  141.2440 C   0  0  0  0  0  3  0  0  0  0  0  0
  186.6340  178.3510  139.2690 O   0  0  0  0  0  0  0  0  0  0  0  0
  181.0300  179.8740  140.4510 C   0  0  0  0  0  1  0  0  0  0  0  0
  185.9120  178.3280  141.5230 C   0  0  0  0  0  0  0  0  0  0  0  0
  183.4610  179.1510  140.5320 C   0  0  0  0  0  0  0  0  0  0  0  0
  191.4040  178.1410  144.6510 O   0  0  0  0  0  0  0  0  0  0  0  0
  190.9570  177.0340  143.8990 C   0  0  1  0  0  3  0  0  0  0  0  0
  190.8500  177.0760  145.3770 C   0  0  1  0  0  3  0  0  0  0  0  0
  191.9710  176.2660  145.9980 C   0  0  0  0  0  2  0  0  0  0  0  0
  191.9030  176.3540  147.4830 C   0  0  0  0  0  0  0  0  0  0  0  0
  192.7110  175.6990  148.1910 O   0  0  0  0  0  1  0  0  0  0  0  0
  190.9700  177.1860  148.0860 O   0  0  0  0  0  0  0  0  0  0  0  0
  190.2970  177.4280  139.4530 C   0  0  0  0  0  1  0  0  0  0  0  0
  190.7220  177.4630  140.9100 C   0  0  0  0  0  2  0  0  0  0  0  0
  1 10  1  0  0  0  0
  3  2  1  0  0  0  0
  4 22  1  0  0  0  0
  5  4  1  0  0  0  0
  5 23  2  0  0  0  0
  6 14  1  0  0  0  0
  8 21  1  0  0  0  0
  8 23  1  0  0  0  0
  9  2  2  0  0  0  0
 10  7  1  0  0  0  0
 10 11  1  0  0  0  0
 11  9  1  1  0  0  0
 12 17  2  0  0  0  0
 13  8  1  0  0  0  0
 14  7  2  0  0  0  0
 15 13  2  0  0  0  0
 15  5  1  0  0  0  0
 16  3  2  0  0  0  0
 17 11  1  0  0  0  0
 17 16  1  0  0  0  0
 18 12  1  0  0  0  0
 19  6  2  0  0  0  0
 19  1  1  0  0  0  0
 20  4  2  0  0  0  0
 22  1  2  0  0  0  0
 22 12  1  0  0  0  0
 23 18  1  0  0  0  0
 24 26  1  0  0  0  0
 25 14  1  6  0  0  0
 25 24  1  0  0  0  0
 25 26  1  0  0  0  0
 26 27  1  1  0  0  0
 27 28  1  0  0  0  0
 28 30  2  0  0  0  0
 28 29  1  0  0  0  0
 31 32  1  0  0  0  0
 32  6  1  0  0  0  0
M  END
>  <MODEL>
2

>  <REMARK>
 VINA RESULT:      -9.1      3.307      5.846
  Name = 
  4 active torsions:
  status: ('A' for Active; 'I' for Inactive)
    1  A    between atoms: C_7  and  C_19
    2  A    between atoms: C_10  and  C_17
    3  A    between atoms: C_20  and  C_29
    4  A    between atoms: C_29  and  C_30
                            x       y       z     vdW  Elec       q    Type
                         _______ _______ _______ _____ _____    ______ ____

>  <TORSDO>
F 4

$$$$
=
 OpenBabel11122410483D

 32 37  0  0  1  0  0  0  0  0999 V2000
  186.6190  178.0490  142.9580 C   0  0  0  0  0  0  0  0  0  0  0  0
  189.8640  178.1210  139.3730 C   0  0  0  0  0  3  0  0  0  0  0  0
  190.8710  177.4980  140.2540 C   0  0  0  0  0  3  0  0  0  0  0  0
  187.3890  177.5820  145.2440 C   0  0  0  0  0  0  0  0  0  0  0  0
  188.4690  177.2520  146.0560 C   0  0  0  0  0  0  0  0  0  0  0  0
  184.3430  178.8720  142.5430 C   0  0  0  0  0  0  0  0  0  0  0  0
  185.8380  178.5260  140.6410 C   0  0  0  0  0  3  0  0  0  0  0  0
  190.5950  176.7090  146.5500 N   0  0  0  0  0  0  0  0  0  0  0  0
  188.5750  178.1700  139.7270 C   0  0  0  0  0  3  0  0  0  0  0  0
  186.8830  178.1120  141.5390 N   0  0  0  0  0  0  0  0  0  0  0  0
  188.0850  177.4880  140.9850 C   0  0  2  0  0  3  0  0  0  0  0  0
  188.9100  177.3420  143.3280 C   0  0  0  0  0  0  0  0  0  0  0  0
  189.9820  176.7520  147.8160 N   0  0  0  0  0  0  0  0  0  0  0  0
  184.6260  178.8820  141.0840 C   0  0  0  0  0  0  0  0  0  0  0  0
  188.5690  177.1100  147.5400 C   0  0  0  0  0  3  0  0  0  0  0  0
  190.5590  177.1480  141.5050 C   0  0  0  0  0  3  0  0  0  0  0  0
  189.1840  177.3560  142.0110 C   0  0  0  0  0  0  0  0  0  0  0  0
  189.9200  177.0450  144.2040 N   0  0  0  0  0  2  0  0  0  0  0  0
  185.2760  178.4750  143.4110 C   0  0  0  0  0  3  0  0  0  0  0  0
  186.2710  177.8040  145.7830 O   0  0  0  0  0  0  0  0  0  0  0  0
  191.9960  176.3850  146.3530 C   0  0  0  0  0  1  0  0  0  0  0  0
  187.5950  177.6550  143.8270 C   0  0  0  0  0  0  0  0  0  0  0  0
  189.6790  177.0100  145.5320 C   0  0  0  0  0  0  0  0  0  0  0  0
  184.2190  180.0430  139.0360 O   0  0  0  0  0  0  0  0  0  0  0  0
  183.5960  179.3590  140.1010 C   0  0  1  0  0  3  0  0  0  0  0  0
  183.8030  178.7280  138.7760 C   0  0  1  0  0  3  0  0  0  0  0  0
  182.5130  178.7670  137.9790 C   0  0  0  0  0  2  0  0  0  0  0  0
  182.5690  177.7780  136.8680 C   0  0  0  0  0  0  0  0  0  0  0  0
  181.5390  177.5340  136.1890 O   0  0  0  0  0  0  0  0  0  0  0  0
  183.7680  177.1500  136.5580 O   0  0  0  0  0  1  0  0  0  0  0  0
  182.8760  178.9010  144.5330 C   0  0  0  0  0  1  0  0  0  0  0  0
  183.0110  179.2920  143.0720 C   0  0  0  0  0  2  0  0  0  0  0  0
  1 19  1  0  0  0  0
  1 22  2  0  0  0  0
  2  9  2  0  0  0  0
  2  3  1  0  0  0  0
  3 16  2  0  0  0  0
  4 20  2  0  0  0  0
  4  5  1  0  0  0  0
  5 15  1  0  0  0  0
  6 32  1  0  0  0  0
  6 19  2  0  0  0  0
  7 14  2  0  0  0  0
  7 10  1  0  0  0  0
  8 13  1  0  0  0  0
 10  1  1  0  0  0  0
 11  9  1  6  0  0  0
 11 10  1  0  0  0  0
 11 17  1  0  0  0  0
 12 22  1  0  0  0  0
 12 18  1  0  0  0  0
 14  6  1  0  0  0  0
 15 13  2  0  0  0  0
 16 17  1  0  0  0  0
 17 12  2  0  0  0  0
 18 23  1  0  0  0  0
 21  8  1  0  0  0  0
 22  4  1  0  0  0  0
 23  5  2  0  0  0  0
 23  8  1  0  0  0  0
 24 25  1  0  0  0  0
 25 14  1  1  0  0  0
 26 27  1  6  0  0  0
 26 24  1  0  0  0  0
 26 25  1  0  0  0  0
 28 27  1  0  0  0  0
 29 28  2  0  0  0  0
 30 28  1  0  0  0  0
 32 31  1  0  0  0  0
M  END
>  <MODEL>
3

>  <REMARK>
 VINA RESULT:      -8.9      3.872      6.699
  Name = 
  4 active torsions:
  status: ('A' for Active; 'I' for Inactive)
    1  A    between atoms: C_7  and  C_19
    2  A    between atoms: C_10  and  C_17
    3  A    between atoms: C_20  and  C_29
    4  A    between atoms: C_29  and  C_30
                            x       y       z     vdW  Elec       q    Type
                         _______ _______ _______ _____ _____    ______ ____

>  <TORSDO>
F 4

$$$$
=
 OpenBabel11122410483D

 32 37  0  0  1  0  0  0  0  0999 V2000
  189.1180  177.6110  141.9120 C   0  0  0  0  0  0  0  0  0  0  0  0
  184.3320  178.2730  142.1320 C   0  0  0  0  0  3  0  0  0  0  0  0
  184.4110  178.4460  143.5960 C   0  0  0  0  0  3  0  0  0  0  0  0
  190.3580  177.2180  143.9970 C   0  0  0  0  0  0  0  0  0  0  0  0
  190.2900  177.1270  145.3830 C   0  0  0  0  0  0  0  0  0  0  0  0
  190.1900  177.2650  139.7300 C   0  0  0  0  0  0  0  0  0  0  0  0
  187.8620  178.0060  139.7970 C   0  0  0  0  0  3  0  0  0  0  0  0
  189.3310  177.2040  147.4170 N   0  0  0  0  0  0  0  0  0  0  0  0
  185.4370  178.2810  141.3790 C   0  0  0  0  0  3  0  0  0  0  0  0
  187.8940  177.9720  141.2350 N   0  0  0  0  0  0  0  0  0  0  0  0
  186.7910  178.5800  141.9810 C   0  0  2  0  0  3  0  0  0  0  0  0
  187.9850  177.8610  144.0430 C   0  0  0  0  0  0  0  0  0  0  0  0
  190.6570  176.8370  147.7110 N   0  0  0  0  0  0  0  0  0  0  0  0
  188.9320  177.6870  139.0600 C   0  0  0  0  0  0  0  0  0  0  0  0
  191.3330  176.7720  146.3920 C   0  0  0  0  0  3  0  0  0  0  0  0
  185.5890  178.4140  144.2250 C   0  0  0  0  0  3  0  0  0  0  0  0
  186.8370  178.2340  143.4490 C   0  0  0  0  0  0  0  0  0  0  0  0
  188.0050  177.7280  145.4060 N   0  0  0  0  0  2  0  0  0  0  0  0
  190.2720  177.2400  141.0620 C   0  0  0  0  0  3  0  0  0  0  0  0
  191.4570  176.9810  143.4270 O   0  0  0  0  0  0  0  0  0  0  0  0
  188.3100  177.3900  148.4320 C   0  0  0  0  0  1  0  0  0  0  0  0
  189.1710  177.5770  143.2760 C   0  0  0  0  0  0  0  0  0  0  0  0
  189.1440  177.3660  146.0360 C   0  0  0  0  0  0  0  0  0  0  0  0
  188.7430  176.3640  137.0790 O   0  0  0  0  0  0  0  0  0  0  0  0
  188.8180  177.6870  137.5630 C   0  0  1  0  0  3  0  0  0  0  0  0
  187.5360  177.0780  137.1330 C   0  0  1  0  0  3  0  0  0  0  0  0
  187.1810  177.5540  135.7380 C   0  0  0  0  0  2  0  0  0  0  0  0
  186.0210  176.7820  135.2140 C   0  0  0  0  0  0  0  0  0  0  0  0
  185.9760  175.5350  135.3610 O   0  0  0  0  0  1  0  0  0  0  0  0
  184.9700  177.4460  134.5950 O   0  0  0  0  0  0  0  0  0  0  0  0
  192.6610  177.2020  139.7010 C   0  0  0  0  0  1  0  0  0  0  0  0
  191.3930  176.8730  138.9360 C   0  0  0  0  0  2  0  0  0  0  0  0
  1 22  2  0  0  0  0
  2  3  1  0  0  0  0
  3 16  2  0  0  0  0
  4  5  1  0  0  0  0
  5 23  2  0  0  0  0
  5 15  1  0  0  0  0
  6 19  2  0  0  0  0
  7 10  1  0  0  0  0
  8 13  1  0  0  0  0
  8 21  1  0  0  0  0
  9  2  2  0  0  0  0
 10  1  1  0  0  0  0
 10 11  1  0  0  0  0
 11  9  1  6  0  0  0
 11 17  1  0  0  0  0
 12 18  1  0  0  0  0
 14  6  1  0  0  0  0
 14  7  2  0  0  0  0
 15 13  2  0  0  0  0
 17 12  2  0  0  0  0
 17 16  1  0  0  0  0
 18 23  1  0  0  0  0
 19  1  1  0  0  0  0
 20  4  2  0  0  0  0
 22  4  1  0  0  0  0
 22 12  1  0  0  0  0
 23  8  1  0  0  0  0
 24 26  1  0  0  0  0
 24 25  1  0  0  0  0
 25 14  1  1  0  0  0
 26 27  1  6  0  0  0
 26 25  1  0  0  0  0
 28 29  1  0  0  0  0
 28 27  1  0  0  0  0
 30 28  2  0  0  0  0
 32 31  1  0  0  0  0
 32  6  1  0  0  0  0
M  END
>  <MODEL>
4

>  <REMARK>
 VINA RESULT:      -8.9      2.539      5.285
  Name = 
  4 active torsions:
  status: ('A' for Active; 'I' for Inactive)
    1  A    between atoms: C_7  and  C_19
    2  A    between atoms: C_10  and  C_17
    3  A    between atoms: C_20  and  C_29
    4  A    between atoms: C_29  and  C_30
                            x       y       z     vdW  Elec       q    Type
                         _______ _______ _______ _____ _____    ______ ____

>  <TORSDO>
F 4

$$$$
=
 OpenBabel11122410483D

 32 37  0  0  1  0  0  0  0  0999 V2000
  185.9390  178.1760  143.0460 C   0  0  0  0  0  0  0  0  0  0  0  0
  187.1040  177.8730  138.3620 C   0  0  0  0  0  3  0  0  0  0  0  0
  185.7980  178.4490  137.9860 C   0  0  0  0  0  3  0  0  0  0  0  0
  183.6030  178.6280  143.6590 C   0  0  0  0  0  0  0  0  0  0  0  0
  182.3190  178.9050  143.2000 C   0  0  0  0  0  0  0  0  0  0  0  0
  187.5710  177.4800  144.7430 C   0  0  0  0  0  0  0  0  0  0  0  0
  188.3070  177.7160  142.4250 C   0  0  0  0  0  3  0  0  0  0  0  0
  180.7110  179.3310  141.6860 N   0  0  0  0  0  0  0  0  0  0  0  0
  187.5310  177.9040  139.6290 C   0  0  0  0  0  3  0  0  0  0  0  0
  186.9700  178.0810  142.0390 N   0  0  0  0  0  0  0  0  0  0  0  0
  186.7460  178.6270  140.7000 C   0  0  2  0  0  3  0  0  0  0  0  0
  184.3390  178.7560  141.3170 C   0  0  0  0  0  0  0  0  0  0  0  0
  180.0040  179.3390  142.9030 N   0  0  0  0  0  0  0  0  0  0  0  0
  188.6230  177.4350  143.6950 C   0  0  0  0  0  0  0  0  0  0  0  0
  181.0290  179.0590  143.9380 C   0  0  0  0  0  3  0  0  0  0  0  0
  184.9260  178.8320  138.9240 C   0  0  0  0  0  3  0  0  0  0  0  0
  185.2790  178.7090  140.3560 C   0  0  0  0  0  0  0  0  0  0  0  0
  183.0420  179.0050  140.9530 N   0  0  0  0  0  2  0  0  0  0  0  0
  186.3210  177.8340  144.4340 C   0  0  0  0  0  3  0  0  0  0  0  0
  183.7840  178.4770  144.8980 O   0  0  0  0  0  0  0  0  0  0  0  0
  180.0860  179.5720  140.3980 C   0  0  0  0  0  1  0  0  0  0  0  0
  184.6650  178.5250  142.7010 C   0  0  0  0  0  0  0  0  0  0  0  0
  182.0740  179.0700  141.8930 C   0  0  0  0  0  0  0  0  0  0  0  0
  190.9140  178.0910  143.8770 O   0  0  0  0  0  0  0  0  0  0  0  0
  190.0240  177.0060  144.0250 C   0  0  1  0  0  3  0  0  0  0  0  0
  190.5440  177.7600  145.1900 C   0  0  1  0  0  3  0  0  0  0  0  0
  191.6750  176.9870  145.8410 C   0  0  0  0  0  2  0  0  0  0  0  0
  191.3060  176.6190  147.2360 C   0  0  0  0  0  0  0  0  0  0  0  0
  191.6830  175.5210  147.7190 O   0  0  0  0  0  0  0  0  0  0  0  0
  190.5760  177.5050  148.0160 O   0  0  0  0  0  1  0  0  0  0  0  0
  187.1370  178.0730  147.1040 C   0  0  0  0  0  1  0  0  0  0  0  0
  187.8840  177.1440  146.1640 C   0  0  0  0  0  2  0  0  0  0  0  0
  1 19  1  0  0  0  0
  2  9  2  0  0  0  0
  3  2  1  0  0  0  0
  3 16  2  0  0  0  0
  4 20  2  0  0  0  0
  5  4  1  0  0  0  0
  5 15  1  0  0  0  0
  6 32  1  0  0  0  0
  7 14  2  0  0  0  0
  8 23  1  0  0  0  0
  8 13  1  0  0  0  0
 10  7  1  0  0  0  0
 10  1  1  0  0  0  0
 11  9  1  6  0  0  0
 11 10  1  0  0  0  0
 12 22  1  0  0  0  0
 13 15  2  0  0  0  0
 14  6  1  0  0  0  0
 16 17  1  0  0  0  0
 17 11  1  0  0  0  0
 17 12  2  0  0  0  0
 18 12  1  0  0  0  0
 18 23  1  0  0  0  0
 19  6  2  0  0  0  0
 21  8  1  0  0  0  0
 22  1  2  0  0  0  0
 22  4  1  0  0  0  0
 23  5  2  0  0  0  0
 24 25  1  0  0  0  0
 24 26  1  0  0  0  0
 25 14  1  6  0  0  0
 25 26  1  0  0  0  0
 26 27  1  1  0  0  0
 27 28  1  0  0  0  0
 28 29  2  0  0  0  0
 28 30  1  0  0  0  0
 32 31  1  0  0  0  0
M  END
>  <MODEL>
5

>  <REMARK>
 VINA RESULT:      -8.8      3.555      6.547
  Name = 
  4 active torsions:
  status: ('A' for Active; 'I' for Inactive)
    1  A    between atoms: C_7  and  C_19
    2  A    between atoms: C_10  and  C_17
    3  A    between atoms: C_20  and  C_29
    4  A    between atoms: C_29  and  C_30
                            x       y       z     vdW  Elec       q    Type
                         _______ _______ _______ _____ _____    ______ ____

>  <TORSDO>
F 4

$$$$
=
 OpenBabel11122410483D

 32 37  0  0  1  0  0  0  0  0999 V2000
  186.7740  178.1830  143.3170 C   0  0  0  0  0  0  0  0  0  0  0  0
  190.6060  177.1600  140.5490 C   0  0  0  0  0  3  0  0  0  0  0  0
  189.8390  177.5060  139.3360 C   0  0  0  0  0  3  0  0  0  0  0  0
  184.5820  178.4720  142.2450 C   0  0  0  0  0  0  0  0  0  0  0  0
  183.8770  178.5140  141.0470 C   0  0  0  0  0  0  0  0  0  0  0  0
  186.9640  177.9970  145.7570 C   0  0  0  0  0  0  0  0  0  0  0  0
  188.9960  177.8860  144.4040 C   0  0  0  0  0  3  0  0  0  0  0  0
  183.5830  178.4720  138.8170 N   0  0  0  0  0  0  0  0  0  0  0  0
  190.1460  177.4690  141.7660 C   0  0  0  0  0  3  0  0  0  0  0  0
  188.2050  178.0210  143.2090 N   0  0  0  0  0  0  0  0  0  0  0  0
  188.8840  178.2840  141.9390 C   0  0  2  0  0  3  0  0  0  0  0  0
  186.6250  178.2520  140.8960 C   0  0  0  0  0  0  0  0  0  0  0  0
  182.2710  178.6240  139.3020 N   0  0  0  0  0  0  0  0  0  0  0  0
  188.4390  177.8800  145.6210 C   0  0  0  0  0  0  0  0  0  0  0  0
  182.4140  178.6550  140.7780 C   0  0  0  0  0  3  0  0  0  0  0  0
  188.5840  177.9540  139.4280 C   0  0  0  0  0  3  0  0  0  0  0  0
  187.9580  178.1360  140.7570 C   0  0  0  0  0  0  0  0  0  0  0  0
  185.8490  178.2820  139.7680 N   0  0  0  0  0  2  0  0  0  0  0  0
  186.1940  178.1460  144.6770 C   0  0  0  0  0  3  0  0  0  0  0  0
  183.9440  178.5720  143.3280 O   0  0  0  0  0  0  0  0  0  0  0  0
  183.9090  178.4010  137.4040 C   0  0  0  0  0  1  0  0  0  0  0  0
  186.0070  178.3160  142.1960 C   0  0  0  0  0  0  0  0  0  0  0  0
  184.5080  178.4090  139.8690 C   0  0  0  0  0  0  0  0  0  0  0  0
  189.1380  176.3780  147.3430 O   0  0  0  0  0  0  0  0  0  0  0  0
  189.3130  177.6790  146.8260 C   0  0  1  0  0  3  0  0  0  0  0  0
  190.2990  176.5990  146.5850 C   0  0  1  0  0  3  0  0  0  0  0  0
  191.4780  176.7600  147.5250 C   0  0  0  0  0  2  0  0  0  0  0  0
  192.4280  175.6260  147.3520 C   0  0  0  0  0  0  0  0  0  0  0  0
  193.2060  175.3070  148.2870 O   0  0  0  0  0  1  0  0  0  0  0  0
  192.4300  174.8990  146.1700 O   0  0  0  0  0  0  0  0  0  0  0  0
  184.8250  178.2540  146.9700 C   0  0  0  0  0  1  0  0  0  0  0  0
  186.3090  177.9640  147.0990 C   0  0  0  0  0  2  0  0  0  0  0  0
  1 19  1  0  0  0  0
  2  9  2  0  0  0  0
  3 16  2  0  0  0  0
  3  2  1  0  0  0  0
  4 20  2  0  0  0  0
  5  4  1  0  0  0  0
  6 32  1  0  0  0  0
  7 14  2  0  0  0  0
  8 13  1  0  0  0  0
  8 23  1  0  0  0  0
 10  1  1  0  0  0  0
 10  7  1  0  0  0  0
 11  9  1  6  0  0  0
 11 10  1  0  0  0  0
 12 22  1  0  0  0  0
 13 15  2  0  0  0  0
 14  6  1  0  0  0  0
 15  5  1  0  0  0  0
 16 17  1  0  0  0  0
 17 12  2  0  0  0  0
 17 11  1  0  0  0  0
 18 23  1  0  0  0  0
 18 12  1  0  0  0  0
 19  6  2  0  0  0  0
 21  8  1  0  0  0  0
 22  4  1  0  0  0  0
 22  1  2  0  0  0  0
 23  5  2  0  0  0  0
 25 14  1  6  0  0  0
 25 24  1  0  0  0  0
 26 25  1  0  0  0  0
 26 24  1  0  0  0  0
 26 27  1  1  0  0  0
 28 27  1  0  0  0  0
 28 29  1  0  0  0  0
 30 28  2  0  0  0  0
 31 32  1  0  0  0  0
M  END
>  <MODEL>
6

>  <REMARK>
 VINA RESULT:      -8.8      3.406      6.553
  Name = 
  4 active torsions:
  status: ('A' for Active; 'I' for Inactive)
    1  A    between atoms: C_7  and  C_19
    2  A    between atoms: C_10  and  C_17
    3  A    between atoms: C_20  and  C_29
    4  A    between atoms: C_29  and  C_30
                            x       y       z     vdW  Elec       q    Type
                         _______ _______ _______ _____ _____    ______ ____

>  <TORSDO>
F 4

$$$$
=
 OpenBabel11122410483D

 32 37  0  0  1  0  0  0  0  0999 V2000
  186.6320  178.0690  143.0500 C   0  0  0  0  0  0  0  0  0  0  0  0
  189.8180  178.1140  139.4120 C   0  0  0  0  0  3  0  0  0  0  0  0
  190.8360  177.4880  140.2790 C   0  0  0  0  0  3  0  0  0  0  0  0
  187.4370  177.6040  145.3250 C   0  0  0  0  0  0  0  0  0  0  0  0
  188.5280  177.2720  146.1200 C   0  0  0  0  0  0  0  0  0  0  0  0
  184.3540  178.9020  142.6700 C   0  0  0  0  0  0  0  0  0  0  0  0
  185.8160  178.5430  140.7440 C   0  0  0  0  0  3  0  0  0  0  0  0
  190.6600  176.7200  146.5810 N   0  0  0  0  0  0  0  0  0  0  0  0
  188.5360  178.1690  139.7870 C   0  0  0  0  0  3  0  0  0  0  0  0
  186.8730  178.1260  141.6270 N   0  0  0  0  0  0  0  0  0  0  0  0
  188.0630  177.4950  141.0550 C   0  0  2  0  0  3  0  0  0  0  0  0
  188.9250  177.3510  143.3850 C   0  0  0  0  0  0  0  0  0  0  0  0
  190.0670  176.7690  147.8570 N   0  0  0  0  0  0  0  0  0  0  0  0
  184.6130  178.9060  141.2070 C   0  0  0  0  0  0  0  0  0  0  0  0
  188.6520  177.1340  147.6020 C   0  0  0  0  0  3  0  0  0  0  0  0
  190.5430  177.1430  141.5360 C   0  0  0  0  0  3  0  0  0  0  0  0
  189.1770  177.3600  142.0630 C   0  0  0  0  0  0  0  0  0  0  0  0
  189.9480  177.0520  144.2450 N   0  0  0  0  0  2  0  0  0  0  0  0
  185.2990  178.5020  143.5240 C   0  0  0  0  0  3  0  0  0  0  0  0
  186.3290  177.8340  145.8810 O   0  0  0  0  0  0  0  0  0  0  0  0
  192.0560  176.3880  146.3620 C   0  0  0  0  0  1  0  0  0  0  0  0
  187.6200  177.6720  143.9040 C   0  0  0  0  0  0  0  0  0  0  0  0
  189.7280  177.0220  145.5770 C   0  0  0  0  0  0  0  0  0  0  0  0
  183.7170  178.7290  138.9980 O   0  0  0  0  0  0  0  0  0  0  0  0
  183.5700  179.3850  140.2380 C   0  0  1  0  0  3  0  0  0  0  0  0
  182.6820  178.2710  139.8290 C   0  0  1  0  0  3  0  0  0  0  0  0
  181.3630  178.8230  139.3220 C   0  0  0  0  0  2  0  0  0  0  0  0
  180.2670  177.8510  139.5880 C   0  0  0  0  0  0  0  0  0  0  0  0
  180.3500  176.6730  139.1550 O   0  0  0  0  0  0  0  0  0  0  0  0
  179.1680  178.2360  140.3450 O   0  0  0  0  0  1  0  0  0  0  0  0
  182.9390  178.9880  144.6950 C   0  0  0  0  0  1  0  0  0  0  0  0
  183.0330  179.3300  143.2190 C   0  0  0  0  0  2  0  0  0  0  0  0
  1 19  1  0  0  0  0
  1 22  2  0  0  0  0
  2  9  2  0  0  0  0
  2  3  1  0  0  0  0
  3 16  2  0  0  0  0
  4 20  2  0  0  0  0
  4  5  1  0  0  0  0
  5 15  1  0  0  0  0
  6 32  1  0  0  0  0
  6 19  2  0  0  0  0
  7 14  2  0  0  0  0
  7 10  1  0  0  0  0
  8 13  1  0  0  0  0
 10  1  1  0  0  0  0
 11  9  1  6  0  0  0
 11 10  1  0  0  0  0
 11 17  1  0  0  0  0
 12 22  1  0  0  0  0
 12 18  1  0  0  0  0
 14  6  1  0  0  0  0
 15 13  2  0  0  0  0
 16 17  1  0  0  0  0
 17 12  2  0  0  0  0
 18 23  1  0  0  0  0
 21  8  1  0  0  0  0
 22  4  1  0  0  0  0
 23  5  2  0  0  0  0
 23  8  1  0  0  0  0
 24 26  1  0  0  0  0
 24 25  1  0  0  0  0
 25 14  1  1  0  0  0
 26 27  1  6  0  0  0
 26 25  1  0  0  0  0
 27 28  1  0  0  0  0
 28 30  1  0  0  0  0
 29 28  2  0  0  0  0
 32 31  1  0  0  0  0
M  END
>  <MODEL>
7

>  <REMARK>
 VINA RESULT:      -8.7      3.981      7.345
  Name = 
  4 active torsions:
  status: ('A' for Active; 'I' for Inactive)
    1  A    between atoms: C_7  and  C_19
    2  A    between atoms: C_10  and  C_17
    3  A    between atoms: C_20  and  C_29
    4  A    between atoms: C_29  and  C_30
                            x       y       z     vdW  Elec       q    Type
                         _______ _______ _______ _____ _____    ______ ____

>  <TORSDO>
F 4

$$$$
=
 OpenBabel11122410483D

 32 37  0  0  1  0  0  0  0  0999 V2000
  187.7300  177.9960  142.9920 C   0  0  0  0  0  0  0  0  0  0  0  0
  183.7040  179.0190  145.4690 C   0  0  0  0  0  3  0  0  0  0  0  0
  182.9020  178.9150  144.2340 C   0  0  0  0  0  3  0  0  0  0  0  0
  187.6600  178.0640  140.5360 C   0  0  0  0  0  0  0  0  0  0  0  0
  186.8710  178.2530  139.4070 C   0  0  0  0  0  0  0  0  0  0  0  0
  189.8700  177.8280  144.1830 C   0  0  0  0  0  0  0  0  0  0  0  0
  187.8020  177.9300  145.4810 C   0  0  0  0  0  3  0  0  0  0  0  0
  184.9830  178.6260  138.2400 N   0  0  0  0  0  0  0  0  0  0  0  0
  184.9700  178.5910  145.5050 C   0  0  0  0  0  3  0  0  0  0  0  0
  187.0440  178.0350  144.2620 N   0  0  0  0  0  0  0  0  0  0  0  0
  185.5890  177.8840  144.3200 C   0  0  2  0  0  3  0  0  0  0  0  0
  185.6000  178.2720  141.8620 C   0  0  0  0  0  0  0  0  0  0  0  0
  185.9610  178.5350  137.2320 N   0  0  0  0  0  0  0  0  0  0  0  0
  189.1360  177.8220  145.4750 C   0  0  0  0  0  0  0  0  0  0  0  0
  187.2310  178.2900  137.9570 C   0  0  0  0  0  3  0  0  0  0  0  0
  183.4750  178.5800  143.0740 C   0  0  0  0  0  3  0  0  0  0  0  0
  184.9230  178.2790  143.0250 C   0  0  0  0  0  0  0  0  0  0  0  0
  184.9050  178.4690  140.6990 N   0  0  0  0  0  2  0  0  0  0  0  0
  189.2060  177.9010  143.0270 C   0  0  0  0  0  3  0  0  0  0  0  0
  188.8970  177.8780  140.3870 O   0  0  0  0  0  0  0  0  0  0  0  0
  183.5760  178.8580  137.9690 C   0  0  0  0  0  1  0  0  0  0  0  0
  187.0290  178.0890  141.8240 C   0  0  0  0  0  0  0  0  0  0  0  0
  185.5500  178.4570  139.5120 C   0  0  0  0  0  0  0  0  0  0  0  0
  189.1870  176.9500  147.6990 O   0  0  0  0  0  0  0  0  0  0  0  0
  189.8740  177.7730  146.7820 C   0  0  1  0  0  3  0  0  0  0  0  0
  190.3190  176.3920  147.0830 C   0  0  1  0  0  3  0  0  0  0  0  0
  191.4780  176.4250  148.0600 C   0  0  0  0  0  2  0  0  0  0  0  0
  192.6210  175.6350  147.5230 C   0  0  0  0  0  0  0  0  0  0  0  0
  193.7220  175.6270  148.1300 O   0  0  0  0  0  1  0  0  0  0  0  0
  192.4590  174.8790  146.3700 O   0  0  0  0  0  0  0  0  0  0  0  0
  191.8370  177.5030  142.7210 C   0  0  0  0  0  1  0  0  0  0  0  0
  191.3600  177.7390  144.1420 C   0  0  0  0  0  2  0  0  0  0  0  0
  1 19  1  0  0  0  0
  1 10  1  0  0  0  0
  2  9  2  0  0  0  0
  3  2  1  0  0  0  0
  4 22  1  0  0  0  0
  5 23  2  0  0  0  0
  5  4  1  0  0  0  0
  6 14  1  0  0  0  0
  8 23  1  0  0  0  0
 10 11  1  0  0  0  0
 10  7  1  0  0  0  0
 11  9  1  1  0  0  0
 12 17  2  0  0  0  0
 13 15  2  0  0  0  0
 13  8  1  0  0  0  0
 14  7  2  0  0  0  0
 15  5  1  0  0  0  0
 16  3  2  0  0  0  0
 17 16  1  0  0  0  0
 17 11  1  0  0  0  0
 18 12  1  0  0  0  0
 19  6  2  0  0  0  0
 20  4  2  0  0  0  0
 21  8  1  0  0  0  0
 22 12  1  0  0  0  0
 22  1  2  0  0  0  0
 23 18  1  0  0  0  0
 25 14  1  6  0  0  0
 25 26  1  0  0  0  0
 25 24  1  0  0  0  0
 26 24  1  0  0  0  0
 26 27  1  1  0  0  0
 28 27  1  0  0  0  0
 28 29  1  0  0  0  0
 30 28  2  0  0  0  0
 31 32  1  0  0  0  0
 32  6  1  0  0  0  0
M  END
>  <MODEL>
8

>  <REMARK>
 VINA RESULT:      -8.6      3.362      6.835
  Name = 
  4 active torsions:
  status: ('A' for Active; 'I' for Inactive)
    1  A    between atoms: C_7  and  C_19
    2  A    between atoms: C_10  and  C_17
    3  A    between atoms: C_20  and  C_29
    4  A    between atoms: C_29  and  C_30
                            x       y       z     vdW  Elec       q    Type
                         _______ _______ _______ _____ _____    ______ ____

>  <TORSDO>
F 4

$$$$
=
 OpenBabel11122410483D

 32 37  0  0  1  0  0  0  0  0999 V2000
  187.0250  178.2330  141.8680 C   0  0  0  0  0  0  0  0  0  0  0  0
  183.4580  178.7320  145.0960 C   0  0  0  0  0  3  0  0  0  0  0  0
  184.4270  178.6170  146.2040 C   0  0  0  0  0  3  0  0  0  0  0  0
  189.2270  177.4670  142.6440 C   0  0  0  0  0  0  0  0  0  0  0  0
  190.0060  177.1060  143.7380 C   0  0  0  0  0  0  0  0  0  0  0  0
  186.5070  178.3450  139.4710 C   0  0  0  0  0  0  0  0  0  0  0  0
  184.7910  179.0060  141.0800 C   0  0  0  0  0  3  0  0  0  0  0  0
  190.4940  176.7620  145.9070 N   0  0  0  0  0  0  0  0  0  0  0  0
  183.8710  178.9110  143.8370 C   0  0  0  0  0  3  0  0  0  0  0  0
  185.6870  178.6920  142.1620 N   0  0  0  0  0  0  0  0  0  0  0  0
  185.3340  179.1170  143.5170 C   0  0  2  0  0  3  0  0  0  0  0  0
  187.4530  178.0350  144.2480 C   0  0  0  0  0  0  0  0  0  0  0  0
  191.6800  176.3750  145.2550 N   0  0  0  0  0  0  0  0  0  0  0  0
  185.1530  178.8610  139.8000 C   0  0  0  0  0  0  0  0  0  0  0  0
  191.4040  176.5830  143.8130 C   0  0  0  0  0  3  0  0  0  0  0  0
  185.7340  178.4880  145.9570 C   0  0  0  0  0  3  0  0  0  0  0  0
  186.2260  178.4920  144.5610 C   0  0  0  0  0  0  0  0  0  0  0  0
  188.2830  177.6390  145.2630 N   0  0  0  0  0  2  0  0  0  0  0  0
  187.3780  178.0610  140.4420 C   0  0  0  0  0  3  0  0  0  0  0  0
  189.7220  177.3710  141.4890 O   0  0  0  0  0  0  0  0  0  0  0  0
  190.3270  176.7230  147.3480 C   0  0  0  0  0  1  0  0  0  0  0  0
  187.8910  177.9340  142.8800 C   0  0  0  0  0  0  0  0  0  0  0  0
  189.5250  177.1870  144.9860 C   0  0  0  0  0  0  0  0  0  0  0  0
  183.4220  177.9870  138.4040 O   0  0  0  0  0  0  0  0  0  0  0  0
  184.1530  179.1520  138.7180 C   0  0  1  0  0  3  0  0  0  0  0  0
  182.7710  178.9360  139.2080 C   0  0  1  0  0  3  0  0  0  0  0  0
  181.7930  179.7190  138.3530 C   0  0  0  0  0  2  0  0  0  0  0  0
  180.8040  180.4180  139.2190 C   0  0  0  0  0  0  0  0  0  0  0  0
  180.3340  179.8410  140.2320 O   0  0  0  0  0  1  0  0  0  0  0  0
  180.4270  181.7220  138.9260 O   0  0  0  0  0  0  0  0  0  0  0  0
  188.4240  178.3790  137.9090 C   0  0  0  0  0  1  0  0  0  0  0  0
  186.9310  178.1430  138.0530 C   0  0  0  0  0  2  0  0  0  0  0  0
  1 10  1  0  0  0  0
  1 22  2  0  0  0  0
  2  3  1  0  0  0  0
  4 22  1  0  0  0  0
  4  5  1  0  0  0  0
  5 15  1  0  0  0  0
  5 23  2  0  0  0  0
  6 14  1  0  0  0  0
  6 19  2  0  0  0  0
  7 10  1  0  0  0  0
  8 21  1  0  0  0  0
  9  2  2  0  0  0  0
 10 11  1  0  0  0  0
 11  9  1  1  0  0  0
 11 17  1  0  0  0  0
 12 17  2  0  0  0  0
 12 18  1  0  0  0  0
 13  8  1  0  0  0  0
 14  7  2  0  0  0  0
 15 13  2  0  0  0  0
 16  3  2  0  0  0  0
 17 16  1  0  0  0  0
 19  1  1  0  0  0  0
 20  4  2  0  0  0  0
 22 12  1  0  0  0  0
 23 18  1  0  0  0  0
 23  8  1  0  0  0  0
 24 25  1  0  0  0  0
 24 26  1  0  0  0  0
 25 26  1  0  0  0  0
 25 14  1  1  0  0  0
 26 27  1  6  0  0  0
 27 28  1  0  0  0  0
 28 29  1  0  0  0  0
 30 28  2  0  0  0  0
 31 32  1  0  0  0  0
 32  6  1  0  0  0  0
M  END
>  <MODEL>
9

>  <REMARK>
 VINA RESULT:      -8.6      2.978      7.219
  Name = 
  4 active torsions:
  status: ('A' for Active; 'I' for Inactive)
    1  A    between atoms: C_7  and  C_19
    2  A    between atoms: C_10  and  C_17
    3  A    between atoms: C_20  and  C_29
    4  A    between atoms: C_29  and  C_30
                            x       y       z     vdW  Elec       q    Type
                         _______ _______ _______ _____ _____    ______ ____

>  <TORSDO>
F 4

$$$$
