=
 OpenBabel11122411493D

 37 42  0  0  1  0  0  0  0  0999 V2000
  187.4500  177.5080  141.8250 C   0  0  1  0  0  3  0  0  0  0  0  0
  190.4380  175.9900  142.0110 O   0  0  0  0  0  0  0  0  0  0  0  0
  185.4130  178.4210  143.1820 C   0  0  2  0  0  3  0  0  0  0  0  0
  188.8760  177.7670  142.2760 C   0  0  2  0  0  3  0  0  0  0  0  0
  186.6710  177.5260  143.1460 C   0  0  2  0  0  3  0  0  0  0  0  0
  189.9820  177.1730  141.4070 C   0  0  2  0  0  3  0  0  0  0  0  0
  185.4550  179.5000  142.1080 C   0  0  0  0  0  2  0  0  0  0  0  0
  187.7180  177.8290  144.2060 C   0  0  0  0  0  2  0  0  0  0  0  0
  187.5080  178.2670  139.4330 C   0  0  0  0  0  2  0  0  0  0  0  0
  185.7010  178.8940  140.8700 O   0  0  0  0  0  0  0  0  0  0  0  0
  192.1740  177.5980  142.9780 C   0  0  0  0  0  2  0  0  0  0  0  0
  191.5650  176.2060  142.8590 C   0  0  1  0  0  3  0  0  0  0  0  0
  187.0780  178.6360  140.8500 C   0  0  1  0  0  3  0  0  0  0  0  0
  188.9840  177.3280  143.6620 N   0  0  2  0  0  0  0  0  0  0  0  0
  189.5940  176.9380  139.9370 C   0  0  1  0  0  3  0  0  0  0  0  0
  191.3030  177.0820  144.1160 C   0  0  2  0  0  3  0  0  0  0  0  0
  190.1280  177.9750  144.1990 N   0  0  0  0  0  0  0  0  0  0  0  0
  189.0260  178.2030  139.2880 C   0  0  0  0  0  2  0  0  0  0  0  0
  192.0030  177.0680  139.2870 C   0  0  0  0  0  3  0  0  0  0  0  0
  190.7630  176.4350  139.1470 C   0  0  0  0  0  0  0  0  0  0  0  0
  190.6340  175.3490  138.2670 C   0  0  0  0  0  3  0  0  0  0  0  0
  191.6090  173.8550  136.6870 F   0  0  0  0  0  0  0  0  0  0  0  0
  192.9750  175.5390  137.6780 C   0  0  0  0  0  3  0  0  0  0  0  0
  191.7380  174.9030  137.5350 C   0  0  0  0  0  0  0  0  0  0  0  0
  193.1070  176.6200  138.5550 C   0  0  0  0  0  3  0  0  0  0  0  0
  189.9760  178.2210  145.6390 C   0  0  0  0  0  2  0  0  0  0  0  0
  190.2690  176.9580  146.4480 C   0  0  1  0  0  3  0  0  0  0  0  0
  192.0530  175.7610  147.3780 C   0  0  0  0  0  1  0  0  0  0  0  0
  191.5230  177.0980  147.1750 N   0  0  0  0  0  2  0  0  0  0  0  0
  189.1250  176.6630  147.4110 C   0  0  0  0  0  2  0  0  0  0  0  0
  188.7110  177.9100  148.1770 C   0  0  0  0  0  2  0  0  0  0  0  0
  187.2560  178.2420  147.9080 C   0  0  0  0  0  1  0  0  0  0  0  0
  185.2130  178.9990  144.4480 O   0  0  0  0  0  0  0  0  0  0  0  0
  183.8270  179.0420  144.6970 C   0  0  0  0  0  0  0  0  0  0  0  0
  183.1570  178.1040  143.9250 F   0  0  0  0  0  0  0  0  0  0  0  0
  183.5590  178.8210  146.0390 F   0  0  0  0  0  0  0  0  0  0  0  0
  183.3580  180.2970  144.3610 F   0  0  0  0  0  0  0  0  0  0  0  0
  1  4  1  0  0  0  0
  1  5  1  0  0  0  0
  2 12  1  0  0  0  0
  3 33  1  0  0  0  0
  4 14  1  0  0  0  0
  5  3  1  0  0  0  0
  5  8  1  0  0  0  0
  6  2  1  0  0  0  0
  6  4  1  0  0  0  0
  7  3  1  0  0  0  0
  9 13  1  0  0  0  0
 10  7  1  0  0  0  0
 11 16  1  0  0  0  0
 12 11  1  0  0  0  0
 12 16  1  0  0  0  0
 13 10  1  0  0  0  0
 13  1  1  0  0  0  0
 14 17  1  0  0  0  0
 14  8  1  0  0  0  0
 15  6  1  0  0  0  0
 16 17  1  0  0  0  0
 17 26  1  0  0  0  0
 18  9  1  0  0  0  0
 18 15  1  0  0  0  0
 20 19  1  0  0  0  0
 20 15  1  0  0  0  0
 21 20  2  0  0  0  0
 22 24  1  0  0  0  0
 23 25  1  0  0  0  0
 24 23  2  0  0  0  0
 24 21  1  0  0  0  0
 25 19  2  0  0  0  0
 26 27  1  0  0  0  0
 27 29  1  0  0  0  0
 27 30  1  0  0  0  0
 29 28  1  0  0  0  0
 30 31  1  0  0  0  0
 32 31  1  0  0  0  0
 33 34  1  0  0  0  0
 34 36  1  0  0  0  0
 35 34  1  0  0  0  0
 37 34  1  0  0  0  0
M  END
>  <MODEL>
1

>  <REMARK>
 VINA RESULT:      -9.1      0.000      0.000
  Name = 
  8 active torsions:
  status: ('A' for Active; 'I' for Inactive)
    1  A    between atoms: C_1  and  C_4
    2  A    between atoms: C_1  and  N_27
    3  A    between atoms: C_2  and  O_22
    4  A    between atoms: C_4  and  C_12
    5  A    between atoms: C_4  and  N_37
    6  A    between atoms: C_6  and  O_22
    7  A    between atoms: C_8  and  C_12
    8  A    between atoms: C_23  and  C_30
                            x       y       z     vdW  Elec       q    Type
                         _______ _______ _______ _____ _____    ______ ____

>  <TORSDO>
F 8

$$$$
=
 OpenBabel11122411493D

 37 42  0  0  1  0  0  0  0  0999 V2000
  186.2830  178.6960  142.6360 C   0  0  1  0  0  3  0  0  0  0  0  0
  189.5790  178.3610  143.1740 O   0  0  0  0  0  0  0  0  0  0  0  0
  184.4250  179.0830  140.8410 C   0  0  2  0  0  3  0  0  0  0  0  0
  187.4230  177.7240  142.3920 C   0  0  2  0  0  3  0  0  0  0  0  0
  185.9210  179.1520  141.2170 C   0  0  2  0  0  3  0  0  0  0  0  0
  188.4540  177.5910  143.5100 C   0  0  2  0  0  3  0  0  0  0  0  0
  183.6620  178.1120  141.7320 C   0  0  0  0  0  2  0  0  0  0  0  0
  186.8590  178.3720  140.3100 C   0  0  0  0  0  2  0  0  0  0  0  0
  185.4100  177.9350  144.8630 C   0  0  0  0  0  2  0  0  0  0  0  0
  183.9080  178.4410  143.0710 O   0  0  0  0  0  0  0  0  0  0  0  0
  190.3850  176.1080  142.2760 C   0  0  0  0  0  2  0  0  0  0  0  0
  190.5820  177.6020  142.5010 C   0  0  1  0  0  3  0  0  0  0  0  0
  185.1740  177.9120  143.3560 C   0  0  1  0  0  3  0  0  0  0  0  0
  188.0450  178.0860  141.1240 N   0  0  2  0  0  0  0  0  0  0  0  0
  187.9330  177.9420  144.9150 C   0  0  1  0  0  3  0  0  0  0  0  0
  190.1850  177.0560  141.1010 C   0  0  2  0  0  3  0  0  0  0  0  0
  188.7690  176.9450  140.6920 N   0  0  0  0  0  0  0  0  0  0  0  0
  186.6630  177.1620  145.2640 C   0  0  0  0  0  2  0  0  0  0  0  0
  188.7680  178.1460  147.2610 C   0  0  0  0  0  3  0  0  0  0  0  0
  188.9860  177.7020  145.9530 C   0  0  0  0  0  0  0  0  0  0  0  0
  190.1870  177.0480  145.6340 C   0  0  0  0  0  3  0  0  0  0  0  0
  192.3140  176.2110  146.3070 F   0  0  0  0  0  0  0  0  0  0  0  0
  190.9340  177.2890  147.9240 C   0  0  0  0  0  3  0  0  0  0  0  0
  191.1570  176.8420  146.6180 C   0  0  0  0  0  0  0  0  0  0  0  0
  189.7390  177.9400  148.2450 C   0  0  0  0  0  3  0  0  0  0  0  0
  188.8310  176.8750  139.2260 C   0  0  0  0  0  2  0  0  0  0  0  0
  189.9440  177.7690  138.6790 C   0  0  1  0  0  3  0  0  0  0  0  0
  190.3800  175.6240  137.8460 C   0  0  0  0  0  1  0  0  0  0  0  0
  190.8700  176.9910  137.8680 N   0  0  0  0  0  2  0  0  0  0  0  0
  189.3560  178.9160  137.8650 C   0  0  0  0  0  2  0  0  0  0  0  0
  188.6930  178.4090  136.5930 C   0  0  0  0  0  2  0  0  0  0  0  0
  187.2340  178.8210  136.5530 C   0  0  0  0  0  1  0  0  0  0  0  0
  184.2370  178.7540  139.4860 O   0  0  0  0  0  0  0  0  0  0  0  0
  183.2120  179.5730  138.9740 C   0  0  0  0  0  0  0  0  0  0  0  0
  182.7470  179.0830  137.7620 F   0  0  0  0  0  0  0  0  0  0  0  0
  182.1620  179.6720  139.8730 F   0  0  0  0  0  0  0  0  0  0  0  0
  183.7250  180.8380  138.7630 F   0  0  0  0  0  0  0  0  0  0  0  0
  1 13  1  0  0  0  0
  2  6  1  0  0  0  0
  3  5  1  0  0  0  0
  3  7  1  0  0  0  0
  4  1  1  0  0  0  0
  4  6  1  0  0  0  0
  5  1  1  0  0  0  0
  6 15  1  0  0  0  0
  7 10  1  0  0  0  0
  8 14  1  0  0  0  0
  8  5  1  0  0  0  0
  9 18  1  0  0  0  0
 10 13  1  0  0  0  0
 11 12  1  0  0  0  0
 12  2  1  0  0  0  0
 13  9  1  0  0  0  0
 14  4  1  0  0  0  0
 15 18  1  0  0  0  0
 15 20  1  0  0  0  0
 16 11  1  0  0  0  0
 16 12  1  0  0  0  0
 17 16  1  0  0  0  0
 17 14  1  0  0  0  0
 19 25  1  0  0  0  0
 20 19  2  0  0  0  0
 21 20  1  0  0  0  0
 21 24  2  0  0  0  0
 22 24  1  0  0  0  0
 23 25  2  0  0  0  0
 24 23  1  0  0  0  0
 26 17  1  0  0  0  0
 27 26  1  0  0  0  0
 28 29  1  0  0  0  0
 29 27  1  0  0  0  0
 30 27  1  0  0  0  0
 31 30  1  0  0  0  0
 32 31  1  0  0  0  0
 33  3  1  0  0  0  0
 34 33  1  0  0  0  0
 34 36  1  0  0  0  0
 35 34  1  0  0  0  0
 37 34  1  0  0  0  0
M  END
>  <MODEL>
2

>  <REMARK>
 VINA RESULT:      -8.3      2.968      6.630
  Name = 
  8 active torsions:
  status: ('A' for Active; 'I' for Inactive)
    1  A    between atoms: C_1  and  C_4
    2  A    between atoms: C_1  and  N_27
    3  A    between atoms: C_2  and  O_22
    4  A    between atoms: C_4  and  C_12
    5  A    between atoms: C_4  and  N_37
    6  A    between atoms: C_6  and  O_22
    7  A    between atoms: C_8  and  C_12
    8  A    between atoms: C_23  and  C_30
                            x       y       z     vdW  Elec       q    Type
                         _______ _______ _______ _____ _____    ______ ____

>  <TORSDO>
F 8

$$$$
=
 OpenBabel11122411493D

 37 42  0  0  1  0  0  0  0  0999 V2000
  190.1450  176.9170  141.6290 C   0  0  1  0  0  3  0  0  0  0  0  0
  187.1680  177.1080  143.1660 O   0  0  0  0  0  0  0  0  0  0  0  0
  191.3690  176.6380  139.3380 C   0  0  2  0  0  3  0  0  0  0  0  0
  188.9540  177.8460  141.7760 C   0  0  2  0  0  3  0  0  0  0  0  0
  190.0660  176.5010  140.1550 C   0  0  2  0  0  3  0  0  0  0  0  0
  188.3150  177.9170  143.1620 C   0  0  2  0  0  3  0  0  0  0  0  0
  192.3380  177.6230  139.9780 C   0  0  0  0  0  2  0  0  0  0  0  0
  188.8680  177.2580  139.6050 C   0  0  0  0  0  2  0  0  0  0  0  0
  191.6380  177.6740  143.4990 C   0  0  0  0  0  2  0  0  0  0  0  0
  192.5280  177.2610  141.3180 O   0  0  0  0  0  0  0  0  0  0  0  0
  186.0490  179.3420  142.6260 C   0  0  0  0  0  2  0  0  0  0  0  0
  185.9810  177.8370  142.8570 C   0  0  1  0  0  3  0  0  0  0  0  0
  191.3950  177.7330  141.9940 C   0  0  1  0  0  3  0  0  0  0  0  0
  187.9830  177.4810  140.7520 N   0  0  2  0  0  0  0  0  0  0  0  0
  189.2560  177.5630  144.3260 C   0  0  1  0  0  3  0  0  0  0  0  0
  185.9070  178.4230  141.4200 C   0  0  2  0  0  3  0  0  0  0  0  0
  187.1230  178.5990  140.5980 N   0  0  0  0  0  0  0  0  0  0  0  0
  190.5450  178.3890  144.2890 C   0  0  0  0  0  2  0  0  0  0  0  0
  189.2910  177.5350  146.8250 C   0  0  0  0  0  3  0  0  0  0  0  0
  188.5680  177.7420  145.6450 C   0  0  0  0  0  0  0  0  0  0  0  0
  187.2140  178.1050  145.7160 C   0  0  0  0  0  3  0  0  0  0  0  0
  185.2850  178.6090  147.0220 F   0  0  0  0  0  0  0  0  0  0  0  0
  187.3190  178.0510  148.1340 C   0  0  0  0  0  3  0  0  0  0  0  0
  186.5920  178.2590  146.9580 C   0  0  0  0  0  0  0  0  0  0  0  0
  188.6680  177.6890  148.0670 C   0  0  0  0  0  3  0  0  0  0  0  0
  186.6090  178.6920  139.2250 C   0  0  0  0  0  2  0  0  0  0  0  0
  185.0820  178.6290  139.2030 C   0  0  1  0  0  3  0  0  0  0  0  0
  183.0730  179.8180  139.0220 C   0  0  0  0  0  1  0  0  0  0  0  0
  184.5180  179.9610  139.0360 N   0  0  0  0  0  2  0  0  0  0  0  0
  184.6010  177.7030  138.0920 C   0  0  0  0  0  2  0  0  0  0  0  0
  185.7690  177.1430  137.2950 C   0  0  0  0  0  2  0  0  0  0  0  0
  185.3900  176.9860  135.8350 C   0  0  0  0  0  1  0  0  0  0  0  0
  191.1190  176.9980  138.0020 O   0  0  0  0  0  0  0  0  0  0  0  0
  191.8130  176.1000  137.1680 C   0  0  0  0  0  0  0  0  0  0  0  0
  193.0730  176.5910  136.8540 F   0  0  0  0  0  0  0  0  0  0  0  0
  191.9310  174.8560  137.7690 F   0  0  0  0  0  0  0  0  0  0  0  0
  191.1010  175.9500  135.9930 F   0  0  0  0  0  0  0  0  0  0  0  0
  1  4  1  0  0  0  0
  1 13  1  0  0  0  0
  3  7  1  0  0  0  0
  3  5  1  0  0  0  0
  4  6  1  0  0  0  0
  5  1  1  0  0  0  0
  6  2  1  0  0  0  0
  6 15  1  0  0  0  0
  7 10  1  0  0  0  0
  8  5  1  0  0  0  0
  8 14  1  0  0  0  0
  9 18  1  0  0  0  0
 10 13  1  0  0  0  0
 11 12  1  0  0  0  0
 12  2  1  0  0  0  0
 13  9  1  0  0  0  0
 14  4  1  0  0  0  0
 15 20  1  0  0  0  0
 16 11  1  0  0  0  0
 16 12  1  0  0  0  0
 17 14  1  0  0  0  0
 17 16  1  0  0  0  0
 18 15  1  0  0  0  0
 19 25  1  0  0  0  0
 20 21  1  0  0  0  0
 20 19  2  0  0  0  0
 21 24  2  0  0  0  0
 24 22  1  0  0  0  0
 24 23  1  0  0  0  0
 25 23  2  0  0  0  0
 26 17  1  0  0  0  0
 27 26  1  0  0  0  0
 28 29  1  0  0  0  0
 29 27  1  0  0  0  0
 30 27  1  0  0  0  0
 31 30  1  0  0  0  0
 32 31  1  0  0  0  0
 33  3  1  0  0  0  0
 34 36  1  0  0  0  0
 34 33  1  0  0  0  0
 35 34  1  0  0  0  0
 37 34  1  0  0  0  0
M  END
>  <MODEL>
3

>  <REMARK>
 VINA RESULT:      -8.2      2.383      8.534
  Name = 
  8 active torsions:
  status: ('A' for Active; 'I' for Inactive)
    1  A    between atoms: C_1  and  C_4
    2  A    between atoms: C_1  and  N_27
    3  A    between atoms: C_2  and  O_22
    4  A    between atoms: C_4  and  C_12
    5  A    between atoms: C_4  and  N_37
    6  A    between atoms: C_6  and  O_22
    7  A    between atoms: C_8  and  C_12
    8  A    between atoms: C_23  and  C_30
                            x       y       z     vdW  Elec       q    Type
                         _______ _______ _______ _____ _____    ______ ____

>  <TORSDO>
F 8

$$$$
=
 OpenBabel11122411493D

 37 42  0  0  1  0  0  0  0  0999 V2000
  184.6670  178.0090  143.9860 C   0  0  1  0  0  3  0  0  0  0  0  0
  183.8550  177.5520  140.7620 O   0  0  0  0  0  0  0  0  0  0  0  0
  186.6020  177.9900  145.7410 C   0  0  2  0  0  3  0  0  0  0  0  0
  184.8460  178.6550  142.6240 C   0  0  2  0  0  3  0  0  0  0  0  0
  186.0940  177.5760  144.3420 C   0  0  2  0  0  3  0  0  0  0  0  0
  183.6470  178.5930  141.6800 C   0  0  2  0  0  3  0  0  0  0  0  0
  185.8170  179.1680  146.3020 C   0  0  0  0  0  2  0  0  0  0  0  0
  186.9430  178.0480  143.1730 C   0  0  0  0  0  2  0  0  0  0  0  0
  182.5540  179.0880  144.8070 C   0  0  0  0  0  2  0  0  0  0  0  0
  184.4510  178.8660  146.2470 O   0  0  0  0  0  0  0  0  0  0  0  0
  184.7610  179.4820  139.3520 C   0  0  0  0  0  2  0  0  0  0  0  0
  184.4650  178.0010  139.5520 C   0  0  1  0  0  3  0  0  0  0  0  0
  184.0760  179.0820  144.9150 C   0  0  1  0  0  3  0  0  0  0  0  0
  186.0400  178.0780  142.0180 N   0  0  2  0  0  0  0  0  0  0  0  0
  182.2810  178.4630  142.3770 C   0  0  1  0  0  3  0  0  0  0  0  0
  185.9140  178.5460  139.6930 C   0  0  2  0  0  3  0  0  0  0  0  0
  186.4490  178.9800  141.0020 N   0  0  0  0  0  0  0  0  0  0  0  0
  182.0740  179.5510  143.4340 C   0  0  0  0  0  2  0  0  0  0  0  0
  180.1820  177.5000  141.4230 C   0  0  0  0  0  3  0  0  0  0  0  0
  181.1650  178.4950  141.3790 C   0  0  0  0  0  0  0  0  0  0  0  0
  181.0930  179.4980  140.4000 C   0  0  0  0  0  3  0  0  0  0  0  0
  179.9790  180.4720  138.5310 F   0  0  0  0  0  0  0  0  0  0  0  0
  179.0660  178.5060  139.5230 C   0  0  0  0  0  3  0  0  0  0  0  0
  180.0450  179.5030  139.4750 C   0  0  0  0  0  0  0  0  0  0  0  0
  179.1340  177.5060  140.4970 C   0  0  0  0  0  3  0  0  0  0  0  0
  187.9050  178.9480  140.8130 C   0  0  0  0  0  2  0  0  0  0  0  0
  188.2810  178.1620  139.5570 C   0  0  1  0  0  3  0  0  0  0  0  0
  189.0200  178.2970  137.3390 C   0  0  0  0  0  1  0  0  0  0  0  0
  188.9380  179.0300  138.5900 N   0  0  0  0  0  2  0  0  0  0  0  0
  189.1800  176.9840  139.9130 C   0  0  0  0  0  2  0  0  0  0  0  0
  190.1440  177.3420  141.0330 C   0  0  0  0  0  2  0  0  0  0  0  0
  190.1010  176.2940  142.1290 C   0  0  0  0  0  1  0  0  0  0  0  0
  187.9790  178.2770  145.7380 O   0  0  0  0  0  0  0  0  0  0  0  0
  188.5740  177.5860  146.8110 C   0  0  0  0  0  0  0  0  0  0  0  0
  189.0830  178.4740  147.7480 F   0  0  0  0  0  0  0  0  0  0  0  0
  187.6620  176.7360  147.4180 F   0  0  0  0  0  0  0  0  0  0  0  0
  189.6170  176.8250  146.3210 F   0  0  0  0  0  0  0  0  0  0  0  0
  1  5  1  0  0  0  0
  1 13  1  0  0  0  0
  2  6  1  0  0  0  0
  3  7  1  0  0  0  0
  4  1  1  0  0  0  0
  5  3  1  0  0  0  0
  6 15  1  0  0  0  0
  6  4  1  0  0  0  0
  8  5  1  0  0  0  0
  9 13  1  0  0  0  0
 10  7  1  0  0  0  0
 11 12  1  0  0  0  0
 11 16  1  0  0  0  0
 12 16  1  0  0  0  0
 12  2  1  0  0  0  0
 13 10  1  0  0  0  0
 14  4  1  0  0  0  0
 14  8  1  0  0  0  0
 15 18  1  0  0  0  0
 16 17  1  0  0  0  0
 17 14  1  0  0  0  0
 18  9  1  0  0  0  0
 20 19  1  0  0  0  0
 20 15  1  0  0  0  0
 21 20  2  0  0  0  0
 22 24  1  0  0  0  0
 23 25  1  0  0  0  0
 24 23  2  0  0  0  0
 24 21  1  0  0  0  0
 25 19  2  0  0  0  0
 26 17  1  0  0  0  0
 27 30  1  0  0  0  0
 27 26  1  0  0  0  0
 28 29  1  0  0  0  0
 29 27  1  0  0  0  0
 30 31  1  0  0  0  0
 31 32  1  0  0  0  0
 33  3  1  0  0  0  0
 33 34  1  0  0  0  0
 34 36  1  0  0  0  0
 34 35  1  0  0  0  0
 37 34  1  0  0  0  0
M  END
>  <MODEL>
4

>  <REMARK>
 VINA RESULT:      -8.2      3.571      7.925
  Name = 
  8 active torsions:
  status: ('A' for Active; 'I' for Inactive)
    1  A    between atoms: C_1  and  C_4
    2  A    between atoms: C_1  and  N_27
    3  A    between atoms: C_2  and  O_22
    4  A    between atoms: C_4  and  C_12
    5  A    between atoms: C_4  and  N_37
    6  A    between atoms: C_6  and  O_22
    7  A    between atoms: C_8  and  C_12
    8  A    between atoms: C_23  and  C_30
                            x       y       z     vdW  Elec       q    Type
                         _______ _______ _______ _____ _____    ______ ____

>  <TORSDO>
F 8

$$$$
=
 OpenBabel11122411493D

 37 42  0  0  1  0  0  0  0  0999 V2000
  186.4160  177.5160  144.3030 C   0  0  1  0  0  3  0  0  0  0  0  0
  184.3160  177.5690  141.6850 O   0  0  0  0  0  0  0  0  0  0  0  0
  188.8760  177.1070  145.0790 C   0  0  2  0  0  3  0  0  0  0  0  0
  186.1080  178.3260  143.0570 C   0  0  2  0  0  3  0  0  0  0  0  0
  187.7970  176.9290  143.9890 C   0  0  2  0  0  3  0  0  0  0  0  0
  184.6320  178.4870  142.6990 C   0  0  2  0  0  3  0  0  0  0  0  0
  188.5430  178.2540  146.0230 C   0  0  0  0  0  2  0  0  0  0  0  0
  188.1520  177.4890  142.6210 C   0  0  0  0  0  2  0  0  0  0  0  0
  184.9730  178.6310  146.0280 C   0  0  0  0  0  2  0  0  0  0  0  0
  187.2450  178.0680  146.5160 O   0  0  0  0  0  0  0  0  0  0  0  0
  184.8100  179.5980  140.2120 C   0  0  0  0  0  2  0  0  0  0  0  0
  184.4350  178.1300  140.3790 C   0  0  1  0  0  3  0  0  0  0  0  0
  186.3930  178.4940  145.4890 C   0  0  1  0  0  3  0  0  0  0  0  0
  186.8700  177.7480  141.9580 N   0  0  2  0  0  0  0  0  0  0  0  0
  183.6610  178.3680  143.8870 C   0  0  1  0  0  3  0  0  0  0  0  0
  185.8730  178.5380  139.9520 C   0  0  2  0  0  3  0  0  0  0  0  0
  186.9420  178.7460  140.9520 N   0  0  0  0  0  0  0  0  0  0  0  0
  184.0400  179.3130  145.0300 C   0  0  0  0  0  2  0  0  0  0  0  0
  181.2050  178.3580  144.3460 C   0  0  0  0  0  3  0  0  0  0  0  0
  182.2500  178.6230  143.4540 C   0  0  0  0  0  0  0  0  0  0  0  0
  181.9590  179.1140  142.1720 C   0  0  0  0  0  3  0  0  0  0  0  0
  180.3580  179.8090  140.5500 F   0  0  0  0  0  0  0  0  0  0  0  0
  179.5930  179.0700  142.6840 C   0  0  0  0  0  3  0  0  0  0  0  0
  180.6340  179.3360  141.7890 C   0  0  0  0  0  0  0  0  0  0  0  0
  179.8790  178.5810  143.9620 C   0  0  0  0  0  3  0  0  0  0  0  0
  188.1800  178.6280  140.1700 C   0  0  0  0  0  2  0  0  0  0  0  0
  187.9050  178.0370  138.7870 C   0  0  1  0  0  3  0  0  0  0  0  0
  187.5010  178.6080  136.5530 C   0  0  0  0  0  1  0  0  0  0  0  0
  188.2280  179.0030  137.7460 N   0  0  0  0  0  2  0  0  0  0  0  0
  188.7000  176.7520  138.5880 C   0  0  0  0  0  2  0  0  0  0  0  0
  190.0760  176.8470  139.2290 C   0  0  0  0  0  2  0  0  0  0  0  0
  191.1400  176.3210  138.2860 C   0  0  0  0  0  1  0  0  0  0  0  0
  190.1580  177.2840  144.5280 O   0  0  0  0  0  0  0  0  0  0  0  0
  191.1000  176.7410  145.4230 C   0  0  0  0  0  0  0  0  0  0  0  0
  190.4940  176.3770  146.6170 F   0  0  0  0  0  0  0  0  0  0  0  0
  191.7340  175.6410  144.8650 F   0  0  0  0  0  0  0  0  0  0  0  0
  192.0540  177.7020  145.6950 F   0  0  0  0  0  0  0  0  0  0  0  0
  1 13  1  0  0  0  0
  2  6  1  0  0  0  0
  3  7  1  0  0  0  0
  4  1  1  0  0  0  0
  5  1  1  0  0  0  0
  5  3  1  0  0  0  0
  6  4  1  0  0  0  0
  6 15  1  0  0  0  0
  7 10  1  0  0  0  0
  8  5  1  0  0  0  0
 11 12  1  0  0  0  0
 12  2  1  0  0  0  0
 13  9  1  0  0  0  0
 13 10  1  0  0  0  0
 14  8  1  0  0  0  0
 14  4  1  0  0  0  0
 15 18  1  0  0  0  0
 16 11  1  0  0  0  0
 16 12  1  0  0  0  0
 16 17  1  0  0  0  0
 17 14  1  0  0  0  0
 18  9  1  0  0  0  0
 20 15  1  0  0  0  0
 20 19  2  0  0  0  0
 21 20  1  0  0  0  0
 22 24  1  0  0  0  0
 23 25  2  0  0  0  0
 24 21  2  0  0  0  0
 24 23  1  0  0  0  0
 25 19  1  0  0  0  0
 26 17  1  0  0  0  0
 27 26  1  0  0  0  0
 28 29  1  0  0  0  0
 29 27  1  0  0  0  0
 30 27  1  0  0  0  0
 30 31  1  0  0  0  0
 32 31  1  0  0  0  0
 33  3  1  0  0  0  0
 33 34  1  0  0  0  0
 34 37  1  0  0  0  0
 34 35  1  0  0  0  0
 36 34  1  0  0  0  0
M  END
>  <MODEL>
5

>  <REMARK>
 VINA RESULT:      -7.9      3.393      8.383
  Name = 
  8 active torsions:
  status: ('A' for Active; 'I' for Inactive)
    1  A    between atoms: C_1  and  C_4
    2  A    between atoms: C_1  and  N_27
    3  A    between atoms: C_2  and  O_22
    4  A    between atoms: C_4  and  C_12
    5  A    between atoms: C_4  and  N_37
    6  A    between atoms: C_6  and  O_22
    7  A    between atoms: C_8  and  C_12
    8  A    between atoms: C_23  and  C_30
                            x       y       z     vdW  Elec       q    Type
                         _______ _______ _______ _____ _____    ______ ____

>  <TORSDO>
F 8

$$$$
=
 OpenBabel11122411493D

 37 42  0  0  1  0  0  0  0  0999 V2000
  185.4130  179.0190  140.8350 C   0  0  1  0  0  3  0  0  0  0  0  0
  188.6850  178.8200  140.1150 O   0  0  0  0  0  0  0  0  0  0  0  0
  183.0200  179.4340  139.8720 C   0  0  2  0  0  3  0  0  0  0  0  0
  186.4080  178.1270  140.1140 C   0  0  2  0  0  3  0  0  0  0  0  0
  184.5490  179.5540  139.6870 C   0  0  2  0  0  3  0  0  0  0  0  0
  187.7780  177.9710  140.7690 C   0  0  2  0  0  3  0  0  0  0  0  0
  182.6570  178.3650  140.8930 C   0  0  0  0  0  2  0  0  0  0  0  0
  185.1100  178.8900  138.4400 C   0  0  0  0  0  2  0  0  0  0  0  0
  185.4290  178.0590  143.1540 C   0  0  0  0  0  2  0  0  0  0  0  0
  183.3670  178.6110  142.0750 O   0  0  0  0  0  0  0  0  0  0  0  0
  189.1600  176.6800  138.8000 C   0  0  0  0  0  2  0  0  0  0  0  0
  189.3910  178.1640  139.0630 C   0  0  1  0  0  3  0  0  0  0  0  0
  184.6610  178.1290  141.8370 C   0  0  1  0  0  3  0  0  0  0  0  0
  186.5170  178.6100  138.7430 N   0  0  2  0  0  0  0  0  0  0  0  0
  187.7970  178.1940  142.2910 C   0  0  1  0  0  3  0  0  0  0  0  0
  188.5240  177.6980  137.8610 C   0  0  2  0  0  3  0  0  0  0  0  0
  187.0590  177.5410  137.9840 N   0  0  0  0  0  0  0  0  0  0  0  0
  186.7600  177.3260  143.0080 C   0  0  0  0  0  2  0  0  0  0  0  0
  189.6460  176.6250  142.8940 C   0  0  0  0  0  3  0  0  0  0  0  0
  189.1610  177.9370  142.8540 C   0  0  0  0  0  0  0  0  0  0  0  0
  189.9540  178.9840  143.3480 C   0  0  0  0  0  3  0  0  0  0  0  0
  191.9830  179.7320  144.3510 F   0  0  0  0  0  0  0  0  0  0  0  0
  191.7010  177.4050  143.9120 C   0  0  0  0  0  3  0  0  0  0  0  0
  191.2210  178.7180  143.8750 C   0  0  0  0  0  0  0  0  0  0  0  0
  190.9130  176.3590  143.4210 C   0  0  0  0  0  3  0  0  0  0  0  0
  186.5850  177.5790  136.5940 C   0  0  0  0  0  2  0  0  0  0  0  0
  186.2220  176.1790  136.0970 C   0  0  1  0  0  3  0  0  0  0  0  0
  186.7530  174.0620  136.9460 C   0  0  0  0  0  1  0  0  0  0  0  0
  186.0080  175.2780  137.2220 N   0  0  0  0  0  2  0  0  0  0  0  0
  184.9830  176.2310  135.2120 C   0  0  0  0  0  2  0  0  0  0  0  0
  183.7090  176.2310  136.0430 C   0  0  0  0  0  2  0  0  0  0  0  0
  182.8400  177.4210  135.6840 C   0  0  0  0  0  1  0  0  0  0  0  0
  182.3590  179.1920  138.6550 O   0  0  0  0  0  0  0  0  0  0  0  0
  181.5830  180.3250  138.3440 C   0  0  0  0  0  0  0  0  0  0  0  0
  182.2690  181.4920  138.6460 F   0  0  0  0  0  0  0  0  0  0  0  0
  181.2240  180.3260  137.0040 F   0  0  0  0  0  0  0  0  0  0  0  0
  180.4290  180.2900  139.1030 F   0  0  0  0  0  0  0  0  0  0  0  0
  1 13  1  0  0  0  0
  2  6  1  0  0  0  0
  3  7  1  0  0  0  0
  4  6  1  0  0  0  0
  4  1  1  0  0  0  0
  5  3  1  0  0  0  0
  5  1  1  0  0  0  0
  6 15  1  0  0  0  0
  7 10  1  0  0  0  0
  8 14  1  0  0  0  0
  8  5  1  0  0  0  0
 11 12  1  0  0  0  0
 12  2  1  0  0  0  0
 13 10  1  0  0  0  0
 13  9  1  0  0  0  0
 14  4  1  0  0  0  0
 15 20  1  0  0  0  0
 15 18  1  0  0  0  0
 16 17  1  0  0  0  0
 16 11  1  0  0  0  0
 16 12  1  0  0  0  0
 17 14  1  0  0  0  0
 18  9  1  0  0  0  0
 19 25  1  0  0  0  0
 20 19  2  0  0  0  0
 20 21  1  0  0  0  0
 21 24  2  0  0  0  0
 24 23  1  0  0  0  0
 24 22  1  0  0  0  0
 25 23  2  0  0  0  0
 26 17  1  0  0  0  0
 27 26  1  0  0  0  0
 27 29  1  0  0  0  0
 28 29  1  0  0  0  0
 30 31  1  0  0  0  0
 30 27  1  0  0  0  0
 32 31  1  0  0  0  0
 33  3  1  0  0  0  0
 34 35  1  0  0  0  0
 34 33  1  0  0  0  0
 34 37  1  0  0  0  0
 36 34  1  0  0  0  0
M  END
>  <MODEL>
6

>  <REMARK>
 VINA RESULT:      -7.5      4.051      7.208
  Name = 
  8 active torsions:
  status: ('A' for Active; 'I' for Inactive)
    1  A    between atoms: C_1  and  C_4
    2  A    between atoms: C_1  and  N_27
    3  A    between atoms: C_2  and  O_22
    4  A    between atoms: C_4  and  C_12
    5  A    between atoms: C_4  and  N_37
    6  A    between atoms: C_6  and  O_22
    7  A    between atoms: C_8  and  C_12
    8  A    between atoms: C_23  and  C_30
                            x       y       z     vdW  Elec       q    Type
                         _______ _______ _______ _____ _____    ______ ____

>  <TORSDO>
F 8

$$$$
=
 OpenBabel11122411493D

 37 42  0  0  1  0  0  0  0  0999 V2000
  187.5380  178.2540  138.8900 C   0  0  1  0  0  3  0  0  0  0  0  0
  185.5120  179.7060  141.1380 O   0  0  0  0  0  0  0  0  0  0  0  0
  189.9130  177.2520  138.4660 C   0  0  2  0  0  3  0  0  0  0  0  0
  186.7650  177.9350  140.1570 C   0  0  2  0  0  3  0  0  0  0  0  0
  188.9960  178.1290  139.3470 C   0  0  2  0  0  3  0  0  0  0  0  0
  185.3910  178.5890  140.2970 C   0  0  2  0  0  3  0  0  0  0  0  0
  189.1140  176.2730  137.6180 C   0  0  0  0  0  2  0  0  0  0  0  0
  188.9090  177.7180  140.8080 C   0  0  0  0  0  2  0  0  0  0  0  0
  185.8650  177.7090  137.1000 C   0  0  0  0  0  2  0  0  0  0  0  0
  188.1360  176.9830  136.9100 O   0  0  0  0  0  0  0  0  0  0  0  0
  184.7850  177.9940  142.8910 C   0  0  0  0  0  2  0  0  0  0  0  0
  185.2270  179.3990  142.5020 C   0  0  1  0  0  3  0  0  0  0  0  0
  187.1100  177.2220  137.8350 C   0  0  1  0  0  3  0  0  0  0  0  0
  187.6280  178.2470  141.2890 N   0  0  2  0  0  0  0  0  0  0  0  0
  184.7130  178.9580  138.9660 C   0  0  1  0  0  3  0  0  0  0  0  0
  186.2160  178.4190  143.1910 C   0  0  2  0  0  3  0  0  0  0  0  0
  187.1030  177.5380  142.4010 N   0  0  0  0  0  0  0  0  0  0  0  0
  184.6410  177.7640  138.0110 C   0  0  0  0  0  2  0  0  0  0  0  0
  182.4540  178.8130  140.0250 C   0  0  0  0  0  3  0  0  0  0  0  0
  183.3410  179.5130  139.2000 C   0  0  0  0  0  0  0  0  0  0  0  0
  182.9300  180.7150  138.6020 C   0  0  0  0  0  3  0  0  0  0  0  0
  181.2500  182.3670  138.2500 F   0  0  0  0  0  0  0  0  0  0  0  0
  180.7600  180.5040  139.6540 C   0  0  0  0  0  3  0  0  0  0  0  0
  181.6420  181.2080  138.8290 C   0  0  0  0  0  0  0  0  0  0  0  0
  181.1660  179.3070  140.2520 C   0  0  0  0  0  3  0  0  0  0  0  0
  188.1630  177.1670  143.3470 C   0  0  0  0  0  2  0  0  0  0  0  0
  188.0160  177.9260  144.6660 C   0  0  1  0  0  3  0  0  0  0  0  0
  187.6630  177.5610  146.9520 C   0  0  0  0  0  1  0  0  0  0  0  0
  187.2510  177.1400  145.6240 N   0  0  0  0  0  2  0  0  0  0  0  0
  189.3850  178.2780  145.2360 C   0  0  0  0  0  2  0  0  0  0  0  0
  190.5000  177.8770  144.2830 C   0  0  0  0  0  2  0  0  0  0  0  0
  191.3560  179.0780  143.9290 C   0  0  0  0  0  1  0  0  0  0  0  0
  190.8780  176.5670  139.2270 O   0  0  0  0  0  0  0  0  0  0  0  0
  191.9930  176.3200  138.4030 C   0  0  0  0  0  0  0  0  0  0  0  0
  192.1160  174.9650  138.1320 F   0  0  0  0  0  0  0  0  0  0  0  0
  191.8960  177.0290  137.2150 F   0  0  0  0  0  0  0  0  0  0  0  0
  193.1310  176.7370  139.0660 F   0  0  0  0  0  0  0  0  0  0  0  0
  1  5  1  0  0  0  0
  1  4  1  0  0  0  0
  2 12  1  0  0  0  0
  3 33  1  0  0  0  0
  3  5  1  0  0  0  0
  4  6  1  0  0  0  0
  4 14  1  0  0  0  0
  5  8  1  0  0  0  0
  6  2  1  0  0  0  0
  7  3  1  0  0  0  0
  8 14  1  0  0  0  0
  9 13  1  0  0  0  0
  9 18  1  0  0  0  0
 10  7  1  0  0  0  0
 10 13  1  0  0  0  0
 11 16  1  0  0  0  0
 12 11  1  0  0  0  0
 12 16  1  0  0  0  0
 13  1  1  0  0  0  0
 14 17  1  0  0  0  0
 15 20  1  0  0  0  0
 15  6  1  0  0  0  0
 17 16  1  0  0  0  0
 17 26  1  0  0  0  0
 18 15  1  0  0  0  0
 19 25  1  0  0  0  0
 20 19  2  0  0  0  0
 21 24  2  0  0  0  0
 21 20  1  0  0  0  0
 22 24  1  0  0  0  0
 23 25  2  0  0  0  0
 24 23  1  0  0  0  0
 26 27  1  0  0  0  0
 27 30  1  0  0  0  0
 27 29  1  0  0  0  0
 29 28  1  0  0  0  0
 31 30  1  0  0  0  0
 32 31  1  0  0  0  0
 34 37  1  0  0  0  0
 34 33  1  0  0  0  0
 35 34  1  0  0  0  0
 36 34  1  0  0  0  0
M  END
>  <MODEL>
7

>  <REMARK>
 VINA RESULT:      -7.5      2.903      7.472
  Name = 
  8 active torsions:
  status: ('A' for Active; 'I' for Inactive)
    1  A    between atoms: C_1  and  C_4
    2  A    between atoms: C_1  and  N_27
    3  A    between atoms: C_2  and  O_22
    4  A    between atoms: C_4  and  C_12
    5  A    between atoms: C_4  and  N_37
    6  A    between atoms: C_6  and  O_22
    7  A    between atoms: C_8  and  C_12
    8  A    between atoms: C_23  and  C_30
                            x       y       z     vdW  Elec       q    Type
                         _______ _______ _______ _____ _____    ______ ____

>  <TORSDO>
F 8

$$$$
=
 OpenBabel11122411493D

 37 42  0  0  1  0  0  0  0  0999 V2000
  187.1440  178.2130  138.2630 C   0  0  1  0  0  3  0  0  0  0  0  0
  185.3260  179.7530  140.6270 O   0  0  0  0  0  0  0  0  0  0  0  0
  189.5340  177.4260  137.5610 C   0  0  2  0  0  3  0  0  0  0  0  0
  186.6300  178.0040  139.6760 C   0  0  2  0  0  3  0  0  0  0  0  0
  188.6600  178.3180  138.4700 C   0  0  2  0  0  3  0  0  0  0  0  0
  185.2220  178.5170  139.9700 C   0  0  2  0  0  3  0  0  0  0  0  0
  188.7470  176.2500  136.9980 C   0  0  0  0  0  2  0  0  0  0  0  0
  188.8600  178.1210  139.9640 C   0  0  0  0  0  2  0  0  0  0  0  0
  185.2960  177.2300  136.8790 C   0  0  0  0  0  2  0  0  0  0  0  0
  187.5840  176.7360  136.3880 O   0  0  0  0  0  0  0  0  0  0  0  0
  185.1180  178.2510  142.6850 C   0  0  0  0  0  2  0  0  0  0  0  0
  185.3030  179.6230  142.0480 C   0  0  1  0  0  3  0  0  0  0  0  0
  186.6950  176.9960  137.4400 C   0  0  1  0  0  3  0  0  0  0  0  0
  187.6130  178.5720  140.5900 N   0  0  2  0  0  0  0  0  0  0  0  0
  184.2990  178.6090  138.7430 C   0  0  1  0  0  3  0  0  0  0  0  0
  186.5100  178.8690  142.6730 C   0  0  2  0  0  3  0  0  0  0  0  0
  187.3690  177.9840  141.8580 N   0  0  0  0  0  0  0  0  0  0  0  0
  184.2360  177.2860  137.9750 C   0  0  0  0  0  2  0  0  0  0  0  0
  182.3850  180.2090  138.5900 C   0  0  0  0  0  3  0  0  0  0  0  0
  182.9200  179.0390  139.1410 C   0  0  0  0  0  0  0  0  0  0  0  0
  182.1610  178.2950  140.0580 C   0  0  0  0  0  3  0  0  0  0  0  0
  180.1520  178.0000  141.3050 F   0  0  0  0  0  0  0  0  0  0  0  0
  180.3510  179.8910  139.8670 C   0  0  0  0  0  3  0  0  0  0  0  0
  180.8800  178.7210  140.4190 C   0  0  0  0  0  0  0  0  0  0  0  0
  181.1030  180.6340  138.9520 C   0  0  0  0  0  3  0  0  0  0  0  0
  188.6060  177.8750  142.6430 C   0  0  0  0  0  2  0  0  0  0  0  0
  188.5360  176.7020  143.6210 C   0  0  1  0  0  3  0  0  0  0  0  0
  190.6950  176.2330  142.8440 C   0  0  0  0  0  1  0  0  0  0  0  0
  189.4220  175.6280  143.1930 N   0  0  0  0  0  2  0  0  0  0  0  0
  188.8940  177.1590  145.0300 C   0  0  0  0  0  2  0  0  0  0  0  0
  187.6490  177.5030  145.8330 C   0  0  0  0  0  2  0  0  0  0  0  0
  187.9580  177.5130  147.3180 C   0  0  0  0  0  1  0  0  0  0  0  0
  190.6890  176.9700  138.2220 O   0  0  0  0  0  0  0  0  0  0  0  0
  191.5280  176.3610  137.2690 C   0  0  0  0  0  0  0  0  0  0  0  0
  191.4690  174.9790  137.3700 F   0  0  0  0  0  0  0  0  0  0  0  0
  191.1840  176.7530  135.9840 F   0  0  0  0  0  0  0  0  0  0  0  0
  192.8290  176.7600  137.5110 F   0  0  0  0  0  0  0  0  0  0  0  0
  1  5  1  0  0  0  0
  1  4  1  0  0  0  0
  2 12  1  0  0  0  0
  3 33  1  0  0  0  0
  3  5  1  0  0  0  0
  4  6  1  0  0  0  0
  4 14  1  0  0  0  0
  5  8  1  0  0  0  0
  6  2  1  0  0  0  0
  7  3  1  0  0  0  0
  8 14  1  0  0  0  0
  9 13  1  0  0  0  0
  9 18  1  0  0  0  0
 10  7  1  0  0  0  0
 10 13  1  0  0  0  0
 12 16  1  0  0  0  0
 12 11  1  0  0  0  0
 13  1  1  0  0  0  0
 14 17  1  0  0  0  0
 15 20  1  0  0  0  0
 15  6  1  0  0  0  0
 16 11  1  0  0  0  0
 17 26  1  0  0  0  0
 17 16  1  0  0  0  0
 18 15  1  0  0  0  0
 19 25  2  0  0  0  0
 19 20  1  0  0  0  0
 20 21  2  0  0  0  0
 21 24  1  0  0  0  0
 23 24  2  0  0  0  0
 24 22  1  0  0  0  0
 25 23  1  0  0  0  0
 26 27  1  0  0  0  0
 27 30  1  0  0  0  0
 28 29  1  0  0  0  0
 29 27  1  0  0  0  0
 30 31  1  0  0  0  0
 31 32  1  0  0  0  0
 34 35  1  0  0  0  0
 34 37  1  0  0  0  0
 34 33  1  0  0  0  0
 36 34  1  0  0  0  0
M  END
>  <MODEL>
8

>  <REMARK>
 VINA RESULT:      -7.4      2.940      7.578
  Name = 
  8 active torsions:
  status: ('A' for Active; 'I' for Inactive)
    1  A    between atoms: C_1  and  C_4
    2  A    between atoms: C_1  and  N_27
    3  A    between atoms: C_2  and  O_22
    4  A    between atoms: C_4  and  C_12
    5  A    between atoms: C_4  and  N_37
    6  A    between atoms: C_6  and  O_22
    7  A    between atoms: C_8  and  C_12
    8  A    between atoms: C_23  and  C_30
                            x       y       z     vdW  Elec       q    Type
                         _______ _______ _______ _____ _____    ______ ____

>  <TORSDO>
F 8

$$$$
=
 OpenBabel11122411493D

 37 42  0  0  1  0  0  0  0  0999 V2000
  185.4440  178.9600  140.7280 C   0  0  1  0  0  3  0  0  0  0  0  0
  188.7390  178.8390  140.1000 O   0  0  0  0  0  0  0  0  0  0  0  0
  183.0660  179.2640  139.6890 C   0  0  2  0  0  3  0  0  0  0  0  0
  186.4850  178.0750  140.0660 C   0  0  2  0  0  3  0  0  0  0  0  0
  184.5950  179.4260  139.5390 C   0  0  2  0  0  3  0  0  0  0  0  0
  187.8420  177.9860  140.7610 C   0  0  2  0  0  3  0  0  0  0  0  0
  182.7090  178.2210  140.7400 C   0  0  0  0  0  2  0  0  0  0  0  0
  185.2090  178.7350  138.3320 C   0  0  0  0  0  2  0  0  0  0  0  0
  185.4280  178.0860  143.0800 C   0  0  0  0  0  2  0  0  0  0  0  0
  183.3790  178.5320  141.9300 O   0  0  0  0  0  0  0  0  0  0  0  0
  189.3150  176.6700  138.8770 C   0  0  0  0  0  2  0  0  0  0  0  0
  189.4930  178.1690  139.0910 C   0  0  1  0  0  3  0  0  0  0  0  0
  184.6940  178.0840  141.7430 C   0  0  1  0  0  3  0  0  0  0  0  0
  186.6160  178.5120  138.6810 N   0  0  2  0  0  0  0  0  0  0  0  0
  187.8130  178.2650  142.2740 C   0  0  1  0  0  3  0  0  0  0  0  0
  188.6730  177.6320  137.8850 C   0  0  2  0  0  3  0  0  0  0  0  0
  187.2110  177.4340  137.9760 N   0  0  0  0  0  0  0  0  0  0  0  0
  186.7840  177.3900  142.9960 C   0  0  0  0  0  2  0  0  0  0  0  0
  189.8500  179.1800  143.3960 C   0  0  0  0  0  3  0  0  0  0  0  0
  189.1690  178.0710  142.8810 C   0  0  0  0  0  0  0  0  0  0  0  0
  189.7680  176.8030  142.9350 C   0  0  0  0  0  3  0  0  0  0  0  0
  191.6120  175.4240  143.5490 F   0  0  0  0  0  0  0  0  0  0  0  0
  191.7140  177.7610  144.0110 C   0  0  0  0  0  3  0  0  0  0  0  0
  191.0370  176.6500  143.4990 C   0  0  0  0  0  0  0  0  0  0  0  0
  191.1190  179.0250  143.9600 C   0  0  0  0  0  3  0  0  0  0  0  0
  186.7730  177.4050  136.5740 C   0  0  0  0  0  2  0  0  0  0  0  0
  186.2510  176.0220  136.1880 C   0  0  1  0  0  3  0  0  0  0  0  0
  187.9820  176.3600  134.6470 C   0  0  0  0  0  1  0  0  0  0  0  0
  186.7390  175.6430  134.8690 N   0  0  0  0  0  2  0  0  0  0  0  0
  186.6620  174.9860  137.2270 C   0  0  0  0  0  2  0  0  0  0  0  0
  186.2920  173.5790  136.7820 C   0  0  0  0  0  2  0  0  0  0  0  0
  185.1300  173.0500  137.6000 C   0  0  0  0  0  1  0  0  0  0  0  0
  182.4460  178.9570  138.4650 O   0  0  0  0  0  0  0  0  0  0  0  0
  181.4630  179.9330  138.2150 C   0  0  0  0  0  0  0  0  0  0  0  0
  181.2910  180.1230  136.8510 F   0  0  0  0  0  0  0  0  0  0  0  0
  180.2540  179.5790  138.7940 F   0  0  0  0  0  0  0  0  0  0  0  0
  181.8770  181.1280  138.7700 F   0  0  0  0  0  0  0  0  0  0  0  0
  1 13  1  0  0  0  0
  2  6  1  0  0  0  0
  3  7  1  0  0  0  0
  4  1  1  0  0  0  0
  4  6  1  0  0  0  0
  5  3  1  0  0  0  0
  5  1  1  0  0  0  0
  6 15  1  0  0  0  0
  7 10  1  0  0  0  0
  8 14  1  0  0  0  0
  8  5  1  0  0  0  0
 11 12  1  0  0  0  0
 12  2  1  0  0  0  0
 13 10  1  0  0  0  0
 13  9  1  0  0  0  0
 14  4  1  0  0  0  0
 15 20  1  0  0  0  0
 15 18  1  0  0  0  0
 16 17  1  0  0  0  0
 16 11  1  0  0  0  0
 16 12  1  0  0  0  0
 17 14  1  0  0  0  0
 18  9  1  0  0  0  0
 19 25  1  0  0  0  0
 20 21  1  0  0  0  0
 20 19  2  0  0  0  0
 21 24  2  0  0  0  0
 24 22  1  0  0  0  0
 24 23  1  0  0  0  0
 25 23  2  0  0  0  0
 26 17  1  0  0  0  0
 27 26  1  0  0  0  0
 27 30  1  0  0  0  0
 28 29  1  0  0  0  0
 29 27  1  0  0  0  0
 31 30  1  0  0  0  0
 31 32  1  0  0  0  0
 33  3  1  0  0  0  0
 34 33  1  0  0  0  0
 34 37  1  0  0  0  0
 34 36  1  0  0  0  0
 35 34  1  0  0  0  0
M  END
>  <MODEL>
9

>  <REMARK>
 VINA RESULT:      -7.2      3.960      7.037
  Name = 
  8 active torsions:
  status: ('A' for Active; 'I' for Inactive)
    1  A    between atoms: C_1  and  C_4
    2  A    between atoms: C_1  and  N_27
    3  A    between atoms: C_2  and  O_22
    4  A    between atoms: C_4  and  C_12
    5  A    between atoms: C_4  and  N_37
    6  A    between atoms: C_6  and  O_22
    7  A    between atoms: C_8  and  C_12
    8  A    between atoms: C_23  and  C_30
                            x       y       z     vdW  Elec       q    Type
                         _______ _______ _______ _____ _____    ______ ____

>  <TORSDO>
F 8

$$$$
