=
 OpenBabel11122411513D

 28 32  0  0  1  0  0  0  0  0999 V2000
  188.0140  177.0260  142.4780 C   0  0  0  0  0  0  0  0  0  0  0  0
  186.3800  177.9110  138.5890 O   0  0  0  0  0  1  0  0  0  0  0  0
  193.5990  178.1050  140.1530 O   0  0  0  0  0  0  0  0  0  0  0  0
  186.2170  179.1430  142.0740 C   0  0  0  0  0  3  0  0  0  0  0  0
  192.1010  176.7610  138.9420 N   0  0  0  0  0  0  0  0  0  0  0  0
  189.0170  175.9850  142.8710 C   0  0  0  0  0  2  0  0  0  0  0  0
  188.1740  179.0640  137.7970 O   0  0  0  0  0  1  0  0  0  0  0  0
  187.6380  177.7890  138.0020 C   0  0  0  0  0  0  0  0  0  0  0  0
  188.3820  176.1940  136.2080 C   0  0  0  0  0  0  0  0  0  0  0  0
  188.5600  176.9650  138.9160 C   0  0  1  0  0  3  0  0  0  0  0  0
  191.7610  177.8370  144.4330 O   0  0  0  0  0  0  0  0  0  0  0  0
  190.3180  176.7380  140.5030 C   0  0  1  0  0  3  0  0  0  0  0  0
  189.4900  175.6320  137.0510 C   0  0  0  0  0  2  0  0  0  0  0  0
  187.4780  177.1360  136.7310 O   0  0  0  0  0  0  0  0  0  0  0  0
  191.2140  177.0870  143.5850 C   0  0  0  0  0  0  0  0  0  0  0  0
  188.1100  177.8140  141.2950 C   0  0  0  0  0  0  0  0  0  0  0  0
  192.4880  177.5170  140.0700 C   0  0  0  0  0  0  0  0  0  0  0  0
  188.2210  175.7650  135.0370 O   0  0  0  0  0  0  0  0  0  0  0  0
  191.9640  176.7470  142.3360 C   0  0  0  0  0  2  0  0  0  0  0  0
  187.2140  178.8820  141.1340 C   0  0  0  0  0  3  0  0  0  0  0  0
  187.0050  177.2980  143.4110 C   0  0  0  0  0  3  0  0  0  0  0  0
  186.1040  178.3430  143.2070 C   0  0  0  0  0  3  0  0  0  0  0  0
  189.9200  176.5440  143.8710 N   0  0  0  0  0  2  0  0  0  0  0  0
  190.8120  176.1450  139.1690 C   0  0  1  0  0  3  0  0  0  0  0  0
  191.4600  177.5350  141.1350 C   0  0  2  0  0  3  0  0  0  0  0  0
  189.8130  176.6310  138.1420 C   0  0  2  0  0  3  0  0  0  0  0  0
  192.9920  176.3410  137.9460 N   0  0  0  0  0  1  0  0  0  0  0  0
  189.1170  177.6200  140.1760 C   0  0  2  0  0  3  0  0  0  0  0  0
  1  6  1  0  0  0  0
  1 21  1  0  0  0  0
  4 22  1  0  0  0  0
  5 24  1  0  0  0  0
  5 17  1  0  0  0  0
  6 23  1  0  0  0  0
  7  8  1  0  0  0  0
  8  2  1  0  0  0  0
  9 14  1  0  0  0  0
  9 13  1  0  0  0  0
 10  8  1  6  0  0  0
 10 28  1  0  0  0  0
 12 25  1  0  0  0  0
 13 26  1  0  0  0  0
 14  8  1  0  0  0  0
 15 23  1  0  0  0  0
 15 11  2  0  0  0  0
 16  1  2  0  0  0  0
 17  3  2  0  0  0  0
 17 25  1  0  0  0  0
 18  9  2  0  0  0  0
 19 15  1  0  0  0  0
 20 16  1  0  0  0  0
 20  4  2  0  0  0  0
 22 21  2  0  0  0  0
 24 12  1  0  0  0  0
 25 19  1  0  0  0  0
 26 10  1  0  0  0  0
 26 24  1  0  0  0  0
 27  5  1  0  0  0  0
 28 12  1  0  0  0  0
 28 16  1  0  0  0  0
M  END
>  <MODEL>
1

>  <REMARK>
 VINA RESULT:      -8.5      0.000      0.000
  Name = 
  0 active torsions:
  status: ('A' for Active; 'I' for Inactive)
                            x       y       z     vdW  Elec       q    Type
                         _______ _______ _______ _____ _____    ______ ____

>  <TORSDO>
F 0

$$$$
=
 OpenBabel11122411513D

 28 32  0  0  1  0  0  0  0  0999 V2000
  185.5800  179.2120  145.0690 C   0  0  0  0  0  0  0  0  0  0  0  0
  189.2640  177.3530  143.8240 O   0  0  0  0  0  1  0  0  0  0  0  0
  182.9260  176.8420  140.0590 O   0  0  0  0  0  0  0  0  0  0  0  0
  186.8770  177.2900  146.6510 C   0  0  0  0  0  3  0  0  0  0  0  0
  185.0110  177.9030  139.8500 N   0  0  0  0  0  0  0  0  0  0  0  0
  184.7240  180.2030  144.3430 C   0  0  0  0  0  2  0  0  0  0  0  0
  188.3340  175.8170  142.4280 O   0  0  0  0  0  1  0  0  0  0  0  0
  188.7570  177.1440  142.5430 C   0  0  0  0  0  0  0  0  0  0  0  0
  189.6330  178.0090  140.3520 C   0  0  0  0  0  0  0  0  0  0  0  0
  187.5810  178.1020  142.2860 C   0  0  1  0  0  3  0  0  0  0  0  0
  181.4270  178.6300  144.0990 O   0  0  0  0  0  0  0  0  0  0  0  0
  185.2650  178.6100  142.0980 C   0  0  1  0  0  3  0  0  0  0  0  0
  188.3340  178.6760  140.0010 C   0  0  0  0  0  2  0  0  0  0  0  0
  189.8140  177.3840  141.5980 O   0  0  0  0  0  0  0  0  0  0  0  0
  182.4960  179.1370  143.6720 C   0  0  0  0  0  0  0  0  0  0  0  0
  186.1980  178.0890  144.4480 C   0  0  0  0  0  0  0  0  0  0  0  0
  183.8700  177.4960  140.5760 C   0  0  0  0  0  0  0  0  0  0  0  0
  190.5940  178.0690  139.5430 O   0  0  0  0  0  0  0  0  0  0  0  0
  182.8340  178.9850  142.2220 C   0  0  0  0  0  2  0  0  0  0  0  0
  186.8170  177.1330  145.2660 C   0  0  0  0  0  3  0  0  0  0  0  0
  185.6520  179.3570  146.4620 C   0  0  0  0  0  3  0  0  0  0  0  0
  186.3050  178.4100  147.2480 C   0  0  0  0  0  3  0  0  0  0  0  0
  183.3200  179.8840  144.5740 N   0  0  0  0  0  2  0  0  0  0  0  0
  185.8800  178.7000  140.6880 C   0  0  1  0  0  3  0  0  0  0  0  0
  183.9010  177.9260  141.9930 C   0  0  2  0  0  3  0  0  0  0  0  0
  187.2330  178.0350  140.8190 C   0  0  2  0  0  3  0  0  0  0  0  0
  185.0870  177.8900  138.4510 N   0  0  0  0  0  1  0  0  0  0  0  0
  186.2420  177.8120  142.9550 C   0  0  2  0  0  3  0  0  0  0  0  0
  1 21  1  0  0  0  0
  3 17  2  0  0  0  0
  4 22  1  0  0  0  0
  5 17  1  0  0  0  0
  5 24  1  0  0  0  0
  6 23  1  0  0  0  0
  6  1  1  0  0  0  0
  7  8  1  0  0  0  0
  8  2  1  0  0  0  0
  9 14  1  0  0  0  0
 10  8  1  6  0  0  0
 10 28  1  0  0  0  0
 12 28  1  0  0  0  0
 13  9  1  0  0  0  0
 13 26  1  0  0  0  0
 14  8  1  0  0  0  0
 15 11  2  0  0  0  0
 15 23  1  0  0  0  0
 16  1  2  0  0  0  0
 16 20  1  0  0  0  0
 17 25  1  0  0  0  0
 18  9  2  0  0  0  0
 19 15  1  0  0  0  0
 20  4  2  0  0  0  0
 21 22  2  0  0  0  0
 24 26  1  0  0  0  0
 24 12  1  0  0  0  0
 25 12  1  0  0  0  0
 25 19  1  0  0  0  0
 26 10  1  0  0  0  0
 27  5  1  0  0  0  0
 28 16  1  0  0  0  0
M  END
>  <MODEL>
2

>  <REMARK>
 VINA RESULT:      -7.9      3.648      6.396
  Name = 
  0 active torsions:
  status: ('A' for Active; 'I' for Inactive)
                            x       y       z     vdW  Elec       q    Type
                         _______ _______ _______ _____ _____    ______ ____

>  <TORSDO>
F 0

$$$$
=
 OpenBabel11122411513D

 28 32  0  0  1  0  0  0  0  0999 V2000
  186.4280  177.4930  143.0070 C   0  0  0  0  0  0  0  0  0  0  0  0
  186.9790  178.2280  138.7950 O   0  0  0  0  0  1  0  0  0  0  0  0
  192.3590  178.8820  143.8180 O   0  0  0  0  0  0  0  0  0  0  0  0
  184.9970  179.4910  141.6530 C   0  0  0  0  0  3  0  0  0  0  0  0
  191.7570  177.4340  142.0700 N   0  0  0  0  0  0  0  0  0  0  0  0
  187.1340  176.5210  143.9000 C   0  0  0  0  0  2  0  0  0  0  0  0
  188.8700  179.4790  138.9840 O   0  0  0  0  0  1  0  0  0  0  0  0
  188.3640  178.1770  138.9390 C   0  0  0  0  0  0  0  0  0  0  0  0
  189.9950  176.6070  137.8460 C   0  0  0  0  0  0  0  0  0  0  0  0
  188.7250  177.4210  140.2300 C   0  0  1  0  0  3  0  0  0  0  0  0
  188.6020  178.5560  146.5660 O   0  0  0  0  0  0  0  0  0  0  0  0
  189.4290  177.3220  142.5000 C   0  0  1  0  0  3  0  0  0  0  0  0
  190.5390  176.1250  139.1600 C   0  0  0  0  0  2  0  0  0  0  0  0
  188.9090  177.5000  137.7940 O   0  0  0  0  0  0  0  0  0  0  0  0
  188.6010  177.7630  145.5900 C   0  0  0  0  0  0  0  0  0  0  0  0
  187.0800  178.2710  142.0070 C   0  0  0  0  0  0  0  0  0  0  0  0
  191.4760  178.2260  143.2050 C   0  0  0  0  0  0  0  0  0  0  0  0
  190.4770  176.1550  136.7770 O   0  0  0  0  0  0  0  0  0  0  0  0
  189.9010  177.4540  144.9140 C   0  0  0  0  0  2  0  0  0  0  0  0
  186.3450  179.2800  141.3660 C   0  0  0  0  0  3  0  0  0  0  0  0
  185.0720  177.7150  143.2810 C   0  0  0  0  0  3  0  0  0  0  0  0
  184.3560  178.7000  142.6020 C   0  0  0  0  0  3  0  0  0  0  0  0
  187.3700  177.1450  145.1960 N   0  0  0  0  0  2  0  0  0  0  0  0
  190.5630  176.7440  141.6320 C   0  0  1  0  0  3  0  0  0  0  0  0
  190.0470  178.1940  143.5940 C   0  0  2  0  0  3  0  0  0  0  0  0
  190.2110  177.1550  140.2190 C   0  0  2  0  0  3  0  0  0  0  0  0
  193.0510  177.0570  141.6880 N   0  0  0  0  0  1  0  0  0  0  0  0
  188.5270  178.1250  141.5690 C   0  0  2  0  0  3  0  0  0  0  0  0
  1 21  1  0  0  0  0
  1  6  1  0  0  0  0
  2  8  1  0  0  0  0
  4 22  1  0  0  0  0
  5 17  1  0  0  0  0
  6 23  1  0  0  0  0
  8  7  1  0  0  0  0
  9 13  1  0  0  0  0
 10  8  1  6  0  0  0
 10 28  1  0  0  0  0
 12 25  1  0  0  0  0
 13 26  1  0  0  0  0
 14  9  1  0  0  0  0
 14  8  1  0  0  0  0
 15 11  2  0  0  0  0
 16  1  2  0  0  0  0
 17 25  1  0  0  0  0
 17  3  2  0  0  0  0
 18  9  2  0  0  0  0
 19 15  1  0  0  0  0
 20  4  2  0  0  0  0
 20 16  1  0  0  0  0
 22 21  2  0  0  0  0
 23 15  1  0  0  0  0
 24  5  1  0  0  0  0
 24 12  1  0  0  0  0
 25 19  1  0  0  0  0
 26 10  1  0  0  0  0
 26 24  1  0  0  0  0
 27  5  1  0  0  0  0
 28 16  1  0  0  0  0
 28 12  1  0  0  0  0
M  END
>  <MODEL>
3

>  <REMARK>
 VINA RESULT:      -7.7      1.807      2.496
  Name = 
  0 active torsions:
  status: ('A' for Active; 'I' for Inactive)
                            x       y       z     vdW  Elec       q    Type
                         _______ _______ _______ _____ _____    ______ ____

>  <TORSDO>
F 0

$$$$
=
 OpenBabel11122411513D

 28 32  0  0  1  0  0  0  0  0999 V2000
  186.9240  178.8110  141.7990 C   0  0  0  0  0  0  0  0  0  0  0  0
  185.3430  178.3820  145.7860 O   0  0  0  0  0  1  0  0  0  0  0  0
  191.1130  174.5460  143.2180 O   0  0  0  0  0  0  0  0  0  0  0  0
  184.2860  177.9720  142.2630 C   0  0  0  0  0  3  0  0  0  0  0  0
  190.7000  176.2870  144.7390 N   0  0  0  0  0  0  0  0  0  0  0  0
  188.3050  179.1870  141.3610 C   0  0  0  0  0  2  0  0  0  0  0  0
  186.2440  176.3380  146.2150 O   0  0  0  0  0  1  0  0  0  0  0  0
  186.4940  177.7130  146.2000 C   0  0  0  0  0  0  0  0  0  0  0  0
  188.1190  178.3610  148.0040 C   0  0  0  0  0  0  0  0  0  0  0  0
  187.6530  178.0320  145.2410 C   0  0  1  0  0  3  0  0  0  0  0  0
  189.4460  176.4030  139.2760 O   0  0  0  0  0  0  0  0  0  0  0  0
  189.1280  177.5050  143.4500 C   0  0  1  0  0  3  0  0  0  0  0  0
  189.2910  178.3520  147.0660 C   0  0  0  0  0  2  0  0  0  0  0  0
  186.8110  178.1490  147.5320 O   0  0  0  0  0  0  0  0  0  0  0  0
  189.4660  177.1940  140.2540 C   0  0  0  0  0  0  0  0  0  0  0  0
  186.6460  177.9300  142.8830 C   0  0  0  0  0  0  0  0  0  0  0  0
  190.5240  175.6210  143.5060 C   0  0  0  0  0  0  0  0  0  0  0  0
  188.3040  178.6280  149.2180 O   0  0  0  0  0  0  0  0  0  0  0  0
  190.3620  176.8810  141.4120 C   0  0  0  0  0  2  0  0  0  0  0  0
  185.3220  177.5080  143.0740 C   0  0  0  0  0  3  0  0  0  0  0  0
  185.8720  179.2720  140.9950 C   0  0  0  0  0  3  0  0  0  0  0  0
  184.5600  178.8650  141.2310 C   0  0  0  0  0  3  0  0  0  0  0  0
  188.6760  178.3860  140.2010 N   0  0  0  0  0  2  0  0  0  0  0  0
  189.9580  177.5290  144.7480 C   0  0  1  0  0  3  0  0  0  0  0  0
  189.5890  176.3230  142.5970 C   0  0  2  0  0  3  0  0  0  0  0  0
  188.9300  177.5140  145.8590 C   0  0  2  0  0  3  0  0  0  0  0  0
  191.7400  176.0030  145.6340 N   0  0  0  0  0  1  0  0  0  0  0  0
  187.6660  177.3770  143.8640 C   0  0  2  0  0  3  0  0  0  0  0  0
  1 16  1  0  0  0  0
  2  8  1  0  0  0  0
  3 17  2  0  0  0  0
  4 20  1  0  0  0  0
  5 24  1  0  0  0  0
  5 27  1  0  0  0  0
  6  1  1  0  0  0  0
  8  7  1  0  0  0  0
  8 14  1  0  0  0  0
  9 18  2  0  0  0  0
 10 26  1  0  0  0  0
 10  8  1  1  0  0  0
 11 15  2  0  0  0  0
 12 28  1  0  0  0  0
 12 24  1  0  0  0  0
 13  9  1  0  0  0  0
 14  9  1  0  0  0  0
 15 19  1  0  0  0  0
 16 20  2  0  0  0  0
 16 28  1  0  0  0  0
 17  5  1  0  0  0  0
 19 25  1  0  0  0  0
 21 22  1  0  0  0  0
 21  1  2  0  0  0  0
 22  4  2  0  0  0  0
 23 15  1  0  0  0  0
 23  6  1  0  0  0  0
 24 26  1  0  0  0  0
 25 12  1  0  0  0  0
 25 17  1  0  0  0  0
 26 13  1  0  0  0  0
 28 10  1  0  0  0  0
M  END
>  <MODEL>
4

>  <REMARK>
 VINA RESULT:      -7.6      3.180      6.605
  Name = 
  0 active torsions:
  status: ('A' for Active; 'I' for Inactive)
                            x       y       z     vdW  Elec       q    Type
                         _______ _______ _______ _____ _____    ______ ____

>  <TORSDO>
F 0

$$$$
=
 OpenBabel11122411513D

 28 32  0  0  1  0  0  0  0  0999 V2000
  186.0970  177.6590  145.0320 C   0  0  0  0  0  0  0  0  0  0  0  0
  185.8640  178.6200  140.8370 O   0  0  0  0  0  1  0  0  0  0  0  0
  192.1110  178.8910  144.7750 O   0  0  0  0  0  0  0  0  0  0  0  0
  184.4930  179.7570  144.0810 C   0  0  0  0  0  3  0  0  0  0  0  0
  191.1490  177.5560  143.1000 N   0  0  0  0  0  0  0  0  0  0  0  0
  186.9300  176.6260  145.7240 C   0  0  0  0  0  2  0  0  0  0  0  0
  187.7920  179.8230  140.7280 O   0  0  0  0  0  1  0  0  0  0  0  0
  187.2500  178.5350  140.7130 C   0  0  0  0  0  0  0  0  0  0  0  0
  188.6000  177.0000  139.2500 C   0  0  0  0  0  0  0  0  0  0  0  0
  187.8250  177.7020  141.8710 C   0  0  1  0  0  3  0  0  0  0  0  0
  188.9320  178.4800  148.1650 O   0  0  0  0  0  0  0  0  0  0  0  0
  188.9420  177.4620  143.9570 C   0  0  1  0  0  3  0  0  0  0  0  0
  189.3680  176.4350  140.4100 C   0  0  0  0  0  2  0  0  0  0  0  0
  187.5490  177.9140  139.4510 O   0  0  0  0  0  0  0  0  0  0  0  0
  188.7240  177.7430  147.1670 C   0  0  0  0  0  0  0  0  0  0  0  0
  186.5700  178.4810  143.9690 C   0  0  0  0  0  0  0  0  0  0  0  0
  191.1100  178.2880  144.3070 C   0  0  0  0  0  0  0  0  0  0  0  0
  188.8580  176.6000  138.0870 O   0  0  0  0  0  0  0  0  0  0  0  0
  189.8640  177.4490  146.2420 C   0  0  0  0  0  2  0  0  0  0  0  0
  185.7570  179.5370  143.5320 C   0  0  0  0  0  3  0  0  0  0  0  0
  184.8230  177.8910  145.5700 C   0  0  0  0  0  3  0  0  0  0  0  0
  184.0210  178.9250  145.0920 C   0  0  0  0  0  3  0  0  0  0  0  0
  187.4240  177.1720  146.9820 N   0  0  0  0  0  2  0  0  0  0  0  0
  189.8750  176.9130  142.8610 C   0  0  1  0  0  3  0  0  0  0  0  0
  189.7800  178.2600  144.9570 C   0  0  2  0  0  3  0  0  0  0  0  0
  189.2740  177.4100  141.5640 C   0  0  2  0  0  3  0  0  0  0  0  0
  192.3370  177.1770  142.4600 N   0  0  0  0  0  1  0  0  0  0  0  0
  187.9040  178.3330  143.2570 C   0  0  2  0  0  3  0  0  0  0  0  0
  1 21  1  0  0  0  0
  1  6  1  0  0  0  0
  4 22  1  0  0  0  0
  5 17  1  0  0  0  0
  6 23  1  0  0  0  0
  8  7  1  0  0  0  0
  8  2  1  0  0  0  0
  9 14  1  0  0  0  0
  9 13  1  0  0  0  0
 10  8  1  6  0  0  0
 10 28  1  0  0  0  0
 12 25  1  0  0  0  0
 13 26  1  0  0  0  0
 14  8  1  0  0  0  0
 15 11  2  0  0  0  0
 16  1  2  0  0  0  0
 17  3  2  0  0  0  0
 17 25  1  0  0  0  0
 18  9  2  0  0  0  0
 19 15  1  0  0  0  0
 20 16  1  0  0  0  0
 20  4  2  0  0  0  0
 22 21  2  0  0  0  0
 23 15  1  0  0  0  0
 24  5  1  0  0  0  0
 24 12  1  0  0  0  0
 25 19  1  0  0  0  0
 26 10  1  0  0  0  0
 26 24  1  0  0  0  0
 27  5  1  0  0  0  0
 28 12  1  0  0  0  0
 28 16  1  0  0  0  0
M  END
>  <MODEL>
5

>  <REMARK>
 VINA RESULT:      -6.7      2.309      3.661
  Name = 
  0 active torsions:
  status: ('A' for Active; 'I' for Inactive)
                            x       y       z     vdW  Elec       q    Type
                         _______ _______ _______ _____ _____    ______ ____

>  <TORSDO>
F 0

$$$$
=
 OpenBabel11122411513D

 28 32  0  0  1  0  0  0  0  0999 V2000
  183.3510  176.9080  138.6080 C   0  0  0  0  0  0  0  0  0  0  0  0
  186.0010  178.0950  141.7940 O   0  0  0  0  0  1  0  0  0  0  0  0
  179.6190  181.4950  140.2770 O   0  0  0  0  0  0  0  0  0  0  0  0
  185.9830  177.7450  138.1100 C   0  0  0  0  0  3  0  0  0  0  0  0
  180.5070  180.0900  141.9340 N   0  0  0  0  0  0  0  0  0  0  0  0
  181.9140  176.4910  138.6750 C   0  0  0  0  0  2  0  0  0  0  0  0
  185.1990  180.2090  142.0390 O   0  0  0  0  0  1  0  0  0  0  0  0
  184.9990  178.8680  142.3770 C   0  0  0  0  0  0  0  0  0  0  0  0
  183.9850  178.6500  144.6660 C   0  0  0  0  0  0  0  0  0  0  0  0
  183.6220  178.3940  141.8800 C   0  0  1  0  0  3  0  0  0  0  0  0
  180.1340  178.8240  136.4860 O   0  0  0  0  0  0  0  0  0  0  0  0
  181.6780  178.5880  140.5240 C   0  0  1  0  0  3  0  0  0  0  0  0
  182.5910  178.5030  144.1260 C   0  0  0  0  0  2  0  0  0  0  0  0
  185.0940  178.7230  143.8040 O   0  0  0  0  0  0  0  0  0  0  0  0
  180.4220  178.2500  137.5680 C   0  0  0  0  0  0  0  0  0  0  0  0
  183.9020  177.9830  139.3630 C   0  0  0  0  0  0  0  0  0  0  0  0
  180.2990  180.4840  140.5950 C   0  0  0  0  0  0  0  0  0  0  0  0
  184.1670  178.6430  145.9100 O   0  0  0  0  0  0  0  0  0  0  0  0
  179.8890  178.8190  138.8460 C   0  0  0  0  0  2  0  0  0  0  0  0
  185.2120  178.3960  139.0730 C   0  0  0  0  0  3  0  0  0  0  0  0
  184.1400  176.2620  137.6470 C   0  0  0  0  0  3  0  0  0  0  0  0
  185.4510  176.6690  137.4060 C   0  0  0  0  0  3  0  0  0  0  0  0
  181.2000  177.0490  137.5330 N   0  0  0  0  0  2  0  0  0  0  0  0
  181.2590  178.8540  141.9820 C   0  0  1  0  0  3  0  0  0  0  0  0
  180.9530  179.5840  139.6180 C   0  0  2  0  0  3  0  0  0  0  0  0
  182.5630  179.0650  142.7210 C   0  0  2  0  0  3  0  0  0  0  0  0
  179.7620  180.5810  143.0140 N   0  0  0  0  0  1  0  0  0  0  0  0
  183.1920  178.7540  140.4620 C   0  0  2  0  0  3  0  0  0  0  0  0
  1  6  1  0  0  0  0
  1 16  1  0  0  0  0
  2  8  1  0  0  0  0
  3 17  2  0  0  0  0
  4 20  1  0  0  0  0
  5 24  1  0  0  0  0
  5 27  1  0  0  0  0
  7  8  1  0  0  0  0
  8 14  1  0  0  0  0
  9 18  2  0  0  0  0
 10  8  1  1  0  0  0
 10 26  1  0  0  0  0
 11 15  2  0  0  0  0
 12 24  1  0  0  0  0
 13  9  1  0  0  0  0
 14  9  1  0  0  0  0
 15 19  1  0  0  0  0
 16 28  1  0  0  0  0
 17  5  1  0  0  0  0
 19 25  1  0  0  0  0
 20 16  2  0  0  0  0
 21  1  2  0  0  0  0
 22 21  1  0  0  0  0
 22  4  2  0  0  0  0
 23 15  1  0  0  0  0
 23  6  1  0  0  0  0
 24 26  1  0  0  0  0
 25 12  1  0  0  0  0
 25 17  1  0  0  0  0
 26 13  1  0  0  0  0
 28 12  1  0  0  0  0
 28 10  1  0  0  0  0
M  END
>  <MODEL>
6

>  <REMARK>
 VINA RESULT:      -6.6      5.833      9.495
  Name = 
  0 active torsions:
  status: ('A' for Active; 'I' for Inactive)
                            x       y       z     vdW  Elec       q    Type
                         _______ _______ _______ _____ _____    ______ ____

>  <TORSDO>
F 0

$$$$
=
 OpenBabel11122411513D

 28 32  0  0  1  0  0  0  0  0999 V2000
  187.3550  177.5040  142.5460 C   0  0  0  0  0  0  0  0  0  0  0  0
  191.5170  177.2590  143.6430 O   0  0  0  0  0  1  0  0  0  0  0  0
  186.2700  180.0580  148.0280 O   0  0  0  0  0  0  0  0  0  0  0  0
  189.3520  178.8260  141.0830 C   0  0  0  0  0  3  0  0  0  0  0  0
  187.6210  178.1420  147.9120 N   0  0  0  0  0  0  0  0  0  0  0  0
  186.1580  176.9210  143.2300 C   0  0  0  0  0  2  0  0  0  0  0  0
  191.4550  178.8260  145.2900 O   0  0  0  0  0  1  0  0  0  0  0  0
  191.2050  177.4860  144.9820 C   0  0  0  0  0  0  0  0  0  0  0  0
  191.6410  176.0030  146.9640 C   0  0  0  0  0  0  0  0  0  0  0  0
  189.7260  177.1480  145.2360 C   0  0  1  0  0  3  0  0  0  0  0  0
  183.9880  179.7750  143.9680 O   0  0  0  0  0  0  0  0  0  0  0  0
  187.4480  177.7370  145.5840 C   0  0  1  0  0  3  0  0  0  0  0  0
  190.1920  175.9620  147.3570 C   0  0  0  0  0  2  0  0  0  0  0  0
  192.0560  176.6520  145.7870 O   0  0  0  0  0  0  0  0  0  0  0  0
  184.7080  178.7770  144.2300 C   0  0  0  0  0  0  0  0  0  0  0  0
  188.4450  178.1120  143.2320 C   0  0  0  0  0  0  0  0  0  0  0  0
  186.7820  179.1290  147.3500 C   0  0  0  0  0  0  0  0  0  0  0  0
  192.4860  175.3910  147.6650 O   0  0  0  0  0  0  0  0  0  0  0  0
  185.1210  178.5420  145.6490 C   0  0  0  0  0  2  0  0  0  0  0  0
  189.4140  178.7870  142.4760 C   0  0  0  0  0  3  0  0  0  0  0  0
  187.3090  177.5480  141.1460 C   0  0  0  0  0  3  0  0  0  0  0  0
  188.3050  178.1950  140.4160 C   0  0  0  0  0  3  0  0  0  0  0  0
  185.0600  177.8780  143.1720 N   0  0  0  0  0  2  0  0  0  0  0  0
  187.9920  177.1680  146.9080 C   0  0  1  0  0  3  0  0  0  0  0  0
  186.5660  178.9460  145.8970 C   0  0  2  0  0  3  0  0  0  0  0  0
  189.4940  177.1500  146.7280 C   0  0  2  0  0  3  0  0  0  0  0  0
  187.7370  177.9120  149.2890 N   0  0  0  0  0  1  0  0  0  0  0  0
  188.6580  178.1150  144.7360 C   0  0  2  0  0  3  0  0  0  0  0  0
  1  6  1  0  0  0  0
  1 16  1  0  0  0  0
  2  8  1  0  0  0  0
  4 20  1  0  0  0  0
  5 27  1  0  0  0  0
  8  7  1  0  0  0  0
  8 14  1  0  0  0  0
  9 13  1  0  0  0  0
  9 18  2  0  0  0  0
 10  8  1  1  0  0  0
 10 26  1  0  0  0  0
 11 15  2  0  0  0  0
 12 25  1  0  0  0  0
 12 24  1  0  0  0  0
 14  9  1  0  0  0  0
 15 19  1  0  0  0  0
 16 28  1  0  0  0  0
 17  5  1  0  0  0  0
 17  3  2  0  0  0  0
 19 25  1  0  0  0  0
 20 16  2  0  0  0  0
 21  1  2  0  0  0  0
 22  4  2  0  0  0  0
 22 21  1  0  0  0  0
 23  6  1  0  0  0  0
 23 15  1  0  0  0  0
 24  5  1  0  0  0  0
 25 17  1  0  0  0  0
 26 24  1  0  0  0  0
 26 13  1  0  0  0  0
 28 10  1  0  0  0  0
 28 12  1  0  0  0  0
M  END
>  <MODEL>
7

>  <REMARK>
 VINA RESULT:      -6.5      4.495      7.791
  Name = 
  0 active torsions:
  status: ('A' for Active; 'I' for Inactive)
                            x       y       z     vdW  Elec       q    Type
                         _______ _______ _______ _____ _____    ______ ____

>  <TORSDO>
F 0

$$$$
=
 OpenBabel11122411513D

 28 32  0  0  1  0  0  0  0  0999 V2000
  187.3090  177.3140  145.7490 C   0  0  0  0  0  0  0  0  0  0  0  0
  183.4320  179.1840  145.5260 O   0  0  0  0  0  1  0  0  0  0  0  0
  188.5070  179.5940  140.1700 O   0  0  0  0  0  0  0  0  0  0  0  0
  186.4980  179.2660  147.5950 C   0  0  0  0  0  3  0  0  0  0  0  0
  186.4400  178.5470  140.5530 N   0  0  0  0  0  0  0  0  0  0  0  0
  187.9310  176.3060  144.8320 C   0  0  0  0  0  2  0  0  0  0  0  0
  183.9530  180.6940  143.9060 O   0  0  0  0  0  1  0  0  0  0  0  0
  183.5710  179.3720  144.1520 C   0  0  0  0  0  0  0  0  0  0  0  0
  182.1290  178.4840  142.2950 C   0  0  0  0  0  0  0  0  0  0  0  0
  184.6290  178.4010  143.5990 C   0  0  1  0  0  3  0  0  0  0  0  0
  191.0430  177.8490  143.6770 O   0  0  0  0  0  0  0  0  0  0  0  0
  186.8040  177.8720  142.7960 C   0  0  1  0  0  3  0  0  0  0  0  0
  183.2810  177.8020  141.6140 C   0  0  0  0  0  2  0  0  0  0  0  0
  182.2960  179.1280  143.5340 O   0  0  0  0  0  0  0  0  0  0  0  0
  189.8960  177.3450  143.5650 C   0  0  0  0  0  0  0  0  0  0  0  0
  186.5490  178.4320  145.3020 C   0  0  0  0  0  0  0  0  0  0  0  0
  187.7370  178.9550  140.9350 C   0  0  0  0  0  0  0  0  0  0  0  0
  180.9840  178.4210  141.7790 O   0  0  0  0  0  0  0  0  0  0  0  0
  189.1770  177.4800  142.2590 C   0  0  0  0  0  2  0  0  0  0  0  0
  186.1800  179.4050  146.2440 C   0  0  0  0  0  3  0  0  0  0  0  0
  187.6180  177.1870  147.1110 C   0  0  0  0  0  3  0  0  0  0  0  0
  187.2070  178.1500  148.0310 C   0  0  0  0  0  3  0  0  0  0  0  0
  189.3460  176.6170  144.6680 N   0  0  0  0  0  2  0  0  0  0  0  0
  185.8290  177.7680  141.6080 C   0  0  1  0  0  3  0  0  0  0  0  0
  188.0910  178.5440  142.3130 C   0  0  2  0  0  3  0  0  0  0  0  0
  184.5650  178.4450  142.0920 C   0  0  2  0  0  3  0  0  0  0  0  0
  185.9870  178.5420  139.2280 N   0  0  0  0  0  1  0  0  0  0  0  0
  186.1010  178.6900  143.8740 C   0  0  2  0  0  3  0  0  0  0  0  0
  1 21  1  0  0  0  0
  3 17  2  0  0  0  0
  4 22  1  0  0  0  0
  5 17  1  0  0  0  0
  5 24  1  0  0  0  0
  6  1  1  0  0  0  0
  7  8  1  0  0  0  0
  8  2  1  0  0  0  0
  9 14  1  0  0  0  0
 10 28  1  0  0  0  0
 10  8  1  1  0  0  0
 12 28  1  0  0  0  0
 13 26  1  0  0  0  0
 13  9  1  0  0  0  0
 14  8  1  0  0  0  0
 15 11  2  0  0  0  0
 15 23  1  0  0  0  0
 16  1  2  0  0  0  0
 16 20  1  0  0  0  0
 17 25  1  0  0  0  0
 18  9  2  0  0  0  0
 19 25  1  0  0  0  0
 19 15  1  0  0  0  0
 20  4  2  0  0  0  0
 21 22  2  0  0  0  0
 23  6  1  0  0  0  0
 24 26  1  0  0  0  0
 24 12  1  0  0  0  0
 25 12  1  0  0  0  0
 26 10  1  0  0  0  0
 27  5  1  0  0  0  0
 28 16  1  0  0  0  0
M  END
>  <MODEL>
8

>  <REMARK>
 VINA RESULT:      -6.5      3.728      5.878
  Name = 
  0 active torsions:
  status: ('A' for Active; 'I' for Inactive)
                            x       y       z     vdW  Elec       q    Type
                         _______ _______ _______ _____ _____    ______ ____

>  <TORSDO>
F 0

$$$$
=
 OpenBabel11122411513D

 28 32  0  0  1  0  0  0  0  0999 V2000
  190.2160  177.3790  144.2430 C   0  0  0  0  0  0  0  0  0  0  0  0
  191.1710  176.2910  140.1830 O   0  0  0  0  0  1  0  0  0  0  0  0
  184.3170  177.7070  142.5530 O   0  0  0  0  0  0  0  0  0  0  0  0
  191.4150  174.9210  143.6110 C   0  0  0  0  0  3  0  0  0  0  0  0
  185.9480  178.7150  141.1970 N   0  0  0  0  0  0  0  0  0  0  0  0
  189.5320  178.6060  144.7600 C   0  0  0  0  0  2  0  0  0  0  0  0
  189.0830  175.6140  139.5860 O   0  0  0  0  0  1  0  0  0  0  0  0
  189.9200  176.7220  139.7440 C   0  0  0  0  0  0  0  0  0  0  0  0
  189.3810  178.5140  138.0660 C   0  0  0  0  0  0  0  0  0  0  0  0
  189.3190  177.7010  140.7670 C   0  0  1  0  0  3  0  0  0  0  0  0
  186.6150  177.3790  146.6000 O   0  0  0  0  0  0  0  0  0  0  0  0
  187.8440  178.2660  142.5460 C   0  0  1  0  0  3  0  0  0  0  0  0
  188.5310  179.2830  139.0370 C   0  0  0  0  0  2  0  0  0  0  0  0
  190.0900  177.3690  138.4720 O   0  0  0  0  0  0  0  0  0  0  0  0
  187.2280  178.0150  145.7060 C   0  0  0  0  0  0  0  0  0  0  0  0
  189.8120  176.6800  143.0690 C   0  0  0  0  0  0  0  0  0  0  0  0
  185.5190  178.0250  142.3530 C   0  0  0  0  0  0  0  0  0  0  0  0
  189.5100  178.9390  136.8900 O   0  0  0  0  0  0  0  0  0  0  0  0
  186.4480  178.5660  144.5530 C   0  0  0  0  0  2  0  0  0  0  0  0
  190.4110  175.4420  142.7940 C   0  0  0  0  0  3  0  0  0  0  0  0
  191.2280  176.8450  145.0520 C   0  0  0  0  0  3  0  0  0  0  0  0
  191.8320  175.6300  144.7350 C   0  0  0  0  0  3  0  0  0  0  0  0
  188.6360  178.2330  145.8490 N   0  0  0  0  0  2  0  0  0  0  0  0
  187.3620  179.0070  141.2840 C   0  0  1  0  0  3  0  0  0  0  0  0
  186.6220  177.7300  143.2940 C   0  0  2  0  0  3  0  0  0  0  0  0
  188.1040  178.3440  140.1440 C   0  0  2  0  0  3  0  0  0  0  0  0
  185.0780  179.3670  140.3140 N   0  0  0  0  0  1  0  0  0  0  0  0
  188.7630  177.1440  142.0740 C   0  0  2  0  0  3  0  0  0  0  0  0
  1  6  1  0  0  0  0
  1 21  1  0  0  0  0
  4 22  1  0  0  0  0
  5 24  1  0  0  0  0
  5 17  1  0  0  0  0
  6 23  1  0  0  0  0
  7  8  1  0  0  0  0
  8  2  1  0  0  0  0
  9 14  1  0  0  0  0
  9 13  1  0  0  0  0
 10  8  1  6  0  0  0
 10 28  1  0  0  0  0
 12 25  1  0  0  0  0
 13 26  1  0  0  0  0
 14  8  1  0  0  0  0
 15 23  1  0  0  0  0
 15 11  2  0  0  0  0
 16  1  2  0  0  0  0
 17  3  2  0  0  0  0
 17 25  1  0  0  0  0
 18  9  2  0  0  0  0
 19 15  1  0  0  0  0
 20 16  1  0  0  0  0
 20  4  2  0  0  0  0
 22 21  2  0  0  0  0
 24 12  1  0  0  0  0
 25 19  1  0  0  0  0
 26 10  1  0  0  0  0
 26 24  1  0  0  0  0
 27  5  1  0  0  0  0
 28 12  1  0  0  0  0
 28 16  1  0  0  0  0
M  END
>  <MODEL>
9

>  <REMARK>
 VINA RESULT:      -6.4      2.950      5.076
  Name = 
  0 active torsions:
  status: ('A' for Active; 'I' for Inactive)
                            x       y       z     vdW  Elec       q    Type
                         _______ _______ _______ _____ _____    ______ ____

>  <TORSDO>
F 0

$$$$
