=
 OpenBabel11122411393D

 37 44  0  0  1  0  0  0  0  0999 V2000
  184.0290  175.7410  136.5530 C   0  0  0  0  0  2  0  0  0  0  0  0
  187.9150  177.9400  138.0370 C   0  0  0  0  0  0  0  0  0  0  0  0
  184.3790  178.3990  140.1820 C   0  0  0  0  0  0  0  0  0  0  0  0
  183.9530  175.3680  135.1410 N   0  0  0  0  0  0  0  0  0  0  0  0
  181.0120  177.4530  138.6400 O   0  0  0  0  0  0  0  0  0  0  0  0
  186.7690  178.7080  140.0980 C   0  0  0  0  0  0  0  0  0  0  0  0
  183.4160  177.9940  139.2680 C   0  0  0  0  0  0  0  0  0  0  0  0
  181.4520  175.2430  135.6100 C   0  0  2  0  0  3  0  0  0  0  0  0
  185.5630  178.4210  139.5100 C   0  0  0  0  0  0  0  0  0  0  0  0
  181.9670  177.6870  139.6680 C   0  0  1  0  0  3  0  0  0  0  0  0
  186.7760  179.0270  141.4640 C   0  0  0  0  0  3  0  0  0  0  0  0
  182.5890  175.4460  134.5950 C   0  0  0  0  0  2  0  0  0  0  0  0
  185.4390  178.0440  138.2410 N   0  0  0  0  0  0  0  0  0  0  0  0
  188.2200  176.4730  138.2740 C   0  0  0  0  0  1  0  0  0  0  0  0
  183.1110  178.6280  142.3890 C   0  0  0  0  0  3  0  0  0  0  0  0
  185.5590  179.0050  142.1900 C   0  0  0  0  0  3  0  0  0  0  0  0
  186.5550  178.0530  137.2940 C   0  0  0  0  0  2  0  0  0  0  0  0
  181.0350  176.4980  136.4030 C   0  0  1  0  0  3  0  0  0  0  0  0
  181.6040  176.5820  137.7370 C   0  0  1  0  0  3  0  0  0  0  0  0
  184.3340  178.6810  141.5600 C   0  0  0  0  0  0  0  0  0  0  0  0
  184.1310  177.7610  138.0560 C   0  0  0  0  0  0  0  0  0  0  0  0
  187.9200  178.6330  139.3050 O   0  0  0  0  0  0  0  0  0  0  0  0
  181.4870  178.7350  140.5710 N   0  0  0  0  0  0  0  0  0  0  0  0
  189.0020  178.5190  137.1560 C   0  0  0  0  0  1  0  0  0  0  0  0
  182.1430  177.4570  136.6770 N   0  0  1  0  0  0  0  0  0  0  0  0
  181.6290  174.1100  136.4120 O   0  0  0  0  0  1  0  0  0  0  0  0
  183.5870  177.1930  136.7620 C   0  0  2  0  0  3  0  0  0  0  0  0
  181.8450  178.6530  141.9570 C   0  0  0  0  0  3  0  0  0  0  0  0
  179.6360  180.3720  140.7090 C   0  0  0  0  0  3  0  0  0  0  0  0
  180.8140  179.9200  140.0900 C   0  0  0  0  0  0  0  0  0  0  0  0
  181.3380  180.6570  139.0140 C   0  0  0  0  0  3  0  0  0  0  0  0
  181.2100  182.5100  137.5220 F   0  0  0  0  0  0  0  0  0  0  0  0
  179.5210  182.2470  139.1830 C   0  0  0  0  0  3  0  0  0  0  0  0
  180.6950  181.8120  138.5620 C   0  0  0  0  0  0  0  0  0  0  0  0
  178.9930  181.5270  140.2560 C   0  0  0  0  0  3  0  0  0  0  0  0
  185.1550  173.5840  136.2770 C   0  0  0  0  0  1  0  0  0  0  0  0
  184.3930  173.9860  135.0290 C   0  0  0  0  0  2  0  0  0  0  0  0
  1 27  1  0  0  0  0
  2 14  1  0  0  0  0
  2 22  1  0  0  0  0
  3 20  1  0  0  0  0
  4  1  1  0  0  0  0
  6 11  2  0  0  0  0
  7 10  1  0  0  0  0
  7  3  1  0  0  0  0
  8 18  1  0  0  0  0
  8 26  1  1  0  0  0
  9  6  1  0  0  0  0
  9  3  2  0  0  0  0
 10  5  1  6  0  0  0
 10 23  1  0  0  0  0
 11 16  1  0  0  0  0
 12  4  1  0  0  0  0
 12  8  1  0  0  0  0
 13  9  1  0  0  0  0
 17  2  1  0  0  0  0
 17 13  1  0  0  0  0
 18 25  1  0  0  0  0
 18 19  1  0  0  0  0
 19  5  1  0  0  0  0
 20 16  2  0  0  0  0
 20 15  1  0  0  0  0
 21 13  1  0  0  0  0
 21  7  2  0  0  0  0
 22  6  1  0  0  0  0
 23 28  1  0  0  0  0
 24  2  1  0  0  0  0
 25 27  1  0  0  0  0
 25 19  1  0  0  0  0
 27 21  1  0  0  0  0
 28 15  2  0  0  0  0
 30 23  1  0  0  0  0
 30 29  2  0  0  0  0
 31 30  1  0  0  0  0
 32 34  1  0  0  0  0
 33 35  2  0  0  0  0
 34 31  2  0  0  0  0
 34 33  1  0  0  0  0
 35 29  1  0  0  0  0
 37  4  1  0  0  0  0
 37 36  1  0  0  0  0
M  END
>  <MODEL>
1

>  <REMARK>
 VINA RESULT:      -6.9      0.000      0.000
  Name = 
  2 active torsions:
  status: ('A' for Active; 'I' for Inactive)
    1  A    between atoms: N_4  and  C_37
    2  A    between atoms: N_23  and  C_30
                            x       y       z     vdW  Elec       q    Type
                         _______ _______ _______ _____ _____    ______ ____

>  <TORSDO>
F 2

$$$$
=
 OpenBabel11122411393D

 37 44  0  0  1  0  0  0  0  0999 V2000
  186.7960  177.8350  140.3470 C   0  0  0  0  0  2  0  0  0  0  0  0
  184.7520  179.2370  144.3470 C   0  0  0  0  0  0  0  0  0  0  0  0
  182.3660  178.2980  141.0690 C   0  0  0  0  0  0  0  0  0  0  0  0
  188.1860  178.2270  140.1180 N   0  0  0  0  0  0  0  0  0  0  0  0
  183.8640  178.0370  137.5620 O   0  0  0  0  0  0  0  0  0  0  0  0
  182.4950  178.7700  143.4310 C   0  0  0  0  0  0  0  0  0  0  0  0
  183.2680  178.3470  140.0150 C   0  0  0  0  0  0  0  0  0  0  0  0
  187.6240  177.7100  137.6880 C   0  0  2  0  0  3  0  0  0  0  0  0
  183.0360  178.7400  142.1700 C   0  0  0  0  0  0  0  0  0  0  0  0
  182.9530  177.7820  138.6240 C   0  0  1  0  0  3  0  0  0  0  0  0
  181.1660  178.3510  143.5880 C   0  0  0  0  0  3  0  0  0  0  0  0
  188.4900  178.4780  138.7000 C   0  0  0  0  0  2  0  0  0  0  0  0
  184.3010  179.0520  141.9090 N   0  0  0  0  0  0  0  0  0  0  0  0
  185.3300  177.8780  144.6950 C   0  0  0  0  0  1  0  0  0  0  0  0
  180.2500  177.2860  140.0550 C   0  0  0  0  0  3  0  0  0  0  0  0
  180.4470  177.8790  142.4600 C   0  0  0  0  0  3  0  0  0  0  0  0
  185.2060  179.6170  142.9110 C   0  0  0  0  0  2  0  0  0  0  0  0
  186.2670  178.3550  137.3460 C   0  0  1  0  0  3  0  0  0  0  0  0
  185.1350  177.7890  138.0600 C   0  0  1  0  0  3  0  0  0  0  0  0
  181.0410  177.8370  141.1770 C   0  0  0  0  0  0  0  0  0  0  0  0
  184.4860  178.8130  140.5920 C   0  0  0  0  0  0  0  0  0  0  0  0
  183.3140  179.1880  144.4860 O   0  0  0  0  0  0  0  0  0  0  0  0
  181.6010  178.1890  138.2360 N   0  0  0  0  0  0  0  0  0  0  0  0
  185.3060  180.2560  145.3200 C   0  0  0  0  0  1  0  0  0  0  0  0
  185.6410  179.1150  138.4650 N   0  0  1  0  0  0  0  0  0  0  0  0
  187.5360  176.3420  137.9690 O   0  0  0  0  0  1  0  0  0  0  0  0
  185.8340  178.9460  139.9130 C   0  0  2  0  0  3  0  0  0  0  0  0
  180.4930  177.4390  138.7490 C   0  0  0  0  0  3  0  0  0  0  0  0
  180.9600  179.3510  136.1470 C   0  0  0  0  0  3  0  0  0  0  0  0
  181.3440  179.4050  137.4980 C   0  0  0  0  0  0  0  0  0  0  0  0
  181.4460  180.6600  138.1220 C   0  0  0  0  0  3  0  0  0  0  0  0
  181.2860  183.0350  138.0240 F   0  0  0  0  0  0  0  0  0  0  0  0
  180.8050  181.7650  136.0660 C   0  0  0  0  0  3  0  0  0  0  0  0
  181.1810  181.8330  137.4100 C   0  0  0  0  0  0  0  0  0  0  0  0
  180.6940  180.5240  135.4350 C   0  0  0  0  0  3  0  0  0  0  0  0
  190.4540  177.3500  140.0870 C   0  0  0  0  0  1  0  0  0  0  0  0
  189.0300  177.1280  140.5600 C   0  0  0  0  0  2  0  0  0  0  0  0
  2 22  1  0  0  0  0
  2 14  1  0  0  0  0
  2 24  1  0  0  0  0
  3 20  2  0  0  0  0
  3  9  1  0  0  0  0
  4  1  1  0  0  0  0
  4 37  1  0  0  0  0
  5 19  1  0  0  0  0
  6 11  1  0  0  0  0
  6 22  1  0  0  0  0
  7 21  2  0  0  0  0
  7  3  1  0  0  0  0
  8 26  1  1  0  0  0
  8 12  1  0  0  0  0
  9  6  2  0  0  0  0
 10  5  1  6  0  0  0
 10  7  1  0  0  0  0
 12  4  1  0  0  0  0
 13  9  1  0  0  0  0
 13 17  1  0  0  0  0
 15 20  1  0  0  0  0
 16 11  2  0  0  0  0
 17  2  1  0  0  0  0
 18  8  1  0  0  0  0
 18 19  1  0  0  0  0
 18 25  1  0  0  0  0
 19 25  1  0  0  0  0
 20 16  1  0  0  0  0
 21 13  1  0  0  0  0
 23 10  1  0  0  0  0
 23 28  1  0  0  0  0
 25 27  1  0  0  0  0
 27  1  1  0  0  0  0
 27 21  1  0  0  0  0
 28 15  2  0  0  0  0
 29 30  1  0  0  0  0
 30 31  2  0  0  0  0
 30 23  1  0  0  0  0
 33 34  2  0  0  0  0
 34 32  1  0  0  0  0
 34 31  1  0  0  0  0
 35 33  1  0  0  0  0
 35 29  2  0  0  0  0
 36 37  1  0  0  0  0
M  END
>  <MODEL>
2

>  <REMARK>
 VINA RESULT:      -6.5      2.465      5.112
  Name = 
  2 active torsions:
  status: ('A' for Active; 'I' for Inactive)
    1  A    between atoms: N_4  and  C_37
    2  A    between atoms: N_23  and  C_30
                            x       y       z     vdW  Elec       q    Type
                         _______ _______ _______ _____ _____    ______ ____

>  <TORSDO>
F 2

$$$$
=
 OpenBabel11122411393D

 37 44  0  0  1  0  0  0  0  0999 V2000
  187.6520  175.6130  136.0800 C   0  0  0  0  0  2  0  0  0  0  0  0
  184.0400  172.5980  136.0670 C   0  0  0  0  0  0  0  0  0  0  0  0
  183.4810  176.4280  137.5960 C   0  0  0  0  0  0  0  0  0  0  0  0
  189.0040  175.0580  136.0480 N   0  0  0  0  0  0  0  0  0  0  0  0
  186.4680  178.6340  138.5020 O   0  0  0  0  0  0  0  0  0  0  0  0
  182.4830  174.3620  136.8530 C   0  0  0  0  0  0  0  0  0  0  0  0
  184.7810  176.8550  137.8240 C   0  0  0  0  0  0  0  0  0  0  0  0
  189.6550  177.3570  136.9290 C   0  0  2  0  0  3  0  0  0  0  0  0
  183.5640  175.1190  137.2300 C   0  0  0  0  0  0  0  0  0  0  0  0
  185.1390  178.3200  138.1040 C   0  0  1  0  0  3  0  0  0  0  0  0
  181.2170  174.9650  136.8760 C   0  0  0  0  0  3  0  0  0  0  0  0
  189.9770  175.8590  136.8090 C   0  0  0  0  0  2  0  0  0  0  0  0
  184.8160  174.6770  137.1880 N   0  0  0  0  0  0  0  0  0  0  0  0
  184.2670  172.8940  134.5960 C   0  0  0  0  0  1  0  0  0  0  0  0
  182.0520  178.5200  137.9310 C   0  0  0  0  0  3  0  0  0  0  0  0
  181.1020  176.3290  137.2450 C   0  0  0  0  0  3  0  0  0  0  0  0
  185.1620  173.2850  136.8920 C   0  0  0  0  0  2  0  0  0  0  0  0
  188.6890  177.7420  138.0680 C   0  0  1  0  0  3  0  0  0  0  0  0
  187.3130  177.9410  137.6470 C   0  0  1  0  0  3  0  0  0  0  0  0
  182.2390  177.0900  137.6060 C   0  0  0  0  0  0  0  0  0  0  0  0
  185.5990  175.7220  137.5380 C   0  0  0  0  0  0  0  0  0  0  0  0
  182.7170  173.0460  136.4390 O   0  0  0  0  0  0  0  0  0  0  0  0
  184.1830  178.8720  139.0660 N   0  0  0  0  0  0  0  0  0  0  0  0
  184.1290  171.1010  136.2740 C   0  0  0  0  0  1  0  0  0  0  0  0
  187.6610  176.7110  138.3850 N   0  0  1  0  0  0  0  0  0  0  0  0
  189.3350  177.9500  135.7030 O   0  0  0  0  0  1  0  0  0  0  0  0
  187.1120  175.6610  137.5140 C   0  0  2  0  0  3  0  0  0  0  0  0
  182.9100  179.3150  138.5800 C   0  0  0  0  0  3  0  0  0  0  0  0
  185.7100  178.9860  141.0100 C   0  0  0  0  0  3  0  0  0  0  0  0
  184.4130  178.8290  140.4920 C   0  0  0  0  0  0  0  0  0  0  0  0
  183.3440  178.6600  141.3890 C   0  0  0  0  0  3  0  0  0  0  0  0
  182.5280  178.4680  143.6190 F   0  0  0  0  0  0  0  0  0  0  0  0
  184.8630  178.7870  143.2680 C   0  0  0  0  0  3  0  0  0  0  0  0
  183.5680  178.6360  142.7680 C   0  0  0  0  0  0  0  0  0  0  0  0
  185.9340  178.9620  142.3890 C   0  0  0  0  0  3  0  0  0  0  0  0
  190.9490  174.9100  134.5950 C   0  0  0  0  0  1  0  0  0  0  0  0
  189.4390  175.0400  134.6610 C   0  0  0  0  0  2  0  0  0  0  0  0
  1 27  1  0  0  0  0
  2 24  1  0  0  0  0
  2 22  1  0  0  0  0
  2 17  1  0  0  0  0
  3 20  1  0  0  0  0
  3  7  1  0  0  0  0
  4  1  1  0  0  0  0
  4 12  1  0  0  0  0
  6 11  2  0  0  0  0
  6  9  1  0  0  0  0
  8 26  1  6  0  0  0
  8 18  1  0  0  0  0
  9  3  2  0  0  0  0
 10  7  1  1  0  0  0
 10  5  1  0  0  0  0
 10 23  1  0  0  0  0
 11 16  1  0  0  0  0
 12  8  1  0  0  0  0
 13  9  1  0  0  0  0
 13 21  1  0  0  0  0
 14  2  1  0  0  0  0
 15 28  2  0  0  0  0
 16 20  2  0  0  0  0
 17 13  1  0  0  0  0
 18 25  1  0  0  0  0
 19 18  1  0  0  0  0
 19 25  1  0  0  0  0
 19  5  1  0  0  0  0
 20 15  1  0  0  0  0
 21  7  2  0  0  0  0
 22  6  1  0  0  0  0
 23 30  1  0  0  0  0
 27 21  1  0  0  0  0
 27 25  1  0  0  0  0
 28 23  1  0  0  0  0
 29 35  1  0  0  0  0
 30 29  2  0  0  0  0
 30 31  1  0  0  0  0
 31 34  2  0  0  0  0
 34 33  1  0  0  0  0
 34 32  1  0  0  0  0
 35 33  2  0  0  0  0
 36 37  1  0  0  0  0
 37  4  1  0  0  0  0
M  END
>  <MODEL>
3

>  <REMARK>
 VINA RESULT:      -6.5      2.522      5.991
  Name = 
  2 active torsions:
  status: ('A' for Active; 'I' for Inactive)
    1  A    between atoms: N_4  and  C_37
    2  A    between atoms: N_23  and  C_30
                            x       y       z     vdW  Elec       q    Type
                         _______ _______ _______ _____ _____    ______ ____

>  <TORSDO>
F 2

$$$$
=
 OpenBabel11122411393D

 37 44  0  0  1  0  0  0  0  0999 V2000
  186.6450  178.5940  144.1030 C   0  0  0  0  0  2  0  0  0  0  0  0
  190.8660  176.5420  143.7610 C   0  0  0  0  0  0  0  0  0  0  0  0
  188.9270  177.7860  140.2960 C   0  0  0  0  0  0  0  0  0  0  0  0
  185.8470  178.3170  145.2960 N   0  0  0  0  0  0  0  0  0  0  0  0
  185.1950  178.6110  140.3230 O   0  0  0  0  0  0  0  0  0  0  0  0
  190.9620  177.0020  141.3250 C   0  0  0  0  0  0  0  0  0  0  0  0
  187.6140  177.9330  140.7200 C   0  0  0  0  0  0  0  0  0  0  0  0
  183.9220  179.1310  143.8400 C   0  0  2  0  0  3  0  0  0  0  0  0
  189.6090  177.2360  141.3380 C   0  0  0  0  0  0  0  0  0  0  0  0
  186.5500  178.6660  139.8930 C   0  0  1  0  0  3  0  0  0  0  0  0
  191.6750  177.3190  140.1600 C   0  0  0  0  0  3  0  0  0  0  0  0
  184.4000  178.2810  145.0280 C   0  0  0  0  0  2  0  0  0  0  0  0
  188.8420  177.0350  142.4040 N   0  0  0  0  0  0  0  0  0  0  0  0
  191.1650  177.8710  144.4300 C   0  0  0  0  0  1  0  0  0  0  0  0
  188.9610  178.8070  137.9530 C   0  0  0  0  0  3  0  0  0  0  0  0
  190.9910  177.9010  139.0630 C   0  0  0  0  0  3  0  0  0  0  0  0
  189.3260  176.3890  143.6250 C   0  0  0  0  0  2  0  0  0  0  0  0
  184.0330  178.4620  142.4550 C   0  0  1  0  0  3  0  0  0  0  0  0
  185.2010  178.8600  141.6880 C   0  0  1  0  0  3  0  0  0  0  0  0
  189.6000  178.1520  139.1150 C   0  0  0  0  0  0  0  0  0  0  0  0
  187.6050  177.4620  142.0660 C   0  0  0  0  0  0  0  0  0  0  0  0
  191.5490  176.4900  142.4890 O   0  0  0  0  0  0  0  0  0  0  0  0
  186.6510  178.2400  138.4950 N   0  0  0  0  0  0  0  0  0  0  0  0
  191.3900  175.4320  144.6460 C   0  0  0  0  0  1  0  0  0  0  0  0
  185.1790  177.5210  142.3100 N   0  0  1  0  0  0  0  0  0  0  0  0
  184.4150  180.4400  143.8690 O   0  0  0  0  0  1  0  0  0  0  0  0
  186.4520  177.5010  143.0470 C   0  0  2  0  0  3  0  0  0  0  0  0
  187.6540  178.8480  137.6720 C   0  0  0  0  0  3  0  0  0  0  0  0
  184.5000  177.2140  137.8310 C   0  0  0  0  0  3  0  0  0  0  0  0
  185.8950  177.1250  137.9730 C   0  0  0  0  0  0  0  0  0  0  0  0
  186.5410  175.9430  137.5710 C   0  0  0  0  0  3  0  0  0  0  0  0
  186.4450  173.7400  136.6700 F   0  0  0  0  0  0  0  0  0  0  0  0
  184.4220  174.9730  136.9200 C   0  0  0  0  0  3  0  0  0  0  0  0
  185.8090  174.8730  137.0500 C   0  0  0  0  0  0  0  0  0  0  0  0
  183.7670  176.1430  137.3100 C   0  0  0  0  0  3  0  0  0  0  0  0
  186.6300  178.8170  147.5440 C   0  0  0  0  0  1  0  0  0  0  0  0
  186.0910  179.3900  146.2470 C   0  0  0  0  0  2  0  0  0  0  0  0
  1  4  1  0  0  0  0
  2 14  1  0  0  0  0
  2 24  1  0  0  0  0
  3  7  1  0  0  0  0
  3  9  1  0  0  0  0
  4 37  1  0  0  0  0
  5 19  1  0  0  0  0
  6  9  2  0  0  0  0
  6 22  1  0  0  0  0
  7 21  2  0  0  0  0
  8 26  1  6  0  0  0
  8 12  1  0  0  0  0
  9 13  1  0  0  0  0
 10  5  1  1  0  0  0
 10  7  1  0  0  0  0
 11  6  1  0  0  0  0
 12  4  1  0  0  0  0
 13 17  1  0  0  0  0
 15 20  1  0  0  0  0
 16 20  1  0  0  0  0
 16 11  2  0  0  0  0
 17  2  1  0  0  0  0
 18  8  1  0  0  0  0
 19 25  1  0  0  0  0
 19 18  1  0  0  0  0
 20  3  2  0  0  0  0
 21 13  1  0  0  0  0
 21 27  1  0  0  0  0
 22  2  1  0  0  0  0
 23 10  1  0  0  0  0
 25 18  1  0  0  0  0
 25 27  1  0  0  0  0
 27  1  1  0  0  0  0
 28 15  2  0  0  0  0
 28 23  1  0  0  0  0
 29 30  1  0  0  0  0
 30 23  1  0  0  0  0
 31 30  2  0  0  0  0
 32 34  1  0  0  0  0
 33 34  2  0  0  0  0
 33 35  1  0  0  0  0
 34 31  1  0  0  0  0
 35 29  2  0  0  0  0
 37 36  1  0  0  0  0
M  END
>  <MODEL>
4

>  <REMARK>
 VINA RESULT:      -6.2      3.805      7.551
  Name = 
  2 active torsions:
  status: ('A' for Active; 'I' for Inactive)
    1  A    between atoms: N_4  and  C_37
    2  A    between atoms: N_23  and  C_30
                            x       y       z     vdW  Elec       q    Type
                         _______ _______ _______ _____ _____    ______ ____

>  <TORSDO>
F 2

$$$$
=
 OpenBabel11122411393D

 37 44  0  0  1  0  0  0  0  0999 V2000
  186.5890  178.5920  144.1100 C   0  0  0  0  0  2  0  0  0  0  0  0
  190.7920  176.5110  143.7350 C   0  0  0  0  0  0  0  0  0  0  0  0
  188.8380  177.7750  140.2850 C   0  0  0  0  0  0  0  0  0  0  0  0
  185.7970  178.3190  145.3080 N   0  0  0  0  0  0  0  0  0  0  0  0
  185.1130  178.6270  140.3410 O   0  0  0  0  0  0  0  0  0  0  0  0
  190.8750  176.9750  141.3000 C   0  0  0  0  0  0  0  0  0  0  0  0
  187.5300  177.9310  140.7190 C   0  0  0  0  0  0  0  0  0  0  0  0
  183.8670  179.1490  143.8670 C   0  0  2  0  0  3  0  0  0  0  0  0
  189.5240  177.2190  141.3220 C   0  0  0  0  0  0  0  0  0  0  0  0
  186.4650  178.6730  139.9010 C   0  0  1  0  0  3  0  0  0  0  0  0
  191.5820  177.2900  140.1300 C   0  0  0  0  0  3  0  0  0  0  0  0
  184.3480  178.2930  145.0510 C   0  0  0  0  0  2  0  0  0  0  0  0
  188.7630  177.0210  142.3930 N   0  0  0  0  0  0  0  0  0  0  0  0
  191.1060  177.8370  144.4040 C   0  0  0  0  0  1  0  0  0  0  0  0
  188.8630  178.8000  137.9440 C   0  0  0  0  0  3  0  0  0  0  0  0
  190.8950  177.8780  139.0380 C   0  0  0  0  0  3  0  0  0  0  0  0
  189.2510  176.3690  143.6090 C   0  0  0  0  0  2  0  0  0  0  0  0
  183.9640  178.4820  142.4810 C   0  0  1  0  0  3  0  0  0  0  0  0
  185.1300  178.8730  141.7060 C   0  0  1  0  0  3  0  0  0  0  0  0
  189.5060  178.1390  139.1000 C   0  0  0  0  0  0  0  0  0  0  0  0
  187.5270  177.4580  142.0650 C   0  0  0  0  0  0  0  0  0  0  0  0
  191.4660  176.4570  142.4580 O   0  0  0  0  0  0  0  0  0  0  0  0
  186.5530  178.2490  138.5020 N   0  0  0  0  0  0  0  0  0  0  0  0
  191.3150  175.3960  144.6150 C   0  0  0  0  0  1  0  0  0  0  0  0
  185.1030  177.5330  142.3250 N   0  0  1  0  0  0  0  0  0  0  0  0
  184.3700  180.4540  143.8950 O   0  0  0  0  0  1  0  0  0  0  0  0
  186.3810  177.5020  143.0530 C   0  0  2  0  0  3  0  0  0  0  0  0
  187.5550  178.8510  137.6720 C   0  0  0  0  0  3  0  0  0  0  0  0
  186.4340  175.9930  137.4920 C   0  0  0  0  0  3  0  0  0  0  0  0
  185.7860  177.1400  137.9830 C   0  0  0  0  0  0  0  0  0  0  0  0
  184.3810  177.1740  137.9840 C   0  0  0  0  0  3  0  0  0  0  0  0
  182.2890  176.1410  137.5010 F   0  0  0  0  0  0  0  0  0  0  0  0
  184.2990  174.9620  137.0060 C   0  0  0  0  0  3  0  0  0  0  0  0
  183.6420  176.0920  137.4970 C   0  0  0  0  0  0  0  0  0  0  0  0
  185.6950  174.9120  137.0040 C   0  0  0  0  0  3  0  0  0  0  0  0
  186.6470  178.8140  147.5330 C   0  0  0  0  0  1  0  0  0  0  0  0
  186.0550  179.3880  146.2590 C   0  0  0  0  0  2  0  0  0  0  0  0
  1  4  1  0  0  0  0
  2 14  1  0  0  0  0
  2 24  1  0  0  0  0
  3  7  1  0  0  0  0
  3  9  1  0  0  0  0
  4 37  1  0  0  0  0
  5 19  1  0  0  0  0
  6  9  2  0  0  0  0
  6 22  1  0  0  0  0
  7 21  2  0  0  0  0
  8 26  1  6  0  0  0
  8 12  1  0  0  0  0
  9 13  1  0  0  0  0
 10  5  1  1  0  0  0
 10  7  1  0  0  0  0
 11  6  1  0  0  0  0
 12  4  1  0  0  0  0
 13 17  1  0  0  0  0
 15 20  1  0  0  0  0
 16 20  1  0  0  0  0
 16 11  2  0  0  0  0
 17  2  1  0  0  0  0
 18  8  1  0  0  0  0
 19 25  1  0  0  0  0
 19 18  1  0  0  0  0
 20  3  2  0  0  0  0
 21 13  1  0  0  0  0
 21 27  1  0  0  0  0
 22  2  1  0  0  0  0
 23 10  1  0  0  0  0
 25 18  1  0  0  0  0
 25 27  1  0  0  0  0
 27  1  1  0  0  0  0
 28 15  2  0  0  0  0
 28 23  1  0  0  0  0
 29 30  1  0  0  0  0
 30 31  2  0  0  0  0
 30 23  1  0  0  0  0
 33 34  2  0  0  0  0
 34 32  1  0  0  0  0
 34 31  1  0  0  0  0
 35 33  1  0  0  0  0
 35 29  2  0  0  0  0
 37 36  1  0  0  0  0
M  END
>  <MODEL>
5

>  <REMARK>
 VINA RESULT:      -6.2      3.553      7.424
  Name = 
  2 active torsions:
  status: ('A' for Active; 'I' for Inactive)
    1  A    between atoms: N_4  and  C_37
    2  A    between atoms: N_23  and  C_30
                            x       y       z     vdW  Elec       q    Type
                         _______ _______ _______ _____ _____    ______ ____

>  <TORSDO>
F 2

$$$$
=
 OpenBabel11122411393D

 37 44  0  0  1  0  0  0  0  0999 V2000
  186.8550  176.3990  137.8430 C   0  0  0  0  0  2  0  0  0  0  0  0
  188.0660  178.2690  141.9880 C   0  0  0  0  0  0  0  0  0  0  0  0
  184.0840  178.4000  140.7880 C   0  0  0  0  0  0  0  0  0  0  0  0
  187.8940  176.2710  136.8230 N   0  0  0  0  0  0  0  0  0  0  0  0
  183.1100  177.7680  137.1470 O   0  0  0  0  0  0  0  0  0  0  0  0
  185.6900  178.6900  142.5630 C   0  0  0  0  0  0  0  0  0  0  0  0
  184.1710  178.1660  139.4240 C   0  0  0  0  0  0  0  0  0  0  0  0
  185.9080  176.0990  135.2380 C   0  0  2  0  0  3  0  0  0  0  0  0
  185.3620  178.5210  141.2410 C   0  0  0  0  0  0  0  0  0  0  0  0
  182.9530  177.8140  138.5600 C   0  0  1  0  0  3  0  0  0  0  0  0
  184.6460  178.7730  143.4960 C   0  0  0  0  0  3  0  0  0  0  0  0
  187.3870  176.4580  135.4540 C   0  0  0  0  0  2  0  0  0  0  0  0
  186.2640  178.3660  140.2780 N   0  0  0  0  0  0  0  0  0  0  0  0
  188.2670  176.7790  142.1930 C   0  0  0  0  0  1  0  0  0  0  0  0
  181.5840  178.2660  141.3020 C   0  0  0  0  0  3  0  0  0  0  0  0
  183.3050  178.6420  143.0530 C   0  0  0  0  0  3  0  0  0  0  0  0
  187.7020  178.5220  140.5000 C   0  0  0  0  0  2  0  0  0  0  0  0
  184.8950  177.2060  135.5930 C   0  0  1  0  0  3  0  0  0  0  0  0
  184.2740  177.0560  136.8980 C   0  0  1  0  0  3  0  0  0  0  0  0
  183.0000  178.4440  141.6860 C   0  0  0  0  0  0  0  0  0  0  0  0
  185.5690  178.1340  139.1420 C   0  0  0  0  0  0  0  0  0  0  0  0
  187.0480  178.7360  142.9010 O   0  0  0  0  0  0  0  0  0  0  0  0
  181.8410  178.6980  138.9150 N   0  0  0  0  0  0  0  0  0  0  0  0
  189.3680  178.9750  142.3000 C   0  0  0  0  0  1  0  0  0  0  0  0
  185.3110  178.0910  136.7180 N   0  0  1  0  0  0  0  0  0  0  0  0
  185.5670  174.8440  135.7550 O   0  0  0  0  0  1  0  0  0  0  0  0
  186.2350  177.8000  137.8240 C   0  0  2  0  0  3  0  0  0  0  0  0
  181.0630  178.3780  140.0750 C   0  0  0  0  0  3  0  0  0  0  0  0
  180.7120  180.0320  137.1630 C   0  0  0  0  0  3  0  0  0  0  0  0
  181.6110  179.9550  138.2400 C   0  0  0  0  0  0  0  0  0  0  0  0
  182.2590  181.1280  138.6650 C   0  0  0  0  0  3  0  0  0  0  0  0
  182.6560  183.4670  138.4390 F   0  0  0  0  0  0  0  0  0  0  0  0
  181.1290  182.4060  136.9480 C   0  0  0  0  0  3  0  0  0  0  0  0
  182.0210  182.3460  138.0210 C   0  0  0  0  0  0  0  0  0  0  0  0
  180.4740  181.2500  136.5190 C   0  0  0  0  0  3  0  0  0  0  0  0
  189.9090  174.9820  137.2650 C   0  0  0  0  0  1  0  0  0  0  0  0
  188.4340  174.9240  136.9120 C   0  0  0  0  0  2  0  0  0  0  0  0
  2 14  1  0  0  0  0
  2 24  1  0  0  0  0
  2 22  1  0  0  0  0
  3  9  2  0  0  0  0
  3 20  1  0  0  0  0
  4 37  1  0  0  0  0
  4  1  1  0  0  0  0
  6 22  1  0  0  0  0
  6 11  2  0  0  0  0
  7  3  1  0  0  0  0
  8 12  1  0  0  0  0
  8 18  1  0  0  0  0
  8 26  1  1  0  0  0
  9  6  1  0  0  0  0
 10  5  1  6  0  0  0
 10 23  1  0  0  0  0
 10  7  1  0  0  0  0
 12  4  1  0  0  0  0
 13 17  1  0  0  0  0
 13  9  1  0  0  0  0
 15 20  1  0  0  0  0
 16 11  1  0  0  0  0
 17  2  1  0  0  0  0
 18 25  1  0  0  0  0
 18 19  1  0  0  0  0
 19  5  1  0  0  0  0
 20 16  2  0  0  0  0
 21  7  2  0  0  0  0
 21 13  1  0  0  0  0
 23 28  1  0  0  0  0
 25 19  1  0  0  0  0
 25 27  1  0  0  0  0
 27  1  1  0  0  0  0
 27 21  1  0  0  0  0
 28 15  2  0  0  0  0
 29 30  1  0  0  0  0
 30 31  2  0  0  0  0
 30 23  1  0  0  0  0
 33 34  2  0  0  0  0
 34 32  1  0  0  0  0
 34 31  1  0  0  0  0
 35 33  1  0  0  0  0
 35 29  2  0  0  0  0
 37 36  1  0  0  0  0
M  END
>  <MODEL>
6

>  <REMARK>
 VINA RESULT:      -6.0      2.172      3.159
  Name = 
  2 active torsions:
  status: ('A' for Active; 'I' for Inactive)
    1  A    between atoms: N_4  and  C_37
    2  A    between atoms: N_23  and  C_30
                            x       y       z     vdW  Elec       q    Type
                         _______ _______ _______ _____ _____    ______ ____

>  <TORSDO>
F 2

$$$$
=
 OpenBabel11122411393D

 37 44  0  0  1  0  0  0  0  0999 V2000
  181.6480  179.2790  140.5650 C   0  0  0  0  0  2  0  0  0  0  0  0
  185.2210  178.7710  143.5840 C   0  0  0  0  0  0  0  0  0  0  0  0
  185.8930  178.1580  139.5240 C   0  0  0  0  0  0  0  0  0  0  0  0
  180.2890  179.1300  141.0850 N   0  0  0  0  0  0  0  0  0  0  0  0
  182.9750  177.6420  137.1080 O   0  0  0  0  0  0  0  0  0  0  0  0
  186.8320  178.4630  141.7240 C   0  0  0  0  0  0  0  0  0  0  0  0
  184.6090  177.9760  139.0290 C   0  0  0  0  0  0  0  0  0  0  0  0
  179.7060  178.7570  138.6330 C   0  0  2  0  0  3  0  0  0  0  0  0
  185.7780  178.2190  140.8790 C   0  0  0  0  0  0  0  0  0  0  0  0
  184.2820  178.0150  137.5300 C   0  0  1  0  0  3  0  0  0  0  0  0
  188.1050  178.6280  141.1580 C   0  0  0  0  0  3  0  0  0  0  0  0
  179.3610  178.5270  140.1140 C   0  0  0  0  0  2  0  0  0  0  0  0
  184.5200  178.1090  141.2930 N   0  0  0  0  0  0  0  0  0  0  0  0
  184.9310  180.2600  143.6180 C   0  0  0  0  0  1  0  0  0  0  0  0
  187.3590  178.3560  137.4410 C   0  0  0  0  0  3  0  0  0  0  0  0
  188.2520  178.5770  139.7490 C   0  0  0  0  0  3  0  0  0  0  0  0
  184.1450  178.0740  142.7070 C   0  0  0  0  0  2  0  0  0  0  0  0
  180.7270  177.7730  138.0270 C   0  0  1  0  0  3  0  0  0  0  0  0
  182.0850  178.2850  137.9550 C   0  0  1  0  0  3  0  0  0  0  0  0
  187.1420  178.3470  138.9030 C   0  0  0  0  0  0  0  0  0  0  0  0
  183.7660  177.9690  140.1800 C   0  0  0  0  0  0  0  0  0  0  0  0
  186.5650  178.5640  143.0940 O   0  0  0  0  0  0  0  0  0  0  0  0
  185.2870  177.2400  136.8000 N   0  0  0  0  0  0  0  0  0  0  0  0
  185.1240  178.2330  144.9960 C   0  0  0  0  0  1  0  0  0  0  0  0
  181.7570  177.2780  138.9830 N   0  0  1  0  0  0  0  0  0  0  0  0
  179.9770  180.0970  138.3350 O   0  0  0  0  0  1  0  0  0  0  0  0
  182.2530  177.9160  140.2120 C   0  0  2  0  0  3  0  0  0  0  0  0
  186.5420  177.8660  136.5030 C   0  0  0  0  0  3  0  0  0  0  0  0
  184.9930  175.3790  135.1960 C   0  0  0  0  0  3  0  0  0  0  0  0
  185.1210  175.8330  136.5200 C   0  0  0  0  0  0  0  0  0  0  0  0
  185.1140  174.8880  137.5610 C   0  0  0  0  0  3  0  0  0  0  0  0
  184.9620  172.6280  138.2990 F   0  0  0  0  0  0  0  0  0  0  0  0
  184.8380  173.0900  135.9640 C   0  0  0  0  0  3  0  0  0  0  0  0
  184.9710  173.5260  137.2850 C   0  0  0  0  0  0  0  0  0  0  0  0
  184.8500  174.0170  134.9200 C   0  0  0  0  0  3  0  0  0  0  0  0
  179.3150  180.5030  142.8400 C   0  0  0  0  0  1  0  0  0  0  0  0
  179.7920  180.4600  141.4010 C   0  0  0  0  0  2  0  0  0  0  0  0
  1  4  1  0  0  0  0
  2 14  1  0  0  0  0
  2 24  1  0  0  0  0
  3  9  1  0  0  0  0
  4 37  1  0  0  0  0
  5 19  1  0  0  0  0
  6 22  1  0  0  0  0
  7  3  1  0  0  0  0
  7 21  2  0  0  0  0
  8 26  1  1  0  0  0
  8 12  1  0  0  0  0
  9 13  1  0  0  0  0
  9  6  2  0  0  0  0
 10  5  1  1  0  0  0
 10  7  1  0  0  0  0
 11  6  1  0  0  0  0
 12  4  1  0  0  0  0
 13 17  1  0  0  0  0
 15 20  1  0  0  0  0
 16 11  2  0  0  0  0
 17  2  1  0  0  0  0
 18  8  1  0  0  0  0
 18 25  1  0  0  0  0
 19 18  1  0  0  0  0
 19 25  1  0  0  0  0
 20  3  2  0  0  0  0
 20 16  1  0  0  0  0
 21 27  1  0  0  0  0
 21 13  1  0  0  0  0
 22  2  1  0  0  0  0
 23 10  1  0  0  0  0
 25 27  1  0  0  0  0
 27  1  1  0  0  0  0
 28 23  1  0  0  0  0
 28 15  2  0  0  0  0
 29 30  1  0  0  0  0
 30 23  1  0  0  0  0
 30 31  2  0  0  0  0
 33 34  2  0  0  0  0
 34 31  1  0  0  0  0
 34 32  1  0  0  0  0
 35 29  2  0  0  0  0
 35 33  1  0  0  0  0
 37 36  1  0  0  0  0
M  END
>  <MODEL>
7

>  <REMARK>
 VINA RESULT:      -5.8      2.578      6.391
  Name = 
  2 active torsions:
  status: ('A' for Active; 'I' for Inactive)
    1  A    between atoms: N_4  and  C_37
    2  A    between atoms: N_23  and  C_30
                            x       y       z     vdW  Elec       q    Type
                         _______ _______ _______ _____ _____    ______ ____

>  <TORSDO>
F 2

$$$$
=
 OpenBabel11122411393D

 37 44  0  0  1  0  0  0  0  0999 V2000
  191.4870  174.2650  136.2880 C   0  0  0  0  0  2  0  0  0  0  0  0
  187.6360  171.5720  136.0430 C   0  0  0  0  0  0  0  0  0  0  0  0
  187.2620  175.5440  137.2240 C   0  0  0  0  0  0  0  0  0  0  0  0
  192.7760  173.5970  136.4600 N   0  0  0  0  0  0  0  0  0  0  0  0
  190.3160  177.5570  138.3330 O   0  0  0  0  0  0  0  0  0  0  0  0
  186.1690  173.5170  136.5090 C   0  0  0  0  0  0  0  0  0  0  0  0
  188.5610  175.8780  137.5790 C   0  0  0  0  0  0  0  0  0  0  0  0
  193.5310  175.8970  137.2530 C   0  0  2  0  0  3  0  0  0  0  0  0
  187.2650  174.2080  136.9620 C   0  0  0  0  0  0  0  0  0  0  0  0
  189.0180  177.3260  137.7980 C   0  0  1  0  0  3  0  0  0  0  0  0
  184.9700  174.2240  136.3350 C   0  0  0  0  0  3  0  0  0  0  0  0
  193.7250  174.3720  137.2770 C   0  0  0  0  0  2  0  0  0  0  0  0
  188.4670  173.6610  137.1040 N   0  0  0  0  0  0  0  0  0  0  0  0
  188.0580  171.7290  134.5940 C   0  0  0  0  0  1  0  0  0  0  0  0
  186.0040  177.7690  137.2370 C   0  0  0  0  0  3  0  0  0  0  0  0
  184.9400  175.6180  136.5930 C   0  0  0  0  0  3  0  0  0  0  0  0
  188.7140  172.2260  136.9490 C   0  0  0  0  0  2  0  0  0  0  0  0
  192.4800  176.4510  138.2360 C   0  0  1  0  0  3  0  0  0  0  0  0
  191.1860  176.7310  137.6380 C   0  0  1  0  0  3  0  0  0  0  0  0
  186.0940  176.3070  137.0360 C   0  0  0  0  0  0  0  0  0  0  0  0
  189.2980  174.6610  137.4730 C   0  0  0  0  0  0  0  0  0  0  0  0
  186.3260  172.1570  136.2180 O   0  0  0  0  0  0  0  0  0  0  0  0
  188.0130  178.0310  138.5960 N   0  0  0  0  0  0  0  0  0  0  0  0
  187.5610  170.0940  136.3620 C   0  0  0  0  0  1  0  0  0  0  0  0
  191.3310  175.5380  138.4960 N   0  0  1  0  0  0  0  0  0  0  0  0
  193.4110  176.4150  135.9590 O   0  0  0  0  0  1  0  0  0  0  0  0
  190.7910  174.4720  137.6380 C   0  0  2  0  0  3  0  0  0  0  0  0
  186.8510  178.5390  137.9280 C   0  0  0  0  0  3  0  0  0  0  0  0
  186.9510  178.4880  140.7840 C   0  0  0  0  0  3  0  0  0  0  0  0
  188.0720  178.0830  140.0390 C   0  0  0  0  0  0  0  0  0  0  0  0
  189.2380  177.7040  140.7260 C   0  0  0  0  0  3  0  0  0  0  0  0
  190.4180  177.3740  142.7690 F   0  0  0  0  0  0  0  0  0  0  0  0
  188.1660  178.1490  142.8490 C   0  0  0  0  0  3  0  0  0  0  0  0
  189.2850  177.7390  142.1220 C   0  0  0  0  0  0  0  0  0  0  0  0
  186.9980  178.5230  142.1800 C   0  0  0  0  0  3  0  0  0  0  0  0
  194.7970  172.9520  135.2710 C   0  0  0  0  0  1  0  0  0  0  0  0
  193.3640  173.4330  135.1400 C   0  0  0  0  0  2  0  0  0  0  0  0
  1  4  1  0  0  0  0
  1 27  1  0  0  0  0
  2 22  1  0  0  0  0
  2 24  1  0  0  0  0
  2 17  1  0  0  0  0
  3  7  1  0  0  0  0
  4 12  1  0  0  0  0
  6  9  1  0  0  0  0
  8 26  1  6  0  0  0
  8 12  1  0  0  0  0
  8 18  1  0  0  0  0
  9 13  1  0  0  0  0
  9  3  2  0  0  0  0
 10  7  1  1  0  0  0
 10  5  1  0  0  0  0
 10 23  1  0  0  0  0
 11  6  2  0  0  0  0
 11 16  1  0  0  0  0
 13 21  1  0  0  0  0
 14  2  1  0  0  0  0
 15 28  2  0  0  0  0
 16 20  2  0  0  0  0
 17 13  1  0  0  0  0
 18 25  1  0  0  0  0
 19 18  1  0  0  0  0
 19  5  1  0  0  0  0
 19 25  1  0  0  0  0
 20  3  1  0  0  0  0
 20 15  1  0  0  0  0
 21  7  2  0  0  0  0
 21 27  1  0  0  0  0
 22  6  1  0  0  0  0
 23 30  1  0  0  0  0
 27 25  1  0  0  0  0
 28 23  1  0  0  0  0
 29 35  1  0  0  0  0
 30 31  1  0  0  0  0
 30 29  2  0  0  0  0
 31 34  2  0  0  0  0
 34 32  1  0  0  0  0
 34 33  1  0  0  0  0
 35 33  2  0  0  0  0
 37 36  1  0  0  0  0
 37  4  1  0  0  0  0
M  END
>  <MODEL>
8

>  <REMARK>
 VINA RESULT:      -5.5      4.748      8.316
  Name = 
  2 active torsions:
  status: ('A' for Active; 'I' for Inactive)
    1  A    between atoms: N_4  and  C_37
    2  A    between atoms: N_23  and  C_30
                            x       y       z     vdW  Elec       q    Type
                         _______ _______ _______ _____ _____    ______ ____

>  <TORSDO>
F 2

$$$$
=
 OpenBabel11122411393D

 37 44  0  0  1  0  0  0  0  0999 V2000
  184.9910  176.6630  137.7930 C   0  0  0  0  0  2  0  0  0  0  0  0
  187.6110  178.4360  141.2770 C   0  0  0  0  0  0  0  0  0  0  0  0
  183.4640  178.6260  141.5580 C   0  0  0  0  0  0  0  0  0  0  0  0
  185.6030  176.5490  136.4700 N   0  0  0  0  0  0  0  0  0  0  0  0
  181.2620  178.0790  138.4820 O   0  0  0  0  0  0  0  0  0  0  0  0
  185.5970  178.8650  142.6580 C   0  0  0  0  0  0  0  0  0  0  0  0
  183.0630  178.4200  140.2460 C   0  0  0  0  0  0  0  0  0  0  0  0
  183.1840  176.4260  135.6830 C   0  0  2  0  0  3  0  0  0  0  0  0
  184.8220  178.7260  141.5340 C   0  0  0  0  0  0  0  0  0  0  0  0
  181.6130  178.0960  139.8610 C   0  0  1  0  0  3  0  0  0  0  0  0
  184.9490  178.9370  143.9000 C   0  0  0  0  0  3  0  0  0  0  0  0
  184.6490  176.7680  135.3700 C   0  0  0  0  0  2  0  0  0  0  0  0
  185.3250  178.5840  140.3120 N   0  0  0  0  0  0  0  0  0  0  0  0
  187.8500  176.9400  141.3730 C   0  0  0  0  0  1  0  0  0  0  0  0
  181.3030  178.5020  142.9160 C   0  0  0  0  0  3  0  0  0  0  0  0
  183.5370  178.8270  143.9560 C   0  0  0  0  0  3  0  0  0  0  0  0
  186.7520  178.7230  140.0160 C   0  0  0  0  0  2  0  0  0  0  0  0
  182.3780  177.5340  136.3900 C   0  0  1  0  0  3  0  0  0  0  0  0
  182.2530  177.3620  137.8280 C   0  0  1  0  0  3  0  0  0  0  0  0
  182.7670  178.6610  142.7800 C   0  0  0  0  0  0  0  0  0  0  0  0
  184.2720  178.3820  139.4900 C   0  0  0  0  0  0  0  0  0  0  0  0
  186.9870  178.8930  142.4970 O   0  0  0  0  0  0  0  0  0  0  0  0
  180.7110  178.9830  140.5990 N   0  0  0  0  0  0  0  0  0  0  0  0
  188.9510  179.1240  141.1220 C   0  0  0  0  0  1  0  0  0  0  0  0
  183.1760  178.3920  137.3110 N   0  0  1  0  0  0  0  0  0  0  0  0
  183.0270  175.1640  136.2670 O   0  0  0  0  0  1  0  0  0  0  0  0
  184.4260  178.0700  138.0160 C   0  0  2  0  0  3  0  0  0  0  0  0
  180.3860  178.6450  141.9530 C   0  0  0  0  0  3  0  0  0  0  0  0
  179.3540  181.0440  140.7770 C   0  0  0  0  0  3  0  0  0  0  0  0
  180.2780  180.2550  140.0700 C   0  0  0  0  0  0  0  0  0  0  0  0
  180.7910  180.7420  138.8550 C   0  0  0  0  0  3  0  0  0  0  0  0
  180.8840  182.4350  137.1820 F   0  0  0  0  0  0  0  0  0  0  0  0
  179.4600  182.7520  139.0660 C   0  0  0  0  0  3  0  0  0  0  0  0
  180.3830  181.9820  138.3550 C   0  0  0  0  0  0  0  0  0  0  0  0
  178.9460  182.2840  140.2770 C   0  0  0  0  0  3  0  0  0  0  0  0
  186.9820  175.0880  135.0980 C   0  0  0  0  0  1  0  0  0  0  0  0
  186.1190  175.1950  136.3410 C   0  0  0  0  0  2  0  0  0  0  0  0
  1 27  1  0  0  0  0
  2 14  1  0  0  0  0
  2 22  1  0  0  0  0
  3 20  1  0  0  0  0
  4  1  1  0  0  0  0
  6 11  2  0  0  0  0
  7  3  1  0  0  0  0
  8 26  1  1  0  0  0
  8 18  1  0  0  0  0
  9  3  2  0  0  0  0
  9  6  1  0  0  0  0
 10  5  1  6  0  0  0
 10  7  1  0  0  0  0
 10 23  1  0  0  0  0
 11 16  1  0  0  0  0
 12  8  1  0  0  0  0
 12  4  1  0  0  0  0
 13  9  1  0  0  0  0
 17 13  1  0  0  0  0
 17  2  1  0  0  0  0
 18 25  1  0  0  0  0
 18 19  1  0  0  0  0
 19  5  1  0  0  0  0
 20 15  1  0  0  0  0
 20 16  2  0  0  0  0
 21  7  2  0  0  0  0
 21 13  1  0  0  0  0
 22  6  1  0  0  0  0
 23 28  1  0  0  0  0
 24  2  1  0  0  0  0
 25 19  1  0  0  0  0
 25 27  1  0  0  0  0
 27 21  1  0  0  0  0
 28 15  2  0  0  0  0
 30 23  1  0  0  0  0
 30 29  2  0  0  0  0
 31 30  1  0  0  0  0
 32 34  1  0  0  0  0
 33 35  2  0  0  0  0
 34 31  2  0  0  0  0
 34 33  1  0  0  0  0
 35 29  1  0  0  0  0
 36 37  1  0  0  0  0
 37  4  1  0  0  0  0
M  END
>  <MODEL>
9

>  <REMARK>
 VINA RESULT:      -4.7      1.603      2.051
  Name = 
  2 active torsions:
  status: ('A' for Active; 'I' for Inactive)
    1  A    between atoms: N_4  and  C_37
    2  A    between atoms: N_23  and  C_30
                            x       y       z     vdW  Elec       q    Type
                         _______ _______ _______ _____ _____    ______ ____

>  <TORSDO>
F 2

$$$$
