=
 OpenBabel11122412113D

 34 41  0  0  1  0  0  0  0  0999 V2000
  187.9580  177.8460  138.6230 C   0  0  0  0  0  0  0  0  0  0  0  0
  186.4610  178.6080  140.5930 C   0  0  0  0  0  3  0  0  0  0  0  0
  193.1800  174.7830  136.4880 C   0  0  0  0  0  0  0  0  0  0  0  0
  189.5320  177.0890  136.9350 C   0  0  0  0  0  0  0  0  0  0  0  0
  191.7540  176.3850  137.6280 C   0  0  0  0  0  0  0  0  0  0  0  0
  193.8080  175.2300  138.3460 C   0  0  0  0  0  2  0  0  0  0  0  0
  193.9090  174.0840  137.5190 O   0  0  0  0  0  0  0  0  0  0  0  0
  191.8920  175.4150  134.5940 C   0  0  0  0  0  3  0  0  0  0  0  0
  188.6580  177.8830  141.0010 C   0  0  0  0  0  0  0  0  0  0  0  0
  189.2940  176.0670  143.3880 C   0  0  0  0  0  3  0  0  0  0  0  0
  191.4230  176.6760  138.9200 N   0  0  0  0  0  0  0  0  0  0  0  0
  191.0760  176.3300  135.1440 C   0  0  0  0  0  3  0  0  0  0  0  0
  189.8740  177.4170  140.6990 C   0  0  0  0  0  0  0  0  0  0  0  0
  186.7710  178.7690  142.0910 C   0  0  0  0  0  3  0  0  0  0  0  0
  190.8020  176.5860  136.5890 C   0  0  0  0  0  0  0  0  0  0  0  0
  192.6990  174.4880  135.3290 N   0  0  0  0  0  0  0  0  0  0  0  0
  188.0130  176.8400  143.1330 C   0  0  2  0  0  3  0  0  0  0  0  0
  189.2280  177.3540  138.2800 C   0  0  0  0  0  0  0  0  0  0  0  0
  193.1730  176.0060  137.3200 C   0  0  1  0  0  3  0  0  0  0  0  0
  190.1960  177.1330  139.2750 C   0  0  0  0  0  0  0  0  0  0  0  0
  187.3430  177.7900  136.2960 C   0  0  0  0  0  3  0  0  0  0  0  0
  190.4950  176.2040  142.7950 C   0  0  0  0  0  3  0  0  0  0  0  0
  188.5800  177.3140  135.9830 N   0  0  0  0  0  0  0  0  0  0  0  0
  190.8880  177.2460  141.7840 C   0  0  0  0  0  2  0  0  0  0  0  0
  188.1600  178.1600  142.3670 C   0  0  1  0  0  3  0  0  0  0  0  0
  187.0080  178.0670  137.6250 C   0  0  0  0  0  3  0  0  0  0  0  0
  187.6860  178.1120  140.0050 N   0  0  0  0  0  0  0  0  0  0  0  0
  187.3590  177.0540  144.3490 O   0  0  0  0  0  0  0  0  0  0  0  0
  188.3320  177.6110  145.1930 C   0  0  0  0  0  2  0  0  0  0  0  0
  189.3870  178.1160  148.4120 C   0  0  0  0  0  2  0  0  0  0  0  0
  187.2900  177.9470  147.3080 C   0  0  0  0  0  2  0  0  0  0  0  0
  188.2160  177.1020  146.5600 N   0  0  0  0  0  0  0  0  0  0  0  0
  187.9080  178.2170  148.6580 C   0  0  0  0  0  2  0  0  0  0  0  0
  189.5180  177.1880  147.2220 C   0  0  0  0  0  2  0  0  0  0  0  0
  1 27  1  0  0  0  0
  2 14  2  0  0  0  0
  3 19  1  0  0  0  0
  3  7  1  0  0  0  0
  4 18  1  0  0  0  0
  5 11  2  0  0  0  0
  7  6  1  0  0  0  0
  8 12  2  0  0  0  0
  8 16  1  0  0  0  0
  9 25  1  0  0  0  0
 11 20  1  0  0  0  0
 12 15  1  0  0  0  0
 13  9  2  0  0  0  0
 13 24  1  0  0  0  0
 15  4  2  0  0  0  0
 15  5  1  0  0  0  0
 16  3  2  0  0  0  0
 17 10  1  0  0  0  0
 17 28  1  1  0  0  0
 18  1  1  0  0  0  0
 18 20  2  0  0  0  0
 19  5  1  0  0  0  0
 19  6  1  1  0  0  0
 20 13  1  0  0  0  0
 21 26  1  0  0  0  0
 22 10  2  0  0  0  0
 23 21  2  0  0  0  0
 23  4  1  0  0  0  0
 24 22  1  0  0  0  0
 25 14  1  6  0  0  0
 25 17  1  0  0  0  0
 26  1  2  0  0  0  0
 27  2  1  0  0  0  0
 27  9  1  0  0  0  0
 28 29  1  0  0  0  0
 29 32  1  0  0  0  0
 30 33  1  0  0  0  0
 31 33  1  0  0  0  0
 32 34  1  0  0  0  0
 32 31  1  0  0  0  0
 34 30  1  0  0  0  0
M  END
>  <MODEL>
1

>  <REMARK>
 VINA RESULT:      -9.5      0.000      0.000
  Name = 
  3 active torsions:
  status: ('A' for Active; 'I' for Inactive)
    1  A    between atoms: C_17  and  O_28
    2  A    between atoms: O_28  and  C_29
    3  A    between atoms: C_29  and  N_32
                            x       y       z     vdW  Elec       q    Type
                         _______ _______ _______ _____ _____    ______ ____

>  <TORSDO>
F 3

$$$$
=
 OpenBabel11122412113D

 34 41  0  0  1  0  0  0  0  0999 V2000
  186.0780  178.5720  143.1190 C   0  0  0  0  0  0  0  0  0  0  0  0
  185.5310  178.8090  140.6000 C   0  0  0  0  0  3  0  0  0  0  0  0
  190.3310  177.4050  147.7850 C   0  0  0  0  0  0  0  0  0  0  0  0
  186.7910  178.2410  145.4180 C   0  0  0  0  0  0  0  0  0  0  0  0
  188.9010  177.1080  145.8440 C   0  0  0  0  0  0  0  0  0  0  0  0
  191.2220  176.4080  146.2820 C   0  0  0  0  0  2  0  0  0  0  0  0
  191.6870  177.2590  147.3140 O   0  0  0  0  0  0  0  0  0  0  0  0
  188.3050  178.1010  148.8150 C   0  0  0  0  0  3  0  0  0  0  0  0
  187.5140  177.7460  141.2750 C   0  0  0  0  0  0  0  0  0  0  0  0
  190.1550  178.2760  139.8120 C   0  0  0  0  0  3  0  0  0  0  0  0
  189.0720  176.9600  144.4980 N   0  0  0  0  0  0  0  0  0  0  0  0
  187.4440  177.9450  147.7960 C   0  0  0  0  0  3  0  0  0  0  0  0
  188.4240  177.2740  142.1320 C   0  0  0  0  0  0  0  0  0  0  0  0
  186.2640  178.2820  139.3550 C   0  0  0  0  0  3  0  0  0  0  0  0
  187.7390  177.7630  146.3440 C   0  0  0  0  0  0  0  0  0  0  0  0
  189.7320  178.1010  148.6900 N   0  0  0  0  0  0  0  0  0  0  0  0
  188.7570  178.6500  139.3550 C   0  0  2  0  0  3  0  0  0  0  0  0
  187.0200  178.0860  144.0410 C   0  0  0  0  0  0  0  0  0  0  0  0
  189.8720  176.4340  146.7680 C   0  0  1  0  0  3  0  0  0  0  0  0
  188.1850  177.4390  143.5900 C   0  0  0  0  0  0  0  0  0  0  0  0
  184.7280  179.3450  144.9570 C   0  0  0  0  0  3  0  0  0  0  0  0
  190.5260  177.4250  140.7870 C   0  0  0  0  0  3  0  0  0  0  0  0
  185.6530  178.8670  145.8350 N   0  0  0  0  0  0  0  0  0  0  0  0
  189.6220  176.5490  141.6100 C   0  0  0  0  0  2  0  0  0  0  0  0
  187.6260  177.7140  139.8000 C   0  0  1  0  0  3  0  0  0  0  0  0
  184.9220  179.2060  143.5800 C   0  0  0  0  0  3  0  0  0  0  0  0
  186.3410  178.3900  141.7220 N   0  0  0  0  0  0  0  0  0  0  0  0
  188.7530  178.7910  137.9650 O   0  0  0  0  0  0  0  0  0  0  0  0
  189.4740  177.6870  137.4850 C   0  0  0  0  0  2  0  0  0  0  0  0
  186.7600  175.8030  136.5830 C   0  0  0  0  0  2  0  0  0  0  0  0
  187.6780  177.8940  135.9330 C   0  0  0  0  0  2  0  0  0  0  0  0
  188.8050  177.0620  136.3430 N   0  0  0  0  0  0  0  0  0  0  0  0
  186.5020  176.9820  135.6880 C   0  0  0  0  0  2  0  0  0  0  0  0
  188.2650  175.7640  136.7480 C   0  0  0  0  0  2  0  0  0  0  0  0
  1 26  2  0  0  0  0
  1 18  1  0  0  0  0
  2 27  1  0  0  0  0
  3 16  2  0  0  0  0
  4 23  1  0  0  0  0
  4 15  1  0  0  0  0
  5 15  2  0  0  0  0
  5 19  1  0  0  0  0
  6  7  1  0  0  0  0
  7  3  1  0  0  0  0
  9 27  1  0  0  0  0
  9 13  2  0  0  0  0
 10 22  2  0  0  0  0
 11  5  1  0  0  0  0
 12  8  2  0  0  0  0
 13 20  1  0  0  0  0
 14  2  2  0  0  0  0
 15 12  1  0  0  0  0
 16  8  1  0  0  0  0
 17 28  1  6  0  0  0
 17 25  1  0  0  0  0
 17 10  1  0  0  0  0
 18  4  2  0  0  0  0
 19  6  1  6  0  0  0
 19  3  1  0  0  0  0
 20 18  1  0  0  0  0
 20 11  2  0  0  0  0
 21 23  2  0  0  0  0
 22 24  1  0  0  0  0
 24 13  1  0  0  0  0
 25 14  1  6  0  0  0
 25  9  1  0  0  0  0
 26 21  1  0  0  0  0
 27  1  1  0  0  0  0
 29 28  1  0  0  0  0
 30 34  1  0  0  0  0
 31 32  1  0  0  0  0
 32 34  1  0  0  0  0
 32 29  1  0  0  0  0
 33 31  1  0  0  0  0
 33 30  1  0  0  0  0
M  END
>  <MODEL>
2

>  <REMARK>
 VINA RESULT:      -9.5      2.696      8.559
  Name = 
  3 active torsions:
  status: ('A' for Active; 'I' for Inactive)
    1  A    between atoms: C_17  and  O_28
    2  A    between atoms: O_28  and  C_29
    3  A    between atoms: C_29  and  N_32
                            x       y       z     vdW  Elec       q    Type
                         _______ _______ _______ _____ _____    ______ ____

>  <TORSDO>
F 3

$$$$
=
 OpenBabel11122412113D

 34 41  0  0  1  0  0  0  0  0999 V2000
  182.8640  178.6510  143.7100 C   0  0  0  0  0  0  0  0  0  0  0  0
  184.2550  178.8060  145.8880 C   0  0  0  0  0  3  0  0  0  0  0  0
  182.4960  177.2750  137.4500 C   0  0  0  0  0  0  0  0  0  0  0  0
  181.7640  178.4960  141.5490 C   0  0  0  0  0  0  0  0  0  0  0  0
  183.1300  178.3330  139.5430 C   0  0  0  0  0  0  0  0  0  0  0  0
  184.4610  177.6920  137.5720 C   0  0  0  0  0  2  0  0  0  0  0  0
  183.7020  176.6960  136.9090 O   0  0  0  0  0  0  0  0  0  0  0  0
  180.2930  177.7260  138.2180 C   0  0  0  0  0  3  0  0  0  0  0  0
  185.3410  178.6430  143.8110 C   0  0  0  0  0  0  0  0  0  0  0  0
  187.7940  176.8380  143.4590 C   0  0  0  0  0  3  0  0  0  0  0  0
  184.2490  178.4040  140.3210 N   0  0  0  0  0  0  0  0  0  0  0  0
  180.5590  178.3400  139.3840 C   0  0  0  0  0  3  0  0  0  0  0  0
  185.4420  178.5420  142.4830 C   0  0  0  0  0  0  0  0  0  0  0  0
  185.7740  178.8990  146.1100 C   0  0  0  0  0  3  0  0  0  0  0  0
  181.8410  178.3770  140.1480 C   0  0  0  0  0  0  0  0  0  0  0  0
  181.2420  176.9760  137.4520 N   0  0  0  0  0  0  0  0  0  0  0  0
  187.1460  177.2710  144.7620 C   0  0  2  0  0  3  0  0  0  0  0  0
  182.9430  178.5430  142.3120 C   0  0  0  0  0  0  0  0  0  0  0  0
  183.2900  178.3690  138.0510 C   0  0  1  0  0  3  0  0  0  0  0  0
  184.1950  178.4890  141.6740 C   0  0  0  0  0  0  0  0  0  0  0  0
  180.4620  178.6590  143.5410 C   0  0  0  0  0  3  0  0  0  0  0  0
  187.6180  177.3400  142.2220 C   0  0  0  0  0  3  0  0  0  0  0  0
  180.5600  178.5540  142.1870 N   0  0  0  0  0  0  0  0  0  0  0  0
  186.7930  178.5390  141.8440 C   0  0  0  0  0  2  0  0  0  0  0  0
  186.4770  178.6500  144.7600 C   0  0  1  0  0  3  0  0  0  0  0  0
  181.6150  178.7110  144.3310 C   0  0  0  0  0  3  0  0  0  0  0  0
  184.0870  178.7040  144.4550 N   0  0  0  0  0  0  0  0  0  0  0  0
  188.0900  177.1900  145.7890 O   0  0  0  0  0  0  0  0  0  0  0  0
  189.2390  177.8130  145.2790 C   0  0  0  0  0  2  0  0  0  0  0  0
  190.8810  175.7200  147.4350 C   0  0  0  0  0  2  0  0  0  0  0  0
  191.4820  177.0700  145.5760 C   0  0  0  0  0  2  0  0  0  0  0  0
  190.3570  177.7390  146.2210 N   0  0  0  0  0  0  0  0  0  0  0  0
  192.0500  176.0790  146.5620 C   0  0  0  0  0  2  0  0  0  0  0  0
  189.9670  176.9260  147.3730 C   0  0  0  0  0  2  0  0  0  0  0  0
  1 26  1  0  0  0  0
  1 27  1  0  0  0  0
  2 14  2  0  0  0  0
  3 16  2  0  0  0  0
  3 19  1  0  0  0  0
  4 23  2  0  0  0  0
  4 18  1  0  0  0  0
  5 15  2  0  0  0  0
  5 11  1  0  0  0  0
  7  3  1  0  0  0  0
  7  6  1  0  0  0  0
  8 12  2  0  0  0  0
  9 27  1  0  0  0  0
  9 25  1  0  0  0  0
 10 17  1  0  0  0  0
 11 20  2  0  0  0  0
 12 15  1  0  0  0  0
 13  9  2  0  0  0  0
 15  4  1  0  0  0  0
 16  8  1  0  0  0  0
 17 28  1  1  0  0  0
 18  1  2  0  0  0  0
 19  6  1  1  0  0  0
 19  5  1  0  0  0  0
 20 18  1  0  0  0  0
 20 13  1  0  0  0  0
 21 26  2  0  0  0  0
 22 10  2  0  0  0  0
 23 21  1  0  0  0  0
 24 22  1  0  0  0  0
 24 13  1  0  0  0  0
 25 17  1  0  0  0  0
 25 14  1  1  0  0  0
 27  2  1  0  0  0  0
 29 28  1  0  0  0  0
 29 32  1  0  0  0  0
 31 32  1  0  0  0  0
 31 33  1  0  0  0  0
 32 34  1  0  0  0  0
 33 30  1  0  0  0  0
 34 30  1  0  0  0  0
M  END
>  <MODEL>
3

>  <REMARK>
 VINA RESULT:      -9.4      5.042      7.365
  Name = 
  3 active torsions:
  status: ('A' for Active; 'I' for Inactive)
    1  A    between atoms: C_17  and  O_28
    2  A    between atoms: O_28  and  C_29
    3  A    between atoms: C_29  and  N_32
                            x       y       z     vdW  Elec       q    Type
                         _______ _______ _______ _____ _____    ______ ____

>  <TORSDO>
F 3

$$$$
=
 OpenBabel11122412113D

 34 41  0  0  1  0  0  0  0  0999 V2000
  183.7300  178.7480  143.9860 C   0  0  0  0  0  0  0  0  0  0  0  0
  181.3740  179.3090  143.0710 C   0  0  0  0  0  3  0  0  0  0  0  0
  189.9890  177.7620  142.9540 C   0  0  0  0  0  0  0  0  0  0  0  0
  186.0040  178.1760  144.6200 C   0  0  0  0  0  0  0  0  0  0  0  0
  187.5750  177.5020  142.8900 C   0  0  0  0  0  0  0  0  0  0  0  0
  189.2850  177.2890  141.1300 C   0  0  0  0  0  2  0  0  0  0  0  0
  190.4040  178.0210  141.5970 O   0  0  0  0  0  0  0  0  0  0  0  0
  189.6400  177.7700  145.3050 C   0  0  0  0  0  3  0  0  0  0  0  0
  183.0720  178.6280  141.5980 C   0  0  0  0  0  0  0  0  0  0  0  0
  183.4490  180.0120  138.8890 C   0  0  0  0  0  3  0  0  0  0  0  0
  186.5850  177.6470  141.9610 N   0  0  0  0  0  0  0  0  0  0  0  0
  188.3070  177.6080  145.3570 C   0  0  0  0  0  3  0  0  0  0  0  0
  184.2950  178.2300  141.2330 C   0  0  0  0  0  0  0  0  0  0  0  0
  180.7910  179.2020  141.6520 C   0  0  0  0  0  3  0  0  0  0  0  0
  187.3040  177.7680  144.2620 C   0  0  0  0  0  0  0  0  0  0  0  0
  190.3770  178.1230  144.1290 N   0  0  0  0  0  0  0  0  0  0  0  0
  182.2620  180.1300  139.8280 C   0  0  2  0  0  3  0  0  0  0  0  0
  185.0230  178.3320  143.6280 C   0  0  0  0  0  0  0  0  0  0  0  0
  188.8850  176.9130  142.4550 C   0  0  1  0  0  3  0  0  0  0  0  0
  185.3350  178.0660  142.2830 C   0  0  0  0  0  0  0  0  0  0  0  0
  184.4320  178.8390  146.2870 C   0  0  0  0  0  3  0  0  0  0  0  0
  184.4450  179.1060  138.8970 C   0  0  0  0  0  3  0  0  0  0  0  0
  185.6790  178.4350  145.9200 N   0  0  0  0  0  0  0  0  0  0  0  0
  184.5680  177.9090  139.7990 C   0  0  0  0  0  2  0  0  0  0  0  0
  181.9450  178.8930  140.6770 C   0  0  1  0  0  3  0  0  0  0  0  0
  183.4310  179.0030  145.3250 C   0  0  0  0  0  3  0  0  0  0  0  0
  182.7530  178.8900  142.9470 N   0  0  0  0  0  0  0  0  0  0  0  0
  181.1370  180.5170  139.0950 O   0  0  0  0  0  0  0  0  0  0  0  0
  181.5550  181.6260  138.3430 C   0  0  0  0  0  2  0  0  0  0  0  0
  180.8310  183.9320  135.9180 C   0  0  0  0  0  2  0  0  0  0  0  0
  180.6070  181.5800  136.1590 C   0  0  0  0  0  2  0  0  0  0  0  0
  180.4770  182.1430  137.4990 N   0  0  0  0  0  0  0  0  0  0  0  0
  180.4010  182.7010  135.1710 C   0  0  0  0  0  2  0  0  0  0  0  0
  180.6110  183.5940  137.3780 C   0  0  0  0  0  2  0  0  0  0  0  0
  1 26  1  0  0  0  0
  3 16  2  0  0  0  0
  4 23  2  0  0  0  0
  5 15  2  0  0  0  0
  6  7  1  0  0  0  0
  7  3  1  0  0  0  0
  8 12  2  0  0  0  0
  9 27  1  0  0  0  0
 10 22  2  0  0  0  0
 10 17  1  0  0  0  0
 11 20  2  0  0  0  0
 11  5  1  0  0  0  0
 13  9  2  0  0  0  0
 13 20  1  0  0  0  0
 14  2  2  0  0  0  0
 15  4  1  0  0  0  0
 15 12  1  0  0  0  0
 16  8  1  0  0  0  0
 17 28  1  6  0  0  0
 17 25  1  0  0  0  0
 18  1  2  0  0  0  0
 18  4  1  0  0  0  0
 19  6  1  6  0  0  0
 19  5  1  0  0  0  0
 19  3  1  0  0  0  0
 20 18  1  0  0  0  0
 22 24  1  0  0  0  0
 23 21  1  0  0  0  0
 24 13  1  0  0  0  0
 25  9  1  0  0  0  0
 25 14  1  1  0  0  0
 26 21  2  0  0  0  0
 27  2  1  0  0  0  0
 27  1  1  0  0  0  0
 29 28  1  0  0  0  0
 30 34  1  0  0  0  0
 31 32  1  0  0  0  0
 32 29  1  0  0  0  0
 33 30  1  0  0  0  0
 33 31  1  0  0  0  0
 34 32  1  0  0  0  0
M  END
>  <MODEL>
4

>  <REMARK>
 VINA RESULT:      -9.2      4.708      9.197
  Name = 
  3 active torsions:
  status: ('A' for Active; 'I' for Inactive)
    1  A    between atoms: C_17  and  O_28
    2  A    between atoms: O_28  and  C_29
    3  A    between atoms: C_29  and  N_32
                            x       y       z     vdW  Elec       q    Type
                         _______ _______ _______ _____ _____    ______ ____

>  <TORSDO>
F 3

$$$$
=
 OpenBabel11122412113D

 34 41  0  0  1  0  0  0  0  0999 V2000
  187.0000  178.1830  141.4760 C   0  0  0  0  0  0  0  0  0  0  0  0
  187.9500  177.8730  139.0890 C   0  0  0  0  0  3  0  0  0  0  0  0
  187.8840  178.2260  147.8350 C   0  0  0  0  0  0  0  0  0  0  0  0
  186.3030  178.3640  143.7960 C   0  0  0  0  0  0  0  0  0  0  0  0
  187.7470  177.4620  145.5330 C   0  0  0  0  0  0  0  0  0  0  0  0
  189.3880  176.9960  147.3100 C   0  0  0  0  0  2  0  0  0  0  0  0
  189.2620  178.0640  148.2330 O   0  0  0  0  0  0  0  0  0  0  0  0
  185.6780  179.0000  147.4100 C   0  0  0  0  0  3  0  0  0  0  0  0
  189.1570  177.0830  140.9420 C   0  0  0  0  0  0  0  0  0  0  0  0
  192.1950  177.4530  141.1130 C   0  0  0  0  0  3  0  0  0  0  0  0
  188.6220  177.0540  144.5680 N   0  0  0  0  0  0  0  0  0  0  0  0
  185.5140  178.5930  146.1400 C   0  0  0  0  0  3  0  0  0  0  0  0
  189.4090  176.8450  142.2330 C   0  0  0  0  0  0  0  0  0  0  0  0
  189.2120  177.1470  138.5910 C   0  0  0  0  0  3  0  0  0  0  0  0
  186.5490  178.1380  145.1650 C   0  0  0  0  0  0  0  0  0  0  0  0
  186.9340  179.0550  148.0970 N   0  0  0  0  0  0  0  0  0  0  0  0
  191.3090  177.6480  139.8960 C   0  0  2  0  0  3  0  0  0  0  0  0
  187.2420  177.9470  142.8400 C   0  0  0  0  0  0  0  0  0  0  0  0
  187.9990  177.0440  146.9520 C   0  0  1  0  0  3  0  0  0  0  0  0
  188.4160  177.2890  143.2480 C   0  0  0  0  0  0  0  0  0  0  0  0
  184.9150  179.2350  142.0630 C   0  0  0  0  0  3  0  0  0  0  0  0
  191.9080  176.8390  142.2770 C   0  0  0  0  0  3  0  0  0  0  0  0
  185.1680  178.9970  143.3800 N   0  0  0  0  0  0  0  0  0  0  0  0
  190.6450  176.0980  142.6180 C   0  0  0  0  0  2  0  0  0  0  0  0
  190.0610  176.7590  139.8170 C   0  0  1  0  0  3  0  0  0  0  0  0
  185.8270  178.8310  141.0840 C   0  0  0  0  0  3  0  0  0  0  0  0
  187.9770  177.7360  140.5280 N   0  0  0  0  0  0  0  0  0  0  0  0
  192.0820  177.5030  138.7410 O   0  0  0  0  0  0  0  0  0  0  0  0
  193.1860  176.7330  139.1350 C   0  0  0  0  0  2  0  0  0  0  0  0
  193.9700  173.8590  137.4460 C   0  0  0  0  0  2  0  0  0  0  0  0
  192.9800  175.9470  136.8960 C   0  0  0  0  0  2  0  0  0  0  0  0
  193.9200  176.2120  137.9800 N   0  0  0  0  0  0  0  0  0  0  0  0
  193.3300  174.6030  136.3070 C   0  0  0  0  0  2  0  0  0  0  0  0
  194.5450  174.9390  138.3380 C   0  0  0  0  0  2  0  0  0  0  0  0
  1 18  1  0  0  0  0
  2 27  1  0  0  0  0
  3 16  2  0  0  0  0
  3  7  1  0  0  0  0
  4 15  1  0  0  0  0
  5 19  1  0  0  0  0
  6  7  1  0  0  0  0
  8 16  1  0  0  0  0
  9 13  2  0  0  0  0
 10 22  2  0  0  0  0
 11  5  1  0  0  0  0
 12  8  2  0  0  0  0
 13 24  1  0  0  0  0
 13 20  1  0  0  0  0
 14  2  2  0  0  0  0
 15  5  2  0  0  0  0
 15 12  1  0  0  0  0
 17 28  1  6  0  0  0
 17 10  1  0  0  0  0
 18 20  1  0  0  0  0
 18  4  2  0  0  0  0
 19  6  1  6  0  0  0
 19  3  1  0  0  0  0
 20 11  2  0  0  0  0
 21 23  2  0  0  0  0
 22 24  1  0  0  0  0
 23  4  1  0  0  0  0
 25 14  1  6  0  0  0
 25 17  1  0  0  0  0
 25  9  1  0  0  0  0
 26  1  2  0  0  0  0
 26 21  1  0  0  0  0
 27  9  1  0  0  0  0
 27  1  1  0  0  0  0
 28 29  1  0  0  0  0
 30 34  1  0  0  0  0
 31 32  1  0  0  0  0
 32 34  1  0  0  0  0
 32 29  1  0  0  0  0
 33 31  1  0  0  0  0
 33 30  1  0  0  0  0
M  END
>  <MODEL>
5

>  <REMARK>
 VINA RESULT:      -9.1      1.949      8.574
  Name = 
  3 active torsions:
  status: ('A' for Active; 'I' for Inactive)
    1  A    between atoms: C_17  and  O_28
    2  A    between atoms: O_28  and  C_29
    3  A    between atoms: C_29  and  N_32
                            x       y       z     vdW  Elec       q    Type
                         _______ _______ _______ _____ _____    ______ ____

>  <TORSDO>
F 3

$$$$
=
 OpenBabel11122412113D

 34 41  0  0  1  0  0  0  0  0999 V2000
  188.5590  177.6190  142.7800 C   0  0  0  0  0  0  0  0  0  0  0  0
  191.0620  177.0510  142.4370 C   0  0  0  0  0  3  0  0  0  0  0  0
  182.7240  178.6700  140.3190 C   0  0  0  0  0  0  0  0  0  0  0  0
  186.2030  178.2010  142.8700 C   0  0  0  0  0  0  0  0  0  0  0  0
  185.0870  178.9100  140.8280 C   0  0  0  0  0  0  0  0  0  0  0  0
  183.8400  179.1610  138.7180 C   0  0  0  0  0  2  0  0  0  0  0  0
  182.6390  178.4310  138.8980 O   0  0  0  0  0  0  0  0  0  0  0  0
  182.5100  178.6280  142.6850 C   0  0  0  0  0  3  0  0  0  0  0  0
  189.7610  177.7650  140.6160 C   0  0  0  0  0  0  0  0  0  0  0  0
  190.0260  176.4200  137.8750 C   0  0  0  0  0  3  0  0  0  0  0  0
  186.2670  178.7700  140.1560 N   0  0  0  0  0  0  0  0  0  0  0  0
  183.7940  178.7780  143.0510 C   0  0  0  0  0  3  0  0  0  0  0  0
  188.6610  178.1780  139.9800 C   0  0  0  0  0  0  0  0  0  0  0  0
  191.9630  177.1720  141.1970 C   0  0  0  0  0  3  0  0  0  0  0  0
  185.0250  178.6240  142.2220 C   0  0  0  0  0  0  0  0  0  0  0  0
  182.0680  178.2960  141.3630 N   0  0  0  0  0  0  0  0  0  0  0  0
  190.9580  176.2800  139.0640 C   0  0  2  0  0  3  0  0  0  0  0  0
  187.3890  178.0500  142.1340 C   0  0  0  0  0  0  0  0  0  0  0  0
  183.9190  179.5160  140.1060 C   0  0  1  0  0  3  0  0  0  0  0  0
  187.4030  178.3370  140.7570 C   0  0  0  0  0  0  0  0  0  0  0  0
  187.3350  177.5040  144.8500 C   0  0  0  0  0  3  0  0  0  0  0  0
  189.0610  177.3340  137.6610 C   0  0  0  0  0  3  0  0  0  0  0  0
  186.2110  177.9230  144.2050 N   0  0  0  0  0  0  0  0  0  0  0  0
  188.7350  178.5200  138.5260 C   0  0  0  0  0  2  0  0  0  0  0  0
  191.0730  177.5030  139.9830 C   0  0  1  0  0  3  0  0  0  0  0  0
  188.5340  177.3440  144.1480 C   0  0  0  0  0  3  0  0  0  0  0  0
  189.7530  177.4830  141.9980 N   0  0  0  0  0  0  0  0  0  0  0  0
  192.2220  175.8930  138.6110 O   0  0  0  0  0  0  0  0  0  0  0  0
  191.9750  174.9600  137.5930 C   0  0  0  0  0  2  0  0  0  0  0  0
  194.9640  173.3340  137.9790 C   0  0  0  0  0  2  0  0  0  0  0  0
  193.1170  173.1830  136.4930 C   0  0  0  0  0  2  0  0  0  0  0  0
  193.2060  174.5830  136.8960 N   0  0  0  0  0  0  0  0  0  0  0  0
  194.4360  172.5290  136.8260 C   0  0  0  0  0  2  0  0  0  0  0  0
  194.3380  174.7030  137.8130 C   0  0  0  0  0  2  0  0  0  0  0  0
  1 26  1  0  0  0  0
  3 16  2  0  0  0  0
  4 23  2  0  0  0  0
  5 15  2  0  0  0  0
  6  7  1  0  0  0  0
  7  3  1  0  0  0  0
  8 12  2  0  0  0  0
  9 27  1  0  0  0  0
 10 17  1  0  0  0  0
 11 20  2  0  0  0  0
 11  5  1  0  0  0  0
 13  9  2  0  0  0  0
 13 20  1  0  0  0  0
 14  2  2  0  0  0  0
 15  4  1  0  0  0  0
 15 12  1  0  0  0  0
 16  8  1  0  0  0  0
 17 28  1  6  0  0  0
 17 25  1  0  0  0  0
 18  1  2  0  0  0  0
 18  4  1  0  0  0  0
 19  6  1  6  0  0  0
 19  3  1  0  0  0  0
 19  5  1  0  0  0  0
 20 18  1  0  0  0  0
 22 10  2  0  0  0  0
 22 24  1  0  0  0  0
 23 21  1  0  0  0  0
 24 13  1  0  0  0  0
 25  9  1  0  0  0  0
 25 14  1  1  0  0  0
 26 21  2  0  0  0  0
 27  2  1  0  0  0  0
 27  1  1  0  0  0  0
 29 28  1  0  0  0  0
 31 33  1  0  0  0  0
 31 32  1  0  0  0  0
 32 29  1  0  0  0  0
 32 34  1  0  0  0  0
 33 30  1  0  0  0  0
 34 30  1  0  0  0  0
M  END
>  <MODEL>
6

>  <REMARK>
 VINA RESULT:      -9.1      2.524      8.618
  Name = 
  3 active torsions:
  status: ('A' for Active; 'I' for Inactive)
    1  A    between atoms: C_17  and  O_28
    2  A    between atoms: O_28  and  C_29
    3  A    between atoms: C_29  and  N_32
                            x       y       z     vdW  Elec       q    Type
                         _______ _______ _______ _____ _____    ______ ____

>  <TORSDO>
F 3

$$$$
=
 OpenBabel11122412113D

 34 41  0  0  1  0  0  0  0  0999 V2000
  188.5010  177.7670  140.8830 C   0  0  0  0  0  0  0  0  0  0  0  0
  186.8720  178.2530  138.9320 C   0  0  0  0  0  3  0  0  0  0  0  0
  189.5190  176.8110  147.1500 C   0  0  0  0  0  0  0  0  0  0  0  0
  189.8580  177.3830  142.8620 C   0  0  0  0  0  0  0  0  0  0  0  0
  188.9140  177.8710  145.0500 C   0  0  0  0  0  0  0  0  0  0  0  0
  187.8300  177.8980  147.2610 C   0  0  0  0  0  2  0  0  0  0  0  0
  188.3090  176.7470  147.9340 O   0  0  0  0  0  0  0  0  0  0  0  0
  191.5620  176.3800  146.0150 C   0  0  0  0  0  3  0  0  0  0  0  0
  186.1970  178.6460  141.1470 C   0  0  0  0  0  0  0  0  0  0  0  0
  183.3840  177.8780  142.0920 C   0  0  0  0  0  3  0  0  0  0  0  0
  187.7640  178.2840  144.4410 N   0  0  0  0  0  0  0  0  0  0  0  0
  191.3130  176.9620  144.8290 C   0  0  0  0  0  3  0  0  0  0  0  0
  186.3140  178.6850  142.4780 C   0  0  0  0  0  0  0  0  0  0  0  0
  185.4630  178.8720  138.9230 C   0  0  0  0  0  3  0  0  0  0  0  0
  190.0040  177.4030  144.2630 C   0  0  0  0  0  0  0  0  0  0  0  0
  190.5710  176.0810  147.0050 N   0  0  0  0  0  0  0  0  0  0  0  0
  183.8890  177.9510  140.6620 C   0  0  2  0  0  3  0  0  0  0  0  0
  188.6480  177.7970  142.2800 C   0  0  0  0  0  0  0  0  0  0  0  0
  189.0520  178.0710  146.5300 C   0  0  1  0  0  3  0  0  0  0  0  0
  187.5940  178.2450  143.0950 C   0  0  0  0  0  0  0  0  0  0  0  0
  190.7470  176.9200  140.6980 C   0  0  0  0  0  3  0  0  0  0  0  0
  183.9450  178.3710  143.2120 C   0  0  0  0  0  3  0  0  0  0  0  0
  190.8700  176.9560  142.0530 N   0  0  0  0  0  0  0  0  0  0  0  0
  185.1860  179.2160  143.3020 C   0  0  0  0  0  2  0  0  0  0  0  0
  184.9790  178.9920  140.3820 C   0  0  1  0  0  3  0  0  0  0  0  0
  189.5580  177.3260  140.0850 C   0  0  0  0  0  3  0  0  0  0  0  0
  187.2550  178.2030  140.3250 N   0  0  0  0  0  0  0  0  0  0  0  0
  182.8030  178.1420  139.8040 O   0  0  0  0  0  0  0  0  0  0  0  0
  182.2190  179.3490  140.2170 C   0  0  0  0  0  2  0  0  0  0  0  0
  179.5600  177.3920  141.1250 C   0  0  0  0  0  2  0  0  0  0  0  0
  180.2480  179.6300  141.5230 C   0  0  0  0  0  2  0  0  0  0  0  0
  180.7580  179.2740  140.2020 N   0  0  0  0  0  0  0  0  0  0  0  0
  179.1760  178.6310  141.8830 C   0  0  0  0  0  2  0  0  0  0  0  0
  180.3460  177.8970  139.9320 C   0  0  0  0  0  2  0  0  0  0  0  0
  1 18  1  0  0  0  0
  2 27  1  0  0  0  0
  3  7  1  0  0  0  0
  4 15  1  0  0  0  0
  5 19  1  0  0  0  0
  6  7  1  0  0  0  0
  8 16  1  0  0  0  0
  9 13  2  0  0  0  0
 10 22  2  0  0  0  0
 11  5  1  0  0  0  0
 12  8  2  0  0  0  0
 13 20  1  0  0  0  0
 13 24  1  0  0  0  0
 14  2  2  0  0  0  0
 15 12  1  0  0  0  0
 15  5  2  0  0  0  0
 16  3  2  0  0  0  0
 17 28  1  6  0  0  0
 17 10  1  0  0  0  0
 18  4  2  0  0  0  0
 18 20  1  0  0  0  0
 19  3  1  0  0  0  0
 19  6  1  1  0  0  0
 20 11  2  0  0  0  0
 21 23  2  0  0  0  0
 22 24  1  0  0  0  0
 23  4  1  0  0  0  0
 25 14  1  6  0  0  0
 25 17  1  0  0  0  0
 25  9  1  0  0  0  0
 26 21  1  0  0  0  0
 26  1  2  0  0  0  0
 27  1  1  0  0  0  0
 27  9  1  0  0  0  0
 28 29  1  0  0  0  0
 30 33  1  0  0  0  0
 31 33  1  0  0  0  0
 32 29  1  0  0  0  0
 32 31  1  0  0  0  0
 34 32  1  0  0  0  0
 34 30  1  0  0  0  0
M  END
>  <MODEL>
7

>  <REMARK>
 VINA RESULT:      -9.1      3.630      7.904
  Name = 
  3 active torsions:
  status: ('A' for Active; 'I' for Inactive)
    1  A    between atoms: C_17  and  O_28
    2  A    between atoms: O_28  and  C_29
    3  A    between atoms: C_29  and  N_32
                            x       y       z     vdW  Elec       q    Type
                         _______ _______ _______ _____ _____    ______ ____

>  <TORSDO>
F 3

$$$$
=
 OpenBabel11122412113D

 34 41  0  0  1  0  0  0  0  0999 V2000
  188.5600  177.7840  140.6890 C   0  0  0  0  0  0  0  0  0  0  0  0
  186.9460  178.2530  138.7200 C   0  0  0  0  0  3  0  0  0  0  0  0
  189.5230  176.8200  146.9620 C   0  0  0  0  0  0  0  0  0  0  0  0
  189.9000  177.4130  142.6800 C   0  0  0  0  0  0  0  0  0  0  0  0
  188.9250  177.8780  144.8590 C   0  0  0  0  0  0  0  0  0  0  0  0
  187.8160  177.8810  147.0590 C   0  0  0  0  0  2  0  0  0  0  0  0
  188.3050  176.7340  147.7320 O   0  0  0  0  0  0  0  0  0  0  0  0
  191.5840  176.4230  145.8490 C   0  0  0  0  0  3  0  0  0  0  0  0
  186.2410  178.6270  140.9300 C   0  0  0  0  0  0  0  0  0  0  0  0
  183.4290  177.8130  141.8400 C   0  0  0  0  0  3  0  0  0  0  0  0
  187.7760  178.2760  144.2400 N   0  0  0  0  0  0  0  0  0  0  0  0
  191.3400  177.0050  144.6630 C   0  0  0  0  0  3  0  0  0  0  0  0
  186.3430  178.6620  142.2620 C   0  0  0  0  0  0  0  0  0  0  0  0
  185.5290  178.8510  138.6980 C   0  0  0  0  0  3  0  0  0  0  0  0
  190.0310  177.4290  144.0830 C   0  0  0  0  0  0  0  0  0  0  0  0
  190.5870  176.1060  146.8270 N   0  0  0  0  0  0  0  0  0  0  0  0
  183.9490  177.9000  140.4160 C   0  0  2  0  0  3  0  0  0  0  0  0
  188.6920  177.8100  142.0870 C   0  0  0  0  0  0  0  0  0  0  0  0
  189.0440  178.0750  146.3420 C   0  0  1  0  0  3  0  0  0  0  0  0
  187.6210  178.2400  142.8920 C   0  0  0  0  0  0  0  0  0  0  0  0
  190.8210  176.9710  140.5250 C   0  0  0  0  0  3  0  0  0  0  0  0
  183.9710  178.3110  142.9680 C   0  0  0  0  0  3  0  0  0  0  0  0
  190.9280  177.0040  141.8820 N   0  0  0  0  0  0  0  0  0  0  0  0
  185.1970  179.1740  143.0750 C   0  0  0  0  0  2  0  0  0  0  0  0
  185.0270  178.9580  140.1520 C   0  0  1  0  0  3  0  0  0  0  0  0
  189.6320  177.3620  139.9000 C   0  0  0  0  0  3  0  0  0  0  0  0
  187.3140  178.2030  140.1180 N   0  0  0  0  0  0  0  0  0  0  0  0
  182.8700  178.0770  139.5460 O   0  0  0  0  0  0  0  0  0  0  0  0
  182.0330  179.0030  140.1880 C   0  0  0  0  0  2  0  0  0  0  0  0
  181.1320  181.6140  138.1630 C   0  0  0  0  0  2  0  0  0  0  0  0
  181.3870  179.2660  137.9100 C   0  0  0  0  0  2  0  0  0  0  0  0
  180.9790  179.4870  139.2940 N   0  0  0  0  0  0  0  0  0  0  0  0
  181.0680  180.5200  137.1350 C   0  0  0  0  0  2  0  0  0  0  0  0
  180.8150  180.9290  139.4760 C   0  0  0  0  0  2  0  0  0  0  0  0
  1 18  1  0  0  0  0
  2 27  1  0  0  0  0
  3  7  1  0  0  0  0
  4 15  1  0  0  0  0
  5 19  1  0  0  0  0
  6  7  1  0  0  0  0
  8 16  1  0  0  0  0
  9 13  2  0  0  0  0
 10 22  2  0  0  0  0
 11  5  1  0  0  0  0
 12  8  2  0  0  0  0
 13 20  1  0  0  0  0
 13 24  1  0  0  0  0
 14  2  2  0  0  0  0
 15 12  1  0  0  0  0
 15  5  2  0  0  0  0
 16  3  2  0  0  0  0
 17 28  1  6  0  0  0
 17 10  1  0  0  0  0
 18  4  2  0  0  0  0
 18 20  1  0  0  0  0
 19  3  1  0  0  0  0
 19  6  1  1  0  0  0
 20 11  2  0  0  0  0
 21 23  2  0  0  0  0
 22 24  1  0  0  0  0
 23  4  1  0  0  0  0
 25 14  1  6  0  0  0
 25 17  1  0  0  0  0
 25  9  1  0  0  0  0
 26 21  1  0  0  0  0
 26  1  2  0  0  0  0
 27  1  1  0  0  0  0
 27  9  1  0  0  0  0
 28 29  1  0  0  0  0
 30 34  1  0  0  0  0
 31 32  1  0  0  0  0
 32 34  1  0  0  0  0
 32 29  1  0  0  0  0
 33 31  1  0  0  0  0
 33 30  1  0  0  0  0
M  END
>  <MODEL>
8

>  <REMARK>
 VINA RESULT:      -9.0      3.541      8.122
  Name = 
  3 active torsions:
  status: ('A' for Active; 'I' for Inactive)
    1  A    between atoms: C_17  and  O_28
    2  A    between atoms: O_28  and  C_29
    3  A    between atoms: C_29  and  N_32
                            x       y       z     vdW  Elec       q    Type
                         _______ _______ _______ _____ _____    ______ ____

>  <TORSDO>
F 3

$$$$
=
 OpenBabel11122412113D

 34 41  0  0  1  0  0  0  0  0999 V2000
  182.4610  178.4390  140.9940 C   0  0  0  0  0  0  0  0  0  0  0  0
  182.4550  178.9790  143.5260 C   0  0  0  0  0  3  0  0  0  0  0  0
  185.6340  176.6020  135.7240 C   0  0  0  0  0  0  0  0  0  0  0  0
  182.7040  177.9490  138.6280 C   0  0  0  0  0  0  0  0  0  0  0  0
  184.9340  177.8920  137.6600 C   0  0  0  0  0  0  0  0  0  0  0  0
  187.1710  177.3620  136.7750 C   0  0  0  0  0  2  0  0  0  0  0  0
  186.9990  176.2070  135.9740 O   0  0  0  0  0  0  0  0  0  0  0  0
  183.3250  176.7120  135.1720 C   0  0  0  0  0  3  0  0  0  0  0  0
  184.4890  178.8700  142.3560 C   0  0  0  0  0  0  0  0  0  0  0  0
  186.9380  177.5010  143.5890 C   0  0  0  0  0  3  0  0  0  0  0  0
  185.4530  178.2090  138.8820 N   0  0  0  0  0  0  0  0  0  0  0  0
  182.8600  177.4400  136.2020 C   0  0  0  0  0  3  0  0  0  0  0  0
  185.2900  178.6980  141.3000 C   0  0  0  0  0  0  0  0  0  0  0  0
  183.6020  179.3510  144.4810 C   0  0  0  0  0  3  0  0  0  0  0  0
  183.5260  177.7510  137.5010 C   0  0  0  0  0  0  0  0  0  0  0  0
  184.6140  176.0900  135.1250 N   0  0  0  0  0  0  0  0  0  0  0  0
  185.6540  177.9000  144.2920 C   0  0  2  0  0  3  0  0  0  0  0  0
  183.2830  178.2520  139.8700 C   0  0  0  0  0  0  0  0  0  0  0  0
  185.8580  177.8550  136.4770 C   0  0  1  0  0  3  0  0  0  0  0  0
  184.6790  178.3750  139.9840 C   0  0  0  0  0  0  0  0  0  0  0  0
  180.5340  178.0160  139.6150 C   0  0  0  0  0  3  0  0  0  0  0  0
  187.3920  177.8800  142.3790 C   0  0  0  0  0  3  0  0  0  0  0  0
  181.3470  177.8390  138.5380 N   0  0  0  0  0  0  0  0  0  0  0  0
  186.7650  178.8880  141.4560 C   0  0  0  0  0  2  0  0  0  0  0  0
  184.9370  179.1390  143.7400 C   0  0  1  0  0  3  0  0  0  0  0  0
  181.0760  178.3210  140.8670 C   0  0  0  0  0  3  0  0  0  0  0  0
  183.0870  178.7540  142.2450 N   0  0  0  0  0  0  0  0  0  0  0  0
  185.9090  178.0550  145.6570 O   0  0  0  0  0  0  0  0  0  0  0  0
  187.3060  177.9890  145.7760 C   0  0  0  0  0  2  0  0  0  0  0  0
  189.8870  177.7250  148.0110 C   0  0  0  0  0  2  0  0  0  0  0  0
  187.5930  178.3320  148.1150 C   0  0  0  0  0  2  0  0  0  0  0  0
  187.7100  177.3590  147.0340 N   0  0  0  0  0  0  0  0  0  0  0  0
  188.8370  178.2250  148.9630 C   0  0  0  0  0  2  0  0  0  0  0  0
  189.1170  176.9670  146.9490 C   0  0  0  0  0  2  0  0  0  0  0  0
  1 27  1  0  0  0  0
  2 14  2  0  0  0  0
  3  7  1  0  0  0  0
  3 19  1  0  0  0  0
  4 18  1  0  0  0  0
  5 11  1  0  0  0  0
  7  6  1  0  0  0  0
  8 12  2  0  0  0  0
  9 25  1  0  0  0  0
 10 17  1  0  0  0  0
 11 20  2  0  0  0  0
 12 15  1  0  0  0  0
 13 24  1  0  0  0  0
 13  9  2  0  0  0  0
 15  5  2  0  0  0  0
 15  4  1  0  0  0  0
 16  8  1  0  0  0  0
 16  3  2  0  0  0  0
 17 28  1  1  0  0  0
 18 20  1  0  0  0  0
 18  1  2  0  0  0  0
 19  6  1  1  0  0  0
 19  5  1  0  0  0  0
 20 13  1  0  0  0  0
 21 26  2  0  0  0  0
 22 10  2  0  0  0  0
 23  4  2  0  0  0  0
 23 21  1  0  0  0  0
 24 22  1  0  0  0  0
 25 17  1  0  0  0  0
 25 14  1  1  0  0  0
 26  1  1  0  0  0  0
 27  9  1  0  0  0  0
 27  2  1  0  0  0  0
 28 29  1  0  0  0  0
 29 32  1  0  0  0  0
 30 33  1  0  0  0  0
 31 33  1  0  0  0  0
 32 31  1  0  0  0  0
 34 32  1  0  0  0  0
 34 30  1  0  0  0  0
M  END
>  <MODEL>
9

>  <REMARK>
 VINA RESULT:      -8.9      3.818      5.638
  Name = 
  3 active torsions:
  status: ('A' for Active; 'I' for Inactive)
    1  A    between atoms: C_17  and  O_28
    2  A    between atoms: O_28  and  C_29
    3  A    between atoms: C_29  and  N_32
                            x       y       z     vdW  Elec       q    Type
                         _______ _______ _______ _____ _____    ______ ____

>  <TORSDO>
F 3

$$$$
