=
 OpenBabel11122411543D

 28 32  0  0  1  0  0  0  0  0999 V2000
  186.1090  175.0700  136.7200 C   0  0  0  0  0  0  0  0  0  0  0  0
  183.0990  177.3540  134.5940 O   0  0  0  0  0  0  0  0  0  0  0  0
  184.2040  180.4960  139.0970 O   0  0  0  0  0  1  0  0  0  0  0  0
  184.9060  172.8310  137.9040 C   0  0  0  0  0  3  0  0  0  0  0  0
  182.8540  178.6460  139.7680 C   0  0  1  0  0  3  0  0  0  0  0  0
  186.8200  176.2520  136.1450 C   0  0  0  0  0  2  0  0  0  0  0  0
  181.9520  175.1810  134.5940 O   0  0  0  0  0  0  0  0  0  0  0  0
  182.0930  176.4940  135.3090 S   0  0  0  0  0  0  0  0  0  0  0  0
  180.2960  178.0820  136.3100 C   0  0  0  0  0  0  0  0  0  0  0  0
  182.5810  176.1950  136.9580 N   0  0  2  0  0  0  0  0  0  0  0  0
  187.9750  178.3180  138.9380 O   0  0  0  0  0  0  0  0  0  0  0  0
  184.1310  177.2090  138.3900 C   0  0  2  0  0  3  0  0  0  0  0  0
  181.3010  178.3480  137.3900 C   0  0  0  0  0  2  0  0  0  0  0  0
  180.5790  177.2930  135.3390 N   0  0  0  0  0  0  0  0  0  0  0  0
  187.2580  177.9550  137.9700 C   0  0  0  0  0  0  0  0  0  0  0  0
  184.7870  175.1610  137.2030 C   0  0  0  0  0  0  0  0  0  0  0  0
  184.2720  179.1940  139.5930 C   0  0  1  0  0  3  0  0  0  0  0  0
  178.9650  178.7470  136.3620 C   0  0  0  0  0  1  0  0  0  0  0  0
  185.9980  178.7010  137.6690 C   0  0  0  0  0  2  0  0  0  0  0  0
  184.2020  174.0330  137.8060 C   0  0  0  0  0  3  0  0  0  0  0  0
  186.8080  173.8630  136.8260 C   0  0  0  0  0  3  0  0  0  0  0  0
  186.2080  172.7450  137.4100 C   0  0  0  0  0  3  0  0  0  0  0  0
  187.6720  176.8510  137.1620 N   0  0  0  0  0  2  0  0  0  0  0  0
  182.8590  177.2630  139.1070 C   0  0  2  0  0  3  0  0  0  0  0  0
  184.8860  178.2820  138.5840 C   0  0  2  0  0  3  0  0  0  0  0  0
  181.8620  177.0290  137.9630 C   0  0  2  0  0  3  0  0  0  0  0  0
  182.5330  178.5100  141.2420 C   0  0  0  0  0  1  0  0  0  0  0  0
  184.0170  176.4550  137.1190 C   0  0  1  0  0  3  0  0  0  0  0  0
  1 21  2  0  0  0  0
  1 16  1  0  0  0  0
  2  8  2  0  0  0  0
  3 17  1  0  0  0  0
  5 27  1  1  0  0  0
  6  1  1  0  0  0  0
  6 23  1  0  0  0  0
  7  8  2  0  0  0  0
  8 14  1  0  0  0  0
  9 18  1  0  0  0  0
  9 13  1  0  0  0  0
 10  8  1  6  0  0  0
 10 28  1  0  0  0  0
 10 26  1  0  0  0  0
 12 25  1  0  0  0  0
 12 24  1  0  0  0  0
 13 26  1  0  0  0  0
 14  9  2  0  0  0  0
 15 11  2  0  0  0  0
 16 20  2  0  0  0  0
 17  5  1  0  0  0  0
 19 15  1  0  0  0  0
 19 25  1  0  0  0  0
 20  4  1  0  0  0  0
 21 22  1  0  0  0  0
 22  4  2  0  0  0  0
 23 15  1  0  0  0  0
 24  5  1  0  0  0  0
 25 17  1  0  0  0  0
 26 24  1  0  0  0  0
 28 16  1  0  0  0  0
 28 12  1  0  0  0  0
M  END
>  <MODEL>
1

>  <REMARK>
 VINA RESULT:      -6.0      0.000      0.000
  Name = 
  0 active torsions:
  status: ('A' for Active; 'I' for Inactive)
                            x       y       z     vdW  Elec       q    Type
                         _______ _______ _______ _____ _____    ______ ____

>  <TORSDO>
F 0

$$$$
=
 OpenBabel11122411543D

 28 32  0  0  1  0  0  0  0  0999 V2000
  181.4500  178.6690  142.5600 C   0  0  0  0  0  0  0  0  0  0  0  0
  179.7860  180.5390  139.0200 O   0  0  0  0  0  0  0  0  0  0  0  0
  179.1490  175.0600  138.0440 O   0  0  0  0  0  1  0  0  0  0  0  0
  184.2430  178.9080  142.5050 C   0  0  0  0  0  3  0  0  0  0  0  0
  181.4420  175.6330  137.7170 C   0  0  1  0  0  3  0  0  0  0  0  0
  179.9710  178.4770  142.6500 C   0  0  0  0  0  2  0  0  0  0  0  0
  181.9190  181.7560  139.0860 O   0  0  0  0  0  0  0  0  0  0  0  0
  181.1980  180.5740  138.5030 S   0  0  0  0  0  0  0  0  0  0  0  0
  181.1560  179.6400  136.0780 C   0  0  0  0  0  0  0  0  0  0  0  0
  182.0600  179.1160  138.9270 N   0  0  2  0  0  0  0  0  0  0  0  0
  179.3030  174.8860  142.3950 O   0  0  0  0  0  0  0  0  0  0  0  0
  181.3810  176.9960  139.6490 C   0  0  2  0  0  3  0  0  0  0  0  0
  181.0960  178.2890  136.7260 C   0  0  0  0  0  2  0  0  0  0  0  0
  181.1780  180.7040  136.7960 N   0  0  0  0  0  0  0  0  0  0  0  0
  179.3830  176.0890  142.0360 C   0  0  0  0  0  0  0  0  0  0  0  0
  182.1310  178.6280  141.3250 C   0  0  0  0  0  0  0  0  0  0  0  0
  180.3810  175.1260  138.6950 C   0  0  1  0  0  3  0  0  0  0  0  0
  181.1800  179.7460  134.5940 C   0  0  0  0  0  1  0  0  0  0  0  0
  179.1420  176.4460  140.6050 C   0  0  0  0  0  2  0  0  0  0  0  0
  183.5320  178.7360  141.3150 C   0  0  0  0  0  3  0  0  0  0  0  0
  182.1710  178.8390  143.7470 C   0  0  0  0  0  3  0  0  0  0  0  0
  183.5610  178.9640  143.7210 C   0  0  0  0  0  3  0  0  0  0  0  0
  179.6800  177.0960  143.0060 N   0  0  0  0  0  2  0  0  0  0  0  0
  182.1870  176.7510  138.4560 C   0  0  2  0  0  3  0  0  0  0  0  0
  180.3520  176.1680  139.7630 C   0  0  2  0  0  3  0  0  0  0  0  0
  182.1880  178.1420  137.8060 C   0  0  2  0  0  3  0  0  0  0  0  0
  182.4030  174.5130  137.3740 C   0  0  0  0  0  1  0  0  0  0  0  0
  181.3810  178.4270  140.0320 C   0  0  1  0  0  3  0  0  0  0  0  0
  1  6  1  0  0  0  0
  1 21  1  0  0  0  0
  3 17  1  0  0  0  0
  4 22  1  0  0  0  0
  5 27  1  1  0  0  0
  5 24  1  0  0  0  0
  5 17  1  0  0  0  0
  6 23  1  0  0  0  0
  8  2  2  0  0  0  0
  8  7  2  0  0  0  0
  9 13  1  0  0  0  0
  9 14  2  0  0  0  0
 10  8  1  6  0  0  0
 10 28  1  0  0  0  0
 12 25  1  0  0  0  0
 12 28  1  0  0  0  0
 13 26  1  0  0  0  0
 14  8  1  0  0  0  0
 15 11  2  0  0  0  0
 15 23  1  0  0  0  0
 16  1  2  0  0  0  0
 17 25  1  0  0  0  0
 18  9  1  0  0  0  0
 19 15  1  0  0  0  0
 20 16  1  0  0  0  0
 20  4  2  0  0  0  0
 22 21  2  0  0  0  0
 24 12  1  0  0  0  0
 25 19  1  0  0  0  0
 26 24  1  0  0  0  0
 26 10  1  0  0  0  0
 28 16  1  0  0  0  0
M  END
>  <MODEL>
2

>  <REMARK>
 VINA RESULT:      -5.1      3.631      6.480
  Name = 
  0 active torsions:
  status: ('A' for Active; 'I' for Inactive)
                            x       y       z     vdW  Elec       q    Type
                         _______ _______ _______ _____ _____    ______ ____

>  <TORSDO>
F 0

$$$$
=
 OpenBabel11122411543D

 28 32  0  0  1  0  0  0  0  0999 V2000
  181.4810  177.9740  137.3080 C   0  0  0  0  0  0  0  0  0  0  0  0
  183.1660  174.0840  138.2180 O   0  0  0  0  0  0  0  0  0  0  0  0
  187.6030  177.5010  138.3170 O   0  0  0  0  0  1  0  0  0  0  0  0
  180.7850  178.0680  134.5940 C   0  0  0  0  0  3  0  0  0  0  0  0
  186.9890  177.1120  136.0440 C   0  0  1  0  0  3  0  0  0  0  0  0
  181.8480  178.0130  138.7560 C   0  0  0  0  0  2  0  0  0  0  0  0
  181.8770  173.4470  136.2260 O   0  0  0  0  0  0  0  0  0  0  0  0
  183.2250  173.8780  136.7280 S   0  0  0  0  0  0  0  0  0  0  0  0
  185.6060  173.0020  136.1650 C   0  0  0  0  0  0  0  0  0  0  0  0
  183.6960  175.3460  135.9090 N   0  0  2  0  0  0  0  0  0  0  0  0
  184.5290  180.4750  139.1520 O   0  0  0  0  0  0  0  0  0  0  0  0
  184.7050  177.3350  136.6180 C   0  0  2  0  0  3  0  0  0  0  0  0
  186.0360  174.4320  136.2980 C   0  0  0  0  0  2  0  0  0  0  0  0
  184.3820  172.6700  136.3650 N   0  0  0  0  0  0  0  0  0  0  0  0
  183.9840  179.3450  139.0580 C   0  0  0  0  0  0  0  0  0  0  0  0
  182.2630  177.2780  136.3620 C   0  0  0  0  0  0  0  0  0  0  0  0
  186.8320  178.0110  137.2710 C   0  0  1  0  0  3  0  0  0  0  0  0
  186.6070  171.9600  135.8070 C   0  0  0  0  0  1  0  0  0  0  0  0
  184.8370  178.1210  138.9840 C   0  0  0  0  0  2  0  0  0  0  0  0
  181.9080  177.3460  135.0030 C   0  0  0  0  0  3  0  0  0  0  0  0
  180.3600  178.6970  136.8880 C   0  0  0  0  0  3  0  0  0  0  0  0
  180.0090  178.7400  135.5370 C   0  0  0  0  0  3  0  0  0  0  0  0
  182.5570  179.2510  139.0450 N   0  0  0  0  0  2  0  0  0  0  0  0
  185.5650  176.8330  135.5490 C   0  0  2  0  0  3  0  0  0  0  0  0
  185.3800  177.9180  137.6010 C   0  0  2  0  0  3  0  0  0  0  0  0
  185.1220  175.3650  135.4750 C   0  0  2  0  0  3  0  0  0  0  0  0
  187.7730  177.8380  134.9710 C   0  0  0  0  0  1  0  0  0  0  0  0
  183.4870  176.5070  136.7840 C   0  0  1  0  0  3  0  0  0  0  0  0
  1  6  1  0  0  0  0
  4 20  2  0  0  0  0
  4 22  1  0  0  0  0
  5 27  1  6  0  0  0
  5 17  1  0  0  0  0
  6 23  1  0  0  0  0
  7  8  2  0  0  0  0
  8  2  2  0  0  0  0
  9 13  1  0  0  0  0
  9 14  2  0  0  0  0
 10  8  1  1  0  0  0
 10 28  1  0  0  0  0
 12 28  1  0  0  0  0
 12 25  1  0  0  0  0
 14  8  1  0  0  0  0
 15 11  2  0  0  0  0
 16 28  1  0  0  0  0
 16  1  2  0  0  0  0
 17 25  1  0  0  0  0
 17  3  1  0  0  0  0
 18  9  1  0  0  0  0
 19 15  1  0  0  0  0
 20 16  1  0  0  0  0
 21  1  1  0  0  0  0
 22 21  2  0  0  0  0
 23 15  1  0  0  0  0
 24  5  1  0  0  0  0
 24 12  1  0  0  0  0
 25 19  1  0  0  0  0
 26 24  1  0  0  0  0
 26 10  1  0  0  0  0
 26 13  1  0  0  0  0
M  END
>  <MODEL>
3

>  <REMARK>
 VINA RESULT:      -4.9      1.974      5.429
  Name = 
  0 active torsions:
  status: ('A' for Active; 'I' for Inactive)
                            x       y       z     vdW  Elec       q    Type
                         _______ _______ _______ _____ _____    ______ ____

>  <TORSDO>
F 0

$$$$
=
 OpenBabel11122411543D

 28 32  0  0  1  0  0  0  0  0999 V2000
  181.5260  178.5670  141.7540 C   0  0  0  0  0  0  0  0  0  0  0  0
  181.3140  174.5160  140.2260 O   0  0  0  0  0  0  0  0  0  0  0  0
  183.3170  177.4560  135.9000 O   0  0  0  0  0  1  0  0  0  0  0  0
  178.9330  179.6120  141.9660 C   0  0  0  0  0  3  0  0  0  0  0  0
  180.9800  177.8930  136.1040 C   0  0  1  0  0  3  0  0  0  0  0  0
  182.9390  178.0940  141.6470 C   0  0  0  0  0  2  0  0  0  0  0  0
  179.0390  174.6610  141.1420 O   0  0  0  0  0  0  0  0  0  0  0  0
  179.8770  174.8240  139.9060 S   0  0  0  0  0  0  0  0  0  0  0  0
  179.4520  174.0650  137.4570 C   0  0  0  0  0  0  0  0  0  0  0  0
  179.7010  176.4550  139.3090 N   0  0  2  0  0  0  0  0  0  0  0  0
  184.5960  180.1300  139.0940 O   0  0  0  0  0  0  0  0  0  0  0  0
  181.2070  178.0300  138.4550 C   0  0  2  0  0  3  0  0  0  0  0  0
  180.1370  175.3410  137.0670 C   0  0  0  0  0  2  0  0  0  0  0  0
  179.3190  173.7510  138.6940 N   0  0  0  0  0  0  0  0  0  0  0  0
  184.0310  179.1300  139.6070 C   0  0  0  0  0  0  0  0  0  0  0  0
  180.5430  178.1930  140.8140 C   0  0  0  0  0  0  0  0  0  0  0  0
  182.3970  178.3310  136.4800 C   0  0  1  0  0  3  0  0  0  0  0  0
  178.9310  173.1550  136.4000 C   0  0  0  0  0  1  0  0  0  0  0  0
  183.6860  177.9600  138.7440 C   0  0  0  0  0  2  0  0  0  0  0  0
  179.2510  178.7360  140.9260 C   0  0  0  0  0  3  0  0  0  0  0  0
  181.1990  179.4480  142.7910 C   0  0  0  0  0  3  0  0  0  0  0  0
  179.9060  179.9650  142.9000 C   0  0  0  0  0  3  0  0  0  0  0  0
  183.7500  179.1220  141.0080 N   0  0  0  0  0  2  0  0  0  0  0  0
  180.1900  177.8750  137.4180 C   0  0  2  0  0  3  0  0  0  0  0  0
  182.4270  178.2080  137.9670 C   0  0  2  0  0  3  0  0  0  0  0  0
  179.5440  176.5440  137.8300 C   0  0  2  0  0  3  0  0  0  0  0  0
  180.3680  178.8970  135.1500 C   0  0  0  0  0  1  0  0  0  0  0  0
  180.8730  177.2600  139.6770 C   0  0  1  0  0  3  0  0  0  0  0  0
  1 21  1  0  0  0  0
  3 17  1  0  0  0  0
  4 22  1  0  0  0  0
  5 27  1  6  0  0  0
  5 17  1  0  0  0  0
  5 24  1  0  0  0  0
  6  1  1  0  0  0  0
  8  2  2  0  0  0  0
  8  7  2  0  0  0  0
  9 14  2  0  0  0  0
 10 28  1  0  0  0  0
 10  8  1  6  0  0  0
 11 15  2  0  0  0  0
 12 28  1  0  0  0  0
 13  9  1  0  0  0  0
 13 26  1  0  0  0  0
 14  8  1  0  0  0  0
 15 23  1  0  0  0  0
 16 20  1  0  0  0  0
 16  1  2  0  0  0  0
 17 25  1  0  0  0  0
 18  9  1  0  0  0  0
 19 15  1  0  0  0  0
 20  4  2  0  0  0  0
 21 22  2  0  0  0  0
 23  6  1  0  0  0  0
 24 26  1  0  0  0  0
 24 12  1  0  0  0  0
 25 12  1  0  0  0  0
 25 19  1  0  0  0  0
 26 10  1  0  0  0  0
 28 16  1  0  0  0  0
M  END
>  <MODEL>
4

>  <REMARK>
 VINA RESULT:      -4.6      3.375      5.852
  Name = 
  0 active torsions:
  status: ('A' for Active; 'I' for Inactive)
                            x       y       z     vdW  Elec       q    Type
                         _______ _______ _______ _____ _____    ______ ____

>  <TORSDO>
F 0

$$$$
=
 OpenBabel11122411543D

 28 32  0  0  1  0  0  0  0  0999 V2000
  183.3540  175.2640  135.8060 C   0  0  0  0  0  0  0  0  0  0  0  0
  181.4840  179.1440  135.3070 O   0  0  0  0  0  0  0  0  0  0  0  0
  184.9760  179.9050  139.6200 O   0  0  0  0  0  1  0  0  0  0  0  0
  181.4990  173.4800  136.9190 C   0  0  0  0  0  3  0  0  0  0  0  0
  183.0760  178.6780  140.3820 C   0  0  1  0  0  3  0  0  0  0  0  0
  184.4070  176.1580  135.2370 C   0  0  0  0  0  2  0  0  0  0  0  0
  179.4440  177.7750  135.3230 O   0  0  0  0  0  0  0  0  0  0  0  0
  180.3740  178.6010  136.1650 S   0  0  0  0  0  0  0  0  0  0  0  0
  179.8760  180.3780  137.9950 C   0  0  0  0  0  0  0  0  0  0  0  0
  181.0040  177.6130  137.4580 N   0  0  2  0  0  0  0  0  0  0  0  0
  187.0250  176.5340  137.7690 O   0  0  0  0  0  0  0  0  0  0  0  0
  183.1270  177.3690  138.4130 C   0  0  2  0  0  3  0  0  0  0  0  0
  181.0930  179.8370  138.6840 C   0  0  0  0  0  2  0  0  0  0  0  0
  179.5050  179.9020  136.8630 N   0  0  0  0  0  0  0  0  0  0  0  0
  186.0270  176.8360  137.0650 C   0  0  0  0  0  0  0  0  0  0  0  0
  182.3970  175.7370  136.7290 C   0  0  0  0  0  0  0  0  0  0  0  0
  184.4980  178.6100  139.8220 C   0  0  1  0  0  3  0  0  0  0  0  0
  179.1000  181.4810  138.6260 C   0  0  0  0  0  1  0  0  0  0  0  0
  185.2720  178.0910  137.3610 C   0  0  0  0  0  2  0  0  0  0  0  0
  181.4820  174.8270  137.2870 C   0  0  0  0  0  3  0  0  0  0  0  0
  183.3650  173.9130  135.4450 C   0  0  0  0  0  3  0  0  0  0  0  0
  182.4380  173.0240  135.9940 C   0  0  0  0  0  3  0  0  0  0  0  0
  185.6470  175.9850  135.9820 N   0  0  0  0  0  2  0  0  0  0  0  0
  182.2470  177.7140  139.5260 C   0  0  2  0  0  3  0  0  0  0  0  0
  184.3360  177.9040  138.5180 C   0  0  2  0  0  3  0  0  0  0  0  0
  181.0380  178.2980  138.7810 C   0  0  2  0  0  3  0  0  0  0  0  0
  183.0680  178.2220  141.8260 C   0  0  0  0  0  1  0  0  0  0  0  0
  182.3740  177.1840  137.1500 C   0  0  1  0  0  3  0  0  0  0  0  0
  1 16  1  0  0  0  0
  2  8  2  0  0  0  0
  3 17  1  0  0  0  0
  4 20  1  0  0  0  0
  5 27  1  1  0  0  0
  6  1  1  0  0  0  0
  6 23  1  0  0  0  0
  7  8  2  0  0  0  0
  8 14  1  0  0  0  0
  9 18  1  0  0  0  0
  9 13  1  0  0  0  0
 10  8  1  6  0  0  0
 10 26  1  0  0  0  0
 12 25  1  0  0  0  0
 12 24  1  0  0  0  0
 13 26  1  0  0  0  0
 14  9  2  0  0  0  0
 15 19  1  0  0  0  0
 15 11  2  0  0  0  0
 16 28  1  0  0  0  0
 16 20  2  0  0  0  0
 17  5  1  0  0  0  0
 19 25  1  0  0  0  0
 21  1  2  0  0  0  0
 21 22  1  0  0  0  0
 22  4  2  0  0  0  0
 23 15  1  0  0  0  0
 24  5  1  0  0  0  0
 25 17  1  0  0  0  0
 26 24  1  0  0  0  0
 28 10  1  0  0  0  0
 28 12  1  0  0  0  0
M  END
>  <MODEL>
5

>  <REMARK>
 VINA RESULT:      -4.5      2.121      2.450
  Name = 
  0 active torsions:
  status: ('A' for Active; 'I' for Inactive)
                            x       y       z     vdW  Elec       q    Type
                         _______ _______ _______ _____ _____    ______ ____

>  <TORSDO>
F 0

$$$$
=
 OpenBabel11122411543D

 28 32  0  0  1  0  0  0  0  0999 V2000
  189.2600  178.1830  138.9350 C   0  0  0  0  0  0  0  0  0  0  0  0
  192.0320  177.0440  135.8030 O   0  0  0  0  0  0  0  0  0  0  0  0
  187.4030  174.1310  134.5940 O   0  0  0  0  0  1  0  0  0  0  0  0
  190.0420  176.9820  141.3450 C   0  0  0  0  0  3  0  0  0  0  0  0
  188.4960  173.0950  136.4450 C   0  0  1  0  0  3  0  0  0  0  0  0
  188.7620  178.8380  137.6880 C   0  0  0  0  0  2  0  0  0  0  0  0
  193.5120  176.6720  137.7290 O   0  0  0  0  0  0  0  0  0  0  0  0
  192.5490  176.0210  136.7780 S   0  0  0  0  0  0  0  0  0  0  0  0
  192.6820  173.7530  135.5160 C   0  0  0  0  0  0  0  0  0  0  0  0
  191.2430  175.3060  137.6890 N   0  0  2  0  0  0  0  0  0  0  0  0
  185.5240  177.3390  136.8670 O   0  0  0  0  0  0  0  0  0  0  0  0
  188.9240  175.2220  137.3880 C   0  0  2  0  0  3  0  0  0  0  0  0
  191.2020  173.6750  135.7400 C   0  0  0  0  0  2  0  0  0  0  0  0
  193.3490  174.7720  135.9230 N   0  0  0  0  0  0  0  0  0  0  0  0
  186.7600  177.5630  136.7970 C   0  0  0  0  0  0  0  0  0  0  0  0
  189.8540  176.9040  138.9170 C   0  0  0  0  0  0  0  0  0  0  0  0
  187.4410  174.1040  135.9880 C   0  0  1  0  0  3  0  0  0  0  0  0
  193.3810  172.6440  134.8090 C   0  0  0  0  0  1  0  0  0  0  0  0
  187.6080  176.7290  135.8940 C   0  0  0  0  0  2  0  0  0  0  0  0
  190.2290  176.3100  140.1350 C   0  0  0  0  0  3  0  0  0  0  0  0
  189.0740  178.8480  140.1520 C   0  0  0  0  0  3  0  0  0  0  0  0
  189.4680  178.2530  141.3530 C   0  0  0  0  0  3  0  0  0  0  0  0
  187.3270  178.6270  137.5660 N   0  0  0  0  0  2  0  0  0  0  0  0
  189.3430  173.8270  137.4920 C   0  0  2  0  0  3  0  0  0  0  0  0
  187.9360  175.4070  136.5220 C   0  0  2  0  0  3  0  0  0  0  0  0
  190.8500  173.9480  137.2170 C   0  0  2  0  0  3  0  0  0  0  0  0
  187.8220  171.8950  137.0760 C   0  0  0  0  0  1  0  0  0  0  0  0
  190.0490  176.1570  137.6220 C   0  0  1  0  0  3  0  0  0  0  0  0
  1 21  1  0  0  0  0
  2  8  2  0  0  0  0
  3 17  1  0  0  0  0
  4 22  1  0  0  0  0
  5 27  1  1  0  0  0
  5 24  1  0  0  0  0
  6  1  1  0  0  0  0
  8  7  2  0  0  0  0
  9 13  1  0  0  0  0
  9 14  2  0  0  0  0
 10  8  1  6  0  0  0
 12 24  1  0  0  0  0
 12 28  1  0  0  0  0
 13 26  1  0  0  0  0
 14  8  1  0  0  0  0
 15 11  2  0  0  0  0
 15 23  1  0  0  0  0
 16  1  2  0  0  0  0
 16 20  1  0  0  0  0
 17  5  1  0  0  0  0
 17 25  1  0  0  0  0
 18  9  1  0  0  0  0
 19 25  1  0  0  0  0
 19 15  1  0  0  0  0
 20  4  2  0  0  0  0
 21 22  2  0  0  0  0
 23  6  1  0  0  0  0
 25 12  1  0  0  0  0
 26 24  1  0  0  0  0
 26 10  1  0  0  0  0
 28 10  1  0  0  0  0
 28 16  1  0  0  0  0
M  END
>  <MODEL>
6

>  <REMARK>
 VINA RESULT:      -4.5      4.599      8.322
  Name = 
  0 active torsions:
  status: ('A' for Active; 'I' for Inactive)
                            x       y       z     vdW  Elec       q    Type
                         _______ _______ _______ _____ _____    ______ ____

>  <TORSDO>
F 0

$$$$
=
 OpenBabel11122411543D

 28 32  0  0  1  0  0  0  0  0999 V2000
  189.9740  175.3240  136.5340 C   0  0  0  0  0  0  0  0  0  0  0  0
  187.9190  176.9520  139.9870 O   0  0  0  0  0  0  0  0  0  0  0  0
  184.0740  173.6570  137.5930 O   0  0  0  0  0  1  0  0  0  0  0  0
  190.2530  177.3290  134.5940 C   0  0  0  0  0  3  0  0  0  0  0  0
  184.2720  175.6580  136.3080 C   0  0  1  0  0  3  0  0  0  0  0  0
  189.8420  174.1950  137.5030 C   0  0  0  0  0  2  0  0  0  0  0  0
  188.7860  179.0610  139.0720 O   0  0  0  0  0  0  0  0  0  0  0  0
  187.6050  178.1340  139.1100 S   0  0  0  0  0  0  0  0  0  0  0  0
  185.0670  178.6300  139.3660 C   0  0  0  0  0  0  0  0  0  0  0  0
  187.2240  177.6280  137.4840 N   0  0  2  0  0  0  0  0  0  0  0  0
  187.6250  171.6980  136.0010 O   0  0  0  0  0  0  0  0  0  0  0  0
  186.6250  175.5740  136.5340 C   0  0  2  0  0  3  0  0  0  0  0  0
  184.8670  177.4830  138.4230 C   0  0  0  0  0  2  0  0  0  0  0  0
  186.2480  178.9660  139.7410 N   0  0  0  0  0  0  0  0  0  0  0  0
  187.9860  172.6400  136.7530 C   0  0  0  0  0  0  0  0  0  0  0  0
  188.9670  176.3020  136.3890 C   0  0  0  0  0  0  0  0  0  0  0  0
  184.7390  174.2140  136.5010 C   0  0  1  0  0  3  0  0  0  0  0  0
  183.8860  179.3780  139.8800 C   0  0  0  0  0  1  0  0  0  0  0  0
  186.9680  173.3400  137.5930 C   0  0  0  0  0  2  0  0  0  0  0  0
  189.1150  177.2920  135.4030 C   0  0  0  0  0  3  0  0  0  0  0  0
  191.1090  175.3670  135.7160 C   0  0  0  0  0  3  0  0  0  0  0  0
  191.2510  176.3680  134.7530 C   0  0  0  0  0  3  0  0  0  0  0  0
  189.3660  173.0080  136.8070 N   0  0  0  0  0  2  0  0  0  0  0  0
  185.5500  176.4920  136.1640 C   0  0  2  0  0  3  0  0  0  0  0  0
  186.1970  174.3460  136.7900 C   0  0  2  0  0  3  0  0  0  0  0  0
  185.7660  177.6270  137.1770 C   0  0  2  0  0  3  0  0  0  0  0  0
  183.4420  175.7660  135.0460 C   0  0  0  0  0  1  0  0  0  0  0  0
  187.7250  176.2690  137.2440 C   0  0  1  0  0  3  0  0  0  0  0  0
  1  6  1  0  0  0  0
  4 22  2  0  0  0  0
  4 20  1  0  0  0  0
  5 27  1  6  0  0  0
  5 17  1  0  0  0  0
  7  8  2  0  0  0  0
  8 14  1  0  0  0  0
  8  2  2  0  0  0  0
  9 14  2  0  0  0  0
  9 18  1  0  0  0  0
 10  8  1  1  0  0  0
 11 15  2  0  0  0  0
 12 25  1  0  0  0  0
 12 28  1  0  0  0  0
 13  9  1  0  0  0  0
 15 23  1  0  0  0  0
 15 19  1  0  0  0  0
 16  1  1  0  0  0  0
 16 28  1  0  0  0  0
 17 25  1  0  0  0  0
 17  3  1  0  0  0  0
 20 16  2  0  0  0  0
 21  1  2  0  0  0  0
 22 21  1  0  0  0  0
 23  6  1  0  0  0  0
 24  5  1  0  0  0  0
 24 12  1  0  0  0  0
 24 26  1  0  0  0  0
 25 19  1  0  0  0  0
 26 10  1  0  0  0  0
 26 13  1  0  0  0  0
 28 10  1  0  0  0  0
M  END
>  <MODEL>
7

>  <REMARK>
 VINA RESULT:      -4.3      3.183      5.746
  Name = 
  0 active torsions:
  status: ('A' for Active; 'I' for Inactive)
                            x       y       z     vdW  Elec       q    Type
                         _______ _______ _______ _____ _____    ______ ____

>  <TORSDO>
F 0

$$$$
=
 OpenBabel11122411543D

 28 32  0  0  1  0  0  0  0  0999 V2000
  185.2860  175.4480  137.2280 C   0  0  0  0  0  0  0  0  0  0  0  0
  182.6790  176.5370  140.5170 O   0  0  0  0  0  0  0  0  0  0  0  0
  179.2230  176.2950  136.1150 O   0  0  0  0  0  1  0  0  0  0  0  0
  186.8810  177.6500  136.5450 C   0  0  0  0  0  3  0  0  0  0  0  0
  180.4980  178.3080  135.9760 C   0  0  1  0  0  3  0  0  0  0  0  0
  184.4570  174.2380  137.5130 C   0  0  0  0  0  2  0  0  0  0  0  0
  184.4290  178.2210  140.8890 O   0  0  0  0  0  0  0  0  0  0  0  0
  183.1000  177.9550  140.2420 S   0  0  0  0  0  0  0  0  0  0  0  0
  180.9390  179.3970  140.1520 C   0  0  0  0  0  0  0  0  0  0  0  0
  183.2310  178.2510  138.5270 N   0  0  2  0  0  0  0  0  0  0  0  0
  182.3290  173.6430  134.5940 O   0  0  0  0  0  0  0  0  0  0  0  0
  182.4400  177.1280  136.6320 C   0  0  2  0  0  3  0  0  0  0  0  0
  180.7720  178.8490  138.7670 C   0  0  0  0  0  2  0  0  0  0  0  0
  181.9310  179.0310  140.8810 N   0  0  0  0  0  0  0  0  0  0  0  0
  182.6460  174.0140  135.7540 C   0  0  0  0  0  0  0  0  0  0  0  0
  184.7620  176.7530  137.3420 C   0  0  0  0  0  0  0  0  0  0  0  0
  180.3900  176.8360  135.5740 C   0  0  1  0  0  3  0  0  0  0  0  0
  179.9430  180.3640  140.6880 C   0  0  0  0  0  1  0  0  0  0  0  0
  181.6530  174.7590  136.5840 C   0  0  0  0  0  2  0  0  0  0  0  0
  185.5700  177.8460  136.9830 C   0  0  0  0  0  3  0  0  0  0  0  0
  186.6010  175.2620  136.7860 C   0  0  0  0  0  3  0  0  0  0  0  0
  187.3980  176.3580  136.4500 C   0  0  0  0  0  3  0  0  0  0  0  0
  183.9430  173.6950  136.2640 N   0  0  0  0  0  2  0  0  0  0  0  0
  181.9240  178.4880  136.5100 C   0  0  2  0  0  3  0  0  0  0  0  0
  181.5930  176.2060  136.1940 C   0  0  2  0  0  3  0  0  0  0  0  0
  182.0750  178.9950  137.9520 C   0  0  2  0  0  3  0  0  0  0  0  0
  180.2870  179.1900  134.7630 C   0  0  0  0  0  1  0  0  0  0  0  0
  183.3430  176.9820  137.7980 C   0  0  1  0  0  3  0  0  0  0  0  0
  1 16  1  0  0  0  0
  1  6  1  0  0  0  0
  4 20  1  0  0  0  0
  5 27  1  6  0  0  0
  5 24  1  0  0  0  0
  8  2  2  0  0  0  0
  8 14  1  0  0  0  0
  8  7  2  0  0  0  0
  9 18  1  0  0  0  0
  9 14  2  0  0  0  0
 10  8  1  1  0  0  0
 11 15  2  0  0  0  0
 12 28  1  0  0  0  0
 13  9  1  0  0  0  0
 15 23  1  0  0  0  0
 15 19  1  0  0  0  0
 16 28  1  0  0  0  0
 17  5  1  0  0  0  0
 17  3  1  0  0  0  0
 17 25  1  0  0  0  0
 20 16  2  0  0  0  0
 21  1  2  0  0  0  0
 22  4  2  0  0  0  0
 22 21  1  0  0  0  0
 23  6  1  0  0  0  0
 24 12  1  0  0  0  0
 24 26  1  0  0  0  0
 25 19  1  0  0  0  0
 25 12  1  0  0  0  0
 26 10  1  0  0  0  0
 26 13  1  0  0  0  0
 28 10  1  0  0  0  0
M  END
>  <MODEL>
8

>  <REMARK>
 VINA RESULT:      -4.2      2.403      4.828
  Name = 
  0 active torsions:
  status: ('A' for Active; 'I' for Inactive)
                            x       y       z     vdW  Elec       q    Type
                         _______ _______ _______ _____ _____    ______ ____

>  <TORSDO>
F 0

$$$$
=
 OpenBabel11122411543D

 28 32  0  0  1  0  0  0  0  0999 V2000
  185.2020  174.9120  136.8360 C   0  0  0  0  0  0  0  0  0  0  0  0
  183.2670  176.8950  140.1700 O   0  0  0  0  0  0  0  0  0  0  0  0
  178.9920  175.2820  136.9300 O   0  0  0  0  0  1  0  0  0  0  0  0
  186.4270  176.8330  135.2020 C   0  0  0  0  0  3  0  0  0  0  0  0
  180.0350  177.1810  135.9300 C   0  0  1  0  0  3  0  0  0  0  0  0
  184.5560  173.8300  137.6390 C   0  0  0  0  0  2  0  0  0  0  0  0
  184.9090  178.6410  139.6330 O   0  0  0  0  0  0  0  0  0  0  0  0
  183.5000  178.1720  139.4090 S   0  0  0  0  0  0  0  0  0  0  0  0
  181.2560  179.4830  139.3990 C   0  0  0  0  0  0  0  0  0  0  0  0
  183.2400  177.9400  137.6990 N   0  0  2  0  0  0  0  0  0  0  0  0
  181.9170  172.3490  135.5790 O   0  0  0  0  0  0  0  0  0  0  0  0
  182.1640  176.2860  136.4410 C   0  0  2  0  0  3  0  0  0  0  0  0
  180.8460  178.5410  138.3060 C   0  0  0  0  0  2  0  0  0  0  0  0
  182.4060  179.3700  139.9570 N   0  0  0  0  0  0  0  0  0  0  0  0
  182.4400  173.0560  136.4780 C   0  0  0  0  0  0  0  0  0  0  0  0
  184.6060  176.1810  136.6830 C   0  0  0  0  0  0  0  0  0  0  0  0
  179.9690  175.6550  136.0060 C   0  0  1  0  0  3  0  0  0  0  0  0
  180.3180  180.5500  139.8440 C   0  0  0  0  0  1  0  0  0  0  0  0
  181.5860  174.0000  137.2600 C   0  0  0  0  0  2  0  0  0  0  0  0
  185.2250  177.1290  135.8500 C   0  0  0  0  0  3  0  0  0  0  0  0
  186.4040  174.6230  136.1800 C   0  0  0  0  0  3  0  0  0  0  0  0
  187.0180  175.5810  135.3700 C   0  0  0  0  0  3  0  0  0  0  0  0
  183.8370  172.9270  136.7510 N   0  0  0  0  0  2  0  0  0  0  0  0
  181.5210  177.5380  136.0510 C   0  0  2  0  0  3  0  0  0  0  0  0
  181.3240  175.2610  136.4920 C   0  0  2  0  0  3  0  0  0  0  0  0
  181.9300  178.4570  137.2110 C   0  0  2  0  0  3  0  0  0  0  0  0
  179.4990  177.6540  134.5950 C   0  0  0  0  0  1  0  0  0  0  0  0
  183.3020  176.5130  137.3630 C   0  0  1  0  0  3  0  0  0  0  0  0
  1  6  1  0  0  0  0
  4 22  2  0  0  0  0
  4 20  1  0  0  0  0
  5 27  1  6  0  0  0
  5 17  1  0  0  0  0
  5 24  1  0  0  0  0
  8  7  2  0  0  0  0
  8 14  1  0  0  0  0
  8  2  2  0  0  0  0
  9 18  1  0  0  0  0
  9 14  2  0  0  0  0
 10  8  1  1  0  0  0
 11 15  2  0  0  0  0
 12 25  1  0  0  0  0
 12 28  1  0  0  0  0
 13  9  1  0  0  0  0
 15 23  1  0  0  0  0
 15 19  1  0  0  0  0
 16  1  1  0  0  0  0
 16 28  1  0  0  0  0
 17 25  1  0  0  0  0
 17  3  1  0  0  0  0
 20 16  2  0  0  0  0
 21  1  2  0  0  0  0
 22 21  1  0  0  0  0
 23  6  1  0  0  0  0
 24 12  1  0  0  0  0
 24 26  1  0  0  0  0
 25 19  1  0  0  0  0
 26 10  1  0  0  0  0
 26 13  1  0  0  0  0
 28 10  1  0  0  0  0
M  END
>  <MODEL>
9

>  <REMARK>
 VINA RESULT:      -4.2      2.493      4.886
  Name = 
  0 active torsions:
  status: ('A' for Active; 'I' for Inactive)
                            x       y       z     vdW  Elec       q    Type
                         _______ _______ _______ _____ _____    ______ ____

>  <TORSDO>
F 0

$$$$
