=
 OpenBabel11122410273D

 30 35  0  0  1  0  0  0  0  0999 V2000
  186.2360  178.4210  141.7350 C   0  0  0  0  0  0  0  0  0  0  0  0
  183.7710  178.9110  141.4980 C   0  0  0  0  0  0  0  0  0  0  0  0
  185.8550  178.0420  145.8150 N   0  0  0  0  0  2  0  0  0  0  0  0
  187.3460  178.0770  142.5690 C   0  0  0  0  0  0  0  0  0  0  0  0
  186.4520  178.5600  140.4020 N   0  0  0  0  0  0  0  0  0  0  0  0
  189.8430  177.6840  140.0920 O   0  0  0  0  0  0  0  0  0  0  0  0
  190.2010  178.0910  143.7830 C   0  0  1  0  0  3  0  0  0  0  0  0
  188.7260  177.9280  140.6300 C   0  0  0  0  0  0  0  0  0  0  0  0
  189.4310  178.0820  145.0900 C   0  0  2  0  0  3  0  0  0  0  0  0
  187.1660  177.8900  146.0940 C   0  0  0  0  0  0  0  0  0  0  0  0
  187.6620  178.3520  139.8350 C   0  0  0  0  0  0  0  0  0  0  0  0
  188.5510  177.7640  141.9790 N   0  0  0  0  0  0  0  0  0  0  0  0
  182.5210  179.0390  142.1090 C   0  0  0  0  0  3  0  0  0  0  0  0
  190.1190  177.0550  145.9650 C   0  0  0  0  0  2  0  0  0  0  0  0
  191.6170  177.6720  144.1450 C   0  0  0  0  0  2  0  0  0  0  0  0
  183.7790  179.1780  139.7560 Cl  0  0  0  0  0  0  0  0  0  0  0  0
  185.8470  178.1320  144.4740 C   0  0  0  0  0  0  0  0  0  0  0  0
  182.3700  178.8600  143.4810 C   0  0  0  0  0  3  0  0  0  0  0  0
  184.9220  178.5890  142.2800 C   0  0  0  0  0  0  0  0  0  0  0  0
  187.1150  178.0110  143.9640 C   0  0  0  0  0  0  0  0  0  0  0  0
  187.5950  177.8310  147.2770 O   0  0  0  0  0  0  0  0  0  0  0  0
  187.9770  177.8640  145.0040 N   0  0  0  0  0  0  0  0  0  0  0  0
  191.5780  177.1190  145.5620 C   0  0  0  0  0  2  0  0  0  0  0  0
  189.3200  175.7320  143.1750 C   0  0  0  0  0  1  0  0  0  0  0  0
  183.4760  178.5510  144.2650 C   0  0  0  0  0  3  0  0  0  0  0  0
  184.7400  178.4110  143.6800 C   0  0  0  0  0  0  0  0  0  0  0  0
  189.6520  177.1530  142.7190 C   0  0  2  0  0  3  0  0  0  0  0  0
  187.8350  178.5270  138.4270 N   0  0  0  0  0  2  0  0  0  0  0  0
  186.3530  177.7690  136.8570 C   0  0  0  0  0  1  0  0  0  0  0  0
  186.7720  178.9350  137.6120 N   0  0  0  0  0  2  0  0  0  0  0  0
  1 19  2  0  0  0  0
  1  4  1  0  0  0  0
  2 13  2  0  0  0  0
  2 19  1  0  0  0  0
  3 10  1  0  0  0  0
  4 20  2  0  0  0  0
  5  1  1  0  0  0  0
  6  8  2  0  0  0  0
  7 15  1  1  0  0  0
  7  9  1  0  0  0  0
  8 12  1  0  0  0  0
  9 14  1  1  0  0  0
 10 21  2  0  0  0  0
 11  5  2  0  0  0  0
 11  8  1  0  0  0  0
 12  4  1  0  0  0  0
 12 27  1  0  0  0  0
 13 18  1  0  0  0  0
 15 23  1  0  0  0  0
 16  2  1  0  0  0  0
 17  3  1  0  0  0  0
 18 25  2  0  0  0  0
 19 26  1  0  0  0  0
 20 17  1  0  0  0  0
 20 22  1  0  0  0  0
 22  9  1  0  0  0  0
 22 10  1  0  0  0  0
 23 14  1  0  0  0  0
 26 25  1  0  0  0  0
 26 17  2  0  0  0  0
 27 24  1  1  0  0  0
 27  7  1  0  0  0  0
 28 11  1  0  0  0  0
 29 30  1  0  0  0  0
 30 28  1  0  0  0  0
M  END
>  <MODEL>
1

>  <REMARK>
 VINA RESULT:     -11.5      0.000      0.000
  Name = 
  1 active torsions:
  status: ('A' for Active; 'I' for Inactive)
    1  A    between atoms: N_28  and  N_30
                            x       y       z     vdW  Elec       q    Type
                         _______ _______ _______ _____ _____    ______ ____

>  <TORSDO>
F 1

$$$$
=
 OpenBabel11122410273D

 30 35  0  0  1  0  0  0  0  0999 V2000
  188.9260  177.4300  143.4800 C   0  0  0  0  0  0  0  0  0  0  0  0
  190.9950  176.7550  144.7590 C   0  0  0  0  0  0  0  0  0  0  0  0
  186.8060  177.8810  146.9790 N   0  0  0  0  0  2  0  0  0  0  0  0
  187.5670  177.8740  143.4880 C   0  0  0  0  0  0  0  0  0  0  0  0
  189.5440  177.2740  142.2820 N   0  0  0  0  0  0  0  0  0  0  0  0
  187.0950  178.3870  140.0180 O   0  0  0  0  0  0  0  0  0  0  0  0
  184.5630  178.0980  142.7440 C   0  0  1  0  0  3  0  0  0  0  0  0
  187.6430  178.0750  141.1130 C   0  0  0  0  0  0  0  0  0  0  0  0
  184.3920  178.0830  144.2510 C   0  0  2  0  0  3  0  0  0  0  0  0
  185.6070  178.1340  146.4180 C   0  0  0  0  0  0  0  0  0  0  0  0
  188.9370  177.5550  141.1070 C   0  0  0  0  0  0  0  0  0  0  0  0
  186.9840  178.2590  142.3000 N   0  0  0  0  0  0  0  0  0  0  0  0
  191.6140  176.5520  145.9960 C   0  0  0  0  0  3  0  0  0  0  0  0
  183.3940  179.1790  144.5610 C   0  0  0  0  0  2  0  0  0  0  0  0
  183.2490  178.6280  142.1930 C   0  0  0  0  0  2  0  0  0  0  0  0
  192.0160  176.4470  143.3570 Cl  0  0  0  0  0  0  0  0  0  0  0  0
  187.6120  177.7570  145.9100 C   0  0  0  0  0  0  0  0  0  0  0  0
  190.9230  176.7530  147.1870 C   0  0  0  0  0  3  0  0  0  0  0  0
  189.6330  177.1800  144.7010 C   0  0  0  0  0  0  0  0  0  0  0  0
  186.9180  177.9570  144.7440 C   0  0  0  0  0  0  0  0  0  0  0  0
  184.5580  178.2540  147.1080 O   0  0  0  0  0  0  0  0  0  0  0  0
  185.6170  178.1930  145.0610 N   0  0  0  0  0  0  0  0  0  0  0  0
  182.4700  179.2120  143.3620 C   0  0  0  0  0  2  0  0  0  0  0  0
  185.8020  180.3700  142.8430 C   0  0  0  0  0  1  0  0  0  0  0  0
  189.5950  177.1620  147.1560 C   0  0  0  0  0  3  0  0  0  0  0  0
  188.9500  177.3780  145.9340 C   0  0  0  0  0  0  0  0  0  0  0  0
  185.7080  178.9670  142.2450 C   0  0  2  0  0  3  0  0  0  0  0  0
  189.6320  177.3590  139.8740 N   0  0  0  0  0  2  0  0  0  0  0  0
  191.1870  176.4010  138.4950 C   0  0  0  0  0  1  0  0  0  0  0  0
  190.9380  176.8540  139.8510 N   0  0  0  0  0  2  0  0  0  0  0  0
  1  4  2  0  0  0  0
  1 19  1  0  0  0  0
  2 13  1  0  0  0  0
  4 20  1  0  0  0  0
  5  1  1  0  0  0  0
  6  8  2  0  0  0  0
  7 15  1  6  0  0  0
  7  9  1  0  0  0  0
  8 12  1  0  0  0  0
  9 14  1  6  0  0  0
  9 22  1  0  0  0  0
 10  3  1  0  0  0  0
 10 21  2  0  0  0  0
 11  8  1  0  0  0  0
 11  5  2  0  0  0  0
 12  4  1  0  0  0  0
 13 18  2  0  0  0  0
 15 23  1  0  0  0  0
 16  2  1  0  0  0  0
 17 26  1  0  0  0  0
 17  3  1  0  0  0  0
 19  2  2  0  0  0  0
 19 26  1  0  0  0  0
 20 22  1  0  0  0  0
 20 17  2  0  0  0  0
 22 10  1  0  0  0  0
 23 14  1  0  0  0  0
 25 18  1  0  0  0  0
 26 25  2  0  0  0  0
 27 12  1  0  0  0  0
 27  7  1  0  0  0  0
 27 24  1  1  0  0  0
 28 11  1  0  0  0  0
 29 30  1  0  0  0  0
 30 28  1  0  0  0  0
M  END
>  <MODEL>
2

>  <REMARK>
 VINA RESULT:     -10.5      2.445      5.519
  Name = 
  1 active torsions:
  status: ('A' for Active; 'I' for Inactive)
    1  A    between atoms: N_28  and  N_30
                            x       y       z     vdW  Elec       q    Type
                         _______ _______ _______ _____ _____    ______ ____

>  <TORSDO>
F 1

$$$$
=
 OpenBabel11122410273D

 30 35  0  0  1  0  0  0  0  0999 V2000
  187.0090  177.8940  144.5840 C   0  0  0  0  0  0  0  0  0  0  0  0
  184.6980  178.5070  145.3920 C   0  0  0  0  0  0  0  0  0  0  0  0
  185.9940  178.8280  140.7060 N   0  0  0  0  0  2  0  0  0  0  0  0
  187.9530  177.8040  143.5120 C   0  0  0  0  0  0  0  0  0  0  0  0
  187.4140  177.5350  145.8280 N   0  0  0  0  0  0  0  0  0  0  0  0
  190.8180  176.8050  145.3340 O   0  0  0  0  0  0  0  0  0  0  0  0
  190.1720  176.6730  141.6620 C   0  0  1  0  0  3  0  0  0  0  0  0
  189.6250  177.1310  145.0730 C   0  0  0  0  0  0  0  0  0  0  0  0
  189.2330  177.1550  140.5720 C   0  0  2  0  0  3  0  0  0  0  0  0
  187.1420  178.4210  140.1280 C   0  0  0  0  0  0  0  0  0  0  0  0
  188.6770  177.1320  146.0960 C   0  0  0  0  0  0  0  0  0  0  0  0
  189.2640  177.4950  143.8030 N   0  0  0  0  0  0  0  0  0  0  0  0
  183.4270  179.0030  145.0910 C   0  0  0  0  0  3  0  0  0  0  0  0
  190.1090  177.8640  139.5600 C   0  0  0  0  0  2  0  0  0  0  0  0
  191.5140  176.4670  140.9780 C   0  0  0  0  0  2  0  0  0  0  0  0
  184.9500  178.0830  147.0830 Cl  0  0  0  0  0  0  0  0  0  0  0  0
  186.2270  178.6100  142.0120 C   0  0  0  0  0  0  0  0  0  0  0  0
  183.0890  179.3740  143.7920 C   0  0  0  0  0  3  0  0  0  0  0  0
  185.6780  178.3750  144.3620 C   0  0  0  0  0  0  0  0  0  0  0  0
  187.4890  178.1110  142.2110 C   0  0  0  0  0  0  0  0  0  0  0  0
  187.2930  178.4110  138.8760 O   0  0  0  0  0  0  0  0  0  0  0  0
  188.0860  177.9750  140.9970 N   0  0  0  0  0  0  0  0  0  0  0  0
  191.4310  177.1280  139.6100 C   0  0  0  0  0  2  0  0  0  0  0  0
  190.5940  179.1010  142.4600 C   0  0  0  0  0  1  0  0  0  0  0  0
  184.0240  179.2500  142.7710 C   0  0  0  0  0  3  0  0  0  0  0  0
  185.3070  178.7600  143.0430 C   0  0  0  0  0  0  0  0  0  0  0  0
  190.3400  177.6390  142.8250 C   0  0  2  0  0  3  0  0  0  0  0  0
  189.0440  176.7530  147.4230 N   0  0  0  0  0  2  0  0  0  0  0  0
  188.1050  178.1130  149.0060 C   0  0  0  0  0  1  0  0  0  0  0  0
  188.1080  176.7670  148.4660 N   0  0  0  0  0  2  0  0  0  0  0  0
  1  5  1  0  0  0  0
  2 16  1  0  0  0  0
  3 17  1  0  0  0  0
  4 12  1  0  0  0  0
  4  1  2  0  0  0  0
  5 11  2  0  0  0  0
  7 15  1  6  0  0  0
  7 27  1  0  0  0  0
  8  6  2  0  0  0  0
  8 11  1  0  0  0  0
  9 14  1  6  0  0  0
  9 22  1  0  0  0  0
  9  7  1  0  0  0  0
 10  3  1  0  0  0  0
 10 22  1  0  0  0  0
 11 28  1  0  0  0  0
 12  8  1  0  0  0  0
 13  2  1  0  0  0  0
 14 23  1  0  0  0  0
 17 20  2  0  0  0  0
 17 26  1  0  0  0  0
 18 13  2  0  0  0  0
 19  1  1  0  0  0  0
 19  2  2  0  0  0  0
 20  4  1  0  0  0  0
 21 10  2  0  0  0  0
 22 20  1  0  0  0  0
 23 15  1  0  0  0  0
 25 26  2  0  0  0  0
 25 18  1  0  0  0  0
 26 19  1  0  0  0  0
 27 24  1  6  0  0  0
 27 12  1  0  0  0  0
 28 30  1  0  0  0  0
 30 29  1  0  0  0  0
M  END
>  <MODEL>
3

>  <REMARK>
 VINA RESULT:      -9.3      2.261      5.417
  Name = 
  1 active torsions:
  status: ('A' for Active; 'I' for Inactive)
    1  A    between atoms: N_28  and  N_30
                            x       y       z     vdW  Elec       q    Type
                         _______ _______ _______ _____ _____    ______ ____

>  <TORSDO>
F 1

$$$$
=
 OpenBabel11122410273D

 30 35  0  0  1  0  0  0  0  0999 V2000
  185.8700  178.3310  142.2390 C   0  0  0  0  0  0  0  0  0  0  0  0
  186.5980  178.2570  144.6550 C   0  0  0  0  0  0  0  0  0  0  0  0
  181.9400  178.8440  143.3500 N   0  0  0  0  0  2  0  0  0  0  0  0
  184.8270  178.4990  141.2740 C   0  0  0  0  0  0  0  0  0  0  0  0
  187.1350  178.1340  141.7900 N   0  0  0  0  0  0  0  0  0  0  0  0
  186.7540  178.4230  138.3070 O   0  0  0  0  0  0  0  0  0  0  0  0
  183.0720  178.0290  138.7600 C   0  0  1  0  0  3  0  0  0  0  0  0
  186.4520  178.3790  139.5330 C   0  0  0  0  0  0  0  0  0  0  0  0
  181.9430  178.1900  139.7610 C   0  0  2  0  0  3  0  0  0  0  0  0
  181.4050  178.7780  142.1140 C   0  0  0  0  0  0  0  0  0  0  0  0
  187.4480  178.1250  140.4740 C   0  0  0  0  0  0  0  0  0  0  0  0
  185.1620  178.5940  139.9410 N   0  0  0  0  0  0  0  0  0  0  0  0
  186.2480  178.3520  146.0050 C   0  0  0  0  0  3  0  0  0  0  0  0
  180.9330  179.1030  139.0960 C   0  0  0  0  0  2  0  0  0  0  0  0
  182.4290  178.2100  137.3940 C   0  0  0  0  0  2  0  0  0  0  0  0
  188.3070  177.9620  144.3480 Cl  0  0  0  0  0  0  0  0  0  0  0  0
  183.2580  178.7310  143.1090 C   0  0  0  0  0  0  0  0  0  0  0  0
  184.9300  178.5790  146.3920 C   0  0  0  0  0  3  0  0  0  0  0  0
  185.5980  178.3960  143.6440 C   0  0  0  0  0  0  0  0  0  0  0  0
  183.5050  178.6290  141.7630 C   0  0  0  0  0  0  0  0  0  0  0  0
  180.1590  178.7860  141.9240 O   0  0  0  0  0  0  0  0  0  0  0  0
  182.3120  178.6480  141.1110 N   0  0  0  0  0  0  0  0  0  0  0  0
  181.0400  178.7880  137.6190 C   0  0  0  0  0  2  0  0  0  0  0  0
  183.8050  180.4900  139.0940 C   0  0  0  0  0  1  0  0  0  0  0  0
  183.9390  178.7130  145.4270 C   0  0  0  0  0  3  0  0  0  0  0  0
  184.2590  178.6270  144.0670 C   0  0  0  0  0  0  0  0  0  0  0  0
  184.2090  179.0260  138.9210 C   0  0  2  0  0  3  0  0  0  0  0  0
  188.7960  177.8980  140.0580 N   0  0  0  0  0  2  0  0  0  0  0  0
  190.9420  177.1280  140.2530 C   0  0  0  0  0  1  0  0  0  0  0  0
  189.8120  177.6590  140.9920 N   0  0  0  0  0  2  0  0  0  0  0  0
  1 19  1  0  0  0  0
  2 13  1  0  0  0  0
  4 20  1  0  0  0  0
  4  1  2  0  0  0  0
  5  1  1  0  0  0  0
  6  8  2  0  0  0  0
  7 15  1  6  0  0  0
  7 27  1  0  0  0  0
  7  9  1  0  0  0  0
  8 12  1  0  0  0  0
  8 11  1  0  0  0  0
  9 14  1  6  0  0  0
  9 22  1  0  0  0  0
 10  3  1  0  0  0  0
 11  5  2  0  0  0  0
 12  4  1  0  0  0  0
 13 18  2  0  0  0  0
 15 23  1  0  0  0  0
 16  2  1  0  0  0  0
 17  3  1  0  0  0  0
 17 26  1  0  0  0  0
 19 26  1  0  0  0  0
 19  2  2  0  0  0  0
 20 17  2  0  0  0  0
 21 10  2  0  0  0  0
 22 20  1  0  0  0  0
 22 10  1  0  0  0  0
 23 14  1  0  0  0  0
 25 18  1  0  0  0  0
 26 25  2  0  0  0  0
 27 24  1  1  0  0  0
 27 12  1  0  0  0  0
 28 11  1  0  0  0  0
 28 30  1  0  0  0  0
 29 30  1  0  0  0  0
M  END
>  <MODEL>
4

>  <REMARK>
 VINA RESULT:      -9.0      3.182      6.245
  Name = 
  1 active torsions:
  status: ('A' for Active; 'I' for Inactive)
    1  A    between atoms: N_28  and  N_30
                            x       y       z     vdW  Elec       q    Type
                         _______ _______ _______ _____ _____    ______ ____

>  <TORSDO>
F 1

$$$$
=
 OpenBabel11122410273D

 30 35  0  0  1  0  0  0  0  0999 V2000
  187.8090  177.6890  142.4550 C   0  0  0  0  0  0  0  0  0  0  0  0
  186.6760  178.1140  144.6710 C   0  0  0  0  0  0  0  0  0  0  0  0
  184.4980  179.0280  140.4090 N   0  0  0  0  0  2  0  0  0  0  0  0
  187.7800  177.7610  141.0270 C   0  0  0  0  0  0  0  0  0  0  0  0
  188.9260  177.2040  143.0520 N   0  0  0  0  0  0  0  0  0  0  0  0
  191.0710  176.6670  140.3180 O   0  0  0  0  0  0  0  0  0  0  0  0
  188.1180  176.9390  138.0540 C   0  0  1  0  0  3  0  0  0  0  0  0
  190.0320  176.9750  140.9670 C   0  0  0  0  0  0  0  0  0  0  0  0
  186.7160  177.5080  137.9430 C   0  0  2  0  0  3  0  0  0  0  0  0
  184.9370  178.7350  139.1680 C   0  0  0  0  0  0  0  0  0  0  0  0
  190.0190  176.8210  142.3530 C   0  0  0  0  0  0  0  0  0  0  0  0
  188.9290  177.4710  140.3220 N   0  0  0  0  0  0  0  0  0  0  0  0
  185.5600  178.5920  145.3620 C   0  0  0  0  0  3  0  0  0  0  0  0
  186.7180  178.3630  136.6930 C   0  0  0  0  0  2  0  0  0  0  0  0
  188.6390  176.8660  136.6280 C   0  0  0  0  0  2  0  0  0  0  0  0
  187.9780  177.5060  145.6900 Cl  0  0  0  0  0  0  0  0  0  0  0  0
  185.5370  178.6690  141.1820 C   0  0  0  0  0  0  0  0  0  0  0  0
  184.4550  179.0980  144.6820 C   0  0  0  0  0  3  0  0  0  0  0  0
  186.7000  178.1410  143.2430 C   0  0  0  0  0  0  0  0  0  0  0  0
  186.5780  178.1990  140.4220 C   0  0  0  0  0  0  0  0  0  0  0  0
  184.2060  178.8770  138.1500 O   0  0  0  0  0  0  0  0  0  0  0  0
  186.1960  178.2290  139.1170 N   0  0  0  0  0  0  0  0  0  0  0  0
  187.6910  177.6780  135.7570 C   0  0  0  0  0  2  0  0  0  0  0  0
  189.0880  179.2720  138.6250 C   0  0  0  0  0  1  0  0  0  0  0  0
  184.4530  179.1300  143.2920 C   0  0  0  0  0  3  0  0  0  0  0  0
  185.5590  178.6620  142.5720 C   0  0  0  0  0  0  0  0  0  0  0  0
  189.0730  177.7690  138.8990 C   0  0  2  0  0  3  0  0  0  0  0  0
  191.1630  176.3050  143.0340 N   0  0  0  0  0  2  0  0  0  0  0  0
  191.5920  177.4370  144.9760 C   0  0  0  0  0  1  0  0  0  0  0  0
  191.1740  176.1610  144.4270 N   0  0  0  0  0  2  0  0  0  0  0  0
  1  5  1  0  0  0  0
  1 19  1  0  0  0  0
  2 13  1  0  0  0  0
  2 16  1  0  0  0  0
  3 17  1  0  0  0  0
  4  1  2  0  0  0  0
  6  8  2  0  0  0  0
  7 15  1  6  0  0  0
  7 27  1  0  0  0  0
  8 11  1  0  0  0  0
  9 14  1  6  0  0  0
  9  7  1  0  0  0  0
  9 22  1  0  0  0  0
 10  3  1  0  0  0  0
 11 28  1  0  0  0  0
 11  5  2  0  0  0  0
 12  8  1  0  0  0  0
 12  4  1  0  0  0  0
 17 26  1  0  0  0  0
 18 13  2  0  0  0  0
 19  2  2  0  0  0  0
 20  4  1  0  0  0  0
 20 17  2  0  0  0  0
 21 10  2  0  0  0  0
 22 10  1  0  0  0  0
 22 20  1  0  0  0  0
 23 15  1  0  0  0  0
 23 14  1  0  0  0  0
 25 18  1  0  0  0  0
 26 19  1  0  0  0  0
 26 25  2  0  0  0  0
 27 24  1  1  0  0  0
 27 12  1  0  0  0  0
 28 30  1  0  0  0  0
 30 29  1  0  0  0  0
M  END
>  <MODEL>
5

>  <REMARK>
 VINA RESULT:      -8.8      2.533      5.841
  Name = 
  1 active torsions:
  status: ('A' for Active; 'I' for Inactive)
    1  A    between atoms: N_28  and  N_30
                            x       y       z     vdW  Elec       q    Type
                         _______ _______ _______ _____ _____    ______ ____

>  <TORSDO>
F 1

$$$$
=
 OpenBabel11122410273D

 30 35  0  0  1  0  0  0  0  0999 V2000
  188.1040  177.9160  141.8150 C   0  0  0  0  0  0  0  0  0  0  0  0
  189.0560  177.5060  144.1160 C   0  0  0  0  0  0  0  0  0  0  0  0
  191.5660  176.5650  140.0460 N   0  0  0  0  0  2  0  0  0  0  0  0
  188.2450  177.8350  140.3940 C   0  0  0  0  0  0  0  0  0  0  0  0
  186.9420  178.4050  142.3180 N   0  0  0  0  0  0  0  0  0  0  0  0
  185.0210  178.9220  139.4190 O   0  0  0  0  0  0  0  0  0  0  0  0
  188.1440  178.6370  137.3980 C   0  0  1  0  0  3  0  0  0  0  0  0
  186.0060  178.6190  140.1500 C   0  0  0  0  0  0  0  0  0  0  0  0
  189.5500  178.0680  137.4030 C   0  0  2  0  0  3  0  0  0  0  0  0
  191.2270  176.8490  138.7730 C   0  0  0  0  0  0  0  0  0  0  0  0
  185.9080  178.7820  141.5320 C   0  0  0  0  0  0  0  0  0  0  0  0
  187.1560  178.1200  139.5980 N   0  0  0  0  0  0  0  0  0  0  0  0
  190.1150  177.0330  144.8970 C   0  0  0  0  0  3  0  0  0  0  0  0
  189.6470  177.2040  136.1620 C   0  0  0  0  0  2  0  0  0  0  0  0
  187.7380  178.7010  135.9340 C   0  0  0  0  0  2  0  0  0  0  0  0
  187.6780  178.1200  145.0250 Cl  0  0  0  0  0  0  0  0  0  0  0  0
  190.4690  176.9290  140.7330 C   0  0  0  0  0  0  0  0  0  0  0  0
  191.2700  176.5230  144.3090 C   0  0  0  0  0  3  0  0  0  0  0  0
  189.1460  177.4700  142.6910 C   0  0  0  0  0  0  0  0  0  0  0  0
  189.4910  177.3930  139.8890 C   0  0  0  0  0  0  0  0  0  0  0  0
  192.0350  176.7010  137.8170 O   0  0  0  0  0  0  0  0  0  0  0  0
  189.9760  177.3550  138.6190 N   0  0  0  0  0  0  0  0  0  0  0  0
  188.7520  177.8830  135.1470 C   0  0  0  0  0  2  0  0  0  0  0  0
  187.1320  176.3070  137.9050 C   0  0  0  0  0  1  0  0  0  0  0  0
  191.3820  176.4820  142.9240 C   0  0  0  0  0  3  0  0  0  0  0  0
  190.3370  176.9440  142.1160 C   0  0  0  0  0  0  0  0  0  0  0  0
  187.1250  177.8130  138.1710 C   0  0  2  0  0  3  0  0  0  0  0  0
  184.7130  179.3030  142.1160 N   0  0  0  0  0  2  0  0  0  0  0  0
  183.2780  178.9600  143.8650 C   0  0  0  0  0  1  0  0  0  0  0  0
  184.5930  179.4560  143.5040 N   0  0  0  0  0  2  0  0  0  0  0  0
  1  5  1  0  0  0  0
  1 19  1  0  0  0  0
  2 13  1  0  0  0  0
  2 16  1  0  0  0  0
  3 17  1  0  0  0  0
  4  1  2  0  0  0  0
  6  8  2  0  0  0  0
  7 15  1  6  0  0  0
  7  9  1  0  0  0  0
  7 27  1  0  0  0  0
  8 11  1  0  0  0  0
  9 14  1  6  0  0  0
  9 22  1  0  0  0  0
 10  3  1  0  0  0  0
 11 28  1  0  0  0  0
 11  5  2  0  0  0  0
 12  8  1  0  0  0  0
 12  4  1  0  0  0  0
 17 26  1  0  0  0  0
 18 13  2  0  0  0  0
 19  2  2  0  0  0  0
 20  4  1  0  0  0  0
 20 17  2  0  0  0  0
 21 10  2  0  0  0  0
 22 10  1  0  0  0  0
 22 20  1  0  0  0  0
 23 15  1  0  0  0  0
 23 14  1  0  0  0  0
 25 18  1  0  0  0  0
 26 19  1  0  0  0  0
 26 25  2  0  0  0  0
 27 24  1  1  0  0  0
 27 12  1  0  0  0  0
 28 30  1  0  0  0  0
 30 29  1  0  0  0  0
M  END
>  <MODEL>
6

>  <REMARK>
 VINA RESULT:      -8.7      2.600      6.732
  Name = 
  1 active torsions:
  status: ('A' for Active; 'I' for Inactive)
    1  A    between atoms: N_28  and  N_30
                            x       y       z     vdW  Elec       q    Type
                         _______ _______ _______ _____ _____    ______ ____

>  <TORSDO>
F 1

$$$$
=
 OpenBabel11122410273D

 30 35  0  0  1  0  0  0  0  0999 V2000
  188.0400  178.0860  140.8720 C   0  0  0  0  0  0  0  0  0  0  0  0
  190.3090  177.5680  139.8950 C   0  0  0  0  0  0  0  0  0  0  0  0
  189.4640  177.5400  144.6940 N   0  0  0  0  0  2  0  0  0  0  0  0
  187.2110  178.2780  142.0220 C   0  0  0  0  0  0  0  0  0  0  0  0
  187.4840  178.2530  139.6450 N   0  0  0  0  0  0  0  0  0  0  0  0
  184.2210  179.3020  140.4290 O   0  0  0  0  0  0  0  0  0  0  0  0
  184.7640  178.1030  143.9200 C   0  0  1  0  0  3  0  0  0  0  0  0
  185.4090  178.9030  140.5910 C   0  0  0  0  0  0  0  0  0  0  0  0
  185.8340  177.7940  144.9500 C   0  0  2  0  0  3  0  0  0  0  0  0
  188.2860  177.6750  145.3350 C   0  0  0  0  0  0  0  0  0  0  0  0
  186.1950  178.6250  139.4730 C   0  0  0  0  0  0  0  0  0  0  0  0
  185.9310  178.7580  141.8490 N   0  0  0  0  0  0  0  0  0  0  0  0
  191.6550  177.2620  140.1150 C   0  0  0  0  0  3  0  0  0  0  0  0
  185.4860  178.6280  146.1660 C   0  0  0  0  0  2  0  0  0  0  0  0
  183.5290  178.4840  144.7220 C   0  0  0  0  0  2  0  0  0  0  0  0
  189.8410  177.6930  138.2020 Cl  0  0  0  0  0  0  0  0  0  0  0  0
  189.1280  177.7470  143.4100 C   0  0  0  0  0  0  0  0  0  0  0  0
  192.1610  177.1280  141.4050 C   0  0  0  0  0  3  0  0  0  0  0  0
  189.4270  177.7520  141.0030 C   0  0  0  0  0  0  0  0  0  0  0  0
  187.7900  178.0260  143.2890 C   0  0  0  0  0  0  0  0  0  0  0  0
  188.1740  177.4870  146.5760 O   0  0  0  0  0  0  0  0  0  0  0  0
  187.2340  177.9710  144.5280 N   0  0  0  0  0  0  0  0  0  0  0  0
  183.9740  178.7090  146.1590 C   0  0  0  0  0  2  0  0  0  0  0  0
  185.6800  180.5030  143.5930 C   0  0  0  0  0  1  0  0  0  0  0  0
  191.3210  177.2980  142.4990 C   0  0  0  0  0  3  0  0  0  0  0  0
  189.9690  177.6090  142.3110 C   0  0  0  0  0  0  0  0  0  0  0  0
  185.1130  179.2320  142.9620 C   0  0  2  0  0  3  0  0  0  0  0  0
  185.6600  178.7730  138.1570 N   0  0  0  0  0  2  0  0  0  0  0  0
  186.0000  177.2390  136.4920 C   0  0  0  0  0  1  0  0  0  0  0  0
  186.4420  178.5150  137.0230 N   0  0  0  0  0  2  0  0  0  0  0  0
  1 19  2  0  0  0  0
  1  4  1  0  0  0  0
  2 13  2  0  0  0  0
  2 19  1  0  0  0  0
  3 10  1  0  0  0  0
  4 20  2  0  0  0  0
  5  1  1  0  0  0  0
  6  8  2  0  0  0  0
  7 15  1  1  0  0  0
  7  9  1  0  0  0  0
  8 12  1  0  0  0  0
  9 14  1  1  0  0  0
 10 21  2  0  0  0  0
 11  5  2  0  0  0  0
 11  8  1  0  0  0  0
 12  4  1  0  0  0  0
 12 27  1  0  0  0  0
 13 18  1  0  0  0  0
 15 23  1  0  0  0  0
 16  2  1  0  0  0  0
 17  3  1  0  0  0  0
 18 25  2  0  0  0  0
 19 26  1  0  0  0  0
 20 17  1  0  0  0  0
 20 22  1  0  0  0  0
 22  9  1  0  0  0  0
 22 10  1  0  0  0  0
 23 14  1  0  0  0  0
 26 25  1  0  0  0  0
 26 17  2  0  0  0  0
 27 24  1  1  0  0  0
 27  7  1  0  0  0  0
 28 11  1  0  0  0  0
 29 30  1  0  0  0  0
 30 28  1  0  0  0  0
M  END
>  <MODEL>
7

>  <REMARK>
 VINA RESULT:      -8.6      2.147      5.019
  Name = 
  1 active torsions:
  status: ('A' for Active; 'I' for Inactive)
    1  A    between atoms: N_28  and  N_30
                            x       y       z     vdW  Elec       q    Type
                         _______ _______ _______ _____ _____    ______ ____

>  <TORSDO>
F 1

$$$$
