=
 OpenBabel11122412203D

 34 42  0  0  1  0  0  0  0  0999 V2000
  187.1350  178.4180  140.7650 C   0  0  0  0  0  0  0  0  0  0  0  0
  184.9720  178.8870  139.4450 C   0  0  0  0  0  3  0  0  0  0  0  0
  190.4280  176.7850  146.4040 C   0  0  1  0  0  0  0  0  0  0  0  0
  189.0390  177.7900  142.1610 C   0  0  0  0  0  0  0  0  0  0  0  0
  188.6920  177.4490  144.6330 C   0  0  0  0  0  0  0  0  0  0  0  0
  188.6980  177.1970  147.2120 C   0  0  1  0  0  3  0  0  0  0  0  0
  189.9650  176.9630  147.7430 O   0  0  0  0  0  0  0  0  0  0  0  0
  191.6430  176.1490  144.4380 C   0  0  0  0  0  3  0  0  0  0  0  0
  184.8890  178.7940  141.7620 C   0  0  0  0  0  0  0  0  0  0  0  0
  182.3680  179.0000  143.4760 C   0  0  0  0  0  3  0  0  0  0  0  0
  187.3310  177.8340  144.4460 N   0  0  0  0  0  2  0  0  0  0  0  0
  190.8390  176.6180  143.4650 C   0  0  0  0  0  3  0  0  0  0  0  0
  185.3620  178.4880  143.1510 C   0  0  1  0  0  3  0  0  0  0  0  0
  183.5940  178.8790  139.9220 N   0  0  0  0  0  0  0  0  0  0  0  0
  189.7010  177.6290  143.5200 C   0  0  1  0  0  3  0  0  0  0  0  0
  191.5230  176.3840  145.8510 N   0  0  0  0  0  2  0  0  0  0  0  0
  182.4230  178.6070  142.1960 C   0  0  0  0  0  0  0  0  0  0  0  0
  187.6910  178.2040  142.0430 C   0  0  0  0  0  0  0  0  0  0  0  0
  189.1230  177.1880  145.8510 C   0  0  0  0  0  0  0  0  0  0  0  0
  186.8950  178.5860  143.2790 C   0  0  2  0  0  3  0  0  0  0  0  0
  189.2380  177.8180  139.7310 C   0  0  0  0  0  3  0  0  0  0  0  0
  183.4350  179.6160  144.2870 C   0  0  0  0  0  3  0  0  0  0  0  0
  189.8000  177.6180  140.9910 C   0  0  0  0  0  3  0  0  0  0  0  0
  184.7460  179.4290  144.1360 C   0  0  0  0  0  3  0  0  0  0  0  0
  183.6340  178.7930  141.3460 C   0  0  0  0  0  0  0  0  0  0  0  0
  187.9080  178.2140  139.6170 C   0  0  0  0  0  3  0  0  0  0  0  0
  185.7710  178.8300  140.6590 N   0  0  0  0  0  0  0  0  0  0  0  0
  181.2510  178.0270  141.6900 O   0  0  0  0  0  0  0  0  0  0  0  0
  180.0150  177.9490  142.3920 C   0  0  0  0  0  2  0  0  0  0  0  0
  179.6730  181.1650  141.9560 O   0  0  0  0  0  0  0  0  0  0  0  0
  179.4870  179.3680  140.4370 C   0  0  0  0  0  2  0  0  0  0  0  0
  179.0010  178.8990  141.7770 C   0  0  2  0  0  3  0  0  0  0  0  0
  179.5780  180.8670  140.5890 C   0  0  0  0  0  2  0  0  0  0  0  0
  178.9310  180.1650  142.6010 C   0  0  0  0  0  2  0  0  0  0  0  0
  1 18  1  0  0  0  0
  2 14  2  0  0  0  0
  2 27  1  0  0  0  0
  3 19  1  6  0  0  0
  3  6  1  0  0  0  0
  3  7  1  0  0  0  0
  4 15  1  0  0  0  0
  5 19  2  0  0  0  0
  6 19  1  6  0  0  0
  6  7  1  0  0  0  0
  8 16  1  0  0  0  0
  9 13  1  0  0  0  0
 10 22  1  0  0  0  0
 11  5  1  0  0  0  0
 12  8  2  0  0  0  0
 13 20  1  0  0  0  0
 13 24  1  1  0  0  0
 14 25  1  0  0  0  0
 15 12  1  6  0  0  0
 15  5  1  0  0  0  0
 16  3  1  0  0  0  0
 17 10  2  0  0  0  0
 18  4  2  0  0  0  0
 20 18  1  6  0  0  0
 20 11  1  0  0  0  0
 21 23  2  0  0  0  0
 23  4  1  0  0  0  0
 24 22  2  0  0  0  0
 25  9  2  0  0  0  0
 25 17  1  0  0  0  0
 26 21  1  0  0  0  0
 26  1  2  0  0  0  0
 27  1  1  0  0  0  0
 27  9  1  0  0  0  0
 28 17  1  0  0  0  0
 28 29  1  0  0  0  0
 30 34  1  0  0  0  0
 31 33  1  0  0  0  0
 31 32  1  0  0  0  0
 32 29  1  1  0  0  0
 32 34  1  0  0  0  0
 33 30  1  0  0  0  0
M  END
>  <MODEL>
1

>  <REMARK>
 VINA RESULT:     -10.2      0.000      0.000
  Name = 
  3 active torsions:
  status: ('A' for Active; 'I' for Inactive)
    1  A    between atoms: C_17  and  O_28
    2  A    between atoms: O_28  and  C_29
    3  A    between atoms: C_29  and  C_32
                            x       y       z     vdW  Elec       q    Type
                         _______ _______ _______ _____ _____    ______ ____

>  <TORSDO>
F 3

$$$$
=
 OpenBabel11122412203D

 34 42  0  0  1  0  0  0  0  0999 V2000
  190.1820  177.5580  143.4220 C   0  0  0  0  0  0  0  0  0  0  0  0
  192.0690  176.8410  141.8210 C   0  0  0  0  0  3  0  0  0  0  0  0
  183.7110  178.7650  144.8320 C   0  0  1  0  0  0  0  0  0  0  0  0
  188.2320  178.0580  144.8080 C   0  0  0  0  0  0  0  0  0  0  0  0
  185.9700  178.2630  143.7190 C   0  0  0  0  0  0  0  0  0  0  0  0
  183.5560  178.7040  142.8850 C   0  0  1  0  0  3  0  0  0  0  0  0
  182.6840  179.0990  143.8980 O   0  0  0  0  0  0  0  0  0  0  0  0
  184.9540  178.1370  146.7830 C   0  0  0  0  0  3  0  0  0  0  0  0
  189.9700  177.3250  140.9570 C   0  0  0  0  0  0  0  0  0  0  0  0
  189.1200  177.0220  138.0380 C   0  0  0  0  0  3  0  0  0  0  0  0
  186.6100  178.0570  142.4600 N   0  0  0  0  0  2  0  0  0  0  0  0
  186.1950  178.0090  146.2780 C   0  0  0  0  0  3  0  0  0  0  0  0
  188.4940  177.5830  140.9740 C   0  0  1  0  0  3  0  0  0  0  0  0
  191.9740  176.4490  140.4190 N   0  0  0  0  0  0  0  0  0  0  0  0
  186.7890  178.5080  144.9670 C   0  0  1  0  0  3  0  0  0  0  0  0
  183.7960  178.6670  146.1160 N   0  0  0  0  0  2  0  0  0  0  0  0
  190.1160  176.3610  138.6420 C   0  0  0  0  0  0  0  0  0  0  0  0
  188.8180  177.9010  143.5290 C   0  0  0  0  0  0  0  0  0  0  0  0
  184.6740  178.5020  143.7470 C   0  0  0  0  0  0  0  0  0  0  0  0
  188.0390  178.2680  142.2780 C   0  0  2  0  0  3  0  0  0  0  0  0
  190.3810  177.5300  145.8330 C   0  0  0  0  0  3  0  0  0  0  0  0
  188.3500  178.1750  138.5440 C   0  0  0  0  0  3  0  0  0  0  0  0
  189.0370  177.8820  145.9480 C   0  0  0  0  0  3  0  0  0  0  0  0
  188.0980  178.4510  139.8230 C   0  0  0  0  0  3  0  0  0  0  0  0
  190.6510  176.7540  139.9770 C   0  0  0  0  0  0  0  0  0  0  0  0
  190.9520  177.3650  144.5740 C   0  0  0  0  0  3  0  0  0  0  0  0
  190.7600  177.3970  142.1260 N   0  0  0  0  0  0  0  0  0  0  0  0
  190.6490  175.2810  137.9240 O   0  0  0  0  0  0  0  0  0  0  0  0
  190.9270  175.2920  136.5280 C   0  0  0  0  0  2  0  0  0  0  0  0
  193.9050  176.3620  137.3240 O   0  0  0  0  0  0  0  0  0  0  0  0
  192.9340  174.2180  137.4940 C   0  0  0  0  0  2  0  0  0  0  0  0
  192.3710  174.8900  136.2760 C   0  0  2  0  0  3  0  0  0  0  0  0
  194.1020  175.0910  137.8820 C   0  0  0  0  0  2  0  0  0  0  0  0
  193.2200  176.1320  136.1220 C   0  0  0  0  0  2  0  0  0  0  0  0
  1 18  2  0  0  0  0
  1 26  1  0  0  0  0
  2 27  1  0  0  0  0
  3 19  1  6  0  0  0
  3 16  1  0  0  0  0
  4 15  1  0  0  0  0
  4 23  2  0  0  0  0
  5 19  2  0  0  0  0
  5 15  1  0  0  0  0
  6 19  1  6  0  0  0
  6  7  1  0  0  0  0
  6  3  1  0  0  0  0
  7  3  1  0  0  0  0
  9 13  1  0  0  0  0
  9 27  1  0  0  0  0
 10 22  1  0  0  0  0
 10 17  2  0  0  0  0
 11  5  1  0  0  0  0
 12  8  2  0  0  0  0
 13 24  1  6  0  0  0
 13 20  1  0  0  0  0
 14  2  2  0  0  0  0
 15 12  1  1  0  0  0
 16  8  1  0  0  0  0
 17 25  1  0  0  0  0
 18  4  1  0  0  0  0
 20 11  1  1  0  0  0
 20 18  1  0  0  0  0
 21 23  1  0  0  0  0
 22 24  2  0  0  0  0
 25 14  1  0  0  0  0
 25  9  2  0  0  0  0
 26 21  2  0  0  0  0
 27  1  1  0  0  0  0
 28 17  1  0  0  0  0
 29 28  1  0  0  0  0
 30 33  1  0  0  0  0
 31 33  1  0  0  0  0
 32 29  1  1  0  0  0
 32 31  1  0  0  0  0
 34 32  1  0  0  0  0
 34 30  1  0  0  0  0
M  END
>  <MODEL>
2

>  <REMARK>
 VINA RESULT:      -9.7      3.805      8.550
  Name = 
  3 active torsions:
  status: ('A' for Active; 'I' for Inactive)
    1  A    between atoms: C_17  and  O_28
    2  A    between atoms: O_28  and  C_29
    3  A    between atoms: C_29  and  C_32
                            x       y       z     vdW  Elec       q    Type
                         _______ _______ _______ _____ _____    ______ ____

>  <TORSDO>
F 3

$$$$
=
 OpenBabel11122412203D

 34 42  0  0  1  0  0  0  0  0999 V2000
  187.1080  178.4160  140.7770 C   0  0  0  0  0  0  0  0  0  0  0  0
  184.9380  178.8630  139.4610 C   0  0  0  0  0  3  0  0  0  0  0  0
  190.4280  176.8180  146.4110 C   0  0  1  0  0  0  0  0  0  0  0  0
  189.0210  177.8080  142.1700 C   0  0  0  0  0  0  0  0  0  0  0  0
  188.6820  177.4630  144.6430 C   0  0  0  0  0  0  0  0  0  0  0  0
  188.6940  177.2100  147.2220 C   0  0  1  0  0  3  0  0  0  0  0  0
  189.9650  176.9910  147.7500 O   0  0  0  0  0  0  0  0  0  0  0  0
  191.6460  176.1940  144.4420 C   0  0  0  0  0  3  0  0  0  0  0  0
  184.8600  178.7690  141.7780 C   0  0  0  0  0  0  0  0  0  0  0  0
  182.3400  178.9480  143.4960 C   0  0  0  0  0  3  0  0  0  0  0  0
  187.3160  177.8340  144.4580 N   0  0  0  0  0  2  0  0  0  0  0  0
  190.8350  176.6550  143.4710 C   0  0  0  0  0  3  0  0  0  0  0  0
  185.3380  178.4670  143.1660 C   0  0  1  0  0  3  0  0  0  0  0  0
  183.5610  178.8400  139.9410 N   0  0  0  0  0  0  0  0  0  0  0  0
  189.6870  177.6530  143.5280 C   0  0  1  0  0  3  0  0  0  0  0  0
  191.5260  176.4270  145.8560 N   0  0  0  0  0  2  0  0  0  0  0  0
  182.3960  178.5550  142.2160 C   0  0  0  0  0  0  0  0  0  0  0  0
  187.6680  178.2080  142.0540 C   0  0  0  0  0  0  0  0  0  0  0  0
  189.1180  177.2060  145.8600 C   0  0  0  0  0  0  0  0  0  0  0  0
  186.8710  178.5820  143.2920 C   0  0  2  0  0  3  0  0  0  0  0  0
  189.2160  177.8380  139.7390 C   0  0  0  0  0  3  0  0  0  0  0  0
  183.4020  179.5750  144.3060 C   0  0  0  0  0  3  0  0  0  0  0  0
  189.7820  177.6440  140.9990 C   0  0  0  0  0  3  0  0  0  0  0  0
  184.7140  179.4020  144.1520 C   0  0  0  0  0  3  0  0  0  0  0  0
  183.6040  178.7540  141.3640 C   0  0  0  0  0  0  0  0  0  0  0  0
  187.8810  178.2200  139.6280 C   0  0  0  0  0  3  0  0  0  0  0  0
  185.7400  178.8140  140.6730 N   0  0  0  0  0  0  0  0  0  0  0  0
  181.2300  177.9630  141.7120 O   0  0  0  0  0  0  0  0  0  0  0  0
  180.3200  178.5940  140.8180 C   0  0  0  0  0  2  0  0  0  0  0  0
  181.2250  176.1170  138.8950 O   0  0  0  0  0  0  0  0  0  0  0  0
  179.6260  176.2280  140.6270 C   0  0  0  0  0  2  0  0  0  0  0  0
  179.6520  177.5570  139.9300 C   0  0  2  0  0  3  0  0  0  0  0  0
  180.4040  175.3200  139.7060 C   0  0  0  0  0  2  0  0  0  0  0  0
  180.5100  177.3090  138.7100 C   0  0  0  0  0  2  0  0  0  0  0  0
  1 18  1  0  0  0  0
  2 14  2  0  0  0  0
  2 27  1  0  0  0  0
  3 16  1  6  0  0  0
  3  6  1  0  0  0  0
  3  7  1  0  0  0  0
  4 15  1  0  0  0  0
  5 19  2  0  0  0  0
  6 19  1  6  0  0  0
  6  7  1  0  0  0  0
  8 16  1  0  0  0  0
  9 13  1  0  0  0  0
 10 22  1  0  0  0  0
 11  5  1  0  0  0  0
 12  8  2  0  0  0  0
 13 20  1  0  0  0  0
 13 24  1  1  0  0  0
 14 25  1  0  0  0  0
 15 12  1  6  0  0  0
 15  5  1  0  0  0  0
 17 10  2  0  0  0  0
 18  4  2  0  0  0  0
 19  3  1  0  0  0  0
 20 18  1  6  0  0  0
 20 11  1  0  0  0  0
 21 23  2  0  0  0  0
 23  4  1  0  0  0  0
 24 22  2  0  0  0  0
 25  9  2  0  0  0  0
 25 17  1  0  0  0  0
 26 21  1  0  0  0  0
 26  1  2  0  0  0  0
 27  1  1  0  0  0  0
 27  9  1  0  0  0  0
 28 17  1  0  0  0  0
 29 28  1  0  0  0  0
 30 33  1  0  0  0  0
 32 31  1  0  0  0  0
 32 29  1  1  0  0  0
 33 31  1  0  0  0  0
 34 30  1  0  0  0  0
 34 32  1  0  0  0  0
M  END
>  <MODEL>
3

>  <REMARK>
 VINA RESULT:      -9.7      1.154      1.830
  Name = 
  3 active torsions:
  status: ('A' for Active; 'I' for Inactive)
    1  A    between atoms: C_17  and  O_28
    2  A    between atoms: O_28  and  C_29
    3  A    between atoms: C_29  and  C_32
                            x       y       z     vdW  Elec       q    Type
                         _______ _______ _______ _____ _____    ______ ____

>  <TORSDO>
F 3

$$$$
=
 OpenBabel11122412203D

 34 42  0  0  1  0  0  0  0  0999 V2000
  185.6100  178.3120  142.7970 C   0  0  0  0  0  0  0  0  0  0  0  0
  185.0600  178.6510  140.3020 C   0  0  0  0  0  3  0  0  0  0  0  0
  189.9490  177.4290  147.8680 C   0  0  1  0  0  0  0  0  0  0  0  0
  186.3620  178.1360  145.1150 C   0  0  0  0  0  0  0  0  0  0  0  0
  188.7930  177.6730  145.5890 C   0  0  0  0  0  0  0  0  0  0  0  0
  191.1720  177.0380  146.3950 C   0  0  1  0  0  3  0  0  0  0  0  0
  191.2650  176.8830  147.7770 O   0  0  0  0  0  0  0  0  0  0  0  0
  187.9290  178.4970  148.5900 C   0  0  0  0  0  3  0  0  0  0  0  0
  187.1940  177.9690  140.9120 C   0  0  0  0  0  0  0  0  0  0  0  0
  189.5620  177.5850  139.0210 C   0  0  0  0  0  3  0  0  0  0  0  0
  189.0010  177.5850  144.1790 N   0  0  0  0  0  2  0  0  0  0  0  0
  187.2130  178.5120  147.4500 C   0  0  0  0  0  3  0  0  0  0  0  0
  188.3550  177.7140  141.8230 C   0  0  1  0  0  3  0  0  0  0  0  0
  185.9750  178.7070  139.1680 N   0  0  0  0  0  0  0  0  0  0  0  0
  187.3910  177.7270  146.1570 C   0  0  1  0  0  3  0  0  0  0  0  0
  189.1750  177.8210  148.8240 N   0  0  0  0  0  2  0  0  0  0  0  0
  188.5000  178.3730  138.8050 C   0  0  0  0  0  0  0  0  0  0  0  0
  186.6190  177.9960  143.7310 C   0  0  0  0  0  0  0  0  0  0  0  0
  189.8040  177.4400  146.4010 C   0  0  0  0  0  0  0  0  0  0  0  0
  187.9050  177.3460  143.2510 C   0  0  2  0  0  3  0  0  0  0  0  0
  184.1040  178.8980  144.5980 C   0  0  0  0  0  3  0  0  0  0  0  0
  189.7500  176.5760  140.0810 C   0  0  0  0  0  3  0  0  0  0  0  0
  185.0910  178.5740  145.5280 C   0  0  0  0  0  3  0  0  0  0  0  0
  189.2030  176.6010  141.2960 C   0  0  0  0  0  3  0  0  0  0  0  0
  187.2620  178.3020  139.6340 C   0  0  0  0  0  0  0  0  0  0  0  0
  184.3640  178.7710  143.2350 C   0  0  0  0  0  3  0  0  0  0  0  0
  185.8840  178.1730  141.4020 N   0  0  0  0  0  0  0  0  0  0  0  0
  188.6130  179.2610  137.7260 O   0  0  0  0  0  0  0  0  0  0  0  0
  189.3810  179.0190  136.5530 C   0  0  0  0  0  2  0  0  0  0  0  0
  187.9120  176.1270  136.1970 O   0  0  0  0  0  0  0  0  0  0  0  0
  187.0940  178.3230  135.9220 C   0  0  0  0  0  2  0  0  0  0  0  0
  188.5360  178.3070  135.5090 C   0  0  2  0  0  3  0  0  0  0  0  0
  186.7310  176.8610  136.0260 C   0  0  0  0  0  2  0  0  0  0  0  0
  188.8920  176.8370  135.4890 C   0  0  0  0  0  2  0  0  0  0  0  0
  1 26  2  0  0  0  0
  1 18  1  0  0  0  0
  2 27  1  0  0  0  0
  3 19  1  6  0  0  0
  3 16  1  0  0  0  0
  4 23  1  0  0  0  0
  4 15  1  0  0  0  0
  5 15  1  0  0  0  0
  5 19  2  0  0  0  0
  6 19  1  6  0  0  0
  6  7  1  0  0  0  0
  6  3  1  0  0  0  0
  7  3  1  0  0  0  0
  8 16  1  0  0  0  0
  9 27  1  0  0  0  0
  9 13  1  0  0  0  0
 10 22  1  0  0  0  0
 11  5  1  0  0  0  0
 12  8  2  0  0  0  0
 13 24  1  6  0  0  0
 13 20  1  0  0  0  0
 14 25  1  0  0  0  0
 14  2  2  0  0  0  0
 15 12  1  1  0  0  0
 17 10  2  0  0  0  0
 17 25  1  0  0  0  0
 18  4  2  0  0  0  0
 20 18  1  1  0  0  0
 20 11  1  0  0  0  0
 21 23  2  0  0  0  0
 22 24  2  0  0  0  0
 25  9  2  0  0  0  0
 26 21  1  0  0  0  0
 27  1  1  0  0  0  0
 28 17  1  0  0  0  0
 29 28  1  0  0  0  0
 31 33  1  0  0  0  0
 32 31  1  0  0  0  0
 32 29  1  1  0  0  0
 33 30  1  0  0  0  0
 34 32  1  0  0  0  0
 34 30  1  0  0  0  0
M  END
>  <MODEL>
4

>  <REMARK>
 VINA RESULT:      -9.7      3.367      6.209
  Name = 
  3 active torsions:
  status: ('A' for Active; 'I' for Inactive)
    1  A    between atoms: C_17  and  O_28
    2  A    between atoms: O_28  and  C_29
    3  A    between atoms: C_29  and  C_32
                            x       y       z     vdW  Elec       q    Type
                         _______ _______ _______ _____ _____    ______ ____

>  <TORSDO>
F 3

$$$$
=
 OpenBabel11122412203D

 34 42  0  0  1  0  0  0  0  0999 V2000
  183.6620  178.6360  143.7050 C   0  0  0  0  0  0  0  0  0  0  0  0
  181.3020  179.3770  142.9830 C   0  0  0  0  0  3  0  0  0  0  0  0
  190.1600  177.4100  142.4440 C   0  0  1  0  0  0  0  0  0  0  0  0
  185.9960  178.1160  144.2070 C   0  0  0  0  0  0  0  0  0  0  0  0
  187.6490  177.9280  142.3140 C   0  0  0  0  0  0  0  0  0  0  0  0
  189.5380  177.5010  140.5930 C   0  0  1  0  0  3  0  0  0  0  0  0
  190.7360  177.0910  141.1770 O   0  0  0  0  0  0  0  0  0  0  0  0
  189.7860  178.0080  144.7340 C   0  0  0  0  0  3  0  0  0  0  0  0
  182.8900  178.9070  141.3580 C   0  0  0  0  0  0  0  0  0  0  0  0
  182.5280  179.2540  138.3440 C   0  0  0  0  0  3  0  0  0  0  0  0
  186.5670  178.1530  141.4110 N   0  0  0  0  0  2  0  0  0  0  0  0
  188.4470  178.1430  144.7600 C   0  0  0  0  0  3  0  0  0  0  0  0
  184.2530  178.6490  140.7910 C   0  0  1  0  0  3  0  0  0  0  0  0
  180.8410  179.7900  141.6630 N   0  0  0  0  0  0  0  0  0  0  0  0
  187.3840  177.6640  143.7800 C   0  0  1  0  0  3  0  0  0  0  0  0
  190.5870  177.4880  143.6590 N   0  0  0  0  0  2  0  0  0  0  0  0
  181.8520  179.9060  139.3000 C   0  0  0  0  0  0  0  0  0  0  0  0
  184.9560  178.2920  143.2630 C   0  0  0  0  0  0  0  0  0  0  0  0
  188.8500  177.6890  141.8280 C   0  0  0  0  0  0  0  0  0  0  0  0
  185.1800  177.9440  141.8010 C   0  0  2  0  0  3  0  0  0  0  0  0
  184.4260  178.6280  146.0010 C   0  0  0  0  0  3  0  0  0  0  0  0
  183.4280  178.0940  138.4910 C   0  0  0  0  0  3  0  0  0  0  0  0
  185.7050  178.2740  145.5740 C   0  0  0  0  0  3  0  0  0  0  0  0
  184.1610  177.7990  139.5650 C   0  0  0  0  0  3  0  0  0  0  0  0
  181.8820  179.4930  140.7330 C   0  0  0  0  0  0  0  0  0  0  0  0
  183.4070  178.8120  145.0690 C   0  0  0  0  0  3  0  0  0  0  0  0
  182.6220  178.8160  142.7430 N   0  0  0  0  0  0  0  0  0  0  0  0
  181.0870  180.9960  138.8650 O   0  0  0  0  0  0  0  0  0  0  0  0
  181.6220  182.2080  138.3440 C   0  0  0  0  0  2  0  0  0  0  0  0
  181.4760  184.6310  136.1630 O   0  0  0  0  0  0  0  0  0  0  0  0
  180.5020  182.4820  136.1560 C   0  0  0  0  0  2  0  0  0  0  0  0
  180.5530  182.9660  137.5750 C   0  0  2  0  0  3  0  0  0  0  0  0
  180.8050  183.7150  135.3400 C   0  0  0  0  0  2  0  0  0  0  0  0
  180.9570  184.4180  137.4480 C   0  0  0  0  0  2  0  0  0  0  0  0
  1 26  1  0  0  0  0
  3  7  1  1  0  0  0
  3 16  1  0  0  0  0
  4 23  2  0  0  0  0
  5 15  1  0  0  0  0
  6  7  1  1  0  0  0
  6 19  1  0  0  0  0
  6  3  1  0  0  0  0
  8 12  2  0  0  0  0
  9 27  1  0  0  0  0
 10 22  1  0  0  0  0
 10 17  2  0  0  0  0
 11  5  1  0  0  0  0
 13 24  1  6  0  0  0
 13  9  1  0  0  0  0
 13 20  1  0  0  0  0
 14  2  2  0  0  0  0
 15  4  1  0  0  0  0
 15 12  1  1  0  0  0
 16  8  1  0  0  0  0
 17 25  1  0  0  0  0
 18  1  2  0  0  0  0
 18  4  1  0  0  0  0
 19  5  2  0  0  0  0
 19  3  1  0  0  0  0
 20 11  1  6  0  0  0
 20 18  1  0  0  0  0
 22 24  2  0  0  0  0
 23 21  1  0  0  0  0
 25  9  2  0  0  0  0
 25 14  1  0  0  0  0
 26 21  2  0  0  0  0
 27  2  1  0  0  0  0
 27  1  1  0  0  0  0
 28 17  1  0  0  0  0
 29 28  1  0  0  0  0
 30 34  1  0  0  0  0
 31 32  1  0  0  0  0
 32 29  1  1  0  0  0
 33 31  1  0  0  0  0
 33 30  1  0  0  0  0
 34 32  1  0  0  0  0
M  END
>  <MODEL>
5

>  <REMARK>
 VINA RESULT:      -9.5      2.914      4.805
  Name = 
  3 active torsions:
  status: ('A' for Active; 'I' for Inactive)
    1  A    between atoms: C_17  and  O_28
    2  A    between atoms: O_28  and  C_29
    3  A    between atoms: C_29  and  C_32
                            x       y       z     vdW  Elec       q    Type
                         _______ _______ _______ _____ _____    ______ ____

>  <TORSDO>
F 3

$$$$
=
 OpenBabel11122412203D

 34 42  0  0  1  0  0  0  0  0999 V2000
  190.3950  177.3480  141.9000 C   0  0  0  0  0  0  0  0  0  0  0  0
  191.3340  176.7060  139.5870 C   0  0  0  0  0  3  0  0  0  0  0  0
  185.2970  178.5300  146.1330 C   0  0  1  0  0  0  0  0  0  0  0  0
  189.2960  177.7850  144.0380 C   0  0  0  0  0  0  0  0  0  0  0  0
  186.7940  178.0720  144.0990 C   0  0  0  0  0  0  0  0  0  0  0  0
  184.2800  178.5810  144.4650 C   0  0  1  0  0  3  0  0  0  0  0  0
  183.9710  178.9250  145.7800 O   0  0  0  0  0  0  0  0  0  0  0  0
  187.2630  177.7800  147.2810 C   0  0  0  0  0  3  0  0  0  0  0  0
  189.0880  177.2580  139.7870 C   0  0  0  0  0  0  0  0  0  0  0  0
  187.0060  177.1300  137.5560 C   0  0  0  0  0  3  0  0  0  0  0  0
  186.7920  177.9330  142.6780 N   0  0  0  0  0  2  0  0  0  0  0  0
  188.1390  177.6700  146.2650 C   0  0  0  0  0  3  0  0  0  0  0  0
  187.7880  177.5280  140.4810 C   0  0  1  0  0  3  0  0  0  0  0  0
  190.6050  176.3970  138.3620 N   0  0  0  0  0  0  0  0  0  0  0  0
  188.0950  178.2380  144.8530 C   0  0  1  0  0  3  0  0  0  0  0  0
  185.9470  178.3570  147.2350 N   0  0  0  0  0  2  0  0  0  0  0  0
  188.1450  176.4270  137.6130 C   0  0  0  0  0  0  0  0  0  0  0  0
  189.2380  177.6960  142.6260 C   0  0  0  0  0  0  0  0  0  0  0  0
  185.6580  178.3200  144.7200 C   0  0  0  0  0  0  0  0  0  0  0  0
  187.9920  178.1410  141.8810 C   0  0  2  0  0  3  0  0  0  0  0  0
  191.6570  177.1800  143.9570 C   0  0  0  0  0  3  0  0  0  0  0  0
  186.5860  178.2580  138.4080 C   0  0  0  0  0  3  0  0  0  0  0  0
  190.5220  177.5370  144.6820 C   0  0  0  0  0  3  0  0  0  0  0  0
  186.9460  178.4640  139.6750 C   0  0  0  0  0  3  0  0  0  0  0  0
  189.2360  176.7380  138.5800 C   0  0  0  0  0  0  0  0  0  0  0  0
  191.5940  177.0820  142.5690 C   0  0  0  0  0  3  0  0  0  0  0  0
  190.3220  177.2560  140.4760 N   0  0  0  0  0  0  0  0  0  0  0  0
  188.2610  175.3850  136.6820 O   0  0  0  0  0  0  0  0  0  0  0  0
  187.3620  175.1570  135.6020 C   0  0  0  0  0  2  0  0  0  0  0  0
  186.4990  173.0100  137.9020 O   0  0  0  0  0  0  0  0  0  0  0  0
  185.3420  173.7870  135.9970 C   0  0  0  0  0  2  0  0  0  0  0  0
  186.8060  173.7450  135.6700 C   0  0  2  0  0  3  0  0  0  0  0  0
  185.2380  173.0130  137.2890 C   0  0  0  0  0  2  0  0  0  0  0  0
  187.4200  173.0170  136.8450 C   0  0  0  0  0  2  0  0  0  0  0  0
  1 26  2  0  0  0  0
  1 18  1  0  0  0  0
  2 27  1  0  0  0  0
  3 19  1  6  0  0  0
  3 16  1  0  0  0  0
  4 23  1  0  0  0  0
  4 15  1  0  0  0  0
  5 19  2  0  0  0  0
  5 15  1  0  0  0  0
  6 19  1  6  0  0  0
  6  7  1  0  0  0  0
  6  3  1  0  0  0  0
  7  3  1  0  0  0  0
  9 27  1  0  0  0  0
  9 13  1  0  0  0  0
 10 17  2  0  0  0  0
 10 22  1  0  0  0  0
 11  5  1  0  0  0  0
 12  8  2  0  0  0  0
 13 24  1  6  0  0  0
 13 20  1  0  0  0  0
 14 25  1  0  0  0  0
 14  2  2  0  0  0  0
 15 12  1  1  0  0  0
 16  8  1  0  0  0  0
 17 25  1  0  0  0  0
 18  4  2  0  0  0  0
 20 18  1  1  0  0  0
 20 11  1  0  0  0  0
 21 23  2  0  0  0  0
 22 24  2  0  0  0  0
 25  9  2  0  0  0  0
 26 21  1  0  0  0  0
 27  1  1  0  0  0  0
 28 17  1  0  0  0  0
 29 28  1  0  0  0  0
 31 33  1  0  0  0  0
 32 29  1  1  0  0  0
 32 31  1  0  0  0  0
 32 34  1  0  0  0  0
 33 30  1  0  0  0  0
 34 30  1  0  0  0  0
M  END
>  <MODEL>
6

>  <REMARK>
 VINA RESULT:      -9.4      3.706      6.607
  Name = 
  3 active torsions:
  status: ('A' for Active; 'I' for Inactive)
    1  A    between atoms: C_17  and  O_28
    2  A    between atoms: O_28  and  C_29
    3  A    between atoms: C_29  and  C_32
                            x       y       z     vdW  Elec       q    Type
                         _______ _______ _______ _____ _____    ______ ____

>  <TORSDO>
F 3

$$$$
=
 OpenBabel11122412203D

 34 42  0  0  1  0  0  0  0  0999 V2000
  188.4600  177.8910  138.9740 C   0  0  0  0  0  0  0  0  0  0  0  0
  187.0940  178.6420  141.0260 C   0  0  0  0  0  3  0  0  0  0  0  0
  193.6280  174.6490  136.1280 C   0  0  1  0  0  0  0  0  0  0  0  0
  189.8100  176.9480  137.1690 C   0  0  0  0  0  0  0  0  0  0  0  0
  191.9620  175.7630  137.7320 C   0  0  0  0  0  0  0  0  0  0  0  0
  194.2890  174.6480  137.9670 C   0  0  1  0  0  3  0  0  0  0  0  0
  194.8760  174.3300  136.7440 O   0  0  0  0  0  0  0  0  0  0  0  0
  191.7420  174.7990  134.6570 C   0  0  0  0  0  3  0  0  0  0  0  0
  189.2180  177.7600  141.3380 C   0  0  0  0  0  0  0  0  0  0  0  0
  190.5530  177.2080  144.0300 C   0  0  0  0  0  3  0  0  0  0  0  0
  191.7340  176.1010  139.1000 N   0  0  0  0  0  2  0  0  0  0  0  0
  190.8800  175.5190  135.4000 C   0  0  0  0  0  3  0  0  0  0  0  0
  190.4770  177.0300  140.9820 C   0  0  1  0  0  3  0  0  0  0  0  0
  187.3550  178.3830  142.4380 N   0  0  0  0  0  0  0  0  0  0  0  0
  191.1150  176.3760  136.6380 C   0  0  1  0  0  3  0  0  0  0  0  0
  193.1240  174.5300  134.9460 N   0  0  0  0  0  2  0  0  0  0  0  0
  189.2340  177.2780  143.8030 C   0  0  0  0  0  0  0  0  0  0  0  0
  189.6580  177.2900  138.5340 C   0  0  0  0  0  0  0  0  0  0  0  0
  193.0710  175.1310  137.4040 C   0  0  0  0  0  0  0  0  0  0  0  0
  190.8340  177.1760  139.4890 C   0  0  2  0  0  3  0  0  0  0  0  0
  187.5750  177.8150  136.7240 C   0  0  0  0  0  3  0  0  0  0  0  0
  191.6560  177.5780  143.1240 C   0  0  0  0  0  3  0  0  0  0  0  0
  188.7610  177.2330  136.2780 C   0  0  0  0  0  3  0  0  0  0  0  0
  191.6270  177.5380  141.7920 C   0  0  0  0  0  3  0  0  0  0  0  0
  188.6620  177.8200  142.5360 C   0  0  0  0  0  0  0  0  0  0  0  0
  187.4230  178.1400  138.0700 C   0  0  0  0  0  3  0  0  0  0  0  0
  188.3160  178.2260  140.3550 N   0  0  0  0  0  0  0  0  0  0  0  0
  188.4140  176.8310  144.8490 O   0  0  0  0  0  0  0  0  0  0  0  0
  188.1780  177.5460  146.0570 C   0  0  0  0  0  2  0  0  0  0  0  0
  185.6810  179.5790  146.5840 O   0  0  0  0  0  0  0  0  0  0  0  0
  185.8480  177.6500  145.2350 C   0  0  0  0  0  2  0  0  0  0  0  0
  186.7120  177.4500  146.4450 C   0  0  2  0  0  3  0  0  0  0  0  0
  185.0150  178.8610  145.5800 C   0  0  0  0  0  2  0  0  0  0  0  0
  186.3510  178.6110  147.3450 C   0  0  0  0  0  2  0  0  0  0  0  0
  1 27  1  0  0  0  0
  2 14  2  0  0  0  0
  3 16  1  6  0  0  0
  3  7  1  0  0  0  0
  3 19  1  0  0  0  0
  3  6  1  0  0  0  0
  4 18  2  0  0  0  0
  5 11  1  0  0  0  0
  6  7  1  6  0  0  0
  8 16  1  0  0  0  0
  8 12  2  0  0  0  0
  9 25  2  0  0  0  0
 11 20  1  0  0  0  0
 13  9  1  0  0  0  0
 13 24  1  1  0  0  0
 14 25  1  0  0  0  0
 15 12  1  6  0  0  0
 15  4  1  0  0  0  0
 15  5  1  0  0  0  0
 17 10  2  0  0  0  0
 17 28  1  0  0  0  0
 18  1  1  0  0  0  0
 19  5  2  0  0  0  0
 19  6  1  0  0  0  0
 20 18  1  6  0  0  0
 20 13  1  0  0  0  0
 21 26  1  0  0  0  0
 22 10  1  0  0  0  0
 23 21  2  0  0  0  0
 23  4  1  0  0  0  0
 24 22  2  0  0  0  0
 25 17  1  0  0  0  0
 26  1  2  0  0  0  0
 27  2  1  0  0  0  0
 27  9  1  0  0  0  0
 28 29  1  0  0  0  0
 30 34  1  0  0  0  0
 31 33  1  0  0  0  0
 31 32  1  0  0  0  0
 32 29  1  6  0  0  0
 32 34  1  0  0  0  0
 33 30  1  0  0  0  0
M  END
>  <MODEL>
7

>  <REMARK>
 VINA RESULT:      -9.2      4.285      7.503
  Name = 
  3 active torsions:
  status: ('A' for Active; 'I' for Inactive)
    1  A    between atoms: C_17  and  O_28
    2  A    between atoms: O_28  and  C_29
    3  A    between atoms: C_29  and  C_32
                            x       y       z     vdW  Elec       q    Type
                         _______ _______ _______ _____ _____    ______ ____

>  <TORSDO>
F 3

$$$$
=
 OpenBabel11122412203D

 34 42  0  0  1  0  0  0  0  0999 V2000
  190.1780  177.5450  143.4540 C   0  0  0  0  0  0  0  0  0  0  0  0
  192.0500  176.8430  141.8270 C   0  0  0  0  0  3  0  0  0  0  0  0
  183.7210  178.7390  144.9360 C   0  0  1  0  0  0  0  0  0  0  0  0
  188.2420  178.0320  144.8620 C   0  0  0  0  0  0  0  0  0  0  0  0
  185.9690  178.2470  143.7970 C   0  0  0  0  0  0  0  0  0  0  0  0
  183.5470  178.6970  142.9900 C   0  0  1  0  0  3  0  0  0  0  0  0
  182.6850  179.0820  144.0150 O   0  0  0  0  0  0  0  0  0  0  0  0
  184.9820  178.0920  146.8690 C   0  0  0  0  0  3  0  0  0  0  0  0
  189.9420  177.3360  140.9880 C   0  0  0  0  0  0  0  0  0  0  0  0
  189.0640  177.0610  138.0750 C   0  0  0  0  0  3  0  0  0  0  0  0
  186.5970  178.0540  142.5310 N   0  0  0  0  0  2  0  0  0  0  0  0
  186.2190  177.9690  146.3520 C   0  0  0  0  0  3  0  0  0  0  0  0
  188.4670  177.5940  141.0220 C   0  0  1  0  0  3  0  0  0  0  0  0
  191.9410  176.4650  140.4230 N   0  0  0  0  0  0  0  0  0  0  0  0
  186.8000  178.4800  145.0400 C   0  0  1  0  0  3  0  0  0  0  0  0
  183.8180  178.6290  146.2190 N   0  0  0  0  0  2  0  0  0  0  0  0
  190.0670  176.3940  138.6630 C   0  0  0  0  0  0  0  0  0  0  0  0
  188.8160  177.8870  143.5770 C   0  0  0  0  0  0  0  0  0  0  0  0
  184.6730  178.4860  143.8400 C   0  0  0  0  0  0  0  0  0  0  0  0
  188.0240  178.2670  142.3370 C   0  0  2  0  0  3  0  0  0  0  0  0
  190.4000  177.4930  145.8620 C   0  0  0  0  0  3  0  0  0  0  0  0
  188.3000  178.2090  138.5990 C   0  0  0  0  0  3  0  0  0  0  0  0
  189.0570  177.8450  145.9930 C   0  0  0  0  0  3  0  0  0  0  0  0
  188.0600  178.4730  139.8840 C   0  0  0  0  0  3  0  0  0  0  0  0
  190.6140  176.7740  139.9970 C   0  0  0  0  0  0  0  0  0  0  0  0
  190.9590  177.3400  144.5960 C   0  0  0  0  0  3  0  0  0  0  0  0
  190.7440  177.3970  142.1510 N   0  0  0  0  0  0  0  0  0  0  0  0
  190.5930  175.3210  137.9300 O   0  0  0  0  0  0  0  0  0  0  0  0
  190.8910  175.3570  136.5380 C   0  0  0  0  0  2  0  0  0  0  0  0
  188.0400  173.8030  136.8620 O   0  0  0  0  0  0  0  0  0  0  0  0
  188.9990  174.9080  135.0110 C   0  0  0  0  0  2  0  0  0  0  0  0
  190.1070  174.2810  135.8060 C   0  0  2  0  0  3  0  0  0  0  0  0
  187.7470  174.2820  135.5780 C   0  0  0  0  0  2  0  0  0  0  0  0
  189.3850  173.4100  136.8100 C   0  0  0  0  0  2  0  0  0  0  0  0
  1 18  2  0  0  0  0
  1 26  1  0  0  0  0
  2 27  1  0  0  0  0
  3 19  1  6  0  0  0
  3 16  1  0  0  0  0
  4 15  1  0  0  0  0
  4 23  2  0  0  0  0
  5 19  2  0  0  0  0
  5 15  1  0  0  0  0
  6 19  1  6  0  0  0
  6  7  1  0  0  0  0
  6  3  1  0  0  0  0
  7  3  1  0  0  0  0
  9 13  1  0  0  0  0
  9 27  1  0  0  0  0
 10 22  1  0  0  0  0
 10 17  2  0  0  0  0
 11  5  1  0  0  0  0
 12  8  2  0  0  0  0
 13 24  1  6  0  0  0
 13 20  1  0  0  0  0
 14  2  2  0  0  0  0
 15 12  1  1  0  0  0
 16  8  1  0  0  0  0
 17 25  1  0  0  0  0
 18  4  1  0  0  0  0
 20 11  1  1  0  0  0
 20 18  1  0  0  0  0
 21 23  1  0  0  0  0
 22 24  2  0  0  0  0
 25 14  1  0  0  0  0
 25  9  2  0  0  0  0
 26 21  2  0  0  0  0
 27  1  1  0  0  0  0
 28 17  1  0  0  0  0
 29 28  1  0  0  0  0
 31 33  1  0  0  0  0
 31 32  1  0  0  0  0
 32 29  1  1  0  0  0
 32 34  1  0  0  0  0
 33 30  1  0  0  0  0
 34 30  1  0  0  0  0
M  END
>  <MODEL>
8

>  <REMARK>
 VINA RESULT:      -9.2      3.619      7.795
  Name = 
  3 active torsions:
  status: ('A' for Active; 'I' for Inactive)
    1  A    between atoms: C_17  and  O_28
    2  A    between atoms: O_28  and  C_29
    3  A    between atoms: C_29  and  C_32
                            x       y       z     vdW  Elec       q    Type
                         _______ _______ _______ _____ _____    ______ ____

>  <TORSDO>
F 3

$$$$
=
 OpenBabel11122412203D

 34 42  0  0  1  0  0  0  0  0999 V2000
  182.5650  178.7470  143.5000 C   0  0  0  0  0  0  0  0  0  0  0  0
  184.2600  178.6860  145.4410 C   0  0  0  0  0  3  0  0  0  0  0  0
  180.8550  177.7750  137.0620 C   0  0  1  0  0  0  0  0  0  0  0  0
  181.0880  178.5820  141.5610 C   0  0  0  0  0  0  0  0  0  0  0  0
  182.0730  178.0380  139.3070 C   0  0  0  0  0  0  0  0  0  0  0  0
  182.7940  177.6690  136.8450 C   0  0  1  0  0  3  0  0  0  0  0  0
  181.7370  177.7570  135.9400 O   0  0  0  0  0  0  0  0  0  0  0  0
  178.9700  177.5850  138.5310 C   0  0  0  0  0  3  0  0  0  0  0  0
  185.0230  178.4600  143.2610 C   0  0  0  0  0  0  0  0  0  0  0  0
  187.9060  177.8990  142.4200 C   0  0  0  0  0  3  0  0  0  0  0  0
  183.3620  178.0540  139.9190 N   0  0  0  0  0  2  0  0  0  0  0  0
  179.5310  177.8700  139.7220 C   0  0  0  0  0  3  0  0  0  0  0  0
  184.9360  178.2220  141.7840 C   0  0  1  0  0  3  0  0  0  0  0  0
  185.6620  178.2870  145.4130 N   0  0  0  0  0  0  0  0  0  0  0  0
  180.8580  178.5360  140.0590 C   0  0  1  0  0  3  0  0  0  0  0  0
  179.5770  177.7090  137.2340 N   0  0  0  0  0  2  0  0  0  0  0  0
  187.3570  177.5990  143.6050 C   0  0  0  0  0  0  0  0  0  0  0  0
  182.3940  178.6260  142.1050 C   0  0  0  0  0  0  0  0  0  0  0  0
  181.9840  177.8410  138.0060 C   0  0  0  0  0  0  0  0  0  0  0  0
  183.6030  178.7200  141.1910 C   0  0  2  0  0  3  0  0  0  0  0  0
  180.1660  178.7830  143.8100 C   0  0  0  0  0  3  0  0  0  0  0  0
  187.3480  178.7370  141.3420 C   0  0  0  0  0  3  0  0  0  0  0  0
  179.9870  178.6770  142.4310 C   0  0  0  0  0  3  0  0  0  0  0  0
  186.0550  178.9150  141.0730 C   0  0  0  0  0  3  0  0  0  0  0  0
  186.0400  178.1430  144.0440 C   0  0  0  0  0  0  0  0  0  0  0  0
  181.4520  178.8140  144.3440 C   0  0  0  0  0  3  0  0  0  0  0  0
  183.8880  178.7850  144.0380 N   0  0  0  0  0  0  0  0  0  0  0  0
  188.1150  176.7530  144.4270 O   0  0  0  0  0  0  0  0  0  0  0  0
  189.5250  176.5840  144.3380 C   0  0  0  0  0  2  0  0  0  0  0  0
  189.8830  176.6090  147.5820 O   0  0  0  0  0  0  0  0  0  0  0  0
  191.4770  176.7530  145.8470 C   0  0  0  0  0  2  0  0  0  0  0  0
  190.2230  177.4360  145.3860 C   0  0  2  0  0  3  0  0  0  0  0  0
  191.2610  176.5610  147.3290 C   0  0  0  0  0  2  0  0  0  0  0  0
  189.3670  177.5030  146.6320 C   0  0  0  0  0  2  0  0  0  0  0  0
  1 27  1  0  0  0  0
  1 26  1  0  0  0  0
  3  7  1  6  0  0  0
  3 16  1  0  0  0  0
  3 19  1  0  0  0  0
  4 18  1  0  0  0  0
  4 23  2  0  0  0  0
  5 11  1  0  0  0  0
  5 15  1  0  0  0  0
  6  7  1  6  0  0  0
  6  3  1  0  0  0  0
  6 19  1  0  0  0  0
  8 12  2  0  0  0  0
  9 27  1  0  0  0  0
  9 25  2  0  0  0  0
 10 17  2  0  0  0  0
 13 24  1  6  0  0  0
 13  9  1  0  0  0  0
 14  2  2  0  0  0  0
 15 12  1  1  0  0  0
 15  4  1  0  0  0  0
 16  8  1  0  0  0  0
 17 25  1  0  0  0  0
 17 28  1  0  0  0  0
 18  1  2  0  0  0  0
 19  5  2  0  0  0  0
 20 11  1  6  0  0  0
 20 13  1  0  0  0  0
 20 18  1  0  0  0  0
 21 26  2  0  0  0  0
 22 10  1  0  0  0  0
 23 21  1  0  0  0  0
 24 22  2  0  0  0  0
 25 14  1  0  0  0  0
 27  2  1  0  0  0  0
 29 28  1  0  0  0  0
 31 33  1  0  0  0  0
 32 29  1  6  0  0  0
 32 31  1  0  0  0  0
 32 34  1  0  0  0  0
 33 30  1  0  0  0  0
 34 30  1  0  0  0  0
M  END
>  <MODEL>
9

>  <REMARK>
 VINA RESULT:      -9.2      2.364      9.340
  Name = 
  3 active torsions:
  status: ('A' for Active; 'I' for Inactive)
    1  A    between atoms: C_17  and  O_28
    2  A    between atoms: O_28  and  C_29
    3  A    between atoms: C_29  and  C_32
                            x       y       z     vdW  Elec       q    Type
                         _______ _______ _______ _____ _____    ______ ____

>  <TORSDO>
F 3

$$$$
