=
 OpenBabel11122411043D

 31 35  0  0  1  0  0  0  0  0999 V2000
  193.1200  176.3280  136.3260 C   0  0  0  0  0  0  0  0  0  0  0  0
  189.3940  176.9310  136.8040 C   0  0  2  0  0  3  0  0  0  0  0  0
  188.5890  175.6510  136.6510 C   0  0  0  0  0  0  0  0  0  0  0  0
  188.3360  173.3250  135.7880 C   0  0  2  0  0  3  0  0  0  0  0  0
  190.8460  176.6470  137.0920 C   0  0  0  0  0  0  0  0  0  0  0  0
  193.5240  176.0490  137.6350 C   0  0  0  0  0  3  0  0  0  0  0  0
  189.0750  174.6270  135.9360 C   0  0  0  0  0  3  0  0  0  0  0  0
  189.2380  177.4870  139.3110 C   0  0  0  0  0  0  0  0  0  0  0  0
  194.0500  176.3080  135.2960 O   0  0  0  0  0  1  0  0  0  0  0  0
  186.6240  176.6290  137.7560 C   0  0  0  0  0  3  0  0  0  0  0  0
  188.6840  172.7220  134.5950 F   0  0  0  0  0  0  0  0  0  0  0  0
  190.2480  176.3840  139.5180 C   0  0  0  0  0  2  0  0  0  0  0  0
  188.8090  177.8570  137.9030 C   0  0  2  0  0  3  0  0  0  0  0  0
  188.7260  178.1480  140.3080 N   0  0  0  0  0  0  0  0  0  0  0  0
  191.7810  176.6240  136.0530 C   0  0  0  0  0  3  0  0  0  0  0  0
  186.8230  173.5280  135.8490 C   0  0  0  0  0  2  0  0  0  0  0  0
  191.2530  176.3740  138.4100 C   0  0  0  0  0  0  0  0  0  0  0  0
  192.5910  176.0680  138.6770 C   0  0  0  0  0  3  0  0  0  0  0  0
  187.2870  177.9740  137.7710 C   0  0  0  0  0  2  0  0  0  0  0  0
  187.2040  175.5700  137.1890 C   0  0  0  0  0  0  0  0  0  0  0  0
  186.4540  174.2750  137.1280 C   0  0  0  0  0  2  0  0  0  0  0  0
  189.7350  178.7800  142.3400 O   0  0  0  0  0  0  0  0  0  0  0  0
  188.9900  177.9800  141.7120 C   0  0  0  0  0  0  0  0  0  0  0  0
  188.5330  177.1720  145.3850 C   0  0  1  0  0  3  0  0  0  0  0  0
  187.1670  177.2580  143.2810 C   0  0  0  0  0  2  0  0  0  0  0  0
  190.5280  175.7140  142.5840 O   0  0  0  0  0  1  0  0  0  0  0  0
  188.9060  177.8870  146.5210 O   0  0  0  0  0  1  0  0  0  0  0  0
  187.5840  178.0180  144.5410 C   0  0  0  0  0  2  0  0  0  0  0  0
  189.3880  176.0440  143.3200 C   0  0  2  0  0  3  0  0  0  0  0  0
  188.3830  176.8250  142.4560 C   0  0  2  0  0  3  0  0  0  0  0  0
  189.7780  176.8140  144.5800 C   0  0  0  0  0  2  0  0  0  0  0  0
  1  6  1  0  0  0  0
  2  3  1  1  0  0  0
  2  5  1  0  0  0  0
  2 13  1  0  0  0  0
  3 20  1  0  0  0  0
  4 11  1  6  0  0  0
  4 16  1  0  0  0  0
  4  7  1  0  0  0  0
  5 17  2  0  0  0  0
  6 18  2  0  0  0  0
  7  3  2  0  0  0  0
  8 12  1  0  0  0  0
  8 14  2  0  0  0  0
  9  1  1  0  0  0  0
 10 19  1  0  0  0  0
 13 19  1  1  0  0  0
 13  8  1  0  0  0  0
 14 23  1  0  0  0  0
 15  1  2  0  0  0  0
 15  5  1  0  0  0  0
 16 21  1  0  0  0  0
 17 18  1  0  0  0  0
 17 12  1  0  0  0  0
 20 10  2  0  0  0  0
 21 20  1  0  0  0  0
 23 22  2  0  0  0  0
 24 27  1  1  0  0  0
 25 28  1  0  0  0  0
 28 24  1  0  0  0  0
 29 26  1  6  0  0  0
 29 31  1  0  0  0  0
 30 23  1  1  0  0  0
 30 25  1  0  0  0  0
 30 29  1  0  0  0  0
 31 24  1  0  0  0  0
M  END
>  <MODEL>
1

>  <REMARK>
 VINA RESULT:      -7.3      0.000      0.000
  Name = 
  2 active torsions:
  status: ('A' for Active; 'I' for Inactive)
    1  A    between atoms: C_5  and  N_16
    2  A    between atoms: C_5  and  C_30
                            x       y       z     vdW  Elec       q    Type
                         _______ _______ _______ _____ _____    ______ ____

>  <TORSDO>
F 2

$$$$
=
 OpenBabel11122411043D

 31 35  0  0  1  0  0  0  0  0999 V2000
  192.7370  176.7500  137.9220 C   0  0  0  0  0  0  0  0  0  0  0  0
  189.0050  176.9000  137.1990 C   0  0  2  0  0  3  0  0  0  0  0  0
  188.3950  175.5130  137.0750 C   0  0  0  0  0  0  0  0  0  0  0  0
  188.6150  173.0660  136.6440 C   0  0  2  0  0  3  0  0  0  0  0  0
  190.3190  176.8690  137.9360 C   0  0  0  0  0  0  0  0  0  0  0  0
  192.7470  176.7430  139.3210 C   0  0  0  0  0  3  0  0  0  0  0  0
  189.1620  174.4640  136.7400 C   0  0  0  0  0  3  0  0  0  0  0  0
  188.0480  177.8220  139.4010 C   0  0  0  0  0  0  0  0  0  0  0  0
  193.9340  176.6950  137.2210 O   0  0  0  0  0  1  0  0  0  0  0  0
  186.1130  176.3720  137.3670 C   0  0  0  0  0  3  0  0  0  0  0  0
  189.3590  172.3330  135.7390 F   0  0  0  0  0  0  0  0  0  0  0  0
  189.0380  176.9180  140.0960 C   0  0  0  0  0  2  0  0  0  0  0  0
  188.0370  177.8990  137.8850 C   0  0  2  0  0  3  0  0  0  0  0  0
  187.2030  178.5570  140.0650 N   0  0  0  0  0  0  0  0  0  0  0  0
  191.5240  176.8100  137.2300 C   0  0  0  0  0  3  0  0  0  0  0  0
  187.1440  173.0650  136.2340 C   0  0  0  0  0  2  0  0  0  0  0  0
  190.3290  176.8700  139.3410 C   0  0  0  0  0  0  0  0  0  0  0  0
  191.5430  176.7990  140.0300 C   0  0  0  0  0  3  0  0  0  0  0  0
  186.6240  177.7810  137.3080 C   0  0  0  0  0  2  0  0  0  0  0  0
  186.9250  175.3280  137.2040 C   0  0  0  0  0  0  0  0  0  0  0  0
  186.3410  173.9480  137.1850 C   0  0  0  0  0  2  0  0  0  0  0  0
  187.7090  179.4790  142.1710 O   0  0  0  0  0  0  0  0  0  0  0  0
  187.0420  178.6540  141.4900 C   0  0  0  0  0  0  0  0  0  0  0  0
  185.3720  178.7470  144.8900 C   0  0  1  0  0  3  0  0  0  0  0  0
  184.7410  178.4600  142.4780 C   0  0  0  0  0  2  0  0  0  0  0  0
  187.8830  176.5310  143.2360 O   0  0  0  0  0  1  0  0  0  0  0  0
  185.4840  179.6700  145.9270 O   0  0  0  0  0  1  0  0  0  0  0  0
  184.8630  179.4510  143.6360 C   0  0  0  0  0  2  0  0  0  0  0  0
  186.6360  177.1110  143.4770 C   0  0  2  0  0  3  0  0  0  0  0  0
  186.0720  177.7530  142.1980 C   0  0  2  0  0  3  0  0  0  0  0  0
  186.7350  178.1150  144.6240 C   0  0  0  0  0  2  0  0  0  0  0  0
  1  6  1  0  0  0  0
  2  3  1  1  0  0  0
  2 13  1  0  0  0  0
  2  5  1  0  0  0  0
  3 20  1  0  0  0  0
  4 11  1  6  0  0  0
  4  7  1  0  0  0  0
  5 17  2  0  0  0  0
  6 18  2  0  0  0  0
  7  3  2  0  0  0  0
  8 14  2  0  0  0  0
  8 12  1  0  0  0  0
  9  1  1  0  0  0  0
 13 19  1  6  0  0  0
 13  8  1  0  0  0  0
 14 23  1  0  0  0  0
 15  1  2  0  0  0  0
 15  5  1  0  0  0  0
 16  4  1  0  0  0  0
 16 21  1  0  0  0  0
 17 18  1  0  0  0  0
 17 12  1  0  0  0  0
 19 10  1  0  0  0  0
 20 10  2  0  0  0  0
 21 20  1  0  0  0  0
 23 22  2  0  0  0  0
 24 27  1  1  0  0  0
 25 28  1  0  0  0  0
 28 24  1  0  0  0  0
 29 26  1  6  0  0  0
 29 31  1  0  0  0  0
 30 23  1  1  0  0  0
 30 25  1  0  0  0  0
 30 29  1  0  0  0  0
 31 24  1  0  0  0  0
M  END
>  <MODEL>
2

>  <REMARK>
 VINA RESULT:      -7.1      1.628      1.972
  Name = 
  2 active torsions:
  status: ('A' for Active; 'I' for Inactive)
    1  A    between atoms: C_5  and  N_16
    2  A    between atoms: C_5  and  C_30
                            x       y       z     vdW  Elec       q    Type
                         _______ _______ _______ _____ _____    ______ ____

>  <TORSDO>
F 2

$$$$
=
 OpenBabel11122411043D

 31 35  0  0  1  0  0  0  0  0999 V2000
  183.1220  178.8710  143.0450 C   0  0  0  0  0  0  0  0  0  0  0  0
  182.0450  178.0660  139.4850 C   0  0  2  0  0  3  0  0  0  0  0  0
  181.5920  179.3080  138.7360 C   0  0  0  0  0  0  0  0  0  0  0  0
  180.7240  181.6460  138.7150 C   0  0  2  0  0  3  0  0  0  0  0  0
  182.8990  178.4130  140.6780 C   0  0  0  0  0  0  0  0  0  0  0  0
  184.4860  179.1270  142.8690 C   0  0  0  0  0  3  0  0  0  0  0  0
  181.1450  180.3790  139.4080 C   0  0  0  0  0  3  0  0  0  0  0  0
  184.2680  177.4200  138.3640 C   0  0  0  0  0  0  0  0  0  0  0  0
  182.5570  178.9720  144.3080 O   0  0  0  0  0  1  0  0  0  0  0  0
  181.7970  178.1970  136.5550 C   0  0  0  0  0  3  0  0  0  0  0  0
  179.7800  182.3060  139.4780 F   0  0  0  0  0  0  0  0  0  0  0  0
  184.8780  178.5650  139.1380 C   0  0  0  0  0  2  0  0  0  0  0  0
  182.8030  177.0760  138.5630 C   0  0  2  0  0  3  0  0  0  0  0  0
  184.9660  176.7010  137.5330 N   0  0  0  0  0  0  0  0  0  0  0  0
  182.3280  178.5180  141.9500 C   0  0  0  0  0  3  0  0  0  0  0  0
  180.1660  181.3650  137.3210 C   0  0  0  0  0  2  0  0  0  0  0  0
  184.2710  178.6620  140.5020 C   0  0  0  0  0  0  0  0  0  0  0  0
  185.0600  179.0260  141.5970 C   0  0  0  0  0  3  0  0  0  0  0  0
  182.0650  176.8870  137.2340 C   0  0  0  0  0  2  0  0  0  0  0  0
  181.5240  179.3020  137.2500 C   0  0  0  0  0  0  0  0  0  0  0  0
  181.1780  180.5590  136.5120 C   0  0  0  0  0  2  0  0  0  0  0  0
  187.2140  176.0030  137.6030 O   0  0  0  0  0  0  0  0  0  0  0  0
  186.3580  176.8350  137.1980 C   0  0  0  0  0  0  0  0  0  0  0  0
  189.4150  177.4710  135.0530 C   0  0  1  0  0  3  0  0  0  0  0  0
  186.9160  177.6180  134.8780 C   0  0  0  0  0  2  0  0  0  0  0  0
  188.0610  178.9120  138.2220 O   0  0  0  0  0  1  0  0  0  0  0  0
  190.5210  176.6650  134.7930 O   0  0  0  0  0  1  0  0  0  0  0  0
  188.1470  176.7570  134.5950 C   0  0  0  0  0  2  0  0  0  0  0  0
  188.1250  178.6380  136.8540 C   0  0  2  0  0  3  0  0  0  0  0  0
  186.8190  177.9930  136.3610 C   0  0  2  0  0  3  0  0  0  0  0  0
  189.3430  177.7690  136.5480 C   0  0  0  0  0  2  0  0  0  0  0  0
  1  9  1  0  0  0  0
  2  3  1  6  0  0  0
  2  5  1  0  0  0  0
  3  7  2  0  0  0  0
  4  7  1  0  0  0  0
  4 11  1  1  0  0  0
  5 15  1  0  0  0  0
  6  1  1  0  0  0  0
  8 13  1  0  0  0  0
  8 12  1  0  0  0  0
 10 19  1  0  0  0  0
 10 20  2  0  0  0  0
 12 17  1  0  0  0  0
 13 19  1  6  0  0  0
 13  2  1  0  0  0  0
 14  8  2  0  0  0  0
 15  1  2  0  0  0  0
 16  4  1  0  0  0  0
 17  5  2  0  0  0  0
 17 18  1  0  0  0  0
 18  6  2  0  0  0  0
 20  3  1  0  0  0  0
 21 20  1  0  0  0  0
 21 16  1  0  0  0  0
 23 14  1  0  0  0  0
 23 22  2  0  0  0  0
 24 27  1  1  0  0  0
 24 31  1  0  0  0  0
 25 30  1  0  0  0  0
 28 25  1  0  0  0  0
 28 24  1  0  0  0  0
 29 26  1  1  0  0  0
 30 29  1  0  0  0  0
 30 23  1  1  0  0  0
 31 29  1  0  0  0  0
M  END
>  <MODEL>
3

>  <REMARK>
 VINA RESULT:      -7.1      5.235      8.933
  Name = 
  2 active torsions:
  status: ('A' for Active; 'I' for Inactive)
    1  A    between atoms: C_5  and  N_16
    2  A    between atoms: C_5  and  C_30
                            x       y       z     vdW  Elec       q    Type
                         _______ _______ _______ _____ _____    ______ ____

>  <TORSDO>
F 2

$$$$
=
 OpenBabel11122411043D

 31 35  0  0  1  0  0  0  0  0999 V2000
  192.5740  177.1710  139.7520 C   0  0  0  0  0  0  0  0  0  0  0  0
  189.2350  177.3730  137.9380 C   0  0  2  0  0  3  0  0  0  0  0  0
  188.6860  175.9950  137.6070 C   0  0  0  0  0  0  0  0  0  0  0  0
  189.0160  173.5550  137.2090 C   0  0  2  0  0  3  0  0  0  0  0  0
  190.2650  177.3150  139.0370 C   0  0  0  0  0  0  0  0  0  0  0  0
  192.1600  177.1360  141.0870 C   0  0  0  0  0  3  0  0  0  0  0  0
  189.5130  174.9450  137.4950 C   0  0  0  0  0  3  0  0  0  0  0  0
  187.6620  178.2620  139.7680 C   0  0  0  0  0  0  0  0  0  0  0  0
  193.9260  177.1160  139.4440 O   0  0  0  0  0  1  0  0  0  0  0  0
  186.4260  176.8730  137.2140 C   0  0  0  0  0  3  0  0  0  0  0  0
  189.9950  172.8320  136.5550 F   0  0  0  0  0  0  0  0  0  0  0  0
  188.3910  177.3340  140.7100 C   0  0  0  0  0  2  0  0  0  0  0  0
  188.1100  178.3690  138.3220 C   0  0  2  0  0  3  0  0  0  0  0  0
  186.6580  178.9930  140.1610 N   0  0  0  0  0  0  0  0  0  0  0  0
  191.6270  177.2560  138.7270 C   0  0  0  0  0  3  0  0  0  0  0  0
  187.7370  173.5770  136.3730 C   0  0  0  0  0  2  0  0  0  0  0  0
  189.8500  177.2880  140.3800 C   0  0  0  0  0  0  0  0  0  0  0  0
  190.7990  177.1910  141.4010 C   0  0  0  0  0  3  0  0  0  0  0  0
  186.9360  178.2770  137.3420 C   0  0  0  0  0  2  0  0  0  0  0  0
  187.2450  175.8230  137.2810 C   0  0  0  0  0  0  0  0  0  0  0  0
  186.6880  174.4500  137.0570 C   0  0  0  0  0  2  0  0  0  0  0  0
  186.1020  180.1290  142.1480 O   0  0  0  0  0  0  0  0  0  0  0  0
  186.0740  179.0640  141.4740 C   0  0  0  0  0  0  0  0  0  0  0  0
  183.8810  178.4840  144.5070 C   0  0  1  0  0  3  0  0  0  0  0  0
  183.8970  177.9550  142.0540 C   0  0  0  0  0  2  0  0  0  0  0  0
  187.3350  177.4730  143.5090 O   0  0  0  0  0  1  0  0  0  0  0  0
  183.4120  179.3780  145.4690 O   0  0  0  0  0  1  0  0  0  0  0  0
  183.3870  178.9150  143.1300 C   0  0  0  0  0  2  0  0  0  0  0  0
  185.9390  177.4970  143.4790 C   0  0  2  0  0  3  0  0  0  0  0  0
  185.4260  177.8490  142.0720 C   0  0  2  0  0  3  0  0  0  0  0  0
  185.4060  178.4590  144.5380 C   0  0  0  0  0  2  0  0  0  0  0  0
  1  6  1  0  0  0  0
  2  3  1  1  0  0  0
  2 13  1  0  0  0  0
  2  5  1  0  0  0  0
  4 11  1  6  0  0  0
  4  7  1  0  0  0  0
  5 17  2  0  0  0  0
  6 18  2  0  0  0  0
  7  3  2  0  0  0  0
  8 14  2  0  0  0  0
  8 12  1  0  0  0  0
  9  1  1  0  0  0  0
 10 20  2  0  0  0  0
 10 19  1  0  0  0  0
 13 19  1  6  0  0  0
 13  8  1  0  0  0  0
 14 23  1  0  0  0  0
 15  5  1  0  0  0  0
 15  1  2  0  0  0  0
 16 21  1  0  0  0  0
 16  4  1  0  0  0  0
 17 12  1  0  0  0  0
 17 18  1  0  0  0  0
 20  3  1  0  0  0  0
 21 20  1  0  0  0  0
 23 22  2  0  0  0  0
 24 31  1  0  0  0  0
 24 27  1  1  0  0  0
 25 30  1  0  0  0  0
 25 28  1  0  0  0  0
 28 24  1  0  0  0  0
 29 26  1  6  0  0  0
 29 31  1  0  0  0  0
 30 23  1  1  0  0  0
 30 29  1  0  0  0  0
M  END
>  <MODEL>
4

>  <REMARK>
 VINA RESULT:      -7.1      2.403      3.017
  Name = 
  2 active torsions:
  status: ('A' for Active; 'I' for Inactive)
    1  A    between atoms: C_5  and  N_16
    2  A    between atoms: C_5  and  C_30
                            x       y       z     vdW  Elec       q    Type
                         _______ _______ _______ _____ _____    ______ ____

>  <TORSDO>
F 2

$$$$
=
 OpenBabel11122411043D

 31 35  0  0  1  0  0  0  0  0999 V2000
  191.0180  177.4070  142.4990 C   0  0  0  0  0  0  0  0  0  0  0  0
  190.3020  177.9990  138.8090 C   0  0  2  0  0  3  0  0  0  0  0  0
  190.6130  176.7730  137.9680 C   0  0  0  0  0  0  0  0  0  0  0  0
  191.8060  174.6100  137.6250 C   0  0  2  0  0  3  0  0  0  0  0  0
  190.1200  177.6480  140.2640 C   0  0  0  0  0  0  0  0  0  0  0  0
  189.7830  176.9240  142.9450 C   0  0  0  0  0  3  0  0  0  0  0  0
  191.4940  175.8600  138.4020 C   0  0  0  0  0  3  0  0  0  0  0  0
  187.7360  178.1710  138.7620 C   0  0  0  0  0  0  0  0  0  0  0  0
  192.0770  177.5260  143.3880 O   0  0  0  0  0  1  0  0  0  0  0  0
  189.2940  177.6070  136.0710 C   0  0  0  0  0  3  0  0  0  0  0  0
  193.0900  174.1880  137.9130 F   0  0  0  0  0  0  0  0  0  0  0  0
  187.7390  177.0310  139.7520 C   0  0  0  0  0  2  0  0  0  0  0  0
  189.0530  178.7580  138.2890 C   0  0  2  0  0  3  0  0  0  0  0  0
  186.6300  178.6830  138.3040 N   0  0  0  0  0  0  0  0  0  0  0  0
  191.1880  177.7650  141.1590 C   0  0  0  0  0  3  0  0  0  0  0  0
  191.6530  174.8290  136.1210 C   0  0  0  0  0  2  0  0  0  0  0  0
  188.8760  177.1710  140.7140 C   0  0  0  0  0  0  0  0  0  0  0  0
  188.7140  176.8030  142.0520 C   0  0  0  0  0  3  0  0  0  0  0  0
  189.1030  178.9220  136.7670 C   0  0  0  0  0  2  0  0  0  0  0  0
  190.0370  176.6370  136.6020 C   0  0  0  0  0  0  0  0  0  0  0  0
  190.2620  175.3800  135.8190 C   0  0  0  0  0  2  0  0  0  0  0  0
  184.6260  177.5260  137.8650 O   0  0  0  0  0  0  0  0  0  0  0  0
  185.2790  178.2990  138.6170 C   0  0  0  0  0  0  0  0  0  0  0  0
  181.7240  178.2380  139.9240 C   0  0  1  0  0  3  0  0  0  0  0  0
  184.0430  177.7030  140.7200 C   0  0  0  0  0  2  0  0  0  0  0  0
  184.0590  180.8990  138.7310 O   0  0  0  0  0  1  0  0  0  0  0  0
  180.5660  177.6970  139.3690 O   0  0  0  0  0  1  0  0  0  0  0  0
  182.7570  177.1330  140.1210 C   0  0  0  0  0  2  0  0  0  0  0  0
  183.5560  179.9100  139.5800 C   0  0  2  0  0  3  0  0  0  0  0  0
  184.6170  178.8300  139.8550 C   0  0  2  0  0  3  0  0  0  0  0  0
  182.2750  179.3170  138.9960 C   0  0  0  0  0  2  0  0  0  0  0  0
  1  6  1  0  0  0  0
  1  9  1  0  0  0  0
  2  3  1  6  0  0  0
  2  5  1  0  0  0  0
  3  7  2  0  0  0  0
  4 11  1  6  0  0  0
  4  7  1  0  0  0  0
  5 17  2  0  0  0  0
  5 15  1  0  0  0  0
  8 12  1  0  0  0  0
 10 20  2  0  0  0  0
 10 19  1  0  0  0  0
 12 17  1  0  0  0  0
 13 19  1  6  0  0  0
 13  8  1  0  0  0  0
 13  2  1  0  0  0  0
 14 23  1  0  0  0  0
 14  8  2  0  0  0  0
 15  1  2  0  0  0  0
 16  4  1  0  0  0  0
 17 18  1  0  0  0  0
 18  6  2  0  0  0  0
 20  3  1  0  0  0  0
 21 16  1  0  0  0  0
 21 20  1  0  0  0  0
 22 23  2  0  0  0  0
 24 27  1  6  0  0  0
 24 28  1  0  0  0  0
 28 25  1  0  0  0  0
 29 26  1  6  0  0  0
 29 30  1  0  0  0  0
 30 23  1  6  0  0  0
 30 25  1  0  0  0  0
 31 29  1  0  0  0  0
 31 24  1  0  0  0  0
M  END
>  <MODEL>
5

>  <REMARK>
 VINA RESULT:      -6.8      3.633      5.662
  Name = 
  2 active torsions:
  status: ('A' for Active; 'I' for Inactive)
    1  A    between atoms: C_5  and  N_16
    2  A    between atoms: C_5  and  C_30
                            x       y       z     vdW  Elec       q    Type
                         _______ _______ _______ _____ _____    ______ ____

>  <TORSDO>
F 2

$$$$
=
 OpenBabel11122411043D

 31 35  0  0  1  0  0  0  0  0999 V2000
  184.4240  178.4790  142.5870 C   0  0  0  0  0  0  0  0  0  0  0  0
  182.7230  177.7170  139.2690 C   0  0  2  0  0  3  0  0  0  0  0  0
  181.9550  178.9160  138.7380 C   0  0  0  0  0  0  0  0  0  0  0  0
  180.7940  181.0940  139.0970 C   0  0  2  0  0  3  0  0  0  0  0  0
  183.7590  178.1230  140.2860 C   0  0  0  0  0  0  0  0  0  0  0  0
  185.6700  178.9460  142.1560 C   0  0  0  0  0  3  0  0  0  0  0  0
  181.5230  179.8690  139.5770 C   0  0  0  0  0  3  0  0  0  0  0  0
  184.7180  177.4760  137.6640 C   0  0  0  0  0  0  0  0  0  0  0  0
  184.1360  178.4240  143.9430 O   0  0  0  0  0  1  0  0  0  0  0  0
  181.8320  177.9700  136.4750 C   0  0  0  0  0  3  0  0  0  0  0  0
  179.9570  181.5610  140.0920 F   0  0  0  0  0  0  0  0  0  0  0  0
  185.3190  178.6550  138.3910 C   0  0  0  0  0  2  0  0  0  0  0  0
  183.3910  176.9050  138.1300 C   0  0  2  0  0  3  0  0  0  0  0  0
  185.3110  176.9170  136.6490 N   0  0  0  0  0  0  0  0  0  0  0  0
  183.4680  178.0710  141.6530 C   0  0  0  0  0  3  0  0  0  0  0  0
  179.9910  180.8090  137.8290 C   0  0  0  0  0  2  0  0  0  0  0  0
  185.0140  178.5850  139.8540 C   0  0  0  0  0  0  0  0  0  0  0  0
  185.9640  179.0030  140.7900 C   0  0  0  0  0  3  0  0  0  0  0  0
  182.4160  176.6810  136.9700 C   0  0  0  0  0  2  0  0  0  0  0  0
  181.5690  178.9810  137.3030 C   0  0  0  0  0  0  0  0  0  0  0  0
  180.9040  180.2100  136.7630 C   0  0  0  0  0  2  0  0  0  0  0  0
  186.6930  178.3410  135.3810 O   0  0  0  0  0  0  0  0  0  0  0  0
  186.5670  177.2780  136.0470 C   0  0  0  0  0  0  0  0  0  0  0  0
  189.6410  177.3310  138.2590 C   0  0  1  0  0  3  0  0  0  0  0  0
  187.8170  175.7420  137.5910 C   0  0  0  0  0  2  0  0  0  0  0  0
  189.0140  177.6790  134.5940 O   0  0  0  0  0  1  0  0  0  0  0  0
  190.0430  178.2490  139.2280 O   0  0  0  0  0  1  0  0  0  0  0  0
  188.2860  176.7470  138.6450 C   0  0  0  0  0  2  0  0  0  0  0  0
  189.0940  177.0410  135.8330 C   0  0  2  0  0  3  0  0  0  0  0  0
  187.7570  176.3750  136.1970 C   0  0  2  0  0  3  0  0  0  0  0  0
  189.5510  178.0280  136.9050 C   0  0  0  0  0  2  0  0  0  0  0  0
  1  9  1  0  0  0  0
  2  3  1  6  0  0  0
  2  5  1  0  0  0  0
  3  7  2  0  0  0  0
  4  7  1  0  0  0  0
  4 11  1  1  0  0  0
  5 15  1  0  0  0  0
  6  1  1  0  0  0  0
  8 13  1  0  0  0  0
  8 12  1  0  0  0  0
 10 19  1  0  0  0  0
 10 20  2  0  0  0  0
 12 17  1  0  0  0  0
 13 19  1  6  0  0  0
 13  2  1  0  0  0  0
 14  8  2  0  0  0  0
 15  1  2  0  0  0  0
 16  4  1  0  0  0  0
 17  5  2  0  0  0  0
 17 18  1  0  0  0  0
 18  6  2  0  0  0  0
 20  3  1  0  0  0  0
 21 20  1  0  0  0  0
 21 16  1  0  0  0  0
 22 23  2  0  0  0  0
 23 14  1  0  0  0  0
 24 28  1  0  0  0  0
 24 27  1  1  0  0  0
 25 28  1  0  0  0  0
 29 26  1  6  0  0  0
 29 30  1  0  0  0  0
 29 31  1  0  0  0  0
 30 23  1  1  0  0  0
 30 25  1  0  0  0  0
 31 24  1  0  0  0  0
M  END
>  <MODEL>
6

>  <REMARK>
 VINA RESULT:      -6.8      4.955      8.142
  Name = 
  2 active torsions:
  status: ('A' for Active; 'I' for Inactive)
    1  A    between atoms: C_5  and  N_16
    2  A    between atoms: C_5  and  C_30
                            x       y       z     vdW  Elec       q    Type
                         _______ _______ _______ _____ _____    ______ ____

>  <TORSDO>
F 2

$$$$
=
 OpenBabel11122411043D

 31 35  0  0  1  0  0  0  0  0999 V2000
  190.6960  177.0610  141.4840 C   0  0  0  0  0  0  0  0  0  0  0  0
  190.3900  175.5410  138.0100 C   0  0  2  0  0  3  0  0  0  0  0  0
  189.7540  176.5060  137.0230 C   0  0  0  0  0  0  0  0  0  0  0  0
  188.3370  178.4970  136.5270 C   0  0  2  0  0  3  0  0  0  0  0  0
  190.9450  176.2570  139.2140 C   0  0  0  0  0  0  0  0  0  0  0  0
  191.9610  177.6520  141.4160 C   0  0  0  0  0  3  0  0  0  0  0  0
  188.9580  177.4930  137.4590 C   0  0  0  0  0  3  0  0  0  0  0  0
  192.8440  175.3820  137.2550 C   0  0  0  0  0  0  0  0  0  0  0  0
  189.9440  177.1670  142.6460 O   0  0  0  0  0  1  0  0  0  0  0  0
  190.5500  175.2190  135.0880 C   0  0  0  0  0  3  0  0  0  0  0  0
  187.1560  178.9690  137.0670 F   0  0  0  0  0  0  0  0  0  0  0  0
  193.0250  176.7400  137.8920 C   0  0  0  0  0  2  0  0  0  0  0  0
  191.5000  174.6830  137.3490 C   0  0  2  0  0  3  0  0  0  0  0  0
  193.8150  174.7780  136.6320 N   0  0  0  0  0  0  0  0  0  0  0  0
  190.1860  176.3670  140.3830 C   0  0  0  0  0  3  0  0  0  0  0  0
  188.0790  177.8980  135.1460 C   0  0  0  0  0  2  0  0  0  0  0  0
  192.2200  176.8440  139.1480 C   0  0  0  0  0  0  0  0  0  0  0  0
  192.7220  177.5470  140.2480 C   0  0  0  0  0  3  0  0  0  0  0  0
  191.0370  174.1310  135.9970 C   0  0  0  0  0  2  0  0  0  0  0  0
  189.9080  176.2880  135.5590 C   0  0  0  0  0  0  0  0  0  0  0  0
  189.3690  177.2980  134.5940 C   0  0  0  0  0  2  0  0  0  0  0  0
  195.4010  176.3190  135.8230 O   0  0  0  0  0  0  0  0  0  0  0  0
  195.1620  175.2410  136.4310 C   0  0  0  0  0  0  0  0  0  0  0  0
  195.5810  171.6090  137.4250 C   0  0  1  0  0  3  0  0  0  0  0  0
  196.7000  173.3120  135.9600 C   0  0  0  0  0  2  0  0  0  0  0  0
  195.6920  174.8760  139.2330 O   0  0  0  0  0  1  0  0  0  0  0  0
  194.6590  170.5640  137.4430 O   0  0  0  0  0  1  0  0  0  0  0  0
  195.7000  172.1560  136.0060 C   0  0  0  0  0  2  0  0  0  0  0  0
  196.1120  173.8710  138.3580 C   0  0  2  0  0  3  0  0  0  0  0  0
  196.3170  174.4270  136.9390 C   0  0  2  0  0  3  0  0  0  0  0  0
  195.1210  172.7080  138.3780 C   0  0  0  0  0  2  0  0  0  0  0  0
  1  9  1  0  0  0  0
  2  3  1  6  0  0  0
  2  5  1  0  0  0  0
  3  7  2  0  0  0  0
  4 11  1  1  0  0  0
  4  7  1  0  0  0  0
  5 15  1  0  0  0  0
  6  1  1  0  0  0  0
  8 13  1  0  0  0  0
  8 12  1  0  0  0  0
 10 20  2  0  0  0  0
 10 19  1  0  0  0  0
 12 17  1  0  0  0  0
 13 19  1  6  0  0  0
 13  2  1  0  0  0  0
 14  8  2  0  0  0  0
 15  1  2  0  0  0  0
 16  4  1  0  0  0  0
 17  5  2  0  0  0  0
 17 18  1  0  0  0  0
 18  6  2  0  0  0  0
 20  3  1  0  0  0  0
 21 16  1  0  0  0  0
 21 20  1  0  0  0  0
 22 23  2  0  0  0  0
 23 14  1  0  0  0  0
 24 27  1  6  0  0  0
 24 31  1  0  0  0  0
 25 28  1  0  0  0  0
 25 30  1  0  0  0  0
 28 24  1  0  0  0  0
 29 31  1  0  0  0  0
 29 26  1  1  0  0  0
 30 23  1  6  0  0  0
 30 29  1  0  0  0  0
M  END
>  <MODEL>
7

>  <REMARK>
 VINA RESULT:      -6.7      3.210      7.088
  Name = 
  2 active torsions:
  status: ('A' for Active; 'I' for Inactive)
    1  A    between atoms: C_5  and  N_16
    2  A    between atoms: C_5  and  C_30
                            x       y       z     vdW  Elec       q    Type
                         _______ _______ _______ _____ _____    ______ ____

>  <TORSDO>
F 2

$$$$
=
 OpenBabel11122411043D

 31 35  0  0  1  0  0  0  0  0999 V2000
  188.8010  178.2030  136.5440 C   0  0  0  0  0  0  0  0  0  0  0  0
  185.1340  178.1620  137.5570 C   0  0  2  0  0  3  0  0  0  0  0  0
  184.5570  176.7570  137.5410 C   0  0  0  0  0  0  0  0  0  0  0  0
  184.6030  174.3900  136.7530 C   0  0  2  0  0  3  0  0  0  0  0  0
  186.6390  178.1480  137.6320 C   0  0  0  0  0  0  0  0  0  0  0  0
  189.4310  178.0490  137.7830 C   0  0  0  0  0  3  0  0  0  0  0  0
  185.1120  175.8060  136.7740 C   0  0  0  0  0  3  0  0  0  0  0  0
  185.2400  178.7780  140.0530 C   0  0  0  0  0  0  0  0  0  0  0  0
  189.5630  178.3060  135.3880 O   0  0  0  0  0  1  0  0  0  0  0  0
  182.6280  177.4170  138.9100 C   0  0  0  0  0  3  0  0  0  0  0  0
  184.8800  173.8120  135.5300 F   0  0  0  0  0  0  0  0  0  0  0  0
  186.4500  177.8780  140.1230 C   0  0  0  0  0  2  0  0  0  0  0  0
  184.5560  179.0130  138.7180 C   0  0  2  0  0  3  0  0  0  0  0  0
  184.7650  179.3780  141.1060 N   0  0  0  0  0  0  0  0  0  0  0  0
  187.4060  178.2490  136.4680 C   0  0  0  0  0  3  0  0  0  0  0  0
  183.1030  174.3280  137.0340 C   0  0  0  0  0  2  0  0  0  0  0  0
  187.2730  178.0020  138.8790 C   0  0  0  0  0  0  0  0  0  0  0  0
  188.6670  177.9450  138.9500 C   0  0  0  0  0  3  0  0  0  0  0  0
  183.0350  178.8570  138.8100 C   0  0  0  0  0  2  0  0  0  0  0  0
  183.3000  176.4550  138.2770 C   0  0  0  0  0  0  0  0  0  0  0  0
  182.7920  175.0470  138.3440 C   0  0  0  0  0  2  0  0  0  0  0  0
  185.9170  180.2580  142.9620 O   0  0  0  0  0  0  0  0  0  0  0  0
  185.2530  179.3130  142.4580 C   0  0  0  0  0  0  0  0  0  0  0  0
  185.3530  178.6070  146.1780 C   0  0  1  0  0  3  0  0  0  0  0  0
  183.7940  178.3040  144.2350 C   0  0  0  0  0  2  0  0  0  0  0  0
  187.3180  177.4620  143.2150 O   0  0  0  0  0  1  0  0  0  0  0  0
  185.6790  179.4390  147.2480 O   0  0  0  0  0  1  0  0  0  0  0  0
  184.1660  179.1940  145.4220 C   0  0  0  0  0  2  0  0  0  0  0  0
  186.2140  177.5830  144.0620 C   0  0  2  0  0  3  0  0  0  0  0  0
  184.9840  178.0950  143.2940 C   0  0  2  0  0  3  0  0  0  0  0  0
  186.5580  178.4770  145.2510 C   0  0  0  0  0  2  0  0  0  0  0  0
  1  6  1  0  0  0  0
  2  3  1  1  0  0  0
  2  5  1  0  0  0  0
  2 13  1  0  0  0  0
  3 20  1  0  0  0  0
  4 11  1  6  0  0  0
  4  7  1  0  0  0  0
  4 16  1  0  0  0  0
  5 17  2  0  0  0  0
  6 18  2  0  0  0  0
  7  3  2  0  0  0  0
  8 12  1  0  0  0  0
  8 14  2  0  0  0  0
  9  1  1  0  0  0  0
 13 19  1  1  0  0  0
 13  8  1  0  0  0  0
 14 23  1  0  0  0  0
 15  1  2  0  0  0  0
 15  5  1  0  0  0  0
 16 21  1  0  0  0  0
 17 18  1  0  0  0  0
 17 12  1  0  0  0  0
 19 10  1  0  0  0  0
 20 21  1  0  0  0  0
 20 10  2  0  0  0  0
 23 22  2  0  0  0  0
 24 27  1  1  0  0  0
 25 28  1  0  0  0  0
 28 24  1  0  0  0  0
 29 26  1  6  0  0  0
 29 31  1  0  0  0  0
 30 23  1  1  0  0  0
 30 29  1  0  0  0  0
 30 25  1  0  0  0  0
 31 24  1  0  0  0  0
M  END
>  <MODEL>
8

>  <REMARK>
 VINA RESULT:      -6.7      3.018      4.160
  Name = 
  2 active torsions:
  status: ('A' for Active; 'I' for Inactive)
    1  A    between atoms: C_5  and  N_16
    2  A    between atoms: C_5  and  C_30
                            x       y       z     vdW  Elec       q    Type
                         _______ _______ _______ _____ _____    ______ ____

>  <TORSDO>
F 2

$$$$
=
 OpenBabel11122411043D

 31 35  0  0  1  0  0  0  0  0999 V2000
  190.8200  177.4270  141.3740 C   0  0  0  0  0  0  0  0  0  0  0  0
  190.0300  175.5190  138.1780 C   0  0  2  0  0  3  0  0  0  0  0  0
  189.4850  176.4320  137.0930 C   0  0  0  0  0  0  0  0  0  0  0  0
  188.3680  178.5450  136.3800 C   0  0  2  0  0  3  0  0  0  0  0  0
  190.7750  176.2910  139.2370 C   0  0  0  0  0  0  0  0  0  0  0  0
  192.1540  177.7840  141.1590 C   0  0  0  0  0  3  0  0  0  0  0  0
  188.8880  177.5880  137.4180 C   0  0  0  0  0  3  0  0  0  0  0  0
  192.3680  174.8530  137.3360 C   0  0  0  0  0  0  0  0  0  0  0  0
  190.1790  177.8140  142.5430 O   0  0  0  0  0  1  0  0  0  0  0  0
  189.9270  174.7800  135.3300 C   0  0  0  0  0  3  0  0  0  0  0  0
  187.3180  179.2760  136.9020 F   0  0  0  0  0  0  0  0  0  0  0  0
  192.8060  176.2350  137.7580 C   0  0  0  0  0  2  0  0  0  0  0  0
  190.9410  174.4060  137.5970 C   0  0  2  0  0  3  0  0  0  0  0  0
  193.1840  174.0170  136.7630 N   0  0  0  0  0  0  0  0  0  0  0  0
  190.1290  176.6840  140.4120 C   0  0  0  0  0  3  0  0  0  0  0  0
  187.9200  177.8140  135.1160 C   0  0  0  0  0  2  0  0  0  0  0  0
  192.1200  176.6430  139.0240 C   0  0  0  0  0  0  0  0  0  0  0  0
  192.8040  177.3960  139.9830 C   0  0  0  0  0  3  0  0  0  0  0  0
  190.3010  173.7600  136.3640 C   0  0  0  0  0  2  0  0  0  0  0  0
  189.4980  175.9950  135.6710 C   0  0  0  0  0  0  0  0  0  0  0  0
  189.0560  176.9390  134.5950 C   0  0  0  0  0  2  0  0  0  0  0  0
  194.9390  175.1890  135.7180 O   0  0  0  0  0  0  0  0  0  0  0  0
  194.5690  174.2170  136.4310 C   0  0  0  0  0  0  0  0  0  0  0  0
  197.7390  174.5860  138.4720 C   0  0  1  0  0  3  0  0  0  0  0  0
  195.6480  173.2000  138.4570 C   0  0  0  0  0  2  0  0  0  0  0  0
  196.9580  173.6080  134.9530 O   0  0  0  0  0  1  0  0  0  0  0  0
  198.3400  175.7220  139.0120 O   0  0  0  0  0  1  0  0  0  0  0  0
  196.3330  174.4350  139.0430 C   0  0  0  0  0  2  0  0  0  0  0  0
  197.0090  173.4880  136.3430 C   0  0  2  0  0  3  0  0  0  0  0  0
  195.6060  173.2510  136.9270 C   0  0  2  0  0  3  0  0  0  0  0  0
  197.6810  174.7170  136.9530 C   0  0  0  0  0  2  0  0  0  0  0  0
  1  9  1  0  0  0  0
  2  3  1  6  0  0  0
  2  5  1  0  0  0  0
  3  7  2  0  0  0  0
  4 11  1  1  0  0  0
  4  7  1  0  0  0  0
  5 15  1  0  0  0  0
  6  1  1  0  0  0  0
  8 13  1  0  0  0  0
  8 12  1  0  0  0  0
 10 20  2  0  0  0  0
 10 19  1  0  0  0  0
 12 17  1  0  0  0  0
 13 19  1  6  0  0  0
 13  2  1  0  0  0  0
 14  8  2  0  0  0  0
 15  1  2  0  0  0  0
 16  4  1  0  0  0  0
 17  5  2  0  0  0  0
 17 18  1  0  0  0  0
 18  6  2  0  0  0  0
 20  3  1  0  0  0  0
 21 16  1  0  0  0  0
 21 20  1  0  0  0  0
 22 23  2  0  0  0  0
 23 14  1  0  0  0  0
 24 27  1  1  0  0  0
 24 28  1  0  0  0  0
 25 28  1  0  0  0  0
 29 26  1  6  0  0  0
 29 30  1  0  0  0  0
 29 31  1  0  0  0  0
 30 23  1  1  0  0  0
 30 25  1  0  0  0  0
 31 24  1  0  0  0  0
M  END
>  <MODEL>
9

>  <REMARK>
 VINA RESULT:      -6.7      3.132      7.080
  Name = 
  2 active torsions:
  status: ('A' for Active; 'I' for Inactive)
    1  A    between atoms: C_5  and  N_16
    2  A    between atoms: C_5  and  C_30
                            x       y       z     vdW  Elec       q    Type
                         _______ _______ _______ _____ _____    ______ ____

>  <TORSDO>
F 2

$$$$
