=
 OpenBabel11122411303D

 37 44  0  0  1  0  0  0  0  0999 V2000
  183.4020  179.9080  138.3360 O   0  0  0  0  0  0  0  0  0  0  0  0
  188.2960  178.3550  138.6890 C   0  0  1  0  0  0  0  0  0  0  0  0
  184.9290  177.3780  136.3450 C   0  0  1  0  0  3  0  0  0  0  0  0
  182.4590  180.7750  138.9130 C   0  0  2  0  0  3  0  0  0  0  0  0
  182.8700  175.6910  139.2540 C   0  0  0  0  0  2  0  0  0  0  0  0
  187.4630  177.2280  136.6450 C   0  0  1  0  0  3  0  0  0  0  0  0
  184.0090  177.2760  137.5580 C   0  0  1  0  0  3  0  0  0  0  0  0
  180.8690  178.7670  138.6930 C   0  0  0  0  0  0  0  0  0  0  0  0
  186.1900  178.0590  136.8510 C   0  0  2  0  0  3  0  0  0  0  0  0
  183.5190  175.8430  137.8690 C   0  0  2  0  0  3  0  0  0  0  0  0
  187.6410  176.8570  135.1780 C   0  0  0  0  0  2  0  0  0  0  0  0
  181.0380  180.2680  138.6430 C   0  0  0  0  0  2  0  0  0  0  0  0
  186.0310  178.4840  138.2570 N   0  0  2  0  0  0  0  0  0  0  0  0
  188.5400  179.3660  137.5760 C   0  0  0  0  0  2  0  0  0  0  0  0
  184.0040  175.4300  134.9340 C   0  0  0  0  0  2  0  0  0  0  0  0
  186.3680  176.2110  134.5950 C   0  0  0  0  0  2  0  0  0  0  0  0
  186.9880  177.9230  139.0670 O   0  0  0  0  0  0  0  0  0  0  0  0
  181.7570  177.9010  139.4300 N   0  0  0  0  0  0  0  0  0  0  0  0
  181.5490  176.4550  139.4120 C   0  0  0  0  0  2  0  0  0  0  0  0
  185.2300  176.0460  135.6160 C   0  0  1  0  0  3  0  0  0  0  0  0
  184.7530  177.9470  138.7200 C   0  0  1  0  0  3  0  0  0  0  0  0
  188.6970  177.8650  137.2990 C   0  0  1  0  0  3  0  0  0  0  0  0
  182.5800  175.2990  136.7690 C   0  0  1  0  0  3  0  0  0  0  0  0
  189.3980  178.1690  139.7100 C   0  0  0  0  0  1  0  0  0  0  0  0
  182.8330  178.4440  140.2510 C   0  0  0  0  0  2  0  0  0  0  0  0
  179.8940  178.2680  138.0690 O   0  0  0  0  0  0  0  0  0  0  0  0
  183.9180  179.0650  139.3510 C   0  0  2  0  0  3  0  0  0  0  0  0
  182.7800  175.8650  135.4860 O   0  0  0  0  0  0  0  0  0  0  0  0
  183.5510  172.9920  136.8440 C   0  0  0  0  0  3  0  0  0  0  0  0
  182.4160  173.8040  136.7610 C   0  0  0  0  0  0  0  0  0  0  0  0
  181.1440  173.2140  136.7030 C   0  0  0  0  0  3  0  0  0  0  0  0
  179.6660  171.2020  136.6490 C   0  0  0  0  0  1  0  0  0  0  0  0
  182.1540  171.0150  136.7910 C   0  0  0  0  0  3  0  0  0  0  0  0
  181.0140  171.8220  136.7150 C   0  0  0  0  0  0  0  0  0  0  0  0
  183.4220  171.6000  136.8570 C   0  0  0  0  0  3  0  0  0  0  0  0
  181.3160  182.7000  137.9690 N   0  0  0  0  0  1  0  0  0  0  0  0
  182.6160  182.1710  138.3440 C   0  0  0  0  0  2  0  0  0  0  0  0
  1  4  1  0  0  0  0
  1 27  1  0  0  0  0
  2 17  1  0  0  0  0
  2 24  1  1  0  0  0
  3  9  1  0  0  0  0
  3  7  1  0  0  0  0
  5 19  1  0  0  0  0
  6  9  1  0  0  0  0
  6 22  1  0  0  0  0
  7 10  1  0  0  0  0
  7 21  1  0  0  0  0
  8 18  1  0  0  0  0
  9 13  1  0  0  0  0
 10  5  1  0  0  0  0
 11  6  1  0  0  0  0
 12  8  1  0  0  0  0
 12  4  1  0  0  0  0
 13 21  1  0  0  0  0
 13 17  1  0  0  0  0
 14  2  1  0  0  0  0
 15 28  1  0  0  0  0
 15 20  1  0  0  0  0
 16 11  1  0  0  0  0
 16 20  1  0  0  0  0
 18 25  1  0  0  0  0
 19 18  1  0  0  0  0
 20  3  1  0  0  0  0
 21 27  1  0  0  0  0
 22 14  1  0  0  0  0
 22  2  1  0  0  0  0
 23 10  1  0  0  0  0
 26  8  2  0  0  0  0
 27 25  1  0  0  0  0
 28 23  1  0  0  0  0
 29 35  1  0  0  0  0
 30 23  1  0  0  0  0
 30 29  2  0  0  0  0
 31 34  2  0  0  0  0
 31 30  1  0  0  0  0
 32 34  1  0  0  0  0
 33 35  2  0  0  0  0
 34 33  1  0  0  0  0
 36 37  1  0  0  0  0
 37  4  1  0  0  0  0
M  END
>  <MODEL>
1

>  <REMARK>
 VINA RESULT:      -6.0      0.000      0.000
  Name = 
  2 active torsions:
  status: ('A' for Active; 'I' for Inactive)
    1  A    between atoms: C_4  and  C_37
    2  A    between atoms: C_23  and  C_30
                            x       y       z     vdW  Elec       q    Type
                         _______ _______ _______ _____ _____    ______ ____

>  <TORSDO>
F 2

$$$$
=
 OpenBabel11122411303D

 37 44  0  0  1  0  0  0  0  0999 V2000
  182.3950  179.9980  138.6630 O   0  0  0  0  0  0  0  0  0  0  0  0
  185.0050  178.5580  142.8590 C   0  0  1  0  0  0  0  0  0  0  0  0
  185.6010  178.4410  138.6850 C   0  0  1  0  0  3  0  0  0  0  0  0
  181.1800  180.5590  138.2390 C   0  0  2  0  0  3  0  0  0  0  0  0
  182.8350  175.7320  137.9430 C   0  0  0  0  0  2  0  0  0  0  0  0
  186.6350  178.2580  141.0160 C   0  0  1  0  0  3  0  0  0  0  0  0
  184.2130  177.8670  138.4180 C   0  0  1  0  0  3  0  0  0  0  0  0
  181.2720  178.7380  136.4270 C   0  0  0  0  0  0  0  0  0  0  0  0
  185.5710  178.9170  140.1290 C   0  0  2  0  0  3  0  0  0  0  0  0
  184.2130  176.4090  137.9030 C   0  0  2  0  0  3  0  0  0  0  0  0
  188.0300  178.4700  140.4420 C   0  0  0  0  0  2  0  0  0  0  0  0
  180.8830  180.1530  136.7920 C   0  0  0  0  0  2  0  0  0  0  0  0
  184.2150  178.7780  140.7000 N   0  0  2  0  0  0  0  0  0  0  0  0
  185.6760  179.9180  142.7250 C   0  0  0  0  0  2  0  0  0  0  0  0
  186.9550  177.1410  136.9200 C   0  0  0  0  0  2  0  0  0  0  0  0
  188.1060  178.0550  138.9590 C   0  0  0  0  0  2  0  0  0  0  0  0
  184.2150  177.9810  141.8180 O   0  0  0  0  0  0  0  0  0  0  0  0
  181.4020  177.6830  137.4020 N   0  0  0  0  0  0  0  0  0  0  0  0
  181.8090  176.3450  136.9810 C   0  0  0  0  0  2  0  0  0  0  0  0
  186.7880  177.4890  138.4030 C   0  0  1  0  0  3  0  0  0  0  0  0
  183.4070  178.0730  139.7070 C   0  0  1  0  0  3  0  0  0  0  0  0
  186.4860  178.6360  142.4960 C   0  0  1  0  0  3  0  0  0  0  0  0
  184.8320  176.2930  136.4920 C   0  0  1  0  0  3  0  0  0  0  0  0
  184.7770  178.0310  144.2590 C   0  0  0  0  0  1  0  0  0  0  0  0
  181.0750  177.9070  138.8060 C   0  0  0  0  0  2  0  0  0  0  0  0
  181.4740  178.4850  135.2090 O   0  0  0  0  0  0  0  0  0  0  0  0
  182.1130  178.8490  139.4430 C   0  0  2  0  0  3  0  0  0  0  0  0
  185.7710  177.3040  136.1700 O   0  0  0  0  0  0  0  0  0  0  0  0
  184.6970  174.2990  134.9820 C   0  0  0  0  0  3  0  0  0  0  0  0
  185.2680  174.9060  136.1050 C   0  0  0  0  0  0  0  0  0  0  0  0
  186.2570  174.2270  136.8330 C   0  0  0  0  0  3  0  0  0  0  0  0
  187.7030  172.2280  137.2200 C   0  0  0  0  0  1  0  0  0  0  0  0
  186.0790  172.3410  135.3250 C   0  0  0  0  0  3  0  0  0  0  0  0
  186.6590  172.9460  136.4440 C   0  0  0  0  0  0  0  0  0  0  0  0
  185.0990  173.0190  134.5930 C   0  0  0  0  0  3  0  0  0  0  0  0
  180.7740  182.6660  137.0980 N   0  0  0  0  0  1  0  0  0  0  0  0
  181.2390  182.0710  138.3400 C   0  0  0  0  0  2  0  0  0  0  0  0
  1 27  1  0  0  0  0
  2 24  1  1  0  0  0
  3  9  1  0  0  0  0
  4 37  1  0  0  0  0
  4  1  1  0  0  0  0
  6 22  1  0  0  0  0
  7  3  1  0  0  0  0
  7 21  1  0  0  0  0
  8 12  1  0  0  0  0
  8 18  1  0  0  0  0
  9 13  1  0  0  0  0
  9  6  1  0  0  0  0
 10  5  1  0  0  0  0
 10  7  1  0  0  0  0
 11  6  1  0  0  0  0
 12  4  1  0  0  0  0
 13 17  1  0  0  0  0
 14  2  1  0  0  0  0
 15 20  1  0  0  0  0
 16 11  1  0  0  0  0
 17  2  1  0  0  0  0
 18 25  1  0  0  0  0
 19 18  1  0  0  0  0
 19  5  1  0  0  0  0
 20  3  1  0  0  0  0
 20 16  1  0  0  0  0
 21 13  1  0  0  0  0
 22 14  1  0  0  0  0
 22  2  1  0  0  0  0
 23 10  1  0  0  0  0
 25 27  1  0  0  0  0
 26  8  2  0  0  0  0
 27 21  1  0  0  0  0
 28 23  1  0  0  0  0
 28 15  1  0  0  0  0
 29 30  1  0  0  0  0
 30 23  1  0  0  0  0
 30 31  2  0  0  0  0
 33 34  2  0  0  0  0
 34 31  1  0  0  0  0
 34 32  1  0  0  0  0
 35 29  2  0  0  0  0
 35 33  1  0  0  0  0
 36 37  1  0  0  0  0
M  END
>  <MODEL>
2

>  <REMARK>
 VINA RESULT:      -5.9      2.338      3.773
  Name = 
  2 active torsions:
  status: ('A' for Active; 'I' for Inactive)
    1  A    between atoms: C_4  and  C_37
    2  A    between atoms: C_23  and  C_30
                            x       y       z     vdW  Elec       q    Type
                         _______ _______ _______ _____ _____    ______ ____

>  <TORSDO>
F 2

$$$$
=
 OpenBabel11122411303D

 37 44  0  0  1  0  0  0  0  0999 V2000
  182.6760  174.6390  136.7540 O   0  0  0  0  0  0  0  0  0  0  0  0
  187.0660  177.2030  135.9460 C   0  0  1  0  0  0  0  0  0  0  0  0
  183.7780  177.5000  138.5720 C   0  0  1  0  0  3  0  0  0  0  0  0
  181.8990  173.5730  136.2740 C   0  0  2  0  0  3  0  0  0  0  0  0
  181.1610  178.6120  135.8420 C   0  0  0  0  0  2  0  0  0  0  0  0
  186.1840  178.1850  138.0440 C   0  0  1  0  0  3  0  0  0  0  0  0
  182.7580  177.3630  137.4450 C   0  0  1  0  0  3  0  0  0  0  0  0
  179.9340  175.1950  136.6130 C   0  0  0  0  0  0  0  0  0  0  0  0
  185.1100  177.0920  137.9620 C   0  0  2  0  0  3  0  0  0  0  0  0
  181.9430  178.6460  137.1630 C   0  0  2  0  0  3  0  0  0  0  0  0
  186.4010  178.6290  139.4850 C   0  0  0  0  0  2  0  0  0  0  0  0
  180.4310  173.7680  136.6640 C   0  0  0  0  0  2  0  0  0  0  0  0
  184.9280  176.6010  136.5810 N   0  0  2  0  0  0  0  0  0  0  0  0
  187.6180  176.3030  137.0440 C   0  0  0  0  0  2  0  0  0  0  0  0
  182.5740  179.2430  140.0380 C   0  0  0  0  0  2  0  0  0  0  0  0
  185.0720  179.0020  140.1730 C   0  0  0  0  0  2  0  0  0  0  0  0
  185.6670  177.3300  135.6830 O   0  0  0  0  0  0  0  0  0  0  0  0
  180.5450  176.2100  135.7900 N   0  0  0  0  0  0  0  0  0  0  0  0
  180.0300  177.5760  135.8100 C   0  0  0  0  0  2  0  0  0  0  0  0
  183.8420  178.8860  139.2560 C   0  0  1  0  0  3  0  0  0  0  0  0
  183.5290  176.8340  136.2290 C   0  0  1  0  0  3  0  0  0  0  0  0
  187.4660  177.8100  137.2890 C   0  0  1  0  0  3  0  0  0  0  0  0
  181.0050  179.0070  138.3380 C   0  0  1  0  0  3  0  0  0  0  0  0
  188.0090  177.5930  134.8280 C   0  0  0  0  0  1  0  0  0  0  0  0
  181.6400  175.8870  134.8820 C   0  0  0  0  0  2  0  0  0  0  0  0
  178.9310  175.4890  137.3170 O   0  0  0  0  0  0  0  0  0  0  0  0
  182.9070  175.5440  135.6870 C   0  0  2  0  0  3  0  0  0  0  0  0
  181.4320  178.5370  139.6040 O   0  0  0  0  0  0  0  0  0  0  0  0
  179.3990  180.7660  139.1100 C   0  0  0  0  0  3  0  0  0  0  0  0
  180.5200  180.4310  138.3440 C   0  0  0  0  0  0  0  0  0  0  0  0
  181.1890  181.4290  137.6190 C   0  0  0  0  0  3  0  0  0  0  0  0
  181.4380  183.8020  136.8830 C   0  0  0  0  0  1  0  0  0  0  0  0
  179.6040  183.0770  138.4170 C   0  0  0  0  0  3  0  0  0  0  0  0
  180.7300  182.7490  137.6550 C   0  0  0  0  0  0  0  0  0  0  0  0
  178.9400  182.0860  139.1450 C   0  0  0  0  0  3  0  0  0  0  0  0
  183.8060  172.3870  137.2040 N   0  0  0  0  0  1  0  0  0  0  0  0
  182.4050  172.2610  136.8420 C   0  0  0  0  0  2  0  0  0  0  0  0
  2 24  1  6  0  0  0
  2 14  1  0  0  0  0
  2 22  1  0  0  0  0
  3 20  1  0  0  0  0
  4 12  1  0  0  0  0
  4  1  1  0  0  0  0
  4 37  1  0  0  0  0
  5 10  1  0  0  0  0
  6 11  1  0  0  0  0
  7  3  1  0  0  0  0
  8 12  1  0  0  0  0
  8 26  2  0  0  0  0
  9  6  1  0  0  0  0
  9  3  1  0  0  0  0
 10  7  1  0  0  0  0
 10 23  1  0  0  0  0
 11 16  1  0  0  0  0
 13  9  1  0  0  0  0
 14 22  1  0  0  0  0
 17  2  1  0  0  0  0
 17 13  1  0  0  0  0
 18 19  1  0  0  0  0
 18  8  1  0  0  0  0
 19  5  1  0  0  0  0
 20 15  1  0  0  0  0
 20 16  1  0  0  0  0
 21 13  1  0  0  0  0
 21  7  1  0  0  0  0
 22  6  1  0  0  0  0
 23 30  1  0  0  0  0
 23 28  1  0  0  0  0
 25 27  1  0  0  0  0
 25 18  1  0  0  0  0
 27 21  1  0  0  0  0
 27  1  1  0  0  0  0
 28 15  1  0  0  0  0
 29 35  1  0  0  0  0
 30 29  2  0  0  0  0
 31 34  2  0  0  0  0
 31 30  1  0  0  0  0
 32 34  1  0  0  0  0
 33 35  2  0  0  0  0
 34 33  1  0  0  0  0
 37 36  1  0  0  0  0
M  END
>  <MODEL>
3

>  <REMARK>
 VINA RESULT:      -5.9      2.212      6.474
  Name = 
  2 active torsions:
  status: ('A' for Active; 'I' for Inactive)
    1  A    between atoms: C_4  and  C_37
    2  A    between atoms: C_23  and  C_30
                            x       y       z     vdW  Elec       q    Type
                         _______ _______ _______ _____ _____    ______ ____

>  <TORSDO>
F 2

$$$$
=
 OpenBabel11122411303D

 37 44  0  0  1  0  0  0  0  0999 V2000
  181.0830  179.4930  139.9970 O   0  0  0  0  0  0  0  0  0  0  0  0
  185.3170  178.3970  142.7110 C   0  0  1  0  0  0  0  0  0  0  0  0
  184.1600  178.2940  138.6550 C   0  0  1  0  0  3  0  0  0  0  0  0
  179.7490  179.9140  140.1250 C   0  0  2  0  0  3  0  0  0  0  0  0
  181.6310  175.2910  139.0190 C   0  0  0  0  0  2  0  0  0  0  0  0
  186.0700  178.2530  140.3540 C   0  0  1  0  0  3  0  0  0  0  0  0
  182.8520  177.5690  138.9600 C   0  0  1  0  0  3  0  0  0  0  0  0
  179.2800  178.0910  138.3740 C   0  0  0  0  0  0  0  0  0  0  0  0
  184.6740  178.7820  140.0010 C   0  0  2  0  0  3  0  0  0  0  0  0
  182.7930  176.1140  138.4420 C   0  0  2  0  0  3  0  0  0  0  0  0
  187.0780  178.6080  139.2670 C   0  0  0  0  0  2  0  0  0  0  0  0
  178.9310  179.4600  138.9120 C   0  0  0  0  0  2  0  0  0  0  0  0
  183.6940  178.5040  141.0710 N   0  0  2  0  0  0  0  0  0  0  0  0
  185.7290  179.8210  142.3600 C   0  0  0  0  0  2  0  0  0  0  0  0
  184.8000  177.1260  136.4500 C   0  0  0  0  0  2  0  0  0  0  0  0
  186.5820  178.1860  137.8700 C   0  0  0  0  0  2  0  0  0  0  0  0
  184.2350  177.7250  142.0640 O   0  0  0  0  0  0  0  0  0  0  0  0
  179.9070  177.0690  139.1750 N   0  0  0  0  0  0  0  0  0  0  0  0
  180.2430  175.7770  138.5810 C   0  0  0  0  0  2  0  0  0  0  0  0
  185.2190  177.4730  137.8820 C   0  0  1  0  0  3  0  0  0  0  0  0
  182.6280  177.7030  140.4720 C   0  0  1  0  0  3  0  0  0  0  0  0
  186.5020  178.6310  141.7780 C   0  0  1  0  0  3  0  0  0  0  0  0
  182.7880  176.0480  136.8980 C   0  0  1  0  0  3  0  0  0  0  0  0
  185.7390  177.8670  144.0640 C   0  0  0  0  0  1  0  0  0  0  0  0
  180.1620  177.2740  140.5970 C   0  0  0  0  0  2  0  0  0  0  0  0
  178.9910  177.8460  137.1720 O   0  0  0  0  0  0  0  0  0  0  0  0
  181.2670  178.3300  140.7850 C   0  0  2  0  0  3  0  0  0  0  0  0
  183.4020  177.1510  136.2550 O   0  0  0  0  0  0  0  0  0  0  0  0
  182.3110  174.0930  135.4070 C   0  0  0  0  0  3  0  0  0  0  0  0
  183.1690  174.7120  136.3210 C   0  0  0  0  0  0  0  0  0  0  0  0
  184.3820  174.0930  136.6620 C   0  0  0  0  0  3  0  0  0  0  0  0
  186.0050  172.2060  136.4670 C   0  0  0  0  0  1  0  0  0  0  0  0
  183.8570  172.2430  135.1920 C   0  0  0  0  0  3  0  0  0  0  0  0
  184.7230  172.8600  136.1000 C   0  0  0  0  0  0  0  0  0  0  0  0
  182.6520  172.8600  134.8450 C   0  0  0  0  0  3  0  0  0  0  0  0
  179.6750  182.0220  138.9180 N   0  0  0  0  0  1  0  0  0  0  0  0
  179.6870  181.4240  140.2420 C   0  0  0  0  0  2  0  0  0  0  0  0
  1  4  1  0  0  0  0
  1 27  1  0  0  0  0
  2 24  1  1  0  0  0
  3  7  1  0  0  0  0
  3  9  1  0  0  0  0
  4 37  1  0  0  0  0
  6 22  1  0  0  0  0
  7 21  1  0  0  0  0
  8 12  1  0  0  0  0
  8 18  1  0  0  0  0
  9  6  1  0  0  0  0
  9 13  1  0  0  0  0
 10  7  1  0  0  0  0
 10  5  1  0  0  0  0
 11  6  1  0  0  0  0
 12  4  1  0  0  0  0
 13 17  1  0  0  0  0
 14  2  1  0  0  0  0
 15 20  1  0  0  0  0
 16 20  1  0  0  0  0
 16 11  1  0  0  0  0
 17  2  1  0  0  0  0
 18 25  1  0  0  0  0
 19  5  1  0  0  0  0
 19 18  1  0  0  0  0
 20  3  1  0  0  0  0
 21 27  1  0  0  0  0
 21 13  1  0  0  0  0
 22 14  1  0  0  0  0
 22  2  1  0  0  0  0
 23 10  1  0  0  0  0
 25 27  1  0  0  0  0
 26  8  2  0  0  0  0
 28 15  1  0  0  0  0
 28 23  1  0  0  0  0
 29 30  1  0  0  0  0
 30 31  2  0  0  0  0
 30 23  1  0  0  0  0
 33 34  2  0  0  0  0
 34 32  1  0  0  0  0
 34 31  1  0  0  0  0
 35 33  1  0  0  0  0
 35 29  2  0  0  0  0
 36 37  1  0  0  0  0
M  END
>  <MODEL>
4

>  <REMARK>
 VINA RESULT:      -5.9      2.153      3.297
  Name = 
  2 active torsions:
  status: ('A' for Active; 'I' for Inactive)
    1  A    between atoms: C_4  and  C_37
    2  A    between atoms: C_23  and  C_30
                            x       y       z     vdW  Elec       q    Type
                         _______ _______ _______ _____ _____    ______ ____

>  <TORSDO>
F 2

$$$$
=
 OpenBabel11122411303D

 37 44  0  0  1  0  0  0  0  0999 V2000
  180.3240  178.6080  136.9240 O   0  0  0  0  0  0  0  0  0  0  0  0
  180.6950  173.5160  137.5670 C   0  0  1  0  0  0  0  0  0  0  0  0
  180.0060  176.8760  140.0220 C   0  0  1  0  0  3  0  0  0  0  0  0
  180.4210  179.6250  135.9590 C   0  0  2  0  0  3  0  0  0  0  0  0
  183.6440  178.3660  139.7220 C   0  0  0  0  0  2  0  0  0  0  0  0
  179.9010  174.3340  139.7670 C   0  0  1  0  0  3  0  0  0  0  0  0
  181.1750  177.6540  139.4280 C   0  0  1  0  0  3  0  0  0  0  0  0
  181.7130  180.8810  137.7930 C   0  0  0  0  0  0  0  0  0  0  0  0
  179.7840  175.7010  139.0810 C   0  0  2  0  0  3  0  0  0  0  0  0
  182.3560  177.8760  140.4020 C   0  0  2  0  0  3  0  0  0  0  0  0
  178.9380  174.2300  140.9440 C   0  0  0  0  0  2  0  0  0  0  0  0
  180.7510  180.9620  136.6290 C   0  0  0  0  0  2  0  0  0  0  0  0
  180.6630  175.8010  137.8980 N   0  0  2  0  0  0  0  0  0  0  0  0
  179.1780  173.5390  137.4340 C   0  0  0  0  0  2  0  0  0  0  0  0
  180.2130  177.5940  142.4870 C   0  0  0  0  0  2  0  0  0  0  0  0
  179.0810  175.4280  141.9050 C   0  0  0  0  0  2  0  0  0  0  0  0
  181.4700  174.6970  137.7730 O   0  0  0  0  0  0  0  0  0  0  0  0
  182.6570  179.8020  137.9570 N   0  0  0  0  0  0  0  0  0  0  0  0
  183.5380  179.7730  139.1220 C   0  0  0  0  0  2  0  0  0  0  0  0
  180.1740  176.4290  141.4940 C   0  0  1  0  0  3  0  0  0  0  0  0
  181.5630  176.9290  138.1320 C   0  0  1  0  0  3  0  0  0  0  0  0
  179.8270  173.1670  138.7730 C   0  0  1  0  0  3  0  0  0  0  0  0
  181.9740  178.8080  141.5730 C   0  0  1  0  0  3  0  0  0  0  0  0
  181.4210  172.3120  137.0070 C   0  0  0  0  0  1  0  0  0  0  0  0
  182.7960  178.7600  136.9470 C   0  0  0  0  0  2  0  0  0  0  0  0
  181.6840  181.8140  138.6390 O   0  0  0  0  0  0  0  0  0  0  0  0
  181.5360  177.8740  136.9280 C   0  0  2  0  0  3  0  0  0  0  0  0
  180.5950  178.8190  141.8990 O   0  0  0  0  0  0  0  0  0  0  0  0
  182.3810  179.0440  144.0330 C   0  0  0  0  0  3  0  0  0  0  0  0
  182.8850  178.7280  142.7670 C   0  0  0  0  0  0  0  0  0  0  0  0
  184.2200  178.3150  142.6360 C   0  0  0  0  0  3  0  0  0  0  0  0
  186.4560  177.7970  143.6180 C   0  0  0  0  0  1  0  0  0  0  0  0
  184.5350  178.5540  145.0240 C   0  0  0  0  0  3  0  0  0  0  0  0
  185.0430  178.2310  143.7620 C   0  0  0  0  0  0  0  0  0  0  0  0
  183.2040  178.9590  145.1590 C   0  0  0  0  0  3  0  0  0  0  0  0
  178.9310  181.1200  134.7550 N   0  0  0  0  0  1  0  0  0  0  0  0
  179.1170  179.7480  135.1960 C   0  0  0  0  0  2  0  0  0  0  0  0
  1 27  1  0  0  0  0
  2 24  1  6  0  0  0
  2 17  1  0  0  0  0
  2 22  1  0  0  0  0
  3 20  1  0  0  0  0
  4 12  1  0  0  0  0
  4  1  1  0  0  0  0
  5 10  1  0  0  0  0
  6 11  1  0  0  0  0
  7  3  1  0  0  0  0
  7 10  1  0  0  0  0
  8 18  1  0  0  0  0
  8 26  2  0  0  0  0
  9  6  1  0  0  0  0
  9  3  1  0  0  0  0
 10 23  1  0  0  0  0
 11 16  1  0  0  0  0
 12  8  1  0  0  0  0
 13 21  1  0  0  0  0
 13  9  1  0  0  0  0
 14  2  1  0  0  0  0
 14 22  1  0  0  0  0
 17 13  1  0  0  0  0
 18 19  1  0  0  0  0
 19  5  1  0  0  0  0
 20 16  1  0  0  0  0
 20 15  1  0  0  0  0
 21  7  1  0  0  0  0
 22  6  1  0  0  0  0
 23 28  1  0  0  0  0
 23 30  1  0  0  0  0
 25 18  1  0  0  0  0
 27 25  1  0  0  0  0
 27 21  1  0  0  0  0
 28 15  1  0  0  0  0
 29 35  1  0  0  0  0
 30 29  2  0  0  0  0
 31 30  1  0  0  0  0
 31 34  2  0  0  0  0
 32 34  1  0  0  0  0
 33 35  2  0  0  0  0
 34 33  1  0  0  0  0
 36 37  1  0  0  0  0
 37  4  1  0  0  0  0
M  END
>  <MODEL>
5

>  <REMARK>
 VINA RESULT:      -5.4      3.195      7.379
  Name = 
  2 active torsions:
  status: ('A' for Active; 'I' for Inactive)
    1  A    between atoms: C_4  and  C_37
    2  A    between atoms: C_23  and  C_30
                            x       y       z     vdW  Elec       q    Type
                         _______ _______ _______ _____ _____    ______ ____

>  <TORSDO>
F 2

$$$$
=
 OpenBabel11122411303D

 37 44  0  0  1  0  0  0  0  0999 V2000
  185.5980  178.0240  142.0940 O   0  0  0  0  0  0  0  0  0  0  0  0
  182.6710  180.5770  138.7160 C   0  0  1  0  0  0  0  0  0  0  0  0
  184.9860  177.0500  138.7200 C   0  0  1  0  0  3  0  0  0  0  0  0
  186.1000  178.0780  143.4040 C   0  0  2  0  0  3  0  0  0  0  0  0
  188.4870  178.8480  138.9500 C   0  0  0  0  0  2  0  0  0  0  0  0
  183.1780  178.4420  137.5650 C   0  0  1  0  0  3  0  0  0  0  0  0
  186.1870  177.7400  139.3590 C   0  0  1  0  0  3  0  0  0  0  0  0
  188.2940  177.2950  142.3160 C   0  0  0  0  0  0  0  0  0  0  0  0
  183.8270  178.0210  138.8900 C   0  0  2  0  0  3  0  0  0  0  0  0
  187.4120  177.8840  138.4260 C   0  0  2  0  0  3  0  0  0  0  0  0
  182.7100  177.2250  136.7760 C   0  0  0  0  0  2  0  0  0  0  0  0
  187.3780  177.2400  143.5180 C   0  0  0  0  0  2  0  0  0  0  0  0
  184.2320  179.1880  139.7010 N   0  0  2  0  0  0  0  0  0  0  0  0
  181.5730  179.6300  139.1800 C   0  0  0  0  0  2  0  0  0  0  0  0
  186.2060  175.4890  137.0740 C   0  0  0  0  0  2  0  0  0  0  0  0
  183.8330  176.1790  136.6210 C   0  0  0  0  0  2  0  0  0  0  0  0
  184.0520  180.3650  139.0180 O   0  0  0  0  0  0  0  0  0  0  0  0
  188.2980  178.3940  141.3810 N   0  0  0  0  0  0  0  0  0  0  0  0
  189.1910  178.3680  140.2260 C   0  0  0  0  0  2  0  0  0  0  0  0
  185.1700  176.6040  137.2500 C   0  0  1  0  0  3  0  0  0  0  0  0
  185.6720  179.0710  139.9220 C   0  0  1  0  0  3  0  0  0  0  0  0
  182.1160  179.5350  137.7490 C   0  0  1  0  0  3  0  0  0  0  0  0
  188.0370  176.5160  138.0750 C   0  0  1  0  0  3  0  0  0  0  0  0
  182.2620  181.9870  138.3480 C   0  0  0  0  0  1  0  0  0  0  0  0
  187.4660  179.5720  141.5980 C   0  0  0  0  0  2  0  0  0  0  0  0
  189.0920  176.3350  142.1470 O   0  0  0  0  0  0  0  0  0  0  0  0
  185.9810  179.2080  141.4160 C   0  0  2  0  0  3  0  0  0  0  0  0
  187.1400  175.4210  138.1300 O   0  0  0  0  0  0  0  0  0  0  0  0
  188.5560  177.2810  135.7480 C   0  0  0  0  0  3  0  0  0  0  0  0
  188.9250  176.5200  136.8610 C   0  0  0  0  0  0  0  0  0  0  0  0
  190.1290  175.7990  136.8390 C   0  0  0  0  0  3  0  0  0  0  0  0
  192.2190  175.0650  135.6860 C   0  0  0  0  0  1  0  0  0  0  0  0
  190.5690  176.5900  134.5940 C   0  0  0  0  0  3  0  0  0  0  0  0
  190.9470  175.8330  135.7060 C   0  0  0  0  0  0  0  0  0  0  0  0
  189.3740  177.3150  134.6150 C   0  0  0  0  0  3  0  0  0  0  0  0
  184.3420  178.6710  144.9730 N   0  0  0  0  0  1  0  0  0  0  0  0
  185.0650  177.5580  144.3830 C   0  0  0  0  0  2  0  0  0  0  0  0
  1  4  1  0  0  0  0
  2 24  1  6  0  0  0
  2 17  1  0  0  0  0
  2 14  1  0  0  0  0
  3  9  1  0  0  0  0
  3  7  1  0  0  0  0
  4 12  1  0  0  0  0
  4 37  1  0  0  0  0
  5 19  1  0  0  0  0
  6 22  1  0  0  0  0
  6  9  1  0  0  0  0
  7 21  1  0  0  0  0
  8 12  1  0  0  0  0
  9 13  1  0  0  0  0
 10  5  1  0  0  0  0
 10  7  1  0  0  0  0
 11  6  1  0  0  0  0
 13 21  1  0  0  0  0
 15 20  1  0  0  0  0
 15 28  1  0  0  0  0
 16 11  1  0  0  0  0
 16 20  1  0  0  0  0
 17 13  1  0  0  0  0
 18 25  1  0  0  0  0
 18  8  1  0  0  0  0
 19 18  1  0  0  0  0
 20  3  1  0  0  0  0
 21 27  1  0  0  0  0
 22  2  1  0  0  0  0
 22 14  1  0  0  0  0
 23 28  1  0  0  0  0
 23 10  1  0  0  0  0
 26  8  2  0  0  0  0
 27 25  1  0  0  0  0
 27  1  1  0  0  0  0
 29 30  1  0  0  0  0
 30 23  1  0  0  0  0
 31 30  2  0  0  0  0
 32 34  1  0  0  0  0
 33 35  1  0  0  0  0
 33 34  2  0  0  0  0
 34 31  1  0  0  0  0
 35 29  2  0  0  0  0
 37 36  1  0  0  0  0
M  END
>  <MODEL>
6

>  <REMARK>
 VINA RESULT:      -3.9      2.861      6.746
  Name = 
  2 active torsions:
  status: ('A' for Active; 'I' for Inactive)
    1  A    between atoms: C_4  and  C_37
    2  A    between atoms: C_23  and  C_30
                            x       y       z     vdW  Elec       q    Type
                         _______ _______ _______ _____ _____    ______ ____

>  <TORSDO>
F 2

$$$$
=
 OpenBabel11122411303D

 37 44  0  0  1  0  0  0  0  0999 V2000
  184.6090  174.7230  136.6880 O   0  0  0  0  0  0  0  0  0  0  0  0
  188.4400  177.9840  137.7730 C   0  0  1  0  0  0  0  0  0  0  0  0
  184.4140  177.4850  138.9320 C   0  0  1  0  0  3  0  0  0  0  0  0
  184.2740  173.6150  135.8920 C   0  0  2  0  0  3  0  0  0  0  0  0
  182.8510  178.5060  135.4590 C   0  0  0  0  0  2  0  0  0  0  0  0
  186.6770  178.5750  139.4110 C   0  0  1  0  0  3  0  0  0  0  0  0
  183.9320  177.3310  137.4920 C   0  0  1  0  0  3  0  0  0  0  0  0
  182.0650  174.8780  135.5240 C   0  0  0  0  0  0  0  0  0  0  0  0
  185.9280  177.3520  138.8660 C   0  0  2  0  0  3  0  0  0  0  0  0
  183.0630  178.5020  136.9810 C   0  0  2  0  0  3  0  0  0  0  0  0
  186.2560  178.8780  140.8440 C   0  0  0  0  0  2  0  0  0  0  0  0
  182.7560  173.5440  135.6920 C   0  0  0  0  0  2  0  0  0  0  0  0
  186.3670  177.0030  137.4990 N   0  0  2  0  0  0  0  0  0  0  0  0
  188.6960  177.0550  138.9520 C   0  0  0  0  0  2  0  0  0  0  0  0
  182.4570  178.8500  139.9020 C   0  0  0  0  0  2  0  0  0  0  0  0
  184.7230  178.9680  140.9810 C   0  0  0  0  0  2  0  0  0  0  0  0
  187.2430  177.9320  136.9950 O   0  0  0  0  0  0  0  0  0  0  0  0
  182.7450  176.0610  135.0540 N   0  0  0  0  0  0  0  0  0  0  0  0
  182.0210  177.3240  134.9410 C   0  0  0  0  0  2  0  0  0  0  0  0
  183.9670  178.7780  139.6550 C   0  0  1  0  0  3  0  0  0  0  0  0
  185.1830  177.0650  136.6440 C   0  0  1  0  0  3  0  0  0  0  0  0
  188.1940  178.4840  139.1940 C   0  0  1  0  0  3  0  0  0  0  0  0
  181.7060  178.5820  137.7160 C   0  0  1  0  0  3  0  0  0  0  0  0
  189.6440  178.6350  137.1280 C   0  0  0  0  0  1  0  0  0  0  0  0
  184.1380  176.0110  134.6250 C   0  0  0  0  0  2  0  0  0  0  0  0
  180.8360  174.9380  135.7970 O   0  0  0  0  0  0  0  0  0  0  0  0
  185.0530  175.7680  135.8400 C   0  0  2  0  0  3  0  0  0  0  0  0
  181.7070  178.0380  139.0240 O   0  0  0  0  0  0  0  0  0  0  0  0
  179.6340  179.9340  137.3260 C   0  0  0  0  0  3  0  0  0  0  0  0
  181.0040  179.9080  137.6050 C   0  0  0  0  0  0  0  0  0  0  0  0
  181.6940  181.1140  137.8050 C   0  0  0  0  0  3  0  0  0  0  0  0
  181.7510  183.6070  137.9230 C   0  0  0  0  0  1  0  0  0  0  0  0
  179.6480  182.3530  137.4280 C   0  0  0  0  0  3  0  0  0  0  0  0
  181.0160  182.3330  137.7140 C   0  0  0  0  0  0  0  0  0  0  0  0
  178.9570  181.1530  137.2350 C   0  0  0  0  0  3  0  0  0  0  0  0
  183.7220  171.7980  137.4080 N   0  0  0  0  0  1  0  0  0  0  0  0
  184.7590  172.3360  136.5450 C   0  0  0  0  0  2  0  0  0  0  0  0
  2 24  1  6  0  0  0
  2 14  1  0  0  0  0
  2 22  1  0  0  0  0
  3 20  1  0  0  0  0
  4 37  1  0  0  0  0
  4  1  1  0  0  0  0
  5 10  1  0  0  0  0
  6 11  1  0  0  0  0
  7  3  1  0  0  0  0
  8 12  1  0  0  0  0
  8 26  2  0  0  0  0
  9  3  1  0  0  0  0
  9  6  1  0  0  0  0
 10  7  1  0  0  0  0
 10 23  1  0  0  0  0
 11 16  1  0  0  0  0
 12  4  1  0  0  0  0
 13  9  1  0  0  0  0
 14 22  1  0  0  0  0
 17 13  1  0  0  0  0
 17  2  1  0  0  0  0
 18  8  1  0  0  0  0
 19 18  1  0  0  0  0
 19  5  1  0  0  0  0
 20 15  1  0  0  0  0
 20 16  1  0  0  0  0
 21  7  1  0  0  0  0
 21 13  1  0  0  0  0
 22  6  1  0  0  0  0
 23 28  1  0  0  0  0
 25 18  1  0  0  0  0
 25 27  1  0  0  0  0
 27 21  1  0  0  0  0
 27  1  1  0  0  0  0
 28 15  1  0  0  0  0
 29 30  1  0  0  0  0
 30 23  1  0  0  0  0
 30 31  2  0  0  0  0
 33 34  2  0  0  0  0
 34 31  1  0  0  0  0
 34 32  1  0  0  0  0
 35 29  2  0  0  0  0
 35 33  1  0  0  0  0
 37 36  1  0  0  0  0
M  END
>  <MODEL>
7

>  <REMARK>
 VINA RESULT:      -3.5      2.256      6.339
  Name = 
  2 active torsions:
  status: ('A' for Active; 'I' for Inactive)
    1  A    between atoms: C_4  and  C_37
    2  A    between atoms: C_23  and  C_30
                            x       y       z     vdW  Elec       q    Type
                         _______ _______ _______ _____ _____    ______ ____

>  <TORSDO>
F 2

$$$$
=
 OpenBabel11122411303D

 37 44  0  0  1  0  0  0  0  0999 V2000
  187.4040  177.3080  140.0150 O   0  0  0  0  0  0  0  0  0  0  0  0
  184.7030  177.2660  135.6350 C   0  0  1  0  0  0  0  0  0  0  0  0
  187.5160  174.7580  137.5280 C   0  0  1  0  0  3  0  0  0  0  0  0
  187.6700  178.0790  141.1590 C   0  0  2  0  0  3  0  0  0  0  0  0
  190.6010  177.1710  137.0710 C   0  0  0  0  0  2  0  0  0  0  0  0
  185.7250  175.0100  135.7210 C   0  0  1  0  0  3  0  0  0  0  0  0
  188.4720  175.9110  137.8220 C   0  0  1  0  0  3  0  0  0  0  0  0
  190.1080  177.3790  140.7440 C   0  0  0  0  0  0  0  0  0  0  0  0
  186.2060  175.4140  137.1210 C   0  0  2  0  0  3  0  0  0  0  0  0
  189.7940  175.8650  137.0220 C   0  0  2  0  0  3  0  0  0  0  0  0
  185.5920  173.4970  135.6060 C   0  0  0  0  0  2  0  0  0  0  0  0
  189.0280  177.6950  141.7540 C   0  0  0  0  0  2  0  0  0  0  0  0
  186.2810  176.8810  137.2760 N   0  0  2  0  0  0  0  0  0  0  0  0
  183.7080  176.4330  136.4320 C   0  0  0  0  0  2  0  0  0  0  0  0
  189.2230  172.9170  136.9500 C   0  0  0  0  0  2  0  0  0  0  0  0
  186.8770  172.7750  136.0600 C   0  0  0  0  0  2  0  0  0  0  0  0
  186.0310  177.5290  136.0920 O   0  0  0  0  0  0  0  0  0  0  0  0
  190.0900  177.8810  139.3920 N   0  0  0  0  0  0  0  0  0  0  0  0
  191.1530  177.5120  138.4610 C   0  0  0  0  0  2  0  0  0  0  0  0
  188.0080  173.7270  136.4850 C   0  0  1  0  0  3  0  0  0  0  0  0
  187.6650  177.2010  137.6200 C   0  0  1  0  0  3  0  0  0  0  0  0
  184.4870  175.7990  135.2720 C   0  0  1  0  0  3  0  0  0  0  0  0
  190.6780  174.6660  137.4320 C   0  0  1  0  0  3  0  0  0  0  0  0
  184.1400  178.2100  134.5940 C   0  0  0  0  0  1  0  0  0  0  0  0
  189.0570  178.8090  138.9450 C   0  0  0  0  0  2  0  0  0  0  0  0
  191.0660  176.6530  141.1230 O   0  0  0  0  0  0  0  0  0  0  0  0
  187.6990  178.0860  138.8690 C   0  0  2  0  0  3  0  0  0  0  0  0
  189.9700  173.5590  137.9610 O   0  0  0  0  0  0  0  0  0  0  0  0
  192.3190  175.2960  135.6480 C   0  0  0  0  0  3  0  0  0  0  0  0
  191.7410  174.2940  136.4350 C   0  0  0  0  0  0  0  0  0  0  0  0
  192.1830  172.9680  136.3040 C   0  0  0  0  0  3  0  0  0  0  0  0
  193.6460  171.2450  135.2440 C   0  0  0  0  0  1  0  0  0  0  0  0
  193.7530  173.6540  134.5940 C   0  0  0  0  0  3  0  0  0  0  0  0
  193.1850  172.6500  135.3830 C   0  0  0  0  0  0  0  0  0  0  0  0
  193.3210  174.9770  134.7270 C   0  0  0  0  0  3  0  0  0  0  0  0
  185.7300  179.0410  142.2640 N   0  0  0  0  0  1  0  0  0  0  0  0
  186.5840  177.8670  142.1960 C   0  0  0  0  0  2  0  0  0  0  0  0
  1  4  1  0  0  0  0
  2 24  1  6  0  0  0
  2 17  1  0  0  0  0
  2 14  1  0  0  0  0
  3  7  1  0  0  0  0
  4 12  1  0  0  0  0
  4 37  1  0  0  0  0
  5 19  1  0  0  0  0
  6  9  1  0  0  0  0
  8 26  2  0  0  0  0
  8 12  1  0  0  0  0
  9 13  1  0  0  0  0
  9  3  1  0  0  0  0
 10  5  1  0  0  0  0
 10 23  1  0  0  0  0
 10  7  1  0  0  0  0
 11  6  1  0  0  0  0
 11 16  1  0  0  0  0
 13 21  1  0  0  0  0
 15 28  1  0  0  0  0
 16 20  1  0  0  0  0
 17 13  1  0  0  0  0
 18  8  1  0  0  0  0
 19 18  1  0  0  0  0
 20 15  1  0  0  0  0
 20  3  1  0  0  0  0
 21  7  1  0  0  0  0
 21 27  1  0  0  0  0
 22  2  1  0  0  0  0
 22  6  1  0  0  0  0
 22 14  1  0  0  0  0
 23 28  1  0  0  0  0
 25 18  1  0  0  0  0
 27 25  1  0  0  0  0
 27  1  1  0  0  0  0
 29 30  1  0  0  0  0
 30 23  1  0  0  0  0
 31 30  2  0  0  0  0
 32 34  1  0  0  0  0
 33 35  1  0  0  0  0
 33 34  2  0  0  0  0
 34 31  1  0  0  0  0
 35 29  2  0  0  0  0
 37 36  1  0  0  0  0
M  END
>  <MODEL>
8

>  <REMARK>
 VINA RESULT:      -3.3      3.729      7.580
  Name = 
  2 active torsions:
  status: ('A' for Active; 'I' for Inactive)
    1  A    between atoms: C_4  and  C_37
    2  A    between atoms: C_23  and  C_30
                            x       y       z     vdW  Elec       q    Type
                         _______ _______ _______ _____ _____    ______ ____

>  <TORSDO>
F 2

$$$$
