=
 OpenBabel11122410213D

 30 35  0  0  1  0  0  0  0  0999 V2000
  187.0020  178.0950  143.1210 C   0  0  0  0  0  0  0  0  0  0  0  0
  184.5990  178.5480  142.5430 C   0  0  0  0  0  0  0  0  0  0  0  0
  186.1910  178.3080  147.1630 N   0  0  0  0  0  2  0  0  0  0  0  0
  187.9760  177.8430  144.1260 C   0  0  0  0  0  0  0  0  0  0  0  0
  187.4650  178.2790  141.6990 C   0  0  0  0  0  2  0  0  0  0  0  0
  190.7910  176.8080  142.0130 O   0  0  0  0  0  0  0  0  0  0  0  0
  190.7830  178.2000  145.8490 C   0  0  1  0  0  3  0  0  0  0  0  0
  189.6770  177.2880  142.3560 C   0  0  0  0  0  0  0  0  0  0  0  0
  189.7540  177.4920  146.7470 C   0  0  2  0  0  3  0  0  0  0  0  0
  187.4620  178.0850  147.5780 C   0  0  0  0  0  0  0  0  0  0  0  0
  188.6440  177.4810  141.3840 N   0  0  0  0  0  0  0  0  0  0  0  0
  189.4160  177.5730  143.8070 C   0  0  1  0  0  3  0  0  0  0  0  0
  183.2950  178.8120  142.9710 C   0  0  0  0  0  3  0  0  0  0  0  0
  189.9590  176.0090  146.5500 C   0  0  0  0  0  2  0  0  0  0  0  0
  191.9190  177.1910  145.7000 C   0  0  0  0  0  2  0  0  0  0  0  0
  184.8270  178.4790  141.1740 O   0  0  0  0  0  1  0  0  0  0  0  0
  186.3000  178.2190  145.8230 C   0  0  0  0  0  0  0  0  0  0  0  0
  182.9870  178.8780  144.3280 C   0  0  0  0  0  3  0  0  0  0  0  0
  185.6380  178.3450  143.4920 C   0  0  0  0  0  0  0  0  0  0  0  0
  187.5840  177.9410  145.4620 C   0  0  0  0  0  0  0  0  0  0  0  0
  187.7840  178.0650  148.7950 O   0  0  0  0  0  0  0  0  0  0  0  0
  188.3460  177.8780  146.5740 N   0  0  0  0  0  0  0  0  0  0  0  0
  191.4400  175.8620  146.2700 C   0  0  0  0  0  2  0  0  0  0  0  0
  191.3420  179.0740  143.6590 O   0  0  0  0  0  1  0  0  0  0  0  0
  183.9820  178.6750  145.2800 C   0  0  0  0  0  3  0  0  0  0  0  0
  185.2940  178.4060  144.8770 C   0  0  0  0  0  0  0  0  0  0  0  0
  190.2790  178.6540  144.4670 C   0  0  2  0  0  3  0  0  0  0  0  0
  188.8370  177.0410  140.0070 C   0  0  0  0  0  2  0  0  0  0  0  0
  189.0870  178.6560  138.1230 C   0  0  0  0  0  1  0  0  0  0  0  0
  188.1030  177.9620  139.0440 C   0  0  0  0  0  2  0  0  0  0  0  0
  1 19  2  0  0  0  0
  1  4  1  0  0  0  0
  2 13  2  0  0  0  0
  2 19  1  0  0  0  0
  3 10  1  0  0  0  0
  4 20  2  0  0  0  0
  5  1  1  0  0  0  0
  6  8  2  0  0  0  0
  7 15  1  6  0  0  0
  7  9  1  0  0  0  0
  9 14  1  6  0  0  0
 10 21  2  0  0  0  0
 11  5  1  0  0  0  0
 11  8  1  0  0  0  0
 12  8  1  6  0  0  0
 12  4  1  0  0  0  0
 12 27  1  0  0  0  0
 13 18  1  0  0  0  0
 15 23  1  0  0  0  0
 16  2  1  0  0  0  0
 17  3  1  0  0  0  0
 18 25  2  0  0  0  0
 19 26  1  0  0  0  0
 20 17  1  0  0  0  0
 20 22  1  0  0  0  0
 22  9  1  0  0  0  0
 22 10  1  0  0  0  0
 23 14  1  0  0  0  0
 26 25  1  0  0  0  0
 26 17  2  0  0  0  0
 27 24  1  6  0  0  0
 27  7  1  0  0  0  0
 28 11  1  0  0  0  0
 29 30  1  0  0  0  0
 30 28  1  0  0  0  0
M  END
>  <MODEL>
1

>  <REMARK>
 VINA RESULT:     -10.0      0.000      0.000
  Name = 
  2 active torsions:
  status: ('A' for Active; 'I' for Inactive)
    1  A    between atoms: N_11  and  C_28
    2  A    between atoms: C_28  and  C_30
                            x       y       z     vdW  Elec       q    Type
                         _______ _______ _______ _____ _____    ______ ____

>  <TORSDO>
F 2

$$$$
=
 OpenBabel11122410213D

 30 35  0  0  1  0  0  0  0  0999 V2000
  185.4600  178.3360  142.4020 C   0  0  0  0  0  0  0  0  0  0  0  0
  186.4150  178.2140  144.7230 C   0  0  0  0  0  0  0  0  0  0  0  0
  181.6540  178.9550  143.8740 N   0  0  0  0  0  2  0  0  0  0  0  0
  184.3330  178.5830  141.5700 C   0  0  0  0  0  0  0  0  0  0  0  0
  186.7310  177.8370  141.7640 C   0  0  0  0  0  2  0  0  0  0  0  0
  185.9970  178.7430  138.3040 O   0  0  0  0  0  0  0  0  0  0  0  0
  182.0790  178.0430  139.2040 C   0  0  1  0  0  3  0  0  0  0  0  0
  185.8090  178.5280  139.5320 C   0  0  0  0  0  0  0  0  0  0  0  0
  181.4970  179.0600  140.2010 C   0  0  2  0  0  3  0  0  0  0  0  0
  181.0400  179.0210  142.6670 C   0  0  0  0  0  0  0  0  0  0  0  0
  186.9230  178.3550  140.4140 N   0  0  0  0  0  0  0  0  0  0  0  0
  184.4080  178.5420  140.0740 C   0  0  1  0  0  3  0  0  0  0  0  0
  186.2090  178.2560  146.1050 C   0  0  0  0  0  3  0  0  0  0  0  0
  181.8500  180.4300  139.6730 C   0  0  0  0  0  2  0  0  0  0  0  0
  182.1460  178.8000  137.8800 C   0  0  0  0  0  2  0  0  0  0  0  0
  187.7130  178.0110  144.2690 O   0  0  0  0  0  1  0  0  0  0  0  0
  182.9490  178.7950  143.5370 C   0  0  0  0  0  0  0  0  0  0  0  0
  184.9390  178.4760  146.6330 C   0  0  0  0  0  3  0  0  0  0  0  0
  185.3230  178.3930  143.8300 C   0  0  0  0  0  0  0  0  0  0  0  0
  183.0950  178.7820  142.1820 C   0  0  0  0  0  0  0  0  0  0  0  0
  179.7980  179.1910  142.5460 O   0  0  0  0  0  0  0  0  0  0  0  0
  181.8780  178.8990  141.6100 N   0  0  0  0  0  0  0  0  0  0  0  0
  181.8630  180.2680  138.1680 C   0  0  0  0  0  2  0  0  0  0  0  0
  183.9840  176.7270  138.4880 O   0  0  0  0  0  1  0  0  0  0  0  0
  183.8530  178.6620  145.7820 C   0  0  0  0  0  3  0  0  0  0  0  0
  184.0330  178.6280  144.3950 C   0  0  0  0  0  0  0  0  0  0  0  0
  183.4560  177.4550  139.5610 C   0  0  2  0  0  3  0  0  0  0  0  0
  188.2850  178.5150  139.9190 C   0  0  0  0  0  2  0  0  0  0  0  0
  190.3550  177.1230  139.8720 C   0  0  0  0  0  1  0  0  0  0  0  0
  189.2560  177.6890  140.7500 C   0  0  0  0  0  2  0  0  0  0  0  0
  1 19  1  0  0  0  0
  2 13  1  0  0  0  0
  4 20  1  0  0  0  0
  4  1  2  0  0  0  0
  5  1  1  0  0  0  0
  6  8  2  0  0  0  0
  7 15  1  6  0  0  0
  7 27  1  0  0  0  0
  7  9  1  0  0  0  0
  8 11  1  0  0  0  0
  9 14  1  6  0  0  0
  9 22  1  0  0  0  0
 10  3  1  0  0  0  0
 11  5  1  0  0  0  0
 12  8  1  1  0  0  0
 12  4  1  0  0  0  0
 13 18  2  0  0  0  0
 15 23  1  0  0  0  0
 16  2  1  0  0  0  0
 17  3  1  0  0  0  0
 17 26  1  0  0  0  0
 19 26  1  0  0  0  0
 19  2  2  0  0  0  0
 20 17  2  0  0  0  0
 21 10  2  0  0  0  0
 22 20  1  0  0  0  0
 22 10  1  0  0  0  0
 23 14  1  0  0  0  0
 25 18  1  0  0  0  0
 26 25  2  0  0  0  0
 27 24  1  6  0  0  0
 27 12  1  0  0  0  0
 28 11  1  0  0  0  0
 28 30  1  0  0  0  0
 29 30  1  0  0  0  0
M  END
>  <MODEL>
2

>  <REMARK>
 VINA RESULT:      -8.5      3.185      6.789
  Name = 
  2 active torsions:
  status: ('A' for Active; 'I' for Inactive)
    1  A    between atoms: N_11  and  C_28
    2  A    between atoms: C_28  and  C_30
                            x       y       z     vdW  Elec       q    Type
                         _______ _______ _______ _____ _____    ______ ____

>  <TORSDO>
F 2

$$$$
=
 OpenBabel11122410213D

 30 35  0  0  1  0  0  0  0  0999 V2000
  187.7600  178.0440  143.1040 C   0  0  0  0  0  0  0  0  0  0  0  0
  188.2780  178.0710  140.6460 C   0  0  0  0  0  0  0  0  0  0  0  0
  191.5280  176.6160  144.0000 N   0  0  0  0  0  2  0  0  0  0  0  0
  188.2230  177.8470  144.4340 C   0  0  0  0  0  0  0  0  0  0  0  0
  186.2890  178.2830  142.8810 C   0  0  0  0  0  2  0  0  0  0  0  0
  185.3620  179.1980  146.2920 O   0  0  0  0  0  0  0  0  0  0  0  0
  188.2960  176.6420  147.5190 C   0  0  1  0  0  3  0  0  0  0  0  0
  186.0570  178.7580  145.3370 C   0  0  0  0  0  0  0  0  0  0  0  0
  189.7110  177.1270  147.1580 C   0  0  2  0  0  3  0  0  0  0  0  0
  191.3430  176.5510  145.3420 C   0  0  0  0  0  0  0  0  0  0  0  0
  185.6640  179.0070  143.9820 N   0  0  0  0  0  0  0  0  0  0  0  0
  187.3460  178.0450  145.6340 C   0  0  1  0  0  3  0  0  0  0  0  0
  189.1860  177.8260  139.6120 C   0  0  0  0  0  3  0  0  0  0  0  0
  189.8050  178.5610  147.6220 C   0  0  0  0  0  2  0  0  0  0  0  0
  187.8840  177.5130  148.7030 C   0  0  0  0  0  2  0  0  0  0  0  0
  187.0230  178.5570  140.3000 O   0  0  0  0  0  1  0  0  0  0  0  0
  190.3580  177.1250  143.5670 C   0  0  0  0  0  0  0  0  0  0  0  0
  190.4700  177.3570  139.8820 C   0  0  0  0  0  3  0  0  0  0  0  0
  188.6510  177.8380  141.9970 C   0  0  0  0  0  0  0  0  0  0  0  0
  189.5200  177.3630  144.6150 C   0  0  0  0  0  0  0  0  0  0  0  0
  192.2340  176.1380  146.1300 O   0  0  0  0  0  0  0  0  0  0  0  0
  190.1260  176.9760  145.7560 N   0  0  0  0  0  0  0  0  0  0  0  0
  188.9120  178.6280  148.8430 C   0  0  0  0  0  2  0  0  0  0  0  0
  185.9610  176.4730  146.8960 O   0  0  0  0  0  1  0  0  0  0  0  0
  190.8650  177.1280  141.1970 C   0  0  0  0  0  3  0  0  0  0  0  0
  189.9760  177.3680  142.2500 C   0  0  0  0  0  0  0  0  0  0  0  0
  187.2450  176.7210  146.3980 C   0  0  2  0  0  3  0  0  0  0  0  0
  184.5080  179.8470  143.6940 C   0  0  0  0  0  2  0  0  0  0  0  0
  182.4250  178.6370  144.3430 C   0  0  0  0  0  1  0  0  0  0  0  0
  183.3460  179.0030  143.1940 C   0  0  0  0  0  2  0  0  0  0  0  0
  1  4  1  0  0  0  0
  2 19  1  0  0  0  0
  3 10  1  0  0  0  0
  4 20  2  0  0  0  0
  5  1  1  0  0  0  0
  5 11  1  0  0  0  0
  7 15  1  1  0  0  0
  8 12  1  0  0  0  0
  8  6  2  0  0  0  0
  9  7  1  0  0  0  0
  9 14  1  6  0  0  0
 10 22  1  0  0  0  0
 10 21  2  0  0  0  0
 11  8  1  0  0  0  0
 12  4  1  6  0  0  0
 12 27  1  0  0  0  0
 13 18  1  0  0  0  0
 13  2  2  0  0  0  0
 14 23  1  0  0  0  0
 15 23  1  0  0  0  0
 16  2  1  0  0  0  0
 17  3  1  0  0  0  0
 17 20  1  0  0  0  0
 18 25  2  0  0  0  0
 19 26  1  0  0  0  0
 19  1  2  0  0  0  0
 20 22  1  0  0  0  0
 22  9  1  0  0  0  0
 25 26  1  0  0  0  0
 26 17  2  0  0  0  0
 27 24  1  1  0  0  0
 27  7  1  0  0  0  0
 28 11  1  0  0  0  0
 30 28  1  0  0  0  0
 30 29  1  0  0  0  0
M  END
>  <MODEL>
3

>  <REMARK>
 VINA RESULT:      -8.3      1.914      5.105
  Name = 
  2 active torsions:
  status: ('A' for Active; 'I' for Inactive)
    1  A    between atoms: N_11  and  C_28
    2  A    between atoms: C_28  and  C_30
                            x       y       z     vdW  Elec       q    Type
                         _______ _______ _______ _____ _____    ______ ____

>  <TORSDO>
F 2

$$$$
=
 OpenBabel11122410213D

 30 35  0  0  1  0  0  0  0  0999 V2000
  187.2600  177.7480  144.6410 C   0  0  0  0  0  0  0  0  0  0  0  0
  185.0620  178.4650  145.6250 C   0  0  0  0  0  0  0  0  0  0  0  0
  185.9900  178.6810  140.8260 N   0  0  0  0  0  2  0  0  0  0  0  0
  188.0970  177.6500  143.4950 C   0  0  0  0  0  0  0  0  0  0  0  0
  187.7220  177.1110  145.9260 C   0  0  0  0  0  2  0  0  0  0  0  0
  191.2630  176.7480  145.1150 O   0  0  0  0  0  0  0  0  0  0  0  0
  190.0780  176.2430  141.2430 C   0  0  1  0  0  3  0  0  0  0  0  0
  190.0310  176.9590  144.9500 C   0  0  0  0  0  0  0  0  0  0  0  0
  189.4740  177.5160  140.6250 C   0  0  2  0  0  3  0  0  0  0  0  0
  187.1310  178.3060  140.1970 C   0  0  0  0  0  0  0  0  0  0  0  0
  189.1710  177.1430  146.0800 N   0  0  0  0  0  0  0  0  0  0  0  0
  189.4910  177.1020  143.5550 C   0  0  1  0  0  3  0  0  0  0  0  0
  183.7730  178.9700  145.4320 C   0  0  0  0  0  3  0  0  0  0  0  0
  190.4460  178.6360  140.9100 C   0  0  0  0  0  2  0  0  0  0  0  0
  191.5820  176.5040  141.2620 C   0  0  0  0  0  2  0  0  0  0  0  0
  185.4520  178.1710  146.9260 O   0  0  0  0  0  1  0  0  0  0  0  0
  186.2860  178.4680  142.1230 C   0  0  0  0  0  0  0  0  0  0  0  0
  183.3190  179.3060  144.1580 C   0  0  0  0  0  3  0  0  0  0  0  0
  185.9340  178.2840  144.5170 C   0  0  0  0  0  0  0  0  0  0  0  0
  187.5580  177.9970  142.2550 C   0  0  0  0  0  0  0  0  0  0  0  0
  187.2710  178.3750  138.9480 O   0  0  0  0  0  0  0  0  0  0  0  0
  188.1040  177.8630  141.0290 N   0  0  0  0  0  0  0  0  0  0  0  0
  191.8060  177.9690  140.9150 C   0  0  0  0  0  2  0  0  0  0  0  0
  190.3500  174.8390  143.1990 O   0  0  0  0  0  1  0  0  0  0  0  0
  184.1540  179.1460  143.0560 C   0  0  0  0  0  3  0  0  0  0  0  0
  185.4500  178.6470  143.2230 C   0  0  0  0  0  0  0  0  0  0  0  0
  189.5770  175.8690  142.6500 C   0  0  2  0  0  3  0  0  0  0  0  0
  189.7260  177.1770  147.4290 C   0  0  0  0  0  2  0  0  0  0  0  0
  188.0420  177.9080  149.1180 C   0  0  0  0  0  1  0  0  0  0  0  0
  189.1670  178.3590  148.2060 C   0  0  0  0  0  2  0  0  0  0  0  0
  1  5  1  0  0  0  0
  2 16  1  0  0  0  0
  3 17  1  0  0  0  0
  4  1  2  0  0  0  0
  5 11  1  0  0  0  0
  7 15  1  1  0  0  0
  7 27  1  0  0  0  0
  8  6  2  0  0  0  0
  8 11  1  0  0  0  0
  9 14  1  1  0  0  0
  9 22  1  0  0  0  0
  9  7  1  0  0  0  0
 10  3  1  0  0  0  0
 10 22  1  0  0  0  0
 11 28  1  0  0  0  0
 12  4  1  1  0  0  0
 12  8  1  0  0  0  0
 13  2  1  0  0  0  0
 14 23  1  0  0  0  0
 17 20  2  0  0  0  0
 17 26  1  0  0  0  0
 18 13  2  0  0  0  0
 19  1  1  0  0  0  0
 19  2  2  0  0  0  0
 20  4  1  0  0  0  0
 21 10  2  0  0  0  0
 22 20  1  0  0  0  0
 23 15  1  0  0  0  0
 25 26  2  0  0  0  0
 25 18  1  0  0  0  0
 26 19  1  0  0  0  0
 27 24  1  1  0  0  0
 27 12  1  0  0  0  0
 28 30  1  0  0  0  0
 30 29  1  0  0  0  0
M  END
>  <MODEL>
4

>  <REMARK>
 VINA RESULT:      -8.3      1.705      5.222
  Name = 
  2 active torsions:
  status: ('A' for Active; 'I' for Inactive)
    1  A    between atoms: N_11  and  C_28
    2  A    between atoms: C_28  and  C_30
                            x       y       z     vdW  Elec       q    Type
                         _______ _______ _______ _____ _____    ______ ____

>  <TORSDO>
F 2

$$$$
=
 OpenBabel11122410213D

 30 35  0  0  1  0  0  0  0  0999 V2000
  186.5270  178.2600  141.2470 C   0  0  0  0  0  0  0  0  0  0  0  0
  185.3320  178.4970  143.4440 C   0  0  0  0  0  0  0  0  0  0  0  0
  190.0530  177.2520  143.1410 N   0  0  0  0  0  2  0  0  0  0  0  0
  187.7090  177.8900  140.5480 C   0  0  0  0  0  0  0  0  0  0  0  0
  185.3970  178.8870  140.4710 C   0  0  0  0  0  2  0  0  0  0  0  0
  186.4210  177.8870  137.1120 O   0  0  0  0  0  0  0  0  0  0  0  0
  190.2630  178.1740  138.4570 C   0  0  1  0  0  3  0  0  0  0  0  0
  186.4900  178.0890  138.3550 C   0  0  0  0  0  0  0  0  0  0  0  0
  190.6170  177.1070  139.5080 C   0  0  2  0  0  3  0  0  0  0  0  0
  190.7900  177.1130  142.0110 C   0  0  0  0  0  0  0  0  0  0  0  0
  185.3060  178.3840  139.1050 N   0  0  0  0  0  0  0  0  0  0  0  0
  187.8110  177.9300  139.0530 C   0  0  1  0  0  3  0  0  0  0  0  0
  185.3730  178.4420  144.8400 C   0  0  0  0  0  3  0  0  0  0  0  0
  190.1830  175.7790  138.9360 C   0  0  0  0  0  2  0  0  0  0  0  0
  190.2670  177.4200  137.1300 C   0  0  0  0  0  2  0  0  0  0  0  0
  184.1230  178.8340  142.8470 O   0  0  0  0  0  1  0  0  0  0  0  0
  188.8290  177.5450  142.6580 C   0  0  0  0  0  0  0  0  0  0  0  0
  186.5440  178.0920  145.5090 C   0  0  0  0  0  3  0  0  0  0  0  0
  186.4930  178.1980  142.6810 C   0  0  0  0  0  0  0  0  0  0  0  0
  188.8410  177.5650  141.2960 C   0  0  0  0  0  0  0  0  0  0  0  0
  192.0120  176.8120  142.0310 O   0  0  0  0  0  0  0  0  0  0  0  0
  190.0960  177.3160  140.8660 N   0  0  0  0  0  0  0  0  0  0  0  0
  190.3580  175.9320  137.4390 C   0  0  0  0  0  2  0  0  0  0  0  0
  188.6020  179.6790  137.5370 O   0  0  0  0  0  1  0  0  0  0  0  0
  187.6940  177.7870  144.7860 C   0  0  0  0  0  3  0  0  0  0  0  0
  187.6780  177.8320  143.3880 C   0  0  0  0  0  0  0  0  0  0  0  0
  188.9240  178.9070  138.6590 C   0  0  2  0  0  3  0  0  0  0  0  0
  184.0000  178.3660  138.4570 C   0  0  0  0  0  2  0  0  0  0  0  0
  182.8010  176.3910  139.3970 C   0  0  0  0  0  1  0  0  0  0  0  0
  182.9280  177.9030  139.4300 C   0  0  0  0  0  2  0  0  0  0  0  0
  1 19  1  0  0  0  0
  2 13  1  0  0  0  0
  4  1  2  0  0  0  0
  4 20  1  0  0  0  0
  5  1  1  0  0  0  0
  6  8  2  0  0  0  0
  7 15  1  6  0  0  0
  7 27  1  0  0  0  0
  7  9  1  0  0  0  0
  8 11  1  0  0  0  0
  9 14  1  6  0  0  0
  9 22  1  0  0  0  0
 10 21  2  0  0  0  0
 10  3  1  0  0  0  0
 11  5  1  0  0  0  0
 12  8  1  6  0  0  0
 12  4  1  0  0  0  0
 13 18  2  0  0  0  0
 15 23  1  0  0  0  0
 16  2  1  0  0  0  0
 17  3  1  0  0  0  0
 17 26  1  0  0  0  0
 19 26  1  0  0  0  0
 19  2  2  0  0  0  0
 20 17  2  0  0  0  0
 22 20  1  0  0  0  0
 22 10  1  0  0  0  0
 23 14  1  0  0  0  0
 25 18  1  0  0  0  0
 26 25  2  0  0  0  0
 27 24  1  6  0  0  0
 27 12  1  0  0  0  0
 28 11  1  0  0  0  0
 28 30  1  0  0  0  0
 29 30  1  0  0  0  0
M  END
>  <MODEL>
5

>  <REMARK>
 VINA RESULT:      -8.3      2.653      5.489
  Name = 
  2 active torsions:
  status: ('A' for Active; 'I' for Inactive)
    1  A    between atoms: N_11  and  C_28
    2  A    between atoms: C_28  and  C_30
                            x       y       z     vdW  Elec       q    Type
                         _______ _______ _______ _____ _____    ______ ____

>  <TORSDO>
F 2

$$$$
=
 OpenBabel11122410213D

 30 35  0  0  1  0  0  0  0  0999 V2000
  186.6070  178.1780  140.8650 C   0  0  0  0  0  0  0  0  0  0  0  0
  185.9920  178.3060  143.2980 C   0  0  0  0  0  0  0  0  0  0  0  0
  190.5430  177.3410  141.7830 N   0  0  0  0  0  2  0  0  0  0  0  0
  187.5920  177.8890  139.8810 C   0  0  0  0  0  0  0  0  0  0  0  0
  185.2880  178.7530  140.4170 C   0  0  0  0  0  2  0  0  0  0  0  0
  185.4830  177.8730  136.8790 O   0  0  0  0  0  0  0  0  0  0  0  0
  189.5200  178.3570  137.2280 C   0  0  1  0  0  3  0  0  0  0  0  0
  185.8520  178.0570  138.0700 C   0  0  0  0  0  0  0  0  0  0  0  0
  190.1810  177.2940  138.1230 C   0  0  2  0  0  3  0  0  0  0  0  0
  190.9780  177.2650  140.5020 C   0  0  0  0  0  0  0  0  0  0  0  0
  184.8820  178.2700  139.1020 N   0  0  0  0  0  0  0  0  0  0  0  0
  187.3120  177.9620  138.4100 C   0  0  1  0  0  3  0  0  0  0  0  0
  186.3860  178.2290  144.6370 C   0  0  0  0  0  3  0  0  0  0  0  0
  189.6860  175.9540  137.6350 C   0  0  0  0  0  2  0  0  0  0  0  0
  189.2290  177.6290  135.9190 C   0  0  0  0  0  2  0  0  0  0  0  0
  184.6570  178.5840  143.0330 O   0  0  0  0  0  1  0  0  0  0  0  0
  189.2240  177.5720  141.6320 C   0  0  0  0  0  0  0  0  0  0  0  0
  187.7040  177.9360  144.9790 C   0  0  0  0  0  3  0  0  0  0  0  0
  186.9380  178.0890  142.2590 C   0  0  0  0  0  0  0  0  0  0  0  0
  188.8920  177.6170  140.3110 C   0  0  0  0  0  0  0  0  0  0  0  0
  192.1800  177.0350  140.2060 O   0  0  0  0  0  0  0  0  0  0  0  0
  190.0090  177.4480  139.5740 N   0  0  0  0  0  0  0  0  0  0  0  0
  189.4710  176.1430  136.1480 C   0  0  0  0  0  2  0  0  0  0  0  0
  187.6060  179.7800  136.8010 O   0  0  0  0  0  1  0  0  0  0  0  0
  188.6500  177.7110  143.9830 C   0  0  0  0  0  3  0  0  0  0  0  0
  188.2810  177.7790  142.6360 C   0  0  0  0  0  0  0  0  0  0  0  0
  188.2390  179.0080  137.7810 C   0  0  2  0  0  3  0  0  0  0  0  0
  183.4580  178.1880  138.8010 C   0  0  0  0  0  2  0  0  0  0  0  0
  182.6840  175.8640  139.2750 C   0  0  0  0  0  1  0  0  0  0  0  0
  182.7520  177.2850  139.8010 C   0  0  0  0  0  2  0  0  0  0  0  0
  1 19  1  0  0  0  0
  2 13  1  0  0  0  0
  4 20  1  0  0  0  0
  4  1  2  0  0  0  0
  5  1  1  0  0  0  0
  6  8  2  0  0  0  0
  7 15  1  6  0  0  0
  7 27  1  0  0  0  0
  7  9  1  0  0  0  0
  8 11  1  0  0  0  0
  9 14  1  6  0  0  0
  9 22  1  0  0  0  0
 10  3  1  0  0  0  0
 11  5  1  0  0  0  0
 12  8  1  1  0  0  0
 12  4  1  0  0  0  0
 13 18  2  0  0  0  0
 15 23  1  0  0  0  0
 16  2  1  0  0  0  0
 17  3  1  0  0  0  0
 17 26  1  0  0  0  0
 19 26  1  0  0  0  0
 19  2  2  0  0  0  0
 20 17  2  0  0  0  0
 21 10  2  0  0  0  0
 22 20  1  0  0  0  0
 22 10  1  0  0  0  0
 23 14  1  0  0  0  0
 25 18  1  0  0  0  0
 26 25  2  0  0  0  0
 27 24  1  6  0  0  0
 27 12  1  0  0  0  0
 28 11  1  0  0  0  0
 28 30  1  0  0  0  0
 29 30  1  0  0  0  0
M  END
>  <MODEL>
6

>  <REMARK>
 VINA RESULT:      -8.2      2.905      6.408
  Name = 
  2 active torsions:
  status: ('A' for Active; 'I' for Inactive)
    1  A    between atoms: N_11  and  C_28
    2  A    between atoms: C_28  and  C_30
                            x       y       z     vdW  Elec       q    Type
                         _______ _______ _______ _____ _____    ______ ____

>  <TORSDO>
F 2

$$$$
=
 OpenBabel11122410213D

 30 35  0  0  1  0  0  0  0  0999 V2000
  188.1510  177.6830  142.1650 C   0  0  0  0  0  0  0  0  0  0  0  0
  187.0070  177.9540  144.3860 C   0  0  0  0  0  0  0  0  0  0  0  0
  184.7010  178.6900  140.1340 N   0  0  0  0  0  2  0  0  0  0  0  0
  188.0890  177.8120  140.7500 C   0  0  0  0  0  0  0  0  0  0  0  0
  189.3640  177.0320  142.7770 C   0  0  0  0  0  2  0  0  0  0  0  0
  191.6290  177.3150  139.9280 O   0  0  0  0  0  0  0  0  0  0  0  0
  188.3240  176.9260  137.5670 C   0  0  1  0  0  3  0  0  0  0  0  0
  190.5540  177.3340  140.5860 C   0  0  0  0  0  0  0  0  0  0  0  0
  187.3680  178.1270  137.6630 C   0  0  2  0  0  3  0  0  0  0  0  0
  185.2210  178.5560  138.8890 C   0  0  0  0  0  0  0  0  0  0  0  0
  190.5820  177.2870  142.0170 N   0  0  0  0  0  0  0  0  0  0  0  0
  189.2500  177.4950  139.8570 C   0  0  1  0  0  3  0  0  0  0  0  0
  185.8470  178.2550  145.1050 C   0  0  0  0  0  3  0  0  0  0  0  0
  188.2110  179.3650  137.4720 C   0  0  0  0  0  2  0  0  0  0  0  0
  189.4810  177.4260  136.7060 C   0  0  0  0  0  2  0  0  0  0  0  0
  188.1480  177.6270  145.1090 O   0  0  0  0  0  1  0  0  0  0  0  0
  185.7610  178.4280  140.9250 C   0  0  0  0  0  0  0  0  0  0  0  0
  184.6700  178.6110  144.4490 C   0  0  0  0  0  3  0  0  0  0  0  0
  187.0030  178.0040  142.9650 C   0  0  0  0  0  0  0  0  0  0  0  0
  186.8660  178.1620  140.1740 C   0  0  0  0  0  0  0  0  0  0  0  0
  184.5410  178.7430  137.8460 O   0  0  0  0  0  0  0  0  0  0  0  0
  186.5320  178.2140  138.8680 N   0  0  0  0  0  0  0  0  0  0  0  0
  189.3210  178.9310  136.5370 C   0  0  0  0  0  2  0  0  0  0  0  0
  189.8710  175.4370  138.6890 O   0  0  0  0  0  1  0  0  0  0  0  0
  184.6390  178.6760  143.0590 C   0  0  0  0  0  3  0  0  0  0  0  0
  185.7880  178.3820  142.3160 C   0  0  0  0  0  0  0  0  0  0  0  0
  188.8470  176.3660  138.9020 C   0  0  2  0  0  3  0  0  0  0  0  0
  191.8540  177.3070  142.7290 C   0  0  0  0  0  2  0  0  0  0  0  0
  191.3370  179.3680  144.0360 C   0  0  0  0  0  1  0  0  0  0  0  0
  191.6770  177.8930  144.1220 C   0  0  0  0  0  2  0  0  0  0  0  0
  1  5  1  0  0  0  0
  1 19  1  0  0  0  0
  2 13  1  0  0  0  0
  2 16  1  0  0  0  0
  3 17  1  0  0  0  0
  4  1  2  0  0  0  0
  6  8  2  0  0  0  0
  7 15  1  6  0  0  0
  7  9  1  0  0  0  0
  7 27  1  0  0  0  0
  8 11  1  0  0  0  0
  9 14  1  1  0  0  0
  9 22  1  0  0  0  0
 10  3  1  0  0  0  0
 11 28  1  0  0  0  0
 11  5  1  0  0  0  0
 12  8  1  1  0  0  0
 12  4  1  0  0  0  0
 17 26  1  0  0  0  0
 18 13  2  0  0  0  0
 19  2  2  0  0  0  0
 20  4  1  0  0  0  0
 20 17  2  0  0  0  0
 21 10  2  0  0  0  0
 22 10  1  0  0  0  0
 22 20  1  0  0  0  0
 23 15  1  0  0  0  0
 23 14  1  0  0  0  0
 25 18  1  0  0  0  0
 26 19  1  0  0  0  0
 26 25  2  0  0  0  0
 27 24  1  6  0  0  0
 27 12  1  0  0  0  0
 28 30  1  0  0  0  0
 29 30  1  0  0  0  0
M  END
>  <MODEL>
7

>  <REMARK>
 VINA RESULT:      -8.1      2.514      6.123
  Name = 
  2 active torsions:
  status: ('A' for Active; 'I' for Inactive)
    1  A    between atoms: N_11  and  C_28
    2  A    between atoms: C_28  and  C_30
                            x       y       z     vdW  Elec       q    Type
                         _______ _______ _______ _____ _____    ______ ____

>  <TORSDO>
F 2

$$$$
=
 OpenBabel11122410213D

 30 35  0  0  1  0  0  0  0  0999 V2000
  187.6390  177.8190  142.5100 C   0  0  0  0  0  0  0  0  0  0  0  0
  185.4910  178.2190  141.2680 C   0  0  0  0  0  0  0  0  0  0  0  0
  185.7730  178.3690  146.1510 N   0  0  0  0  0  2  0  0  0  0  0  0
  188.3000  177.6520  143.7580 C   0  0  0  0  0  0  0  0  0  0  0  0
  188.4720  177.8830  141.2560 C   0  0  0  0  0  2  0  0  0  0  0  0
  191.5580  176.4460  142.5760 O   0  0  0  0  0  0  0  0  0  0  0  0
  190.5460  178.1560  146.1410 C   0  0  1  0  0  3  0  0  0  0  0  0
  190.4030  176.9520  142.5650 C   0  0  0  0  0  0  0  0  0  0  0  0
  189.2970  177.5250  146.7810 C   0  0  2  0  0  3  0  0  0  0  0  0
  186.8800  178.1830  146.9110 C   0  0  0  0  0  0  0  0  0  0  0  0
  189.6740  177.0620  141.3370 N   0  0  0  0  0  0  0  0  0  0  0  0
  189.7670  177.3590  143.8630 C   0  0  1  0  0  3  0  0  0  0  0  0
  184.1260  178.5170  141.3050 C   0  0  0  0  0  3  0  0  0  0  0  0
  189.5160  176.0310  146.7690 C   0  0  0  0  0  2  0  0  0  0  0  0
  191.6580  177.1390  146.3870 C   0  0  0  0  0  2  0  0  0  0  0  0
  186.0790  178.0350  140.0220 O   0  0  0  0  0  1  0  0  0  0  0  0
  186.2370  178.1680  144.9010 C   0  0  0  0  0  0  0  0  0  0  0  0
  183.4650  178.6960  142.5180 C   0  0  0  0  0  3  0  0  0  0  0  0
  186.2310  178.0970  142.4760 C   0  0  0  0  0  0  0  0  0  0  0  0
  187.5650  177.8620  144.9250 C   0  0  0  0  0  0  0  0  0  0  0  0
  186.8620  178.2660  148.1670 O   0  0  0  0  0  0  0  0  0  0  0  0
  187.9980  177.8930  146.2030 N   0  0  0  0  0  0  0  0  0  0  0  0
  191.0150  175.8620  146.9120 C   0  0  0  0  0  2  0  0  0  0  0  0
  191.6940  178.8430  144.1210 O   0  0  0  0  0  1  0  0  0  0  0  0
  184.1620  178.5740  143.7170 C   0  0  0  0  0  3  0  0  0  0  0  0
  185.5280  178.2740  143.7080 C   0  0  0  0  0  0  0  0  0  0  0  0
  190.4430  178.4920  144.6420 C   0  0  2  0  0  3  0  0  0  0  0  0
  190.2220  176.5080  140.1040 C   0  0  0  0  0  2  0  0  0  0  0  0
  192.4120  176.8140  138.9490 C   0  0  0  0  0  1  0  0  0  0  0  0
  191.1550  177.5080  139.4380 C   0  0  0  0  0  2  0  0  0  0  0  0
  1  4  1  0  0  0  0
  2 13  2  0  0  0  0
  2 19  1  0  0  0  0
  3 10  1  0  0  0  0
  4 12  1  0  0  0  0
  4 20  2  0  0  0  0
  5 11  1  0  0  0  0
  5  1  1  0  0  0  0
  7 15  1  6  0  0  0
  7  9  1  0  0  0  0
  8  6  2  0  0  0  0
  9 14  1  6  0  0  0
 10 21  2  0  0  0  0
 11  8  1  0  0  0  0
 12  8  1  6  0  0  0
 12 27  1  0  0  0  0
 13 18  1  0  0  0  0
 14 23  1  0  0  0  0
 15 23  1  0  0  0  0
 16  2  1  0  0  0  0
 17 20  1  0  0  0  0
 17  3  1  0  0  0  0
 18 25  2  0  0  0  0
 19  1  2  0  0  0  0
 19 26  1  0  0  0  0
 20 22  1  0  0  0  0
 22  9  1  0  0  0  0
 22 10  1  0  0  0  0
 26 25  1  0  0  0  0
 26 17  2  0  0  0  0
 27 24  1  6  0  0  0
 27  7  1  0  0  0  0
 28 11  1  0  0  0  0
 29 30  1  0  0  0  0
 30 28  1  0  0  0  0
M  END
>  <MODEL>
8

>  <REMARK>
 VINA RESULT:      -8.1      1.220      1.386
  Name = 
  2 active torsions:
  status: ('A' for Active; 'I' for Inactive)
    1  A    between atoms: N_11  and  C_28
    2  A    between atoms: C_28  and  C_30
                            x       y       z     vdW  Elec       q    Type
                         _______ _______ _______ _____ _____    ______ ____

>  <TORSDO>
F 2

$$$$
=
 OpenBabel11122410213D

 30 35  0  0  1  0  0  0  0  0999 V2000
  188.4330  177.9780  140.7210 C   0  0  0  0  0  0  0  0  0  0  0  0
  189.2130  177.9870  143.1090 C   0  0  0  0  0  0  0  0  0  0  0  0
  192.1130  176.6530  139.4010 N   0  0  0  0  0  2  0  0  0  0  0  0
  188.7050  177.6600  139.3620 C   0  0  0  0  0  0  0  0  0  0  0  0
  187.1650  178.7240  141.0460 C   0  0  0  0  0  2  0  0  0  0  0  0
  185.3520  178.1000  137.9390 O   0  0  0  0  0  0  0  0  0  0  0  0
  188.9910  178.1170  136.0930 C   0  0  1  0  0  3  0  0  0  0  0  0
  186.3130  178.1510  138.7540 C   0  0  0  0  0  0  0  0  0  0  0  0
  189.8770  176.9240  136.4920 C   0  0  2  0  0  3  0  0  0  0  0  0
  191.7940  176.6280  138.0840 C   0  0  0  0  0  0  0  0  0  0  0  0
  186.0680  178.3890  140.1440 N   0  0  0  0  0  0  0  0  0  0  0  0
  187.7060  177.8730  138.2650 C   0  0  1  0  0  3  0  0  0  0  0  0
  190.2380  177.7660  144.0330 C   0  0  0  0  0  3  0  0  0  0  0  0
  189.0280  175.6850  136.3330 C   0  0  0  0  0  2  0  0  0  0  0  0
  187.9620  177.5250  135.1340 C   0  0  0  0  0  2  0  0  0  0  0  0
  187.9880  178.4260  143.5960 O   0  0  0  0  0  1  0  0  0  0  0  0
  190.9550  177.0360  139.9760 C   0  0  0  0  0  0  0  0  0  0  0  0
  191.4870  177.3070  143.6210 C   0  0  0  0  0  3  0  0  0  0  0  0
  189.4320  177.7480  141.7250 C   0  0  0  0  0  0  0  0  0  0  0  0
  189.9870  177.2170  139.0340 C   0  0  0  0  0  0  0  0  0  0  0  0
  192.6180  176.2920  137.1930 O   0  0  0  0  0  0  0  0  0  0  0  0
  190.5160  176.9850  137.8140 N   0  0  0  0  0  0  0  0  0  0  0  0
  188.0900  176.0090  135.1890 C   0  0  0  0  0  2  0  0  0  0  0  0
  187.3460  179.7670  136.7580 O   0  0  0  0  0  1  0  0  0  0  0  0
  191.7280  177.0570  142.2730 C   0  0  0  0  0  3  0  0  0  0  0  0
  190.7180  177.2670  141.3280 C   0  0  0  0  0  0  0  0  0  0  0  0
  188.2920  178.8580  137.2470 C   0  0  2  0  0  3  0  0  0  0  0  0
  184.7030  178.4840  140.6460 C   0  0  0  0  0  2  0  0  0  0  0  0
  183.3270  178.7370  142.7110 C   0  0  0  0  0  1  0  0  0  0  0  0
  184.6760  178.3200  142.1580 C   0  0  0  0  0  2  0  0  0  0  0  0
  1  5  1  0  0  0  0
  1 19  1  0  0  0  0
  2 16  1  0  0  0  0
  2 13  1  0  0  0  0
  3 17  1  0  0  0  0
  4  1  2  0  0  0  0
  6  8  2  0  0  0  0
  7 15  1  6  0  0  0
  7  9  1  0  0  0  0
  7 27  1  0  0  0  0
  8 11  1  0  0  0  0
  9 14  1  1  0  0  0
  9 22  1  0  0  0  0
 10  3  1  0  0  0  0
 11 28  1  0  0  0  0
 11  5  1  0  0  0  0
 12  8  1  1  0  0  0
 12  4  1  0  0  0  0
 15 23  1  0  0  0  0
 17 26  1  0  0  0  0
 18 13  2  0  0  0  0
 19  2  2  0  0  0  0
 20  4  1  0  0  0  0
 20 17  2  0  0  0  0
 21 10  2  0  0  0  0
 22 10  1  0  0  0  0
 22 20  1  0  0  0  0
 23 14  1  0  0  0  0
 25 18  1  0  0  0  0
 26 19  1  0  0  0  0
 26 25  2  0  0  0  0
 27 24  1  6  0  0  0
 27 12  1  0  0  0  0
 28 30  1  0  0  0  0
 30 29  1  0  0  0  0
M  END
>  <MODEL>
9

>  <REMARK>
 VINA RESULT:      -8.0      3.058      7.719
  Name = 
  2 active torsions:
  status: ('A' for Active; 'I' for Inactive)
    1  A    between atoms: N_11  and  C_28
    2  A    between atoms: C_28  and  C_30
                            x       y       z     vdW  Elec       q    Type
                         _______ _______ _______ _____ _____    ______ ____

>  <TORSDO>
F 2

$$$$
