=
 OpenBabel11122412273D

 34 41  0  0  1  0  0  0  0  0999 V2000
  186.3600  178.0850  140.1480 C   0  0  2  0  0  3  0  0  0  0  0  0
  183.9550  177.8770  140.0430 O   0  0  0  0  0  0  0  0  0  0  0  0
  191.2860  178.2430  144.3260 C   0  0  2  0  0  3  0  0  0  0  0  0
  188.6740  177.5950  140.8650 C   0  0  1  0  0  3  0  0  0  0  0  0
  188.9810  177.8690  143.4350 C   0  0  2  0  0  3  0  0  0  0  0  0
  189.3810  178.1870  145.7730 O   0  0  0  0  0  1  0  0  0  0  0  0
  191.1780  179.6130  144.0710 O   0  0  0  0  0  1  0  0  0  0  0  0
  191.0850  177.3850  141.8870 C   0  0  1  0  0  3  0  0  0  0  0  0
  184.7700  179.0520  141.9670 C   0  0  2  0  0  3  0  0  0  0  0  0
  183.1960  179.5430  144.4970 C   0  0  0  0  0  2  0  0  0  0  0  0
  187.7090  177.1550  143.6020 N   0  0  0  0  0  2  0  0  0  0  0  0
  190.2400  176.2710  142.0800 O   0  0  0  0  0  0  0  0  0  0  0  0
  185.4350  178.0980  143.0010 C   0  0  1  0  0  3  0  0  0  0  0  0
  182.8820  178.0390  140.9430 C   0  0  0  0  0  2  0  0  0  0  0  0
  189.6070  177.5270  142.0700 C   0  0  2  0  0  0  0  0  0  0  0  0
  191.9540  177.5360  143.1480 C   0  0  0  0  0  2  0  0  0  0  0  0
  182.6180  178.6890  143.3720 C   0  0  2  0  0  3  0  0  0  0  0  0
  187.3350  178.1840  141.3050 C   0  0  2  0  0  3  0  0  0  0  0  0
  189.9190  177.6270  144.6130 C   0  0  2  0  0  3  0  0  0  0  0  0
  186.7470  177.4460  142.5120 C   0  0  1  0  0  3  0  0  0  0  0  0
  188.3920  178.1760  138.6970 C   0  0  0  0  0  2  0  0  0  0  0  0
  184.3610  178.8230  145.1620 C   0  0  0  0  0  2  0  0  0  0  0  0
  189.2040  178.3920  139.8320 O   0  0  0  0  0  0  0  0  0  0  0  0
  185.6210  178.8680  144.3070 C   0  0  0  0  0  2  0  0  0  0  0  0
  183.2600  179.0360  142.0220 C   0  0  1  0  0  3  0  0  0  0  0  0
  186.9780  178.7420  138.9150 C   0  0  0  0  0  2  0  0  0  0  0  0
  185.0000  178.7020  140.4940 C   0  0  1  0  0  3  0  0  0  0  0  0
  181.1160  178.9120  143.2980 C   0  0  0  0  0  2  0  0  0  0  0  0
  180.8480  180.2220  142.8940 O   0  0  0  0  0  0  0  0  0  0  0  0
  179.9910  180.1910  139.9680 N   0  0  0  0  0  2  0  0  0  0  0  0
  179.1990  178.4630  141.8470 S   0  0  0  0  0  0  0  0  0  0  0  0
  179.5690  180.1690  142.3340 C   0  0  2  0  0  3  0  0  0  0  0  0
  179.2890  178.9250  140.0920 C   0  0  0  0  0  2  0  0  0  0  0  0
  179.5340  181.0080  141.0770 C   0  0  0  0  0  2  0  0  0  0  0  0
  1 26  1  6  0  0  0
  1 27  1  0  0  0  0
  1 18  1  0  0  0  0
  2 27  1  0  0  0  0
  2 14  1  0  0  0  0
  3  7  1  6  0  0  0
  3 19  1  0  0  0  0
  4 23  1  6  0  0  0
  4 18  1  0  0  0  0
  4 15  1  0  0  0  0
  5 11  1  1  0  0  0
  5 19  1  0  0  0  0
  8 15  1  0  0  0  0
  8 12  1  0  0  0  0
  8 16  1  1  0  0  0
  9 25  1  0  0  0  0
  9 13  1  0  0  0  0
 10 22  1  0  0  0  0
 13 24  1  0  0  0  0
 14 25  1  0  0  0  0
 15 12  1  0  0  0  0
 15  5  1  0  0  0  0
 16  3  1  0  0  0  0
 17 10  1  0  0  0  0
 18 20  1  0  0  0  0
 19  6  1  0  0  0  0
 20 13  1  0  0  0  0
 20 11  1  0  0  0  0
 21 26  1  0  0  0  0
 21 23  1  0  0  0  0
 24 22  1  0  0  0  0
 25 17  1  0  0  0  0
 27  9  1  0  0  0  0
 28 17  1  0  0  0  0
 29 28  1  0  0  0  0
 30 33  1  0  0  0  0
 30 34  1  0  0  0  0
 31 32  1  0  0  0  0
 32 29  1  0  0  0  0
 33 31  1  0  0  0  0
 34 32  1  0  0  0  0
M  END
>  <MODEL>
1

>  <REMARK>
 VINA RESULT:      -8.5      0.000      0.000
  Name = 
  3 active torsions:
  status: ('A' for Active; 'I' for Inactive)
    1  A    between atoms: C_17  and  C_28
    2  A    between atoms: C_28  and  O_29
    3  A    between atoms: O_29  and  C_32
                            x       y       z     vdW  Elec       q    Type
                         _______ _______ _______ _____ _____    ______ ____

>  <TORSDO>
F 3

$$$$
=
 OpenBabel11122412273D

 34 41  0  0  1  0  0  0  0  0999 V2000
  188.4780  177.7300  138.1320 C   0  0  2  0  0  3  0  0  0  0  0  0
  187.1520  177.9370  140.1410 O   0  0  0  0  0  0  0  0  0  0  0  0
  194.2560  175.7590  136.0180 C   0  0  2  0  0  3  0  0  0  0  0  0
  189.9970  176.6840  136.4850 C   0  0  1  0  0  3  0  0  0  0  0  0
  192.2940  176.0540  137.5360 C   0  0  2  0  0  3  0  0  0  0  0  0
  194.4660  175.5260  138.3900 O   0  0  0  0  0  1  0  0  0  0  0  0
  194.4930  177.1370  136.0300 O   0  0  0  0  0  1  0  0  0  0  0  0
  191.9070  175.7860  134.9220 C   0  0  1  0  0  3  0  0  0  0  0  0
  189.5030  178.2810  140.4590 C   0  0  2  0  0  3  0  0  0  0  0  0
  190.9330  178.1550  143.1160 C   0  0  0  0  0  2  0  0  0  0  0  0
  191.5540  175.5280  138.6900 N   0  0  0  0  0  2  0  0  0  0  0  0
  191.2510  174.8130  135.7070 O   0  0  0  0  0  0  0  0  0  0  0  0
  190.3090  176.9520  140.3770 C   0  0  1  0  0  3  0  0  0  0  0  0
  187.4080  177.9590  141.5280 C   0  0  0  0  0  2  0  0  0  0  0  0
  191.3870  176.0840  136.2920 C   0  0  2  0  0  0  0  0  0  0  0  0
  193.3880  175.3820  134.8190 C   0  0  0  0  0  2  0  0  0  0  0  0
  189.4500  177.8140  143.0110 C   0  0  2  0  0  3  0  0  0  0  0  0
  189.9090  177.2940  137.8840 C   0  0  2  0  0  3  0  0  0  0  0  0
  193.6010  175.3000  137.3180 C   0  0  2  0  0  3  0  0  0  0  0  0
  190.3220  176.3030  138.9750 C   0  0  1  0  0  3  0  0  0  0  0  0
  188.3400  177.9760  135.6490 C   0  0  0  0  0  2  0  0  0  0  0  0
  191.7710  177.0880  142.4240 C   0  0  0  0  0  2  0  0  0  0  0  0
  189.7170  177.6830  135.5340 O   0  0  0  0  0  0  0  0  0  0  0  0
  191.7170  177.2160  140.9070 C   0  0  0  0  0  2  0  0  0  0  0  0
  188.8090  178.4790  141.7860 C   0  0  1  0  0  3  0  0  0  0  0  0
  188.0300  178.6500  136.9980 C   0  0  0  0  0  2  0  0  0  0  0  0
  188.3150  178.4000  139.5010 C   0  0  1  0  0  3  0  0  0  0  0  0
  188.7420  178.2760  144.2750 C   0  0  0  0  0  2  0  0  0  0  0  0
  189.6060  178.1790  145.3680 O   0  0  0  0  0  0  0  0  0  0  0  0
  189.3010  178.1020  148.4010 N   0  0  0  0  0  2  0  0  0  0  0  0
  187.3480  177.6930  146.6230 S   0  0  0  0  0  0  0  0  0  0  0  0
  189.0370  177.2020  146.1880 C   0  0  2  0  0  3  0  0  0  0  0  0
  187.8550  177.9800  148.3440 C   0  0  0  0  0  2  0  0  0  0  0  0
  189.8200  177.1080  147.4790 C   0  0  0  0  0  2  0  0  0  0  0  0
  1 26  1  6  0  0  0
  1 27  1  0  0  0  0
  2 14  1  0  0  0  0
  3  7  1  1  0  0  0
  3 19  1  0  0  0  0
  4 23  1  6  0  0  0
  4 18  1  0  0  0  0
  5 11  1  1  0  0  0
  8 16  1  1  0  0  0
  8 12  1  0  0  0  0
  8 15  1  0  0  0  0
  9 25  1  0  0  0  0
 11 20  1  0  0  0  0
 12 15  1  0  0  0  0
 13  9  1  0  0  0  0
 13 24  1  0  0  0  0
 14 25  1  0  0  0  0
 15  4  1  0  0  0  0
 15  5  1  0  0  0  0
 16  3  1  0  0  0  0
 17 10  1  0  0  0  0
 17 28  1  0  0  0  0
 18  1  1  0  0  0  0
 18 20  1  0  0  0  0
 19  5  1  0  0  0  0
 19  6  1  0  0  0  0
 20 13  1  0  0  0  0
 21 26  1  0  0  0  0
 22 10  1  0  0  0  0
 23 21  1  0  0  0  0
 24 22  1  0  0  0  0
 25 17  1  0  0  0  0
 27  2  1  0  0  0  0
 27  9  1  0  0  0  0
 28 29  1  0  0  0  0
 29 32  1  0  0  0  0
 31 33  1  0  0  0  0
 32 31  1  0  0  0  0
 32 34  1  0  0  0  0
 33 30  1  0  0  0  0
 34 30  1  0  0  0  0
M  END
>  <MODEL>
2

>  <REMARK>
 VINA RESULT:      -8.5      4.777      7.498
  Name = 
  3 active torsions:
  status: ('A' for Active; 'I' for Inactive)
    1  A    between atoms: C_17  and  C_28
    2  A    between atoms: C_28  and  O_29
    3  A    between atoms: O_29  and  C_32
                            x       y       z     vdW  Elec       q    Type
                         _______ _______ _______ _____ _____    ______ ____

>  <TORSDO>
F 3

$$$$
=
 OpenBabel11122412273D

 34 41  0  0  1  0  0  0  0  0999 V2000
  189.9080  177.5650  142.7460 C   0  0  2  0  0  3  0  0  0  0  0  0
  189.6560  177.0520  140.3990 O   0  0  0  0  0  0  0  0  0  0  0  0
  186.4950  178.7640  148.0990 C   0  0  2  0  0  3  0  0  0  0  0  0
  189.4840  177.4410  145.1790 C   0  0  1  0  0  3  0  0  0  0  0  0
  187.0170  178.0190  145.7720 C   0  0  2  0  0  3  0  0  0  0  0  0
  184.7950  178.6260  146.4210 O   0  0  0  0  0  1  0  0  0  0  0  0
  186.8510  180.0770  147.7750 O   0  0  0  0  0  1  0  0  0  0  0  0
  188.7970  177.6370  147.7070 C   0  0  1  0  0  3  0  0  0  0  0  0
  187.9750  178.5130  141.2860 C   0  0  2  0  0  3  0  0  0  0  0  0
  185.3010  179.0710  139.9970 C   0  0  0  0  0  2  0  0  0  0  0  0
  186.6100  177.1750  144.6410 N   0  0  0  0  0  2  0  0  0  0  0  0
  188.3910  176.4540  147.0530 O   0  0  0  0  0  0  0  0  0  0  0  0
  186.9650  177.7630  142.2020 C   0  0  1  0  0  3  0  0  0  0  0  0
  188.6310  177.1750  139.4390 C   0  0  0  0  0  2  0  0  0  0  0  0
  188.4210  177.6150  146.2590 C   0  0  2  0  0  0  0  0  0  0  0  0
  187.6890  178.0250  148.7010 C   0  0  0  0  0  2  0  0  0  0  0  0
  186.2550  178.0390  139.4020 C   0  0  2  0  0  3  0  0  0  0  0  0
  188.9130  177.9030  143.8390 C   0  0  2  0  0  3  0  0  0  0  0  0
  185.9660  178.0180  146.8770 C   0  0  2  0  0  3  0  0  0  0  0  0
  187.5760  177.2300  143.5170 C   0  0  1  0  0  3  0  0  0  0  0  0
  191.6330  177.7510  144.5450 C   0  0  0  0  0  2  0  0  0  0  0  0
  184.7470  178.5730  141.3250 C   0  0  0  0  0  2  0  0  0  0  0  0
  190.6470  178.1840  145.4590 O   0  0  0  0  0  0  0  0  0  0  0  0
  185.7710  178.6830  142.4470 C   0  0  0  0  0  2  0  0  0  0  0  0
  187.7070  178.3180  139.8130 C   0  0  1  0  0  3  0  0  0  0  0  0
  191.2690  178.1590  143.1060 C   0  0  0  0  0  2  0  0  0  0  0  0
  189.4290  178.0420  141.3710 C   0  0  1  0  0  3  0  0  0  0  0  0
  186.1360  178.0660  137.8860 C   0  0  0  0  0  2  0  0  0  0  0  0
  187.2170  178.7570  137.3360 O   0  0  0  0  0  0  0  0  0  0  0  0
  188.8860  176.5530  136.0500 N   0  0  0  0  0  2  0  0  0  0  0  0
  186.2420  176.8570  135.8040 S   0  0  0  0  0  0  0  0  0  0  0  0
  187.2730  178.3340  136.0060 C   0  0  2  0  0  3  0  0  0  0  0  0
  187.7240  175.8350  135.5570 C   0  0  0  0  0  2  0  0  0  0  0  0
  188.6910  177.9380  135.6610 C   0  0  0  0  0  2  0  0  0  0  0  0
  1 26  1  1  0  0  0
  1 18  1  0  0  0  0
  2 27  1  0  0  0  0
  3  7  1  6  0  0  0
  3 16  1  0  0  0  0
  4 23  1  1  0  0  0
  4 15  1  0  0  0  0
  5 11  1  6  0  0  0
  5 15  1  0  0  0  0
  5 19  1  0  0  0  0
  6 19  1  0  0  0  0
  8 16  1  1  0  0  0
  9 27  1  0  0  0  0
  9 13  1  0  0  0  0
 10 22  1  0  0  0  0
 12  8  1  0  0  0  0
 13 24  1  0  0  0  0
 13 20  1  0  0  0  0
 14 25  1  0  0  0  0
 14  2  1  0  0  0  0
 15 12  1  0  0  0  0
 15  8  1  0  0  0  0
 17 25  1  0  0  0  0
 17 10  1  0  0  0  0
 18  4  1  0  0  0  0
 19  3  1  0  0  0  0
 20 18  1  0  0  0  0
 20 11  1  0  0  0  0
 21 23  1  0  0  0  0
 22 24  1  0  0  0  0
 25  9  1  0  0  0  0
 26 21  1  0  0  0  0
 27  1  1  0  0  0  0
 28 17  1  0  0  0  0
 29 28  1  0  0  0  0
 31 32  1  0  0  0  0
 32 29  1  0  0  0  0
 33 31  1  0  0  0  0
 33 30  1  0  0  0  0
 34 32  1  0  0  0  0
 34 30  1  0  0  0  0
M  END
>  <MODEL>
3

>  <REMARK>
 VINA RESULT:      -8.0      3.377      6.132
  Name = 
  3 active torsions:
  status: ('A' for Active; 'I' for Inactive)
    1  A    between atoms: C_17  and  C_28
    2  A    between atoms: C_28  and  O_29
    3  A    between atoms: O_29  and  C_32
                            x       y       z     vdW  Elec       q    Type
                         _______ _______ _______ _____ _____    ______ ____

>  <TORSDO>
F 3

$$$$
=
 OpenBabel11122412273D

 34 41  0  0  1  0  0  0  0  0999 V2000
  188.1010  178.2870  141.0040 C   0  0  2  0  0  3  0  0  0  0  0  0
  189.6970  178.5800  142.7920 O   0  0  0  0  0  0  0  0  0  0  0  0
  181.7570  178.3080  139.7770 C   0  0  2  0  0  3  0  0  0  0  0  0
  186.1150  178.7480  139.6040 C   0  0  1  0  0  3  0  0  0  0  0  0
  183.9100  178.6920  140.9860 C   0  0  2  0  0  3  0  0  0  0  0  0
  181.8260  178.5680  142.1550 O   0  0  0  0  0  1  0  0  0  0  0  0
  181.9610  176.9260  139.8200 O   0  0  0  0  0  1  0  0  0  0  0  0
  183.8200  178.9530  138.3440 C   0  0  1  0  0  3  0  0  0  0  0  0
  187.6370  177.5500  143.4560 C   0  0  2  0  0  3  0  0  0  0  0  0
  186.6310  177.3480  146.2960 C   0  0  0  0  0  2  0  0  0  0  0  0
  184.6080  179.4680  142.0190 N   0  0  0  0  0  2  0  0  0  0  0  0
  184.2490  180.1120  139.0250 O   0  0  0  0  0  0  0  0  0  0  0  0
  186.4580  178.5650  143.4980 C   0  0  1  0  0  3  0  0  0  0  0  0
  189.6610  178.5410  144.2020 C   0  0  0  0  0  2  0  0  0  0  0  0
  184.5960  178.8860  139.6200 C   0  0  2  0  0  0  0  0  0  0  0  0
  182.2880  178.8810  138.4630 C   0  0  0  0  0  2  0  0  0  0  0  0
  187.9060  178.1210  145.9720 C   0  0  2  0  0  3  0  0  0  0  0  0
  186.5850  178.2540  140.9720 C   0  0  2  0  0  3  0  0  0  0  0  0
  182.4170  179.0010  140.9670 C   0  0  2  0  0  3  0  0  0  0  0  0
  186.0470  179.1180  142.1150 C   0  0  1  0  0  3  0  0  0  0  0  0
  187.9530  177.9880  138.5270 C   0  0  0  0  0  2  0  0  0  0  0  0
  185.4160  178.0780  145.7390 C   0  0  0  0  0  2  0  0  0  0  0  0
  186.5520  177.8420  138.6190 O   0  0  0  0  0  0  0  0  0  0  0  0
  185.2900  177.9070  144.2300 C   0  0  0  0  0  2  0  0  0  0  0  0
  188.5400  177.6300  144.6640 C   0  0  1  0  0  3  0  0  0  0  0  0
  188.6440  177.5000  139.8130 C   0  0  0  0  0  2  0  0  0  0  0  0
  188.6550  177.7580  142.3310 C   0  0  1  0  0  3  0  0  0  0  0  0
  188.8950  177.9510  147.1160 C   0  0  0  0  0  2  0  0  0  0  0  0
  189.5870  176.7480  146.9730 O   0  0  0  0  0  0  0  0  0  0  0  0
  192.1270  175.4850  148.0930 N   0  0  0  0  0  2  0  0  0  0  0  0
  191.6820  176.0870  145.5280 S   0  0  0  0  0  0  0  0  0  0  0  0
  190.9230  177.1210  146.8080 C   0  0  2  0  0  3  0  0  0  0  0  0
  192.7010  175.2520  146.7790 C   0  0  0  0  0  2  0  0  0  0  0  0
  191.6800  176.8670  148.0920 C   0  0  0  0  0  2  0  0  0  0  0  0
  1 26  1  6  0  0  0
  1 27  1  0  0  0  0
  2 14  1  0  0  0  0
  3  7  1  6  0  0  0
  3 19  1  0  0  0  0
  4 23  1  6  0  0  0
  4 15  1  0  0  0  0
  4 18  1  0  0  0  0
  5 11  1  1  0  0  0
  8 16  1  1  0  0  0
  8 12  1  0  0  0  0
  8 15  1  0  0  0  0
  9 13  1  0  0  0  0
  9 25  1  0  0  0  0
 11 20  1  0  0  0  0
 12 15  1  0  0  0  0
 13 24  1  0  0  0  0
 14 25  1  0  0  0  0
 15  5  1  0  0  0  0
 16  3  1  0  0  0  0
 17 10  1  0  0  0  0
 17 28  1  0  0  0  0
 18  1  1  0  0  0  0
 18 20  1  0  0  0  0
 19  5  1  0  0  0  0
 19  6  1  0  0  0  0
 20 13  1  0  0  0  0
 21 23  1  0  0  0  0
 21 26  1  0  0  0  0
 22 10  1  0  0  0  0
 24 22  1  0  0  0  0
 25 17  1  0  0  0  0
 27  2  1  0  0  0  0
 27  9  1  0  0  0  0
 29 28  1  0  0  0  0
 31 33  1  0  0  0  0
 31 32  1  0  0  0  0
 32 29  1  0  0  0  0
 32 34  1  0  0  0  0
 33 30  1  0  0  0  0
 34 30  1  0  0  0  0
M  END
>  <MODEL>
4

>  <REMARK>
 VINA RESULT:      -7.8      3.262      7.950
  Name = 
  3 active torsions:
  status: ('A' for Active; 'I' for Inactive)
    1  A    between atoms: C_17  and  C_28
    2  A    between atoms: C_28  and  O_29
    3  A    between atoms: O_29  and  C_32
                            x       y       z     vdW  Elec       q    Type
                         _______ _______ _______ _____ _____    ______ ____

>  <TORSDO>
F 3

$$$$
=
 OpenBabel11122412273D

 34 41  0  0  1  0  0  0  0  0999 V2000
  188.4290  177.8510  139.1240 C   0  0  2  0  0  3  0  0  0  0  0  0
  190.6420  177.7980  140.0890 O   0  0  0  0  0  0  0  0  0  0  0  0
  182.2070  178.6450  140.6750 C   0  0  2  0  0  3  0  0  0  0  0  0
  186.1260  178.6510  138.7100 C   0  0  1  0  0  3  0  0  0  0  0  0
  184.6970  178.6820  140.8860 C   0  0  2  0  0  3  0  0  0  0  0  0
  183.2800  178.6550  142.8130 O   0  0  0  0  0  1  0  0  0  0  0  0
  182.2220  177.2510  140.5610 O   0  0  0  0  0  1  0  0  0  0  0  0
  183.5660  179.2160  138.5420 C   0  0  1  0  0  3  0  0  0  0  0  0
  188.9170  176.9230  141.5050 C   0  0  2  0  0  3  0  0  0  0  0  0
  189.1470  176.5390  144.4910 C   0  0  0  0  0  2  0  0  0  0  0  0
  185.8550  179.2750  141.5670 N   0  0  0  0  0  2  0  0  0  0  0  0
  184.3890  180.2510  139.0360 O   0  0  0  0  0  0  0  0  0  0  0  0
  188.0080  178.0430  142.0870 C   0  0  1  0  0  3  0  0  0  0  0  0
  191.1820  177.6210  141.3800 C   0  0  0  0  0  2  0  0  0  0  0  0
  184.7810  178.9420  139.3700 C   0  0  2  0  0  0  0  0  0  0  0  0
  182.2240  179.2890  139.2900 C   0  0  0  0  0  2  0  0  0  0  0  0
  190.2690  177.2060  143.7010 C   0  0  2  0  0  3  0  0  0  0  0  0
  187.0440  177.9770  139.7290 C   0  0  2  0  0  3  0  0  0  0  0  0
  183.3840  179.1430  141.5100 C   0  0  2  0  0  3  0  0  0  0  0  0
  187.1440  178.7720  141.0340 C   0  0  1  0  0  3  0  0  0  0  0  0
  187.2390  177.8200  136.9260 C   0  0  0  0  0  2  0  0  0  0  0  0
  187.9220  177.4420  144.5320 C   0  0  0  0  0  2  0  0  0  0  0  0
  185.9930  177.8100  137.5900 O   0  0  0  0  0  0  0  0  0  0  0  0
  187.1670  177.4380  143.2090 C   0  0  0  0  0  2  0  0  0  0  0  0
  190.2380  176.7880  142.2240 C   0  0  1  0  0  3  0  0  0  0  0  0
  188.3240  177.1370  137.7770 C   0  0  0  0  0  2  0  0  0  0  0  0
  189.4020  177.1370  140.0680 C   0  0  1  0  0  3  0  0  0  0  0  0
  191.6070  176.8220  144.3140 C   0  0  0  0  0  2  0  0  0  0  0  0
  191.7620  177.4520  145.5510 O   0  0  0  0  0  0  0  0  0  0  0  0
  193.2650  175.6560  147.5040 N   0  0  0  0  0  2  0  0  0  0  0  0
  191.2530  177.3010  148.1250 S   0  0  0  0  0  0  0  0  0  0  0  0
  191.2740  176.5340  146.4830 C   0  0  2  0  0  3  0  0  0  0  0  0
  192.6050  176.2160  148.6700 C   0  0  0  0  0  2  0  0  0  0  0  0
  192.2080  175.3460  146.5590 C   0  0  0  0  0  2  0  0  0  0  0  0
  1 26  1  6  0  0  0
  1 18  1  0  0  0  0
  1 27  1  0  0  0  0
  2 14  1  0  0  0  0
  3  7  1  6  0  0  0
  3 19  1  0  0  0  0
  4 23  1  6  0  0  0
  4 15  1  0  0  0  0
  4 18  1  0  0  0  0
  5 19  1  0  0  0  0
  5 11  1  1  0  0  0
  8 12  1  0  0  0  0
  8 16  1  1  0  0  0
  8 15  1  0  0  0  0
  9 13  1  0  0  0  0
  9 25  1  0  0  0  0
 10 22  1  0  0  0  0
 12 15  1  0  0  0  0
 13 24  1  0  0  0  0
 14 25  1  0  0  0  0
 15  5  1  0  0  0  0
 16  3  1  0  0  0  0
 17 28  1  0  0  0  0
 17 10  1  0  0  0  0
 18 20  1  0  0  0  0
 19  6  1  0  0  0  0
 20 11  1  0  0  0  0
 20 13  1  0  0  0  0
 21 23  1  0  0  0  0
 21 26  1  0  0  0  0
 24 22  1  0  0  0  0
 25 17  1  0  0  0  0
 27  2  1  0  0  0  0
 27  9  1  0  0  0  0
 28 29  1  0  0  0  0
 29 32  1  0  0  0  0
 30 33  1  0  0  0  0
 31 33  1  0  0  0  0
 32 34  1  0  0  0  0
 32 31  1  0  0  0  0
 34 30  1  0  0  0  0
M  END
>  <MODEL>
5

>  <REMARK>
 VINA RESULT:      -7.7      3.276      8.297
  Name = 
  3 active torsions:
  status: ('A' for Active; 'I' for Inactive)
    1  A    between atoms: C_17  and  C_28
    2  A    between atoms: C_28  and  O_29
    3  A    between atoms: O_29  and  C_32
                            x       y       z     vdW  Elec       q    Type
                         _______ _______ _______ _____ _____    ______ ____

>  <TORSDO>
F 3

$$$$
=
 OpenBabel11122412273D

 34 41  0  0  1  0  0  0  0  0999 V2000
  190.9870  176.8870  138.7690 C   0  0  2  0  0  3  0  0  0  0  0  0
  192.1490  177.4960  140.7970 O   0  0  0  0  0  0  0  0  0  0  0  0
  185.1590  177.0500  135.9850 C   0  0  2  0  0  3  0  0  0  0  0  0
  189.4580  177.1290  136.8420 C   0  0  1  0  0  3  0  0  0  0  0  0
  187.0030  177.5660  137.5910 C   0  0  2  0  0  3  0  0  0  0  0  0
  184.7060  177.8770  138.1840 O   0  0  0  0  0  1  0  0  0  0  0  0
  185.1690  175.7090  136.3810 O   0  0  0  0  0  1  0  0  0  0  0  0
  187.5630  177.1800  135.0230 C   0  0  1  0  0  3  0  0  0  0  0  0
  189.8760  176.8050  141.1200 C   0  0  2  0  0  3  0  0  0  0  0  0
  188.2200  177.3720  143.5810 C   0  0  0  0  0  2  0  0  0  0  0  0
  187.5360  178.5200  138.5720 N   0  0  0  0  0  2  0  0  0  0  0  0
  187.9670  178.4380  135.5200 O   0  0  0  0  0  0  0  0  0  0  0  0
  188.8600  177.8780  140.6360 C   0  0  1  0  0  3  0  0  0  0  0  0
  191.7810  177.8040  142.1240 C   0  0  0  0  0  2  0  0  0  0  0  0
  188.0060  177.3730  136.4380 C   0  0  2  0  0  0  0  0  0  0  0  0
  186.0490  177.2460  134.7590 C   0  0  0  0  0  2  0  0  0  0  0  0
  189.6240  177.9520  143.4340 C   0  0  2  0  0  3  0  0  0  0  0  0
  189.5290  176.9530  138.3580 C   0  0  2  0  0  3  0  0  0  0  0  0
  185.6080  177.9650  137.1220 C   0  0  2  0  0  3  0  0  0  0  0  0
  188.8550  178.1050  139.1070 C   0  0  1  0  0  3  0  0  0  0  0  0
  191.3830  176.0040  136.4640 C   0  0  0  0  0  2  0  0  0  0  0  0
  187.2720  178.0270  142.5860 C   0  0  0  0  0  2  0  0  0  0  0  0
  189.9910  175.9830  136.2240 O   0  0  0  0  0  0  0  0  0  0  0  0
  187.4790  177.5030  141.1700 C   0  0  0  0  0  2  0  0  0  0  0  0
  190.4760  177.1140  142.4710 C   0  0  1  0  0  3  0  0  0  0  0  0
  191.6880  175.7970  137.9590 C   0  0  0  0  0  2  0  0  0  0  0  0
  191.1460  176.6600  140.2760 C   0  0  1  0  0  3  0  0  0  0  0  0
  190.2890  177.9980  144.8000 C   0  0  0  0  0  2  0  0  0  0  0  0
  189.4240  178.5740  145.7330 O   0  0  0  0  0  0  0  0  0  0  0  0
  189.4300  178.2530  148.7650 N   0  0  0  0  0  2  0  0  0  0  0  0
  187.3300  177.8700  147.1570 S   0  0  0  0  0  0  0  0  0  0  0  0
  188.9890  177.5080  146.5230 C   0  0  2  0  0  3  0  0  0  0  0  0
  187.9930  178.0550  148.8380 C   0  0  0  0  0  2  0  0  0  0  0  0
  189.9010  177.3610  147.7200 C   0  0  0  0  0  2  0  0  0  0  0  0
  1 26  1  6  0  0  0
  1 27  1  0  0  0  0
  2 14  1  0  0  0  0
  3  7  1  1  0  0  0
  3 19  1  0  0  0  0
  4 23  1  6  0  0  0
  4 18  1  0  0  0  0
  5 11  1  1  0  0  0
  8 16  1  1  0  0  0
  8 12  1  0  0  0  0
  8 15  1  0  0  0  0
  9 25  1  0  0  0  0
 11 20  1  0  0  0  0
 12 15  1  0  0  0  0
 13  9  1  0  0  0  0
 13 24  1  0  0  0  0
 14 25  1  0  0  0  0
 15  4  1  0  0  0  0
 15  5  1  0  0  0  0
 16  3  1  0  0  0  0
 17 10  1  0  0  0  0
 17 28  1  0  0  0  0
 18  1  1  0  0  0  0
 18 20  1  0  0  0  0
 19  5  1  0  0  0  0
 19  6  1  0  0  0  0
 20 13  1  0  0  0  0
 21 26  1  0  0  0  0
 22 10  1  0  0  0  0
 23 21  1  0  0  0  0
 24 22  1  0  0  0  0
 25 17  1  0  0  0  0
 27  2  1  0  0  0  0
 27  9  1  0  0  0  0
 28 29  1  0  0  0  0
 29 32  1  0  0  0  0
 30 33  1  0  0  0  0
 31 33  1  0  0  0  0
 32 31  1  0  0  0  0
 32 34  1  0  0  0  0
 34 30  1  0  0  0  0
M  END
>  <MODEL>
6

>  <REMARK>
 VINA RESULT:      -7.5      4.225      7.875
  Name = 
  3 active torsions:
  status: ('A' for Active; 'I' for Inactive)
    1  A    between atoms: C_17  and  C_28
    2  A    between atoms: C_28  and  O_29
    3  A    between atoms: O_29  and  C_32
                            x       y       z     vdW  Elec       q    Type
                         _______ _______ _______ _____ _____    ______ ____

>  <TORSDO>
F 3

$$$$
=
 OpenBabel11122412273D

 34 41  0  0  1  0  0  0  0  0999 V2000
  186.1180  178.1050  143.9360 C   0  0  2  0  0  3  0  0  0  0  0  0
  183.8980  179.0460  144.0840 O   0  0  0  0  0  0  0  0  0  0  0  0
  190.9480  177.0630  139.7740 C   0  0  2  0  0  3  0  0  0  0  0  0
  188.5020  177.9440  143.3040 C   0  0  1  0  0  3  0  0  0  0  0  0
  188.8350  178.0010  140.7230 C   0  0  2  0  0  3  0  0  0  0  0  0
  189.2310  177.9500  138.3640 O   0  0  0  0  0  1  0  0  0  0  0  0
  190.4040  175.7750  139.7970 O   0  0  0  0  0  1  0  0  0  0  0  0
  190.9050  177.5390  142.3230 C   0  0  1  0  0  3  0  0  0  0  0  0
  184.3980  177.9960  141.9870 C   0  0  2  0  0  3  0  0  0  0  0  0
  182.8770  178.4400  139.4160 C   0  0  0  0  0  2  0  0  0  0  0  0
  187.8610  179.0990  140.6820 N   0  0  0  0  0  2  0  0  0  0  0  0
  190.4620  178.8790  142.3210 O   0  0  0  0  0  0  0  0  0  0  0  0
  185.3790  178.8420  141.1250 C   0  0  1  0  0  3  0  0  0  0  0  0
  182.8740  179.3780  143.1730 C   0  0  0  0  0  2  0  0  0  0  0  0
  189.4690  177.9040  142.1230 C   0  0  2  0  0  0  0  0  0  0  0  0
  191.7450  177.3230  141.0510 C   0  0  0  0  0  2  0  0  0  0  0  0
  182.5410  179.2410  140.6700 C   0  0  2  0  0  3  0  0  0  0  0  0
  187.0700  177.8890  142.7760 C   0  0  2  0  0  3  0  0  0  0  0  0
  189.8590  178.1180  139.5990 C   0  0  2  0  0  3  0  0  0  0  0  0
  186.8030  178.9570  141.7110 C   0  0  1  0  0  3  0  0  0  0  0  0
  187.9450  177.1440  145.3450 C   0  0  0  0  0  2  0  0  0  0  0  0
  184.2400  178.8490  138.8770 C   0  0  0  0  0  2  0  0  0  0  0  0
  188.7040  176.8660  144.1870 O   0  0  0  0  0  0  0  0  0  0  0  0
  185.3790  178.2710  139.7080 C   0  0  0  0  0  2  0  0  0  0  0  0
  182.9740  178.4980  141.9410 C   0  0  1  0  0  3  0  0  0  0  0  0
  186.4370  177.0980  145.0410 C   0  0  0  0  0  2  0  0  0  0  0  0
  184.6520  178.0150  143.4970 C   0  0  1  0  0  3  0  0  0  0  0  0
  181.0420  179.4980  140.7110 C   0  0  0  0  0  2  0  0  0  0  0  0
  180.5860  179.8590  139.4420 O   0  0  0  0  0  0  0  0  0  0  0  0
  180.7630  181.8140  137.1090 N   0  0  0  0  0  2  0  0  0  0  0  0
  178.9390  181.8720  139.0620 S   0  0  0  0  0  0  0  0  0  0  0  0
  180.6010  181.2550  139.4410 C   0  0  2  0  0  3  0  0  0  0  0  0
  179.5100  182.4690  137.4430 C   0  0  0  0  0  2  0  0  0  0  0  0
  181.5190  181.7500  138.3460 C   0  0  0  0  0  2  0  0  0  0  0  0
  1 26  1  1  0  0  0
  3  7  1  1  0  0  0
  3 16  1  0  0  0  0
  4 23  1  1  0  0  0
  5 11  1  1  0  0  0
  5 15  1  0  0  0  0
  6 19  1  0  0  0  0
  8 16  1  6  0  0  0
  9 27  1  0  0  0  0
 10 17  1  0  0  0  0
 11 20  1  0  0  0  0
 12  8  1  0  0  0  0
 13 20  1  0  0  0  0
 13  9  1  0  0  0  0
 14  2  1  0  0  0  0
 15 12  1  0  0  0  0
 15  8  1  0  0  0  0
 15  4  1  0  0  0  0
 17 28  1  0  0  0  0
 17 25  1  0  0  0  0
 18  4  1  0  0  0  0
 18  1  1  0  0  0  0
 19  3  1  0  0  0  0
 19  5  1  0  0  0  0
 20 18  1  0  0  0  0
 22 10  1  0  0  0  0
 22 24  1  0  0  0  0
 23 21  1  0  0  0  0
 24 13  1  0  0  0  0
 25  9  1  0  0  0  0
 25 14  1  0  0  0  0
 26 21  1  0  0  0  0
 27  1  1  0  0  0  0
 27  2  1  0  0  0  0
 29 28  1  0  0  0  0
 30 33  1  0  0  0  0
 30 34  1  0  0  0  0
 31 32  1  0  0  0  0
 32 29  1  0  0  0  0
 33 31  1  0  0  0  0
 34 32  1  0  0  0  0
M  END
>  <MODEL>
7

>  <REMARK>
 VINA RESULT:      -7.5      2.114      3.944
  Name = 
  3 active torsions:
  status: ('A' for Active; 'I' for Inactive)
    1  A    between atoms: C_17  and  C_28
    2  A    between atoms: C_28  and  O_29
    3  A    between atoms: O_29  and  C_32
                            x       y       z     vdW  Elec       q    Type
                         _______ _______ _______ _____ _____    ______ ____

>  <TORSDO>
F 3

$$$$
=
 OpenBabel11122412273D

 34 41  0  0  1  0  0  0  0  0999 V2000
  189.1040  177.4830  144.1650 C   0  0  2  0  0  3  0  0  0  0  0  0
  187.3500  178.5250  145.4580 O   0  0  0  0  0  0  0  0  0  0  0  0
  191.0660  176.5090  138.0870 C   0  0  2  0  0  3  0  0  0  0  0  0
  190.8200  177.2460  142.4010 C   0  0  1  0  0  3  0  0  0  0  0  0
  189.8080  177.4810  140.0140 C   0  0  2  0  0  3  0  0  0  0  0  0
  188.9530  177.5890  137.7820 O   0  0  0  0  0  1  0  0  0  0  0  0
  190.5030  175.2520  138.3330 O   0  0  0  0  0  1  0  0  0  0  0  0
  192.3550  176.7920  140.3190 C   0  0  1  0  0  3  0  0  0  0  0  0
  186.6330  177.6120  143.3600 C   0  0  2  0  0  3  0  0  0  0  0  0
  184.0650  178.3280  141.9410 C   0  0  0  0  0  2  0  0  0  0  0  0
  189.0420  178.6280  140.5180 N   0  0  0  0  0  2  0  0  0  0  0  0
  192.0860  178.1490  140.5950 O   0  0  0  0  0  0  0  0  0  0  0  0
  187.1110  178.4680  142.1520 C   0  0  1  0  0  3  0  0  0  0  0  0
  186.0380  178.9780  145.2090 C   0  0  0  0  0  2  0  0  0  0  0  0
  191.0510  177.2460  140.8930 C   0  0  2  0  0  0  0  0  0  0  0  0
  192.4170  176.6300  138.7900 C   0  0  0  0  0  2  0  0  0  0  0  0
  184.4770  179.0490  143.2210 C   0  0  2  0  0  3  0  0  0  0  0  0
  189.3180  177.3060  142.6740 C   0  0  2  0  0  3  0  0  0  0  0  0
  190.1300  177.6300  138.5310 C   0  0  2  0  0  3  0  0  0  0  0  0
  188.6410  178.4640  141.9360 C   0  0  1  0  0  3  0  0  0  0  0  0
  191.3050  176.3240  144.4090 C   0  0  0  0  0  2  0  0  0  0  0  0
  184.9990  178.7060  140.7990 C   0  0  0  0  0  2  0  0  0  0  0  0
  191.3490  176.0950  143.0160 O   0  0  0  0  0  0  0  0  0  0  0  0
  186.3490  178.0080  140.9110 C   0  0  0  0  0  2  0  0  0  0  0  0
  185.4290  178.1900  144.0650 C   0  0  1  0  0  3  0  0  0  0  0  0
  189.8520  176.3800  144.9130 C   0  0  0  0  0  2  0  0  0  0  0  0
  187.6150  177.5030  144.5300 C   0  0  1  0  0  3  0  0  0  0  0  0
  183.2310  179.3790  144.0290 C   0  0  0  0  0  2  0  0  0  0  0  0
  182.1980  178.5030  143.6910 O   0  0  0  0  0  0  0  0  0  0  0  0
  180.1820  178.7270  141.4140 N   0  0  0  0  0  2  0  0  0  0  0  0
  179.5910  178.3510  143.9940 S   0  0  0  0  0  0  0  0  0  0  0  0
  181.0670  179.3140  143.5700 C   0  0  2  0  0  3  0  0  0  0  0  0
  179.0510  178.3810  142.2590 C   0  0  0  0  0  2  0  0  0  0  0  0
  180.9130  179.7550  142.1320 C   0  0  0  0  0  2  0  0  0  0  0  0
  1 27  1  0  0  0  0
  1 26  1  1  0  0  0
  3  7  1  1  0  0  0
  3 19  1  0  0  0  0
  3 16  1  0  0  0  0
  4 18  1  0  0  0  0
  4 23  1  6  0  0  0
  5 11  1  1  0  0  0
  5 15  1  0  0  0  0
  6 19  1  0  0  0  0
  8 16  1  6  0  0  0
  8 12  1  0  0  0  0
  8 15  1  0  0  0  0
  9 25  1  0  0  0  0
  9 27  1  0  0  0  0
 10 17  1  0  0  0  0
 11 20  1  0  0  0  0
 12 15  1  0  0  0  0
 13  9  1  0  0  0  0
 14  2  1  0  0  0  0
 15  4  1  0  0  0  0
 17 28  1  0  0  0  0
 17 25  1  0  0  0  0
 18  1  1  0  0  0  0
 19  5  1  0  0  0  0
 20 13  1  0  0  0  0
 20 18  1  0  0  0  0
 21 26  1  0  0  0  0
 22 24  1  0  0  0  0
 22 10  1  0  0  0  0
 23 21  1  0  0  0  0
 24 13  1  0  0  0  0
 25 14  1  0  0  0  0
 27  2  1  0  0  0  0
 29 28  1  0  0  0  0
 30 34  1  0  0  0  0
 30 33  1  0  0  0  0
 32 29  1  0  0  0  0
 32 31  1  0  0  0  0
 33 31  1  0  0  0  0
 34 32  1  0  0  0  0
M  END
>  <MODEL>
8

>  <REMARK>
 VINA RESULT:      -7.4      1.873      4.236
  Name = 
  3 active torsions:
  status: ('A' for Active; 'I' for Inactive)
    1  A    between atoms: C_17  and  C_28
    2  A    between atoms: C_28  and  O_29
    3  A    between atoms: O_29  and  C_32
                            x       y       z     vdW  Elec       q    Type
                         _______ _______ _______ _____ _____    ______ ____

>  <TORSDO>
F 3

$$$$
=
 OpenBabel11122412273D

 34 41  0  0  1  0  0  0  0  0999 V2000
  186.9170  178.0630  145.2870 C   0  0  2  0  0  3  0  0  0  0  0  0
  184.7390  178.9160  145.8910 O   0  0  0  0  0  0  0  0  0  0  0  0
  190.8320  177.2060  140.2190 C   0  0  2  0  0  3  0  0  0  0  0  0
  189.1270  177.9940  144.1800 C   0  0  1  0  0  3  0  0  0  0  0  0
  188.9230  178.0610  141.5860 C   0  0  2  0  0  3  0  0  0  0  0  0
  188.8300  178.0240  139.1950 O   0  0  0  0  0  1  0  0  0  0  0  0
  190.3540  175.8980  140.3430 O   0  0  0  0  0  1  0  0  0  0  0  0
  191.2920  177.6830  142.7260 C   0  0  1  0  0  3  0  0  0  0  0  0
  184.8410  177.8850  143.7290 C   0  0  2  0  0  3  0  0  0  0  0  0
  182.8110  178.2650  141.5260 C   0  0  0  0  0  2  0  0  0  0  0  0
  187.9190  179.1200  141.7520 N   0  0  0  0  0  2  0  0  0  0  0  0
  190.8070  179.0050  142.8250 O   0  0  0  0  0  0  0  0  0  0  0  0
  185.5910  178.7670  142.6900 C   0  0  1  0  0  3  0  0  0  0  0  0
  183.5390  179.2060  145.2100 C   0  0  0  0  0  2  0  0  0  0  0  0
  189.8320  177.9910  142.8270 C   0  0  2  0  0  0  0  0  0  0  0  0
  191.8620  177.4990  141.3090 C   0  0  0  0  0  2  0  0  0  0  0  0
  182.7070  179.0550  142.8270 C   0  0  2  0  0  3  0  0  0  0  0  0
  187.6190  177.8830  143.9550 C   0  0  2  0  0  3  0  0  0  0  0  0
  189.6900  178.2180  140.2770 C   0  0  2  0  0  3  0  0  0  0  0  0
  187.1000  178.9380  142.9750 C   0  0  1  0  0  3  0  0  0  0  0  0
  189.0290  177.1760  146.2860 C   0  0  0  0  0  2  0  0  0  0  0  0
  184.0190  178.7270  140.7230 C   0  0  0  0  0  2  0  0  0  0  0  0
  189.5460  176.9260  144.9950 O   0  0  0  0  0  0  0  0  0  0  0  0
  185.3250  178.1950  141.3000 C   0  0  0  0  0  2  0  0  0  0  0  0
  183.4190  178.3300  143.9780 C   0  0  1  0  0  3  0  0  0  0  0  0
  187.4940  177.0710  146.2960 C   0  0  0  0  0  2  0  0  0  0  0  0
  185.3970  177.9150  145.1550 C   0  0  1  0  0  3  0  0  0  0  0  0
  181.2400  179.2520  143.1750 C   0  0  0  0  0  2  0  0  0  0  0  0
  180.8080  180.5020  142.7280 O   0  0  0  0  0  0  0  0  0  0  0  0
  179.5470  180.0840  139.9840 N   0  0  0  0  0  2  0  0  0  0  0  0
  179.1580  178.5440  142.1340 S   0  0  0  0  0  0  0  0  0  0  0  0
  179.4700  180.3130  142.3750 C   0  0  2  0  0  3  0  0  0  0  0  0
  178.9630  178.8040  140.3460 C   0  0  0  0  0  2  0  0  0  0  0  0
  179.1950  180.9980  141.0550 C   0  0  0  0  0  2  0  0  0  0  0  0
  1 26  1  1  0  0  0
  3 19  1  0  0  0  0
  3  7  1  1  0  0  0
  3 16  1  0  0  0  0
  4 23  1  1  0  0  0
  5 11  1  1  0  0  0
  5 15  1  0  0  0  0
  6 19  1  0  0  0  0
  8 16  1  6  0  0  0
  8 12  1  0  0  0  0
  8 15  1  0  0  0  0
  9 25  1  0  0  0  0
  9 27  1  0  0  0  0
 10 17  1  0  0  0  0
 11 20  1  0  0  0  0
 12 15  1  0  0  0  0
 13 20  1  0  0  0  0
 13  9  1  0  0  0  0
 14  2  1  0  0  0  0
 15  4  1  0  0  0  0
 17 28  1  0  0  0  0
 17 25  1  0  0  0  0
 18  4  1  0  0  0  0
 18  1  1  0  0  0  0
 19  5  1  0  0  0  0
 20 18  1  0  0  0  0
 21 26  1  0  0  0  0
 22 24  1  0  0  0  0
 22 10  1  0  0  0  0
 23 21  1  0  0  0  0
 24 13  1  0  0  0  0
 25 14  1  0  0  0  0
 27  1  1  0  0  0  0
 27  2  1  0  0  0  0
 29 28  1  0  0  0  0
 30 33  1  0  0  0  0
 30 34  1  0  0  0  0
 31 32  1  0  0  0  0
 32 29  1  0  0  0  0
 33 31  1  0  0  0  0
 34 32  1  0  0  0  0
M  END
>  <MODEL>
9

>  <REMARK>
 VINA RESULT:      -7.4      1.498      3.662
  Name = 
  3 active torsions:
  status: ('A' for Active; 'I' for Inactive)
    1  A    between atoms: C_17  and  C_28
    2  A    between atoms: C_28  and  O_29
    3  A    between atoms: O_29  and  C_32
                            x       y       z     vdW  Elec       q    Type
                         _______ _______ _______ _____ _____    ______ ____

>  <TORSDO>
F 3

$$$$
