=
 OpenBabel11122410503D

 32 37  0  0  1  0  0  0  0  0999 V2000
  190.5440  177.3680  139.6470 C   0  0  1  0  0  3  0  0  0  0  0  0
  187.3350  178.2190  136.9490 O   0  0  0  0  0  0  0  0  0  0  0  0
  188.1020  177.6460  135.9190 C   0  0  0  0  0  2  0  0  0  0  0  0
  192.7870  176.8320  138.4910 C   0  0  2  0  0  3  0  0  0  0  0  0
  193.3350  175.9830  137.3540 C   0  0  2  0  0  3  0  0  0  0  0  0
  190.5070  176.9630  142.1750 C   0  0  2  0  0  3  0  0  0  0  0  0
  188.5700  177.5940  140.7980 O   0  0  0  0  0  0  0  0  0  0  0  0
  193.2640  175.5320  135.0920 C   0  0  1  0  0  3  0  0  0  0  0  0
  188.1590  178.2770  138.0870 C   0  0  0  0  0  2  0  0  0  0  0  0
  189.1920  176.8280  139.8620 N   0  0  1  0  0  0  0  0  0  0  0  0
  188.4100  176.8530  138.6170 C   0  0  2  0  0  3  0  0  0  0  0  0
  190.5640  176.3680  137.3630 C   0  0  2  0  0  3  0  0  0  0  0  0
  194.6750  175.8430  135.5920 C   0  0  0  0  0  2  0  0  0  0  0  0
  188.9730  177.0730  142.0470 C   0  0  2  0  0  3  0  0  0  0  0  0
  194.6140  176.3380  136.9190 O   0  0  0  0  0  0  0  0  0  0  0  0
  188.3380  176.1570  136.2030 C   0  0  0  0  0  2  0  0  0  0  0  0
  189.0850  175.9890  137.5300 C   0  0  2  0  0  3  0  0  0  0  0  0
  191.2070  175.5150  136.4380 O   0  0  0  0  0  0  0  0  0  0  0  0
  191.2380  177.6210  140.9970 C   0  0  0  0  0  2  0  0  0  0  0  0
  193.5450  176.5890  139.6380 O   0  0  0  0  0  1  0  0  0  0  0  0
  193.0840  174.1450  135.0550 O   0  0  0  0  0  1  0  0  0  0  0  0
  191.3140  176.4140  138.7250 C   0  0  2  0  0  3  0  0  0  0  0  0
  192.4330  176.1450  136.1740 C   0  0  1  0  0  3  0  0  0  0  0  0
  186.9610  177.6440  143.3850 C   0  0  0  0  0  2  0  0  0  0  0  0
  188.4290  177.9450  143.1620 C   0  0  1  0  0  3  0  0  0  0  0  0
  188.0020  177.0620  144.3170 C   0  0  1  0  0  3  0  0  0  0  0  0
  188.0480  177.8700  145.5980 C   0  0  0  0  0  2  0  0  0  0  0  0
  188.9530  177.2110  146.5780 C   0  0  0  0  0  0  0  0  0  0  0  0
  190.3060  177.0810  146.2970 O   0  0  0  0  0  0  0  0  0  0  0  0
  188.4860  176.7410  147.6490 O   0  0  0  0  0  1  0  0  0  0  0  0
  191.2130  175.4470  143.5200 O   0  0  0  0  0  1  0  0  0  0  0  0
  190.8710  175.6190  142.2610 O   0  0  0  0  0  0  0  0  0  0  0  0
  1 10  1  0  0  0  0
  1 19  1  1  0  0  0
  2  9  1  0  0  0  0
  3 16  1  0  0  0  0
  3  2  1  0  0  0  0
  4 22  1  0  0  0  0
  4 20  1  1  0  0  0
  5 15  1  6  0  0  0
  5  4  1  0  0  0  0
  6 32  1  6  0  0  0
  8 21  1  1  0  0  0
  8 13  1  0  0  0  0
  8 23  1  0  0  0  0
 10  7  1  1  0  0  0
 11  9  1  6  0  0  0
 11 10  1  0  0  0  0
 12 18  1  6  0  0  0
 12 17  1  0  0  0  0
 12 22  1  0  0  0  0
 13 15  1  0  0  0  0
 14  7  1  6  0  0  0
 14  6  1  0  0  0  0
 14 25  1  0  0  0  0
 17 16  1  6  0  0  0
 17 11  1  0  0  0  0
 19  6  1  0  0  0  0
 22  1  1  0  0  0  0
 23 18  1  0  0  0  0
 23  5  1  0  0  0  0
 24 26  1  0  0  0  0
 25 24  1  0  0  0  0
 25 26  1  0  0  0  0
 26 27  1  0  0  0  0
 27 28  1  0  0  0  0
 28 30  1  0  0  0  0
 29 28  2  0  0  0  0
 32 31  1  0  0  0  0
M  END
>  <MODEL>
1

>  <REMARK>
 VINA RESULT:      -8.0      0.000      0.000
  Name = 
  4 active torsions:
  status: ('A' for Active; 'I' for Inactive)
    1  A    between atoms: C_7  and  O_19
    2  A    between atoms: C_10  and  C_17
    3  A    between atoms: C_20  and  C_29
    4  A    between atoms: C_29  and  C_30
                            x       y       z     vdW  Elec       q    Type
                         _______ _______ _______ _____ _____    ______ ____

>  <TORSDO>
F 4

$$$$
=
 OpenBabel11122410503D

 32 37  0  0  1  0  0  0  0  0999 V2000
  188.9310  178.0080  139.2680 C   0  0  1  0  0  3  0  0  0  0  0  0
  186.8060  178.2780  135.5660 O   0  0  0  0  0  0  0  0  0  0  0  0
  187.8240  177.5110  134.9720 C   0  0  0  0  0  2  0  0  0  0  0  0
  191.3880  177.2580  139.0280 C   0  0  2  0  0  3  0  0  0  0  0  0
  192.2160  176.1980  138.3170 C   0  0  2  0  0  3  0  0  0  0  0  0
  188.0680  178.1260  141.6760 C   0  0  2  0  0  3  0  0  0  0  0  0
  186.7120  178.4550  139.6510 O   0  0  0  0  0  0  0  0  0  0  0  0
  192.8390  175.2950  136.2870 C   0  0  1  0  0  3  0  0  0  0  0  0
  187.2270  178.5700  136.8750 C   0  0  0  0  0  2  0  0  0  0  0  0
  187.5510  177.5170  139.1340 N   0  0  1  0  0  0  0  0  0  0  0  0
  187.2080  177.2850  137.7230 C   0  0  2  0  0  3  0  0  0  0  0  0
  189.6140  176.5640  137.3530 C   0  0  2  0  0  3  0  0  0  0  0  0
  194.0350  175.7080  137.1470 C   0  0  0  0  0  2  0  0  0  0  0  0
  186.6640  178.2010  141.0380 C   0  0  2  0  0  3  0  0  0  0  0  0
  193.5860  176.4620  138.2590 O   0  0  0  0  0  0  0  0  0  0  0  0
  187.8650  176.1130  135.6000 C   0  0  0  0  0  2  0  0  0  0  0  0
  188.1390  176.2210  137.1030 C   0  0  2  0  0  3  0  0  0  0  0  0
  190.4650  175.5440  136.8710 O   0  0  0  0  0  0  0  0  0  0  0  0
  189.1750  178.5330  140.6940 C   0  0  0  0  0  2  0  0  0  0  0  0
  191.7250  177.2570  140.3830 O   0  0  0  0  0  1  0  0  0  0  0  0
  192.5950  173.9300  136.4630 O   0  0  0  0  0  1  0  0  0  0  0  0
  189.8950  176.8900  138.8480 C   0  0  2  0  0  3  0  0  0  0  0  0
  191.7470  176.1130  136.9010 C   0  0  1  0  0  3  0  0  0  0  0  0
  184.3750  179.0750  141.4410 C   0  0  0  0  0  2  0  0  0  0  0  0
  185.8490  179.2790  141.7260 C   0  0  1  0  0  3  0  0  0  0  0  0
  184.9560  178.6350  142.7680 C   0  0  1  0  0  3  0  0  0  0  0  0
  184.6240  179.6610  143.8340 C   0  0  0  0  0  2  0  0  0  0  0  0
  183.6870  179.0720  144.8270 C   0  0  0  0  0  0  0  0  0  0  0  0
  184.0930  178.8840  146.1410 O   0  0  0  0  0  1  0  0  0  0  0  0
  182.5350  178.7100  144.4680 O   0  0  0  0  0  0  0  0  0  0  0  0
  189.4510  176.9040  142.7710 O   0  0  0  0  0  1  0  0  0  0  0  0
  188.3020  176.8290  142.1340 O   0  0  0  0  0  0  0  0  0  0  0  0
  1 19  1  1  0  0  0
  2  9  1  0  0  0  0
  3  2  1  0  0  0  0
  3 16  1  0  0  0  0
  4 20  1  1  0  0  0
  5 15  1  6  0  0  0
  5  4  1  0  0  0  0
  6 32  1  6  0  0  0
  8 21  1  1  0  0  0
  8 23  1  0  0  0  0
  8 13  1  0  0  0  0
 10  1  1  0  0  0  0
 10  7  1  6  0  0  0
 11  9  1  6  0  0  0
 11 10  1  0  0  0  0
 12 18  1  1  0  0  0
 12 22  1  0  0  0  0
 13 15  1  0  0  0  0
 14  7  1  6  0  0  0
 14  6  1  0  0  0  0
 14 25  1  0  0  0  0
 17 16  1  6  0  0  0
 17 12  1  0  0  0  0
 17 11  1  0  0  0  0
 18 23  1  0  0  0  0
 19  6  1  0  0  0  0
 22  4  1  0  0  0  0
 22  1  1  0  0  0  0
 23  5  1  0  0  0  0
 24 25  1  0  0  0  0
 24 26  1  0  0  0  0
 25 26  1  0  0  0  0
 26 27  1  0  0  0  0
 27 28  1  0  0  0  0
 28 29  1  0  0  0  0
 30 28  2  0  0  0  0
 32 31  1  0  0  0  0
M  END
>  <MODEL>
2

>  <REMARK>
 VINA RESULT:      -7.9      2.362      2.854
  Name = 
  4 active torsions:
  status: ('A' for Active; 'I' for Inactive)
    1  A    between atoms: C_7  and  O_19
    2  A    between atoms: C_10  and  C_17
    3  A    between atoms: C_20  and  C_29
    4  A    between atoms: C_29  and  C_30
                            x       y       z     vdW  Elec       q    Type
                         _______ _______ _______ _____ _____    ______ ____

>  <TORSDO>
F 4

$$$$
=
 OpenBabel11122410503D

 32 37  0  0  1  0  0  0  0  0999 V2000
  189.2430  177.9230  140.6720 C   0  0  1  0  0  3  0  0  0  0  0  0
  191.9880  177.6690  143.9440 O   0  0  0  0  0  0  0  0  0  0  0  0
  190.8970  177.8210  144.8180 C   0  0  0  0  0  2  0  0  0  0  0  0
  186.9290  178.8740  141.3010 C   0  0  2  0  0  3  0  0  0  0  0  0
  185.8560  178.7110  142.3670 C   0  0  2  0  0  3  0  0  0  0  0  0
  189.4110  176.9670  138.3030 C   0  0  2  0  0  3  0  0  0  0  0  0
  191.1660  176.8510  140.0210 O   0  0  0  0  0  0  0  0  0  0  0  0
  185.3540  178.8380  144.6160 C   0  0  1  0  0  3  0  0  0  0  0  0
  191.4940  177.8590  142.6400 C   0  0  0  0  0  2  0  0  0  0  0  0
  190.1050  176.7470  140.8660 N   0  0  1  0  0  0  0  0  0  0  0  0
  190.5930  176.6730  142.2510 C   0  0  2  0  0  3  0  0  0  0  0  0
  188.3670  177.6440  142.9890 C   0  0  2  0  0  3  0  0  0  0  0  0
  184.4200  179.6830  143.7490 C   0  0  0  0  0  2  0  0  0  0  0  0
  190.7270  176.3220  138.7890 C   0  0  2  0  0  3  0  0  0  0  0  0
  184.9240  179.7500  142.4270 O   0  0  0  0  0  0  0  0  0  0  0  0
  189.9390  176.6320  144.6760 C   0  0  0  0  0  2  0  0  0  0  0  0
  189.4140  176.5490  143.2400 C   0  0  2  0  0  3  0  0  0  0  0  0
  187.2430  177.4760  143.8290 O   0  0  0  0  0  0  0  0  0  0  0  0
  188.9930  178.1600  139.1720 C   0  0  0  0  0  2  0  0  0  0  0  0
  186.3300  178.7770  140.0430 O   0  0  0  0  0  1  0  0  0  0  0  0
  184.7510  177.6020  144.8720 O   0  0  0  0  0  1  0  0  0  0  0  0
  187.9600  177.7340  141.4910 C   0  0  2  0  0  3  0  0  0  0  0  0
  186.5270  178.6760  143.7020 C   0  0  1  0  0  3  0  0  0  0  0  0
  193.1720  176.4970  138.3940 C   0  0  0  0  0  2  0  0  0  0  0  0
  191.8050  176.5110  137.7390 C   0  0  1  0  0  3  0  0  0  0  0  0
  192.6630  175.2620  137.6810 C   0  0  1  0  0  3  0  0  0  0  0  0
  193.3010  175.1670  136.3090 C   0  0  0  0  0  2  0  0  0  0  0  0
  194.7530  174.8740  136.4470 C   0  0  0  0  0  0  0  0  0  0  0  0
  195.6910  175.8620  136.1810 O   0  0  0  0  0  0  0  0  0  0  0  0
  195.1330  173.7190  136.7730 O   0  0  0  0  0  1  0  0  0  0  0  0
  187.4320  176.5490  137.5880 O   0  0  0  0  0  1  0  0  0  0  0  0
  188.3970  176.0090  138.3020 O   0  0  0  0  0  0  0  0  0  0  0  0
  1 19  1  6  0  0  0
  1 10  1  0  0  0  0
  1 22  1  0  0  0  0
  2  3  1  0  0  0  0
  4 20  1  6  0  0  0
  4 22  1  0  0  0  0
  4  5  1  0  0  0  0
  5 15  1  1  0  0  0
  5 23  1  0  0  0  0
  6 32  1  1  0  0  0
  6 14  1  0  0  0  0
  6 19  1  0  0  0  0
  8 21  1  6  0  0  0
  9  2  1  0  0  0  0
 10  7  1  6  0  0  0
 10 11  1  0  0  0  0
 11  9  1  1  0  0  0
 11 17  1  0  0  0  0
 12 17  1  0  0  0  0
 12 18  1  1  0  0  0
 13  8  1  0  0  0  0
 14  7  1  1  0  0  0
 15 13  1  0  0  0  0
 16  3  1  0  0  0  0
 17 16  1  1  0  0  0
 22 12  1  0  0  0  0
 23 18  1  0  0  0  0
 23  8  1  0  0  0  0
 25 24  1  0  0  0  0
 25 14  1  0  0  0  0
 26 25  1  0  0  0  0
 26 24  1  0  0  0  0
 27 28  1  0  0  0  0
 27 26  1  0  0  0  0
 28 30  1  0  0  0  0
 29 28  2  0  0  0  0
 31 32  1  0  0  0  0
M  END
>  <MODEL>
3

>  <REMARK>
 VINA RESULT:      -7.6      2.169      8.425
  Name = 
  4 active torsions:
  status: ('A' for Active; 'I' for Inactive)
    1  A    between atoms: C_7  and  O_19
    2  A    between atoms: C_10  and  C_17
    3  A    between atoms: C_20  and  C_29
    4  A    between atoms: C_29  and  C_30
                            x       y       z     vdW  Elec       q    Type
                         _______ _______ _______ _____ _____    ______ ____

>  <TORSDO>
F 4

$$$$
=
 OpenBabel11122410503D

 32 37  0  0  1  0  0  0  0  0999 V2000
  186.7450  177.6570  143.8270 C   0  0  1  0  0  3  0  0  0  0  0  0
  189.8610  176.6920  141.0590 O   0  0  0  0  0  0  0  0  0  0  0  0
  189.0200  177.1310  140.0220 C   0  0  0  0  0  2  0  0  0  0  0  0
  184.4270  177.9830  142.7430 C   0  0  2  0  0  3  0  0  0  0  0  0
  183.7860  178.6960  141.5610 C   0  0  2  0  0  3  0  0  0  0  0  0
  186.8800  178.3010  146.3020 C   0  0  2  0  0  3  0  0  0  0  0  0
  188.7780  177.6260  144.8920 O   0  0  0  0  0  0  0  0  0  0  0  0
  183.7310  178.9330  139.2660 C   0  0  1  0  0  3  0  0  0  0  0  0
  189.0950  176.7070  142.2390 C   0  0  0  0  0  2  0  0  0  0  0  0
  188.0780  178.2730  143.9210 N   0  0  1  0  0  0  0  0  0  0  0  0
  188.8010  178.1630  142.6460 C   0  0  2  0  0  3  0  0  0  0  0  0
  186.5710  178.4330  141.4640 C   0  0  2  0  0  3  0  0  0  0  0  0
  182.3600  178.6110  139.8650 C   0  0  0  0  0  2  0  0  0  0  0  0
  188.4110  178.2450  146.1060 C   0  0  2  0  0  3  0  0  0  0  0  0
  182.5070  178.2470  141.2260 O   0  0  0  0  0  0  0  0  0  0  0  0
  188.7270  178.6280  140.1780 C   0  0  0  0  0  2  0  0  0  0  0  0
  188.0360  178.8900  141.5200 C   0  0  2  0  0  3  0  0  0  0  0  0
  185.8450  179.1660  140.4980 O   0  0  0  0  0  0  0  0  0  0  0  0
  186.1270  177.5040  145.2280 C   0  0  0  0  0  2  0  0  0  0  0  0
  183.7130  178.3010  143.8990 O   0  0  0  0  0  1  0  0  0  0  0  0
  183.8420  180.3160  139.0910 O   0  0  0  0  0  1  0  0  0  0  0  0
  185.8870  178.4840  142.8610 C   0  0  2  0  0  3  0  0  0  0  0  0
  184.6400  178.4610  140.3570 C   0  0  1  0  0  3  0  0  0  0  0  0
  189.2650  176.0530  146.9000 C   0  0  0  0  0  2  0  0  0  0  0  0
  189.0460  177.5070  147.2680 C   0  0  1  0  0  3  0  0  0  0  0  0
  190.4230  177.0260  146.8540 C   0  0  1  0  0  3  0  0  0  0  0  0
  191.2790  176.8570  148.0930 C   0  0  0  0  0  2  0  0  0  0  0  0
  192.4310  175.9640  147.7930 C   0  0  0  0  0  0  0  0  0  0  0  0
  192.4680  175.2530  146.6020 O   0  0  0  0  0  0  0  0  0  0  0  0
  193.3560  175.8260  148.6360 O   0  0  0  0  0  1  0  0  0  0  0  0
  185.6800  179.7470  147.3370 O   0  0  0  0  0  1  0  0  0  0  0  0
  186.4570  179.6300  146.2810 O   0  0  0  0  0  0  0  0  0  0  0  0
  1 10  1  0  0  0  0
  1 19  1  1  0  0  0
  2  9  1  0  0  0  0
  3 16  1  0  0  0  0
  3  2  1  0  0  0  0
  4 22  1  0  0  0  0
  4 20  1  1  0  0  0
  5 15  1  6  0  0  0
  5  4  1  0  0  0  0
  6 32  1  6  0  0  0
  8 21  1  1  0  0  0
  8 13  1  0  0  0  0
  8 23  1  0  0  0  0
 10  7  1  1  0  0  0
 11  9  1  6  0  0  0
 11 10  1  0  0  0  0
 12 18  1  6  0  0  0
 12 17  1  0  0  0  0
 12 22  1  0  0  0  0
 13 15  1  0  0  0  0
 14  7  1  6  0  0  0
 14  6  1  0  0  0  0
 14 25  1  0  0  0  0
 17 16  1  6  0  0  0
 17 11  1  0  0  0  0
 19  6  1  0  0  0  0
 22  1  1  0  0  0  0
 23 18  1  0  0  0  0
 23  5  1  0  0  0  0
 24 25  1  0  0  0  0
 26 24  1  0  0  0  0
 26 25  1  0  0  0  0
 26 27  1  0  0  0  0
 28 27  1  0  0  0  0
 28 30  1  0  0  0  0
 29 28  2  0  0  0  0
 32 31  1  0  0  0  0
M  END
>  <MODEL>
4

>  <REMARK>
 VINA RESULT:      -7.5      3.739      7.253
  Name = 
  4 active torsions:
  status: ('A' for Active; 'I' for Inactive)
    1  A    between atoms: C_7  and  O_19
    2  A    between atoms: C_10  and  C_17
    3  A    between atoms: C_20  and  C_29
    4  A    between atoms: C_29  and  C_30
                            x       y       z     vdW  Elec       q    Type
                         _______ _______ _______ _____ _____    ______ ____

>  <TORSDO>
F 4

$$$$
=
 OpenBabel11122410503D

 32 37  0  0  1  0  0  0  0  0999 V2000
  188.1800  177.3220  142.4730 C   0  0  1  0  0  3  0  0  0  0  0  0
  190.3360  176.7530  146.1240 O   0  0  0  0  0  0  0  0  0  0  0  0
  191.5290  176.8160  145.3820 C   0  0  0  0  0  2  0  0  0  0  0  0
  189.5750  176.9100  140.3420 C   0  0  2  0  0  3  0  0  0  0  0  0
  190.9330  177.2630  139.7560 C   0  0  2  0  0  3  0  0  0  0  0  0
  185.8630  178.3350  142.0690 C   0  0  2  0  0  3  0  0  0  0  0  0
  186.8910  177.9450  144.2680 O   0  0  0  0  0  0  0  0  0  0  0  0
  193.2230  177.1410  140.0140 C   0  0  1  0  0  3  0  0  0  0  0  0
  189.2790  176.7530  145.1960 C   0  0  0  0  0  2  0  0  0  0  0  0
  188.0390  178.2510  143.6050 N   0  0  1  0  0  0  0  0  0  0  0  0
  189.1780  178.1360  144.5270 C   0  0  2  0  0  3  0  0  0  0  0  0
  190.6470  177.6780  142.5090 C   0  0  2  0  0  3  0  0  0  0  0  0
  192.7440  176.5840  138.6710 C   0  0  0  0  0  2  0  0  0  0  0  0
  185.8620  178.6270  143.5850 C   0  0  2  0  0  3  0  0  0  0  0  0
  191.3320  176.4710  138.6770 O   0  0  0  0  0  0  0  0  0  0  0  0
  191.6800  178.2020  144.7440 C   0  0  0  0  0  2  0  0  0  0  0  0
  190.5000  178.4810  143.8090 C   0  0  2  0  0  3  0  0  0  0  0  0
  191.8090  178.0610  141.8010 O   0  0  0  0  0  0  0  0  0  0  0  0
  186.8580  177.2300  141.6900 C   0  0  0  0  0  2  0  0  0  0  0  0
  188.5880  177.2100  139.4020 O   0  0  0  0  0  1  0  0  0  0  0  0
  193.6290  178.4680  139.8430 O   0  0  0  0  0  1  0  0  0  0  0  0
  189.3740  177.7640  141.6180 C   0  0  2  0  0  3  0  0  0  0  0  0
  191.9650  177.0700  140.8200 C   0  0  1  0  0  3  0  0  0  0  0  0
  184.2860  179.0050  145.4660 C   0  0  0  0  0  2  0  0  0  0  0  0
  184.5180  178.2450  144.1760 C   0  0  1  0  0  3  0  0  0  0  0  0
  183.6190  179.4650  144.1880 C   0  0  1  0  0  3  0  0  0  0  0  0
  182.1730  179.0110  144.1760 C   0  0  0  0  0  2  0  0  0  0  0  0
  181.5410  179.3700  142.8780 C   0  0  0  0  0  0  0  0  0  0  0  0
  180.4750  180.2580  142.8450 O   0  0  0  0  0  1  0  0  0  0  0  0
  181.9520  178.8430  141.8110 O   0  0  0  0  0  0  0  0  0  0  0  0
  185.1370  179.7050  140.5850 O   0  0  0  0  0  1  0  0  0  0  0  0
  186.1730  179.5030  141.3710 O   0  0  0  0  0  0  0  0  0  0  0  0
  1 19  1  6  0  0  0
  1 10  1  0  0  0  0
  3  2  1  0  0  0  0
  4 20  1  6  0  0  0
  4 22  1  0  0  0  0
  5 15  1  6  0  0  0
  5  4  1  0  0  0  0
  5 23  1  0  0  0  0
  6 32  1  6  0  0  0
  6 14  1  0  0  0  0
  8 21  1  6  0  0  0
  8 23  1  0  0  0  0
  9  2  1  0  0  0  0
 10  7  1  1  0  0  0
 10 11  1  0  0  0  0
 11  9  1  6  0  0  0
 12 18  1  6  0  0  0
 12 17  1  0  0  0  0
 13 15  1  0  0  0  0
 13  8  1  0  0  0  0
 14 25  1  0  0  0  0
 14  7  1  1  0  0  0
 16  3  1  0  0  0  0
 17 11  1  0  0  0  0
 17 16  1  1  0  0  0
 19  6  1  0  0  0  0
 22  1  1  0  0  0  0
 22 12  1  0  0  0  0
 23 18  1  0  0  0  0
 25 26  1  0  0  0  0
 25 24  1  0  0  0  0
 26 24  1  0  0  0  0
 27 26  1  0  0  0  0
 28 27  1  0  0  0  0
 29 28  1  0  0  0  0
 30 28  2  0  0  0  0
 31 32  1  0  0  0  0
M  END
>  <MODEL>
5

>  <REMARK>
 VINA RESULT:      -7.4      3.248      6.236
  Name = 
  4 active torsions:
  status: ('A' for Active; 'I' for Inactive)
    1  A    between atoms: C_7  and  O_19
    2  A    between atoms: C_10  and  C_17
    3  A    between atoms: C_20  and  C_29
    4  A    between atoms: C_29  and  C_30
                            x       y       z     vdW  Elec       q    Type
                         _______ _______ _______ _____ _____    ______ ____

>  <TORSDO>
F 4

$$$$
=
 OpenBabel11122410503D

 32 37  0  0  1  0  0  0  0  0999 V2000
  187.1440  178.4770  144.9430 C   0  0  1  0  0  3  0  0  0  0  0  0
  189.0170  177.8790  141.1440 O   0  0  0  0  0  0  0  0  0  0  0  0
  190.1040  177.2920  141.8170 C   0  0  0  0  0  2  0  0  0  0  0  0
  188.7390  178.2580  146.9580 C   0  0  2  0  0  3  0  0  0  0  0  0
  189.8260  177.3330  147.4850 C   0  0  2  0  0  3  0  0  0  0  0  0
  184.6620  178.6620  145.5440 C   0  0  2  0  0  3  0  0  0  0  0  0
  185.5730  178.4690  143.2690 O   0  0  0  0  0  0  0  0  0  0  0  0
  191.8870  176.3750  147.0870 C   0  0  1  0  0  3  0  0  0  0  0  0
  188.1570  178.3950  142.1300 C   0  0  0  0  0  2  0  0  0  0  0  0
  186.5010  177.6860  143.8820 N   0  0  1  0  0  0  0  0  0  0  0  0
  187.4870  177.2350  142.8890 C   0  0  2  0  0  3  0  0  0  0  0  0
  189.1600  177.0190  144.7850 C   0  0  2  0  0  3  0  0  0  0  0  0
  191.8280  177.1280  148.4170 C   0  0  0  0  0  2  0  0  0  0  0  0
  184.4040  178.3610  144.0520 C   0  0  2  0  0  3  0  0  0  0  0  0
  190.6300  177.8810  148.4870 O   0  0  0  0  0  0  0  0  0  0  0  0
  189.6530  176.0120  142.5300 C   0  0  0  0  0  2  0  0  0  0  0  0
  188.5560  176.3380  143.5490 C   0  0  2  0  0  3  0  0  0  0  0  0
  190.0690  176.1620  145.4460 O   0  0  0  0  0  0  0  0  0  0  0  0
  186.0800  179.1920  145.7940 C   0  0  0  0  0  2  0  0  0  0  0  0
  187.8040  178.4750  147.9720 O   0  0  0  0  0  1  0  0  0  0  0  0
  191.6510  175.0160  147.3170 O   0  0  0  0  0  1  0  0  0  0  0  0
  188.0670  177.5570  145.7520 C   0  0  2  0  0  3  0  0  0  0  0  0
  190.7410  176.9960  146.3530 C   0  0  1  0  0  3  0  0  0  0  0  0
  183.0460  178.9800  142.0680 C   0  0  0  0  0  2  0  0  0  0  0  0
  183.3430  179.3030  143.5180 C   0  0  1  0  0  3  0  0  0  0  0  0
  182.1080  178.5030  143.1550 C   0  0  1  0  0  3  0  0  0  0  0  0
  180.8960  179.4120  143.2170 C   0  0  0  0  0  2  0  0  0  0  0  0
  179.6600  178.5970  143.3540 C   0  0  0  0  0  0  0  0  0  0  0  0
  178.9330  178.6280  144.5370 O   0  0  0  0  0  1  0  0  0  0  0  0
  179.2900  177.8500  142.4100 O   0  0  0  0  0  0  0  0  0  0  0  0
  184.5560  177.8970  147.5460 O   0  0  0  0  0  1  0  0  0  0  0  0
  184.4560  177.5030  146.2950 O   0  0  0  0  0  0  0  0  0  0  0  0
  1 22  1  0  0  0  0
  1 19  1  1  0  0  0
  2  3  1  0  0  0  0
  2  9  1  0  0  0  0
  3 16  1  0  0  0  0
  4  5  1  0  0  0  0
  4 20  1  1  0  0  0
  5 15  1  1  0  0  0
  6 19  1  0  0  0  0
  6 32  1  1  0  0  0
  8 21  1  1  0  0  0
  8 13  1  0  0  0  0
 10  7  1  6  0  0  0
 10  1  1  0  0  0  0
 11  9  1  1  0  0  0
 11 17  1  0  0  0  0
 11 10  1  0  0  0  0
 12 18  1  1  0  0  0
 12 22  1  0  0  0  0
 13 15  1  0  0  0  0
 14  7  1  6  0  0  0
 14  6  1  0  0  0  0
 17 16  1  6  0  0  0
 17 12  1  0  0  0  0
 18 23  1  0  0  0  0
 22  4  1  0  0  0  0
 23  8  1  0  0  0  0
 23  5  1  0  0  0  0
 24 26  1  0  0  0  0
 24 25  1  0  0  0  0
 25 14  1  0  0  0  0
 26 27  1  0  0  0  0
 26 25  1  0  0  0  0
 27 28  1  0  0  0  0
 28 29  1  0  0  0  0
 30 28  2  0  0  0  0
 32 31  1  0  0  0  0
M  END
>  <MODEL>
6

>  <REMARK>
 VINA RESULT:      -7.3      4.411      8.380
  Name = 
  4 active torsions:
  status: ('A' for Active; 'I' for Inactive)
    1  A    between atoms: C_7  and  O_19
    2  A    between atoms: C_10  and  C_17
    3  A    between atoms: C_20  and  C_29
    4  A    between atoms: C_29  and  C_30
                            x       y       z     vdW  Elec       q    Type
                         _______ _______ _______ _____ _____    ______ ____

>  <TORSDO>
F 4

$$$$
=
 OpenBabel11122410503D

 32 37  0  0  1  0  0  0  0  0999 V2000
  184.9120  178.6700  140.5200 C   0  0  1  0  0  3  0  0  0  0  0  0
  180.6450  178.7480  140.2240 O   0  0  0  0  0  0  0  0  0  0  0  0
  180.7660  178.2380  138.9200 C   0  0  0  0  0  2  0  0  0  0  0  0
  186.1280  178.4400  138.2560 C   0  0  2  0  0  3  0  0  0  0  0  0
  186.0630  177.6140  136.9800 C   0  0  2  0  0  3  0  0  0  0  0  0
  186.4170  178.4600  142.5810 C   0  0  2  0  0  3  0  0  0  0  0  0
  183.9650  178.6410  142.6110 O   0  0  0  0  0  0  0  0  0  0  0  0
  184.7830  176.9850  135.1660 C   0  0  1  0  0  3  0  0  0  0  0  0
  181.9470  179.0340  140.6730 C   0  0  0  0  0  2  0  0  0  0  0  0
  184.0600  177.9240  141.4590 N   0  0  1  0  0  0  0  0  0  0  0  0
  182.7150  177.7190  140.9030 C   0  0  2  0  0  3  0  0  0  0  0  0
  183.7930  177.5160  138.6140 C   0  0  2  0  0  3  0  0  0  0  0  0
  186.1380  177.5710  134.7640 C   0  0  0  0  0  2  0  0  0  0  0  0
  185.1020  178.2940  143.3720 C   0  0  2  0  0  3  0  0  0  0  0  0
  186.7640  178.1480  135.8970 O   0  0  0  0  0  0  0  0  0  0  0  0
  181.3920  176.8390  138.9560 C   0  0  0  0  0  2  0  0  0  0  0  0
  182.7830  176.9030  139.5940 C   0  0  2  0  0  3  0  0  0  0  0  0
  183.9280  176.7190  137.4550 O   0  0  0  0  0  0  0  0  0  0  0  0
  186.1970  179.1410  141.2230 C   0  0  0  0  0  2  0  0  0  0  0  0
  187.4370  178.4200  138.7390 O   0  0  0  0  0  1  0  0  0  0  0  0
  184.8740  175.5900  135.1870 O   0  0  0  0  0  1  0  0  0  0  0  0
  185.1680  177.7950  139.2860 C   0  0  2  0  0  3  0  0  0  0  0  0
  184.6340  177.5280  136.5520 C   0  0  1  0  0  3  0  0  0  0  0  0
  183.8850  178.9500  145.4350 C   0  0  0  0  0  2  0  0  0  0  0  0
  185.1530  179.1430  144.6280 C   0  0  1  0  0  3  0  0  0  0  0  0
  185.1550  178.2330  145.8400 C   0  0  1  0  0  3  0  0  0  0  0  0
  185.8020  178.9610  147.0010 C   0  0  0  0  0  2  0  0  0  0  0  0
  187.0660  178.2760  147.3860 C   0  0  0  0  0  0  0  0  0  0  0  0
  187.7410  178.6560  148.5370 O   0  0  0  0  0  1  0  0  0  0  0  0
  187.5420  177.3720  146.6480 O   0  0  0  0  0  0  0  0  0  0  0  0
  188.1890  177.4730  141.8800 O   0  0  0  0  0  1  0  0  0  0  0  0
  187.0040  177.2080  142.3870 O   0  0  0  0  0  0  0  0  0  0  0  0
  1 19  1  1  0  0  0
  1 10  1  0  0  0  0
  2  9  1  0  0  0  0
  3 16  1  0  0  0  0
  3  2  1  0  0  0  0
  4 20  1  1  0  0  0
  4 22  1  0  0  0  0
  5 15  1  6  0  0  0
  5  4  1  0  0  0  0
  6 32  1  6  0  0  0
  6 14  1  0  0  0  0
  8 21  1  1  0  0  0
  8 23  1  0  0  0  0
 10  7  1  1  0  0  0
 11  9  1  6  0  0  0
 11 10  1  0  0  0  0
 12 18  1  6  0  0  0
 12 22  1  0  0  0  0
 12 17  1  0  0  0  0
 13  8  1  0  0  0  0
 13 15  1  0  0  0  0
 14  7  1  6  0  0  0
 14 25  1  0  0  0  0
 17 16  1  6  0  0  0
 17 11  1  0  0  0  0
 19  6  1  0  0  0  0
 22  1  1  0  0  0  0
 23  5  1  0  0  0  0
 23 18  1  0  0  0  0
 24 26  1  0  0  0  0
 25 24  1  0  0  0  0
 25 26  1  0  0  0  0
 26 27  1  0  0  0  0
 27 28  1  0  0  0  0
 28 29  1  0  0  0  0
 30 28  2  0  0  0  0
 31 32  1  0  0  0  0
M  END
>  <MODEL>
7

>  <REMARK>
 VINA RESULT:      -7.3      4.728      6.127
  Name = 
  4 active torsions:
  status: ('A' for Active; 'I' for Inactive)
    1  A    between atoms: C_7  and  O_19
    2  A    between atoms: C_10  and  C_17
    3  A    between atoms: C_20  and  C_29
    4  A    between atoms: C_29  and  C_30
                            x       y       z     vdW  Elec       q    Type
                         _______ _______ _______ _____ _____    ______ ____

>  <TORSDO>
F 4

$$$$
=
 OpenBabel11122410503D

 32 37  0  0  1  0  0  0  0  0999 V2000
  185.9540  178.9270  143.3620 C   0  0  1  0  0  3  0  0  0  0  0  0
  189.4850  178.0530  141.1100 O   0  0  0  0  0  0  0  0  0  0  0  0
  190.0840  177.6040  142.3000 C   0  0  0  0  0  2  0  0  0  0  0  0
  186.3180  179.0120  145.9150 C   0  0  2  0  0  3  0  0  0  0  0  0
  186.9910  178.2130  147.0200 C   0  0  2  0  0  3  0  0  0  0  0  0
  183.5070  179.0270  142.6160 C   0  0  2  0  0  3  0  0  0  0  0  0
  185.4390  178.6540  141.1420 O   0  0  0  0  0  0  0  0  0  0  0  0
  188.9720  177.3420  147.8220 C   0  0  1  0  0  3  0  0  0  0  0  0
  188.2450  178.6160  141.4650 C   0  0  0  0  0  2  0  0  0  0  0  0
  185.9320  177.9950  142.2250 N   0  0  1  0  0  0  0  0  0  0  0  0
  187.2830  177.5030  141.9190 C   0  0  2  0  0  3  0  0  0  0  0  0
  187.7750  177.5830  144.4080 C   0  0  2  0  0  3  0  0  0  0  0  0
  188.2520  178.2230  148.8450 C   0  0  0  0  0  2  0  0  0  0  0  0
  184.0340  178.5580  141.2430 C   0  0  2  0  0  3  0  0  0  0  0  0
  187.1820  178.9080  148.2160 O   0  0  0  0  0  0  0  0  0  0  0  0
  189.3340  176.3800  142.8390 C   0  0  0  0  0  2  0  0  0  0  0  0
  187.8740  176.7440  143.1260 C   0  0  2  0  0  3  0  0  0  0  0  0
  188.2270  176.8550  145.5320 O   0  0  0  0  0  0  0  0  0  0  0  0
  184.6070  179.6630  143.4760 C   0  0  0  0  0  2  0  0  0  0  0  0
  185.0000  179.2770  146.2910 O   0  0  0  0  0  1  0  0  0  0  0  0
  188.6510  176.0030  148.0630 O   0  0  0  0  0  1  0  0  0  0  0  0
  186.3440  178.1520  144.6270 C   0  0  2  0  0  3  0  0  0  0  0  0
  188.3520  177.8160  146.5460 C   0  0  1  0  0  3  0  0  0  0  0  0
  183.9720  178.9910  138.7990 C   0  0  0  0  0  2  0  0  0  0  0  0
  183.3870  179.3770  140.1420 C   0  0  1  0  0  3  0  0  0  0  0  0
  182.6230  178.4480  139.2200 C   0  0  1  0  0  3  0  0  0  0  0  0
  181.5220  179.2320  138.5340 C   0  0  0  0  0  2  0  0  0  0  0  0
  181.3430  178.7370  137.1420 C   0  0  0  0  0  0  0  0  0  0  0  0
  181.3950  177.3760  136.8750 O   0  0  0  0  0  1  0  0  0  0  0  0
  181.1780  179.5560  136.1990 O   0  0  0  0  0  0  0  0  0  0  0  0
  182.3600  178.4740  144.3430 O   0  0  0  0  0  1  0  0  0  0  0  0
  182.9500  177.9420  143.2950 O   0  0  0  0  0  0  0  0  0  0  0  0
  1 19  1  1  0  0  0
  1 22  1  0  0  0  0
  2  9  1  0  0  0  0
  2  3  1  0  0  0  0
  3 16  1  0  0  0  0
  4 20  1  1  0  0  0
  4  5  1  0  0  0  0
  5 15  1  1  0  0  0
  6 32  1  1  0  0  0
  6 19  1  0  0  0  0
  8 21  1  1  0  0  0
  8 13  1  0  0  0  0
 10  7  1  6  0  0  0
 10  1  1  0  0  0  0
 11  9  1  1  0  0  0
 11 10  1  0  0  0  0
 11 17  1  0  0  0  0
 12 22  1  0  0  0  0
 12 18  1  1  0  0  0
 14  7  1  1  0  0  0
 14  6  1  0  0  0  0
 15 13  1  0  0  0  0
 17 16  1  6  0  0  0
 17 12  1  0  0  0  0
 18 23  1  0  0  0  0
 22  4  1  0  0  0  0
 23  5  1  0  0  0  0
 23  8  1  0  0  0  0
 24 26  1  0  0  0  0
 24 25  1  0  0  0  0
 25 14  1  0  0  0  0
 26 25  1  0  0  0  0
 27 26  1  0  0  0  0
 28 27  1  0  0  0  0
 29 28  1  0  0  0  0
 30 28  2  0  0  0  0
 32 31  1  0  0  0  0
M  END
>  <MODEL>
8

>  <REMARK>
 VINA RESULT:      -7.2      4.475      9.273
  Name = 
  4 active torsions:
  status: ('A' for Active; 'I' for Inactive)
    1  A    between atoms: C_7  and  O_19
    2  A    between atoms: C_10  and  C_17
    3  A    between atoms: C_20  and  C_29
    4  A    between atoms: C_29  and  C_30
                            x       y       z     vdW  Elec       q    Type
                         _______ _______ _______ _____ _____    ______ ____

>  <TORSDO>
F 4

$$$$
=
 OpenBabel11122410503D

 32 37  0  0  1  0  0  0  0  0999 V2000
  187.4590  178.4880  142.9540 C   0  0  1  0  0  3  0  0  0  0  0  0
  183.9910  180.0490  144.9130 O   0  0  0  0  0  0  0  0  0  0  0  0
  183.2900  179.9030  143.7020 C   0  0  0  0  0  2  0  0  0  0  0  0
  187.3150  178.4950  140.3780 C   0  0  2  0  0  3  0  0  0  0  0  0
  186.3470  178.1160  139.2670 C   0  0  2  0  0  3  0  0  0  0  0  0
  189.4750  177.2410  143.9200 C   0  0  2  0  0  3  0  0  0  0  0  0
  187.6290  178.2070  145.2260 O   0  0  0  0  0  0  0  0  0  0  0  0
  184.2630  178.4640  138.3380 C   0  0  1  0  0  3  0  0  0  0  0  0
  185.3390  179.7550  144.6420 C   0  0  0  0  0  2  0  0  0  0  0  0
  186.8890  177.8400  144.1450 N   0  0  1  0  0  0  0  0  0  0  0  0
  185.4920  178.2500  144.3520 C   0  0  2  0  0  3  0  0  0  0  0  0
  185.2400  178.3340  141.8270 C   0  0  2  0  0  3  0  0  0  0  0  0
  185.4020  178.6560  137.3340 C   0  0  0  0  0  2  0  0  0  0  0  0
  188.7190  177.3110  145.2640 C   0  0  2  0  0  3  0  0  0  0  0  0
  186.6440  178.6630  138.0160 O   0  0  0  0  0  0  0  0  0  0  0  0
  183.2100  178.4210  143.3150 C   0  0  0  0  0  2  0  0  0  0  0  0
  184.6190  177.8460  143.1450 C   0  0  2  0  0  3  0  0  0  0  0  0
  184.4940  177.8840  140.7150 O   0  0  0  0  0  0  0  0  0  0  0  0
  188.9850  178.2980  142.9210 C   0  0  0  0  0  2  0  0  0  0  0  0
  188.5550  177.9130  140.1110 O   0  0  0  0  0  1  0  0  0  0  0  0
  183.7550  177.1670  138.2140 O   0  0  0  0  0  1  0  0  0  0  0  0
  186.7420  177.9490  141.7090 C   0  0  2  0  0  3  0  0  0  0  0  0
  184.9910  178.6270  139.6340 C   0  0  1  0  0  3  0  0  0  0  0  0
  189.0770  177.3920  147.7190 C   0  0  0  0  0  2  0  0  0  0  0  0
  189.6760  177.7190  146.3660 C   0  0  1  0  0  3  0  0  0  0  0  0
  190.1250  176.4800  147.1160 C   0  0  1  0  0  3  0  0  0  0  0  0
  191.4690  176.7540  147.7600 C   0  0  0  0  0  2  0  0  0  0  0  0
  192.4310  175.6780  147.3970 C   0  0  0  0  0  0  0  0  0  0  0  0
  192.4000  175.1170  146.1280 O   0  0  0  0  0  0  0  0  0  0  0  0
  193.2510  175.2520  148.2520 O   0  0  0  0  0  1  0  0  0  0  0  0
  190.1590  175.9480  142.3500 O   0  0  0  0  0  1  0  0  0  0  0  0
  189.3240  175.9690  143.3670 O   0  0  0  0  0  0  0  0  0  0  0  0
  1 19  1  6  0  0  0
  1 10  1  0  0  0  0
  3  2  1  0  0  0  0
  4 20  1  6  0  0  0
  4 22  1  0  0  0  0
  5 15  1  6  0  0  0
  5 23  1  0  0  0  0
  5  4  1  0  0  0  0
  6 32  1  6  0  0  0
  6 14  1  0  0  0  0
  8 21  1  1  0  0  0
  8 23  1  0  0  0  0
  9  2  1  0  0  0  0
 10 11  1  0  0  0  0
 10  7  1  1  0  0  0
 11  9  1  6  0  0  0
 12 18  1  6  0  0  0
 12 17  1  0  0  0  0
 13 15  1  0  0  0  0
 13  8  1  0  0  0  0
 14  7  1  6  0  0  0
 14 25  1  0  0  0  0
 16  3  1  0  0  0  0
 17 16  1  1  0  0  0
 17 11  1  0  0  0  0
 19  6  1  0  0  0  0
 22 12  1  0  0  0  0
 22  1  1  0  0  0  0
 23 18  1  0  0  0  0
 25 26  1  0  0  0  0
 25 24  1  0  0  0  0
 26 24  1  0  0  0  0
 26 27  1  0  0  0  0
 28 27  1  0  0  0  0
 28 30  1  0  0  0  0
 29 28  2  0  0  0  0
 31 32  1  0  0  0  0
M  END
>  <MODEL>
9

>  <REMARK>
 VINA RESULT:      -6.8      4.432      6.452
  Name = 
  4 active torsions:
  status: ('A' for Active; 'I' for Inactive)
    1  A    between atoms: C_7  and  O_19
    2  A    between atoms: C_10  and  C_17
    3  A    between atoms: C_20  and  C_29
    4  A    between atoms: C_29  and  C_30
                            x       y       z     vdW  Elec       q    Type
                         _______ _______ _______ _____ _____    ______ ____

>  <TORSDO>
F 4

$$$$
