=
 OpenBabel11122410363D

 32 37  0  0  1  0  0  0  0  0999 V2000
  190.9220  175.4500  137.6820 C   0  0  0  0  0  2  0  0  0  0  0  0
  188.9200  177.7660  141.8790 C   0  0  1  0  0  3  0  0  0  0  0  0
  191.8250  176.2850  145.6250 C   0  0  0  0  0  3  0  0  0  0  0  0
  190.8880  176.7740  146.5350 C   0  0  0  0  0  3  0  0  0  0  0  0
  186.4550  178.3400  142.3780 C   0  0  0  0  0  0  0  0  0  0  0  0
  185.4540  178.5950  143.4200 C   0  0  0  0  0  0  0  0  0  0  0  0
  189.9090  177.7440  139.5910 C   0  0  1  0  0  3  0  0  0  0  0  0
  191.2710  177.0710  141.4350 C   0  0  0  0  0  2  0  0  0  0  0  0
  184.5730  178.6240  145.3560 C   0  0  0  0  0  0  0  0  0  0  0  0
  192.1870  177.0130  139.2750 C   0  0  0  0  0  2  0  0  0  0  0  0
  191.5480  176.3160  144.2580 C   0  0  0  0  0  3  0  0  0  0  0  0
  190.0380  176.8010  142.3020 C   0  0  1  0  0  3  0  0  0  0  0  0
  190.3390  176.8480  143.7820 C   0  0  0  0  0  0  0  0  0  0  0  0
  188.0660  177.9040  144.2420 C   0  0  2  0  0  3  0  0  0  0  0  0
  183.6770  179.1760  144.4590 C   0  0  0  0  0  3  0  0  0  0  0  0
  189.5860  176.2010  137.5500 C   0  0  0  0  0  2  0  0  0  0  0  0
  190.9540  176.8020  140.0340 N   0  0  2  0  0  0  0  0  0  0  0  0
  184.2430  179.1570  143.2270 N   0  0  0  0  0  0  0  0  0  0  0  0
  189.6000  177.6380  138.0900 C   0  0  0  0  0  2  0  0  0  0  0  0
  192.1360  176.3720  137.8760 C   0  0  1  0  0  3  0  0  0  0  0  0
  189.6700  177.2770  146.0790 C   0  0  0  0  0  3  0  0  0  0  0  0
  189.3650  177.2870  144.7090 C   0  0  0  0  0  0  0  0  0  0  0  0
  186.8910  177.6110  145.1930 C   0  0  0  0  0  2  0  0  0  0  0  0
  188.6300  177.5220  140.3970 C   0  0  0  0  0  2  0  0  0  0  0  0
  186.2360  178.7000  141.1910 O   0  0  0  0  0  0  0  0  0  0  0  0
  184.3460  178.4410  146.8170 C   0  0  0  0  0  1  0  0  0  0  0  0
  187.6930  177.5550  142.7780 C   0  0  2  0  0  3  0  0  0  0  0  0
  185.6870  178.2760  144.6990 N   0  0  0  0  0  0  0  0  0  0  0  0
  193.4270  175.6090  137.6310 C   0  0  0  0  0  2  0  0  0  0  0  0
  194.0020  175.9550  136.3000 C   0  0  0  0  0  0  0  0  0  0  0  0
  194.7640  177.1040  136.1500 O   0  0  0  0  0  1  0  0  0  0  0  0
  193.8190  175.1890  135.3180 O   0  0  0  0  0  0  0  0  0  0  0  0
  1 20  1  0  0  0  0
  2 24  1  6  0  0  0
  2 12  1  0  0  0  0
  2 27  1  0  0  0  0
  3  4  1  0  0  0  0
  5  6  1  0  0  0  0
  6 28  1  0  0  0  0
  7 19  1  6  0  0  0
  7 17  1  0  0  0  0
  7 24  1  0  0  0  0
  9 26  1  0  0  0  0
 11  3  2  0  0  0  0
 12  8  1  6  0  0  0
 12 13  1  0  0  0  0
 13 11  1  0  0  0  0
 13 22  2  0  0  0  0
 14 22  1  0  0  0  0
 14 23  1  1  0  0  0
 15  9  2  0  0  0  0
 16  1  1  0  0  0  0
 16 19  1  0  0  0  0
 17 10  1  6  0  0  0
 17  8  1  0  0  0  0
 18  6  2  0  0  0  0
 18 15  1  0  0  0  0
 20 29  1  1  0  0  0
 20 10  1  0  0  0  0
 21  4  2  0  0  0  0
 22 21  1  0  0  0  0
 25  5  2  0  0  0  0
 27  5  1  6  0  0  0
 27 14  1  0  0  0  0
 28 23  1  0  0  0  0
 28  9  1  0  0  0  0
 30 29  1  0  0  0  0
 31 30  1  0  0  0  0
 32 30  2  0  0  0  0
M  END
>  <MODEL>
1

>  <REMARK>
 VINA RESULT:     -10.9      0.000      0.000
  Name = 
  2 active torsions:
  status: ('A' for Active; 'I' for Inactive)
    1  A    between atoms: C_20  and  C_29
    2  A    between atoms: C_29  and  C_30
                            x       y       z     vdW  Elec       q    Type
                         _______ _______ _______ _____ _____    ______ ____

>  <TORSDO>
F 2

$$$$
=
 OpenBabel11122410363D

 32 37  0  0  1  0  0  0  0  0999 V2000
  181.4200  180.6780  139.5440 C   0  0  0  0  0  2  0  0  0  0  0  0
  185.5140  178.1270  141.4700 C   0  0  1  0  0  3  0  0  0  0  0  0
  184.8950  178.3110  146.3940 C   0  0  0  0  0  3  0  0  0  0  0  0
  186.2080  177.8730  146.5680 C   0  0  0  0  0  3  0  0  0  0  0  0
  187.9130  177.9900  140.5290 C   0  0  0  0  0  0  0  0  0  0  0  0
  189.3290  177.7680  140.8410 C   0  0  0  0  0  0  0  0  0  0  0  0
  183.4740  178.3430  140.0540 C   0  0  1  0  0  3  0  0  0  0  0  0
  183.2310  178.3930  142.4310 C   0  0  0  0  0  2  0  0  0  0  0  0
  191.0940  177.5840  142.0150 C   0  0  0  0  0  0  0  0  0  0  0  0
  181.3160  178.6380  141.0950 C   0  0  0  0  0  2  0  0  0  0  0  0
  184.4150  178.5750  145.1100 C   0  0  0  0  0  3  0  0  0  0  0  0
  184.7080  178.7550  142.6160 C   0  0  1  0  0  3  0  0  0  0  0  0
  185.2340  178.3920  143.9850 C   0  0  0  0  0  0  0  0  0  0  0  0
  187.4900  177.7590  142.9840 C   0  0  2  0  0  3  0  0  0  0  0  0
  191.4280  177.3900  140.6860 C   0  0  0  0  0  3  0  0  0  0  0  0
  182.5450  180.2500  138.5870 C   0  0  0  0  0  2  0  0  0  0  0  0
  182.7420  178.9610  141.1760 N   0  0  2  0  0  0  0  0  0  0  0  0
  190.3020  177.5080  139.9430 N   0  0  0  0  0  0  0  0  0  0  0  0
  182.9390  178.7690  138.6790 C   0  0  0  0  0  2  0  0  0  0  0  0
  180.5720  179.5080  140.0680 C   0  0  1  0  0  3  0  0  0  0  0  0
  187.0430  177.7160  145.4610 C   0  0  0  0  0  3  0  0  0  0  0  0
  186.5830  178.0060  144.1680 C   0  0  0  0  0  0  0  0  0  0  0  0
  188.9600  178.1150  143.2740 C   0  0  0  0  0  2  0  0  0  0  0  0
  184.9620  178.6780  140.1540 C   0  0  0  0  0  2  0  0  0  0  0  0
  187.5060  177.8940  139.3410 O   0  0  0  0  0  0  0  0  0  0  0  0
  192.0370  177.5540  143.1670 C   0  0  0  0  0  1  0  0  0  0  0  0
  187.0080  178.4240  141.6700 C   0  0  2  0  0  3  0  0  0  0  0  0
  189.7760  177.8070  142.1030 N   0  0  0  0  0  0  0  0  0  0  0  0
  179.2850  180.0220  140.6910 C   0  0  0  0  0  2  0  0  0  0  0  0
  179.3420  179.9280  142.1770 C   0  0  0  0  0  0  0  0  0  0  0  0
  178.9310  178.7660  142.8160 O   0  0  0  0  0  0  0  0  0  0  0  0
  179.7890  180.8910  142.8520 O   0  0  0  0  0  1  0  0  0  0  0  0
  1 20  1  0  0  0  0
  2 24  1  6  0  0  0
  2 27  1  0  0  0  0
  2 12  1  0  0  0  0
  3  4  1  0  0  0  0
  5  6  1  0  0  0  0
  6 28  1  0  0  0  0
  7 19  1  6  0  0  0
  7 24  1  0  0  0  0
  7 17  1  0  0  0  0
  9 28  1  0  0  0  0
  9 26  1  0  0  0  0
 11  3  2  0  0  0  0
 12  8  1  1  0  0  0
 12 13  1  0  0  0  0
 13 22  2  0  0  0  0
 13 11  1  0  0  0  0
 14 23  1  1  0  0  0
 14 22  1  0  0  0  0
 15  9  2  0  0  0  0
 16 19  1  0  0  0  0
 16  1  1  0  0  0  0
 17 10  1  6  0  0  0
 17  8  1  0  0  0  0
 18 15  1  0  0  0  0
 18  6  2  0  0  0  0
 20 29  1  1  0  0  0
 20 10  1  0  0  0  0
 21  4  2  0  0  0  0
 22 21  1  0  0  0  0
 25  5  2  0  0  0  0
 27  5  1  6  0  0  0
 27 14  1  0  0  0  0
 28 23  1  0  0  0  0
 29 30  1  0  0  0  0
 30 31  2  0  0  0  0
 30 32  1  0  0  0  0
M  END
>  <MODEL>
2

>  <REMARK>
 VINA RESULT:      -9.6      3.372      8.532
  Name = 
  2 active torsions:
  status: ('A' for Active; 'I' for Inactive)
    1  A    between atoms: C_20  and  C_29
    2  A    between atoms: C_29  and  C_30
                            x       y       z     vdW  Elec       q    Type
                         _______ _______ _______ _____ _____    ______ ____

>  <TORSDO>
F 2

$$$$
=
 OpenBabel11122410363D

 32 37  0  0  1  0  0  0  0  0999 V2000
  188.5540  176.3210  138.3180 C   0  0  0  0  0  2  0  0  0  0  0  0
  185.0340  178.7340  141.2800 C   0  0  1  0  0  3  0  0  0  0  0  0
  186.6620  178.0920  145.9270 C   0  0  0  0  0  3  0  0  0  0  0  0
  185.4290  178.5280  146.4120 C   0  0  0  0  0  3  0  0  0  0  0  0
  182.4970  178.9850  140.8820 C   0  0  0  0  0  0  0  0  0  0  0  0
  181.1850  179.1950  141.5030 C   0  0  0  0  0  0  0  0  0  0  0  0
  186.7250  178.6240  139.4520 C   0  0  1  0  0  3  0  0  0  0  0  0
  187.4580  178.3530  141.7110 C   0  0  0  0  0  2  0  0  0  0  0  0
  179.7110  179.2920  143.0350 C   0  0  0  0  0  0  0  0  0  0  0  0
  189.0430  178.2090  139.9850 C   0  0  0  0  0  2  0  0  0  0  0  0
  186.8550  177.9410  144.5530 C   0  0  0  0  0  3  0  0  0  0  0  0
  186.0420  177.9940  142.1710 C   0  0  1  0  0  3  0  0  0  0  0  0
  185.8250  178.2360  143.6460 C   0  0  0  0  0  0  0  0  0  0  0  0
  183.4300  178.9850  143.2030 C   0  0  2  0  0  3  0  0  0  0  0  0
  179.1120  179.6100  141.8290 C   0  0  0  0  0  3  0  0  0  0  0  0
  187.2670  176.8480  137.6620 C   0  0  0  0  0  2  0  0  0  0  0  0
  187.6560  177.8970  140.3360 N   0  0  2  0  0  0  0  0  0  0  0  0
  180.0540  179.5480  140.8570 N   0  0  0  0  0  0  0  0  0  0  0  0
  186.9470  178.3190  137.9630 C   0  0  0  0  0  2  0  0  0  0  0  0
  189.5290  177.4280  138.7510 C   0  0  1  0  0  3  0  0  0  0  0  0
  184.3870  178.7960  145.5240 C   0  0  0  0  0  3  0  0  0  0  0  0
  184.5570  178.6200  144.1420 C   0  0  0  0  0  0  0  0  0  0  0  0
  182.0430  178.6210  143.7640 C   0  0  0  0  0  2  0  0  0  0  0  0
  185.2810  178.2990  139.8340 C   0  0  0  0  0  2  0  0  0  0  0  0
  182.6500  179.1850  139.6480 O   0  0  0  0  0  0  0  0  0  0  0  0
  179.0310  179.2280  144.3580 C   0  0  0  0  0  1  0  0  0  0  0  0
  183.6060  178.4380  141.7640 C   0  0  2  0  0  3  0  0  0  0  0  0
  181.0100  179.0460  142.8230 N   0  0  0  0  0  0  0  0  0  0  0  0
  190.9010  176.8440  139.0420 C   0  0  0  0  0  2  0  0  0  0  0  0
  191.3220  175.9130  137.9570 C   0  0  0  0  0  0  0  0  0  0  0  0
  191.1990  174.5420  138.1310 O   0  0  0  0  0  1  0  0  0  0  0  0
  191.7620  176.3720  136.8710 O   0  0  0  0  0  0  0  0  0  0  0  0
  1 20  1  0  0  0  0
  2 24  1  6  0  0  0
  2 27  1  0  0  0  0
  2 12  1  0  0  0  0
  3  4  1  0  0  0  0
  5  6  1  0  0  0  0
  6 28  1  0  0  0  0
  7 19  1  6  0  0  0
  7 24  1  0  0  0  0
  7 17  1  0  0  0  0
  9 26  1  0  0  0  0
 11  3  2  0  0  0  0
 12  8  1  6  0  0  0
 12 13  1  0  0  0  0
 13 22  2  0  0  0  0
 13 11  1  0  0  0  0
 14 23  1  1  0  0  0
 14 22  1  0  0  0  0
 15  9  2  0  0  0  0
 16 19  1  0  0  0  0
 16  1  1  0  0  0  0
 17 10  1  6  0  0  0
 17  8  1  0  0  0  0
 18  6  2  0  0  0  0
 18 15  1  0  0  0  0
 20 29  1  1  0  0  0
 20 10  1  0  0  0  0
 21  4  2  0  0  0  0
 22 21  1  0  0  0  0
 25  5  2  0  0  0  0
 27  5  1  6  0  0  0
 27 14  1  0  0  0  0
 28  9  1  0  0  0  0
 28 23  1  0  0  0  0
 30 31  1  0  0  0  0
 30 29  1  0  0  0  0
 32 30  2  0  0  0  0
M  END
>  <MODEL>
3

>  <REMARK>
 VINA RESULT:      -9.6      2.705      4.363
  Name = 
  2 active torsions:
  status: ('A' for Active; 'I' for Inactive)
    1  A    between atoms: C_20  and  C_29
    2  A    between atoms: C_29  and  C_30
                            x       y       z     vdW  Elec       q    Type
                         _______ _______ _______ _____ _____    ______ ____

>  <TORSDO>
F 2

$$$$
=
 OpenBabel11122410363D

 32 37  0  0  1  0  0  0  0  0999 V2000
  189.5000  178.2870  145.9820 C   0  0  0  0  0  2  0  0  0  0  0  0
  186.1900  177.8780  142.0000 C   0  0  1  0  0  3  0  0  0  0  0  0
  189.0350  178.3520  137.9580 C   0  0  0  0  0  3  0  0  0  0  0  0
  187.8900  178.5140  137.1790 C   0  0  0  0  0  3  0  0  0  0  0  0
  183.7250  178.6300  141.8720 C   0  0  0  0  0  0  0  0  0  0  0  0
  182.6250  179.0450  140.9940 C   0  0  0  0  0  0  0  0  0  0  0  0
  187.2940  177.0750  144.0850 C   0  0  1  0  0  3  0  0  0  0  0  0
  188.6090  177.2920  142.1020 C   0  0  0  0  0  2  0  0  0  0  0  0
  181.6480  179.7360  139.2350 C   0  0  0  0  0  0  0  0  0  0  0  0
  189.6550  176.5760  144.0770 C   0  0  0  0  0  2  0  0  0  0  0  0
  188.9240  178.2470  139.3450 C   0  0  0  0  0  3  0  0  0  0  0  0
  187.5860  178.2460  141.4780 C   0  0  1  0  0  3  0  0  0  0  0  0
  187.6680  178.2890  139.9700 C   0  0  0  0  0  0  0  0  0  0  0  0
  185.1360  178.5270  139.8090 C   0  0  2  0  0  3  0  0  0  0  0  0
  180.6960  179.5470  140.2210 C   0  0  0  0  0  3  0  0  0  0  0  0
  187.9900  178.2530  146.2720 C   0  0  0  0  0  2  0  0  0  0  0  0
  188.6150  177.4620  143.5540 N   0  0  2  0  0  0  0  0  0  0  0  0
  181.3230  179.1060  141.3380 N   0  0  0  0  0  0  0  0  0  0  0  0
  187.2360  177.0850  145.6200 C   0  0  0  0  0  2  0  0  0  0  0  0
  190.0730  176.9410  145.5130 C   0  0  1  0  0  3  0  0  0  0  0  0
  186.6370  178.5880  137.7890 C   0  0  0  0  0  3  0  0  0  0  0  0
  186.5130  178.5140  139.1850 C   0  0  0  0  0  0  0  0  0  0  0  0
  184.1660  179.4860  139.0930 C   0  0  0  0  0  2  0  0  0  0  0  0
  186.2140  178.0000  143.5240 C   0  0  0  0  0  2  0  0  0  0  0  0
  183.4830  178.2400  143.0450 O   0  0  0  0  0  0  0  0  0  0  0  0
  181.3890  180.2270  137.8530 C   0  0  0  0  0  1  0  0  0  0  0  0
  185.1390  178.7820  141.3370 C   0  0  2  0  0  3  0  0  0  0  0  0
  182.8500  179.4070  139.7240 N   0  0  0  0  0  0  0  0  0  0  0  0
  191.5900  176.9490  145.6020 C   0  0  0  0  0  2  0  0  0  0  0  0
  192.0550  176.1730  146.7860 C   0  0  0  0  0  0  0  0  0  0  0  0
  192.0550  176.7580  148.0440 O   0  0  0  0  0  1  0  0  0  0  0  0
  192.4220  174.9760  146.6490 O   0  0  0  0  0  0  0  0  0  0  0  0
  1 16  1  0  0  0  0
  2 24  1  1  0  0  0
  3 11  1  0  0  0  0
  4 21  1  0  0  0  0
  4  3  2  0  0  0  0
  5 25  2  0  0  0  0
  6 18  2  0  0  0  0
  6  5  1  0  0  0  0
  7 24  1  6  0  0  0
  7 19  1  0  0  0  0
  9 28  1  0  0  0  0
  9 15  2  0  0  0  0
 10 20  1  0  0  0  0
 11 13  2  0  0  0  0
 12  2  1  0  0  0  0
 12  8  1  6  0  0  0
 13 12  1  0  0  0  0
 14 23  1  6  0  0  0
 14 27  1  0  0  0  0
 15 18  1  0  0  0  0
 17  8  1  6  0  0  0
 17 10  1  0  0  0  0
 17  7  1  0  0  0  0
 19 16  1  0  0  0  0
 20 29  1  6  0  0  0
 20  1  1  0  0  0  0
 21 22  2  0  0  0  0
 22 14  1  0  0  0  0
 22 13  1  0  0  0  0
 23 28  1  0  0  0  0
 26  9  1  0  0  0  0
 27  5  1  1  0  0  0
 27  2  1  0  0  0  0
 28  6  1  0  0  0  0
 29 30  1  0  0  0  0
 30 31  1  0  0  0  0
 32 30  2  0  0  0  0
M  END
>  <MODEL>
4

>  <REMARK>
 VINA RESULT:      -9.6      3.774      6.950
  Name = 
  2 active torsions:
  status: ('A' for Active; 'I' for Inactive)
    1  A    between atoms: C_20  and  C_29
    2  A    between atoms: C_29  and  C_30
                            x       y       z     vdW  Elec       q    Type
                         _______ _______ _______ _____ _____    ______ ____

>  <TORSDO>
F 2

$$$$
=
 OpenBabel11122410363D

 32 37  0  0  1  0  0  0  0  0999 V2000
  191.7980  174.9970  145.6030 C   0  0  0  0  0  2  0  0  0  0  0  0
  188.2340  177.9510  143.2480 C   0  0  1  0  0  3  0  0  0  0  0  0
  184.5750  178.3860  146.5780 C   0  0  0  0  0  3  0  0  0  0  0  0
  183.7420  178.8990  145.5850 C   0  0  0  0  0  3  0  0  0  0  0  0
  187.6420  178.0670  140.7390 C   0  0  0  0  0  0  0  0  0  0  0  0
  186.6100  178.3890  139.7480 C   0  0  0  0  0  0  0  0  0  0  0  0
  190.5180  177.4650  144.1190 C   0  0  1  0  0  3  0  0  0  0  0  0
  188.7250  177.7160  145.6790 C   0  0  0  0  0  2  0  0  0  0  0  0
  184.6740  178.8010  138.9660 C   0  0  0  0  0  0  0  0  0  0  0  0
  190.8690  177.2170  146.4940 C   0  0  0  0  0  2  0  0  0  0  0  0
  185.8550  177.9370  146.2480 C   0  0  0  0  0  3  0  0  0  0  0  0
  187.6830  177.4450  144.5890 C   0  0  1  0  0  3  0  0  0  0  0  0
  186.3220  178.0060  144.9260 C   0  0  0  0  0  0  0  0  0  0  0  0
  185.9260  178.5990  142.4800 C   0  0  2  0  0  3  0  0  0  0  0  0
  185.5840  178.8330  137.9240 C   0  0  0  0  0  3  0  0  0  0  0  0
  191.9860  175.3440  144.1170 C   0  0  0  0  0  2  0  0  0  0  0  0
  189.9470  176.9680  145.3850 N   0  0  2  0  0  0  0  0  0  0  0  0
  186.8150  178.5710  138.4270 N   0  0  0  0  0  0  0  0  0  0  0  0
  191.8820  176.8400  143.7870 C   0  0  0  0  0  2  0  0  0  0  0  0
  192.0130  176.1880  146.5510 C   0  0  1  0  0  3  0  0  0  0  0  0
  184.1810  178.9460  144.2610 C   0  0  0  0  0  3  0  0  0  0  0  0
  185.4540  178.4700  143.9100 C   0  0  0  0  0  0  0  0  0  0  0  0
  184.8040  178.3470  141.4560 C   0  0  0  0  0  2  0  0  0  0  0  0
  189.5420  177.2100  142.9700 C   0  0  0  0  0  2  0  0  0  0  0  0
  188.8500  177.9900  140.3890 O   0  0  0  0  0  0  0  0  0  0  0  0
  183.2060  179.0220  138.8500 C   0  0  0  0  0  1  0  0  0  0  0  0
  187.1790  177.7480  142.1500 C   0  0  2  0  0  3  0  0  0  0  0  0
  185.3270  178.5350  140.1050 N   0  0  0  0  0  0  0  0  0  0  0  0
  192.1760  175.7050  147.9820 C   0  0  0  0  0  2  0  0  0  0  0  0
  192.8940  176.7200  148.8050 C   0  0  0  0  0  0  0  0  0  0  0  0
  192.2470  177.8860  149.1890 O   0  0  0  0  0  1  0  0  0  0  0  0
  194.0770  176.5060  149.1760 O   0  0  0  0  0  0  0  0  0  0  0  0
  1 20  1  0  0  0  0
  2 24  1  6  0  0  0
  2 12  1  0  0  0  0
  4  3  2  0  0  0  0
  6 28  1  0  0  0  0
  6  5  1  0  0  0  0
  7 24  1  6  0  0  0
  7 17  1  0  0  0  0
  9 28  1  0  0  0  0
 10 20  1  0  0  0  0
 11  3  1  0  0  0  0
 12 13  1  0  0  0  0
 12  8  1  1  0  0  0
 13 11  2  0  0  0  0
 14 23  1  6  0  0  0
 14 22  1  0  0  0  0
 15 18  1  0  0  0  0
 15  9  2  0  0  0  0
 16  1  1  0  0  0  0
 17  8  1  1  0  0  0
 17 10  1  0  0  0  0
 18  6  2  0  0  0  0
 19 16  1  0  0  0  0
 19  7  1  0  0  0  0
 20 29  1  1  0  0  0
 21  4  1  0  0  0  0
 22 21  2  0  0  0  0
 22 13  1  0  0  0  0
 25  5  2  0  0  0  0
 26  9  1  0  0  0  0
 27  5  1  6  0  0  0
 27 14  1  0  0  0  0
 27  2  1  0  0  0  0
 28 23  1  0  0  0  0
 29 30  1  0  0  0  0
 30 32  2  0  0  0  0
 30 31  1  0  0  0  0
M  END
>  <MODEL>
5

>  <REMARK>
 VINA RESULT:      -9.5      3.577      6.845
  Name = 
  2 active torsions:
  status: ('A' for Active; 'I' for Inactive)
    1  A    between atoms: C_20  and  C_29
    2  A    between atoms: C_29  and  C_30
                            x       y       z     vdW  Elec       q    Type
                         _______ _______ _______ _____ _____    ______ ____

>  <TORSDO>
F 2

$$$$
=
 OpenBabel11122410363D

 32 37  0  0  1  0  0  0  0  0999 V2000
  179.8500  177.7740  141.9490 C   0  0  0  0  0  2  0  0  0  0  0  0
  184.6570  178.7410  143.6640 C   0  0  1  0  0  3  0  0  0  0  0  0
  187.5420  178.2130  139.6570 C   0  0  0  0  0  3  0  0  0  0  0  0
  188.6700  178.2120  140.4780 C   0  0  0  0  0  3  0  0  0  0  0  0
  185.6660  178.2490  145.9880 C   0  0  0  0  0  0  0  0  0  0  0  0
  186.8930  177.9980  146.7510 C   0  0  0  0  0  0  0  0  0  0  0  0
  182.2610  179.3090  143.2790 C   0  0  1  0  0  3  0  0  0  0  0  0
  183.7020  179.0730  141.3880 C   0  0  0  0  0  2  0  0  0  0  0  0
  188.9310  177.5100  147.1210 C   0  0  0  0  0  0  0  0  0  0  0  0
  181.4360  179.5670  141.0250 C   0  0  0  0  0  2  0  0  0  0  0  0
  186.2680  178.2490  140.2260 C   0  0  0  0  0  3  0  0  0  0  0  0
  184.7130  178.2640  142.2060 C   0  0  1  0  0  3  0  0  0  0  0  0
  186.1050  178.2990  141.6190 C   0  0  0  0  0  0  0  0  0  0  0  0
  187.1220  178.3260  143.9550 C   0  0  2  0  0  3  0  0  0  0  0  0
  188.3070  177.7380  148.3340 C   0  0  0  0  0  3  0  0  0  0  0  0
  180.0800  177.9440  143.4600 C   0  0  0  0  0  2  0  0  0  0  0  0
  182.3520  178.8210  141.8890 N   0  0  2  0  0  0  0  0  0  0  0  0
  187.0110  178.0490  148.0940 N   0  0  0  0  0  0  0  0  0  0  0  0
  180.8400  179.2180  143.8560 C   0  0  0  0  0  2  0  0  0  0  0  0
  179.9810  179.0810  141.1500 C   0  0  1  0  0  3  0  0  0  0  0  0
  188.5220  178.2300  141.8650 C   0  0  0  0  0  3  0  0  0  0  0  0
  187.2470  178.2360  142.4510 C   0  0  0  0  0  0  0  0  0  0  0  0
  188.2010  177.5130  144.6940 C   0  0  0  0  0  2  0  0  0  0  0  0
  183.2290  178.5310  144.1700 C   0  0  0  0  0  2  0  0  0  0  0  0
  184.6110  178.5940  146.5850 O   0  0  0  0  0  0  0  0  0  0  0  0
  190.3570  177.1270  146.9300 C   0  0  0  0  0  1  0  0  0  0  0  0
  185.7090  177.9860  144.4920 C   0  0  2  0  0  3  0  0  0  0  0  0
  188.0410  177.6880  146.1350 N   0  0  0  0  0  0  0  0  0  0  0  0
  179.3920  178.9140  139.7590 C   0  0  0  0  0  2  0  0  0  0  0  0
  179.4850  180.1870  138.9890 C   0  0  0  0  0  0  0  0  0  0  0  0
  180.1520  180.2150  137.7720 O   0  0  0  0  0  0  0  0  0  0  0  0
  178.9350  181.2300  139.4280 O   0  0  0  0  0  1  0  0  0  0  0  0
  1 16  1  0  0  0  0
  2 24  1  1  0  0  0
  2 27  1  0  0  0  0
  3 11  2  0  0  0  0
  3  4  1  0  0  0  0
  4 21  2  0  0  0  0
  5 25  2  0  0  0  0
  5  6  1  0  0  0  0
  6 18  2  0  0  0  0
  7 19  1  1  0  0  0
  7 24  1  0  0  0  0
  8 17  1  0  0  0  0
  9 15  2  0  0  0  0
 10 20  1  0  0  0  0
 11 13  1  0  0  0  0
 12  8  1  6  0  0  0
 12  2  1  0  0  0  0
 13 12  1  0  0  0  0
 13 22  2  0  0  0  0
 14 27  1  0  0  0  0
 14 23  1  1  0  0  0
 16 19  1  0  0  0  0
 17 10  1  6  0  0  0
 17  7  1  0  0  0  0
 18 15  1  0  0  0  0
 20 29  1  6  0  0  0
 20  1  1  0  0  0  0
 21 22  1  0  0  0  0
 22 14  1  0  0  0  0
 23 28  1  0  0  0  0
 26  9  1  0  0  0  0
 27  5  1  1  0  0  0
 28  6  1  0  0  0  0
 28  9  1  0  0  0  0
 30 32  1  0  0  0  0
 30 29  1  0  0  0  0
 31 30  2  0  0  0  0
M  END
>  <MODEL>
6

>  <REMARK>
 VINA RESULT:      -9.2      4.806      8.579
  Name = 
  2 active torsions:
  status: ('A' for Active; 'I' for Inactive)
    1  A    between atoms: C_20  and  C_29
    2  A    between atoms: C_29  and  C_30
                            x       y       z     vdW  Elec       q    Type
                         _______ _______ _______ _____ _____    ______ ____

>  <TORSDO>
F 2

$$$$
=
 OpenBabel11122410363D

 32 37  0  0  1  0  0  0  0  0999 V2000
  182.3790  177.5570  139.8760 C   0  0  0  0  0  2  0  0  0  0  0  0
  186.6360  178.3560  142.7430 C   0  0  1  0  0  3  0  0  0  0  0  0
  190.4130  177.4470  139.6490 C   0  0  0  0  0  3  0  0  0  0  0  0
  191.2890  177.4310  140.7340 C   0  0  0  0  0  3  0  0  0  0  0  0
  186.9780  177.9430  145.2670 C   0  0  0  0  0  0  0  0  0  0  0  0
  187.9480  177.6680  146.3320 C   0  0  0  0  0  0  0  0  0  0  0  0
  184.4630  179.0300  141.7240 C   0  0  1  0  0  3  0  0  0  0  0  0
  186.3230  178.6110  140.2840 C   0  0  0  0  0  2  0  0  0  0  0  0
  189.7840  177.0920  147.2390 C   0  0  0  0  0  0  0  0  0  0  0  0
  184.2650  179.2060  139.3250 C   0  0  0  0  0  2  0  0  0  0  0  0
  189.0410  177.5850  139.8650 C   0  0  0  0  0  3  0  0  0  0  0  0
  187.0330  177.7960  141.3700 C   0  0  1  0  0  3  0  0  0  0  0  0
  188.5280  177.7210  141.1640 C   0  0  0  0  0  0  0  0  0  0  0  0
  188.9100  177.8260  143.6820 C   0  0  2  0  0  3  0  0  0  0  0  0
  188.8860  177.4220  148.2380 C   0  0  0  0  0  3  0  0  0  0  0  0
  182.2220  177.7990  141.3860 C   0  0  0  0  0  2  0  0  0  0  0  0
  184.8760  178.4610  140.4270 N   0  0  2  0  0  0  0  0  0  0  0  0
  187.7190  177.7890  147.6560 N   0  0  0  0  0  0  0  0  0  0  0  0
  182.9390  179.0490  141.9150 C   0  0  0  0  0  2  0  0  0  0  0  0
  182.7980  178.8070  139.0860 C   0  0  1  0  0  3  0  0  0  0  0  0
  190.7910  177.5360  142.0330 C   0  0  0  0  0  3  0  0  0  0  0  0
  189.4110  177.6440  142.2670 C   0  0  0  0  0  0  0  0  0  0  0  0
  189.7060  176.9980  144.7080 C   0  0  0  0  0  2  0  0  0  0  0  0
  185.1150  178.2530  142.8670 C   0  0  0  0  0  2  0  0  0  0  0  0
  185.8310  178.3770  145.5540 O   0  0  0  0  0  0  0  0  0  0  0  0
  191.1830  176.6220  147.4410 C   0  0  0  0  0  1  0  0  0  0  0  0
  187.3860  177.5940  143.8450 C   0  0  2  0  0  3  0  0  0  0  0  0
  189.1920  177.2620  146.0490 N   0  0  0  0  0  0  0  0  0  0  0  0
  182.5770  178.5950  137.5980 C   0  0  0  0  0  2  0  0  0  0  0  0
  181.3110  179.2440  137.1530 C   0  0  0  0  0  0  0  0  0  0  0  0
  180.2120  178.4660  136.8180 O   0  0  0  0  0  0  0  0  0  0  0  0
  181.2290  180.4990  137.1080 O   0  0  0  0  0  1  0  0  0  0  0  0
  1 16  1  0  0  0  0
  2 24  1  1  0  0  0
  2 27  1  0  0  0  0
  3 11  2  0  0  0  0
  3  4  1  0  0  0  0
  4 21  2  0  0  0  0
  5 25  2  0  0  0  0
  5  6  1  0  0  0  0
  6 18  2  0  0  0  0
  7 19  1  1  0  0  0
  7 24  1  0  0  0  0
  8 17  1  0  0  0  0
  9 26  1  0  0  0  0
  9 15  2  0  0  0  0
 11 13  1  0  0  0  0
 12  8  1  6  0  0  0
 12  2  1  0  0  0  0
 13 12  1  0  0  0  0
 13 22  2  0  0  0  0
 14 27  1  0  0  0  0
 14 23  1  1  0  0  0
 16 19  1  0  0  0  0
 17 10  1  6  0  0  0
 17  7  1  0  0  0  0
 18 15  1  0  0  0  0
 20 29  1  6  0  0  0
 20 10  1  0  0  0  0
 20  1  1  0  0  0  0
 21 22  1  0  0  0  0
 22 14  1  0  0  0  0
 23 28  1  0  0  0  0
 27  5  1  1  0  0  0
 28  6  1  0  0  0  0
 28  9  1  0  0  0  0
 30 29  1  0  0  0  0
 31 30  2  0  0  0  0
 32 30  1  0  0  0  0
M  END
>  <MODEL>
7

>  <REMARK>
 VINA RESULT:      -9.2      4.104      7.041
  Name = 
  2 active torsions:
  status: ('A' for Active; 'I' for Inactive)
    1  A    between atoms: C_20  and  C_29
    2  A    between atoms: C_29  and  C_30
                            x       y       z     vdW  Elec       q    Type
                         _______ _______ _______ _____ _____    ______ ____

>  <TORSDO>
F 2

$$$$
=
 OpenBabel11122410363D

 32 37  0  0  1  0  0  0  0  0999 V2000
  188.6770  178.6150  147.6260 C   0  0  0  0  0  2  0  0  0  0  0  0
  186.0080  177.8870  143.2300 C   0  0  1  0  0  3  0  0  0  0  0  0
  189.4430  178.0290  139.6460 C   0  0  0  0  0  3  0  0  0  0  0  0
  188.4320  178.1290  138.6910 C   0  0  0  0  0  3  0  0  0  0  0  0
  183.6020  178.6280  142.6670 C   0  0  0  0  0  0  0  0  0  0  0  0
  182.6550  178.9710  141.6000 C   0  0  0  0  0  0  0  0  0  0  0  0
  186.7710  177.2550  145.5170 C   0  0  1  0  0  3  0  0  0  0  0  0
  188.3750  177.3090  143.7480 C   0  0  0  0  0  2  0  0  0  0  0  0
  181.9660  179.5180  139.6630 C   0  0  0  0  0  0  0  0  0  0  0  0
  189.0990  176.7550  145.9110 C   0  0  0  0  0  2  0  0  0  0  0  0
  189.1200  178.0380  141.0040 C   0  0  0  0  0  3  0  0  0  0  0  0
  187.4720  178.2100  142.9000 C   0  0  1  0  0  3  0  0  0  0  0  0
  187.7840  178.1310  141.4240 C   0  0  0  0  0  0  0  0  0  0  0  0
  185.3100  178.3570  140.8580 C   0  0  2  0  0  3  0  0  0  0  0  0
  180.8720  179.4100  140.5030 C   0  0  0  0  0  3  0  0  0  0  0  0
  187.1400  178.6050  147.6830 C   0  0  0  0  0  2  0  0  0  0  0  0
  188.1620  177.5960  145.1650 N   0  0  2  0  0  0  0  0  0  0  0  0
  181.3150  179.0610  141.7350 N   0  0  0  0  0  0  0  0  0  0  0  0
  186.4800  177.3890  147.0200 C   0  0  0  0  0  2  0  0  0  0  0  0
  189.2980  177.2350  147.3600 C   0  0  1  0  0  3  0  0  0  0  0  0
  187.1020  178.2520  139.0940 C   0  0  0  0  0  3  0  0  0  0  0  0
  186.7650  178.2920  140.4560 C   0  0  0  0  0  0  0  0  0  0  0  0
  184.4720  179.2550  139.9290 C   0  0  0  0  0  2  0  0  0  0  0  0
  185.8010  178.1320  144.7250 C   0  0  0  0  0  2  0  0  0  0  0  0
  183.1780  178.3350  143.8160 O   0  0  0  0  0  0  0  0  0  0  0  0
  181.9280  179.8950  138.2230 C   0  0  0  0  0  1  0  0  0  0  0  0
  185.0830  178.7350  142.3440 C   0  0  2  0  0  3  0  0  0  0  0  0
  183.0760  179.2290  140.3550 N   0  0  0  0  0  0  0  0  0  0  0  0
  190.7830  177.2490  147.6790 C   0  0  0  0  0  2  0  0  0  0  0  0
  191.5770  176.7350  146.5270 C   0  0  0  0  0  0  0  0  0  0  0  0
  191.7740  177.5320  145.4080 O   0  0  0  0  0  0  0  0  0  0  0  0
  192.0950  175.5890  146.5810 O   0  0  0  0  0  1  0  0  0  0  0  0
  1 16  1  0  0  0  0
  2 24  1  1  0  0  0
  3 11  1  0  0  0  0
  4 21  1  0  0  0  0
  4  3  2  0  0  0  0
  5 25  2  0  0  0  0
  6 18  2  0  0  0  0
  6  5  1  0  0  0  0
  7 24  1  6  0  0  0
  7 19  1  0  0  0  0
  9 28  1  0  0  0  0
  9 15  2  0  0  0  0
 10 20  1  0  0  0  0
 11 13  2  0  0  0  0
 12  2  1  0  0  0  0
 12  8  1  1  0  0  0
 13 12  1  0  0  0  0
 14 23  1  6  0  0  0
 14 27  1  0  0  0  0
 15 18  1  0  0  0  0
 17  8  1  6  0  0  0
 17  7  1  0  0  0  0
 17 10  1  0  0  0  0
 19 16  1  0  0  0  0
 20  1  1  0  0  0  0
 20 29  1  6  0  0  0
 21 22  2  0  0  0  0
 22 14  1  0  0  0  0
 22 13  1  0  0  0  0
 23 28  1  0  0  0  0
 26  9  1  0  0  0  0
 27  5  1  1  0  0  0
 27  2  1  0  0  0  0
 28  6  1  0  0  0  0
 30 32  1  0  0  0  0
 30 29  1  0  0  0  0
 31 30  2  0  0  0  0
M  END
>  <MODEL>
8

>  <REMARK>
 VINA RESULT:      -9.2      3.618      7.002
  Name = 
  2 active torsions:
  status: ('A' for Active; 'I' for Inactive)
    1  A    between atoms: C_20  and  C_29
    2  A    between atoms: C_29  and  C_30
                            x       y       z     vdW  Elec       q    Type
                         _______ _______ _______ _____ _____    ______ ____

>  <TORSDO>
F 2

$$$$
=
 OpenBabel11122410363D

 32 37  0  0  1  0  0  0  0  0999 V2000
  190.4130  176.3990  140.2960 C   0  0  0  0  0  2  0  0  0  0  0  0
  185.9350  178.8290  141.3100 C   0  0  1  0  0  3  0  0  0  0  0  0
  185.2560  178.2100  146.1900 C   0  0  0  0  0  3  0  0  0  0  0  0
  183.9390  178.6490  146.0550 C   0  0  0  0  0  3  0  0  0  0  0  0
  183.8620  179.0800  139.7950 C   0  0  0  0  0  0  0  0  0  0  0  0
  182.4110  179.2940  139.7460 C   0  0  0  0  0  0  0  0  0  0  0  0
  188.2750  178.7090  140.4590 C   0  0  1  0  0  3  0  0  0  0  0  0
  187.8930  178.4490  142.8030 C   0  0  0  0  0  2  0  0  0  0  0  0
  180.4010  179.4000  140.4340 C   0  0  0  0  0  0  0  0  0  0  0  0
  190.0910  178.2960  141.9940 C   0  0  0  0  0  2  0  0  0  0  0  0
  186.0560  178.0520  145.0570 C   0  0  0  0  0  3  0  0  0  0  0  0
  186.4220  178.0930  142.5660 C   0  0  1  0  0  3  0  0  0  0  0  0
  185.5550  178.3430  143.7780 C   0  0  0  0  0  0  0  0  0  0  0  0
  183.6310  179.0920  142.2860 C   0  0  2  0  0  3  0  0  0  0  0  0
  180.4210  179.7120  139.0870 C   0  0  0  0  0  3  0  0  0  0  0  0
  189.5700  176.9240  139.1220 C   0  0  0  0  0  2  0  0  0  0  0  0
  188.6970  177.9860  141.6730 N   0  0  2  0  0  0  0  0  0  0  0  0
  181.7030  179.6450  138.6530 N   0  0  0  0  0  0  0  0  0  0  0  0
  189.1530  178.3970  139.2370 C   0  0  0  0  0  2  0  0  0  0  0  0
  191.0850  177.5070  141.1220 C   0  0  1  0  0  3  0  0  0  0  0  0
  183.4190  178.9130  144.7880 C   0  0  0  0  0  3  0  0  0  0  0  0
  184.2020  178.7300  143.6380 C   0  0  0  0  0  0  0  0  0  0  0  0
  182.1390  178.7320  142.1520 C   0  0  0  0  0  2  0  0  0  0  0  0
  186.8150  178.3870  140.1390 C   0  0  0  0  0  2  0  0  0  0  0  0
  184.5630  179.2740  138.7660 O   0  0  0  0  0  0  0  0  0  0  0  0
  179.1900  179.3430  141.3000 C   0  0  0  0  0  1  0  0  0  0  0  0
  184.4430  178.5360  141.0890 C   0  0  2  0  0  3  0  0  0  0  0  0
  181.6530  179.1520  140.8410 N   0  0  0  0  0  0  0  0  0  0  0  0
  192.1710  176.9240  142.0110 C   0  0  0  0  0  2  0  0  0  0  0  0
  191.6100  176.5040  143.3260 C   0  0  0  0  0  0  0  0  0  0  0  0
  191.7620  177.3200  144.4390 O   0  0  0  0  0  1  0  0  0  0  0  0
  190.9730  175.4230  143.4230 O   0  0  0  0  0  0  0  0  0  0  0  0
  1 20  1  0  0  0  0
  2 24  1  6  0  0  0
  2 12  1  0  0  0  0
  4  3  1  0  0  0  0
  6  5  1  0  0  0  0
  6 28  1  0  0  0  0
  7 19  1  6  0  0  0
  7 17  1  0  0  0  0
  9 28  1  0  0  0  0
  9 26  1  0  0  0  0
 11  3  2  0  0  0  0
 12  8  1  1  0  0  0
 12 13  1  0  0  0  0
 13 11  1  0  0  0  0
 14 23  1  1  0  0  0
 14 22  1  0  0  0  0
 15  9  2  0  0  0  0
 16 19  1  0  0  0  0
 16  1  1  0  0  0  0
 17 10  1  1  0  0  0
 17  8  1  0  0  0  0
 18 15  1  0  0  0  0
 18  6  2  0  0  0  0
 20 10  1  0  0  0  0
 20 29  1  1  0  0  0
 21  4  2  0  0  0  0
 22 13  2  0  0  0  0
 22 21  1  0  0  0  0
 24  7  1  0  0  0  0
 25  5  2  0  0  0  0
 27  5  1  6  0  0  0
 27  2  1  0  0  0  0
 27 14  1  0  0  0  0
 28 23  1  0  0  0  0
 29 30  1  0  0  0  0
 30 32  2  0  0  0  0
 30 31  1  0  0  0  0
M  END
>  <MODEL>
9

>  <REMARK>
 VINA RESULT:      -8.9      3.129      5.233
  Name = 
  2 active torsions:
  status: ('A' for Active; 'I' for Inactive)
    1  A    between atoms: C_20  and  C_29
    2  A    between atoms: C_29  and  C_30
                            x       y       z     vdW  Elec       q    Type
                         _______ _______ _______ _____ _____    ______ ____

>  <TORSDO>
F 2

$$$$
