=
 OpenBabel11122411403D

 37 44  0  0  1  0  0  0  0  0999 V2000
  189.2080  177.5300  141.4550 C   0  0  2  0  0  3  0  0  0  0  0  0
  184.7100  178.2610  142.1780 C   0  0  0  0  0  0  0  0  0  0  0  0
  187.1820  178.0320  145.5240 C   0  0  0  0  0  0  0  0  0  0  0  0
  188.9080  177.3620  140.0550 N   0  0  0  0  0  0  0  0  0  0  0  0
  190.8220  177.6460  145.0450 C   0  0  0  0  0  3  0  0  0  0  0  0
  184.9760  178.4870  144.6320 C   0  0  0  0  0  0  0  0  0  0  0  0
  188.3930  177.5710  144.9980 C   0  0  0  0  0  0  0  0  0  0  0  0
  191.3710  176.9910  141.3840 C   0  0  2  0  0  3  0  0  0  0  0  0
  186.2760  178.0520  144.5070 C   0  0  0  0  0  0  0  0  0  0  0  0
  189.6440  177.5320  145.6970 C   0  0  0  0  0  0  0  0  0  0  0  0
  184.5470  178.9270  145.8880 C   0  0  0  0  0  3  0  0  0  0  0  0
  190.0760  176.6400  140.6200 C   0  0  1  0  0  3  0  0  0  0  0  0
  186.7760  177.5850  143.3790 N   0  0  0  0  0  0  0  0  0  0  0  0
  185.1140  179.6040  141.5970 C   0  0  0  0  0  1  0  0  0  0  0  0
  187.5600  178.3070  147.9170 C   0  0  0  0  0  3  0  0  0  0  0  0
  185.4550  178.8980  146.9690 C   0  0  0  0  0  3  0  0  0  0  0  0
  185.9490  177.3300  142.1950 C   0  0  0  0  0  2  0  0  0  0  0  0
  191.1660  176.6290  142.9000 C   0  0  1  0  0  3  0  0  0  0  0  0
  191.0040  177.7970  143.6820 O   0  0  0  0  0  0  0  0  0  0  0  0
  186.7830  178.4410  146.7960 C   0  0  0  0  0  0  0  0  0  0  0  0
  188.0590  177.2420  143.6330 C   0  0  0  0  0  0  0  0  0  0  0  0
  184.1580  178.4620  143.4960 O   0  0  0  0  0  0  0  0  0  0  0  0
  189.7420  177.4230  147.0770 N   0  0  0  0  0  0  0  0  0  0  0  0
  183.6490  177.6510  141.2860 C   0  0  0  0  0  1  0  0  0  0  0  0
  189.9900  175.8350  143.0760 O   0  0  0  0  0  0  0  0  0  0  0  0
  191.8080  178.3080  141.1860 O   0  0  0  0  0  1  0  0  0  0  0  0
  188.8410  176.5260  142.5590 C   0  0  2  0  0  3  0  0  0  0  0  0
  188.8440  177.8040  148.0290 C   0  0  0  0  0  3  0  0  0  0  0  0
  191.4990  175.6760  147.2360 C   0  0  0  0  0  3  0  0  0  0  0  0
  190.9590  176.9030  147.6650 C   0  0  0  0  0  0  0  0  0  0  0  0
  191.6200  177.6240  148.6740 C   0  0  0  0  0  3  0  0  0  0  0  0
  193.4220  177.8310  150.2180 F   0  0  0  0  0  0  0  0  0  0  0  0
  193.3210  175.9080  148.8140 C   0  0  0  0  0  3  0  0  0  0  0  0
  192.7950  177.1290  149.2460 C   0  0  0  0  0  0  0  0  0  0  0  0
  192.6740  175.1830  147.8100 C   0  0  0  0  0  3  0  0  0  0  0  0
  189.0380  178.4560  137.8960 C   0  0  0  0  0  1  0  0  0  0  0  0
  189.4050  178.5390  139.3630 C   0  0  0  0  0  2  0  0  0  0  0  0
  1  4  1  6  0  0  0
  1 27  1  0  0  0  0
  2 17  1  0  0  0  0
  2 22  1  0  0  0  0
  3 20  1  0  0  0  0
  5 10  2  0  0  0  0
  6 11  2  0  0  0  0
  7  3  1  0  0  0  0
  7 10  1  0  0  0  0
  8 26  1  1  0  0  0
  8 18  1  0  0  0  0
  9  6  1  0  0  0  0
  9  3  2  0  0  0  0
 10 23  1  0  0  0  0
 11 16  1  0  0  0  0
 12  4  1  6  0  0  0
 12  8  1  0  0  0  0
 12  1  1  0  0  0  0
 13 21  1  0  0  0  0
 13  9  1  0  0  0  0
 14  2  1  0  0  0  0
 15 28  2  0  0  0  0
 17 13  1  0  0  0  0
 18 25  1  6  0  0  0
 18 19  1  0  0  0  0
 19  5  1  0  0  0  0
 20 16  2  0  0  0  0
 20 15  1  0  0  0  0
 21  7  2  0  0  0  0
 22  6  1  0  0  0  0
 23 30  1  0  0  0  0
 23 28  1  0  0  0  0
 24  2  1  0  0  0  0
 27 25  1  1  0  0  0
 27 21  1  0  0  0  0
 29 30  2  0  0  0  0
 29 35  1  0  0  0  0
 30 31  1  0  0  0  0
 31 34  2  0  0  0  0
 33 34  1  0  0  0  0
 34 32  1  0  0  0  0
 35 33  2  0  0  0  0
 36 37  1  0  0  0  0
 37  4  1  0  0  0  0
M  END
>  <MODEL>
1

>  <REMARK>
 VINA RESULT:      -9.7      0.000      0.000
  Name = 
  2 active torsions:
  status: ('A' for Active; 'I' for Inactive)
    1  A    between atoms: N_4  and  C_37
    2  A    between atoms: N_23  and  C_30
                            x       y       z     vdW  Elec       q    Type
                         _______ _______ _______ _____ _____    ______ ____

>  <TORSDO>
F 2

$$$$
=
 OpenBabel11122411403D

 37 44  0  0  1  0  0  0  0  0999 V2000
  188.9620  177.1130  138.5120 C   0  0  2  0  0  3  0  0  0  0  0  0
  190.0870  177.3590  142.9800 C   0  0  0  0  0  0  0  0  0  0  0  0
  186.1440  178.2120  141.9420 C   0  0  0  0  0  0  0  0  0  0  0  0
  190.3560  176.8880  138.2210 N   0  0  0  0  0  0  0  0  0  0  0  0
  185.0950  177.8540  138.4200 C   0  0  0  0  0  3  0  0  0  0  0  0
  187.7700  177.8590  143.7030 C   0  0  0  0  0  0  0  0  0  0  0  0
  186.1890  178.2920  140.5460 C   0  0  0  0  0  0  0  0  0  0  0  0
  188.2180  177.2570  136.4140 C   0  0  2  0  0  3  0  0  0  0  0  0
  187.4190  178.0230  142.3810 C   0  0  0  0  0  0  0  0  0  0  0  0
  185.0500  178.3460  139.6780 C   0  0  0  0  0  0  0  0  0  0  0  0
  186.7550  177.9000  144.6630 C   0  0  0  0  0  3  0  0  0  0  0  0
  189.5170  177.5550  137.1930 C   0  0  1  0  0  3  0  0  0  0  0  0
  188.2980  178.0360  141.3970 N   0  0  0  0  0  0  0  0  0  0  0  0
  190.1350  175.8560  142.7700 C   0  0  0  0  0  1  0  0  0  0  0  0
  183.8210  178.6310  142.5560 C   0  0  0  0  0  3  0  0  0  0  0  0
  185.4240  178.1160  144.2430 C   0  0  0  0  0  3  0  0  0  0  0  0
  189.7450  178.0420  141.6320 C   0  0  0  0  0  2  0  0  0  0  0  0
  187.0520  178.0950  137.0550 C   0  0  1  0  0  3  0  0  0  0  0  0
  186.1820  177.2650  137.8000 O   0  0  0  0  0  0  0  0  0  0  0  0
  185.1080  178.2820  142.8730 C   0  0  0  0  0  0  0  0  0  0  0  0
  187.6010  178.2350  140.2550 C   0  0  0  0  0  0  0  0  0  0  0  0
  189.1220  177.6620  144.0080 O   0  0  0  0  0  0  0  0  0  0  0  0
  183.8190  178.8580  140.0660 N   0  0  0  0  0  0  0  0  0  0  0  0
  191.4550  177.8240  143.4330 C   0  0  0  0  0  1  0  0  0  0  0  0
  187.5710  179.0790  137.9530 O   0  0  0  0  0  0  0  0  0  0  0  0
  187.9210  175.8910  136.3080 O   0  0  0  0  0  1  0  0  0  0  0  0
  188.3660  178.4530  138.9730 C   0  0  2  0  0  3  0  0  0  0  0  0
  183.2840  178.9340  141.3180 C   0  0  0  0  0  3  0  0  0  0  0  0
  182.2530  178.4350  138.1880 C   0  0  0  0  0  3  0  0  0  0  0  0
  182.8960  179.3350  139.0580 C   0  0  0  0  0  0  0  0  0  0  0  0
  182.6280  180.7080  138.9390 C   0  0  0  0  0  3  0  0  0  0  0  0
  181.4880  182.5020  137.8600 F   0  0  0  0  0  0  0  0  0  0  0  0
  181.1060  180.2730  137.1080 C   0  0  0  0  0  3  0  0  0  0  0  0
  181.7380  181.1750  137.9670 C   0  0  0  0  0  0  0  0  0  0  0  0
  181.3630  178.9040  137.2180 C   0  0  0  0  0  3  0  0  0  0  0  0
  191.9580  175.1820  137.5890 C   0  0  0  0  0  1  0  0  0  0  0  0
  190.4970  175.4930  137.8420 C   0  0  0  0  0  2  0  0  0  0  0  0
  1  4  1  1  0  0  0
  1 27  1  0  0  0  0
  2 24  1  0  0  0  0
  2 22  1  0  0  0  0
  3  9  2  0  0  0  0
  3 20  1  0  0  0  0
  5 10  2  0  0  0  0
  6 22  1  0  0  0  0
  6 11  2  0  0  0  0
  7  3  1  0  0  0  0
  8 26  1  1  0  0  0
  8 18  1  0  0  0  0
  8 12  1  0  0  0  0
  9  6  1  0  0  0  0
 10 23  1  0  0  0  0
 10  7  1  0  0  0  0
 12  4  1  6  0  0  0
 12  1  1  0  0  0  0
 13 17  1  0  0  0  0
 13  9  1  0  0  0  0
 14  2  1  0  0  0  0
 15 20  1  0  0  0  0
 16 11  1  0  0  0  0
 17  2  1  0  0  0  0
 18 19  1  1  0  0  0
 18 25  1  0  0  0  0
 19  5  1  0  0  0  0
 20 16  2  0  0  0  0
 21  7  2  0  0  0  0
 21 13  1  0  0  0  0
 23 28  1  0  0  0  0
 27 25  1  6  0  0  0
 27 21  1  0  0  0  0
 28 15  2  0  0  0  0
 29 30  1  0  0  0  0
 30 23  1  0  0  0  0
 31 30  2  0  0  0  0
 32 34  1  0  0  0  0
 33 35  1  0  0  0  0
 33 34  2  0  0  0  0
 34 31  1  0  0  0  0
 35 29  2  0  0  0  0
 36 37  1  0  0  0  0
 37  4  1  0  0  0  0
M  END
>  <MODEL>
2

>  <REMARK>
 VINA RESULT:      -9.4      4.209      8.354
  Name = 
  2 active torsions:
  status: ('A' for Active; 'I' for Inactive)
    1  A    between atoms: N_4  and  C_37
    2  A    between atoms: N_23  and  C_30
                            x       y       z     vdW  Elec       q    Type
                         _______ _______ _______ _____ _____    ______ ____

>  <TORSDO>
F 2

$$$$
=
 OpenBabel11122411403D

 37 44  0  0  1  0  0  0  0  0999 V2000
  187.3580  178.0310  145.5300 C   0  0  2  0  0  3  0  0  0  0  0  0
  191.2840  176.4340  143.7060 C   0  0  0  0  0  0  0  0  0  0  0  0
  188.3450  177.7710  141.0730 C   0  0  0  0  0  0  0  0  0  0  0  0
  187.8450  177.6180  146.8230 N   0  0  0  0  0  0  0  0  0  0  0  0
  185.2490  179.2490  142.4360 C   0  0  0  0  0  3  0  0  0  0  0  0
  190.6100  176.9670  141.3810 C   0  0  0  0  0  0  0  0  0  0  0  0
  187.2300  177.9470  141.8980 C   0  0  0  0  0  0  0  0  0  0  0  0
  185.3100  178.6610  146.1490 C   0  0  2  0  0  3  0  0  0  0  0  0
  189.3410  177.2440  141.8380 C   0  0  0  0  0  0  0  0  0  0  0  0
  186.0130  178.6070  141.5250 C   0  0  0  0  0  0  0  0  0  0  0  0
  190.8980  177.2310  140.0390 C   0  0  0  0  0  3  0  0  0  0  0  0
  186.3790  177.6400  146.5930 C   0  0  1  0  0  3  0  0  0  0  0  0
  188.9500  177.0040  143.0750 N   0  0  0  0  0  0  0  0  0  0  0  0
  191.7730  177.7420  144.3000 C   0  0  0  0  0  1  0  0  0  0  0  0
  187.6170  178.3980  138.8310 C   0  0  0  0  0  3  0  0  0  0  0  0
  189.8810  177.7570  139.2110 C   0  0  0  0  0  3  0  0  0  0  0  0
  189.7790  176.2660  144.0350 C   0  0  0  0  0  2  0  0  0  0  0  0
  184.9420  178.3720  144.6480 C   0  0  1  0  0  3  0  0  0  0  0  0
  185.4920  179.3570  143.7930 O   0  0  0  0  0  0  0  0  0  0  0  0
  188.5890  178.0250  139.7230 C   0  0  0  0  0  0  0  0  0  0  0  0
  187.6540  177.3810  143.1560 C   0  0  0  0  0  0  0  0  0  0  0  0
  191.5370  176.4350  142.2860 O   0  0  0  0  0  0  0  0  0  0  0  0
  185.5550  178.6780  140.2170 N   0  0  0  0  0  0  0  0  0  0  0  0
  192.0560  175.2980  144.3440 C   0  0  0  0  0  1  0  0  0  0  0  0
  185.4670  177.1090  144.2320 O   0  0  0  0  0  0  0  0  0  0  0  0
  185.6700  179.9960  146.3810 O   0  0  0  0  0  1  0  0  0  0  0  0
  186.8910  177.0750  144.4210 C   0  0  2  0  0  3  0  0  0  0  0  0
  186.2720  178.6280  139.0580 C   0  0  0  0  0  3  0  0  0  0  0  0
  183.7220  179.9180  139.0940 C   0  0  0  0  0  3  0  0  0  0  0  0
  184.1460  178.8990  139.9660 C   0  0  0  0  0  0  0  0  0  0  0  0
  183.1830  178.0920  140.5940 C   0  0  0  0  0  3  0  0  0  0  0  0
  180.9010  177.5180  140.9670 F   0  0  0  0  0  0  0  0  0  0  0  0
  181.4100  179.3160  139.4900 C   0  0  0  0  0  3  0  0  0  0  0  0
  181.8210  178.3000  140.3570 C   0  0  0  0  0  0  0  0  0  0  0  0
  182.3600  180.1240  138.8590 C   0  0  0  0  0  3  0  0  0  0  0  0
  189.0550  178.4550  148.7490 C   0  0  0  0  0  1  0  0  0  0  0  0
  188.1980  178.8220  147.5550 C   0  0  0  0  0  2  0  0  0  0  0  0
  1 12  1  0  0  0  0
  1  4  1  1  0  0  0
  2 17  1  0  0  0  0
  2 14  1  0  0  0  0
  2 24  1  0  0  0  0
  3  9  1  0  0  0  0
  3  7  1  0  0  0  0
  4 37  1  0  0  0  0
  5 19  1  0  0  0  0
  6  9  2  0  0  0  0
  6 22  1  0  0  0  0
  7 21  2  0  0  0  0
  8 26  1  6  0  0  0
  8 12  1  0  0  0  0
  9 13  1  0  0  0  0
 10  7  1  0  0  0  0
 10  5  2  0  0  0  0
 11  6  1  0  0  0  0
 12  4  1  1  0  0  0
 13 21  1  0  0  0  0
 13 17  1  0  0  0  0
 15 28  2  0  0  0  0
 15 20  1  0  0  0  0
 16 20  1  0  0  0  0
 16 11  2  0  0  0  0
 18 19  1  6  0  0  0
 18  8  1  0  0  0  0
 20  3  2  0  0  0  0
 22  2  1  0  0  0  0
 23 10  1  0  0  0  0
 25 27  1  0  0  0  0
 25 18  1  0  0  0  0
 27 21  1  6  0  0  0
 27  1  1  0  0  0  0
 28 23  1  0  0  0  0
 29 30  1  0  0  0  0
 30 23  1  0  0  0  0
 30 31  2  0  0  0  0
 33 34  2  0  0  0  0
 34 31  1  0  0  0  0
 34 32  1  0  0  0  0
 35 29  2  0  0  0  0
 35 33  1  0  0  0  0
 37 36  1  0  0  0  0
M  END
>  <MODEL>
3

>  <REMARK>
 VINA RESULT:      -9.3      3.184      8.570
  Name = 
  2 active torsions:
  status: ('A' for Active; 'I' for Inactive)
    1  A    between atoms: N_4  and  C_37
    2  A    between atoms: N_23  and  C_30
                            x       y       z     vdW  Elec       q    Type
                         _______ _______ _______ _____ _____    ______ ____

>  <TORSDO>
F 2

$$$$
=
 OpenBabel11122411403D

 37 44  0  0  1  0  0  0  0  0999 V2000
  184.8770  178.2530  139.6560 C   0  0  2  0  0  3  0  0  0  0  0  0
  188.7990  177.8070  137.2670 C   0  0  0  0  0  0  0  0  0  0  0  0
  189.0240  177.4620  141.4130 C   0  0  0  0  0  0  0  0  0  0  0  0
  184.2190  178.6000  138.4220 N   0  0  0  0  0  0  0  0  0  0  0  0
  185.9160  177.6070  143.4000 C   0  0  0  0  0  3  0  0  0  0  0  0
  190.1540  177.2870  139.2760 C   0  0  0  0  0  0  0  0  0  0  0  0
  187.7600  177.8800  141.8400 C   0  0  0  0  0  0  0  0  0  0  0  0
  183.1690  178.6220  141.0420 C   0  0  2  0  0  3  0  0  0  0  0  0
  189.0750  177.6280  140.0620 C   0  0  0  0  0  0  0  0  0  0  0  0
  187.2410  177.7400  143.1690 C   0  0  0  0  0  0  0  0  0  0  0  0
  191.2790  176.7450  139.9040 C   0  0  0  0  0  3  0  0  0  0  0  0
  183.6850  179.1580  139.6890 C   0  0  1  0  0  3  0  0  0  0  0  0
  187.9760  178.1770  139.5810 N   0  0  0  0  0  0  0  0  0  0  0  0
  188.1050  176.5090  136.8950 C   0  0  0  0  0  1  0  0  0  0  0  0
  190.2540  176.8910  143.4400 C   0  0  0  0  0  3  0  0  0  0  0  0
  191.2680  176.5800  141.3060 C   0  0  0  0  0  3  0  0  0  0  0  0
  187.8640  178.6280  138.1900 C   0  0  0  0  0  2  0  0  0  0  0  0
  184.2960  178.8270  142.1190 C   0  0  1  0  0  3  0  0  0  0  0  0
  184.9070  177.5960  142.4540 O   0  0  0  0  0  0  0  0  0  0  0  0
  190.1380  176.9460  142.0760 C   0  0  0  0  0  0  0  0  0  0  0  0
  187.1520  178.3860  140.6320 C   0  0  0  0  0  0  0  0  0  0  0  0
  190.0610  177.5040  137.8970 O   0  0  0  0  0  0  0  0  0  0  0  0
  188.0450  177.6870  144.2990 N   0  0  0  0  0  0  0  0  0  0  0  0
  189.0550  178.5950  136.0010 C   0  0  0  0  0  1  0  0  0  0  0  0
  185.3230  179.6880  141.6190 O   0  0  0  0  0  0  0  0  0  0  0  0
  182.6930  177.3040  140.9860 O   0  0  0  0  0  1  0  0  0  0  0  0
  185.8730  179.1530  140.4040 C   0  0  2  0  0  3  0  0  0  0  0  0
  189.3400  177.2740  144.4060 C   0  0  0  0  0  3  0  0  0  0  0  0
  186.2120  178.6280  145.6830 C   0  0  0  0  0  3  0  0  0  0  0  0
  187.4860  178.0380  145.5880 C   0  0  0  0  0  0  0  0  0  0  0  0
  188.2120  177.7900  146.7640 C   0  0  0  0  0  3  0  0  0  0  0  0
  188.3880  177.8840  149.1380 F   0  0  0  0  0  0  0  0  0  0  0  0
  186.4140  178.7140  148.0940 C   0  0  0  0  0  3  0  0  0  0  0  0
  187.6790  178.1270  148.0110 C   0  0  0  0  0  0  0  0  0  0  0  0
  185.6810  178.9640  146.9310 C   0  0  0  0  0  3  0  0  0  0  0  0
  184.2610  176.3230  137.5930 C   0  0  0  0  0  1  0  0  0  0  0  0
  183.3840  177.4720  138.0470 C   0  0  0  0  0  2  0  0  0  0  0  0
  1  4  1  6  0  0  0
  1 12  1  0  0  0  0
  1 27  1  0  0  0  0
  2 22  1  0  0  0  0
  2 17  1  0  0  0  0
  3  7  1  0  0  0  0
  3 20  1  0  0  0  0
  6 11  2  0  0  0  0
  6  9  1  0  0  0  0
  7 10  1  0  0  0  0
  8 26  1  6  0  0  0
  8 18  1  0  0  0  0
  9  3  2  0  0  0  0
 10  5  2  0  0  0  0
 10 23  1  0  0  0  0
 11 16  1  0  0  0  0
 12  4  1  6  0  0  0
 12  8  1  0  0  0  0
 13  9  1  0  0  0  0
 13 21  1  0  0  0  0
 14  2  1  0  0  0  0
 15 28  2  0  0  0  0
 16 20  2  0  0  0  0
 17 13  1  0  0  0  0
 18 25  1  6  0  0  0
 18 19  1  0  0  0  0
 19  5  1  0  0  0  0
 20 15  1  0  0  0  0
 21  7  2  0  0  0  0
 22  6  1  0  0  0  0
 23 28  1  0  0  0  0
 23 30  1  0  0  0  0
 24  2  1  0  0  0  0
 27 21  1  1  0  0  0
 27 25  1  0  0  0  0
 29 35  1  0  0  0  0
 30 29  2  0  0  0  0
 30 31  1  0  0  0  0
 31 34  2  0  0  0  0
 34 33  1  0  0  0  0
 34 32  1  0  0  0  0
 35 33  2  0  0  0  0
 36 37  1  0  0  0  0
 37  4  1  0  0  0  0
M  END
>  <MODEL>
4

>  <REMARK>
 VINA RESULT:      -8.8      2.749      6.090
  Name = 
  2 active torsions:
  status: ('A' for Active; 'I' for Inactive)
    1  A    between atoms: N_4  and  C_37
    2  A    between atoms: N_23  and  C_30
                            x       y       z     vdW  Elec       q    Type
                         _______ _______ _______ _____ _____    ______ ____

>  <TORSDO>
F 2

$$$$
=
 OpenBabel11122411403D

 37 44  0  0  1  0  0  0  0  0999 V2000
  186.7640  177.6430  139.2760 C   0  0  2  0  0  3  0  0  0  0  0  0
  189.7110  177.6640  142.8270 C   0  0  0  0  0  0  0  0  0  0  0  0
  185.6720  178.2270  143.6770 C   0  0  0  0  0  0  0  0  0  0  0  0
  187.9010  177.5680  138.3920 N   0  0  0  0  0  0  0  0  0  0  0  0
  183.2120  178.0320  140.9310 C   0  0  0  0  0  3  0  0  0  0  0  0
  187.9190  177.8960  144.5220 C   0  0  0  0  0  0  0  0  0  0  0  0
  185.1000  178.4120  142.4150 C   0  0  0  0  0  0  0  0  0  0  0  0
  185.1740  177.8700  137.7280 C   0  0  2  0  0  3  0  0  0  0  0  0
  187.0190  178.1240  143.5050 C   0  0  0  0  0  0  0  0  0  0  0  0
  183.6950  178.4250  142.1300 C   0  0  0  0  0  0  0  0  0  0  0  0
  187.4220  177.7750  145.8230 C   0  0  0  0  0  3  0  0  0  0  0  0
  186.6660  178.2280  137.9010 C   0  0  1  0  0  3  0  0  0  0  0  0
  187.3780  178.2890  142.2460 N   0  0  0  0  0  0  0  0  0  0  0  0
  189.7380  176.1910  142.4590 C   0  0  0  0  0  1  0  0  0  0  0  0
  183.8310  178.3860  145.2700 C   0  0  0  0  0  3  0  0  0  0  0  0
  186.0330  177.8990  146.0410 C   0  0  0  0  0  3  0  0  0  0  0  0
  188.7810  178.4100  141.8360 C   0  0  0  0  0  2  0  0  0  0  0  0
  184.3640  178.5500  138.8910 C   0  0  1  0  0  3  0  0  0  0  0  0
  183.9480  177.5910  139.8460 O   0  0  0  0  0  0  0  0  0  0  0  0
  185.1440  178.1350  144.9650 C   0  0  0  0  0  0  0  0  0  0  0  0
  186.2450  178.5050  141.5410 C   0  0  0  0  0  0  0  0  0  0  0  0
  189.2760  177.8030  144.1950 O   0  0  0  0  0  0  0  0  0  0  0  0
  182.7330  178.7930  143.0610 N   0  0  0  0  0  0  0  0  0  0  0  0
  191.1140  178.2180  142.6950 C   0  0  0  0  0  1  0  0  0  0  0  0
  185.1710  179.5090  139.5780 O   0  0  0  0  0  0  0  0  0  0  0  0
  184.9300  176.4940  137.6170 O   0  0  0  0  0  1  0  0  0  0  0  0
  186.3620  178.8850  140.0860 C   0  0  2  0  0  3  0  0  0  0  0  0
  182.7930  178.7290  144.4210 C   0  0  0  0  0  3  0  0  0  0  0  0
  180.3020  179.1400  143.4230 C   0  0  0  0  0  3  0  0  0  0  0  0
  181.4390  179.2560  142.6020 C   0  0  0  0  0  0  0  0  0  0  0  0
  181.3060  179.8310  141.3280 C   0  0  0  0  0  3  0  0  0  0  0  0
  179.9430  180.8320  139.6490 F   0  0  0  0  0  0  0  0  0  0  0  0
  178.9370  180.1580  141.7010 C   0  0  0  0  0  3  0  0  0  0  0  0
  180.0610  180.2790  140.8800 C   0  0  0  0  0  0  0  0  0  0  0  0
  179.0570  179.5890  142.9710 C   0  0  0  0  0  3  0  0  0  0  0  0
  189.2570  175.9930  137.1440 C   0  0  0  0  0  1  0  0  0  0  0  0
  187.9340  176.2220  137.8460 C   0  0  0  0  0  2  0  0  0  0  0  0
  1  4  1  1  0  0  0
  1 27  1  0  0  0  0
  2 22  1  0  0  0  0
  3 20  1  0  0  0  0
  5 10  2  0  0  0  0
  6 11  2  0  0  0  0
  7  3  1  0  0  0  0
  8 26  1  1  0  0  0
  8 12  1  0  0  0  0
  8 18  1  0  0  0  0
  9  3  2  0  0  0  0
  9  6  1  0  0  0  0
 10  7  1  0  0  0  0
 10 23  1  0  0  0  0
 11 16  1  0  0  0  0
 12  4  1  6  0  0  0
 12  1  1  0  0  0  0
 13  9  1  0  0  0  0
 14  2  1  0  0  0  0
 17 13  1  0  0  0  0
 17  2  1  0  0  0  0
 18 25  1  1  0  0  0
 18 19  1  0  0  0  0
 19  5  1  0  0  0  0
 20 15  1  0  0  0  0
 20 16  2  0  0  0  0
 21 13  1  0  0  0  0
 21  7  2  0  0  0  0
 22  6  1  0  0  0  0
 23 28  1  0  0  0  0
 24  2  1  0  0  0  0
 27 25  1  6  0  0  0
 27 21  1  0  0  0  0
 28 15  2  0  0  0  0
 30 23  1  0  0  0  0
 30 29  2  0  0  0  0
 31 30  1  0  0  0  0
 32 34  1  0  0  0  0
 33 35  2  0  0  0  0
 34 31  2  0  0  0  0
 34 33  1  0  0  0  0
 35 29  1  0  0  0  0
 36 37  1  0  0  0  0
 37  4  1  0  0  0  0
M  END
>  <MODEL>
5

>  <REMARK>
 VINA RESULT:      -8.8      4.116      7.941
  Name = 
  2 active torsions:
  status: ('A' for Active; 'I' for Inactive)
    1  A    between atoms: N_4  and  C_37
    2  A    between atoms: N_23  and  C_30
                            x       y       z     vdW  Elec       q    Type
                         _______ _______ _______ _____ _____    ______ ____

>  <TORSDO>
F 2

$$$$
=
 OpenBabel11122411403D

 37 44  0  0  1  0  0  0  0  0999 V2000
  187.5590  178.0680  146.2640 C   0  0  2  0  0  3  0  0  0  0  0  0
  191.0180  176.6530  143.5580 C   0  0  0  0  0  0  0  0  0  0  0  0
  187.5320  177.9640  141.6920 C   0  0  0  0  0  0  0  0  0  0  0  0
  188.3330  177.6360  147.4000 N   0  0  0  0  0  0  0  0  0  0  0  0
  184.7800  179.3000  143.7590 C   0  0  0  0  0  3  0  0  0  0  0  0
  189.8290  177.2280  141.4610 C   0  0  0  0  0  0  0  0  0  0  0  0
  186.6250  178.0800  142.7500 C   0  0  0  0  0  0  0  0  0  0  0  0
  185.6840  178.6120  147.3440 C   0  0  2  0  0  3  0  0  0  0  0  0
  188.6860  177.4500  142.1980 C   0  0  0  0  0  0  0  0  0  0  0  0
  185.3380  178.7090  142.6800 C   0  0  0  0  0  0  0  0  0  0  0  0
  189.8020  177.5380  140.0980 C   0  0  0  0  0  3  0  0  0  0  0  0
  186.8520  177.6150  147.5040 C   0  0  1  0  0  3  0  0  0  0  0  0
  188.5890  177.1620  143.4820 N   0  0  0  0  0  0  0  0  0  0  0  0
  191.5930  177.9610  144.0730 C   0  0  0  0  0  1  0  0  0  0  0  0
  186.3050  178.6280  139.6910 C   0  0  0  0  0  3  0  0  0  0  0  0
  188.6130  178.0520  139.5360 C   0  0  0  0  0  3  0  0  0  0  0  0
  189.6290  176.4270  144.2070 C   0  0  0  0  0  2  0  0  0  0  0  0
  184.9980  178.3530  145.9530 C   0  0  1  0  0  3  0  0  0  0  0  0
  185.3180  179.3780  145.0320 O   0  0  0  0  0  0  0  0  0  0  0  0
  187.4610  178.2630  140.3310 C   0  0  0  0  0  0  0  0  0  0  0  0
  187.3340  177.4940  143.8620 C   0  0  0  0  0  0  0  0  0  0  0  0
  190.9470  176.7030  142.1180 O   0  0  0  0  0  0  0  0  0  0  0  0
  184.5980  178.8010  141.5090 N   0  0  0  0  0  0  0  0  0  0  0  0
  191.9430  175.5270  143.9680 C   0  0  0  0  0  1  0  0  0  0  0  0
  185.4500  177.1200  145.3870 O   0  0  0  0  0  0  0  0  0  0  0  0
  186.0520  179.9510  147.5360 O   0  0  0  0  0  1  0  0  0  0  0  0
  186.8810  177.1280  145.2540 C   0  0  2  0  0  3  0  0  0  0  0  0
  185.0390  178.8070  140.2190 C   0  0  0  0  0  3  0  0  0  0  0  0
  182.4070  179.2360  140.4280 C   0  0  0  0  0  3  0  0  0  0  0  0
  183.1630  178.9820  141.5870 C   0  0  0  0  0  0  0  0  0  0  0  0
  182.5080  178.9020  142.8260 C   0  0  0  0  0  3  0  0  0  0  0  0
  180.5010  178.9980  144.1080 F   0  0  0  0  0  0  0  0  0  0  0  0
  180.3820  179.3300  141.7520 C   0  0  0  0  0  3  0  0  0  0  0  0
  181.1230  179.0760  142.9080 C   0  0  0  0  0  0  0  0  0  0  0  0
  181.0220  179.4100  140.5130 C   0  0  0  0  0  3  0  0  0  0  0  0
  190.0750  178.5070  148.8440 C   0  0  0  0  0  1  0  0  0  0  0  0
  188.8080  178.8300  148.0770 C   0  0  0  0  0  2  0  0  0  0  0  0
  1  4  1  1  0  0  0
  1 12  1  0  0  0  0
  2 24  1  0  0  0  0
  2 14  1  0  0  0  0
  2 17  1  0  0  0  0
  3  9  1  0  0  0  0
  3  7  1  0  0  0  0
  4 37  1  0  0  0  0
  5 19  1  0  0  0  0
  6 22  1  0  0  0  0
  6  9  2  0  0  0  0
  7 21  2  0  0  0  0
  8 12  1  0  0  0  0
  8 26  1  6  0  0  0
  9 13  1  0  0  0  0
 10  7  1  0  0  0  0
 10  5  2  0  0  0  0
 11  6  1  0  0  0  0
 12  4  1  1  0  0  0
 13 21  1  0  0  0  0
 13 17  1  0  0  0  0
 15 28  2  0  0  0  0
 15 20  1  0  0  0  0
 16 11  2  0  0  0  0
 16 20  1  0  0  0  0
 18 19  1  6  0  0  0
 18  8  1  0  0  0  0
 20  3  2  0  0  0  0
 22  2  1  0  0  0  0
 23 30  1  0  0  0  0
 23 10  1  0  0  0  0
 25 18  1  0  0  0  0
 27 21  1  6  0  0  0
 27 25  1  0  0  0  0
 27  1  1  0  0  0  0
 28 23  1  0  0  0  0
 29 35  2  0  0  0  0
 29 30  1  0  0  0  0
 30 31  2  0  0  0  0
 31 34  1  0  0  0  0
 33 34  2  0  0  0  0
 34 32  1  0  0  0  0
 35 33  1  0  0  0  0
 37 36  1  0  0  0  0
M  END
>  <MODEL>
6

>  <REMARK>
 VINA RESULT:      -8.8      3.052      8.316
  Name = 
  2 active torsions:
  status: ('A' for Active; 'I' for Inactive)
    1  A    between atoms: N_4  and  C_37
    2  A    between atoms: N_23  and  C_30
                            x       y       z     vdW  Elec       q    Type
                         _______ _______ _______ _____ _____    ______ ____

>  <TORSDO>
F 2

$$$$
=
 OpenBabel11122411403D

 37 44  0  0  1  0  0  0  0  0999 V2000
  188.3080  177.5240  140.9530 C   0  0  2  0  0  3  0  0  0  0  0  0
  184.3340  178.3020  138.7400 C   0  0  0  0  0  0  0  0  0  0  0  0
  187.3880  176.4350  136.6080 C   0  0  0  0  0  0  0  0  0  0  0  0
  187.7760  178.2630  142.0710 N   0  0  0  0  0  0  0  0  0  0  0  0
  190.5360  175.5910  138.3440 C   0  0  0  0  0  3  0  0  0  0  0  0
  185.0780  177.1630  136.6680 C   0  0  0  0  0  0  0  0  0  0  0  0
  188.4960  176.5670  137.4510 C   0  0  0  0  0  0  0  0  0  0  0  0
  190.3760  177.2170  141.7300 C   0  0  2  0  0  3  0  0  0  0  0  0
  186.3520  177.1020  137.1880 C   0  0  0  0  0  0  0  0  0  0  0  0
  189.7540  175.8990  137.2850 C   0  0  0  0  0  0  0  0  0  0  0  0
  184.8290  176.5080  135.4590 C   0  0  0  0  0  3  0  0  0  0  0  0
  189.2450  178.2600  141.8600 C   0  0  1  0  0  3  0  0  0  0  0  0
  186.7070  177.7100  138.3040 N   0  0  0  0  0  0  0  0  0  0  0  0
  183.9070  177.1940  139.6850 C   0  0  0  0  0  1  0  0  0  0  0  0
  188.1890  175.2330  134.6430 C   0  0  0  0  0  3  0  0  0  0  0  0
  185.8870  175.8260  134.8190 C   0  0  0  0  0  3  0  0  0  0  0  0
  185.8220  178.6430  139.0090 C   0  0  0  0  0  2  0  0  0  0  0  0
  190.7540  177.0830  140.2100 C   0  0  1  0  0  3  0  0  0  0  0  0
  190.2740  175.8640  139.6740 O   0  0  0  0  0  0  0  0  0  0  0  0
  187.1830  175.7900  135.3880 C   0  0  0  0  0  0  0  0  0  0  0  0
  188.0190  177.4460  138.4920 C   0  0  0  0  0  0  0  0  0  0  0  0
  184.1080  177.8780  137.3800 O   0  0  0  0  0  0  0  0  0  0  0  0
  190.2380  175.4820  136.0530 N   0  0  0  0  0  0  0  0  0  0  0  0
  183.4910  179.5270  139.0230 C   0  0  0  0  0  1  0  0  0  0  0  0
  190.1690  178.1410  139.4470 O   0  0  0  0  0  0  0  0  0  0  0  0
  190.0850  175.9870  142.3370 O   0  0  0  0  0  1  0  0  0  0  0  0
  188.7420  178.1460  139.6160 C   0  0  2  0  0  3  0  0  0  0  0  0
  189.5400  175.1550  134.9280 C   0  0  0  0  0  3  0  0  0  0  0  0
  192.1880  173.9860  135.7040 C   0  0  0  0  0  3  0  0  0  0  0  0
  191.6610  175.2790  135.8800 C   0  0  0  0  0  0  0  0  0  0  0  0
  192.5360  176.3780  135.8810 C   0  0  0  0  0  3  0  0  0  0  0  0
  194.7460  177.2550  135.7180 F   0  0  0  0  0  0  0  0  0  0  0  0
  194.4240  174.9010  135.5430 C   0  0  0  0  0  3  0  0  0  0  0  0
  193.9110  176.1890  135.7140 C   0  0  0  0  0  0  0  0  0  0  0  0
  193.5630  173.8000  135.5380 C   0  0  0  0  0  3  0  0  0  0  0  0
  186.4280  177.8780  144.0490 C   0  0  0  0  0  1  0  0  0  0  0  0
  187.4760  177.3020  143.1190 C   0  0  0  0  0  2  0  0  0  0  0  0
  1 12  1  0  0  0  0
  1  4  1  1  0  0  0
  2 17  1  0  0  0  0
  2 24  1  0  0  0  0
  2 14  1  0  0  0  0
  3  9  1  0  0  0  0
  3  7  1  0  0  0  0
  4 37  1  0  0  0  0
  5 19  1  0  0  0  0
  6  9  2  0  0  0  0
  6 22  1  0  0  0  0
  7 21  2  0  0  0  0
  8 12  1  0  0  0  0
  8 26  1  6  0  0  0
  9 13  1  0  0  0  0
 10  7  1  0  0  0  0
 10  5  2  0  0  0  0
 11  6  1  0  0  0  0
 12  4  1  1  0  0  0
 13 21  1  0  0  0  0
 13 17  1  0  0  0  0
 15 28  2  0  0  0  0
 15 20  1  0  0  0  0
 16 20  1  0  0  0  0
 16 11  2  0  0  0  0
 18 25  1  6  0  0  0
 18  8  1  0  0  0  0
 19 18  1  0  0  0  0
 20  3  2  0  0  0  0
 22  2  1  0  0  0  0
 23 10  1  0  0  0  0
 25 27  1  0  0  0  0
 27 21  1  6  0  0  0
 27  1  1  0  0  0  0
 28 23  1  0  0  0  0
 29 30  1  0  0  0  0
 30 31  2  0  0  0  0
 30 23  1  0  0  0  0
 33 34  2  0  0  0  0
 34 32  1  0  0  0  0
 34 31  1  0  0  0  0
 35 33  1  0  0  0  0
 35 29  2  0  0  0  0
 37 36  1  0  0  0  0
M  END
>  <MODEL>
7

>  <REMARK>
 VINA RESULT:      -7.6      4.398      8.597
  Name = 
  2 active torsions:
  status: ('A' for Active; 'I' for Inactive)
    1  A    between atoms: N_4  and  C_37
    2  A    between atoms: N_23  and  C_30
                            x       y       z     vdW  Elec       q    Type
                         _______ _______ _______ _____ _____    ______ ____

>  <TORSDO>
F 2

$$$$
=
 OpenBabel11122411403D

 37 44  0  0  1  0  0  0  0  0999 V2000
  188.9150  177.6380  141.0530 C   0  0  2  0  0  3  0  0  0  0  0  0
  184.3840  178.2760  141.6440 C   0  0  0  0  0  0  0  0  0  0  0  0
  186.7670  178.1380  145.0590 C   0  0  0  0  0  0  0  0  0  0  0  0
  188.6590  177.4480  139.6470 N   0  0  0  0  0  0  0  0  0  0  0  0
  190.4270  177.8280  144.6850 C   0  0  0  0  0  3  0  0  0  0  0  0
  184.5760  178.5350  144.1010 C   0  0  0  0  0  0  0  0  0  0  0  0
  188.0020  177.6990  144.5710 C   0  0  0  0  0  0  0  0  0  0  0  0
  191.0910  177.1460  141.0480 C   0  0  2  0  0  3  0  0  0  0  0  0
  185.8900  178.1270  144.0170 C   0  0  0  0  0  0  0  0  0  0  0  0
  189.2340  177.6950  145.3050 C   0  0  0  0  0  0  0  0  0  0  0  0
  184.1040  178.9780  145.3400 C   0  0  0  0  0  3  0  0  0  0  0  0
  189.8260  176.7590  140.2520 C   0  0  1  0  0  3  0  0  0  0  0  0
  186.4310  177.6600  142.9080 N   0  0  0  0  0  0  0  0  0  0  0  0
  184.7740  179.6220  141.0600 C   0  0  0  0  0  1  0  0  0  0  0  0
  187.0720  178.4470  147.4590 C   0  0  0  0  0  3  0  0  0  0  0  0
  184.9810  178.9810  146.4470 C   0  0  0  0  0  3  0  0  0  0  0  0
  185.6420  177.3740  141.7060 C   0  0  0  0  0  2  0  0  0  0  0  0
  190.8520  176.7950  142.5620 C   0  0  1  0  0  3  0  0  0  0  0  0
  190.6430  177.9680  143.3260 O   0  0  0  0  0  0  0  0  0  0  0  0
  186.3240  178.5520  146.3150 C   0  0  0  0  0  0  0  0  0  0  0  0
  187.7130  177.3470  143.2020 C   0  0  0  0  0  0  0  0  0  0  0  0
  183.7920  178.4790  142.9440 O   0  0  0  0  0  0  0  0  0  0  0  0
  189.2960  177.6020  146.6890 N   0  0  0  0  0  0  0  0  0  0  0  0
  183.3620  177.6340  140.7300 C   0  0  0  0  0  1  0  0  0  0  0  0
  189.6890  175.9780  142.7140 O   0  0  0  0  0  0  0  0  0  0  0  0
  191.5040  178.4710  140.8470 O   0  0  0  0  0  1  0  0  0  0  0  0
  188.5400  176.6370  142.1580 C   0  0  2  0  0  3  0  0  0  0  0  0
  188.3630  177.9740  147.6110 C   0  0  0  0  0  3  0  0  0  0  0  0
  191.0000  177.7150  148.4900 C   0  0  0  0  0  3  0  0  0  0  0  0
  190.5070  177.1160  147.3160 C   0  0  0  0  0  0  0  0  0  0  0  0
  191.2050  176.0320  146.7580 C   0  0  0  0  0  3  0  0  0  0  0  0
  193.0400  174.5140  146.8110 F   0  0  0  0  0  0  0  0  0  0  0  0
  192.8570  176.1620  148.5220 C   0  0  0  0  0  3  0  0  0  0  0  0
  192.3750  175.5580  147.3580 C   0  0  0  0  0  0  0  0  0  0  0  0
  192.1700  177.2400  149.0870 C   0  0  0  0  0  3  0  0  0  0  0  0
  189.1880  178.3620  137.4650 C   0  0  0  0  0  1  0  0  0  0  0  0
  189.1480  178.6280  138.9570 C   0  0  0  0  0  2  0  0  0  0  0  0
  1  4  1  6  0  0  0
  1 27  1  0  0  0  0
  2 17  1  0  0  0  0
  2 22  1  0  0  0  0
  3 20  1  0  0  0  0
  5 10  2  0  0  0  0
  6 11  2  0  0  0  0
  7  3  1  0  0  0  0
  7 10  1  0  0  0  0
  8 26  1  1  0  0  0
  8 18  1  0  0  0  0
  9  6  1  0  0  0  0
  9  3  2  0  0  0  0
 10 23  1  0  0  0  0
 11 16  1  0  0  0  0
 12  4  1  6  0  0  0
 12  8  1  0  0  0  0
 12  1  1  0  0  0  0
 13 21  1  0  0  0  0
 13  9  1  0  0  0  0
 14  2  1  0  0  0  0
 15 28  2  0  0  0  0
 17 13  1  0  0  0  0
 18 25  1  6  0  0  0
 18 19  1  0  0  0  0
 19  5  1  0  0  0  0
 20 16  2  0  0  0  0
 20 15  1  0  0  0  0
 21  7  2  0  0  0  0
 22  6  1  0  0  0  0
 23 30  1  0  0  0  0
 23 28  1  0  0  0  0
 24  2  1  0  0  0  0
 27 25  1  1  0  0  0
 27 21  1  0  0  0  0
 29 35  1  0  0  0  0
 30 29  2  0  0  0  0
 31 30  1  0  0  0  0
 31 34  2  0  0  0  0
 32 34  1  0  0  0  0
 33 35  2  0  0  0  0
 34 33  1  0  0  0  0
 36 37  1  0  0  0  0
 37  4  1  0  0  0  0
M  END
>  <MODEL>
8

>  <REMARK>
 VINA RESULT:      -7.6      0.979      1.257
  Name = 
  2 active torsions:
  status: ('A' for Active; 'I' for Inactive)
    1  A    between atoms: N_4  and  C_37
    2  A    between atoms: N_23  and  C_30
                            x       y       z     vdW  Elec       q    Type
                         _______ _______ _______ _____ _____    ______ ____

>  <TORSDO>
F 2

$$$$
=
 OpenBabel11122411403D

 37 44  0  0  1  0  0  0  0  0999 V2000
  190.5990  176.9580  144.9770 C   0  0  2  0  0  3  0  0  0  0  0  0
  187.3120  178.2490  147.9480 C   0  0  0  0  0  0  0  0  0  0  0  0
  186.3490  178.2520  143.8940 C   0  0  0  0  0  0  0  0  0  0  0  0
  191.5160  176.9020  146.0880 N   0  0  0  0  0  0  0  0  0  0  0  0
  188.8430  177.0500  141.4530 C   0  0  0  0  0  3  0  0  0  0  0  0
  185.5930  178.5110  146.1820 C   0  0  0  0  0  0  0  0  0  0  0  0
  187.5850  178.0630  143.2700 C   0  0  0  0  0  0  0  0  0  0  0  0
  192.0610  176.5680  143.3380 C   0  0  2  0  0  3  0  0  0  0  0  0
  186.5790  178.3560  145.2330 C   0  0  0  0  0  0  0  0  0  0  0  0
  187.7800  177.7660  141.8810 C   0  0  0  0  0  0  0  0  0  0  0  0
  184.2660  178.5800  145.7470 C   0  0  0  0  0  3  0  0  0  0  0  0
  192.0550  177.2130  144.7410 C   0  0  1  0  0  3  0  0  0  0  0  0
  187.8640  178.3130  145.5270 N   0  0  0  0  0  0  0  0  0  0  0  0
  187.3740  176.7600  148.2400 C   0  0  0  0  0  1  0  0  0  0  0  0
  184.7130  178.4130  142.0930 C   0  0  0  0  0  3  0  0  0  0  0  0
  183.9940  178.4980  144.3640 C   0  0  0  0  0  3  0  0  0  0  0  0
  188.3750  178.5920  146.8730 C   0  0  0  0  0  2  0  0  0  0  0  0
  191.0120  177.3220  142.4420 C   0  0  1  0  0  3  0  0  0  0  0  0
  189.8590  176.5280  142.2340 O   0  0  0  0  0  0  0  0  0  0  0  0
  185.0390  178.3410  143.4220 C   0  0  0  0  0  0  0  0  0  0  0  0
  188.5280  178.1720  144.3570 C   0  0  0  0  0  0  0  0  0  0  0  0
  185.9760  178.5930  147.5260 O   0  0  0  0  0  0  0  0  0  0  0  0
  186.8870  178.1450  140.8880 N   0  0  0  0  0  0  0  0  0  0  0  0
  187.6380  179.0030  149.2190 C   0  0  0  0  0  1  0  0  0  0  0  0
  190.5850  178.5330  143.0720 O   0  0  0  0  0  0  0  0  0  0  0  0
  191.8760  175.1780  143.3530 O   0  0  0  0  0  1  0  0  0  0  0  0
  190.0340  178.2520  144.3690 C   0  0  2  0  0  3  0  0  0  0  0  0
  185.5480  178.3800  140.9900 C   0  0  0  0  0  3  0  0  0  0  0  0
  188.6790  178.6280  139.2410 C   0  0  0  0  0  3  0  0  0  0  0  0
  187.3500  178.2630  139.5210 C   0  0  0  0  0  0  0  0  0  0  0  0
  186.4720  178.0100  138.4540 C   0  0  0  0  0  3  0  0  0  0  0  0
  186.0570  177.8780  136.1120 F   0  0  0  0  0  0  0  0  0  0  0  0
  188.2340  178.4880  136.8650 C   0  0  0  0  0  3  0  0  0  0  0  0
  186.9120  178.1230  137.1330 C   0  0  0  0  0  0  0  0  0  0  0  0
  189.1170  178.7400  137.9180 C   0  0  0  0  0  3  0  0  0  0  0  0
  192.4310  175.3590  147.7190 C   0  0  0  0  0  1  0  0  0  0  0  0
  191.7790  175.4990  146.3580 C   0  0  0  0  0  2  0  0  0  0  0  0
  1  4  1  1  0  0  0
  2 14  1  0  0  0  0
  2 24  1  0  0  0  0
  3  9  1  0  0  0  0
  4 37  1  0  0  0  0
  5 10  2  0  0  0  0
  5 19  1  0  0  0  0
  6 22  1  0  0  0  0
  7  3  1  0  0  0  0
  7 21  2  0  0  0  0
  8 26  1  1  0  0  0
  8 12  1  0  0  0  0
  9 13  1  0  0  0  0
  9  6  2  0  0  0  0
 10  7  1  0  0  0  0
 11  6  1  0  0  0  0
 12  1  1  0  0  0  0
 12  4  1  1  0  0  0
 13 17  1  0  0  0  0
 15 20  1  0  0  0  0
 16 11  2  0  0  0  0
 17  2  1  0  0  0  0
 18 19  1  1  0  0  0
 18 25  1  0  0  0  0
 18  8  1  0  0  0  0
 20  3  2  0  0  0  0
 20 16  1  0  0  0  0
 21 27  1  0  0  0  0
 21 13  1  0  0  0  0
 22  2  1  0  0  0  0
 23 28  1  0  0  0  0
 23 10  1  0  0  0  0
 27 25  1  6  0  0  0
 27  1  1  0  0  0  0
 28 15  2  0  0  0  0
 29 30  1  0  0  0  0
 30 23  1  0  0  0  0
 31 30  2  0  0  0  0
 32 34  1  0  0  0  0
 33 34  2  0  0  0  0
 33 35  1  0  0  0  0
 34 31  1  0  0  0  0
 35 29  2  0  0  0  0
 37 36  1  0  0  0  0
M  END
>  <MODEL>
9

>  <REMARK>
 VINA RESULT:      -7.3      3.036      6.940
  Name = 
  2 active torsions:
  status: ('A' for Active; 'I' for Inactive)
    1  A    between atoms: N_4  and  C_37
    2  A    between atoms: N_23  and  C_30
                            x       y       z     vdW  Elec       q    Type
                         _______ _______ _______ _____ _____    ______ ____

>  <TORSDO>
F 2

$$$$
