=
 OpenBabel11122411583D

 28 32  0  0  1  0  0  0  0  0999 V2000
  179.8970  179.3210  141.0250 C   0  0  0  0  0  0  0  0  0  0  0  0
  179.1440  178.8980  136.9470 O   0  0  0  0  0  0  0  0  0  0  0  0
  185.4460  179.6860  140.5960 O   0  0  0  0  0  0  0  0  0  0  0  0
  179.5230  181.8240  139.8250 C   0  0  0  0  0  3  0  0  0  0  0  0
  184.6730  178.1990  138.9510 N   0  0  0  0  0  0  0  0  0  0  0  0
  180.1550  178.0230  141.7400 C   0  0  0  0  0  2  0  0  0  0  0  0
  180.6690  180.3460  135.6820 O   0  0  0  0  0  0  0  0  0  0  0  0
  180.5220  179.0130  136.3580 S   0  0  0  0  0  0  0  0  0  0  0  0
  181.5740  176.6480  135.5050 C   0  0  0  0  0  0  0  0  0  0  0  0
  181.7730  178.8780  137.6370 C   0  0  2  0  0  3  0  0  0  0  0  0
  182.5130  179.3920  144.1560 O   0  0  0  0  0  1  0  0  0  0  0  0
  182.4400  177.9050  139.7540 C   0  0  1  0  0  3  0  0  0  0  0  0
  182.3810  176.6530  136.6810 N   0  0  0  0  0  2  0  0  0  0  0  0
  180.7460  177.7620  135.1940 N   0  0  0  0  0  2  0  0  0  0  0  0
  182.0440  179.0650  142.8850 C   0  0  1  0  0  3  0  0  0  0  0  0
  180.4700  179.5790  139.7570 C   0  0  0  0  0  0  0  0  0  0  0  0
  184.5190  178.9830  140.1130 C   0  0  0  0  0  0  0  0  0  0  0  0
  181.4840  175.2980  134.5940 S   0  0  0  0  0  0  0  0  0  0  0  0
  183.1620  178.3980  142.0950 C   0  0  0  0  0  2  0  0  0  0  0  0
  180.2780  180.8450  139.1770 C   0  0  0  0  0  3  0  0  0  0  0  0
  179.1320  180.3070  141.6630 C   0  0  0  0  0  3  0  0  0  0  0  0
  178.9440  181.5520  141.0640 C   0  0  0  0  0  3  0  0  0  0  0  0
  180.8660  178.2010  143.0130 N   0  0  0  0  0  2  0  0  0  0  0  0
  183.4530  177.4680  138.6760 C   0  0  1  0  0  3  0  0  0  0  0  0
  183.1520  178.9210  140.6680 C   0  0  2  0  0  3  0  0  0  0  0  0
  182.8780  177.8680  137.3240 C   0  0  2  0  0  3  0  0  0  0  0  0
  185.9360  177.9670  138.2700 C   0  0  0  0  0  1  0  0  0  0  0  0
  181.2350  178.4940  139.0080 C   0  0  1  0  0  3  0  0  0  0  0  0
  1 21  1  0  0  0  0
  1  6  1  0  0  0  0
  4 22  1  0  0  0  0
  5 17  1  0  0  0  0
  6 23  1  0  0  0  0
  7  8  2  0  0  0  0
  8  2  2  0  0  0  0
  9 13  1  0  0  0  0
 10  8  1  6  0  0  0
 10 28  1  0  0  0  0
 12 25  1  0  0  0  0
 13 26  1  0  0  0  0
 14  9  1  0  0  0  0
 14  8  1  0  0  0  0
 15 23  1  0  0  0  0
 15 11  1  0  0  0  0
 16  1  2  0  0  0  0
 17  3  2  0  0  0  0
 17 25  1  0  0  0  0
 18  9  2  0  0  0  0
 19 15  1  0  0  0  0
 20 16  1  0  0  0  0
 20  4  2  0  0  0  0
 22 21  2  0  0  0  0
 24  5  1  0  0  0  0
 24 12  1  0  0  0  0
 25 19  1  0  0  0  0
 26 10  1  0  0  0  0
 26 24  1  0  0  0  0
 27  5  1  0  0  0  0
 28 12  1  0  0  0  0
 28 16  1  0  0  0  0
M  END
>  <MODEL>
1

>  <REMARK>
 VINA RESULT:      -5.5      0.000      0.000
  Name = 
  0 active torsions:
  status: ('A' for Active; 'I' for Inactive)
                            x       y       z     vdW  Elec       q    Type
                         _______ _______ _______ _____ _____    ______ ____

>  <TORSDO>
F 0

$$$$
=
 OpenBabel11122411583D

 28 32  0  0  1  0  0  0  0  0999 V2000
  184.4850  175.0930  136.8080 C   0  0  0  0  0  0  0  0  0  0  0  0
  185.9940  178.2940  139.0110 O   0  0  0  0  0  0  0  0  0  0  0  0
  179.0930  176.2780  137.6060 O   0  0  0  0  0  0  0  0  0  0  0  0
  184.8550  177.3340  135.1680 C   0  0  0  0  0  3  0  0  0  0  0  0
  180.2740  176.8570  139.5520 N   0  0  0  0  0  0  0  0  0  0  0  0
  184.2140  173.8600  137.6250 C   0  0  0  0  0  2  0  0  0  0  0  0
  184.6040  180.2790  138.6200 O   0  0  0  0  0  0  0  0  0  0  0  0
  184.7390  179.0160  139.4200 S   0  0  0  0  0  0  0  0  0  0  0  0
  184.0640  178.6840  142.0390 C   0  0  0  0  0  0  0  0  0  0  0  0
  183.2950  177.9930  139.1250 C   0  0  2  0  0  3  0  0  0  0  0  0
  181.3510  172.7410  135.6690 O   0  0  0  0  0  1  0  0  0  0  0  0
  182.3430  175.7660  139.0540 C   0  0  1  0  0  3  0  0  0  0  0  0
  183.0610  177.7690  141.6020 N   0  0  0  0  0  2  0  0  0  0  0  0
  184.8360  179.4130  141.0940 N   0  0  0  0  0  2  0  0  0  0  0  0
  182.0670  173.6140  136.4850 C   0  0  1  0  0  3  0  0  0  0  0  0
  184.1300  176.3760  137.2890 C   0  0  0  0  0  0  0  0  0  0  0  0
  180.1490  176.2350  138.2930 C   0  0  0  0  0  0  0  0  0  0  0  0
  184.4320  178.7790  143.6250 S   0  0  0  0  0  0  0  0  0  0  0  0
  181.1710  174.0860  137.6220 C   0  0  0  0  0  2  0  0  0  0  0  0
  184.3150  177.4860  136.4460 C   0  0  0  0  0  3  0  0  0  0  0  0
  185.0350  174.9520  135.5270 C   0  0  0  0  0  3  0  0  0  0  0  0
  185.2220  176.0680  134.7120 C   0  0  0  0  0  3  0  0  0  0  0  0
  183.2730  172.9380  136.9750 N   0  0  0  0  0  2  0  0  0  0  0  0
  181.5820  176.5870  140.1150 C   0  0  1  0  0  3  0  0  0  0  0  0
  181.3930  175.5710  137.8560 C   0  0  2  0  0  3  0  0  0  0  0  0
  182.3550  177.8820  140.3270 C   0  0  2  0  0  3  0  0  0  0  0  0
  179.1790  177.4700  140.2850 C   0  0  0  0  0  1  0  0  0  0  0  0
  183.6080  176.5630  138.7100 C   0  0  1  0  0  3  0  0  0  0  0  0
  1 16  1  0  0  0  0
  1  6  1  0  0  0  0
  2  8  2  0  0  0  0
  3 17  2  0  0  0  0
  4 20  1  0  0  0  0
  5 24  1  0  0  0  0
  5 27  1  0  0  0  0
  7  8  2  0  0  0  0
  8 14  1  0  0  0  0
  9 18  2  0  0  0  0
 10  8  1  1  0  0  0
 10 26  1  0  0  0  0
 11 15  1  0  0  0  0
 12 24  1  0  0  0  0
 13  9  1  0  0  0  0
 14  9  1  0  0  0  0
 15 23  1  0  0  0  0
 15 19  1  0  0  0  0
 16 28  1  0  0  0  0
 17  5  1  0  0  0  0
 19 25  1  0  0  0  0
 20 16  2  0  0  0  0
 21  1  2  0  0  0  0
 22  4  2  0  0  0  0
 22 21  1  0  0  0  0
 23  6  1  0  0  0  0
 24 26  1  0  0  0  0
 25 17  1  0  0  0  0
 25 12  1  0  0  0  0
 26 13  1  0  0  0  0
 28 12  1  0  0  0  0
 28 10  1  0  0  0  0
M  END
>  <MODEL>
2

>  <REMARK>
 VINA RESULT:      -5.4      3.352      6.847
  Name = 
  0 active torsions:
  status: ('A' for Active; 'I' for Inactive)
                            x       y       z     vdW  Elec       q    Type
                         _______ _______ _______ _____ _____    ______ ____

>  <TORSDO>
F 0

$$$$
=
 OpenBabel11122411583D

 28 32  0  0  1  0  0  0  0  0999 V2000
  189.3280  178.1670  138.8480 C   0  0  0  0  0  0  0  0  0  0  0  0
  193.4410  177.4870  138.8790 O   0  0  0  0  0  0  0  0  0  0  0  0
  187.9300  173.3980  136.3170 O   0  0  0  0  0  0  0  0  0  0  0  0
  190.0920  176.8350  141.1910 C   0  0  0  0  0  3  0  0  0  0  0  0
  189.9830  174.1270  135.4400 N   0  0  0  0  0  0  0  0  0  0  0  0
  188.8260  178.8400  137.6000 C   0  0  0  0  0  2  0  0  0  0  0  0
  193.8710  175.1160  139.3430 O   0  0  0  0  0  0  0  0  0  0  0  0
  193.5380  176.1150  138.2720 S   0  0  0  0  0  0  0  0  0  0  0  0
  194.4500  176.0920  135.7040 C   0  0  0  0  0  0  0  0  0  0  0  0
  191.9820  175.6450  137.5130 C   0  0  2  0  0  3  0  0  0  0  0  0
  185.5830  177.1810  137.5620 O   0  0  0  0  0  1  0  0  0  0  0  0
  189.9860  176.3460  136.3310 C   0  0  1  0  0  3  0  0  0  0  0  0
  193.1030  175.8730  135.2920 N   0  0  0  0  0  2  0  0  0  0  0  0
  194.7880  176.1100  137.0850 N   0  0  0  0  0  2  0  0  0  0  0  0
  186.9750  177.2490  137.5240 C   0  0  1  0  0  3  0  0  0  0  0  0
  190.2820  177.1240  138.7790 C   0  0  0  0  0  0  0  0  0  0  0  0
  188.8010  174.2990  136.1890 C   0  0  0  0  0  0  0  0  0  0  0  0
  195.5810  176.4770  134.5940 S   0  0  0  0  0  0  0  0  0  0  0  0
  187.4880  176.3850  136.3790 C   0  0  0  0  0  2  0  0  0  0  0  0
  190.6440  176.4620  139.9650 C   0  0  0  0  0  3  0  0  0  0  0  0
  188.7870  178.5410  140.0860 C   0  0  0  0  0  3  0  0  0  0  0  0
  189.1690  177.8790  141.2520 C   0  0  0  0  0  3  0  0  0  0  0  0
  187.3860  178.6500  137.3870 N   0  0  0  0  0  2  0  0  0  0  0  0
  190.7570  175.3520  135.4380 C   0  0  1  0  0  3  0  0  0  0  0  0
  188.7220  175.6240  136.8360 C   0  0  2  0  0  3  0  0  0  0  0  0
  192.1200  175.1290  136.0790 C   0  0  2  0  0  3  0  0  0  0  0  0
  190.2670  172.9800  134.5940 C   0  0  0  0  0  1  0  0  0  0  0  0
  190.9460  176.7570  137.4560 C   0  0  1  0  0  3  0  0  0  0  0  0
  1 21  1  0  0  0  0
  4 22  1  0  0  0  0
  5 17  1  0  0  0  0
  6  1  1  0  0  0  0
  8  2  2  0  0  0  0
  8  7  2  0  0  0  0
  9 14  1  0  0  0  0
 10  8  1  6  0  0  0
 12 25  1  0  0  0  0
 12 28  1  0  0  0  0
 13  9  1  0  0  0  0
 13 26  1  0  0  0  0
 14  8  1  0  0  0  0
 15 11  1  0  0  0  0
 16  1  2  0  0  0  0
 16 20  1  0  0  0  0
 17  3  2  0  0  0  0
 17 25  1  0  0  0  0
 18  9  2  0  0  0  0
 19 25  1  0  0  0  0
 19 15  1  0  0  0  0
 20  4  2  0  0  0  0
 21 22  2  0  0  0  0
 23 15  1  0  0  0  0
 23  6  1  0  0  0  0
 24  5  1  0  0  0  0
 24 26  1  0  0  0  0
 24 12  1  0  0  0  0
 26 10  1  0  0  0  0
 27  5  1  0  0  0  0
 28 10  1  0  0  0  0
 28 16  1  0  0  0  0
M  END
>  <MODEL>
3

>  <REMARK>
 VINA RESULT:      -5.4      7.225     10.438
  Name = 
  0 active torsions:
  status: ('A' for Active; 'I' for Inactive)
                            x       y       z     vdW  Elec       q    Type
                         _______ _______ _______ _____ _____    ______ ____

>  <TORSDO>
F 0

$$$$
=
 OpenBabel11122411583D

 28 32  0  0  1  0  0  0  0  0999 V2000
  187.1390  176.2560  135.8200 C   0  0  0  0  0  0  0  0  0  0  0  0
  182.9850  175.9910  136.0380 O   0  0  0  0  0  0  0  0  0  0  0  0
  187.9430  177.7750  141.1260 O   0  0  0  0  0  0  0  0  0  0  0  0
  186.3510  173.6710  136.5570 C   0  0  0  0  0  3  0  0  0  0  0  0
  185.9360  178.7370  140.3770 N   0  0  0  0  0  0  0  0  0  0  0  0
  187.6490  177.6270  135.4730 C   0  0  0  0  0  2  0  0  0  0  0  0
  182.3420  175.0360  138.2050 O   0  0  0  0  0  0  0  0  0  0  0  0
  182.7240  176.2980  137.4870 S   0  0  0  0  0  0  0  0  0  0  0  0
  181.7020  178.7840  137.9360 C   0  0  0  0  0  0  0  0  0  0  0  0
  184.1910  176.9790  138.2650 C   0  0  2  0  0  3  0  0  0  0  0  0
  190.7060  177.3950  137.4410 O   0  0  0  0  0  1  0  0  0  0  0  0
  186.1920  178.3250  138.0350 C   0  0  1  0  0  3  0  0  0  0  0  0
  183.0010  179.1720  138.3770 N   0  0  0  0  0  2  0  0  0  0  0  0
  181.4290  177.4290  137.6010 N   0  0  0  0  0  2  0  0  0  0  0  0
  189.3290  177.4140  137.2340 C   0  0  1  0  0  3  0  0  0  0  0  0
  186.0840  176.0860  136.7480 C   0  0  0  0  0  0  0  0  0  0  0  0
  187.1610  178.0660  140.1830 C   0  0  0  0  0  0  0  0  0  0  0  0
  180.5670  179.9240  137.6680 S   0  0  0  0  0  0  0  0  0  0  0  0
  188.6820  178.3430  138.2530 C   0  0  0  0  0  2  0  0  0  0  0  0
  185.7110  174.7800  137.1110 C   0  0  0  0  0  3  0  0  0  0  0  0
  187.7690  175.1360  135.2620 C   0  0  0  0  0  3  0  0  0  0  0  0
  187.3750  173.8480  135.6270 C   0  0  0  0  0  3  0  0  0  0  0  0
  189.0530  177.8300  135.8550 N   0  0  0  0  0  2  0  0  0  0  0  0
  185.2880  178.9740  139.1030 C   0  0  1  0  0  3  0  0  0  0  0  0
  187.4000  177.7100  138.7700 C   0  0  2  0  0  3  0  0  0  0  0  0
  183.9390  178.2710  139.0440 C   0  0  2  0  0  3  0  0  0  0  0  0
  185.5020  179.3190  141.6360 C   0  0  0  0  0  1  0  0  0  0  0  0
  185.3290  177.2890  137.3040 C   0  0  1  0  0  3  0  0  0  0  0  0
  1 16  1  0  0  0  0
  2  8  2  0  0  0  0
  4 20  1  0  0  0  0
  5 27  1  0  0  0  0
  6  1  1  0  0  0  0
  6 23  1  0  0  0  0
  8 14  1  0  0  0  0
  8  7  2  0  0  0  0
  9 13  1  0  0  0  0
 10  8  1  6  0  0  0
 10 26  1  0  0  0  0
 12 25  1  0  0  0  0
 12 24  1  0  0  0  0
 13 26  1  0  0  0  0
 14  9  1  0  0  0  0
 15 11  1  0  0  0  0
 15 19  1  0  0  0  0
 16 20  2  0  0  0  0
 16 28  1  0  0  0  0
 17  5  1  0  0  0  0
 17  3  2  0  0  0  0
 18  9  2  0  0  0  0
 19 25  1  0  0  0  0
 21 22  1  0  0  0  0
 21  1  2  0  0  0  0
 22  4  2  0  0  0  0
 23 15  1  0  0  0  0
 24  5  1  0  0  0  0
 25 17  1  0  0  0  0
 26 24  1  0  0  0  0
 28 12  1  0  0  0  0
 28 10  1  0  0  0  0
M  END
>  <MODEL>
4

>  <REMARK>
 VINA RESULT:      -5.2      3.308      6.947
  Name = 
  0 active torsions:
  status: ('A' for Active; 'I' for Inactive)
                            x       y       z     vdW  Elec       q    Type
                         _______ _______ _______ _____ _____    ______ ____

>  <TORSDO>
F 0

$$$$
=
 OpenBabel11122411583D

 28 32  0  0  1  0  0  0  0  0999 V2000
  187.4800  177.3150  136.9920 C   0  0  0  0  0  0  0  0  0  0  0  0
  183.4070  177.4160  136.1120 O   0  0  0  0  0  0  0  0  0  0  0  0
  186.9210  177.4920  142.5390 O   0  0  0  0  0  0  0  0  0  0  0  0
  186.4340  174.7200  136.8530 C   0  0  0  0  0  3  0  0  0  0  0  0
  185.2160  178.7920  141.5810 N   0  0  0  0  0  0  0  0  0  0  0  0
  188.1120  178.6720  137.1300 C   0  0  0  0  0  2  0  0  0  0  0  0
  182.1850  176.0580  137.7520 O   0  0  0  0  0  0  0  0  0  0  0  0
  182.7870  177.4070  137.4820 S   0  0  0  0  0  0  0  0  0  0  0  0
  181.7730  179.8120  138.2660 C   0  0  0  0  0  0  0  0  0  0  0  0
  184.0220  177.7440  138.7390 C   0  0  2  0  0  3  0  0  0  0  0  0
  190.5370  177.6970  139.6680 O   0  0  0  0  0  1  0  0  0  0  0  0
  186.0610  178.9050  139.3470 C   0  0  1  0  0  3  0  0  0  0  0  0
  182.9250  179.9600  139.0930 N   0  0  0  0  0  2  0  0  0  0  0  0
  181.5490  178.6040  137.5510 N   0  0  0  0  0  2  0  0  0  0  0  0
  189.2630  177.8980  139.1410 C   0  0  1  0  0  3  0  0  0  0  0  0
  186.2130  177.0410  137.5610 C   0  0  0  0  0  0  0  0  0  0  0  0
  186.4240  178.0680  141.5340 C   0  0  0  0  0  0  0  0  0  0  0  0
  180.7890  181.0890  138.0170 S   0  0  0  0  0  0  0  0  0  0  0  0
  188.4060  178.6280  140.1670 C   0  0  0  0  0  2  0  0  0  0  0  0
  185.7110  175.7300  137.4890 C   0  0  0  0  0  3  0  0  0  0  0  0
  188.1940  176.2960  136.3470 C   0  0  0  0  0  3  0  0  0  0  0  0
  187.6710  175.0040  136.2760 C   0  0  0  0  0  3  0  0  0  0  0  0
  189.3730  178.6430  137.8820 N   0  0  0  0  0  2  0  0  0  0  0  0
  184.9330  179.3780  140.2860 C   0  0  1  0  0  3  0  0  0  0  0  0
  187.0120  178.0220  140.1800 C   0  0  2  0  0  3  0  0  0  0  0  0
  183.6220  178.8420  139.7270 C   0  0  2  0  0  3  0  0  0  0  0  0
  184.4880  179.1110  142.7990 C   0  0  0  0  0  1  0  0  0  0  0  0
  185.3830  178.1530  138.1940 C   0  0  1  0  0  3  0  0  0  0  0  0
  1  6  1  0  0  0  0
  1 16  1  0  0  0  0
  2  8  2  0  0  0  0
  4 20  1  0  0  0  0
  5 27  1  0  0  0  0
  6 23  1  0  0  0  0
  8 14  1  0  0  0  0
  8  7  2  0  0  0  0
  9 13  1  0  0  0  0
 10  8  1  6  0  0  0
 10 26  1  0  0  0  0
 12 25  1  0  0  0  0
 12 24  1  0  0  0  0
 13 26  1  0  0  0  0
 14  9  1  0  0  0  0
 15 11  1  0  0  0  0
 15 19  1  0  0  0  0
 16 28  1  0  0  0  0
 17  5  1  0  0  0  0
 17  3  2  0  0  0  0
 18  9  2  0  0  0  0
 19 25  1  0  0  0  0
 20 16  2  0  0  0  0
 21  1  2  0  0  0  0
 22 21  1  0  0  0  0
 22  4  2  0  0  0  0
 23 15  1  0  0  0  0
 24  5  1  0  0  0  0
 25 17  1  0  0  0  0
 26 24  1  0  0  0  0
 28 10  1  0  0  0  0
 28 12  1  0  0  0  0
M  END
>  <MODEL>
5

>  <REMARK>
 VINA RESULT:      -5.1      3.020      6.515
  Name = 
  0 active torsions:
  status: ('A' for Active; 'I' for Inactive)
                            x       y       z     vdW  Elec       q    Type
                         _______ _______ _______ _____ _____    ______ ____

>  <TORSDO>
F 0

$$$$
=
 OpenBabel11122411583D

 28 32  0  0  1  0  0  0  0  0999 V2000
  186.3900  177.0440  137.2160 C   0  0  0  0  0  0  0  0  0  0  0  0
  182.9790  176.5520  134.8710 O   0  0  0  0  0  0  0  0  0  0  0  0
  183.7120  177.9160  142.0300 O   0  0  0  0  0  0  0  0  0  0  0  0
  185.6220  174.3520  137.1420 C   0  0  0  0  0  3  0  0  0  0  0  0
  182.4450  178.8660  140.2960 N   0  0  0  0  0  0  0  0  0  0  0  0
  186.8440  178.4720  137.3460 C   0  0  0  0  0  2  0  0  0  0  0  0
  181.2920  175.3000  136.1400 O   0  0  0  0  0  0  0  0  0  0  0  0
  181.8770  176.6590  135.8890 S   0  0  0  0  0  0  0  0  0  0  0  0
  180.5100  179.0150  135.8100 C   0  0  0  0  0  0  0  0  0  0  0  0
  182.5070  177.3070  137.4390 C   0  0  2  0  0  3  0  0  0  0  0  0
  188.1420  178.1420  140.7340 O   0  0  0  0  0  1  0  0  0  0  0  0
  184.0840  178.7680  138.5580 C   0  0  1  0  0  3  0  0  0  0  0  0
  181.2400  179.4080  136.9710 N   0  0  0  0  0  2  0  0  0  0  0  0
  180.6470  177.7030  135.2820 N   0  0  0  0  0  2  0  0  0  0  0  0
  187.1640  178.1200  139.7420 C   0  0  1  0  0  3  0  0  0  0  0  0
  185.0180  176.7070  137.3070 C   0  0  0  0  0  0  0  0  0  0  0  0
  183.6140  178.2870  140.8300 C   0  0  0  0  0  0  0  0  0  0  0  0
  179.6330  180.1240  134.9960 S   0  0  0  0  0  0  0  0  0  0  0  0
  185.9380  178.8790  140.2300 C   0  0  0  0  0  2  0  0  0  0  0  0
  184.6550  175.3490  137.2780 C   0  0  0  0  0  3  0  0  0  0  0  0
  187.3520  176.0360  137.0700 C   0  0  0  0  0  3  0  0  0  0  0  0
  186.9690  174.6950  137.0310 C   0  0  0  0  0  3  0  0  0  0  0  0
  187.7140  178.6930  138.5090 N   0  0  0  0  0  2  0  0  0  0  0  0
  182.6560  179.2320  138.9100 C   0  0  1  0  0  3  0  0  0  0  0  0
  184.6830  178.1240  139.8240 C   0  0  2  0  0  3  0  0  0  0  0  0
  181.6960  178.4760  138.0010 C   0  0  2  0  0  3  0  0  0  0  0  0
  181.2850  179.2630  141.0790 C   0  0  0  0  0  1  0  0  0  0  0  0
  183.9480  177.7910  137.3820 C   0  0  1  0  0  3  0  0  0  0  0  0
  1 16  1  0  0  0  0
  1  6  1  0  0  0  0
  2  8  2  0  0  0  0
  4 20  1  0  0  0  0
  5 17  1  0  0  0  0
  5 27  1  0  0  0  0
  6 23  1  0  0  0  0
  8  7  2  0  0  0  0
  9 13  1  0  0  0  0
 10  8  1  6  0  0  0
 10 26  1  0  0  0  0
 12 24  1  0  0  0  0
 12 25  1  0  0  0  0
 13 26  1  0  0  0  0
 14  9  1  0  0  0  0
 14  8  1  0  0  0  0
 15 19  1  0  0  0  0
 15 11  1  0  0  0  0
 16 28  1  0  0  0  0
 17  3  2  0  0  0  0
 18  9  2  0  0  0  0
 20 16  2  0  0  0  0
 21  1  2  0  0  0  0
 22 21  1  0  0  0  0
 22  4  2  0  0  0  0
 23 15  1  0  0  0  0
 24  5  1  0  0  0  0
 25 19  1  0  0  0  0
 25 17  1  0  0  0  0
 26 24  1  0  0  0  0
 28 10  1  0  0  0  0
 28 12  1  0  0  0  0
M  END
>  <MODEL>
6

>  <REMARK>
 VINA RESULT:      -5.0      2.375      5.628
  Name = 
  0 active torsions:
  status: ('A' for Active; 'I' for Inactive)
                            x       y       z     vdW  Elec       q    Type
                         _______ _______ _______ _____ _____    ______ ____

>  <TORSDO>
F 0

$$$$
=
 OpenBabel11122411583D

 28 32  0  0  1  0  0  0  0  0999 V2000
  186.5200  177.4690  143.1030 C   0  0  0  0  0  0  0  0  0  0  0  0
  186.5300  177.1350  138.9480 O   0  0  0  0  0  0  0  0  0  0  0  0
  191.7800  179.2610  143.5940 O   0  0  0  0  0  0  0  0  0  0  0  0
  185.6910  179.8680  141.9170 C   0  0  0  0  0  3  0  0  0  0  0  0
  191.6800  177.7360  141.8100 N   0  0  0  0  0  0  0  0  0  0  0  0
  186.9970  176.2360  143.8190 C   0  0  0  0  0  2  0  0  0  0  0  0
  187.7970  179.0030  137.9840 O   0  0  0  0  0  0  0  0  0  0  0  0
  187.9030  177.6350  138.5940 S   0  0  0  0  0  0  0  0  0  0  0  0
  189.6530  175.6760  137.8680 C   0  0  0  0  0  0  0  0  0  0  0  0
  188.9370  177.7400  140.0570 C   0  0  2  0  0  3  0  0  0  0  0  0
  188.5220  177.9990  146.6200 O   0  0  0  0  0  1  0  0  0  0  0  0
  189.5070  176.8320  142.2310 C   0  0  1  0  0  3  0  0  0  0  0  0
  190.2430  175.8090  139.1600 N   0  0  0  0  0  2  0  0  0  0  0  0
  188.6200  176.5600  137.4540 N   0  0  0  0  0  2  0  0  0  0  0  0
  188.3520  177.6470  145.2820 C   0  0  1  0  0  3  0  0  0  0  0  0
  187.1910  177.9470  141.9510 C   0  0  0  0  0  0  0  0  0  0  0  0
  191.1530  178.3780  142.9490 C   0  0  0  0  0  0  0  0  0  0  0  0
  190.0570  174.4100  136.9230 S   0  0  0  0  0  0  0  0  0  0  0  0
  189.7120  177.3390  144.6690 C   0  0  0  0  0  2  0  0  0  0  0  0
  186.7650  179.1570  141.3780 C   0  0  0  0  0  3  0  0  0  0  0  0
  185.4370  178.1850  143.6310 C   0  0  0  0  0  3  0  0  0  0  0  0
  185.0230  179.3780  143.0390 C   0  0  0  0  0  3  0  0  0  0  0  0
  187.4360  176.5060  145.1950 N   0  0  0  0  0  2  0  0  0  0  0  0
  190.7500  176.7380  141.3220 C   0  0  1  0  0  3  0  0  0  0  0  0
  189.7820  177.9340  143.2720 C   0  0  2  0  0  3  0  0  0  0  0  0
  190.3020  177.0660  139.9040 C   0  0  2  0  0  3  0  0  0  0  0  0
  193.0480  177.8780  141.3390 C   0  0  0  0  0  1  0  0  0  0  0  0
  188.3170  177.1430  141.3120 C   0  0  1  0  0  3  0  0  0  0  0  0
  1 21  1  0  0  0  0
  1  6  1  0  0  0  0
  4 22  1  0  0  0  0
  5 17  1  0  0  0  0
  6 23  1  0  0  0  0
  7  8  2  0  0  0  0
  8  2  2  0  0  0  0
  9 13  1  0  0  0  0
 10  8  1  6  0  0  0
 10 28  1  0  0  0  0
 12 25  1  0  0  0  0
 13 26  1  0  0  0  0
 14  9  1  0  0  0  0
 14  8  1  0  0  0  0
 15 11  1  0  0  0  0
 16  1  2  0  0  0  0
 17 25  1  0  0  0  0
 17  3  2  0  0  0  0
 18  9  2  0  0  0  0
 19 15  1  0  0  0  0
 20  4  2  0  0  0  0
 20 16  1  0  0  0  0
 22 21  2  0  0  0  0
 23 15  1  0  0  0  0
 24  5  1  0  0  0  0
 24 12  1  0  0  0  0
 25 19  1  0  0  0  0
 26 10  1  0  0  0  0
 26 24  1  0  0  0  0
 27  5  1  0  0  0  0
 28 16  1  0  0  0  0
 28 12  1  0  0  0  0
M  END
>  <MODEL>
7

>  <REMARK>
 VINA RESULT:      -5.0      5.908      7.508
  Name = 
  0 active torsions:
  status: ('A' for Active; 'I' for Inactive)
                            x       y       z     vdW  Elec       q    Type
                         _______ _______ _______ _____ _____    ______ ____

>  <TORSDO>
F 0

$$$$
=
 OpenBabel11122411583D

 28 32  0  0  1  0  0  0  0  0999 V2000
  182.2570  178.3550  139.8680 C   0  0  0  0  0  0  0  0  0  0  0  0
  180.2660  176.5410  136.6860 O   0  0  0  0  0  0  0  0  0  0  0  0
  187.0660  179.2210  137.1780 O   0  0  0  0  0  0  0  0  0  0  0  0
  180.9140  180.2670  138.3230 C   0  0  0  0  0  3  0  0  0  0  0  0
  186.1460  177.1990  136.4170 N   0  0  0  0  0  0  0  0  0  0  0  0
  183.0440  177.4010  140.7240 C   0  0  0  0  0  2  0  0  0  0  0  0
  180.8750  177.6700  134.5940 O   0  0  0  0  0  0  0  0  0  0  0  0
  181.2890  176.6220  135.5860 S   0  0  0  0  0  0  0  0  0  0  0  0
  182.5070  174.2520  135.0160 C   0  0  0  0  0  0  0  0  0  0  0  0
  182.8980  177.0610  136.2470 C   0  0  2  0  0  3  0  0  0  0  0  0
  185.6970  179.7530  141.5600 O   0  0  0  0  0  1  0  0  0  0  0  0
  184.4630  176.9170  138.0920 C   0  0  1  0  0  3  0  0  0  0  0  0
  183.6450  174.7350  135.7280 N   0  0  0  0  0  2  0  0  0  0  0  0
  181.3860  175.0970  134.7900 N   0  0  0  0  0  2  0  0  0  0  0  0
  184.9090  178.9770  140.7120 C   0  0  1  0  0  3  0  0  0  0  0  0
  182.2800  178.2530  138.4560 C   0  0  0  0  0  0  0  0  0  0  0  0
  186.2220  178.2930  137.3020 C   0  0  0  0  0  0  0  0  0  0  0  0
  182.4290  172.6790  134.5940 S   0  0  0  0  0  0  0  0  0  0  0  0
  185.8100  178.2270  139.7380 C   0  0  0  0  0  2  0  0  0  0  0  0
  181.6070  179.2290  137.7000 C   0  0  0  0  0  3  0  0  0  0  0  0
  181.5500  179.3960  140.4840 C   0  0  0  0  0  3  0  0  0  0  0  0
  180.8790  180.3460  139.7150 C   0  0  0  0  0  3  0  0  0  0  0  0
  184.0860  178.0670  141.5150 N   0  0  0  0  0  2  0  0  0  0  0  0
  185.1150  176.2780  136.8490 C   0  0  1  0  0  3  0  0  0  0  0  0
  185.1860  178.2530  138.3530 C   0  0  2  0  0  3  0  0  0  0  0  0
  184.0320  176.1440  135.7860 C   0  0  2  0  0  3  0  0  0  0  0  0
  187.1140  176.9110  135.3710 C   0  0  0  0  0  1  0  0  0  0  0  0
  182.9720  177.0820  137.7660 C   0  0  1  0  0  3  0  0  0  0  0  0
  1 21  1  0  0  0  0
  1  6  1  0  0  0  0
  3 17  2  0  0  0  0
  4 22  1  0  0  0  0
  5 24  1  0  0  0  0
  5 17  1  0  0  0  0
  6 23  1  0  0  0  0
  7  8  2  0  0  0  0
  8  2  2  0  0  0  0
  9 13  1  0  0  0  0
 10  8  1  1  0  0  0
 10 28  1  0  0  0  0
 12 25  1  0  0  0  0
 13 26  1  0  0  0  0
 14  9  1  0  0  0  0
 14  8  1  0  0  0  0
 15 23  1  0  0  0  0
 15 11  1  0  0  0  0
 16  1  2  0  0  0  0
 17 25  1  0  0  0  0
 18  9  2  0  0  0  0
 19 15  1  0  0  0  0
 20  4  2  0  0  0  0
 20 16  1  0  0  0  0
 22 21  2  0  0  0  0
 24 12  1  0  0  0  0
 25 19  1  0  0  0  0
 26 10  1  0  0  0  0
 26 24  1  0  0  0  0
 27  5  1  0  0  0  0
 28 12  1  0  0  0  0
 28 16  1  0  0  0  0
M  END
>  <MODEL>
8

>  <REMARK>
 VINA RESULT:      -4.9      2.093      2.986
  Name = 
  0 active torsions:
  status: ('A' for Active; 'I' for Inactive)
                            x       y       z     vdW  Elec       q    Type
                         _______ _______ _______ _____ _____    ______ ____

>  <TORSDO>
F 0

$$$$
=
 OpenBabel11122411583D

 28 32  0  0  1  0  0  0  0  0999 V2000
  183.0990  177.6110  136.5100 C   0  0  0  0  0  0  0  0  0  0  0  0
  186.9750  179.0120  137.1380 O   0  0  0  0  0  0  0  0  0  0  0  0
  184.1980  172.2480  137.5780 O   0  0  0  0  0  0  0  0  0  0  0  0
  183.4640  178.3400  139.1900 C   0  0  0  0  0  3  0  0  0  0  0  0
  186.0710  173.1910  136.5220 N   0  0  0  0  0  0  0  0  0  0  0  0
  182.8320  177.1540  135.1020 C   0  0  0  0  0  2  0  0  0  0  0  0
  187.9760  177.8170  139.0330 O   0  0  0  0  0  0  0  0  0  0  0  0
  187.6980  177.7630  137.5580 S   0  0  0  0  0  0  0  0  0  0  0  0
  189.3350  176.7220  135.6450 C   0  0  0  0  0  0  0  0  0  0  0  0
  186.7040  176.3090  137.2150 C   0  0  2  0  0  3  0  0  0  0  0  0
  180.4890  174.5150  136.0060 O   0  0  0  0  0  1  0  0  0  0  0  0
  185.0750  175.2340  135.7790 C   0  0  1  0  0  3  0  0  0  0  0  0
  188.3360  175.7310  135.4150 N   0  0  0  0  0  2  0  0  0  0  0  0
  189.1910  177.6590  136.7040 N   0  0  0  0  0  2  0  0  0  0  0  0
  181.7190  175.1690  135.9900 C   0  0  1  0  0  3  0  0  0  0  0  0
  184.3090  177.2780  137.1660 C   0  0  0  0  0  0  0  0  0  0  0  0
  184.7240  173.1970  136.9370 C   0  0  0  0  0  0  0  0  0  0  0  0
  190.5720  176.8790  134.5940 S   0  0  0  0  0  0  0  0  0  0  0  0
  182.8200  174.1600  135.6890 C   0  0  0  0  0  2  0  0  0  0  0  0
  184.4670  177.6440  138.5130 C   0  0  0  0  0  3  0  0  0  0  0  0
  182.1020  178.3180  137.1950 C   0  0  0  0  0  3  0  0  0  0  0  0
  182.2850  178.6830  138.5290 C   0  0  0  0  0  3  0  0  0  0  0  0
  181.6770  176.2520  135.0020 N   0  0  0  0  0  2  0  0  0  0  0  0
  186.3660  174.3910  135.7660 C   0  0  1  0  0  3  0  0  0  0  0  0
  184.0200  174.4440  136.5780 C   0  0  2  0  0  3  0  0  0  0  0  0
  187.4500  175.2100  136.4550 C   0  0  2  0  0  3  0  0  0  0  0  0
  186.9650  172.0490  136.6230 C   0  0  0  0  0  1  0  0  0  0  0  0
  185.4390  176.5820  136.4150 C   0  0  1  0  0  3  0  0  0  0  0  0
  1 16  2  0  0  0  0
  1 21  1  0  0  0  0
  2  8  2  0  0  0  0
  5 27  1  0  0  0  0
  5 17  1  0  0  0  0
  6  1  1  0  0  0  0
  8  7  2  0  0  0  0
  9 14  1  0  0  0  0
 10  8  1  6  0  0  0
 12 28  1  0  0  0  0
 12 25  1  0  0  0  0
 13  9  1  0  0  0  0
 13 26  1  0  0  0  0
 14  8  1  0  0  0  0
 15 11  1  0  0  0  0
 16 20  1  0  0  0  0
 17  3  2  0  0  0  0
 18  9  2  0  0  0  0
 19 15  1  0  0  0  0
 19 25  1  0  0  0  0
 20  4  2  0  0  0  0
 21 22  2  0  0  0  0
 22  4  1  0  0  0  0
 23  6  1  0  0  0  0
 23 15  1  0  0  0  0
 24 12  1  0  0  0  0
 24 26  1  0  0  0  0
 24  5  1  0  0  0  0
 25 17  1  0  0  0  0
 26 10  1  0  0  0  0
 28 16  1  0  0  0  0
 28 10  1  0  0  0  0
M  END
>  <MODEL>
9

>  <REMARK>
 VINA RESULT:      -4.8      4.267      6.863
  Name = 
  0 active torsions:
  status: ('A' for Active; 'I' for Inactive)
                            x       y       z     vdW  Elec       q    Type
                         _______ _______ _______ _____ _____    ______ ____

>  <TORSDO>
F 0

$$$$
