=
 OpenBabel11122410213D

 30 35  0  0  1  0  0  0  0  0999 V2000
  189.1180  177.2880  143.5460 C   0  0  1  0  0  3  0  0  0  0  0  0
  191.1860  176.5610  144.8930 C   0  0  0  0  0  0  0  0  0  0  0  0
  187.1160  177.9920  147.1290 N   0  0  0  0  0  2  0  0  0  0  0  0
  187.8030  178.0900  143.6760 C   0  0  1  0  0  3  0  0  0  0  0  0
  189.9470  177.9560  142.6170 O   0  0  0  0  0  0  0  0  0  0  0  0
  187.5530  178.6390  140.1290 O   0  0  0  0  0  0  0  0  0  0  0  0
  184.5540  178.0420  142.9880 C   0  0  1  0  0  3  0  0  0  0  0  0
  187.9740  178.2010  141.1900 C   0  0  0  0  0  0  0  0  0  0  0  0
  184.5200  178.1070  144.5300 C   0  0  2  0  0  3  0  0  0  0  0  0
  185.8830  178.5050  146.6580 C   0  0  0  0  0  0  0  0  0  0  0  0
  189.4240  177.7930  141.3070 C   0  0  2  0  0  3  0  0  0  0  0  0
  187.0420  177.9440  142.3490 C   0  0  2  0  0  3  0  0  0  0  0  0
  191.8190  176.3080  146.1140 C   0  0  0  0  0  3  0  0  0  0  0  0
  183.3820  179.0480  144.8660 C   0  0  0  0  0  2  0  0  0  0  0  0
  183.2260  178.5980  142.5000 C   0  0  0  0  0  2  0  0  0  0  0  0
  191.9680  176.3010  143.6500 C   0  0  0  0  0  1  0  0  0  0  0  0
  187.7430  177.5470  146.0910 C   0  0  1  0  0  3  0  0  0  0  0  0
  191.1380  176.4800  147.3160 C   0  0  0  0  0  3  0  0  0  0  0  0
  189.8470  177.0250  144.8670 C   0  0  0  0  0  0  0  0  0  0  0  0
  186.9560  177.5870  144.8300 C   0  0  1  0  0  3  0  0  0  0  0  0
  185.0020  178.9750  147.4240 O   0  0  0  0  0  0  0  0  0  0  0  0
  185.8320  178.5560  145.1700 C   0  0  1  0  0  3  0  0  0  0  0  0
  182.3940  178.8860  143.7340 C   0  0  0  0  0  2  0  0  0  0  0  0
  185.8800  180.2240  142.5860 C   0  0  0  0  0  1  0  0  0  0  0  0
  189.8060  176.8890  147.3090 C   0  0  0  0  0  3  0  0  0  0  0  0
  189.1510  177.1370  146.0970 C   0  0  0  0  0  0  0  0  0  0  0  0
  185.7250  178.7400  142.2610 C   0  0  2  0  0  3  0  0  0  0  0  0
  189.6490  176.3850  140.7680 C   0  0  0  0  0  2  0  0  0  0  0  0
  190.1620  176.4430  138.6240 C   0  0  0  0  0  1  0  0  0  0  0  0
  190.7350  176.3800  139.8930 O   0  0  0  0  0  0  0  0  0  0  0  0
  1  5  1  6  0  0  0
  1  4  1  0  0  0  0
  1 19  1  0  0  0  0
  2 13  1  0  0  0  0
  4 20  1  0  0  0  0
  6  8  2  0  0  0  0
  7  9  1  0  0  0  0
  8 11  1  0  0  0  0
  8 12  1  0  0  0  0
  9 14  1  0  0  0  0
  9 22  1  0  0  0  0
 10  3  1  0  0  0  0
 10 21  2  0  0  0  0
 11  5  1  0  0  0  0
 12  4  1  0  0  0  0
 13 18  2  0  0  0  0
 15  7  1  0  0  0  0
 15 23  1  0  0  0  0
 16  2  1  0  0  0  0
 17 26  1  0  0  0  0
 17  3  1  0  0  0  0
 19  2  2  0  0  0  0
 19 26  1  0  0  0  0
 20 22  1  0  0  0  0
 20 17  1  0  0  0  0
 22 10  1  0  0  0  0
 23 14  1  0  0  0  0
 25 18  1  0  0  0  0
 26 25  2  0  0  0  0
 27 12  1  0  0  0  0
 27 24  1  0  0  0  0
 27  7  1  0  0  0  0
 28 11  1  0  0  0  0
 29 30  1  0  0  0  0
 30 28  1  0  0  0  0
M  END
>  <MODEL>
1

>  <REMARK>
 VINA RESULT:     -10.8      0.000      0.000
  Name = 
  2 active torsions:
  status: ('A' for Active; 'I' for Inactive)
    1  A    between atoms: C_11  and  C_28
    2  A    between atoms: C_28  and  O_30
                            x       y       z     vdW  Elec       q    Type
                         _______ _______ _______ _____ _____    ______ ____

>  <TORSDO>
F 2

$$$$
=
 OpenBabel11122410213D

 30 35  0  0  1  0  0  0  0  0999 V2000
  187.1940  178.2430  140.7700 C   0  0  1  0  0  3  0  0  0  0  0  0
  184.8410  178.7810  139.8790 C   0  0  0  0  0  0  0  0  0  0  0  0
  185.5800  177.8430  144.5890 N   0  0  0  0  0  2  0  0  0  0  0  0
  187.9190  177.5880  141.9680 C   0  0  1  0  0  3  0  0  0  0  0  0
  187.4620  177.4690  139.6200 O   0  0  0  0  0  0  0  0  0  0  0  0
  190.9180  176.9810  140.0750 O   0  0  0  0  0  0  0  0  0  0  0  0
  190.4250  177.9610  144.1150 C   0  0  1  0  0  3  0  0  0  0  0  0
  189.8000  177.3980  140.3410 C   0  0  0  0  0  0  0  0  0  0  0  0
  189.2210  177.9380  145.0800 C   0  0  2  0  0  3  0  0  0  0  0  0
  186.7220  177.4510  145.3300 C   0  0  0  0  0  0  0  0  0  0  0  0
  188.8140  177.6540  139.2250 C   0  0  2  0  0  3  0  0  0  0  0  0
  189.4280  177.7800  141.7530 C   0  0  2  0  0  3  0  0  0  0  0  0
  183.4760  178.9970  140.0920 C   0  0  0  0  0  3  0  0  0  0  0  0
  189.6820  177.1300  146.2760 C   0  0  0  0  0  2  0  0  0  0  0  0
  191.6400  177.5360  144.9250 C   0  0  0  0  0  2  0  0  0  0  0  0
  185.3470  178.9270  138.4840 C   0  0  0  0  0  1  0  0  0  0  0  0
  186.0080  178.1940  143.4220 C   0  0  1  0  0  3  0  0  0  0  0  0
  182.9370  178.9270  141.3740 C   0  0  0  0  0  3  0  0  0  0  0  0
  185.6900  178.4600  140.9670 C   0  0  0  0  0  0  0  0  0  0  0  0
  187.4890  178.2050  143.2860 C   0  0  1  0  0  3  0  0  0  0  0  0
  186.6640  177.0950  146.5350 O   0  0  0  0  0  0  0  0  0  0  0  0
  187.9390  177.3690  144.4750 C   0  0  1  0  0  3  0  0  0  0  0  0
  191.1720  177.3680  146.3570 C   0  0  0  0  0  2  0  0  0  0  0  0
  190.0410  175.6420  143.0400 C   0  0  0  0  0  1  0  0  0  0  0  0
  183.7650  178.6600  142.4620 C   0  0  0  0  0  3  0  0  0  0  0  0
  185.1350  178.4520  142.2720 C   0  0  0  0  0  0  0  0  0  0  0  0
  190.3280  177.1260  142.8190 C   0  0  2  0  0  3  0  0  0  0  0  0
  189.0450  179.0170  138.5820 C   0  0  0  0  0  2  0  0  0  0  0  0
  189.1990  178.0080  136.6270 C   0  0  0  0  0  1  0  0  0  0  0  0
  188.5180  179.0270  137.2910 O   0  0  0  0  0  0  0  0  0  0  0  0
  1  5  1  6  0  0  0
  1 19  1  0  0  0  0
  1  4  1  0  0  0  0
  2 13  2  0  0  0  0
  2 19  1  0  0  0  0
  3 10  1  0  0  0  0
  4 20  1  0  0  0  0
  6  8  2  0  0  0  0
  7 15  1  0  0  0  0
  7  9  1  0  0  0  0
  8 12  1  0  0  0  0
  9 14  1  0  0  0  0
 10 21  2  0  0  0  0
 11  5  1  0  0  0  0
 11  8  1  0  0  0  0
 12  4  1  0  0  0  0
 12 27  1  0  0  0  0
 13 18  1  0  0  0  0
 14 23  1  0  0  0  0
 15 23  1  0  0  0  0
 16  2  1  0  0  0  0
 17  3  1  0  0  0  0
 18 25  2  0  0  0  0
 19 26  2  0  0  0  0
 20 17  1  0  0  0  0
 20 22  1  0  0  0  0
 22  9  1  0  0  0  0
 22 10  1  0  0  0  0
 26 25  1  0  0  0  0
 26 17  1  0  0  0  0
 27 24  1  0  0  0  0
 27  7  1  0  0  0  0
 28 11  1  0  0  0  0
 29 30  1  0  0  0  0
 30 28  1  0  0  0  0
M  END
>  <MODEL>
2

>  <REMARK>
 VINA RESULT:      -9.4      1.784      5.680
  Name = 
  2 active torsions:
  status: ('A' for Active; 'I' for Inactive)
    1  A    between atoms: C_11  and  C_28
    2  A    between atoms: C_28  and  O_30
                            x       y       z     vdW  Elec       q    Type
                         _______ _______ _______ _____ _____    ______ ____

>  <TORSDO>
F 2

$$$$
=
 OpenBabel11122410213D

 30 35  0  0  1  0  0  0  0  0999 V2000
  187.1360  177.9130  144.9620 C   0  0  1  0  0  3  0  0  0  0  0  0
  184.6940  178.4310  145.5850 C   0  0  0  0  0  0  0  0  0  0  0  0
  186.2120  178.6930  140.9770 N   0  0  0  0  0  2  0  0  0  0  0  0
  188.1800  178.1420  143.8450 C   0  0  1  0  0  3  0  0  0  0  0  0
  187.5840  178.5830  146.1220 O   0  0  0  0  0  0  0  0  0  0  0  0
  190.9620  177.6000  146.0610 O   0  0  0  0  0  0  0  0  0  0  0  0
  190.5120  176.6530  142.0080 C   0  0  1  0  0  3  0  0  0  0  0  0
  189.8040  177.6550  145.6750 C   0  0  0  0  0  0  0  0  0  0  0  0
  189.5240  177.1020  140.9100 C   0  0  2  0  0  3  0  0  0  0  0  0
  187.4810  178.5420  140.3660 C   0  0  0  0  0  0  0  0  0  0  0  0
  188.6950  177.8910  146.6730 C   0  0  2  0  0  3  0  0  0  0  0  0
  189.4490  177.3690  144.2360 C   0  0  2  0  0  3  0  0  0  0  0  0
  183.3890  178.7730  145.2200 C   0  0  0  0  0  3  0  0  0  0  0  0
  190.3900  177.5770  139.7610 C   0  0  0  0  0  2  0  0  0  0  0  0
  191.8670  176.4980  141.3360 C   0  0  0  0  0  2  0  0  0  0  0  0
  184.9560  178.1800  147.0310 C   0  0  0  0  0  1  0  0  0  0  0  0
  186.3410  178.2720  142.1910 C   0  0  1  0  0  3  0  0  0  0  0  0
  183.0550  178.9750  143.8830 C   0  0  0  0  0  3  0  0  0  0  0  0
  185.7030  178.3110  144.5960 C   0  0  0  0  0  0  0  0  0  0  0  0
  187.6670  177.6710  142.4970 C   0  0  1  0  0  3  0  0  0  0  0  0
  187.6920  178.8150  139.1560 O   0  0  0  0  0  0  0  0  0  0  0  0
  188.5350  178.1770  141.3540 C   0  0  1  0  0  3  0  0  0  0  0  0
  191.6520  176.7520  139.8570 C   0  0  0  0  0  2  0  0  0  0  0  0
  191.0070  178.9910  142.9920 C   0  0  0  0  0  1  0  0  0  0  0  0
  184.0210  178.8150  142.8930 C   0  0  0  0  0  3  0  0  0  0  0  0
  185.3310  178.4620  143.2370 C   0  0  0  0  0  0  0  0  0  0  0  0
  190.6380  177.5350  143.2700 C   0  0  2  0  0  3  0  0  0  0  0  0
  188.2830  176.5940  147.3620 C   0  0  0  0  0  2  0  0  0  0  0  0
  188.4220  178.1490  148.9190 C   0  0  0  0  0  1  0  0  0  0  0  0
  187.9900  176.8420  148.7020 O   0  0  0  0  0  0  0  0  0  0  0  0
  1 19  1  6  0  0  0
  1  5  1  0  0  0  0
  2 16  1  0  0  0  0
  3 17  1  0  0  0  0
  4 12  1  0  0  0  0
  4  1  1  0  0  0  0
  5 11  1  0  0  0  0
  7 27  1  0  0  0  0
  8  6  2  0  0  0  0
  8 11  1  0  0  0  0
  9 22  1  0  0  0  0
  9  7  1  0  0  0  0
 10  3  1  0  0  0  0
 10 22  1  0  0  0  0
 11 28  1  0  0  0  0
 12  8  1  0  0  0  0
 13  2  1  0  0  0  0
 14 23  1  0  0  0  0
 14  9  1  0  0  0  0
 15  7  1  0  0  0  0
 17 20  1  0  0  0  0
 17 26  1  0  0  0  0
 18 13  2  0  0  0  0
 19  2  2  0  0  0  0
 20  4  1  0  0  0  0
 21 10  2  0  0  0  0
 22 20  1  0  0  0  0
 23 15  1  0  0  0  0
 24 27  1  0  0  0  0
 25 26  2  0  0  0  0
 25 18  1  0  0  0  0
 26 19  1  0  0  0  0
 27 12  1  0  0  0  0
 28 30  1  0  0  0  0
 30 29  1  0  0  0  0
M  END
>  <MODEL>
3

>  <REMARK>
 VINA RESULT:      -9.2      1.997      6.702
  Name = 
  2 active torsions:
  status: ('A' for Active; 'I' for Inactive)
    1  A    between atoms: C_11  and  C_28
    2  A    between atoms: C_28  and  O_30
                            x       y       z     vdW  Elec       q    Type
                         _______ _______ _______ _____ _____    ______ ____

>  <TORSDO>
F 2

$$$$
=
 OpenBabel11122410213D

 30 35  0  0  1  0  0  0  0  0999 V2000
  188.0760  177.6280  142.8100 C   0  0  1  0  0  3  0  0  0  0  0  0
  187.0790  177.9900  145.1550 C   0  0  0  0  0  0  0  0  0  0  0  0
  184.5860  179.1910  141.1610 N   0  0  0  0  0  2  0  0  0  0  0  0
  187.9250  178.0870  141.3410 C   0  0  1  0  0  3  0  0  0  0  0  0
  189.3410  178.0530  143.2720 O   0  0  0  0  0  0  0  0  0  0  0  0
  191.2860  177.1290  140.4890 O   0  0  0  0  0  0  0  0  0  0  0  0
  187.7830  177.0180  138.2000 C   0  0  1  0  0  3  0  0  0  0  0  0
  190.2680  177.2520  141.1530 C   0  0  0  0  0  0  0  0  0  0  0  0
  186.3920  177.6720  138.3440 C   0  0  2  0  0  3  0  0  0  0  0  0
  184.9030  179.1770  139.7810 C   0  0  0  0  0  0  0  0  0  0  0  0
  190.3580  177.2720  142.6620 C   0  0  2  0  0  3  0  0  0  0  0  0
  188.9090  177.2610  140.4980 C   0  0  2  0  0  3  0  0  0  0  0  0
  186.0270  178.3900  145.9840 C   0  0  0  0  0  3  0  0  0  0  0  0
  186.1420  178.3770  137.0270 C   0  0  0  0  0  2  0  0  0  0  0  0
  188.1090  177.0130  136.7150 C   0  0  0  0  0  2  0  0  0  0  0  0
  188.3050  177.4540  145.8140 C   0  0  0  0  0  1  0  0  0  0  0  0
  185.5250  178.5350  141.7570 C   0  0  1  0  0  3  0  0  0  0  0  0
  184.8330  178.8550  145.4410 C   0  0  0  0  0  3  0  0  0  0  0  0
  186.9510  178.0810  143.7460 C   0  0  0  0  0  0  0  0  0  0  0  0
  186.5060  177.8940  140.8400 C   0  0  1  0  0  3  0  0  0  0  0  0
  184.1610  179.6900  138.9040 O   0  0  0  0  0  0  0  0  0  0  0  0
  186.2650  178.6280  139.5290 C   0  0  1  0  0  3  0  0  0  0  0  0
  186.8890  177.5590  135.9990 C   0  0  0  0  0  2  0  0  0  0  0  0
  189.1980  179.1120  138.7400 C   0  0  0  0  0  1  0  0  0  0  0  0
  184.6700  178.9060  144.0590 C   0  0  0  0  0  3  0  0  0  0  0  0
  185.7070  178.5010  143.2110 C   0  0  0  0  0  0  0  0  0  0  0  0
  188.9540  177.6280  139.0030 C   0  0  2  0  0  3  0  0  0  0  0  0
  190.4230  175.8600  143.2320 C   0  0  0  0  0  2  0  0  0  0  0  0
  191.6810  176.3770  144.9690 C   0  0  0  0  0  1  0  0  0  0  0  0
  191.6810  175.6320  143.7900 O   0  0  0  0  0  0  0  0  0  0  0  0
  1  5  1  1  0  0  0
  1 19  1  0  0  0  0
  2 16  1  0  0  0  0
  2 13  1  0  0  0  0
  3 17  1  0  0  0  0
  4  1  1  0  0  0  0
  6  8  2  0  0  0  0
  7  9  1  0  0  0  0
  7 27  1  0  0  0  0
  8 11  1  0  0  0  0
  9 22  1  0  0  0  0
 10  3  1  0  0  0  0
 11 28  1  0  0  0  0
 11  5  1  0  0  0  0
 12  8  1  0  0  0  0
 12  4  1  0  0  0  0
 14  9  1  0  0  0  0
 15  7  1  0  0  0  0
 17 26  1  0  0  0  0
 18 13  2  0  0  0  0
 19  2  2  0  0  0  0
 20  4  1  0  0  0  0
 20 17  1  0  0  0  0
 21 10  2  0  0  0  0
 22 10  1  0  0  0  0
 22 20  1  0  0  0  0
 23 15  1  0  0  0  0
 23 14  1  0  0  0  0
 24 27  1  0  0  0  0
 25 18  1  0  0  0  0
 26 19  1  0  0  0  0
 26 25  2  0  0  0  0
 27 12  1  0  0  0  0
 28 30  1  0  0  0  0
 30 29  1  0  0  0  0
M  END
>  <MODEL>
4

>  <REMARK>
 VINA RESULT:      -8.9      2.411      5.421
  Name = 
  2 active torsions:
  status: ('A' for Active; 'I' for Inactive)
    1  A    between atoms: C_11  and  C_28
    2  A    between atoms: C_28  and  O_30
                            x       y       z     vdW  Elec       q    Type
                         _______ _______ _______ _____ _____    ______ ____

>  <TORSDO>
F 2

$$$$
=
 OpenBabel11122410213D

 30 35  0  0  1  0  0  0  0  0999 V2000
  186.9990  178.0500  142.1510 C   0  0  1  0  0  3  0  0  0  0  0  0
  188.1570  177.9260  144.4450 C   0  0  0  0  0  0  0  0  0  0  0  0
  183.3710  178.6860  144.0940 N   0  0  0  0  0  2  0  0  0  0  0  0
  185.7110  178.5640  141.4660 C   0  0  1  0  0  3  0  0  0  0  0  0
  188.0910  178.7780  141.6280 O   0  0  0  0  0  0  0  0  0  0  0  0
  187.2470  178.6700  138.2140 O   0  0  0  0  0  0  0  0  0  0  0  0
  183.3130  177.7540  139.3150 C   0  0  1  0  0  3  0  0  0  0  0  0
  187.1170  178.4460  139.4080 C   0  0  0  0  0  0  0  0  0  0  0  0
  182.4860  177.9730  140.5990 C   0  0  2  0  0  3  0  0  0  0  0  0
  182.4990  178.8730  142.9940 C   0  0  0  0  0  0  0  0  0  0  0  0
  188.3400  178.3690  140.2910 C   0  0  2  0  0  3  0  0  0  0  0  0
  185.7650  178.1210  139.9950 C   0  0  2  0  0  3  0  0  0  0  0  0
  188.1010  177.9420  145.8420 C   0  0  0  0  0  3  0  0  0  0  0  0
  181.2250  178.6810  140.1480 C   0  0  0  0  0  2  0  0  0  0  0  0
  182.3640  177.9610  138.1460 C   0  0  0  0  0  2  0  0  0  0  0  0
  189.4920  177.7080  143.8160 C   0  0  0  0  0  1  0  0  0  0  0  0
  184.4930  178.2780  143.6030 C   0  0  1  0  0  3  0  0  0  0  0  0
  186.8840  178.0920  146.5020 C   0  0  0  0  0  3  0  0  0  0  0  0
  186.9740  178.0890  143.6820 C   0  0  0  0  0  0  0  0  0  0  0  0
  184.4660  178.0170  142.1380 C   0  0  1  0  0  3  0  0  0  0  0  0
  181.2980  179.2240  143.1270 O   0  0  0  0  0  0  0  0  0  0  0  0
  183.2120  178.7550  141.6910 C   0  0  1  0  0  3  0  0  0  0  0  0
  180.9880  178.1940  138.7370 C   0  0  0  0  0  2  0  0  0  0  0  0
  184.3610  180.1130  139.1820 C   0  0  0  0  0  1  0  0  0  0  0  0
  185.7050  178.2050  145.7700 C   0  0  0  0  0  3  0  0  0  0  0  0
  185.7380  178.1800  144.3710 C   0  0  0  0  0  0  0  0  0  0  0  0
  184.5890  178.6050  139.1250 C   0  0  2  0  0  3  0  0  0  0  0  0
  188.9910  176.9930  140.2200 C   0  0  0  0  0  2  0  0  0  0  0  0
  190.8970  176.8270  139.1240 C   0  0  0  0  0  1  0  0  0  0  0  0
  190.3710  177.1110  140.3830 O   0  0  0  0  0  0  0  0  0  0  0  0
  1  5  1  6  0  0  0
  1 19  1  0  0  0  0
  2 13  1  0  0  0  0
  4 20  1  0  0  0  0
  4  1  1  0  0  0  0
  6  8  2  0  0  0  0
  7  9  1  0  0  0  0
  8 12  1  0  0  0  0
  8 11  1  0  0  0  0
  9 22  1  0  0  0  0
 10 21  2  0  0  0  0
 10  3  1  0  0  0  0
 11  5  1  0  0  0  0
 12  4  1  0  0  0  0
 13 18  2  0  0  0  0
 14  9  1  0  0  0  0
 15 23  1  0  0  0  0
 15  7  1  0  0  0  0
 16  2  1  0  0  0  0
 17  3  1  0  0  0  0
 17 26  1  0  0  0  0
 19 26  1  0  0  0  0
 19  2  2  0  0  0  0
 20 17  1  0  0  0  0
 22 20  1  0  0  0  0
 22 10  1  0  0  0  0
 23 14  1  0  0  0  0
 25 18  1  0  0  0  0
 26 25  2  0  0  0  0
 27 24  1  0  0  0  0
 27  7  1  0  0  0  0
 27 12  1  0  0  0  0
 28 11  1  0  0  0  0
 28 30  1  0  0  0  0
 29 30  1  0  0  0  0
M  END
>  <MODEL>
5

>  <REMARK>
 VINA RESULT:      -8.7      2.396      3.706
  Name = 
  2 active torsions:
  status: ('A' for Active; 'I' for Inactive)
    1  A    between atoms: C_11  and  C_28
    2  A    between atoms: C_28  and  O_30
                            x       y       z     vdW  Elec       q    Type
                         _______ _______ _______ _____ _____    ______ ____

>  <TORSDO>
F 2

$$$$
=
 OpenBabel11122410213D

 30 35  0  0  1  0  0  0  0  0999 V2000
  186.1080  178.2310  140.5640 C   0  0  1  0  0  3  0  0  0  0  0  0
  187.0750  178.2460  138.1800 C   0  0  0  0  0  0  0  0  0  0  0  0
  189.9910  178.1030  142.0620 N   0  0  0  0  0  2  0  0  0  0  0  0
  186.4940  178.5160  142.0340 C   0  0  1  0  0  3  0  0  0  0  0  0
  185.1240  179.1690  140.1810 O   0  0  0  0  0  0  0  0  0  0  0  0
  183.0770  179.0230  143.0400 O   0  0  0  0  0  0  0  0  0  0  0  0
  186.2910  177.3440  145.1340 C   0  0  1  0  0  3  0  0  0  0  0  0
  184.0270  178.7360  142.3260 C   0  0  0  0  0  0  0  0  0  0  0  0
  187.8210  177.3580  144.9330 C   0  0  2  0  0  3  0  0  0  0  0  0
  189.7500  178.1610  143.4570 C   0  0  0  0  0  0  0  0  0  0  0  0
  183.8960  178.8610  140.8260 C   0  0  2  0  0  3  0  0  0  0  0  0
  185.2860  178.1420  142.9070 C   0  0  2  0  0  3  0  0  0  0  0  0
  188.1640  178.2040  137.3050 C   0  0  0  0  0  3  0  0  0  0  0  0
  188.3940  177.8310  146.2520 C   0  0  0  0  0  2  0  0  0  0  0  0
  186.0490  177.4090  146.6340 C   0  0  0  0  0  2  0  0  0  0  0  0
  185.7130  178.3060  137.5730 C   0  0  0  0  0  1  0  0  0  0  0  0
  188.8410  177.9310  141.5020 C   0  0  1  0  0  3  0  0  0  0  0  0
  189.4640  178.0980  137.7950 C   0  0  0  0  0  3  0  0  0  0  0  0
  187.2820  178.2100  139.5810 C   0  0  0  0  0  0  0  0  0  0  0  0
  187.7160  177.7210  142.4530 C   0  0  1  0  0  3  0  0  0  0  0  0
  190.6720  178.2740  144.3050 O   0  0  0  0  0  0  0  0  0  0  0  0
  188.2940  178.2250  143.7680 C   0  0  1  0  0  3  0  0  0  0  0  0
  187.4120  177.3570  147.2980 C   0  0  0  0  0  2  0  0  0  0  0  0
  185.8720  179.8620  144.7250 C   0  0  0  0  0  1  0  0  0  0  0  0
  189.6850  178.0120  139.1670 C   0  0  0  0  0  3  0  0  0  0  0  0
  188.6070  178.0430  140.0580 C   0  0  0  0  0  0  0  0  0  0  0  0
  185.4570  178.4260  144.4120 C   0  0  2  0  0  3  0  0  0  0  0  0
  183.2190  177.6350  140.2240 C   0  0  0  0  0  2  0  0  0  0  0  0
  181.6540  178.9810  139.4470 C   0  0  0  0  0  1  0  0  0  0  0  0
  181.8370  177.8210  140.1990 O   0  0  0  0  0  0  0  0  0  0  0  0
  1 19  1  6  0  0  0
  1  4  1  0  0  0  0
  2 19  1  0  0  0  0
  3 10  1  0  0  0  0
  4 20  1  0  0  0  0
  4 12  1  0  0  0  0
  5  1  1  0  0  0  0
  5 11  1  0  0  0  0
  7 15  1  0  0  0  0
  8 12  1  0  0  0  0
  8  6  2  0  0  0  0
  9  7  1  0  0  0  0
  9 14  1  0  0  0  0
 10 22  1  0  0  0  0
 10 21  2  0  0  0  0
 11  8  1  0  0  0  0
 12 27  1  0  0  0  0
 13 18  1  0  0  0  0
 13  2  2  0  0  0  0
 14 23  1  0  0  0  0
 15 23  1  0  0  0  0
 16  2  1  0  0  0  0
 17  3  1  0  0  0  0
 17 20  1  0  0  0  0
 18 25  2  0  0  0  0
 19 26  2  0  0  0  0
 20 22  1  0  0  0  0
 22  9  1  0  0  0  0
 25 26  1  0  0  0  0
 26 17  1  0  0  0  0
 27 24  1  0  0  0  0
 27  7  1  0  0  0  0
 28 11  1  0  0  0  0
 29 30  1  0  0  0  0
 30 28  1  0  0  0  0
M  END
>  <MODEL>
6

>  <REMARK>
 VINA RESULT:      -8.3      2.482      5.997
  Name = 
  2 active torsions:
  status: ('A' for Active; 'I' for Inactive)
    1  A    between atoms: C_11  and  C_28
    2  A    between atoms: C_28  and  O_30
                            x       y       z     vdW  Elec       q    Type
                         _______ _______ _______ _____ _____    ______ ____

>  <TORSDO>
F 2

$$$$
=
 OpenBabel11122410213D

 30 35  0  0  1  0  0  0  0  0999 V2000
  189.2850  177.5830  141.5220 C   0  0  1  0  0  3  0  0  0  0  0  0
  190.1560  177.5420  139.1010 C   0  0  0  0  0  0  0  0  0  0  0  0
  185.4800  178.4460  140.0640 N   0  0  0  0  0  2  0  0  0  0  0  0
  187.9810  177.4760  142.3460 C   0  0  1  0  0  3  0  0  0  0  0  0
  190.0970  176.4730  141.8430 O   0  0  0  0  0  0  0  0  0  0  0  0
  189.7210  176.5060  145.3420 O   0  0  0  0  0  0  0  0  0  0  0  0
  186.2750  178.8320  144.8520 C   0  0  1  0  0  3  0  0  0  0  0  0
  189.5500  176.8850  144.1930 C   0  0  0  0  0  0  0  0  0  0  0  0
  185.2900  179.0480  143.6840 C   0  0  2  0  0  3  0  0  0  0  0  0
  184.7230  178.4560  141.2610 C   0  0  0  0  0  0  0  0  0  0  0  0
  190.6180  176.6280  143.1550 C   0  0  2  0  0  3  0  0  0  0  0  0
  188.3470  177.7160  143.8190 C   0  0  2  0  0  3  0  0  0  0  0  0
  189.9470  177.6930  137.7270 C   0  0  0  0  0  3  0  0  0  0  0  0
  183.9170  178.7750  144.2620 C   0  0  0  0  0  2  0  0  0  0  0  0
  185.4470  178.8430  146.1270 C   0  0  0  0  0  2  0  0  0  0  0  0
  191.5410  177.2190  139.5510 C   0  0  0  0  0  1  0  0  0  0  0  0
  186.7200  178.3880  140.4190 C   0  0  1  0  0  3  0  0  0  0  0  0
  188.6930  178.0420  137.2340 C   0  0  0  0  0  3  0  0  0  0  0  0
  189.0820  177.7170  140.0100 C   0  0  0  0  0  0  0  0  0  0  0  0
  186.9470  178.4870  141.8870 C   0  0  1  0  0  3  0  0  0  0  0  0
  183.4690  178.5570  141.2740 O   0  0  0  0  0  0  0  0  0  0  0  0
  185.5690  178.1830  142.4570 C   0  0  1  0  0  3  0  0  0  0  0  0
  184.0220  179.1630  145.7190 C   0  0  0  0  0  2  0  0  0  0  0  0
  186.4240  176.2560  144.6960 C   0  0  0  0  0  1  0  0  0  0  0  0
  187.6370  178.2660  138.1140 C   0  0  0  0  0  3  0  0  0  0  0  0
  187.8280  178.1310  139.4940 C   0  0  0  0  0  0  0  0  0  0  0  0
  187.1780  177.5790  144.8130 C   0  0  2  0  0  3  0  0  0  0  0  0
  191.7190  177.6800  143.2180 C   0  0  0  0  0  2  0  0  0  0  0  0
  191.4790  179.6660  144.1470 C   0  0  0  0  0  1  0  0  0  0  0  0
  191.6900  178.3230  144.4560 O   0  0  0  0  0  0  0  0  0  0  0  0
  1 19  1  6  0  0  0
  1  5  1  0  0  0  0
  1  4  1  0  0  0  0
  2 16  1  0  0  0  0
  2 19  1  0  0  0  0
  3 17  1  0  0  0  0
  3 10  1  0  0  0  0
  4 12  1  0  0  0  0
  5 11  1  0  0  0  0
  7 15  1  0  0  0  0
  8  6  2  0  0  0  0
  9 14  1  0  0  0  0
  9  7  1  0  0  0  0
 10 21  2  0  0  0  0
 10 22  1  0  0  0  0
 11 28  1  0  0  0  0
 11  8  1  0  0  0  0
 12  8  1  0  0  0  0
 12 27  1  0  0  0  0
 13  2  2  0  0  0  0
 14 23  1  0  0  0  0
 17 20  1  0  0  0  0
 18 13  1  0  0  0  0
 18 25  2  0  0  0  0
 20  4  1  0  0  0  0
 20 22  1  0  0  0  0
 22  9  1  0  0  0  0
 23 15  1  0  0  0  0
 24 27  1  0  0  0  0
 25 26  1  0  0  0  0
 26 19  2  0  0  0  0
 26 17  1  0  0  0  0
 27  7  1  0  0  0  0
 28 30  1  0  0  0  0
 29 30  1  0  0  0  0
M  END
>  <MODEL>
7

>  <REMARK>
 VINA RESULT:      -8.3      2.383      5.133
  Name = 
  2 active torsions:
  status: ('A' for Active; 'I' for Inactive)
    1  A    between atoms: C_11  and  C_28
    2  A    between atoms: C_28  and  O_30
                            x       y       z     vdW  Elec       q    Type
                         _______ _______ _______ _____ _____    ______ ____

>  <TORSDO>
F 2

$$$$
=
 OpenBabel11122410213D

 30 35  0  0  1  0  0  0  0  0999 V2000
  188.5210  177.5330  145.3760 C   0  0  1  0  0  3  0  0  0  0  0  0
  186.6280  177.9550  147.0670 C   0  0  0  0  0  0  0  0  0  0  0  0
  185.9370  178.6540  142.3090 N   0  0  0  0  0  2  0  0  0  0  0  0
  188.9630  177.8780  143.9350 C   0  0  1  0  0  3  0  0  0  0  0  0
  189.4570  178.1020  146.2680 O   0  0  0  0  0  0  0  0  0  0  0  0
  192.4260  177.1810  144.6180 O   0  0  0  0  0  0  0  0  0  0  0  0
  190.1890  176.5960  141.1280 C   0  0  1  0  0  3  0  0  0  0  0  0
  191.2190  177.2540  144.7970 C   0  0  0  0  0  0  0  0  0  0  0  0
  188.8280  177.1260  140.6310 C   0  0  2  0  0  3  0  0  0  0  0  0
  186.7950  178.5780  141.1850 C   0  0  0  0  0  0  0  0  0  0  0  0
  190.6790  177.3810  146.2020 C   0  0  2  0  0  3  0  0  0  0  0  0
  190.2520  177.0930  143.6490 C   0  0  2  0  0  3  0  0  0  0  0  0
  185.3070  178.3090  147.3550 C   0  0  0  0  0  3  0  0  0  0  0  0
  189.1030  177.7160  139.2630 C   0  0  0  0  0  2  0  0  0  0  0  0
  191.0980  176.5230  139.9110 C   0  0  0  0  0  2  0  0  0  0  0  0
  187.5020  177.5790  148.2160 C   0  0  0  0  0  1  0  0  0  0  0  0
  186.5840  178.1280  143.2950 C   0  0  1  0  0  3  0  0  0  0  0  0
  184.4170  178.6250  146.3320 C   0  0  0  0  0  3  0  0  0  0  0  0
  187.0870  177.9400  145.7260 C   0  0  0  0  0  0  0  0  0  0  0  0
  187.8900  177.5210  142.9230 C   0  0  1  0  0  3  0  0  0  0  0  0
  186.4520  178.9610  140.0370 O   0  0  0  0  0  0  0  0  0  0  0  0
  188.1690  178.1420  141.5620 C   0  0  1  0  0  3  0  0  0  0  0  0
  190.2520  176.9050  138.7120 C   0  0  0  0  0  2  0  0  0  0  0  0
  191.1330  178.8430  141.9870 C   0  0  0  0  0  1  0  0  0  0  0  0
  184.8360  178.5690  145.0050 C   0  0  0  0  0  3  0  0  0  0  0  0
  186.1510  178.2070  144.6950 C   0  0  0  0  0  0  0  0  0  0  0  0
  190.8890  177.3630  142.2720 C   0  0  2  0  0  3  0  0  0  0  0  0
  190.5840  176.0220  146.8850 C   0  0  0  0  0  2  0  0  0  0  0  0
  192.4270  175.9290  148.0910 C   0  0  0  0  0  1  0  0  0  0  0  0
  191.8430  175.4250  146.9300 O   0  0  0  0  0  0  0  0  0  0  0  0
  1 19  1  1  0  0  0
  1  5  1  0  0  0  0
  2 13  1  0  0  0  0
  2 16  1  0  0  0  0
  3 17  1  0  0  0  0
  4  1  1  0  0  0  0
  6  8  2  0  0  0  0
  7 27  1  0  0  0  0
  8 11  1  0  0  0  0
  9  7  1  0  0  0  0
  9 22  1  0  0  0  0
 10 22  1  0  0  0  0
 10  3  1  0  0  0  0
 11  5  1  0  0  0  0
 11 28  1  0  0  0  0
 12  4  1  0  0  0  0
 12  8  1  0  0  0  0
 14  9  1  0  0  0  0
 15  7  1  0  0  0  0
 17 26  1  0  0  0  0
 18 13  2  0  0  0  0
 19  2  2  0  0  0  0
 20 17  1  0  0  0  0
 20  4  1  0  0  0  0
 21 10  2  0  0  0  0
 22 20  1  0  0  0  0
 23 14  1  0  0  0  0
 23 15  1  0  0  0  0
 24 27  1  0  0  0  0
 25 18  1  0  0  0  0
 26 25  2  0  0  0  0
 26 19  1  0  0  0  0
 27 12  1  0  0  0  0
 28 30  1  0  0  0  0
 30 29  1  0  0  0  0
M  END
>  <MODEL>
8

>  <REMARK>
 VINA RESULT:      -8.2      2.109      5.890
  Name = 
  2 active torsions:
  status: ('A' for Active; 'I' for Inactive)
    1  A    between atoms: C_11  and  C_28
    2  A    between atoms: C_28  and  O_30
                            x       y       z     vdW  Elec       q    Type
                         _______ _______ _______ _____ _____    ______ ____

>  <TORSDO>
F 2

$$$$
=
 OpenBabel11122410213D

 30 35  0  0  1  0  0  0  0  0999 V2000
  187.1090  177.8930  140.3020 C   0  0  1  0  0  3  0  0  0  0  0  0
  188.9950  177.3580  138.6350 C   0  0  0  0  0  0  0  0  0  0  0  0
  189.8800  177.6660  143.4020 N   0  0  0  0  0  2  0  0  0  0  0  0
  186.8680  178.4130  141.7380 C   0  0  1  0  0  3  0  0  0  0  0  0
  186.5660  178.8350  139.4000 O   0  0  0  0  0  0  0  0  0  0  0  0
  183.4970  179.4410  141.0120 O   0  0  0  0  0  0  0  0  0  0  0  0
  185.1480  177.8790  144.5280 C   0  0  1  0  0  3  0  0  0  0  0  0
  184.5960  178.9300  140.8480 C   0  0  0  0  0  0  0  0  0  0  0  0
  186.5920  177.7010  145.0430 C   0  0  2  0  0  3  0  0  0  0  0  0
  189.0760  178.0110  144.5160 C   0  0  0  0  0  0  0  0  0  0  0  0
  185.1480  178.7800  139.4500 C   0  0  2  0  0  3  0  0  0  0  0  0
  185.3570  178.3350  142.0070 C   0  0  2  0  0  3  0  0  0  0  0  0
  190.3290  177.0410  138.3640 C   0  0  0  0  0  3  0  0  0  0  0  0
  186.6140  178.3570  146.4080 C   0  0  0  0  0  2  0  0  0  0  0  0
  184.2990  178.2510  145.7340 C   0  0  0  0  0  2  0  0  0  0  0  0
  188.0610  177.4370  137.4750 C   0  0  0  0  0  1  0  0  0  0  0  0
  189.0730  177.5060  142.4070 C   0  0  1  0  0  3  0  0  0  0  0  0
  191.2510  176.9010  139.3990 C   0  0  0  0  0  3  0  0  0  0  0  0
  188.5690  177.5690  139.9710 C   0  0  0  0  0  0  0  0  0  0  0  0
  187.6310  177.5940  142.7620 C   0  0  1  0  0  3  0  0  0  0  0  0
  189.5470  178.1910  145.6690 O   0  0  0  0  0  0  0  0  0  0  0  0
  187.6640  178.2790  144.1210 C   0  0  1  0  0  3  0  0  0  0  0  0
  185.2110  178.1910  146.9440 C   0  0  0  0  0  2  0  0  0  0  0  0
  185.3930  180.3010  143.6610 C   0  0  0  0  0  1  0  0  0  0  0  0
  190.8400  177.0570  140.7210 C   0  0  0  0  0  3  0  0  0  0  0  0
  189.5070  177.3640  141.0140 C   0  0  0  0  0  0  0  0  0  0  0  0
  184.9090  178.8810  143.3760 C   0  0  2  0  0  3  0  0  0  0  0  0
  184.5940  177.5360  138.7650 C   0  0  0  0  0  2  0  0  0  0  0  0
  184.2880  177.1500  136.6160 C   0  0  0  0  0  1  0  0  0  0  0  0
  183.7990  177.9050  137.6810 O   0  0  0  0  0  0  0  0  0  0  0  0
  1  5  1  6  0  0  0
  1  4  1  0  0  0  0
  2 19  1  0  0  0  0
  3 10  1  0  0  0  0
  4 12  1  0  0  0  0
  4 20  1  0  0  0  0
  5 11  1  0  0  0  0
  7  9  1  0  0  0  0
  7 15  1  0  0  0  0
  8  6  2  0  0  0  0
  8 12  1  0  0  0  0
  9 14  1  0  0  0  0
 10 21  2  0  0  0  0
 11  8  1  0  0  0  0
 12 27  1  0  0  0  0
 13  2  2  0  0  0  0
 13 18  1  0  0  0  0
 14 23  1  0  0  0  0
 15 23  1  0  0  0  0
 16  2  1  0  0  0  0
 17 20  1  0  0  0  0
 17  3  1  0  0  0  0
 18 25  2  0  0  0  0
 19  1  1  0  0  0  0
 19 26  2  0  0  0  0
 20 22  1  0  0  0  0
 22 10  1  0  0  0  0
 22  9  1  0  0  0  0
 25 26  1  0  0  0  0
 26 17  1  0  0  0  0
 27 24  1  0  0  0  0
 27  7  1  0  0  0  0
 28 11  1  0  0  0  0
 29 30  1  0  0  0  0
 30 28  1  0  0  0  0
M  END
>  <MODEL>
9

>  <REMARK>
 VINA RESULT:      -8.0      2.346      4.778
  Name = 
  2 active torsions:
  status: ('A' for Active; 'I' for Inactive)
    1  A    between atoms: C_11  and  C_28
    2  A    between atoms: C_28  and  O_30
                            x       y       z     vdW  Elec       q    Type
                         _______ _______ _______ _____ _____    ______ ____

>  <TORSDO>
F 2

$$$$
