=
 OpenBabel11122411583D

 28 32  0  0  1  0  0  0  0  0999 V2000
  189.3410  177.9900  138.2470 C   0  0  0  0  0  0  0  0  0  0  0  0
  193.0710  176.3240  135.2980 O   0  0  0  0  0  1  0  0  0  0  0  0
  187.0660  173.6060  136.6610 C   0  0  0  0  0  1  0  0  0  0  0  0
  190.0500  177.0340  140.7820 C   0  0  0  0  0  3  0  0  0  0  0  0
  189.5080  173.4190  135.8880 C   0  0  2  0  0  3  0  0  0  0  0  0
  188.9800  178.4390  136.9740 O   0  0  0  0  0  0  0  0  0  0  0  0
  194.0110  176.9200  137.2780 O   0  0  0  0  0  1  0  0  0  0  0  0
  193.3910  175.8800  136.5860 C   0  0  0  0  0  0  0  0  0  0  0  0
  193.6910  173.5560  135.7980 C   0  0  1  0  0  3  0  0  0  0  0  0
  192.1190  175.4510  137.3650 C   0  0  2  0  0  3  0  0  0  0  0  0
  186.4280  176.8120  137.6500 O   0  0  0  0  0  1  0  0  0  0  0  0
  190.0380  175.7570  136.1270 C   0  0  1  0  0  3  0  0  0  0  0  0
  192.5480  173.0860  136.6820 C   0  0  0  0  0  2  0  0  0  0  0  0
  194.3720  174.7250  136.4760 C   0  0  0  0  0  2  0  0  0  0  0  0
  186.9070  177.2570  136.4160 C   0  0  2  0  0  3  0  0  0  0  0  0
  190.3480  177.0140  138.3680 C   0  0  0  0  0  0  0  0  0  0  0  0
  188.5060  174.1090  136.7880 C   0  0  1  0  0  3  0  0  0  0  0  0
  194.6050  172.5170  135.6330 O   0  0  0  0  0  1  0  0  0  0  0  0
  187.7530  176.1770  135.7300 C   0  0  0  0  0  2  0  0  0  0  0  0
  190.6940  176.5400  139.6440 C   0  0  0  0  0  3  0  0  0  0  0  0
  188.6920  178.4740  139.3910 C   0  0  0  0  0  3  0  0  0  0  0  0
  189.0480  177.9990  140.6550 C   0  0  0  0  0  3  0  0  0  0  0  0
  187.6250  178.6040  136.5690 C   0  0  0  0  0  2  0  0  0  0  0  0
  190.6620  174.3930  135.8560 C   0  0  1  0  0  3  0  0  0  0  0  0
  188.6910  175.5640  136.6780 N   0  0  2  0  0  0  0  0  0  0  0  0
  191.5670  174.1420  136.9710 N   0  0  2  0  0  0  0  0  0  0  0  0
  188.9950  173.2820  134.5950 O   0  0  0  0  0  1  0  0  0  0  0  0
  190.9950  176.4560  137.1150 C   0  0  1  0  0  3  0  0  0  0  0  0
  1 16  2  0  0  0  0
  1 21  1  0  0  0  0
  2  8  1  0  0  0  0
  3 17  1  0  0  0  0
  5 27  1  6  0  0  0
  5 17  1  0  0  0  0
  6  1  1  0  0  0  0
  8  7  1  0  0  0  0
  9 18  1  1  0  0  0
  9 14  1  0  0  0  0
  9 13  1  0  0  0  0
 10  8  1  6  0  0  0
 12 25  1  0  0  0  0
 12 28  1  0  0  0  0
 13 26  1  0  0  0  0
 14  8  1  0  0  0  0
 15 23  1  0  0  0  0
 15 11  1  0  0  0  0
 16 20  1  0  0  0  0
 19 15  1  0  0  0  0
 19 25  1  0  0  0  0
 20  4  2  0  0  0  0
 21 22  2  0  0  0  0
 22  4  1  0  0  0  0
 23  6  1  0  0  0  0
 24  5  1  0  0  0  0
 24 12  1  0  0  0  0
 24 26  1  0  0  0  0
 25 17  1  0  0  0  0
 26 10  1  0  0  0  0
 28 10  1  0  0  0  0
 28 16  1  0  0  0  0
M  END
>  <MODEL>
1

>  <REMARK>
 VINA RESULT:      -6.5      0.000      0.000
  Name = 
  0 active torsions:
  status: ('A' for Active; 'I' for Inactive)
                            x       y       z     vdW  Elec       q    Type
                         _______ _______ _______ _____ _____    ______ ____

>  <TORSDO>
F 0

$$$$
=
 OpenBabel11122411583D

 28 32  0  0  1  0  0  0  0  0999 V2000
  183.0350  177.4860  137.1370 C   0  0  0  0  0  0  0  0  0  0  0  0
  187.6360  178.1120  135.1800 O   0  0  0  0  0  1  0  0  0  0  0  0
  184.6140  172.5560  137.4830 C   0  0  0  0  0  1  0  0  0  0  0  0
  183.4020  178.0860  139.8470 C   0  0  0  0  0  3  0  0  0  0  0  0
  186.7190  173.8990  136.8820 C   0  0  2  0  0  3  0  0  0  0  0  0
  182.8670  177.1590  135.7880 O   0  0  0  0  0  0  0  0  0  0  0  0
  187.3580  179.7340  136.7460 O   0  0  0  0  0  1  0  0  0  0  0  0
  187.7670  178.4160  136.5400 C   0  0  0  0  0  0  0  0  0  0  0  0
  189.6740  176.8620  136.7880 C   0  0  1  0  0  3  0  0  0  0  0  0
  186.8910  177.4790  137.4130 C   0  0  2  0  0  3  0  0  0  0  0  0
  181.8500  174.5160  137.0500 O   0  0  0  0  0  1  0  0  0  0  0  0
  185.5620  175.8780  136.1370 C   0  0  1  0  0  3  0  0  0  0  0  0
  188.8850  176.0180  137.7750 C   0  0  0  0  0  2  0  0  0  0  0  0
  189.2320  178.3030  136.9280 C   0  0  0  0  0  2  0  0  0  0  0  0
  182.2790  174.7810  135.7480 C   0  0  2  0  0  3  0  0  0  0  0  0
  184.3390  177.5750  137.6610 C   0  0  0  0  0  0  0  0  0  0  0  0
  185.2980  173.9230  137.4060 C   0  0  1  0  0  3  0  0  0  0  0  0
  191.0340  176.7630  137.0760 O   0  0  0  0  0  1  0  0  0  0  0  0
  183.7680  174.4550  135.5790 C   0  0  0  0  0  2  0  0  0  0  0  0
  184.5110  177.8740  139.0220 C   0  0  0  0  0  3  0  0  0  0  0  0
  181.9280  177.6880  137.9710 C   0  0  0  0  0  3  0  0  0  0  0  0
  182.1110  177.9910  139.3220 C   0  0  0  0  0  3  0  0  0  0  0  0
  181.9060  176.2110  135.3370 C   0  0  0  0  0  2  0  0  0  0  0  0
  186.9480  175.3320  136.4620 C   0  0  1  0  0  3  0  0  0  0  0  0
  184.5510  174.9780  136.7050 N   0  0  2  0  0  0  0  0  0  0  0  0
  187.4300  176.1190  137.5900 N   0  0  2  0  0  0  0  0  0  0  0  0
  186.8150  173.0770  135.7560 O   0  0  0  0  0  1  0  0  0  0  0  0
  185.5230  177.2900  136.7580 C   0  0  1  0  0  3  0  0  0  0  0  0
  1 16  2  0  0  0  0
  1 21  1  0  0  0  0
  2  8  1  0  0  0  0
  5 27  1  6  0  0  0
  5 17  1  0  0  0  0
  6  1  1  0  0  0  0
  8  7  1  0  0  0  0
  8 14  1  0  0  0  0
  9 14  1  0  0  0  0
  9 18  1  1  0  0  0
  9 13  1  0  0  0  0
 10  8  1  6  0  0  0
 10 26  1  0  0  0  0
 12 24  1  0  0  0  0
 12 25  1  0  0  0  0
 12 28  1  0  0  0  0
 15 11  1  0  0  0  0
 16 20  1  0  0  0  0
 17  3  1  0  0  0  0
 19 15  1  0  0  0  0
 19 25  1  0  0  0  0
 20  4  2  0  0  0  0
 21 22  2  0  0  0  0
 22  4  1  0  0  0  0
 23 15  1  0  0  0  0
 23  6  1  0  0  0  0
 24  5  1  0  0  0  0
 24 26  1  0  0  0  0
 25 17  1  0  0  0  0
 26 13  1  0  0  0  0
 28 10  1  0  0  0  0
 28 16  1  0  0  0  0
M  END
>  <MODEL>
2

>  <REMARK>
 VINA RESULT:      -5.7      3.271      5.456
  Name = 
  0 active torsions:
  status: ('A' for Active; 'I' for Inactive)
                            x       y       z     vdW  Elec       q    Type
                         _______ _______ _______ _____ _____    ______ ____

>  <TORSDO>
F 0

$$$$
=
 OpenBabel11122411583D

 28 32  0  0  1  0  0  0  0  0999 V2000
  179.4190  177.0330  138.4220 C   0  0  0  0  0  0  0  0  0  0  0  0
  180.5220  180.1280  142.2420 O   0  0  0  0  0  1  0  0  0  0  0  0
  184.4200  177.7980  137.2740 C   0  0  0  0  0  1  0  0  0  0  0  0
  179.7760  174.4880  139.5320 C   0  0  0  0  0  3  0  0  0  0  0  0
  184.1040  178.7970  139.6190 C   0  0  2  0  0  3  0  0  0  0  0  0
  179.2720  178.3070  137.8670 O   0  0  0  0  0  0  0  0  0  0  0  0
  179.4190  178.3510  143.1280 O   0  0  0  0  0  1  0  0  0  0  0  0
  180.6730  178.8340  142.7570 C   0  0  0  0  0  0  0  0  0  0  0  0
  182.9390  179.3480  143.6020 C   0  0  1  0  0  3  0  0  0  0  0  0
  181.2850  177.8770  141.7000 C   0  0  2  0  0  3  0  0  0  0  0  0
  181.3650  177.1620  135.8860 O   0  0  0  0  0  1  0  0  0  0  0  0
  181.6990  178.9150  139.5310 C   0  0  1  0  0  3  0  0  0  0  0  0
  183.5420  178.2950  142.6870 C   0  0  0  0  0  2  0  0  0  0  0  0
  181.5490  178.9010  143.9970 C   0  0  0  0  0  2  0  0  0  0  0  0
  181.0050  178.4860  136.1440 C   0  0  2  0  0  3  0  0  0  0  0  0
  180.0830  176.8980  139.6560 C   0  0  0  0  0  0  0  0  0  0  0  0
  183.5600  177.8900  138.5360 C   0  0  1  0  0  3  0  0  0  0  0  0
  183.7280  179.4770  144.7430 O   0  0  0  0  0  1  0  0  0  0  0  0
  181.9290  179.1170  137.1940 C   0  0  0  0  0  2  0  0  0  0  0  0
  180.2580  175.6160  140.2020 C   0  0  0  0  0  3  0  0  0  0  0  0
  178.9480  175.8980  137.7500 C   0  0  0  0  0  3  0  0  0  0  0  0
  179.1230  174.6290  138.3060 C   0  0  0  0  0  3  0  0  0  0  0  0
  179.5140  178.5840  136.4910 C   0  0  0  0  0  2  0  0  0  0  0  0
  182.8880  179.0760  140.4710 C   0  0  1  0  0  3  0  0  0  0  0  0
  182.1380  178.2040  138.3230 N   0  0  2  0  0  0  0  0  0  0  0  0
  182.7340  178.0410  141.4850 N   0  0  2  0  0  0  0  0  0  0  0  0
  184.5580  180.0000  139.0710 O   0  0  0  0  0  1  0  0  0  0  0  0
  180.6430  178.1320  140.3370 C   0  0  1  0  0  3  0  0  0  0  0  0
  1 16  1  0  0  0  0
  2  8  1  0  0  0  0
  3 17  1  0  0  0  0
  4 20  1  0  0  0  0
  5 27  1  6  0  0  0
  5 24  1  0  0  0  0
  6  1  1  0  0  0  0
  8  7  1  0  0  0  0
  8 14  1  0  0  0  0
  9 14  1  0  0  0  0
  9 18  1  1  0  0  0
 10  8  1  1  0  0  0
 11 15  1  0  0  0  0
 12 28  1  0  0  0  0
 12 24  1  0  0  0  0
 13  9  1  0  0  0  0
 15 23  1  0  0  0  0
 15 19  1  0  0  0  0
 16 20  2  0  0  0  0
 16 28  1  0  0  0  0
 17  5  1  0  0  0  0
 19 25  1  0  0  0  0
 21 22  1  0  0  0  0
 21  1  2  0  0  0  0
 22  4  2  0  0  0  0
 23  6  1  0  0  0  0
 24 26  1  0  0  0  0
 25 17  1  0  0  0  0
 25 12  1  0  0  0  0
 26 10  1  0  0  0  0
 26 13  1  0  0  0  0
 28 10  1  0  0  0  0
M  END
>  <MODEL>
3

>  <REMARK>
 VINA RESULT:      -5.6      7.486     10.837
  Name = 
  0 active torsions:
  status: ('A' for Active; 'I' for Inactive)
                            x       y       z     vdW  Elec       q    Type
                         _______ _______ _______ _____ _____    ______ ____

>  <TORSDO>
F 0

$$$$
=
 OpenBabel11122411583D

 28 32  0  0  1  0  0  0  0  0999 V2000
  184.5600  179.3310  140.2740 C   0  0  0  0  0  0  0  0  0  0  0  0
  187.8620  179.2750  136.4690 O   0  0  0  0  0  1  0  0  0  0  0  0
  182.8400  175.0370  137.9250 C   0  0  0  0  0  1  0  0  0  0  0  0
  185.9210  177.9980  142.3260 C   0  0  0  0  0  3  0  0  0  0  0  0
  185.0710  175.5870  136.7780 C   0  0  2  0  0  3  0  0  0  0  0  0
  183.8760  179.9690  139.2350 O   0  0  0  0  0  0  0  0  0  0  0  0
  189.0550  179.5920  138.3750 O   0  0  0  0  0  1  0  0  0  0  0  0
  188.5070  178.6280  137.5290 C   0  0  0  0  0  0  0  0  0  0  0  0
  189.0570  176.6780  136.1120 C   0  0  1  0  0  3  0  0  0  0  0  0
  187.5150  177.7560  138.3440 C   0  0  2  0  0  3  0  0  0  0  0  0
  181.8460  177.6990  139.8200 O   0  0  0  0  0  1  0  0  0  0  0  0
  185.2090  177.8650  137.5540 C   0  0  1  0  0  3  0  0  0  0  0  0
  188.2170  175.7720  136.9970 C   0  0  0  0  0  2  0  0  0  0  0  0
  189.6380  177.7810  136.9700 C   0  0  0  0  0  2  0  0  0  0  0  0
  181.9810  178.5130  138.6940 C   0  0  2  0  0  3  0  0  0  0  0  0
  185.7290  178.6050  139.9780 C   0  0  0  0  0  0  0  0  0  0  0  0
  184.1610  175.8070  137.9680 C   0  0  1  0  0  3  0  0  0  0  0  0
  190.0910  175.9390  135.5410 O   0  0  0  0  0  1  0  0  0  0  0  0
  182.8530  177.8400  137.6260 C   0  0  0  0  0  2  0  0  0  0  0  0
  186.4020  177.9390  141.0150 C   0  0  0  0  0  3  0  0  0  0  0  0
  184.0760  179.3780  141.5880 C   0  0  0  0  0  3  0  0  0  0  0  0
  184.7570  178.7160  142.6120 C   0  0  0  0  0  3  0  0  0  0  0  0
  182.4610  179.9140  139.0940 C   0  0  0  0  0  2  0  0  0  0  0  0
  186.0000  176.7770  136.8380 C   0  0  1  0  0  3  0  0  0  0  0  0
  184.0550  177.2520  138.2260 N   0  0  2  0  0  0  0  0  0  0  0  0
  187.1400  176.4850  137.6990 N   0  0  2  0  0  0  0  0  0  0  0  0
  184.3430  175.6420  135.5860 O   0  0  0  0  0  1  0  0  0  0  0  0
  186.2020  178.5130  138.5400 C   0  0  1  0  0  3  0  0  0  0  0  0
  1 21  1  0  0  0  0
  2  8  1  0  0  0  0
  3 17  1  0  0  0  0
  4 22  1  0  0  0  0
  5 27  1  6  0  0  0
  5 24  1  0  0  0  0
  5 17  1  0  0  0  0
  6  1  1  0  0  0  0
  8  7  1  0  0  0  0
  9 18  1  1  0  0  0
  9 14  1  0  0  0  0
  9 13  1  0  0  0  0
 10  8  1  6  0  0  0
 10 28  1  0  0  0  0
 12 25  1  0  0  0  0
 12 28  1  0  0  0  0
 13 26  1  0  0  0  0
 14  8  1  0  0  0  0
 15 23  1  0  0  0  0
 15 11  1  0  0  0  0
 16  1  2  0  0  0  0
 16 20  1  0  0  0  0
 17 25  1  0  0  0  0
 19 25  1  0  0  0  0
 19 15  1  0  0  0  0
 20  4  2  0  0  0  0
 21 22  2  0  0  0  0
 23  6  1  0  0  0  0
 24 12  1  0  0  0  0
 24 26  1  0  0  0  0
 26 10  1  0  0  0  0
 28 16  1  0  0  0  0
M  END
>  <MODEL>
4

>  <REMARK>
 VINA RESULT:      -5.4      3.501      5.321
  Name = 
  0 active torsions:
  status: ('A' for Active; 'I' for Inactive)
                            x       y       z     vdW  Elec       q    Type
                         _______ _______ _______ _____ _____    ______ ____

>  <TORSDO>
F 0

$$$$
=
 OpenBabel11122411583D

 28 32  0  0  1  0  0  0  0  0999 V2000
  181.9560  179.3720  142.0610 C   0  0  0  0  0  0  0  0  0  0  0  0
  183.1740  178.6820  137.2210 O   0  0  0  0  0  1  0  0  0  0  0  0
  179.3050  174.9790  141.2980 C   0  0  0  0  0  1  0  0  0  0  0  0
  184.0820  178.1770  143.4360 C   0  0  0  0  0  3  0  0  0  0  0  0
  180.7800  175.2490  139.2130 C   0  0  2  0  0  3  0  0  0  0  0  0
  180.8840  179.9400  141.3680 O   0  0  0  0  0  0  0  0  0  0  0  0
  185.1060  179.1190  138.3330 O   0  0  0  0  0  1  0  0  0  0  0  0
  184.2220  178.1100  137.9520 C   0  0  0  0  0  0  0  0  0  0  0  0
  184.0450  175.9860  136.6990 C   0  0  1  0  0  3  0  0  0  0  0  0
  183.6950  177.4000  139.2280 C   0  0  2  0  0  3  0  0  0  0  0  0
  179.3110  177.8910  143.0820 O   0  0  0  0  0  1  0  0  0  0  0  0
  181.2830  177.5820  139.5490 C   0  0  1  0  0  3  0  0  0  0  0  0
  183.6860  175.2400  137.9730 C   0  0  0  0  0  2  0  0  0  0  0  0
  184.9650  177.1320  137.0580 C   0  0  0  0  0  2  0  0  0  0  0  0
  178.9310  178.5680  141.9220 C   0  0  2  0  0  3  0  0  0  0  0  0
  182.8550  178.5400  141.3670 C   0  0  0  0  0  0  0  0  0  0  0  0
  180.5110  175.6570  140.6460 C   0  0  1  0  0  3  0  0  0  0  0  0
  184.6990  175.1210  135.8240 O   0  0  0  0  0  1  0  0  0  0  0  0
  179.2160  177.7260  140.6720 C   0  0  0  0  0  2  0  0  0  0  0  0
  183.9170  177.9440  142.0680 C   0  0  0  0  0  3  0  0  0  0  0  0
  182.1210  179.5930  143.4350 C   0  0  0  0  0  3  0  0  0  0  0  0
  183.1830  179.0000  144.1190 C   0  0  0  0  0  3  0  0  0  0  0  0
  179.5570  179.9680  141.8830 C   0  0  0  0  0  2  0  0  0  0  0  0
  181.6510  176.3710  138.6990 C   0  0  1  0  0  3  0  0  0  0  0  0
  180.5520  177.1250  140.7380 N   0  0  2  0  0  0  0  0  0  0  0  0
  183.0530  176.0960  138.9870 N   0  0  2  0  0  0  0  0  0  0  0  0
  179.5920  175.2250  138.4780 O   0  0  0  0  0  1  0  0  0  0  0  0
  182.6230  178.2620  139.8950 C   0  0  1  0  0  3  0  0  0  0  0  0
  1 21  1  0  0  0  0
  2  8  1  0  0  0  0
  4 22  1  0  0  0  0
  5 27  1  6  0  0  0
  5 17  1  0  0  0  0
  6 23  1  0  0  0  0
  6  1  1  0  0  0  0
  8  7  1  0  0  0  0
  9 18  1  6  0  0  0
  9 14  1  0  0  0  0
  9 13  1  0  0  0  0
 10  8  1  6  0  0  0
 10 28  1  0  0  0  0
 12 28  1  0  0  0  0
 12 25  1  0  0  0  0
 13 26  1  0  0  0  0
 14  8  1  0  0  0  0
 15 11  1  0  0  0  0
 16  1  2  0  0  0  0
 16 20  1  0  0  0  0
 17 25  1  0  0  0  0
 17  3  1  0  0  0  0
 19 25  1  0  0  0  0
 19 15  1  0  0  0  0
 20  4  2  0  0  0  0
 21 22  2  0  0  0  0
 23 15  1  0  0  0  0
 24 26  1  0  0  0  0
 24  5  1  0  0  0  0
 24 12  1  0  0  0  0
 26 10  1  0  0  0  0
 28 16  1  0  0  0  0
M  END
>  <MODEL>
5

>  <REMARK>
 VINA RESULT:      -5.2      6.601      9.148
  Name = 
  0 active torsions:
  status: ('A' for Active; 'I' for Inactive)
                            x       y       z     vdW  Elec       q    Type
                         _______ _______ _______ _____ _____    ______ ____

>  <TORSDO>
F 0

$$$$
=
 OpenBabel11122411583D

 28 32  0  0  1  0  0  0  0  0999 V2000
  186.1110  175.1630  136.2320 C   0  0  0  0  0  0  0  0  0  0  0  0
  181.8310  177.7160  135.4940 O   0  0  0  0  0  1  0  0  0  0  0  0
  186.6230  178.5220  140.1520 C   0  0  0  0  0  1  0  0  0  0  0  0
  185.3050  173.0030  137.8220 C   0  0  0  0  0  3  0  0  0  0  0  0
  184.2150  178.8260  139.3110 C   0  0  2  0  0  3  0  0  0  0  0  0
  186.5110  176.2590  135.4640 O   0  0  0  0  0  0  0  0  0  0  0  0
  181.3010  175.5090  135.4420 O   0  0  0  0  0  1  0  0  0  0  0  0
  181.4740  176.6120  136.2770 C   0  0  0  0  0  0  0  0  0  0  0  0
  180.3380  178.0530  137.9340 C   0  0  1  0  0  3  0  0  0  0  0  0
  182.5750  176.2820  137.3190 C   0  0  2  0  0  3  0  0  0  0  0  0
  188.3920  176.6690  137.8940 O   0  0  0  0  0  1  0  0  0  0  0  0
  184.5380  177.7260  137.1910 C   0  0  1  0  0  3  0  0  0  0  0  0
  181.3120  177.6140  139.0150 C   0  0  0  0  0  2  0  0  0  0  0  0
  180.1510  176.9080  136.9630 C   0  0  0  0  0  2  0  0  0  0  0  0
  188.0060  177.5680  136.8980 C   0  0  2  0  0  3  0  0  0  0  0  0
  184.8420  175.1800  136.8410 C   0  0  0  0  0  0  0  0  0  0  0  0
  185.4560  177.9590  139.3370 C   0  0  1  0  0  3  0  0  0  0  0  0
  179.1140  178.3730  138.5170 O   0  0  0  0  0  1  0  0  0  0  0  0
  186.7930  178.3960  137.3400 C   0  0  0  0  0  2  0  0  0  0  0  0
  184.4500  174.0930  137.6390 C   0  0  0  0  0  3  0  0  0  0  0  0
  186.9690  174.0720  136.4290 C   0  0  0  0  0  3  0  0  0  0  0  0
  186.5650  172.9940  137.2190 C   0  0  0  0  0  3  0  0  0  0  0  0
  187.8060  176.8410  135.5620 C   0  0  0  0  0  2  0  0  0  0  0  0
  183.4660  178.3080  138.1050 C   0  0  1  0  0  3  0  0  0  0  0  0
  185.7740  177.5430  137.9620 N   0  0  2  0  0  0  0  0  0  0  0  0
  182.6140  177.1870  138.4820 N   0  0  2  0  0  0  0  0  0  0  0  0
  184.5540  180.1640  139.0940 O   0  0  0  0  0  1  0  0  0  0  0  0
  183.9540  176.3970  136.6700 C   0  0  1  0  0  3  0  0  0  0  0  0
  1 21  2  0  0  0  0
  1 16  1  0  0  0  0
  2  8  1  0  0  0  0
  5 27  1  6  0  0  0
  5 17  1  0  0  0  0
  6 23  1  0  0  0  0
  6  1  1  0  0  0  0
  7  8  1  0  0  0  0
  8 14  1  0  0  0  0
  9 18  1  1  0  0  0
  9 13  1  0  0  0  0
 10  8  1  6  0  0  0
 10 26  1  0  0  0  0
 12 25  1  0  0  0  0
 12 24  1  0  0  0  0
 14  9  1  0  0  0  0
 15 19  1  0  0  0  0
 15 11  1  0  0  0  0
 16 20  2  0  0  0  0
 17  3  1  0  0  0  0
 19 25  1  0  0  0  0
 20  4  1  0  0  0  0
 21 22  1  0  0  0  0
 22  4  2  0  0  0  0
 23 15  1  0  0  0  0
 24 26  1  0  0  0  0
 24  5  1  0  0  0  0
 25 17  1  0  0  0  0
 26 13  1  0  0  0  0
 28 16  1  0  0  0  0
 28 12  1  0  0  0  0
 28 10  1  0  0  0  0
M  END
>  <MODEL>
6

>  <REMARK>
 VINA RESULT:      -4.9      4.152      8.705
  Name = 
  0 active torsions:
  status: ('A' for Active; 'I' for Inactive)
                            x       y       z     vdW  Elec       q    Type
                         _______ _______ _______ _____ _____    ______ ____

>  <TORSDO>
F 0

$$$$
=
 OpenBabel11122411583D

 28 32  0  0  1  0  0  0  0  0999 V2000
  186.6430  175.3530  136.5670 C   0  0  0  0  0  0  0  0  0  0  0  0
  183.8050  177.7120  139.9970 O   0  0  0  0  0  1  0  0  0  0  0  0
  182.0110  173.7990  134.8220 C   0  0  0  0  0  1  0  0  0  0  0  0
  187.0370  177.3090  134.6030 C   0  0  0  0  0  3  0  0  0  0  0  0
  181.5030  175.6200  136.5600 C   0  0  2  0  0  3  0  0  0  0  0  0
  186.4170  174.3730  137.5370 O   0  0  0  0  0  0  0  0  0  0  0  0
  185.2940  179.2360  139.2100 O   0  0  0  0  0  1  0  0  0  0  0  0
  184.0410  178.6610  138.9950 C   0  0  0  0  0  0  0  0  0  0  0  0
  181.6290  179.1620  138.7870 C   0  0  1  0  0  3  0  0  0  0  0  0
  184.0270  178.0080  137.5870 C   0  0  2  0  0  3  0  0  0  0  0  0
  185.2880  172.8710  135.0710 O   0  0  0  0  0  1  0  0  0  0  0  0
  183.6720  175.5940  137.6090 C   0  0  1  0  0  3  0  0  0  0  0  0
  181.6310  178.6770  137.3480 C   0  0  0  0  0  2  0  0  0  0  0  0
  182.9880  179.7520  139.0970 C   0  0  0  0  0  2  0  0  0  0  0  0
  185.0880  172.6360  136.4320 C   0  0  2  0  0  3  0  0  0  0  0  0
  185.8580  176.5210  136.5790 C   0  0  0  0  0  0  0  0  0  0  0  0
  182.5300  174.9720  135.6570 C   0  0  1  0  0  3  0  0  0  0  0  0
  180.6510  180.1420  138.9450 O   0  0  0  0  0  1  0  0  0  0  0  0
  183.8210  173.3400  136.9350 C   0  0  0  0  0  2  0  0  0  0  0  0
  186.0630  177.4950  135.5880 C   0  0  0  0  0  3  0  0  0  0  0  0
  187.6110  175.1670  135.5710 C   0  0  0  0  0  3  0  0  0  0  0  0
  187.8090  176.1450  134.5940 C   0  0  0  0  0  3  0  0  0  0  0  0
  186.3500  172.9840  137.2330 C   0  0  0  0  0  2  0  0  0  0  0  0
  182.3550  176.3580  137.5660 C   0  0  1  0  0  3  0  0  0  0  0  0
  183.7530  174.7170  136.4330 N   0  0  2  0  0  0  0  0  0  0  0  0
  182.6840  177.6890  137.0700 N   0  0  2  0  0  0  0  0  0  0  0  0
  180.7530  174.6480  137.2290 O   0  0  0  0  0  1  0  0  0  0  0  0
  184.7730  176.6750  137.6270 C   0  0  1  0  0  3  0  0  0  0  0  0
  1 16  1  0  0  0  0
  1  6  1  0  0  0  0
  3 17  1  0  0  0  0
  4 20  1  0  0  0  0
  5 27  1  1  0  0  0
  5 24  1  0  0  0  0
  8 14  1  0  0  0  0
  8  7  1  0  0  0  0
  8  2  1  0  0  0  0
  9 18  1  6  0  0  0
  9 14  1  0  0  0  0
 10 28  1  0  0  0  0
 10  8  1  1  0  0  0
 11 15  1  0  0  0  0
 12 28  1  0  0  0  0
 13  9  1  0  0  0  0
 15 19  1  0  0  0  0
 15 23  1  0  0  0  0
 16 28  1  0  0  0  0
 17 25  1  0  0  0  0
 17  5  1  0  0  0  0
 20 16  2  0  0  0  0
 21  1  2  0  0  0  0
 22  4  2  0  0  0  0
 22 21  1  0  0  0  0
 23  6  1  0  0  0  0
 24 12  1  0  0  0  0
 25 19  1  0  0  0  0
 25 12  1  0  0  0  0
 26 13  1  0  0  0  0
 26 24  1  0  0  0  0
 26 10  1  0  0  0  0
M  END
>  <MODEL>
7

>  <REMARK>
 VINA RESULT:      -4.8      4.951      8.330
  Name = 
  0 active torsions:
  status: ('A' for Active; 'I' for Inactive)
                            x       y       z     vdW  Elec       q    Type
                         _______ _______ _______ _____ _____    ______ ____

>  <TORSDO>
F 0

$$$$
=
 OpenBabel11122411583D

 28 32  0  0  1  0  0  0  0  0999 V2000
  186.7170  175.2380  135.6630 C   0  0  0  0  0  0  0  0  0  0  0  0
  182.0050  177.0010  135.9300 O   0  0  0  0  0  1  0  0  0  0  0  0
  187.4170  178.4900  139.6440 C   0  0  0  0  0  1  0  0  0  0  0  0
  186.6230  172.9120  137.2190 C   0  0  0  0  0  3  0  0  0  0  0  0
  184.8750  178.3840  139.2970 C   0  0  2  0  0  3  0  0  0  0  0  0
  186.7640  176.4160  134.9130 O   0  0  0  0  0  0  0  0  0  0  0  0
  181.8580  174.7370  135.8230 O   0  0  0  0  0  1  0  0  0  0  0  0
  182.0030  175.8230  136.6860 C   0  0  0  0  0  0  0  0  0  0  0  0
  180.9910  176.9730  138.6260 C   0  0  1  0  0  3  0  0  0  0  0  0
  183.3290  175.6590  137.4750 C   0  0  2  0  0  3  0  0  0  0  0  0
  188.9920  177.0710  136.9670 O   0  0  0  0  0  1  0  0  0  0  0  0
  184.9520  177.4390  137.0810 C   0  0  1  0  0  3  0  0  0  0  0  0
  182.2200  176.6790  139.4690 C   0  0  0  0  0  2  0  0  0  0  0  0
  180.8120  175.8490  137.6290 C   0  0  0  0  0  2  0  0  0  0  0  0
  188.2690  177.9210  136.1280 C   0  0  2  0  0  3  0  0  0  0  0  0
  185.6100  175.0040  136.5010 C   0  0  0  0  0  0  0  0  0  0  0  0
  186.2250  177.7550  139.0260 C   0  0  1  0  0  3  0  0  0  0  0  0
  179.8700  177.0450  139.4510 O   0  0  0  0  0  1  0  0  0  0  0  0
  187.0450  178.4990  136.8500 C   0  0  0  0  0  2  0  0  0  0  0  0
  185.5750  173.8350  137.2780 C   0  0  0  0  0  3  0  0  0  0  0  0
  187.7700  174.3150  135.6160 C   0  0  0  0  0  3  0  0  0  0  0  0
  187.7200  173.1530  136.3890 C   0  0  0  0  0  3  0  0  0  0  0  0
  187.9340  177.2190  134.8060 C   0  0  0  0  0  2  0  0  0  0  0  0
  184.0000  177.7840  138.2210 C   0  0  1  0  0  3  0  0  0  0  0  0
  186.3300  177.4540  137.5900 N   0  0  2  0  0  0  0  0  0  0  0  0
  183.4440  176.5140  138.6710 N   0  0  2  0  0  0  0  0  0  0  0  0
  184.9310  179.7680  139.1150 O   0  0  0  0  0  1  0  0  0  0  0  0
  184.5120  176.0460  136.5870 C   0  0  1  0  0  3  0  0  0  0  0  0
  1 16  1  0  0  0  0
  2  8  1  0  0  0  0
  4 20  1  0  0  0  0
  5 27  1  6  0  0  0
  6  1  1  0  0  0  0
  7  8  1  0  0  0  0
  8 14  1  0  0  0  0
  9 18  1  1  0  0  0
  9 13  1  0  0  0  0
 10  8  1  6  0  0  0
 10 26  1  0  0  0  0
 12 25  1  0  0  0  0
 12 24  1  0  0  0  0
 14  9  1  0  0  0  0
 15 19  1  0  0  0  0
 15 11  1  0  0  0  0
 16 28  1  0  0  0  0
 16 20  2  0  0  0  0
 17  5  1  0  0  0  0
 17  3  1  0  0  0  0
 19 25  1  0  0  0  0
 21  1  2  0  0  0  0
 21 22  1  0  0  0  0
 22  4  2  0  0  0  0
 23  6  1  0  0  0  0
 23 15  1  0  0  0  0
 24 26  1  0  0  0  0
 24  5  1  0  0  0  0
 25 17  1  0  0  0  0
 26 13  1  0  0  0  0
 28 12  1  0  0  0  0
 28 10  1  0  0  0  0
M  END
>  <MODEL>
8

>  <REMARK>
 VINA RESULT:      -4.8      3.833      8.206
  Name = 
  0 active torsions:
  status: ('A' for Active; 'I' for Inactive)
                            x       y       z     vdW  Elec       q    Type
                         _______ _______ _______ _____ _____    ______ ____

>  <TORSDO>
F 0

$$$$
=
 OpenBabel11122411583D

 28 32  0  0  1  0  0  0  0  0999 V2000
  182.1570  178.6520  138.0560 C   0  0  0  0  0  0  0  0  0  0  0  0
  186.2650  177.8300  135.2570 O   0  0  0  0  0  1  0  0  0  0  0  0
  181.3040  173.6400  137.0260 C   0  0  0  0  0  1  0  0  0  0  0  0
  183.0690  178.2460  140.6720 C   0  0  0  0  0  3  0  0  0  0  0  0
  183.7060  174.0920  136.2390 C   0  0  2  0  0  3  0  0  0  0  0  0
  181.7030  178.8240  136.7450 O   0  0  0  0  0  0  0  0  0  0  0  0
  186.9510  178.9010  137.1390 O   0  0  0  0  0  1  0  0  0  0  0  0
  186.6780  177.6520  136.5830 C   0  0  0  0  0  0  0  0  0  0  0  0
  187.6640  175.4450  136.0650 C   0  0  1  0  0  3  0  0  0  0  0  0
  185.5750  176.9600  137.4270 C   0  0  2  0  0  3  0  0  0  0  0  0
  179.7320  176.6060  137.6470 O   0  0  0  0  0  1  0  0  0  0  0  0
  183.5200  176.4940  136.1970 C   0  0  1  0  0  3  0  0  0  0  0  0
  186.6940  174.7640  137.0160 C   0  0  0  0  0  2  0  0  0  0  0  0
  187.9580  176.8330  136.5910 C   0  0  0  0  0  2  0  0  0  0  0  0
  180.0810  177.0270  136.3630 C   0  0  2  0  0  3  0  0  0  0  0  0
  183.4050  178.0370  138.2720 C   0  0  0  0  0  0  0  0  0  0  0  0
  182.5290  174.5560  137.0700 C   0  0  1  0  0  3  0  0  0  0  0  0
  188.8470  174.7100  136.0060 O   0  0  0  0  0  1  0  0  0  0  0  0
  181.2200  176.1730  135.7920 C   0  0  0  0  0  2  0  0  0  0  0  0
  183.8510  177.8360  139.5880 C   0  0  0  0  0  3  0  0  0  0  0  0
  181.3730  179.0510  139.1460 C   0  0  0  0  0  3  0  0  0  0  0  0
  181.8300  178.8520  140.4510 C   0  0  0  0  0  3  0  0  0  0  0  0
  180.3670  178.5340  136.3460 C   0  0  0  0  0  2  0  0  0  0  0  0
  184.5220  175.3530  136.0750 C   0  0  1  0  0  3  0  0  0  0  0  0
  182.2790  175.9780  136.7880 N   0  0  2  0  0  0  0  0  0  0  0  0
  185.4400  175.5110  137.1960 N   0  0  2  0  0  0  0  0  0  0  0  0
  183.2810  173.6620  134.9790 O   0  0  0  0  0  1  0  0  0  0  0  0
  184.2090  177.5530  137.0810 C   0  0  1  0  0  3  0  0  0  0  0  0
  1 16  2  0  0  0  0
  1 21  1  0  0  0  0
  2  8  1  0  0  0  0
  3 17  1  0  0  0  0
  5 27  1  6  0  0  0
  5 17  1  0  0  0  0
  6  1  1  0  0  0  0
  8 14  1  0  0  0  0
  8  7  1  0  0  0  0
  9 18  1  1  0  0  0
  9 14  1  0  0  0  0
  9 13  1  0  0  0  0
 10  8  1  6  0  0  0
 12 25  1  0  0  0  0
 12 28  1  0  0  0  0
 13 26  1  0  0  0  0
 15 11  1  0  0  0  0
 16 20  1  0  0  0  0
 19 15  1  0  0  0  0
 19 25  1  0  0  0  0
 20  4  2  0  0  0  0
 21 22  2  0  0  0  0
 22  4  1  0  0  0  0
 23 15  1  0  0  0  0
 23  6  1  0  0  0  0
 24 12  1  0  0  0  0
 24  5  1  0  0  0  0
 24 26  1  0  0  0  0
 25 17  1  0  0  0  0
 26 10  1  0  0  0  0
 28 10  1  0  0  0  0
 28 16  1  0  0  0  0
M  END
>  <MODEL>
9

>  <REMARK>
 VINA RESULT:      -4.7      4.537      6.681
  Name = 
  0 active torsions:
  status: ('A' for Active; 'I' for Inactive)
                            x       y       z     vdW  Elec       q    Type
                         _______ _______ _______ _____ _____    ______ ____

>  <TORSDO>
F 0

$$$$
