=
 OpenBabel11122410433D

 32 36  0  0  1  0  0  0  0  0999 V2000
  187.6860  179.0670  136.8480 C   0  0  0  0  0  2  0  0  0  0  0  0
  187.7890  177.6590  141.8650 C   0  0  0  0  0  0  0  0  0  0  0  0
  183.6400  179.4180  143.6630 C   0  0  0  0  0  3  0  0  0  0  0  0
  183.9780  178.9040  145.0050 C   0  0  0  0  0  3  0  0  0  0  0  0
  189.5890  176.8860  143.4080 C   0  0  1  0  0  3  0  0  0  0  0  0
  190.1110  177.4850  144.6920 C   0  0  0  0  0  0  0  0  0  0  0  0
  188.1360  177.5420  139.3830 C   0  0  1  0  0  3  0  0  0  0  0  0
  185.9400  178.3010  140.2550 C   0  0  0  0  0  2  0  0  0  0  0  0
  186.5450  178.7590  137.8360 C   0  0  2  0  0  3  0  0  0  0  0  0
  184.3360  179.0420  142.5850 C   0  0  0  0  0  3  0  0  0  0  0  0
  186.4390  178.1380  141.6270 N   0  0  0  0  0  0  0  0  0  0  0  0
  185.4200  177.9940  142.6780 C   0  0  1  0  0  3  0  0  0  0  0  0
  187.2720  177.5340  144.2630 C   0  0  0  0  0  0  0  0  0  0  0  0
  189.0870  178.9080  137.4500 C   0  0  0  0  0  2  0  0  0  0  0  0
  187.0590  178.6210  139.2760 C   0  0  2  0  0  3  0  0  0  0  0  0
  189.1880  177.6190  138.2660 C   0  0  0  0  0  2  0  0  0  0  0  0
  185.1010  178.2070  145.2080 C   0  0  0  0  0  3  0  0  0  0  0  0
  186.0020  177.9170  144.0730 C   0  0  0  0  0  0  0  0  0  0  0  0
  187.8290  177.3150  145.6450 C   0  0  0  0  0  2  0  0  0  0  0  0
  188.8010  177.6450  140.7430 C   0  0  0  0  0  2  0  0  0  0  0  0
  189.6310  175.3690  143.4780 C   0  0  0  0  0  1  0  0  0  0  0  0
  188.1850  177.3530  143.1140 C   0  0  0  0  0  0  0  0  0  0  0  0
  189.2760  177.7210  145.7390 C   0  0  0  0  0  0  0  0  0  0  0  0
  189.6660  178.3350  147.0290 C   0  0  0  0  0  3  0  0  0  0  0  0
  189.0210  178.1900  148.1800 C   0  0  0  0  0  2  0  0  0  0  0  0
  191.8270  179.0420  144.0120 N   0  0  0  0  0  1  0  0  0  0  0  0
  191.5740  177.7970  144.7170 C   0  0  0  0  0  2  0  0  0  0  0  0
  185.8870  177.5930  137.4330 O   0  0  0  0  0  0  0  0  0  0  0  0
  186.1480  177.4850  136.0650 C   0  0  0  0  0  2  0  0  0  0  0  0
  186.3010  176.0520  135.6980 C   0  0  0  0  0  0  0  0  0  0  0  0
  185.7710  175.6120  134.6440 O   0  0  0  0  0  0  0  0  0  0  0  0
  187.0100  175.1690  136.5580 N   0  0  0  0  0  1  0  0  0  0  0  0
  1 14  1  0  0  0  0
  1  9  1  0  0  0  0
  2 22  2  0  0  0  0
  3  4  1  0  0  0  0
  4 17  2  0  0  0  0
  5 21  1  1  0  0  0
  5  6  1  0  0  0  0
  6 27  1  0  0  0  0
  6 23  2  0  0  0  0
  7 16  1  6  0  0  0
  7 20  1  0  0  0  0
  8 11  1  0  0  0  0
  9 28  1  6  0  0  0
  9 15  1  0  0  0  0
 10  3  2  0  0  0  0
 11  2  1  0  0  0  0
 11 12  1  0  0  0  0
 12 10  1  1  0  0  0
 12 18  1  0  0  0  0
 13 19  1  0  0  0  0
 14 16  1  0  0  0  0
 15  7  1  0  0  0  0
 15  8  1  1  0  0  0
 18 13  2  0  0  0  0
 18 17  1  0  0  0  0
 19 23  1  0  0  0  0
 20  2  1  0  0  0  0
 22  5  1  0  0  0  0
 22 13  1  0  0  0  0
 23 24  1  0  0  0  0
 24 25  2  0  0  0  0
 26 27  1  0  0  0  0
 29 28  1  0  0  0  0
 30 29  1  0  0  0  0
 30 32  1  0  0  0  0
 31 30  2  0  0  0  0
M  END
>  <MODEL>
1

>  <REMARK>
 VINA RESULT:      -8.1      0.000      0.000
  Name = 
  5 active torsions:
  status: ('A' for Active; 'I' for Inactive)
    1  A    between atoms: C_6  and  C_18
    2  A    between atoms: C_9  and  C_28
    3  A    between atoms: C_10  and  O_20
    4  A    between atoms: O_20  and  C_29
    5  A    between atoms: C_29  and  C_30
                            x       y       z     vdW  Elec       q    Type
                         _______ _______ _______ _____ _____    ______ ____

>  <TORSDO>
F 5

$$$$
=
 OpenBabel11122410433D

 32 36  0  0  1  0  0  0  0  0999 V2000
  190.7940  176.1970  144.9200 C   0  0  0  0  0  2  0  0  0  0  0  0
  188.2070  177.8550  140.7110 C   0  0  0  0  0  0  0  0  0  0  0  0
  183.6140  178.2350  142.2310 C   0  0  0  0  0  3  0  0  0  0  0  0
  183.1820  178.6670  140.8860 C   0  0  0  0  0  3  0  0  0  0  0  0
  188.7210  177.9030  138.2720 C   0  0  1  0  0  3  0  0  0  0  0  0
  188.0210  177.2520  137.1030 C   0  0  0  0  0  0  0  0  0  0  0  0
  190.0660  177.5920  142.3750 C   0  0  1  0  0  3  0  0  0  0  0  0
  187.7520  177.9400  143.2030 C   0  0  0  0  0  2  0  0  0  0  0  0
  189.5220  177.0540  144.7880 C   0  0  2  0  0  3  0  0  0  0  0  0
  184.9110  178.1760  142.5530 C   0  0  0  0  0  3  0  0  0  0  0  0
  187.2720  177.9900  141.8150 N   0  0  0  0  0  0  0  0  0  0  0  0
  185.9790  178.6540  141.5970 C   0  0  1  0  0  3  0  0  0  0  0  0
  186.3810  178.4020  139.1610 C   0  0  0  0  0  0  0  0  0  0  0  0
  191.4070  175.7850  143.5770 C   0  0  0  0  0  2  0  0  0  0  0  0
  188.9990  177.0820  143.3440 C   0  0  2  0  0  3  0  0  0  0  0  0
  191.4500  176.9690  142.6100 C   0  0  0  0  0  2  0  0  0  0  0  0
  184.0700  178.8220  139.9000 C   0  0  0  0  0  3  0  0  0  0  0  0
  185.5070  178.5930  140.1590 C   0  0  0  0  0  0  0  0  0  0  0  0
  185.9550  178.4780  137.7190 C   0  0  0  0  0  2  0  0  0  0  0  0
  189.6030  177.3300  140.9540 C   0  0  0  0  0  2  0  0  0  0  0  0
  189.2890  179.2520  137.8620 C   0  0  0  0  0  1  0  0  0  0  0  0
  187.7920  178.0680  139.4490 C   0  0  0  0  0  0  0  0  0  0  0  0
  186.7050  177.4950  136.8590 C   0  0  0  0  0  0  0  0  0  0  0  0
  185.9060  176.8880  135.7690 C   0  0  0  0  0  3  0  0  0  0  0  0
  184.5890  176.7220  135.7770 C   0  0  0  0  0  2  0  0  0  0  0  0
  189.4520  175.3070  137.1000 N   0  0  0  0  0  1  0  0  0  0  0  0
  188.8610  176.3400  136.2660 C   0  0  0  0  0  2  0  0  0  0  0  0
  189.7890  178.3510  145.2410 O   0  0  0  0  0  0  0  0  0  0  0  0
  189.7610  178.2590  146.6340 C   0  0  0  0  0  2  0  0  0  0  0  0
  188.4170  177.8020  147.0770 C   0  0  0  0  0  0  0  0  0  0  0  0
  187.3840  178.3870  146.6570 O   0  0  0  0  0  0  0  0  0  0  0  0
  188.2990  176.7340  148.0080 N   0  0  0  0  0  1  0  0  0  0  0  0
  2 20  1  0  0  0  0
  2 11  1  0  0  0  0
  3 10  2  0  0  0  0
  4  3  1  0  0  0  0
  5 21  1  6  0  0  0
  5 22  1  0  0  0  0
  6  5  1  0  0  0  0
  7 20  1  6  0  0  0
  7 16  1  0  0  0  0
  7 15  1  0  0  0  0
  9  1  1  0  0  0  0
  9 28  1  6  0  0  0
 11  8  1  0  0  0  0
 12 11  1  0  0  0  0
 12 10  1  1  0  0  0
 13 22  1  0  0  0  0
 13 18  2  0  0  0  0
 14  1  1  0  0  0  0
 15  8  1  1  0  0  0
 15  9  1  0  0  0  0
 16 14  1  0  0  0  0
 17 18  1  0  0  0  0
 17  4  2  0  0  0  0
 18 12  1  0  0  0  0
 19 13  1  0  0  0  0
 22  2  2  0  0  0  0
 23  6  2  0  0  0  0
 23 19  1  0  0  0  0
 24 25  2  0  0  0  0
 24 23  1  0  0  0  0
 27 26  1  0  0  0  0
 27  6  1  0  0  0  0
 28 29  1  0  0  0  0
 29 30  1  0  0  0  0
 30 32  1  0  0  0  0
 31 30  2  0  0  0  0
M  END
>  <MODEL>
2

>  <REMARK>
 VINA RESULT:      -7.2      3.030      7.434
  Name = 
  5 active torsions:
  status: ('A' for Active; 'I' for Inactive)
    1  A    between atoms: C_6  and  C_18
    2  A    between atoms: C_9  and  C_28
    3  A    between atoms: C_10  and  O_20
    4  A    between atoms: O_20  and  C_29
    5  A    between atoms: C_29  and  C_30
                            x       y       z     vdW  Elec       q    Type
                         _______ _______ _______ _____ _____    ______ ____

>  <TORSDO>
F 5

$$$$
=
 OpenBabel11122410433D

 32 36  0  0  1  0  0  0  0  0999 V2000
  179.1240  177.9280  140.0140 C   0  0  0  0  0  2  0  0  0  0  0  0
  184.0630  178.5940  141.5410 C   0  0  0  0  0  0  0  0  0  0  0  0
  186.6640  177.6040  137.5670 C   0  0  0  0  0  3  0  0  0  0  0  0
  187.9210  177.8440  138.3040 C   0  0  0  0  0  3  0  0  0  0  0  0
  185.1830  178.7250  143.7650 C   0  0  1  0  0  3  0  0  0  0  0  0
  186.2530  177.8580  144.3820 C   0  0  0  0  0  0  0  0  0  0  0  0
  181.5860  178.9590  141.3670 C   0  0  1  0  0  3  0  0  0  0  0  0
  182.8990  178.6110  139.2900 C   0  0  0  0  0  2  0  0  0  0  0  0
  180.3770  178.3530  139.2270 C   0  0  2  0  0  3  0  0  0  0  0  0
  185.4820  177.9510  138.0880 C   0  0  0  0  0  3  0  0  0  0  0  0
  184.1200  178.4720  140.0950 N   0  0  0  0  0  0  0  0  0  0  0  0
  185.3920  178.7030  139.3960 C   0  0  1  0  0  3  0  0  0  0  0  0
  186.5170  178.5140  141.5990 C   0  0  0  0  0  0  0  0  0  0  0  0
  179.3820  177.6820  141.5050 C   0  0  0  0  0  2  0  0  0  0  0  0
  181.6590  178.1770  140.0550 C   0  0  2  0  0  3  0  0  0  0  0  0
  180.2470  178.7940  142.1010 C   0  0  0  0  0  2  0  0  0  0  0  0
  187.9010  178.2330  139.5820 C   0  0  0  0  0  3  0  0  0  0  0  0
  186.6090  178.4590  140.2630 C   0  0  0  0  0  0  0  0  0  0  0  0
  187.7380  178.4140  142.4750 C   0  0  0  0  0  2  0  0  0  0  0  0
  182.7350  178.5270  142.2600 C   0  0  0  0  0  2  0  0  0  0  0  0
  185.3570  180.1700  144.2030 C   0  0  0  0  0  1  0  0  0  0  0  0
  185.2000  178.6340  142.2600 C   0  0  0  0  0  0  0  0  0  0  0  0
  187.4500  177.6810  143.7590 C   0  0  0  0  0  0  0  0  0  0  0  0
  188.5570  176.8280  144.2480 C   0  0  0  0  0  3  0  0  0  0  0  0
  189.5730  177.2350  144.9990 C   0  0  0  0  0  2  0  0  0  0  0  0
  186.4080  178.0270  146.7860 N   0  0  0  0  0  1  0  0  0  0  0  0
  185.9020  177.2200  145.6890 C   0  0  0  0  0  2  0  0  0  0  0  0
  180.2350  179.6820  138.8140 O   0  0  0  0  0  0  0  0  0  0  0  0
  180.0330  179.6110  137.4340 C   0  0  0  0  0  2  0  0  0  0  0  0
  180.6480  180.7960  136.7780 C   0  0  0  0  0  0  0  0  0  0  0  0
  180.7550  180.8350  135.5240 O   0  0  0  0  0  0  0  0  0  0  0  0
  181.1530  181.8640  137.5680 N   0  0  0  0  0  1  0  0  0  0  0  0
  1 14  1  0  0  0  0
  2 20  1  0  0  0  0
  2 22  2  0  0  0  0
  3 10  2  0  0  0  0
  3  4  1  0  0  0  0
  4 17  2  0  0  0  0
  5 21  1  6  0  0  0
  5  6  1  0  0  0  0
  6 27  1  0  0  0  0
  7 16  1  1  0  0  0
  7 20  1  0  0  0  0
  8 11  1  0  0  0  0
  9 28  1  1  0  0  0
  9  1  1  0  0  0  0
  9 15  1  0  0  0  0
 11  2  1  0  0  0  0
 12 10  1  6  0  0  0
 12 11  1  0  0  0  0
 12 18  1  0  0  0  0
 13 22  1  0  0  0  0
 13 19  1  0  0  0  0
 14 16  1  0  0  0  0
 15  8  1  6  0  0  0
 15  7  1  0  0  0  0
 17 18  1  0  0  0  0
 18 13  2  0  0  0  0
 19 23  1  0  0  0  0
 22  5  1  0  0  0  0
 23 24  1  0  0  0  0
 23  6  2  0  0  0  0
 24 25  2  0  0  0  0
 27 26  1  0  0  0  0
 29 28  1  0  0  0  0
 30 29  1  0  0  0  0
 30 32  1  0  0  0  0
 31 30  2  0  0  0  0
M  END
>  <MODEL>
3

>  <REMARK>
 VINA RESULT:      -6.9      3.604      6.041
  Name = 
  5 active torsions:
  status: ('A' for Active; 'I' for Inactive)
    1  A    between atoms: C_6  and  C_18
    2  A    between atoms: C_9  and  C_28
    3  A    between atoms: C_10  and  O_20
    4  A    between atoms: O_20  and  C_29
    5  A    between atoms: C_29  and  C_30
                            x       y       z     vdW  Elec       q    Type
                         _______ _______ _______ _____ _____    ______ ____

>  <TORSDO>
F 5

$$$$
=
 OpenBabel11122410433D

 32 36  0  0  1  0  0  0  0  0999 V2000
  192.9020  172.9770  136.1780 C   0  0  0  0  0  2  0  0  0  0  0  0
  189.0980  176.3700  137.2670 C   0  0  0  0  0  0  0  0  0  0  0  0
  189.7140  177.3530  141.9780 C   0  0  0  0  0  3  0  0  0  0  0  0
  188.5440  178.2530  141.9660 C   0  0  0  0  0  3  0  0  0  0  0  0
  186.9770  177.0160  136.1250 C   0  0  1  0  0  3  0  0  0  0  0  0
  185.5430  176.9250  136.5840 C   0  0  0  0  0  0  0  0  0  0  0  0
  190.9020  175.1950  135.9790 C   0  0  1  0  0  3  0  0  0  0  0  0
  191.3240  175.8170  138.3440 C   0  0  0  0  0  2  0  0  0  0  0  0
  192.8240  174.1100  137.2180 C   0  0  2  0  0  3  0  0  0  0  0  0
  190.2460  176.8970  140.8390 C   0  0  0  0  0  3  0  0  0  0  0  0
  189.9730  176.3880  138.4260 N   0  0  0  0  0  0  0  0  0  0  0  0
  189.7450  177.3710  139.4940 C   0  0  1  0  0  3  0  0  0  0  0  0
  187.5020  177.7660  138.5080 C   0  0  0  0  0  0  0  0  0  0  0  0
  191.6480  172.8500  135.3050 C   0  0  0  0  0  2  0  0  0  0  0  0
  191.4050  174.6870  137.3300 C   0  0  2  0  0  3  0  0  0  0  0  0
  191.1770  174.2220  134.8220 C   0  0  0  0  0  2  0  0  0  0  0  0
  187.8680  178.4800  140.8350 C   0  0  0  0  0  3  0  0  0  0  0  0
  188.3110  177.8520  139.5730 C   0  0  0  0  0  0  0  0  0  0  0  0
  186.1210  178.3640  138.5190 C   0  0  0  0  0  2  0  0  0  0  0  0
  189.4160  175.4830  136.0850 C   0  0  0  0  0  2  0  0  0  0  0  0
  187.1790  178.2520  135.2630 C   0  0  0  0  0  1  0  0  0  0  0  0
  187.9300  177.0390  137.2930 C   0  0  0  0  0  0  0  0  0  0  0  0
  185.1410  177.5330  137.7340 C   0  0  0  0  0  0  0  0  0  0  0  0
  183.7740  177.4820  138.3020 C   0  0  0  0  0  3  0  0  0  0  0  0
  183.4460  177.7770  139.5540 C   0  0  0  0  0  2  0  0  0  0  0  0
  185.2670  174.8860  135.3210 N   0  0  0  0  0  1  0  0  0  0  0  0
  184.6260  176.1310  135.7080 C   0  0  0  0  0  2  0  0  0  0  0  0
  193.7390  175.1130  136.8800 O   0  0  0  0  0  0  0  0  0  0  0  0
  194.9940  174.5190  137.0260 C   0  0  0  0  0  2  0  0  0  0  0  0
  195.2790  174.3020  138.4690 C   0  0  0  0  0  0  0  0  0  0  0  0
  195.4250  175.2880  139.2370 O   0  0  0  0  0  0  0  0  0  0  0  0
  195.4310  172.9810  138.9730 N   0  0  0  0  0  1  0  0  0  0  0  0
  1  9  1  0  0  0  0
  2 22  2  0  0  0  0
  2 11  1  0  0  0  0
  4  3  1  0  0  0  0
  5 21  1  1  0  0  0
  5  6  1  0  0  0  0
  5 22  1  0  0  0  0
  6 23  2  0  0  0  0
  7 16  1  6  0  0  0
  7 20  1  0  0  0  0
  7 15  1  0  0  0  0
  8 11  1  0  0  0  0
  9 28  1  6  0  0  0
  9 15  1  0  0  0  0
 10  3  2  0  0  0  0
 11 12  1  0  0  0  0
 12 18  1  0  0  0  0
 12 10  1  1  0  0  0
 13 19  1  0  0  0  0
 13 18  2  0  0  0  0
 14  1  1  0  0  0  0
 15  8  1  1  0  0  0
 16 14  1  0  0  0  0
 17  4  2  0  0  0  0
 18 17  1  0  0  0  0
 20  2  1  0  0  0  0
 22 13  1  0  0  0  0
 23 24  1  0  0  0  0
 23 19  1  0  0  0  0
 24 25  2  0  0  0  0
 26 27  1  0  0  0  0
 27  6  1  0  0  0  0
 28 29  1  0  0  0  0
 29 30  1  0  0  0  0
 30 32  1  0  0  0  0
 30 31  2  0  0  0  0
M  END
>  <MODEL>
4

>  <REMARK>
 VINA RESULT:      -6.7      4.237      7.785
  Name = 
  5 active torsions:
  status: ('A' for Active; 'I' for Inactive)
    1  A    between atoms: C_6  and  C_18
    2  A    between atoms: C_9  and  C_28
    3  A    between atoms: C_10  and  O_20
    4  A    between atoms: O_20  and  C_29
    5  A    between atoms: C_29  and  C_30
                            x       y       z     vdW  Elec       q    Type
                         _______ _______ _______ _____ _____    ______ ____

>  <TORSDO>
F 5

$$$$
=
 OpenBabel11122410433D

 32 36  0  0  1  0  0  0  0  0999 V2000
  189.6350  175.6500  136.7600 C   0  0  0  0  0  2  0  0  0  0  0  0
  188.4870  177.5570  141.4730 C   0  0  0  0  0  0  0  0  0  0  0  0
  191.9100  175.6910  144.3600 C   0  0  0  0  0  3  0  0  0  0  0  0
  191.3150  176.3600  145.5340 C   0  0  0  0  0  3  0  0  0  0  0  0
  186.4560  178.6090  142.4650 C   0  0  1  0  0  3  0  0  0  0  0  0
  185.5910  178.1820  143.6260 C   0  0  0  0  0  0  0  0  0  0  0  0
  188.7470  177.4510  138.9790 C   0  0  1  0  0  3  0  0  0  0  0  0
  190.5940  176.6250  140.4170 C   0  0  0  0  0  2  0  0  0  0  0  0
  190.5350  175.9720  137.9670 C   0  0  2  0  0  3  0  0  0  0  0  0
  191.5270  176.0060  143.1190 C   0  0  0  0  0  3  0  0  0  0  0  0
  189.8040  176.9600  141.6090 N   0  0  0  0  0  0  0  0  0  0  0  0
  190.5550  177.1350  142.8610 C   0  0  1  0  0  3  0  0  0  0  0  0
  188.4340  177.8840  143.9060 C   0  0  0  0  0  0  0  0  0  0  0  0
  188.1530  175.9700  136.9880 C   0  0  0  0  0  2  0  0  0  0  0  0
  189.7120  176.2900  139.2240 C   0  0  2  0  0  3  0  0  0  0  0  0
  187.9850  177.3390  137.6500 C   0  0  0  0  0  2  0  0  0  0  0  0
  190.2480  177.1530  145.4020 C   0  0  0  0  0  3  0  0  0  0  0  0
  189.6710  177.3930  144.0620 C   0  0  0  0  0  0  0  0  0  0  0  0
  187.5910  178.2800  145.0900 C   0  0  0  0  0  2  0  0  0  0  0  0
  187.7730  177.5330  140.1410 C   0  0  0  0  0  2  0  0  0  0  0  0
  186.5420  180.1260  142.4010 C   0  0  0  0  0  1  0  0  0  0  0  0
  187.8390  178.0150  142.5590 C   0  0  0  0  0  0  0  0  0  0  0  0
  186.1300  177.9920  144.8610 C   0  0  0  0  0  0  0  0  0  0  0  0
  185.3910  177.5400  146.0620 C   0  0  0  0  0  3  0  0  0  0  0  0
  184.9320  178.3260  147.0280 C   0  0  0  0  0  2  0  0  0  0  0  0
  183.3790  179.1440  143.7420 N   0  0  0  0  0  1  0  0  0  0  0  0
  184.1410  177.9810  143.3200 C   0  0  0  0  0  2  0  0  0  0  0  0
  191.3770  177.0410  137.6450 O   0  0  0  0  0  0  0  0  0  0  0  0
  192.4970  176.4530  137.0540 C   0  0  0  0  0  2  0  0  0  0  0  0
  193.5350  176.2030  138.0890 C   0  0  0  0  0  0  0  0  0  0  0  0
  193.6720  177.0060  139.0490 O   0  0  0  0  0  0  0  0  0  0  0  0
  194.3990  175.0800  137.9730 N   0  0  0  0  0  1  0  0  0  0  0  0
  1 14  1  0  0  0  0
  1  9  1  0  0  0  0
  2 11  1  0  0  0  0
  2 22  2  0  0  0  0
  3  4  1  0  0  0  0
  5 21  1  1  0  0  0
  5 22  1  0  0  0  0
  5  6  1  0  0  0  0
  6 23  2  0  0  0  0
  7 16  1  6  0  0  0
  7 15  1  0  0  0  0
  7 20  1  0  0  0  0
  8 11  1  0  0  0  0
  9 28  1  6  0  0  0
  9 15  1  0  0  0  0
 10  3  2  0  0  0  0
 11 12  1  0  0  0  0
 12 10  1  1  0  0  0
 12 18  1  0  0  0  0
 13 18  2  0  0  0  0
 13 19  1  0  0  0  0
 14 16  1  0  0  0  0
 15  8  1  1  0  0  0
 17  4  2  0  0  0  0
 18 17  1  0  0  0  0
 20  2  1  0  0  0  0
 22 13  1  0  0  0  0
 23 19  1  0  0  0  0
 23 24  1  0  0  0  0
 24 25  2  0  0  0  0
 27  6  1  0  0  0  0
 27 26  1  0  0  0  0
 29 28  1  0  0  0  0
 29 30  1  0  0  0  0
 30 31  2  0  0  0  0
 32 30  1  0  0  0  0
M  END
>  <MODEL>
5

>  <REMARK>
 VINA RESULT:      -6.3      2.915      5.296
  Name = 
  5 active torsions:
  status: ('A' for Active; 'I' for Inactive)
    1  A    between atoms: C_6  and  C_18
    2  A    between atoms: C_9  and  C_28
    3  A    between atoms: C_10  and  O_20
    4  A    between atoms: O_20  and  C_29
    5  A    between atoms: C_29  and  C_30
                            x       y       z     vdW  Elec       q    Type
                         _______ _______ _______ _____ _____    ______ ____

>  <TORSDO>
F 5

$$$$
=
 OpenBabel11122410433D

 32 36  0  0  1  0  0  0  0  0999 V2000
  188.8160  176.8330  145.1330 C   0  0  0  0  0  2  0  0  0  0  0  0
  187.4220  178.0810  140.2690 C   0  0  0  0  0  0  0  0  0  0  0  0
  182.6030  177.5160  140.2480 C   0  0  0  0  0  3  0  0  0  0  0  0
  182.5420  177.8960  138.8230 C   0  0  0  0  0  3  0  0  0  0  0  0
  188.6610  178.3010  138.1160 C   0  0  1  0  0  3  0  0  0  0  0  0
  188.5060  177.5620  136.8100 C   0  0  0  0  0  0  0  0  0  0  0  0
  188.6740  178.1350  142.4430 C   0  0  1  0  0  3  0  0  0  0  0  0
  186.1960  178.0020  142.4860 C   0  0  0  0  0  2  0  0  0  0  0  0
  187.5110  177.4310  144.5770 C   0  0  2  0  0  3  0  0  0  0  0  0
  183.7170  177.7010  140.9650 C   0  0  0  0  0  3  0  0  0  0  0  0
  186.1790  178.0000  141.0170 N   0  0  0  0  0  0  0  0  0  0  0  0
  184.9180  178.4050  140.3790 C   0  0  1  0  0  3  0  0  0  0  0  0
  186.1100  178.3090  138.2050 C   0  0  0  0  0  0  0  0  0  0  0  0
  189.8900  176.5880  144.0660 C   0  0  0  0  0  2  0  0  0  0  0  0
  187.4760  177.3990  143.0420 C   0  0  2  0  0  3  0  0  0  0  0  0
  190.0060  177.7860  143.1230 C   0  0  0  0  0  2  0  0  0  0  0  0
  183.6490  178.2500  138.1620 C   0  0  0  0  0  3  0  0  0  0  0  0
  184.9460  178.2960  138.8690 C   0  0  0  0  0  0  0  0  0  0  0  0
  186.1550  178.3440  136.7000 C   0  0  0  0  0  2  0  0  0  0  0  0
  188.7440  177.8310  140.9570 C   0  0  0  0  0  2  0  0  0  0  0  0
  189.0570  179.7460  137.8620 C   0  0  0  0  0  1  0  0  0  0  0  0
  187.3950  178.2470  138.9340 C   0  0  0  0  0  0  0  0  0  0  0  0
  187.3140  177.5510  136.1540 C   0  0  0  0  0  0  0  0  0  0  0  0
  187.0330  176.8330  134.8890 C   0  0  0  0  0  3  0  0  0  0  0  0
  186.2950  175.7370  134.7710 C   0  0  0  0  0  2  0  0  0  0  0  0
  189.8530  175.5640  136.9650 N   0  0  0  0  0  1  0  0  0  0  0  0
  189.7270  176.8550  136.3110 C   0  0  0  0  0  2  0  0  0  0  0  0
  187.3640  178.7400  145.0470 O   0  0  0  0  0  0  0  0  0  0  0  0
  186.7910  178.6070  146.3140 C   0  0  0  0  0  2  0  0  0  0  0  0
  185.3210  178.8100  146.2200 C   0  0  0  0  0  0  0  0  0  0  0  0
  184.5550  178.2590  147.0530 O   0  0  0  0  0  0  0  0  0  0  0  0
  184.7760  179.5910  145.1630 N   0  0  0  0  0  1  0  0  0  0  0  0
  2 20  1  0  0  0  0
  2 11  1  0  0  0  0
  3 10  2  0  0  0  0
  4  3  1  0  0  0  0
  5 21  1  6  0  0  0
  5 22  1  0  0  0  0
  6  5  1  0  0  0  0
  7 20  1  6  0  0  0
  7 15  1  0  0  0  0
  7 16  1  0  0  0  0
  9 28  1  6  0  0  0
  9  1  1  0  0  0  0
 11  8  1  0  0  0  0
 12 10  1  1  0  0  0
 12 11  1  0  0  0  0
 13 18  2  0  0  0  0
 13 22  1  0  0  0  0
 14  1  1  0  0  0  0
 15  8  1  6  0  0  0
 15  9  1  0  0  0  0
 16 14  1  0  0  0  0
 17  4  2  0  0  0  0
 17 18  1  0  0  0  0
 18 12  1  0  0  0  0
 19 13  1  0  0  0  0
 22  2  2  0  0  0  0
 23 19  1  0  0  0  0
 23  6  2  0  0  0  0
 24 23  1  0  0  0  0
 25 24  2  0  0  0  0
 27  6  1  0  0  0  0
 27 26  1  0  0  0  0
 28 29  1  0  0  0  0
 30 29  1  0  0  0  0
 30 31  2  0  0  0  0
 32 30  1  0  0  0  0
M  END
>  <MODEL>
6

>  <REMARK>
 VINA RESULT:      -6.0      3.028      7.505
  Name = 
  5 active torsions:
  status: ('A' for Active; 'I' for Inactive)
    1  A    between atoms: C_6  and  C_18
    2  A    between atoms: C_9  and  C_28
    3  A    between atoms: C_10  and  O_20
    4  A    between atoms: O_20  and  C_29
    5  A    between atoms: C_29  and  C_30
                            x       y       z     vdW  Elec       q    Type
                         _______ _______ _______ _____ _____    ______ ____

>  <TORSDO>
F 5

$$$$
=
 OpenBabel11122410433D

 32 36  0  0  1  0  0  0  0  0999 V2000
  187.8290  176.7530  144.7190 C   0  0  0  0  0  2  0  0  0  0  0  0
  184.0480  178.5240  141.5980 C   0  0  0  0  0  0  0  0  0  0  0  0
  180.0540  178.2860  144.3430 C   0  0  0  0  0  3  0  0  0  0  0  0
  179.2310  178.7960  143.2280 C   0  0  0  0  0  3  0  0  0  0  0  0
  183.8510  178.8520  139.1350 C   0  0  1  0  0  3  0  0  0  0  0  0
  182.9000  178.2450  138.1320 C   0  0  0  0  0  0  0  0  0  0  0  0
  186.3150  178.2980  142.6510 C   0  0  1  0  0  3  0  0  0  0  0  0
  184.3090  178.3280  144.1120 C   0  0  0  0  0  2  0  0  0  0  0  0
  186.5130  177.4840  145.0390 C   0  0  2  0  0  3  0  0  0  0  0  0
  181.3900  178.3310  144.2920 C   0  0  0  0  0  3  0  0  0  0  0  0
  183.4560  178.4580  142.9230 N   0  0  0  0  0  0  0  0  0  0  0  0
  182.1080  179.0030  143.1450 C   0  0  1  0  0  3  0  0  0  0  0  0
  181.8260  179.0230  140.6800 C   0  0  0  0  0  0  0  0  0  0  0  0
  188.0670  176.5340  143.2200 C   0  0  0  0  0  2  0  0  0  0  0  0
  185.6040  177.5930  143.8060 C   0  0  2  0  0  3  0  0  0  0  0  0
  187.7500  177.8010  142.4250 C   0  0  0  0  0  2  0  0  0  0  0  0
  179.7920  179.1330  142.0630 C   0  0  0  0  0  3  0  0  0  0  0  0
  181.2560  179.0290  141.8930 C   0  0  0  0  0  0  0  0  0  0  0  0
  181.0070  179.1900  139.4270 C   0  0  0  0  0  2  0  0  0  0  0  0
  185.4910  178.1250  141.3880 C   0  0  0  0  0  2  0  0  0  0  0  0
  184.1810  180.2850  138.7490 C   0  0  0  0  0  1  0  0  0  0  0  0
  183.2810  178.8100  140.5310 C   0  0  0  0  0  0  0  0  0  0  0  0
  181.5540  178.3740  138.2850 C   0  0  0  0  0  0  0  0  0  0  0  0
  180.5270  177.7930  137.3900 C   0  0  0  0  0  3  0  0  0  0  0  0
  179.5840  176.9310  137.7520 C   0  0  0  0  0  2  0  0  0  0  0  0
  184.8100  176.9530  137.4160 N   0  0  0  0  0  1  0  0  0  0  0  0
  183.5340  177.5070  136.9960 C   0  0  0  0  0  2  0  0  0  0  0  0
  186.8010  178.7530  145.5530 O   0  0  0  0  0  0  0  0  0  0  0  0
  186.5400  178.6560  146.9220 C   0  0  0  0  0  2  0  0  0  0  0  0
  187.7790  178.2560  147.6390 C   0  0  0  0  0  0  0  0  0  0  0  0
  188.9060  178.5500  147.1600 O   0  0  0  0  0  0  0  0  0  0  0  0
  187.6940  177.5040  148.8430 N   0  0  0  0  0  1  0  0  0  0  0  0
  1  9  1  0  0  0  0
  2 11  1  0  0  0  0
  4  3  1  0  0  0  0
  5 21  1  6  0  0  0
  5 22  1  0  0  0  0
  6 23  2  0  0  0  0
  6  5  1  0  0  0  0
  7 20  1  6  0  0  0
  7 15  1  0  0  0  0
  9 28  1  6  0  0  0
 10  3  2  0  0  0  0
 11 12  1  0  0  0  0
 11  8  1  0  0  0  0
 12 10  1  1  0  0  0
 13 18  2  0  0  0  0
 14  1  1  0  0  0  0
 15  8  1  1  0  0  0
 15  9  1  0  0  0  0
 16  7  1  0  0  0  0
 16 14  1  0  0  0  0
 17  4  2  0  0  0  0
 18 17  1  0  0  0  0
 18 12  1  0  0  0  0
 19 13  1  0  0  0  0
 20  2  1  0  0  0  0
 22 13  1  0  0  0  0
 22  2  2  0  0  0  0
 23 19  1  0  0  0  0
 24 25  2  0  0  0  0
 24 23  1  0  0  0  0
 27 26  1  0  0  0  0
 27  6  1  0  0  0  0
 28 29  1  0  0  0  0
 29 30  1  0  0  0  0
 30 32  1  0  0  0  0
 31 30  2  0  0  0  0
M  END
>  <MODEL>
7

>  <REMARK>
 VINA RESULT:      -6.0      3.938      8.255
  Name = 
  5 active torsions:
  status: ('A' for Active; 'I' for Inactive)
    1  A    between atoms: C_6  and  C_18
    2  A    between atoms: C_9  and  C_28
    3  A    between atoms: C_10  and  O_20
    4  A    between atoms: O_20  and  C_29
    5  A    between atoms: C_29  and  C_30
                            x       y       z     vdW  Elec       q    Type
                         _______ _______ _______ _____ _____    ______ ____

>  <TORSDO>
F 5

$$$$
=
 OpenBabel11122410433D

 32 36  0  0  1  0  0  0  0  0999 V2000
  188.3760  178.2530  145.8300 C   0  0  0  0  0  2  0  0  0  0  0  0
  185.6580  178.0500  141.3880 C   0  0  0  0  0  0  0  0  0  0  0  0
  188.9420  179.0400  137.9560 C   0  0  0  0  0  3  0  0  0  0  0  0
  187.9080  178.9360  136.9070 C   0  0  0  0  0  3  0  0  0  0  0  0
  183.2250  178.1190  140.8430 C   0  0  1  0  0  3  0  0  0  0  0  0
  182.4280  179.0970  140.0150 C   0  0  0  0  0  0  0  0  0  0  0  0
  186.4010  177.4850  143.7170 C   0  0  1  0  0  3  0  0  0  0  0  0
  188.1170  177.8300  141.9580 C   0  0  0  0  0  2  0  0  0  0  0  0
  188.8050  177.8870  144.3980 C   0  0  2  0  0  3  0  0  0  0  0  0
  188.7010  178.6280  139.2050 C   0  0  0  0  0  3  0  0  0  0  0  0
  187.0520  178.1040  140.9840 N   0  0  0  0  0  0  0  0  0  0  0  0
  187.4060  177.9380  139.5670 C   0  0  1  0  0  3  0  0  0  0  0  0
  185.0140  178.3240  139.0340 C   0  0  0  0  0  0  0  0  0  0  0  0
  186.8870  178.5920  145.9630 C   0  0  0  0  0  2  0  0  0  0  0  0
  187.7060  178.2040  143.3730 C   0  0  2  0  0  3  0  0  0  0  0  0
  186.0260  177.5820  145.2030 C   0  0  0  0  0  2  0  0  0  0  0  0
  186.6500  178.6110  137.2160 C   0  0  0  0  0  3  0  0  0  0  0  0
  186.2880  178.3190  138.6190 C   0  0  0  0  0  0  0  0  0  0  0  0
  183.8770  178.5620  138.0750 C   0  0  0  0  0  2  0  0  0  0  0  0
  185.2880  178.0500  142.8530 C   0  0  0  0  0  2  0  0  0  0  0  0
  182.6620  176.7150  140.6920 C   0  0  0  0  0  1  0  0  0  0  0  0
  184.6840  178.1350  140.4630 C   0  0  0  0  0  0  0  0  0  0  0  0
  182.7540  179.3340  138.7160 C   0  0  0  0  0  0  0  0  0  0  0  0
  182.0700  180.2950  137.8190 C   0  0  0  0  0  3  0  0  0  0  0  0
  181.0630  180.0080  137.0030 C   0  0  0  0  0  2  0  0  0  0  0  0
  180.0620  179.0250  140.4970 N   0  0  0  0  0  1  0  0  0  0  0  0
  181.2900  179.7700  140.7170 C   0  0  0  0  0  2  0  0  0  0  0  0
  189.1500  176.5320  144.3490 O   0  0  0  0  0  0  0  0  0  0  0  0
  190.4230  176.4630  144.9200 C   0  0  0  0  0  2  0  0  0  0  0  0
  191.4180  176.0970  143.8770 C   0  0  0  0  0  0  0  0  0  0  0  0
  192.0550  175.0150  143.9690 O   0  0  0  0  0  0  0  0  0  0  0  0
  191.6800  176.9870  142.7990 N   0  0  0  0  0  1  0  0  0  0  0  0
  1 14  1  0  0  0  0
  2 20  1  0  0  0  0
  3 10  2  0  0  0  0
  4 17  2  0  0  0  0
  4  3  1  0  0  0  0
  5 21  1  6  0  0  0
  6 27  1  0  0  0  0
  6  5  1  0  0  0  0
  7 20  1  6  0  0  0
  7 16  1  0  0  0  0
  9 28  1  1  0  0  0
  9  1  1  0  0  0  0
 11  2  1  0  0  0  0
 11  8  1  0  0  0  0
 12 10  1  6  0  0  0
 12 11  1  0  0  0  0
 13 22  1  0  0  0  0
 15  8  1  6  0  0  0
 15  7  1  0  0  0  0
 15  9  1  0  0  0  0
 16 14  1  0  0  0  0
 17 18  1  0  0  0  0
 18 13  2  0  0  0  0
 18 12  1  0  0  0  0
 19 23  1  0  0  0  0
 19 13  1  0  0  0  0
 22  5  1  0  0  0  0
 22  2  2  0  0  0  0
 23  6  2  0  0  0  0
 24 23  1  0  0  0  0
 25 24  2  0  0  0  0
 26 27  1  0  0  0  0
 28 29  1  0  0  0  0
 30 31  2  0  0  0  0
 30 29  1  0  0  0  0
 32 30  1  0  0  0  0
M  END
>  <MODEL>
8

>  <REMARK>
 VINA RESULT:      -6.0      3.235      8.075
  Name = 
  5 active torsions:
  status: ('A' for Active; 'I' for Inactive)
    1  A    between atoms: C_6  and  C_18
    2  A    between atoms: C_9  and  C_28
    3  A    between atoms: C_10  and  O_20
    4  A    between atoms: O_20  and  C_29
    5  A    between atoms: C_29  and  C_30
                            x       y       z     vdW  Elec       q    Type
                         _______ _______ _______ _____ _____    ______ ____

>  <TORSDO>
F 5

$$$$
=
 OpenBabel11122410433D

 32 36  0  0  1  0  0  0  0  0999 V2000
  187.1480  178.8520  146.6850 C   0  0  0  0  0  2  0  0  0  0  0  0
  183.2740  178.4930  143.2170 C   0  0  0  0  0  0  0  0  0  0  0  0
  185.4990  178.9110  138.9250 C   0  0  0  0  0  3  0  0  0  0  0  0
  184.2060  178.8020  138.2200 C   0  0  0  0  0  3  0  0  0  0  0  0
  180.7950  178.7150  143.3630 C   0  0  1  0  0  3  0  0  0  0  0  0
  179.8500  179.6800  142.6900 C   0  0  0  0  0  0  0  0  0  0  0  0
  184.6160  178.0710  145.2950 C   0  0  1  0  0  3  0  0  0  0  0  0
  185.7790  178.1210  143.1030 C   0  0  0  0  0  2  0  0  0  0  0  0
  187.1330  178.3300  145.2360 C   0  0  2  0  0  3  0  0  0  0  0  0
  185.6000  178.6280  140.2280 C   0  0  0  0  0  3  0  0  0  0  0  0
  184.4970  178.3970  142.4390 N   0  0  0  0  0  0  0  0  0  0  0  0
  184.4250  178.0810  141.0050 C   0  0  1  0  0  3  0  0  0  0  0  0
  182.0050  178.6160  141.1180 C   0  0  0  0  0  0  0  0  0  0  0  0
  185.7790  179.3230  147.1890 C   0  0  0  0  0  2  0  0  0  0  0  0
  185.8070  178.6470  144.5290 C   0  0  2  0  0  3  0  0  0  0  0  0
  184.6840  178.3260  146.8080 C   0  0  0  0  0  2  0  0  0  0  0  0
  183.0710  178.6100  138.8980 C   0  0  0  0  0  3  0  0  0  0  0  0
  183.1070  178.4700  140.3690 C   0  0  0  0  0  0  0  0  0  0  0  0
  180.6580  178.8640  140.4920 C   0  0  0  0  0  2  0  0  0  0  0  0
  183.3360  178.6490  144.7190 C   0  0  0  0  0  2  0  0  0  0  0  0
  180.1360  177.3550  143.5230 C   0  0  0  0  0  1  0  0  0  0  0  0
  182.0850  178.5780  142.5940 C   0  0  0  0  0  0  0  0  0  0  0  0
  179.8070  179.7780  141.3330 C   0  0  0  0  0  0  0  0  0  0  0  0
  178.9500  180.7110  140.5650 C   0  0  0  0  0  3  0  0  0  0  0  0
  179.0600  180.9690  139.2680 C   0  0  0  0  0  2  0  0  0  0  0  0
  178.9540  179.8940  144.9220 N   0  0  0  0  0  1  0  0  0  0  0  0
  178.9970  180.5030  143.6040 C   0  0  0  0  0  2  0  0  0  0  0  0
  187.3750  176.9530  145.2380 O   0  0  0  0  0  0  0  0  0  0  0  0
  188.7570  176.8290  145.3910 C   0  0  0  0  0  2  0  0  0  0  0  0
  189.4110  176.8460  144.0550 C   0  0  0  0  0  0  0  0  0  0  0  0
  190.4340  177.5550  143.8650 O   0  0  0  0  0  0  0  0  0  0  0  0
  188.8570  176.0950  142.9820 N   0  0  0  0  0  1  0  0  0  0  0  0
  1 14  1  0  0  0  0
  2 20  1  0  0  0  0
  3 10  2  0  0  0  0
  4 17  2  0  0  0  0
  4  3  1  0  0  0  0
  5 21  1  6  0  0  0
  6  5  1  0  0  0  0
  6 27  1  0  0  0  0
  7 20  1  6  0  0  0
  7 16  1  0  0  0  0
  9 28  1  1  0  0  0
  9  1  1  0  0  0  0
 11  8  1  0  0  0  0
 11  2  1  0  0  0  0
 12 10  1  6  0  0  0
 12 11  1  0  0  0  0
 13 22  1  0  0  0  0
 15  8  1  6  0  0  0
 15  9  1  0  0  0  0
 15  7  1  0  0  0  0
 16 14  1  0  0  0  0
 17 18  1  0  0  0  0
 18 12  1  0  0  0  0
 18 13  2  0  0  0  0
 19 13  1  0  0  0  0
 19 23  1  0  0  0  0
 22  2  2  0  0  0  0
 22  5  1  0  0  0  0
 23  6  2  0  0  0  0
 24 23  1  0  0  0  0
 25 24  2  0  0  0  0
 27 26  1  0  0  0  0
 28 29  1  0  0  0  0
 30 29  1  0  0  0  0
 31 30  2  0  0  0  0
 32 30  1  0  0  0  0
M  END
>  <MODEL>
9

>  <REMARK>
 VINA RESULT:      -5.9      3.741      8.474
  Name = 
  5 active torsions:
  status: ('A' for Active; 'I' for Inactive)
    1  A    between atoms: C_6  and  C_18
    2  A    between atoms: C_9  and  C_28
    3  A    between atoms: C_10  and  O_20
    4  A    between atoms: O_20  and  C_29
    5  A    between atoms: C_29  and  C_30
                            x       y       z     vdW  Elec       q    Type
                         _______ _______ _______ _____ _____    ______ ____

>  <TORSDO>
F 5

$$$$
