=
 OpenBabel11122412263D

 34 40  0  0  1  0  0  0  0  0999 V2000
  185.9180  178.0820  145.6830 C   0  0  0  0  0  0  0  0  0  0  0  0
  184.3940  179.1770  144.0060 C   0  0  0  0  0  2  0  0  0  0  0  0
  192.1500  176.3200  147.2230 C   0  0  0  0  0  0  0  0  0  0  0  0
  187.9650  177.7780  146.9810 C   0  0  0  0  0  0  0  0  0  0  0  0
  189.9470  176.5270  145.9400 C   0  0  2  0  0  3  0  0  0  0  0  0
  191.9170  175.5520  144.9680 O   0  0  0  0  0  1  0  0  0  0  0  0
  192.8370  175.2840  147.4370 O   0  0  0  0  0  0  0  0  0  0  0  0
  190.9390  178.0670  148.5340 C   0  0  0  0  0  2  0  0  0  0  0  0
  185.8460  177.4120  143.1810 C   0  0  2  0  0  3  0  0  0  0  0  0
  187.1640  178.2180  140.3740 C   0  0  0  0  0  2  0  0  0  0  0  0
  189.4200  177.0860  144.6240 C   0  0  0  0  0  2  0  0  0  0  0  0
  190.2290  178.4490  147.3890 O   0  0  0  0  0  0  0  0  0  0  0  0
  187.3760  177.5420  143.2630 C   0  0  1  0  0  3  0  0  0  0  0  0
  184.0540  178.9540  142.5520 C   0  0  0  0  0  2  0  0  0  0  0  0
  189.4040  177.3500  147.1240 C   0  0  1  0  0  3  0  0  0  0  0  0
  192.1110  177.3190  148.2030 O   0  0  0  0  0  0  0  0  0  0  0  0
  186.1360  179.0390  141.1470 C   0  0  2  0  0  3  0  0  0  0  0  0
  187.2630  177.6570  145.7580 C   0  0  0  0  0  0  0  0  0  0  0  0
  191.4800  176.5120  145.8850 C   0  0  2  0  0  3  0  0  0  0  0  0
  187.9000  176.9660  144.5770 C   0  0  2  0  0  3  0  0  0  0  0  0
  185.9970  178.7380  148.0200 C   0  0  0  0  0  3  0  0  0  0  0  0
  188.3320  177.8450  141.2760 C   0  0  0  0  0  2  0  0  0  0  0  0
  187.3250  178.3240  148.0970 C   0  0  0  0  0  3  0  0  0  0  0  0
  187.9450  176.8550  142.1830 O   0  0  0  0  0  0  0  0  0  0  0  0
  185.1980  178.1320  141.9730 C   0  0  1  0  0  3  0  0  0  0  0  0
  185.2960  178.6110  146.8210 C   0  0  0  0  0  3  0  0  0  0  0  0
  185.1000  177.9070  144.4250 C   0  0  1  0  0  3  0  0  0  0  0  0
  185.3960  179.7940  140.2320 O   0  0  0  0  0  0  0  0  0  0  0  0
  185.3280  179.0000  139.0850 C   0  0  0  0  0  2  0  0  0  0  0  0
  181.4140  178.0410  139.0750 S   0  0  0  0  0  0  0  0  0  0  0  0
  183.1160  180.1420  139.0790 C   0  0  0  0  0  2  0  0  0  0  0  0
  183.9040  178.9610  138.5650 C   0  0  2  0  0  3  0  0  0  0  0  0
  181.6600  179.8260  138.8240 C   0  0  0  0  0  2  0  0  0  0  0  0
  183.2050  177.7210  139.0700 C   0  0  0  0  0  2  0  0  0  0  0  0
  1 18  2  0  0  0  0
  1 26  1  0  0  0  0
  2 27  1  0  0  0  0
  3  7  2  0  0  0  0
  3 16  1  0  0  0  0
  4 15  1  0  0  0  0
  4 23  2  0  0  0  0
  5 11  1  6  0  0  0
  5 15  1  0  0  0  0
  6 19  1  0  0  0  0
  9 13  1  0  0  0  0
  9 27  1  0  0  0  0
 10 17  1  0  0  0  0
 10 22  1  0  0  0  0
 12  8  1  0  0  0  0
 13 20  1  0  0  0  0
 14  2  1  0  0  0  0
 15 12  1  0  0  0  0
 16  8  1  0  0  0  0
 17 25  1  0  0  0  0
 18  4  1  0  0  0  0
 19  5  1  0  0  0  0
 19  3  1  0  0  0  0
 20 11  1  0  0  0  0
 20 18  1  0  0  0  0
 21 23  1  0  0  0  0
 22 24  1  0  0  0  0
 24 13  1  0  0  0  0
 25 14  1  0  0  0  0
 25  9  1  0  0  0  0
 26 21  2  0  0  0  0
 27  1  1  0  0  0  0
 28 17  1  0  0  0  0
 29 28  1  0  0  0  0
 32 34  1  0  0  0  0
 32 31  1  0  0  0  0
 32 29  1  0  0  0  0
 33 30  1  0  0  0  0
 33 31  1  0  0  0  0
 34 30  1  0  0  0  0
M  END
>  <MODEL>
1

>  <REMARK>
 VINA RESULT:      -9.1      0.000      0.000
  Name = 
  3 active torsions:
  status: ('A' for Active; 'I' for Inactive)
    1  A    between atoms: C_17  and  O_28
    2  A    between atoms: O_28  and  C_29
    3  A    between atoms: C_29  and  C_32
                            x       y       z     vdW  Elec       q    Type
                         _______ _______ _______ _____ _____    ______ ____

>  <TORSDO>
F 3

$$$$
=
 OpenBabel11122412263D

 34 40  0  0  1  0  0  0  0  0999 V2000
  182.2020  178.9230  143.3260 C   0  0  0  0  0  0  0  0  0  0  0  0
  183.3550  178.6310  145.5440 C   0  0  0  0  0  2  0  0  0  0  0  0
  182.1570  177.4370  136.8370 C   0  0  0  0  0  0  0  0  0  0  0  0
  181.3730  178.2460  141.1300 C   0  0  0  0  0  0  0  0  0  0  0  0
  182.9610  178.2760  139.1160 C   0  0  2  0  0  3  0  0  0  0  0  0
  184.4300  178.0770  137.2260 O   0  0  0  0  0  1  0  0  0  0  0  0
  182.2560  178.0030  135.7150 O   0  0  0  0  0  0  0  0  0  0  0  0
  180.3630  176.6110  138.3660 C   0  0  0  0  0  2  0  0  0  0  0  0
  184.7280  179.3830  143.6840 C   0  0  2  0  0  3  0  0  0  0  0  0
  187.5430  177.8550  143.6340 C   0  0  0  0  0  2  0  0  0  0  0  0
  184.0400  177.9740  140.1480 C   0  0  0  0  0  2  0  0  0  0  0  0
  181.2740  176.5630  139.4270 O   0  0  0  0  0  0  0  0  0  0  0  0
  184.9040  178.5130  142.4280 C   0  0  1  0  0  3  0  0  0  0  0  0
  184.7390  178.9040  146.0830 C   0  0  0  0  0  2  0  0  0  0  0  0
  181.5730  177.9080  139.6740 C   0  0  1  0  0  3  0  0  0  0  0  0
  181.0280  176.6540  137.1010 O   0  0  0  0  0  0  0  0  0  0  0  0
  186.4650  177.7050  144.7020 C   0  0  2  0  0  3  0  0  0  0  0  0
  182.4490  178.6250  141.9680 C   0  0  0  0  0  0  0  0  0  0  0  0
  183.2960  177.5210  137.8230 C   0  0  2  0  0  3  0  0  0  0  0  0
  183.8290  178.8320  141.3910 C   0  0  2  0  0  3  0  0  0  0  0  0
  179.8410  178.4620  142.9960 C   0  0  0  0  0  3  0  0  0  0  0  0
  186.9490  177.6510  142.2480 C   0  0  0  0  0  2  0  0  0  0  0  0
  180.0810  178.1630  141.6570 C   0  0  0  0  0  3  0  0  0  0  0  0
  186.1730  178.7560  141.8870 O   0  0  0  0  0  0  0  0  0  0  0  0
  185.6520  179.0080  144.8680 C   0  0  1  0  0  3  0  0  0  0  0  0
  180.8950  178.8470  143.8240 C   0  0  0  0  0  3  0  0  0  0  0  0
  183.3010  179.4040  144.2450 C   0  0  1  0  0  3  0  0  0  0  0  0
  187.0820  177.3650  145.9090 O   0  0  0  0  0  0  0  0  0  0  0  0
  188.3600  177.9240  145.8270 C   0  0  0  0  0  2  0  0  0  0  0  0
  191.9680  176.1360  145.9960 S   0  0  0  0  0  0  0  0  0  0  0  0
  190.1320  177.4260  147.5040 C   0  0  0  0  0  2  0  0  0  0  0  0
  189.3960  176.9170  146.2880 C   0  0  2  0  0  3  0  0  0  0  0  0
  191.3570  176.5550  147.6570 C   0  0  0  0  0  2  0  0  0  0  0  0
  190.4330  176.7150  145.2080 C   0  0  0  0  0  2  0  0  0  0  0  0
  1 26  1  0  0  0  0
  1 27  1  0  0  0  0
  2 14  1  0  0  0  0
  3 16  1  0  0  0  0
  3 19  1  0  0  0  0
  4 23  2  0  0  0  0
  4 18  1  0  0  0  0
  5 15  1  0  0  0  0
  5 11  1  1  0  0  0
  6 19  1  0  0  0  0
  7  3  2  0  0  0  0
  8 12  1  0  0  0  0
  9 27  1  0  0  0  0
  9 25  1  0  0  0  0
 10 17  1  0  0  0  0
 11 20  1  0  0  0  0
 12 15  1  0  0  0  0
 13  9  1  0  0  0  0
 15  4  1  0  0  0  0
 16  8  1  0  0  0  0
 17 25  1  0  0  0  0
 17 28  1  0  0  0  0
 18  1  2  0  0  0  0
 19  5  1  0  0  0  0
 20 18  1  0  0  0  0
 20 13  1  0  0  0  0
 21 26  2  0  0  0  0
 22 10  1  0  0  0  0
 23 21  1  0  0  0  0
 24 22  1  0  0  0  0
 24 13  1  0  0  0  0
 25 14  1  0  0  0  0
 27  2  1  0  0  0  0
 29 28  1  0  0  0  0
 29 32  1  0  0  0  0
 30 33  1  0  0  0  0
 31 33  1  0  0  0  0
 32 31  1  0  0  0  0
 34 30  1  0  0  0  0
 34 32  1  0  0  0  0
M  END
>  <MODEL>
2

>  <REMARK>
 VINA RESULT:      -8.6      3.394      9.050
  Name = 
  3 active torsions:
  status: ('A' for Active; 'I' for Inactive)
    1  A    between atoms: C_17  and  O_28
    2  A    between atoms: O_28  and  C_29
    3  A    between atoms: C_29  and  C_32
                            x       y       z     vdW  Elec       q    Type
                         _______ _______ _______ _____ _____    ______ ____

>  <TORSDO>
F 3

$$$$
=
 OpenBabel11122412263D

 34 40  0  0  1  0  0  0  0  0999 V2000
  186.9130  178.2160  139.8680 C   0  0  0  0  0  0  0  0  0  0  0  0
  186.1170  177.3190  137.6550 C   0  0  0  0  0  2  0  0  0  0  0  0
  185.7950  178.6840  146.4130 C   0  0  0  0  0  0  0  0  0  0  0  0
  187.3230  178.1880  142.2760 C   0  0  0  0  0  0  0  0  0  0  0  0
  185.4370  178.8420  143.8850 C   0  0  2  0  0  3  0  0  0  0  0  0
  183.6690  179.2380  145.4650 O   0  0  0  0  0  1  0  0  0  0  0  0
  185.5580  179.5550  147.2940 O   0  0  0  0  0  0  0  0  0  0  0  0
  187.7470  177.4050  145.5230 C   0  0  0  0  0  2  0  0  0  0  0  0
  184.5210  178.6130  138.9540 C   0  0  2  0  0  3  0  0  0  0  0  0
  181.6290  177.2350  138.9350 C   0  0  0  0  0  2  0  0  0  0  0  0
  184.5200  178.2790  142.8070 C   0  0  0  0  0  2  0  0  0  0  0  0
  187.0190  177.0720  144.3740 O   0  0  0  0  0  0  0  0  0  0  0  0
  184.0790  178.1510  140.3520 C   0  0  1  0  0  3  0  0  0  0  0  0
  184.8630  177.4560  136.8260 C   0  0  0  0  0  2  0  0  0  0  0  0
  186.8650  178.2940  143.7090 C   0  0  1  0  0  3  0  0  0  0  0  0
  186.8910  177.8300  146.5850 O   0  0  0  0  0  0  0  0  0  0  0  0
  182.8520  176.7540  138.1610 C   0  0  2  0  0  3  0  0  0  0  0  0
  186.4280  178.3330  141.1890 C   0  0  0  0  0  0  0  0  0  0  0  0
  184.8410  178.5050  145.2590 C   0  0  2  0  0  3  0  0  0  0  0  0
  184.9920  178.7320  141.4300 C   0  0  2  0  0  3  0  0  0  0  0  0
  189.1490  177.8140  140.7260 C   0  0  0  0  0  3  0  0  0  0  0  0
  181.9740  177.4290  140.4050 C   0  0  0  0  0  2  0  0  0  0  0  0
  188.6740  177.9240  142.0310 C   0  0  0  0  0  3  0  0  0  0  0  0
  182.7610  178.5720  140.5690 O   0  0  0  0  0  0  0  0  0  0  0  0
  183.7750  177.9320  137.7800 C   0  0  1  0  0  3  0  0  0  0  0  0
  188.2740  177.9660  139.6510 C   0  0  0  0  0  3  0  0  0  0  0  0
  186.0170  178.4350  138.6710 C   0  0  1  0  0  3  0  0  0  0  0  0
  182.4150  176.0920  137.0100 O   0  0  0  0  0  0  0  0  0  0  0  0
  182.1660  174.7810  137.4250 C   0  0  0  0  0  2  0  0  0  0  0  0
  185.2060  173.6840  135.0160 S   0  0  0  0  0  0  0  0  0  0  0  0
  184.4240  173.7480  137.6040 C   0  0  0  0  0  2  0  0  0  0  0  0
  183.1630  173.8370  136.7800 C   0  0  2  0  0  3  0  0  0  0  0  0
  185.4660  173.1020  136.7200 C   0  0  0  0  0  2  0  0  0  0  0  0
  183.5670  174.3640  135.4230 C   0  0  0  0  0  2  0  0  0  0  0  0
  1 18  1  0  0  0  0
  2 27  1  0  0  0  0
  3 16  1  0  0  0  0
  3  7  2  0  0  0  0
  4 15  1  0  0  0  0
  5 11  1  6  0  0  0
  5 19  1  0  0  0  0
  8 16  1  0  0  0  0
  9 13  1  0  0  0  0
 10 22  1  0  0  0  0
 12  8  1  0  0  0  0
 13 24  1  0  0  0  0
 13 20  1  0  0  0  0
 14  2  1  0  0  0  0
 14 25  1  0  0  0  0
 15  5  1  0  0  0  0
 15 12  1  0  0  0  0
 17 10  1  0  0  0  0
 18 20  1  0  0  0  0
 18  4  2  0  0  0  0
 19  6  1  0  0  0  0
 19  3  1  0  0  0  0
 20 11  1  0  0  0  0
 21 23  2  0  0  0  0
 22 24  1  0  0  0  0
 23  4  1  0  0  0  0
 25 17  1  0  0  0  0
 25  9  1  0  0  0  0
 26  1  2  0  0  0  0
 26 21  1  0  0  0  0
 27  9  1  0  0  0  0
 27  1  1  0  0  0  0
 28 29  1  0  0  0  0
 28 17  1  0  0  0  0
 30 34  1  0  0  0  0
 30 33  1  0  0  0  0
 32 29  1  0  0  0  0
 32 31  1  0  0  0  0
 33 31  1  0  0  0  0
 34 32  1  0  0  0  0
M  END
>  <MODEL>
3

>  <REMARK>
 VINA RESULT:      -8.5      3.014      6.058
  Name = 
  3 active torsions:
  status: ('A' for Active; 'I' for Inactive)
    1  A    between atoms: C_17  and  O_28
    2  A    between atoms: O_28  and  C_29
    3  A    between atoms: C_29  and  C_32
                            x       y       z     vdW  Elec       q    Type
                         _______ _______ _______ _____ _____    ______ ____

>  <TORSDO>
F 3

$$$$
=
 OpenBabel11122412263D

 34 40  0  0  1  0  0  0  0  0999 V2000
  188.2260  177.8670  139.7140 C   0  0  0  0  0  0  0  0  0  0  0  0
  186.0930  177.8070  138.3780 C   0  0  0  0  0  2  0  0  0  0  0  0
  191.1330  176.8280  145.6120 C   0  0  0  0  0  0  0  0  0  0  0  0
  189.8490  177.1040  141.3720 C   0  0  0  0  0  0  0  0  0  0  0  0
  189.5280  177.7330  143.8370 C   0  0  2  0  0  3  0  0  0  0  0  0
  189.1910  178.1020  146.1880 O   0  0  0  0  0  1  0  0  0  0  0  0
  191.7400  177.4640  146.5160 O   0  0  0  0  0  0  0  0  0  0  0  0
  191.6800  175.4070  143.6320 C   0  0  0  0  0  2  0  0  0  0  0  0
  186.0460  179.0490  140.4670 C   0  0  2  0  0  3  0  0  0  0  0  0
  183.3580  178.4510  142.1050 C   0  0  0  0  0  2  0  0  0  0  0  0
  188.0430  177.7110  143.4980 C   0  0  0  0  0  2  0  0  0  0  0  0
  190.3810  175.5740  143.1390 O   0  0  0  0  0  0  0  0  0  0  0  0
  186.3170  178.3500  141.8100 C   0  0  1  0  0  3  0  0  0  0  0  0
  184.7340  178.4530  138.4910 C   0  0  0  0  0  2  0  0  0  0  0  0
  190.3250  176.9300  142.7920 C   0  0  1  0  0  3  0  0  0  0  0  0
  191.7620  175.7250  145.0230 O   0  0  0  0  0  0  0  0  0  0  0  0
  183.6940  177.9180  140.7160 C   0  0  2  0  0  3  0  0  0  0  0  0
  188.6230  177.7400  141.0630 C   0  0  0  0  0  0  0  0  0  0  0  0
  189.7120  177.1940  145.2620 C   0  0  2  0  0  3  0  0  0  0  0  0
  187.8040  178.3890  142.1530 C   0  0  2  0  0  3  0  0  0  0  0  0
  190.2550  176.7330  139.0110 C   0  0  0  0  0  3  0  0  0  0  0  0
  184.4940  178.1600  143.0750 C   0  0  0  0  0  2  0  0  0  0  0  0
  190.6480  176.6010  140.3410 C   0  0  0  0  0  3  0  0  0  0  0  0
  185.5810  178.9980  142.8110 O   0  0  0  0  0  0  0  0  0  0  0  0
  184.5980  178.9020  139.9400 C   0  0  1  0  0  3  0  0  0  0  0  0
  189.0540  177.3690  138.7000 C   0  0  0  0  0  3  0  0  0  0  0  0
  186.9650  178.6020  139.3240 C   0  0  1  0  0  3  0  0  0  0  0  0
  182.4990  177.7090  140.0220 O   0  0  0  0  0  0  0  0  0  0  0  0
  181.6340  178.6990  140.4940 C   0  0  0  0  0  2  0  0  0  0  0  0
  180.8690  181.0300  137.2950 S   0  0  0  0  0  0  0  0  0  0  0  0
  181.0240  178.4510  138.0930 C   0  0  0  0  0  2  0  0  0  0  0  0
  180.8220  179.2680  139.3450 C   0  0  2  0  0  3  0  0  0  0  0  0
  180.4920  179.2840  136.9500 C   0  0  0  0  0  2  0  0  0  0  0  0
  181.2900  180.6690  139.0290 C   0  0  0  0  0  2  0  0  0  0  0  0
  1 18  1  0  0  0  0
  2 14  1  0  0  0  0
  2 27  1  0  0  0  0
  3  7  2  0  0  0  0
  4 15  1  0  0  0  0
  5 11  1  6  0  0  0
  5 19  1  0  0  0  0
  8 16  1  0  0  0  0
  9 13  1  0  0  0  0
 10 22  1  0  0  0  0
 12  8  1  0  0  0  0
 13 20  1  0  0  0  0
 13 24  1  0  0  0  0
 14 25  1  0  0  0  0
 15 12  1  0  0  0  0
 15  5  1  0  0  0  0
 16  3  1  0  0  0  0
 17 10  1  0  0  0  0
 18  4  2  0  0  0  0
 18 20  1  0  0  0  0
 19  3  1  0  0  0  0
 19  6  1  0  0  0  0
 20 11  1  0  0  0  0
 21 23  2  0  0  0  0
 23  4  1  0  0  0  0
 24 22  1  0  0  0  0
 25  9  1  0  0  0  0
 25 17  1  0  0  0  0
 26 21  1  0  0  0  0
 26  1  2  0  0  0  0
 27  1  1  0  0  0  0
 27  9  1  0  0  0  0
 28 29  1  0  0  0  0
 28 17  1  0  0  0  0
 30 34  1  0  0  0  0
 31 32  1  0  0  0  0
 32 29  1  0  0  0  0
 33 30  1  0  0  0  0
 33 31  1  0  0  0  0
 34 32  1  0  0  0  0
M  END
>  <MODEL>
4

>  <REMARK>
 VINA RESULT:      -8.4      2.149      4.636
  Name = 
  3 active torsions:
  status: ('A' for Active; 'I' for Inactive)
    1  A    between atoms: C_17  and  O_28
    2  A    between atoms: O_28  and  C_29
    3  A    between atoms: C_29  and  C_32
                            x       y       z     vdW  Elec       q    Type
                         _______ _______ _______ _____ _____    ______ ____

>  <TORSDO>
F 3

$$$$
=
 OpenBabel11122412263D

 34 40  0  0  1  0  0  0  0  0999 V2000
  188.2530  177.9130  139.6450 C   0  0  0  0  0  0  0  0  0  0  0  0
  186.1470  177.8260  138.2690 C   0  0  0  0  0  2  0  0  0  0  0  0
  191.0690  176.8680  145.5850 C   0  0  0  0  0  0  0  0  0  0  0  0
  189.8590  177.1630  141.3250 C   0  0  0  0  0  0  0  0  0  0  0  0
  189.4810  177.7610  143.7900 C   0  0  2  0  0  3  0  0  0  0  0  0
  189.0930  178.1000  146.1370 O   0  0  0  0  0  1  0  0  0  0  0  0
  191.6470  177.5060  146.5060 O   0  0  0  0  0  0  0  0  0  0  0  0
  191.6800  175.4780  143.6020 C   0  0  0  0  0  2  0  0  0  0  0  0
  186.0370  179.0460  140.3690 C   0  0  2  0  0  3  0  0  0  0  0  0
  183.3310  178.3820  141.9500 C   0  0  0  0  0  2  0  0  0  0  0  0
  188.0030  177.7150  143.4220 C   0  0  0  0  0  2  0  0  0  0  0  0
  190.3870  175.6260  143.0860 O   0  0  0  0  0  0  0  0  0  0  0  0
  186.2960  178.3380  141.7090 C   0  0  1  0  0  3  0  0  0  0  0  0
  184.7730  178.4460  138.3620 C   0  0  0  0  0  2  0  0  0  0  0  0
  190.3120  176.9830  142.7520 C   0  0  1  0  0  3  0  0  0  0  0  0
  191.7300  175.7830  144.9970 O   0  0  0  0  0  0  0  0  0  0  0  0
  183.7030  177.8690  140.5620 C   0  0  2  0  0  3  0  0  0  0  0  0
  188.6280  177.7790  141.0000 C   0  0  0  0  0  0  0  0  0  0  0  0
  189.6480  177.2110  145.2120 C   0  0  2  0  0  3  0  0  0  0  0  0
  187.7760  178.4020  142.0800 C   0  0  2  0  0  3  0  0  0  0  0  0
  190.3150  176.8240  138.9680 C   0  0  0  0  0  3  0  0  0  0  0  0
  184.4550  178.1020  142.9380 C   0  0  0  0  0  2  0  0  0  0  0  0
  190.6870  176.6860  140.3040 C   0  0  0  0  0  3  0  0  0  0  0  0
  185.5310  178.9620  142.7020 O   0  0  0  0  0  0  0  0  0  0  0  0
  184.6020  178.8770  139.8130 C   0  0  1  0  0  3  0  0  0  0  0  0
  189.1080  177.4400  138.6410 C   0  0  0  0  0  3  0  0  0  0  0  0
  186.9860  178.6280  139.2390 C   0  0  1  0  0  3  0  0  0  0  0  0
  182.5250  177.6450  139.8430 O   0  0  0  0  0  0  0  0  0  0  0  0
  182.3670  176.2570  139.8410 C   0  0  0  0  0  2  0  0  0  0  0  0
  182.9190  173.8390  136.6640 S   0  0  0  0  0  0  0  0  0  0  0  0
  181.0220  174.8020  138.3330 C   0  0  0  0  0  2  0  0  0  0  0  0
  182.1850  175.7600  138.4190 C   0  0  2  0  0  3  0  0  0  0  0  0
  181.1500  174.0940  137.0040 C   0  0  0  0  0  2  0  0  0  0  0  0
  183.4110  174.9930  137.9820 C   0  0  0  0  0  2  0  0  0  0  0  0
  1 18  1  0  0  0  0
  2 14  1  0  0  0  0
  2 27  1  0  0  0  0
  3  7  2  0  0  0  0
  4 15  1  0  0  0  0
  5 11  1  6  0  0  0
  5 19  1  0  0  0  0
  8 16  1  0  0  0  0
  9 13  1  0  0  0  0
 10 22  1  0  0  0  0
 12  8  1  0  0  0  0
 13 20  1  0  0  0  0
 13 24  1  0  0  0  0
 14 25  1  0  0  0  0
 15 12  1  0  0  0  0
 15  5  1  0  0  0  0
 16  3  1  0  0  0  0
 17 10  1  0  0  0  0
 18  4  2  0  0  0  0
 18 20  1  0  0  0  0
 19  3  1  0  0  0  0
 19  6  1  0  0  0  0
 20 11  1  0  0  0  0
 21 23  2  0  0  0  0
 23  4  1  0  0  0  0
 24 22  1  0  0  0  0
 25  9  1  0  0  0  0
 25 17  1  0  0  0  0
 26 21  1  0  0  0  0
 26  1  2  0  0  0  0
 27  1  1  0  0  0  0
 27  9  1  0  0  0  0
 28 17  1  0  0  0  0
 29 28  1  0  0  0  0
 30 33  1  0  0  0  0
 30 34  1  0  0  0  0
 31 32  1  0  0  0  0
 32 29  1  0  0  0  0
 33 31  1  0  0  0  0
 34 32  1  0  0  0  0
M  END
>  <MODEL>
5

>  <REMARK>
 VINA RESULT:      -8.3      2.330      4.891
  Name = 
  3 active torsions:
  status: ('A' for Active; 'I' for Inactive)
    1  A    between atoms: C_17  and  O_28
    2  A    between atoms: O_28  and  C_29
    3  A    between atoms: C_29  and  C_32
                            x       y       z     vdW  Elec       q    Type
                         _______ _______ _______ _____ _____    ______ ____

>  <TORSDO>
F 3

$$$$
=
 OpenBabel11122412263D

 34 40  0  0  1  0  0  0  0  0999 V2000
  188.9980  177.7210  137.4540 C   0  0  0  0  0  0  0  0  0  0  0  0
  187.0900  178.1290  139.0440 C   0  0  0  0  0  2  0  0  0  0  0  0
  194.6660  174.4320  136.2860 C   0  0  0  0  0  0  0  0  0  0  0  0
  190.6910  176.4070  136.2830 C   0  0  0  0  0  0  0  0  0  0  0  0
  192.9330  175.9240  137.4310 C   0  0  2  0  0  3  0  0  0  0  0  0
  194.9710  175.2530  138.5130 O   0  0  0  0  0  1  0  0  0  0  0  0
  195.8940  174.6560  136.1030 O   0  0  0  0  0  0  0  0  0  0  0  0
  192.6180  174.0040  134.9210 C   0  0  0  0  0  2  0  0  0  0  0  0
  189.3370  178.3720  139.9390 C   0  0  2  0  0  3  0  0  0  0  0  0
  189.5810  177.0150  142.8310 C   0  0  0  0  0  2  0  0  0  0  0  0
  192.1190  175.9780  138.7170 C   0  0  0  0  0  2  0  0  0  0  0  0
  191.8080  174.3020  136.0240 O   0  0  0  0  0  0  0  0  0  0  0  0
  190.3160  177.1860  139.9540 C   0  0  1  0  0  3  0  0  0  0  0  0
  186.9610  178.6030  140.4720 C   0  0  0  0  0  2  0  0  0  0  0  0
  192.0080  175.6740  136.2250 C   0  0  1  0  0  3  0  0  0  0  0  0
  193.9600  173.7100  135.3160 O   0  0  0  0  0  0  0  0  0  0  0  0
  188.3040  177.1330  142.0050 C   0  0  2  0  0  3  0  0  0  0  0  0
  190.2440  177.0560  137.4580 C   0  0  0  0  0  0  0  0  0  0  0  0
  194.0130  174.8450  137.5810 C   0  0  2  0  0  3  0  0  0  0  0  0
  191.1410  177.1470  138.6690 C   0  0  2  0  0  3  0  0  0  0  0  0
  188.6670  177.0840  135.1340 C   0  0  0  0  0  3  0  0  0  0  0  0
  190.6960  176.3960  142.0000 C   0  0  0  0  0  2  0  0  0  0  0  0
  189.8940  176.4230  135.1350 C   0  0  0  0  0  3  0  0  0  0  0  0
  191.1660  177.3170  141.0590 O   0  0  0  0  0  0  0  0  0  0  0  0
  188.3270  178.3930  141.1120 C   0  0  1  0  0  3  0  0  0  0  0  0
  188.2260  177.7350  136.2850 C   0  0  0  0  0  3  0  0  0  0  0  0
  188.5060  178.4920  138.6560 C   0  0  1  0  0  3  0  0  0  0  0  0
  187.2150  177.1800  142.8800 O   0  0  0  0  0  0  0  0  0  0  0  0
  187.7720  177.0280  144.1520 C   0  0  0  0  0  2  0  0  0  0  0  0
  186.0600  178.7970  147.3440 S   0  0  0  0  0  0  0  0  0  0  0  0
  185.6800  178.2530  144.7230 C   0  0  0  0  0  2  0  0  0  0  0  0
  186.7140  177.2680  145.2120 C   0  0  2  0  0  3  0  0  0  0  0  0
  184.9050  178.6990  145.9400 C   0  0  0  0  0  2  0  0  0  0  0  0
  187.3450  177.8780  146.4420 C   0  0  0  0  0  2  0  0  0  0  0  0
  1 18  1  0  0  0  0
  1 27  1  0  0  0  0
  2 14  1  0  0  0  0
  3 19  1  0  0  0  0
  4 18  2  0  0  0  0
  5 19  1  0  0  0  0
  5 11  1  1  0  0  0
  7  3  2  0  0  0  0
  8 16  1  0  0  0  0
  8 12  1  0  0  0  0
  9 13  1  0  0  0  0
  9 25  1  0  0  0  0
 12 15  1  0  0  0  0
 13 24  1  0  0  0  0
 14 25  1  0  0  0  0
 15  4  1  0  0  0  0
 15  5  1  0  0  0  0
 16  3  1  0  0  0  0
 17 10  1  0  0  0  0
 17 28  1  0  0  0  0
 18 20  1  0  0  0  0
 19  6  1  0  0  0  0
 20 11  1  0  0  0  0
 20 13  1  0  0  0  0
 21 23  2  0  0  0  0
 21 26  1  0  0  0  0
 22 10  1  0  0  0  0
 23  4  1  0  0  0  0
 24 22  1  0  0  0  0
 25 17  1  0  0  0  0
 26  1  2  0  0  0  0
 27  2  1  0  0  0  0
 27  9  1  0  0  0  0
 28 29  1  0  0  0  0
 29 32  1  0  0  0  0
 31 32  1  0  0  0  0
 31 33  1  0  0  0  0
 32 34  1  0  0  0  0
 33 30  1  0  0  0  0
 34 30  1  0  0  0  0
M  END
>  <MODEL>
6

>  <REMARK>
 VINA RESULT:      -8.3      5.179      8.656
  Name = 
  3 active torsions:
  status: ('A' for Active; 'I' for Inactive)
    1  A    between atoms: C_17  and  O_28
    2  A    between atoms: O_28  and  C_29
    3  A    between atoms: C_29  and  C_32
                            x       y       z     vdW  Elec       q    Type
                         _______ _______ _______ _____ _____    ______ ____

>  <TORSDO>
F 3

$$$$
=
 OpenBabel11122412263D

 34 40  0  0  1  0  0  0  0  0999 V2000
  186.9490  178.2530  139.8880 C   0  0  0  0  0  0  0  0  0  0  0  0
  186.1160  177.4090  137.6670 C   0  0  0  0  0  2  0  0  0  0  0  0
  185.8920  178.6390  146.4490 C   0  0  0  0  0  0  0  0  0  0  0  0
  187.3760  178.1760  142.2920 C   0  0  0  0  0  0  0  0  0  0  0  0
  185.5170  178.8450  143.9270 C   0  0  2  0  0  3  0  0  0  0  0  0
  183.7720  179.2550  145.5260 O   0  0  0  0  0  1  0  0  0  0  0  0
  185.6810  179.5000  147.3450 O   0  0  0  0  0  0  0  0  0  0  0  0
  187.8080  177.3310  145.5220 C   0  0  0  0  0  2  0  0  0  0  0  0
  184.5590  178.7180  139.0000 C   0  0  2  0  0  3  0  0  0  0  0  0
  181.6370  177.4050  138.9820 C   0  0  0  0  0  2  0  0  0  0  0  0
  184.5800  178.3210  142.8470 C   0  0  0  0  0  2  0  0  0  0  0  0
  187.0630  177.0330  144.3750 O   0  0  0  0  0  0  0  0  0  0  0  0
  184.1180  178.2430  140.3940 C   0  0  1  0  0  3  0  0  0  0  0  0
  184.8580  177.5880  136.8500 C   0  0  0  0  0  2  0  0  0  0  0  0
  186.9320  178.2690  143.7300 C   0  0  1  0  0  3  0  0  0  0  0  0
  186.9700  177.7580  146.5980 O   0  0  0  0  0  0  0  0  0  0  0  0
  182.8430  176.9100  138.1900 C   0  0  2  0  0  3  0  0  0  0  0  0
  186.4770  178.3580  141.2150 C   0  0  0  0  0  0  0  0  0  0  0  0
  184.9250  178.5000  145.2990 C   0  0  2  0  0  3  0  0  0  0  0  0
  185.0520  178.7860  141.4730 C   0  0  2  0  0  3  0  0  0  0  0  0
  189.1810  177.7860  140.7220 C   0  0  0  0  0  3  0  0  0  0  0  0
  181.9970  177.5680  140.4520 C   0  0  0  0  0  2  0  0  0  0  0  0
  188.7190  177.8850  142.0320 C   0  0  0  0  0  3  0  0  0  0  0  0
  182.8110  178.6900  140.6290 O   0  0  0  0  0  0  0  0  0  0  0  0
  183.7890  178.0730  137.8220 C   0  0  1  0  0  3  0  0  0  0  0  0
  188.3020  177.9750  139.6560 C   0  0  0  0  0  3  0  0  0  0  0  0
  186.0490  178.5100  138.7020 C   0  0  1  0  0  3  0  0  0  0  0  0
  182.3820  176.2760  137.0330 O   0  0  0  0  0  0  0  0  0  0  0  0
  181.6480  175.1800  137.4930 C   0  0  0  0  0  2  0  0  0  0  0  0
  183.8020  171.8370  136.8380 S   0  0  0  0  0  0  0  0  0  0  0  0
  181.2810  172.7320  137.2280 C   0  0  0  0  0  2  0  0  0  0  0  0
  182.0840  173.9230  136.7650 C   0  0  2  0  0  3  0  0  0  0  0  0
  182.0160  171.5060  136.7390 C   0  0  0  0  0  2  0  0  0  0  0  0
  183.5300  173.6200  137.0810 C   0  0  0  0  0  2  0  0  0  0  0  0
  1 18  1  0  0  0  0
  2 27  1  0  0  0  0
  3 16  1  0  0  0  0
  3  7  2  0  0  0  0
  4 15  1  0  0  0  0
  5 11  1  6  0  0  0
  5 19  1  0  0  0  0
  8 16  1  0  0  0  0
  9 13  1  0  0  0  0
 10 22  1  0  0  0  0
 12  8  1  0  0  0  0
 13 24  1  0  0  0  0
 13 20  1  0  0  0  0
 14  2  1  0  0  0  0
 14 25  1  0  0  0  0
 15  5  1  0  0  0  0
 15 12  1  0  0  0  0
 17 10  1  0  0  0  0
 18 20  1  0  0  0  0
 18  4  2  0  0  0  0
 19  6  1  0  0  0  0
 19  3  1  0  0  0  0
 20 11  1  0  0  0  0
 21 23  2  0  0  0  0
 22 24  1  0  0  0  0
 23  4  1  0  0  0  0
 25 17  1  0  0  0  0
 25  9  1  0  0  0  0
 26  1  2  0  0  0  0
 26 21  1  0  0  0  0
 27  9  1  0  0  0  0
 27  1  1  0  0  0  0
 28 29  1  0  0  0  0
 28 17  1  0  0  0  0
 30 34  1  0  0  0  0
 32 34  1  0  0  0  0
 32 31  1  0  0  0  0
 32 29  1  0  0  0  0
 33 30  1  0  0  0  0
 33 31  1  0  0  0  0
M  END
>  <MODEL>
7

>  <REMARK>
 VINA RESULT:      -8.2      3.095      6.078
  Name = 
  3 active torsions:
  status: ('A' for Active; 'I' for Inactive)
    1  A    between atoms: C_17  and  O_28
    2  A    between atoms: O_28  and  C_29
    3  A    between atoms: C_29  and  C_32
                            x       y       z     vdW  Elec       q    Type
                         _______ _______ _______ _____ _____    ______ ____

>  <TORSDO>
F 3

$$$$
=
 OpenBabel11122412263D

 34 40  0  0  1  0  0  0  0  0999 V2000
  189.9750  177.6550  140.9350 C   0  0  0  0  0  0  0  0  0  0  0  0
  190.3950  176.8610  138.5840 C   0  0  0  0  0  2  0  0  0  0  0  0
  185.5170  178.5510  145.7960 C   0  0  0  0  0  0  0  0  0  0  0  0
  188.9650  177.6260  143.1590 C   0  0  0  0  0  0  0  0  0  0  0  0
  186.6600  178.6930  143.5120 C   0  0  2  0  0  3  0  0  0  0  0  0
  184.4210  179.4840  143.8840 O   0  0  0  0  0  1  0  0  0  0  0  0
  184.9950  179.4800  146.4700 O   0  0  0  0  0  0  0  0  0  0  0  0
  187.3610  176.8810  146.0240 C   0  0  0  0  0  2  0  0  0  0  0  0
  188.6160  178.4880  138.8920 C   0  0  2  0  0  3  0  0  0  0  0  0
  186.0290  177.7110  137.1700 C   0  0  0  0  0  2  0  0  0  0  0  0
  186.4120  178.2880  142.0650 C   0  0  0  0  0  2  0  0  0  0  0  0
  187.3470  176.6620  144.6420 O   0  0  0  0  0  0  0  0  0  0  0  0
  187.3960  178.1700  139.7720 C   0  0  1  0  0  3  0  0  0  0  0  0
  189.8640  177.2170  137.2160 C   0  0  0  0  0  2  0  0  0  0  0  0
  187.8170  177.8670  144.1060 C   0  0  1  0  0  3  0  0  0  0  0  0
  186.1540  177.5030  146.4710 O   0  0  0  0  0  0  0  0  0  0  0  0
  187.3630  176.9720  137.1600 C   0  0  2  0  0  3  0  0  0  0  0  0
  188.8690  177.9090  141.7750 C   0  0  0  0  0  0  0  0  0  0  0  0
  185.3520  178.5270  144.2970 C   0  0  2  0  0  3  0  0  0  0  0  0
  187.6440  178.5930  141.2180 C   0  0  2  0  0  3  0  0  0  0  0  0
  191.2380  176.8450  142.8450 C   0  0  0  0  0  3  0  0  0  0  0  0
  185.5270  177.8820  138.5970 C   0  0  0  0  0  2  0  0  0  0  0  0
  190.1470  177.0900  143.6770 C   0  0  0  0  0  3  0  0  0  0  0  0
  186.2830  178.8510  139.2620 O   0  0  0  0  0  0  0  0  0  0  0  0
  188.5390  177.9310  137.4500 C   0  0  1  0  0  3  0  0  0  0  0  0
  191.1540  177.1330  141.4830 C   0  0  0  0  0  3  0  0  0  0  0  0
  189.9540  178.0070  139.4660 C   0  0  1  0  0  3  0  0  0  0  0  0
  187.5260  176.3720  135.9080 O   0  0  0  0  0  0  0  0  0  0  0  0
  187.1370  175.0440  136.0950 C   0  0  0  0  0  2  0  0  0  0  0  0
  190.7390  174.0200  134.6030 S   0  0  0  0  0  0  0  0  0  0  0  0
  189.1560  173.7570  136.7790 C   0  0  0  0  0  2  0  0  0  0  0  0
  188.2400  174.1110  135.6330 C   0  0  2  0  0  3  0  0  0  0  0  0
  190.3960  173.1510  136.1640 C   0  0  0  0  0  2  0  0  0  0  0  0
  189.0940  174.8000  134.5940 C   0  0  0  0  0  2  0  0  0  0  0  0
  1 26  2  0  0  0  0
  1 18  1  0  0  0  0
  2 27  1  0  0  0  0
  3  7  2  0  0  0  0
  3 16  1  0  0  0  0
  4 23  1  0  0  0  0
  4 15  1  0  0  0  0
  5 11  1  6  0  0  0
  5 15  1  0  0  0  0
  5 19  1  0  0  0  0
  6 19  1  0  0  0  0
  8 16  1  0  0  0  0
  9 27  1  0  0  0  0
  9 13  1  0  0  0  0
 10 22  1  0  0  0  0
 12  8  1  0  0  0  0
 13 20  1  0  0  0  0
 14 25  1  0  0  0  0
 14  2  1  0  0  0  0
 15 12  1  0  0  0  0
 17 10  1  0  0  0  0
 17 25  1  0  0  0  0
 18  4  2  0  0  0  0
 19  3  1  0  0  0  0
 20 18  1  0  0  0  0
 20 11  1  0  0  0  0
 21 23  2  0  0  0  0
 22 24  1  0  0  0  0
 24 13  1  0  0  0  0
 25  9  1  0  0  0  0
 26 21  1  0  0  0  0
 27  1  1  0  0  0  0
 28 29  1  0  0  0  0
 28 17  1  0  0  0  0
 30 33  1  0  0  0  0
 32 29  1  0  0  0  0
 32 31  1  0  0  0  0
 33 31  1  0  0  0  0
 34 30  1  0  0  0  0
 34 32  1  0  0  0  0
M  END
>  <MODEL>
8

>  <REMARK>
 VINA RESULT:      -8.1      3.971      6.521
  Name = 
  3 active torsions:
  status: ('A' for Active; 'I' for Inactive)
    1  A    between atoms: C_17  and  O_28
    2  A    between atoms: O_28  and  C_29
    3  A    between atoms: C_29  and  C_32
                            x       y       z     vdW  Elec       q    Type
                         _______ _______ _______ _____ _____    ______ ____

>  <TORSDO>
F 3

$$$$
=
 OpenBabel11122412263D

 34 40  0  0  1  0  0  0  0  0999 V2000
  189.8290  177.6420  140.6070 C   0  0  0  0  0  0  0  0  0  0  0  0
  190.2130  176.8380  138.2530 C   0  0  0  0  0  2  0  0  0  0  0  0
  185.4480  178.5450  145.5370 C   0  0  0  0  0  0  0  0  0  0  0  0
  188.8550  177.6200  142.8470 C   0  0  0  0  0  0  0  0  0  0  0  0
  186.5530  178.6810  143.2340 C   0  0  2  0  0  3  0  0  0  0  0  0
  184.3180  179.4650  143.6400 O   0  0  0  0  0  1  0  0  0  0  0  0
  184.9340  179.4760  146.2150 O   0  0  0  0  0  0  0  0  0  0  0  0
  187.3020  176.8840  145.7430 C   0  0  0  0  0  2  0  0  0  0  0  0
  188.4320  178.4600  138.5830 C   0  0  2  0  0  3  0  0  0  0  0  0
  185.8200  177.6650  136.9080 C   0  0  0  0  0  2  0  0  0  0  0  0
  186.2830  178.2680  141.7930 C   0  0  0  0  0  2  0  0  0  0  0  0
  187.2670  176.6570  144.3620 O   0  0  0  0  0  0  0  0  0  0  0  0
  187.2290  178.1410  139.4850 C   0  0  1  0  0  3  0  0  0  0  0  0
  189.6570  177.1860  136.8930 C   0  0  0  0  0  2  0  0  0  0  0  0
  187.7220  177.8620  143.8130 C   0  0  1  0  0  3  0  0  0  0  0  0
  186.1010  177.5030  146.2070 O   0  0  0  0  0  0  0  0  0  0  0  0
  187.1570  176.9310  136.8790 C   0  0  2  0  0  3  0  0  0  0  0  0
  188.7360  177.8960  141.4650 C   0  0  0  0  0  0  0  0  0  0  0  0
  185.2590  178.5130  144.0410 C   0  0  2  0  0  3  0  0  0  0  0  0
  187.4990  178.5730  140.9250 C   0  0  2  0  0  3  0  0  0  0  0  0
  191.1260  176.8470  142.5000 C   0  0  0  0  0  3  0  0  0  0  0  0
  185.3420  177.8410  138.3420 C   0  0  0  0  0  2  0  0  0  0  0  0
  190.0490  177.0920  143.3490 C   0  0  0  0  0  3  0  0  0  0  0  0
  186.1050  178.8160  138.9900 O   0  0  0  0  0  0  0  0  0  0  0  0
  188.3330  177.8960  137.1460 C   0  0  1  0  0  3  0  0  0  0  0  0
  191.0190  177.1270  141.1380 C   0  0  0  0  0  3  0  0  0  0  0  0
  189.7810  177.9870  139.1370 C   0  0  1  0  0  3  0  0  0  0  0  0
  187.3020  176.3260  135.6280 O   0  0  0  0  0  0  0  0  0  0  0  0
  187.3720  174.9570  135.8990 C   0  0  0  0  0  2  0  0  0  0  0  0
  183.8630  172.9920  136.1610 S   0  0  0  0  0  0  0  0  0  0  0  0
  186.3000  173.2100  137.3120 C   0  0  0  0  0  2  0  0  0  0  0  0
  186.0810  174.4900  136.5430 C   0  0  2  0  0  3  0  0  0  0  0  0
  184.9290  172.6410  137.5930 C   0  0  0  0  0  2  0  0  0  0  0  0
  185.0550  174.1850  135.4770 C   0  0  0  0  0  2  0  0  0  0  0  0
  1 26  2  0  0  0  0
  1 18  1  0  0  0  0
  2 27  1  0  0  0  0
  3 16  1  0  0  0  0
  3  7  2  0  0  0  0
  4 23  1  0  0  0  0
  4 15  1  0  0  0  0
  5 11  1  6  0  0  0
  5 15  1  0  0  0  0
  5 19  1  0  0  0  0
  6 19  1  0  0  0  0
  8 16  1  0  0  0  0
  9 27  1  0  0  0  0
  9 13  1  0  0  0  0
 10 22  1  0  0  0  0
 12  8  1  0  0  0  0
 13 20  1  0  0  0  0
 14 25  1  0  0  0  0
 14  2  1  0  0  0  0
 15 12  1  0  0  0  0
 17 10  1  0  0  0  0
 17 25  1  0  0  0  0
 18  4  2  0  0  0  0
 19  3  1  0  0  0  0
 20 18  1  0  0  0  0
 20 11  1  0  0  0  0
 21 23  2  0  0  0  0
 22 24  1  0  0  0  0
 24 13  1  0  0  0  0
 25  9  1  0  0  0  0
 26 21  1  0  0  0  0
 27  1  1  0  0  0  0
 28 29  1  0  0  0  0
 28 17  1  0  0  0  0
 29 32  1  0  0  0  0
 30 33  1  0  0  0  0
 31 33  1  0  0  0  0
 32 31  1  0  0  0  0
 34 30  1  0  0  0  0
 34 32  1  0  0  0  0
M  END
>  <MODEL>
9

>  <REMARK>
 VINA RESULT:      -8.0      3.443      6.134
  Name = 
  3 active torsions:
  status: ('A' for Active; 'I' for Inactive)
    1  A    between atoms: C_17  and  O_28
    2  A    between atoms: O_28  and  C_29
    3  A    between atoms: C_29  and  C_32
                            x       y       z     vdW  Elec       q    Type
                         _______ _______ _______ _____ _____    ______ ____

>  <TORSDO>
F 3

$$$$
