=
 OpenBabel11122411303D

 37 43  0  0  1  0  0  0  0  0999 V2000
  189.2710  176.8280  138.6120 C   0  0  0  0  0  2  0  0  0  0  0  0
  190.3070  177.0660  143.4700 C   0  0  0  0  0  0  0  0  0  0  0  0
  186.4140  178.1150  142.1220 C   0  0  0  0  0  0  0  0  0  0  0  0
  190.2140  177.0120  137.4100 C   0  0  2  0  0  3  0  0  0  0  0  0
  185.8890  178.8050  138.4320 O   0  0  0  0  0  0  0  0  0  0  0  0
  187.9180  177.8230  144.0330 C   0  0  0  0  0  0  0  0  0  0  0  0
  186.5790  178.1640  140.7850 C   0  0  0  0  0  0  0  0  0  0  0  0
  188.2720  177.5860  135.8630 C   0  0  0  0  0  0  0  0  0  0  0  0
  187.6750  177.8250  142.7310 C   0  0  0  0  0  0  0  0  0  0  0  0
  185.5200  178.4970  139.7500 C   0  0  0  0  0  0  0  0  0  0  0  0
  186.7820  178.0930  144.9970 C   0  0  0  0  0  2  0  0  0  0  0  0
  189.6730  177.9250  136.2930 C   0  0  0  0  0  2  0  0  0  0  0  0
  188.6560  177.7130  141.7090 C   0  0  0  0  0  0  0  0  0  0  0  0
  190.1010  175.5600  143.4620 C   0  0  0  0  0  1  0  0  0  0  0  0
  183.9310  178.7710  142.4490 C   0  0  0  0  0  2  0  0  0  0  0  0
  185.4490  178.4180  144.3260 C   0  0  0  0  0  3  0  0  0  0  0  0
  190.1150  177.6200  142.0380 C   0  0  0  0  0  2  0  0  0  0  0  0
  187.1170  178.4120  136.3510 C   0  0  0  0  0  2  0  0  0  0  0  0
  187.0940  178.3420  137.8660 C   0  0  1  0  0  3  0  0  0  0  0  0
  185.2650  178.4170  142.9950 C   0  0  0  0  0  0  0  0  0  0  0  0
  188.0570  177.9480  140.5450 C   0  0  0  0  0  0  0  0  0  0  0  0
  189.3490  177.7130  144.5080 C   0  0  0  0  0  2  0  0  0  0  0  0
  184.1860  178.4730  140.0130 C   0  0  0  0  0  0  0  0  0  0  0  0
  191.7320  177.3420  143.9000 C   0  0  0  0  0  1  0  0  0  0  0  0
  188.1760  179.0420  138.4060 O   0  0  0  0  0  0  0  0  0  0  0  0
  188.0700  176.6330  135.1280 O   0  0  0  0  0  0  0  0  0  0  0  0
  188.8350  178.1550  139.2730 C   0  0  2  0  0  3  0  0  0  0  0  0
  183.6320  177.8770  141.2720 C   0  0  0  0  0  2  0  0  0  0  0  0
  182.6420  178.0360  138.0880 C   0  0  0  0  0  3  0  0  0  0  0  0
  183.1870  178.9400  139.0160 C   0  0  0  0  0  0  0  0  0  0  0  0
  182.7310  180.2690  139.0110 C   0  0  0  0  0  3  0  0  0  0  0  0
  181.3250  182.0400  138.0910 N   0  0  0  0  0  1  0  0  0  0  0  0
  181.2470  179.7830  137.1630 C   0  0  0  0  0  3  0  0  0  0  0  0
  181.7710  180.6890  138.0870 C   0  0  0  0  0  0  0  0  0  0  0  0
  181.6810  178.4560  137.1650 C   0  0  0  0  0  3  0  0  0  0  0  0
  191.5550  175.2790  137.7210 C   0  0  0  0  0  1  0  0  0  0  0  0
  190.5480  175.7630  136.8830 O   0  0  0  0  0  0  0  0  0  0  0  0
  2 24  1  0  0  0  0
  2 22  1  0  0  0  0
  3  9  1  0  0  0  0
  3 20  1  0  0  0  0
  4 37  1  6  0  0  0
  4  1  1  0  0  0  0
  5 10  1  0  0  0  0
  6 22  1  0  0  0  0
  6 11  1  0  0  0  0
  7  3  2  0  0  0  0
  8 12  1  0  0  0  0
  8 18  1  0  0  0  0
  9  6  2  0  0  0  0
 10 23  2  0  0  0  0
 10  7  1  0  0  0  0
 12  4  1  0  0  0  0
 13 17  1  0  0  0  0
 13  9  1  0  0  0  0
 14  2  1  0  0  0  0
 15 20  1  0  0  0  0
 16 11  1  0  0  0  0
 17  2  1  0  0  0  0
 19 18  1  6  0  0  0
 19 25  1  0  0  0  0
 19  5  1  0  0  0  0
 20 16  2  0  0  0  0
 21  7  1  0  0  0  0
 21 13  2  0  0  0  0
 23 28  1  0  0  0  0
 25 27  1  0  0  0  0
 26  8  2  0  0  0  0
 27  1  1  6  0  0  0
 27 21  1  0  0  0  0
 28 15  1  0  0  0  0
 29 30  1  0  0  0  0
 30 23  1  0  0  0  0
 31 30  2  0  0  0  0
 33 35  1  0  0  0  0
 33 34  2  0  0  0  0
 34 32  1  0  0  0  0
 34 31  1  0  0  0  0
 35 29  2  0  0  0  0
 37 36  1  0  0  0  0
M  END
>  <MODEL>
1

>  <REMARK>
 VINA RESULT:     -10.6      0.000      0.000
  Name = 
  2 active torsions:
  status: ('A' for Active; 'I' for Inactive)
    1  A    between atoms: C_4  and  O_37
    2  A    between atoms: C_23  and  C_30
                            x       y       z     vdW  Elec       q    Type
                         _______ _______ _______ _____ _____    ______ ____

>  <TORSDO>
F 2

$$$$
=
 OpenBabel11122411303D

 37 43  0  0  1  0  0  0  0  0999 V2000
  189.2670  176.8960  138.7630 C   0  0  0  0  0  2  0  0  0  0  0  0
  190.2620  177.2130  143.6250 C   0  0  0  0  0  0  0  0  0  0  0  0
  186.3550  178.1550  142.2380 C   0  0  0  0  0  0  0  0  0  0  0  0
  190.2130  177.0890  137.5650 C   0  0  2  0  0  3  0  0  0  0  0  0
  185.8410  178.7920  138.5360 O   0  0  0  0  0  0  0  0  0  0  0  0
  187.8520  177.9210  144.1630 C   0  0  0  0  0  0  0  0  0  0  0  0
  186.5290  178.1940  140.9010 C   0  0  0  0  0  0  0  0  0  0  0  0
  188.2700  177.6000  135.9980 C   0  0  0  0  0  0  0  0  0  0  0  0
  187.6190  177.9020  142.8580 C   0  0  0  0  0  0  0  0  0  0  0  0
  185.4700  178.4900  139.8550 C   0  0  0  0  0  0  0  0  0  0  0  0
  186.7030  178.1750  145.1150 C   0  0  0  0  0  2  0  0  0  0  0  0
  189.6590  177.9760  136.4340 C   0  0  0  0  0  2  0  0  0  0  0  0
  188.6090  177.8010  141.8440 C   0  0  0  0  0  0  0  0  0  0  0  0
  190.0910  175.7020  143.6320 C   0  0  0  0  0  1  0  0  0  0  0  0
  183.8560  178.7580  142.5400 C   0  0  0  0  0  2  0  0  0  0  0  0
  185.3680  178.4610  144.4310 C   0  0  0  0  0  3  0  0  0  0  0  0
  190.0670  177.7460  142.1850 C   0  0  0  0  0  2  0  0  0  0  0  0
  187.0920  178.4040  136.4690 C   0  0  0  0  0  2  0  0  0  0  0  0
  187.0600  178.3510  137.9840 C   0  0  1  0  0  3  0  0  0  0  0  0
  185.1930  178.4410  143.0990 C   0  0  0  0  0  0  0  0  0  0  0  0
  188.0130  178.0090  140.6740 C   0  0  0  0  0  0  0  0  0  0  0  0
  189.2810  177.8490  144.6480 C   0  0  0  0  0  2  0  0  0  0  0  0
  184.1350  178.4390  140.1100 C   0  0  0  0  0  0  0  0  0  0  0  0
  191.6770  177.5270  144.0610 C   0  0  0  0  0  1  0  0  0  0  0  0
  188.1220  179.0820  138.5230 O   0  0  0  0  0  0  0  0  0  0  0  0
  188.0950  176.6340  135.2730 O   0  0  0  0  0  0  0  0  0  0  0  0
  188.7960  178.2200  139.4050 C   0  0  2  0  0  3  0  0  0  0  0  0
  183.5850  177.8440  141.3710 C   0  0  0  0  0  2  0  0  0  0  0  0
  182.6960  180.2060  139.0670 C   0  0  0  0  0  3  0  0  0  0  0  0
  183.1330  178.8710  139.1000 C   0  0  0  0  0  0  0  0  0  0  0  0
  182.6450  177.9760  138.1320 C   0  0  0  0  0  3  0  0  0  0  0  0
  181.2340  177.4820  136.2020 N   0  0  0  0  0  1  0  0  0  0  0  0
  181.2900  179.7290  137.1570 C   0  0  0  0  0  3  0  0  0  0  0  0
  181.7240  178.4020  137.1700 C   0  0  0  0  0  0  0  0  0  0  0  0
  181.7770  180.6320  138.1040 C   0  0  0  0  0  3  0  0  0  0  0  0
  191.7650  176.0760  136.3530 C   0  0  0  0  0  1  0  0  0  0  0  0
  190.5800  175.8420  137.0550 O   0  0  0  0  0  0  0  0  0  0  0  0
  2 14  1  0  0  0  0
  2 24  1  0  0  0  0
  2 22  1  0  0  0  0
  3  9  1  0  0  0  0
  3 20  1  0  0  0  0
  4 37  1  6  0  0  0
  4  1  1  0  0  0  0
  5 10  1  0  0  0  0
  6 22  1  0  0  0  0
  6 11  1  0  0  0  0
  7  3  2  0  0  0  0
  8 12  1  0  0  0  0
  8 18  1  0  0  0  0
  9  6  2  0  0  0  0
 10 23  2  0  0  0  0
 10  7  1  0  0  0  0
 12  4  1  0  0  0  0
 13 17  1  0  0  0  0
 13  9  1  0  0  0  0
 15 20  1  0  0  0  0
 16 11  1  0  0  0  0
 17  2  1  0  0  0  0
 19 18  1  6  0  0  0
 19 25  1  0  0  0  0
 19  5  1  0  0  0  0
 20 16  2  0  0  0  0
 21  7  1  0  0  0  0
 21 13  2  0  0  0  0
 23 28  1  0  0  0  0
 25 27  1  0  0  0  0
 26  8  2  0  0  0  0
 27  1  1  6  0  0  0
 27 21  1  0  0  0  0
 28 15  1  0  0  0  0
 29 30  1  0  0  0  0
 30 23  1  0  0  0  0
 31 30  2  0  0  0  0
 32 34  1  0  0  0  0
 33 34  2  0  0  0  0
 33 35  1  0  0  0  0
 34 31  1  0  0  0  0
 35 29  2  0  0  0  0
 36 37  1  0  0  0  0
M  END
>  <MODEL>
2

>  <REMARK>
 VINA RESULT:     -10.3      0.865      1.175
  Name = 
  2 active torsions:
  status: ('A' for Active; 'I' for Inactive)
    1  A    between atoms: C_4  and  O_37
    2  A    between atoms: C_23  and  C_30
                            x       y       z     vdW  Elec       q    Type
                         _______ _______ _______ _____ _____    ______ ____

>  <TORSDO>
F 2

$$$$
=
 OpenBabel11122411303D

 37 43  0  0  1  0  0  0  0  0999 V2000
  184.4550  177.7030  138.8500 C   0  0  0  0  0  2  0  0  0  0  0  0
  188.8120  177.3350  136.4820 C   0  0  0  0  0  0  0  0  0  0  0  0
  188.7640  177.5030  140.7300 C   0  0  0  0  0  0  0  0  0  0  0  0
  183.1440  178.3520  138.3720 C   0  0  2  0  0  3  0  0  0  0  0  0
  185.6060  178.6780  142.4700 O   0  0  0  0  0  0  0  0  0  0  0  0
  190.1130  177.2950  138.6970 C   0  0  0  0  0  0  0  0  0  0  0  0
  187.4820  177.8360  140.9870 C   0  0  0  0  0  0  0  0  0  0  0  0
  182.3120  178.6420  140.7640 C   0  0  0  0  0  0  0  0  0  0  0  0
  188.9530  177.4650  139.3130 C   0  0  0  0  0  0  0  0  0  0  0  0
  186.8550  178.0470  142.3530 C   0  0  0  0  0  0  0  0  0  0  0  0
  191.3620  177.0650  139.5220 C   0  0  0  0  0  2  0  0  0  0  0  0
  182.4580  179.2680  139.4030 C   0  0  0  0  0  2  0  0  0  0  0  0
  187.7270  177.8120  138.6830 C   0  0  0  0  0  0  0  0  0  0  0  0
  188.4790  175.8580  136.3560 C   0  0  0  0  0  1  0  0  0  0  0  0
  189.8410  177.3850  143.0810 C   0  0  0  0  0  2  0  0  0  0  0  0
  191.1400  177.1280  141.0320 C   0  0  0  0  0  3  0  0  0  0  0  0
  187.6560  178.0650  137.2080 C   0  0  0  0  0  2  0  0  0  0  0  0
  183.2590  179.0170  141.8670 C   0  0  0  0  0  2  0  0  0  0  0  0
  184.6660  178.6720  141.4200 C   0  0  1  0  0  3  0  0  0  0  0  0
  189.9370  177.3170  141.6020 C   0  0  0  0  0  0  0  0  0  0  0  0
  186.8420  178.0800  139.6380 C   0  0  0  0  0  0  0  0  0  0  0  0
  190.1810  177.4960  137.2000 C   0  0  0  0  0  2  0  0  0  0  0  0
  187.4220  177.6120  143.5100 C   0  0  0  0  0  0  0  0  0  0  0  0
  188.9360  177.9090  135.0870 C   0  0  0  0  0  1  0  0  0  0  0  0
  185.0820  179.5330  140.4000 O   0  0  0  0  0  0  0  0  0  0  0  0
  181.4360  177.8180  140.9680 O   0  0  0  0  0  0  0  0  0  0  0  0
  185.5110  178.7180  139.3390 C   0  0  2  0  0  3  0  0  0  0  0  0
  188.5870  176.6700  143.5220 C   0  0  0  0  0  2  0  0  0  0  0  0
  185.4960  178.3280  144.9450 C   0  0  0  0  0  3  0  0  0  0  0  0
  186.8480  177.9600  144.8370 C   0  0  0  0  0  0  0  0  0  0  0  0
  187.6220  177.8780  146.0070 C   0  0  0  0  0  3  0  0  0  0  0  0
  187.8620  178.0990  148.4260 N   0  0  0  0  0  1  0  0  0  0  0  0
  185.7220  178.5560  147.3430 C   0  0  0  0  0  3  0  0  0  0  0  0
  187.0630  178.1800  147.2520 C   0  0  0  0  0  0  0  0  0  0  0  0
  184.9370  178.6280  146.1900 C   0  0  0  0  0  3  0  0  0  0  0  0
  182.9680  176.1640  138.0820 C   0  0  0  0  0  1  0  0  0  0  0  0
  182.2560  177.3590  137.9530 O   0  0  0  0  0  0  0  0  0  0  0  0
  2 22  1  0  0  0  0
  2 17  1  0  0  0  0
  3  7  2  0  0  0  0
  3 20  1  0  0  0  0
  4 37  1  1  0  0  0
  4  1  1  0  0  0  0
  4 12  1  0  0  0  0
  6  9  2  0  0  0  0
  6 11  1  0  0  0  0
  7 10  1  0  0  0  0
  8 26  2  0  0  0  0
  8 18  1  0  0  0  0
  9  3  1  0  0  0  0
 10  5  1  0  0  0  0
 10 23  2  0  0  0  0
 11 16  1  0  0  0  0
 12  8  1  0  0  0  0
 13  9  1  0  0  0  0
 13 21  2  0  0  0  0
 14  2  1  0  0  0  0
 15 28  1  0  0  0  0
 16 20  2  0  0  0  0
 17 13  1  0  0  0  0
 19 18  1  1  0  0  0
 19  5  1  0  0  0  0
 20 15  1  0  0  0  0
 21  7  1  0  0  0  0
 22  6  1  0  0  0  0
 23 28  1  0  0  0  0
 23 30  1  0  0  0  0
 24  2  1  0  0  0  0
 25 19  1  0  0  0  0
 27  1  1  1  0  0  0
 27 21  1  0  0  0  0
 27 25  1  0  0  0  0
 29 35  1  0  0  0  0
 30 29  2  0  0  0  0
 30 31  1  0  0  0  0
 31 34  2  0  0  0  0
 34 33  1  0  0  0  0
 34 32  1  0  0  0  0
 35 33  2  0  0  0  0
 37 36  1  0  0  0  0
M  END
>  <MODEL>
3

>  <REMARK>
 VINA RESULT:     -10.3      3.008      6.937
  Name = 
  2 active torsions:
  status: ('A' for Active; 'I' for Inactive)
    1  A    between atoms: C_4  and  O_37
    2  A    between atoms: C_23  and  C_30
                            x       y       z     vdW  Elec       q    Type
                         _______ _______ _______ _____ _____    ______ ____

>  <TORSDO>
F 2

$$$$
=
 OpenBabel11122411303D

 37 43  0  0  1  0  0  0  0  0999 V2000
  184.0890  178.0430  140.6950 C   0  0  0  0  0  2  0  0  0  0  0  0
  187.3700  177.8900  136.9610 C   0  0  0  0  0  0  0  0  0  0  0  0
  188.7600  177.5410  140.9630 C   0  0  0  0  0  0  0  0  0  0  0  0
  182.7340  178.7680  140.7650 C   0  0  2  0  0  3  0  0  0  0  0  0
  186.4440  178.5500  143.7900 O   0  0  0  0  0  0  0  0  0  0  0  0
  189.3350  177.5580  138.5830 C   0  0  0  0  0  0  0  0  0  0  0  0
  187.6610  177.8630  141.6750 C   0  0  1  0  0  3  0  0  0  0  0  0
  182.7720  178.7790  143.3130 C   0  0  0  0  0  0  0  0  0  0  0  0
  188.4600  177.6730  139.5710 C   0  0  0  0  0  0  0  0  0  0  0  0
  187.5420  177.9170  143.1880 C   0  0  0  0  0  0  0  0  0  0  0  0
  190.7720  177.2080  138.9040 C   0  0  0  0  0  3  0  0  0  0  0  0
  182.4880  179.5630  142.0610 C   0  0  0  0  0  2  0  0  0  0  0  0
  187.1160  178.1140  139.4370 C   0  0  0  0  0  0  0  0  0  0  0  0
  186.9290  176.4450  136.7960 C   0  0  0  0  0  1  0  0  0  0  0  0
  190.5560  177.1190  142.7800 C   0  0  0  0  0  2  0  0  0  0  0  0
  191.0740  177.0900  140.3960 C   0  0  0  0  0  3  0  0  0  0  0  0
  186.5690  178.5460  138.1110 C   0  0  0  0  0  2  0  0  0  0  0  0
  184.0540  179.0010  144.0620 C   0  0  0  0  0  2  0  0  0  0  0  0
  185.2070  178.6890  143.1290 C   0  0  1  0  0  3  0  0  0  0  0  0
  190.1460  177.2300  141.3590 C   0  0  0  0  0  0  0  0  0  0  0  0
  186.6200  178.2800  140.6600 C   0  0  0  0  0  0  0  0  0  0  0  0
  188.9070  177.9390  137.1840 C   0  0  0  0  0  2  0  0  0  0  0  0
  188.4380  177.3350  144.0280 C   0  0  0  0  0  0  0  0  0  0  0  0
  187.0510  178.6270  135.6780 C   0  0  0  0  0  1  0  0  0  0  0  0
  185.3050  179.6590  142.1280 O   0  0  0  0  0  0  0  0  0  0  0  0
  181.9690  177.9520  143.7130 O   0  0  0  0  0  0  0  0  0  0  0  0
  185.3060  178.9720  140.9020 C   0  0  2  0  0  3  0  0  0  0  0  0
  189.4840  176.3780  143.5410 C   0  0  0  0  0  2  0  0  0  0  0  0
  189.4790  177.2390  146.3060 C   0  0  0  0  0  3  0  0  0  0  0  0
  188.3640  177.5280  145.5010 C   0  0  0  0  0  0  0  0  0  0  0  0
  187.2080  178.0490  146.1070 C   0  0  0  0  0  3  0  0  0  0  0  0
  185.9810  178.7740  148.0890 N   0  0  0  0  0  1  0  0  0  0  0  0
  188.2720  177.9500  148.2790 C   0  0  0  0  0  3  0  0  0  0  0  0
  187.1610  178.2530  147.4890 C   0  0  0  0  0  0  0  0  0  0  0  0
  189.4310  177.4450  147.6880 C   0  0  0  0  0  3  0  0  0  0  0  0
  181.0930  178.2430  139.3750 C   0  0  0  0  0  1  0  0  0  0  0  0
  181.7020  177.8480  140.5680 O   0  0  0  0  0  0  0  0  0  0  0  0
  1  4  1  0  0  0  0
  2 22  1  0  0  0  0
  2 17  1  0  0  0  0
  3 20  1  0  0  0  0
  3  7  1  0  0  0  0
  4 37  1  1  0  0  0
  4 12  1  0  0  0  0
  6 11  2  0  0  0  0
  6  9  1  0  0  0  0
  7 21  1  6  0  0  0
  7 10  1  0  0  0  0
  8 26  2  0  0  0  0
  8 18  1  0  0  0  0
  9  3  2  0  0  0  0
 10  5  1  0  0  0  0
 10 23  2  0  0  0  0
 11 16  1  0  0  0  0
 12  8  1  0  0  0  0
 13  9  1  0  0  0  0
 13 21  2  0  0  0  0
 14  2  1  0  0  0  0
 15 28  1  0  0  0  0
 16 20  2  0  0  0  0
 17 13  1  0  0  0  0
 19  5  1  0  0  0  0
 19 18  1  1  0  0  0
 20 15  1  0  0  0  0
 21 27  1  0  0  0  0
 22  6  1  0  0  0  0
 23 30  1  0  0  0  0
 24  2  1  0  0  0  0
 25 19  1  0  0  0  0
 27  1  1  1  0  0  0
 27 25  1  0  0  0  0
 28 23  1  0  0  0  0
 29 35  1  0  0  0  0
 30 31  1  0  0  0  0
 30 29  2  0  0  0  0
 31 34  2  0  0  0  0
 34 32  1  0  0  0  0
 34 33  1  0  0  0  0
 35 33  2  0  0  0  0
 36 37  1  0  0  0  0
M  END
>  <MODEL>
4

>  <REMARK>
 VINA RESULT:      -9.1      3.165      7.804
  Name = 
  2 active torsions:
  status: ('A' for Active; 'I' for Inactive)
    1  A    between atoms: C_4  and  O_37
    2  A    between atoms: C_23  and  C_30
                            x       y       z     vdW  Elec       q    Type
                         _______ _______ _______ _____ _____    ______ ____

>  <TORSDO>
F 2

$$$$
=
 OpenBabel11122411303D

 37 43  0  0  1  0  0  0  0  0999 V2000
  188.0280  178.3850  140.0550 C   0  0  0  0  0  2  0  0  0  0  0  0
  183.1330  178.7700  139.2700 C   0  0  0  0  0  0  0  0  0  0  0  0
  184.5870  178.5610  143.2600 C   0  0  0  0  0  0  0  0  0  0  0  0
  189.1060  177.7420  139.1640 C   0  0  2  0  0  3  0  0  0  0  0  0
  188.1400  177.3730  143.8430 O   0  0  0  0  0  0  0  0  0  0  0  0
  182.6400  178.7870  141.7920 C   0  0  0  0  0  0  0  0  0  0  0  0
  185.8800  178.2270  143.0740 C   0  0  0  0  0  0  0  0  0  0  0  0
  190.6820  177.4300  141.1420 C   0  0  0  0  0  0  0  0  0  0  0  0
  183.9390  178.6120  141.9860 C   0  0  0  0  0  0  0  0  0  0  0  0
  186.9250  178.0030  144.1530 C   0  0  0  0  0  0  0  0  0  0  0  0
  181.7360  179.0070  142.9860 C   0  0  0  0  0  2  0  0  0  0  0  0
  190.0930  176.8170  139.9010 C   0  0  0  0  0  2  0  0  0  0  0  0
  184.8850  178.2730  140.9820 C   0  0  0  0  0  0  0  0  0  0  0  0
  183.4080  180.2490  139.0550 C   0  0  0  0  0  1  0  0  0  0  0  0
  184.3500  178.6550  145.8360 C   0  0  0  0  0  2  0  0  0  0  0  0
  182.4460  178.9300  144.3360 C   0  0  0  0  0  3  0  0  0  0  0  0
  184.4630  178.0350  139.5640 C   0  0  0  0  0  2  0  0  0  0  0  0
  190.1540  177.0430  142.4930 C   0  0  0  0  0  2  0  0  0  0  0  0
  188.6790  177.3900  142.5410 C   0  0  1  0  0  3  0  0  0  0  0  0
  183.7690  178.7370  144.4730 C   0  0  0  0  0  0  0  0  0  0  0  0
  186.0370  177.9970  141.5870 C   0  0  0  0  0  0  0  0  0  0  0  0
  182.0800  178.5990  140.4000 C   0  0  0  0  0  2  0  0  0  0  0  0
  186.7740  178.4260  145.4360 C   0  0  0  0  0  0  0  0  0  0  0  0
  182.5530  178.2090  137.9890 C   0  0  0  0  0  1  0  0  0  0  0  0
  187.9470  176.5390  141.7090 O   0  0  0  0  0  0  0  0  0  0  0  0
  191.5790  178.2530  141.0520 O   0  0  0  0  0  0  0  0  0  0  0  0
  187.1920  177.3630  140.8580 C   0  0  2  0  0  3  0  0  0  0  0  0
  185.6800  179.3670  145.8430 C   0  0  0  0  0  2  0  0  0  0  0  0
  187.4240  178.2400  147.8490 C   0  0  0  0  0  3  0  0  0  0  0  0
  187.7550  178.0670  146.4950 C   0  0  0  0  0  0  0  0  0  0  0  0
  189.0000  177.5030  146.1690 C   0  0  0  0  0  3  0  0  0  0  0  0
  191.1620  176.5790  146.8280 N   0  0  0  0  0  1  0  0  0  0  0  0
  189.5660  177.3310  148.5160 C   0  0  0  0  0  3  0  0  0  0  0  0
  189.9020  177.1420  147.1740 C   0  0  0  0  0  0  0  0  0  0  0  0
  188.3260  177.8780  148.8540 C   0  0  0  0  0  3  0  0  0  0  0  0
  189.0560  178.9830  137.3320 C   0  0  0  0  0  1  0  0  0  0  0  0
  189.8060  178.7410  138.4840 O   0  0  0  0  0  0  0  0  0  0  0  0
  2 17  1  0  0  0  0
  2 22  1  0  0  0  0
  3 20  1  0  0  0  0
  4 37  1  1  0  0  0
  4 12  1  0  0  0  0
  4  1  1  0  0  0  0
  5 10  1  0  0  0  0
  6  9  2  0  0  0  0
  6 11  1  0  0  0  0
  7  3  2  0  0  0  0
  7 10  1  0  0  0  0
  8 18  1  0  0  0  0
  9  3  1  0  0  0  0
 10 23  2  0  0  0  0
 11 16  1  0  0  0  0
 12  8  1  0  0  0  0
 13 21  2  0  0  0  0
 13  9  1  0  0  0  0
 14  2  1  0  0  0  0
 15 28  1  0  0  0  0
 16 20  2  0  0  0  0
 17 13  1  0  0  0  0
 19 18  1  1  0  0  0
 19  5  1  0  0  0  0
 20 15  1  0  0  0  0
 21  7  1  0  0  0  0
 22  6  1  0  0  0  0
 23 28  1  0  0  0  0
 23 30  1  0  0  0  0
 24  2  1  0  0  0  0
 25 19  1  0  0  0  0
 26  8  2  0  0  0  0
 27  1  1  1  0  0  0
 27 21  1  0  0  0  0
 27 25  1  0  0  0  0
 29 35  1  0  0  0  0
 30 29  2  0  0  0  0
 31 30  1  0  0  0  0
 31 34  2  0  0  0  0
 32 34  1  0  0  0  0
 33 35  2  0  0  0  0
 34 33  1  0  0  0  0
 36 37  1  0  0  0  0
M  END
>  <MODEL>
5

>  <REMARK>
 VINA RESULT:      -8.9      3.166      7.214
  Name = 
  2 active torsions:
  status: ('A' for Active; 'I' for Inactive)
    1  A    between atoms: C_4  and  O_37
    2  A    between atoms: C_23  and  C_30
                            x       y       z     vdW  Elec       q    Type
                         _______ _______ _______ _____ _____    ______ ____

>  <TORSDO>
F 2

$$$$
=
 OpenBabel11122411303D

 37 43  0  0  1  0  0  0  0  0999 V2000
  187.7610  177.2310  140.0930 C   0  0  0  0  0  2  0  0  0  0  0  0
  190.2570  177.4480  144.3890 C   0  0  0  0  0  0  0  0  0  0  0  0
  186.0930  178.3030  144.3600 C   0  0  0  0  0  0  0  0  0  0  0  0
  188.2680  177.4860  138.6630 C   0  0  2  0  0  3  0  0  0  0  0  0
  184.4040  179.0230  141.0430 O   0  0  0  0  0  0  0  0  0  0  0  0
  188.1320  178.0640  145.6950 C   0  0  0  0  0  0  0  0  0  0  0  0
  185.8270  178.3830  143.0400 C   0  0  0  0  0  0  0  0  0  0  0  0
  185.9140  177.9770  137.8200 C   0  0  0  0  0  0  0  0  0  0  0  0
  187.4930  178.0740  144.5340 C   0  0  0  0  0  0  0  0  0  0  0  0
  184.4820  178.6740  142.4000 C   0  0  0  0  0  0  0  0  0  0  0  0
  187.3450  178.2560  146.9740 C   0  0  0  0  0  2  0  0  0  0  0  0
  187.3620  178.3850  137.8020 C   0  0  0  0  0  2  0  0  0  0  0  0
  188.1080  178.0310  143.2540 C   0  0  0  0  0  0  0  0  0  0  0  0
  190.1300  175.9330  144.3970 C   0  0  0  0  0  1  0  0  0  0  0  0
  183.8100  178.8180  145.4680 C   0  0  0  0  0  2  0  0  0  0  0  0
  185.8550  178.5180  146.7640 C   0  0  0  0  0  3  0  0  0  0  0  0
  189.5990  178.0130  143.1070 C   0  0  0  0  0  2  0  0  0  0  0  0
  184.9340  178.7300  138.6720 C   0  0  0  0  0  2  0  0  0  0  0  0
  185.3910  178.6360  140.1140 C   0  0  1  0  0  3  0  0  0  0  0  0
  185.2620  178.5290  145.5570 C   0  0  0  0  0  0  0  0  0  0  0  0
  187.1630  178.2520  142.3430 C   0  0  0  0  0  0  0  0  0  0  0  0
  189.6430  178.0240  145.6940 C   0  0  0  0  0  2  0  0  0  0  0  0
  183.3010  178.5730  143.0660 C   0  0  0  0  0  0  0  0  0  0  0  0
  191.7300  177.7950  144.3600 C   0  0  0  0  0  1  0  0  0  0  0  0
  186.5540  179.3850  140.3110 O   0  0  0  0  0  0  0  0  0  0  0  0
  185.5370  177.0260  137.1550 O   0  0  0  0  0  0  0  0  0  0  0  0
  187.4930  178.5210  140.8990 C   0  0  2  0  0  3  0  0  0  0  0  0
  183.1980  177.9270  144.4150 C   0  0  0  0  0  2  0  0  0  0  0  0
  181.0810  179.7290  143.1980 C   0  0  0  0  0  3  0  0  0  0  0  0
  182.0190  179.0010  142.4460 C   0  0  0  0  0  0  0  0  0  0  0  0
  181.7420  178.7350  141.0940 C   0  0  0  0  0  3  0  0  0  0  0  0
  180.2760  178.8840  139.1480 N   0  0  0  0  0  1  0  0  0  0  0  0
  179.6170  179.8790  141.2780 C   0  0  0  0  0  3  0  0  0  0  0  0
  180.5450  179.1670  140.5150 C   0  0  0  0  0  0  0  0  0  0  0  0
  179.8850  180.1620  142.6180 C   0  0  0  0  0  3  0  0  0  0  0  0
  189.8630  176.0820  138.0400 C   0  0  0  0  0  1  0  0  0  0  0  0
  188.4790  176.2650  138.0180 O   0  0  0  0  0  0  0  0  0  0  0  0
  2 14  1  0  0  0  0
  2 22  1  0  0  0  0
  3  9  1  0  0  0  0
  3 20  1  0  0  0  0
  4 37  1  6  0  0  0
  4  1  1  0  0  0  0
  5 10  1  0  0  0  0
  6 11  1  0  0  0  0
  7  3  2  0  0  0  0
  8 18  1  0  0  0  0
  9  6  2  0  0  0  0
 10  7  1  0  0  0  0
 10 23  2  0  0  0  0
 12  8  1  0  0  0  0
 12  4  1  0  0  0  0
 13  9  1  0  0  0  0
 15 20  1  0  0  0  0
 16 11  1  0  0  0  0
 17 13  1  0  0  0  0
 17  2  1  0  0  0  0
 19 18  1  6  0  0  0
 19 25  1  0  0  0  0
 19  5  1  0  0  0  0
 20 16  2  0  0  0  0
 21  7  1  0  0  0  0
 21 13  2  0  0  0  0
 22  6  1  0  0  0  0
 23 28  1  0  0  0  0
 24  2  1  0  0  0  0
 25 27  1  0  0  0  0
 26  8  2  0  0  0  0
 27  1  1  6  0  0  0
 27 21  1  0  0  0  0
 28 15  1  0  0  0  0
 30 23  1  0  0  0  0
 30 29  2  0  0  0  0
 31 30  1  0  0  0  0
 32 34  1  0  0  0  0
 33 35  2  0  0  0  0
 34 31  2  0  0  0  0
 34 33  1  0  0  0  0
 35 29  1  0  0  0  0
 37 36  1  0  0  0  0
M  END
>  <MODEL>
6

>  <REMARK>
 VINA RESULT:      -8.9      1.898      2.845
  Name = 
  2 active torsions:
  status: ('A' for Active; 'I' for Inactive)
    1  A    between atoms: C_4  and  O_37
    2  A    between atoms: C_23  and  C_30
                            x       y       z     vdW  Elec       q    Type
                         _______ _______ _______ _____ _____    ______ ____

>  <TORSDO>
F 2

$$$$
=
 OpenBabel11122411303D

 37 43  0  0  1  0  0  0  0  0999 V2000
  187.0080  176.4030  137.2690 C   0  0  0  0  0  2  0  0  0  0  0  0
  191.9740  176.3330  137.5380 C   0  0  0  0  0  0  0  0  0  0  0  0
  189.7210  177.4080  140.9800 C   0  0  0  0  0  0  0  0  0  0  0  0
  186.1070  176.6820  136.0530 C   0  0  2  0  0  3  0  0  0  0  0  0
  186.0700  178.3350  140.5500 O   0  0  0  0  0  0  0  0  0  0  0  0
  191.9370  177.0140  140.0150 C   0  0  0  0  0  0  0  0  0  0  0  0
  188.4790  177.5490  140.4740 C   0  0  0  0  0  0  0  0  0  0  0  0
  184.1440  177.3270  137.5440 C   0  0  0  0  0  0  0  0  0  0  0  0
  190.6190  177.0990  139.9110 C   0  0  0  0  0  0  0  0  0  0  0  0
  187.2250  177.9330  141.2390 C   0  0  0  0  0  0  0  0  0  0  0  0
  192.5860  177.2010  141.3700 C   0  0  0  0  0  2  0  0  0  0  0  0
  184.9450  177.6580  136.3150 C   0  0  0  0  0  2  0  0  0  0  0  0
  189.8840  177.0700  138.6950 C   0  0  0  0  0  0  0  0  0  0  0  0
  191.8210  174.8280  137.6860 C   0  0  0  0  0  1  0  0  0  0  0  0
  189.4270  178.0030  143.4820 C   0  0  0  0  0  2  0  0  0  0  0  0
  191.6100  177.5480  142.4930 C   0  0  0  0  0  3  0  0  0  0  0  0
  190.5770  176.9790  137.3700 C   0  0  0  0  0  2  0  0  0  0  0  0
  184.3630  178.1000  138.8130 C   0  0  0  0  0  2  0  0  0  0  0  0
  185.8120  177.9290  139.2260 C   0  0  1  0  0  3  0  0  0  0  0  0
  190.2790  177.6340  142.3260 C   0  0  0  0  0  0  0  0  0  0  0  0
  188.6210  177.3720  138.9790 C   0  0  0  0  0  0  0  0  0  0  0  0
  192.7620  176.8940  138.7540 C   0  0  0  0  0  2  0  0  0  0  0  0
  187.1290  177.8710  142.5940 C   0  0  0  0  0  0  0  0  0  0  0  0
  192.7760  176.6030  136.2840 C   0  0  0  0  0  1  0  0  0  0  0  0
  186.6570  178.6090  138.3440 O   0  0  0  0  0  0  0  0  0  0  0  0
  183.3270  176.4220  137.5170 O   0  0  0  0  0  0  0  0  0  0  0  0
  187.6110  177.6760  137.9040 C   0  0  2  0  0  3  0  0  0  0  0  0
  188.1600  177.1840  143.4360 C   0  0  0  0  0  2  0  0  0  0  0  0
  184.8370  178.8840  142.5910 C   0  0  0  0  0  3  0  0  0  0  0  0
  185.9350  178.3880  143.3140 C   0  0  0  0  0  0  0  0  0  0  0  0
  185.8570  178.3430  144.7160 C   0  0  0  0  0  3  0  0  0  0  0  0
  184.6570  178.7590  146.8010 N   0  0  0  0  0  1  0  0  0  0  0  0
  183.6380  179.3070  144.6510 C   0  0  0  0  0  3  0  0  0  0  0  0
  184.7170  178.8050  145.3810 C   0  0  0  0  0  0  0  0  0  0  0  0
  183.6970  179.3450  143.2560 C   0  0  0  0  0  3  0  0  0  0  0  0
  186.7360  174.6610  135.4030 C   0  0  0  0  0  1  0  0  0  0  0  0
  185.6120  175.4760  135.5520 O   0  0  0  0  0  0  0  0  0  0  0  0
  2 14  1  0  0  0  0
  2 22  1  0  0  0  0
  3 20  1  0  0  0  0
  4 37  1  1  0  0  0
  4 12  1  0  0  0  0
  4  1  1  0  0  0  0
  5 10  1  0  0  0  0
  6 11  1  0  0  0  0
  7  3  2  0  0  0  0
  7 10  1  0  0  0  0
  8 18  1  0  0  0  0
  9  6  2  0  0  0  0
  9  3  1  0  0  0  0
 10 23  2  0  0  0  0
 11 16  1  0  0  0  0
 12  8  1  0  0  0  0
 13 21  2  0  0  0  0
 13  9  1  0  0  0  0
 17  2  1  0  0  0  0
 17 13  1  0  0  0  0
 19 18  1  6  0  0  0
 19  5  1  0  0  0  0
 20 16  2  0  0  0  0
 20 15  1  0  0  0  0
 21  7  1  0  0  0  0
 22  6  1  0  0  0  0
 23 30  1  0  0  0  0
 23 28  1  0  0  0  0
 24  2  1  0  0  0  0
 25 19  1  0  0  0  0
 26  8  2  0  0  0  0
 27  1  1  1  0  0  0
 27 25  1  0  0  0  0
 27 21  1  0  0  0  0
 28 15  1  0  0  0  0
 29 35  2  0  0  0  0
 29 30  1  0  0  0  0
 30 31  2  0  0  0  0
 31 34  1  0  0  0  0
 33 34  2  0  0  0  0
 34 32  1  0  0  0  0
 35 33  1  0  0  0  0
 36 37  1  0  0  0  0
M  END
>  <MODEL>
7

>  <REMARK>
 VINA RESULT:      -8.7      2.437      5.260
  Name = 
  2 active torsions:
  status: ('A' for Active; 'I' for Inactive)
    1  A    between atoms: C_4  and  O_37
    2  A    between atoms: C_23  and  C_30
                            x       y       z     vdW  Elec       q    Type
                         _______ _______ _______ _____ _____    ______ ____

>  <TORSDO>
F 2

$$$$
=
 OpenBabel11122411303D

 37 43  0  0  1  0  0  0  0  0999 V2000
  188.1080  177.2090  141.6120 C   0  0  0  0  0  2  0  0  0  0  0  0
  185.6650  178.6110  145.7110 C   0  0  0  0  0  0  0  0  0  0  0  0
  183.5700  178.3880  142.0180 C   0  0  0  0  0  0  0  0  0  0  0  0
  189.5950  177.3900  141.2600 C   0  0  2  0  0  3  0  0  0  0  0  0
  185.5670  178.2160  138.8000 O   0  0  0  0  0  0  0  0  0  0  0  0
  183.4560  178.8450  144.4210 C   0  0  0  0  0  0  0  0  0  0  0  0
  184.5730  178.2220  141.1320 C   0  0  0  0  0  0  0  0  0  0  0  0
  189.1240  177.1610  138.7660 C   0  0  0  0  0  0  0  0  0  0  0  0
  184.1330  178.5410  143.3240 C   0  0  0  0  0  0  0  0  0  0  0  0
  184.4410  178.0800  139.6260 C   0  0  0  0  0  0  0  0  0  0  0  0
  181.9520  179.0020  144.3430 C   0  0  0  0  0  2  0  0  0  0  0  0
  189.8670  177.9120  139.8370 C   0  0  0  0  0  2  0  0  0  0  0  0
  185.5490  178.4830  143.2170 C   0  0  0  0  0  0  0  0  0  0  0  0
  185.6130  177.1280  146.0380 C   0  0  0  0  0  1  0  0  0  0  0  0
  181.4530  178.4580  140.5300 C   0  0  0  0  0  2  0  0  0  0  0  0
  181.3750  178.8540  142.9360 C   0  0  0  0  0  3  0  0  0  0  0  0
  186.4300  178.8190  144.3810 C   0  0  0  0  0  2  0  0  0  0  0  0
  187.8830  177.7520  138.1600 C   0  0  0  0  0  2  0  0  0  0  0  0
  186.8720  177.9670  139.2690 C   0  0  1  0  0  3  0  0  0  0  0  0
  182.1150  178.5550  141.8540 C   0  0  0  0  0  0  0  0  0  0  0  0
  185.8520  178.3380  141.9310 C   0  0  0  0  0  0  0  0  0  0  0  0
  184.2220  179.1840  145.6800 C   0  0  0  0  0  2  0  0  0  0  0  0
  183.2690  177.7770  139.0060 C   0  0  0  0  0  0  0  0  0  0  0  0
  186.4320  179.3080  146.8140 C   0  0  0  0  0  1  0  0  0  0  0  0
  187.2820  179.0030  140.1140 O   0  0  0  0  0  0  0  0  0  0  0  0
  189.5180  176.0670  138.3990 O   0  0  0  0  0  0  0  0  0  0  0  0
  187.2610  178.4870  141.4200 C   0  0  2  0  0  3  0  0  0  0  0  0
  182.0630  177.3110  139.7620 C   0  0  0  0  0  2  0  0  0  0  0  0
  184.1100  177.1280  136.7350 C   0  0  0  0  0  3  0  0  0  0  0  0
  183.1490  177.7850  137.5230 C   0  0  0  0  0  0  0  0  0  0  0  0
  182.0560  178.3960  136.8860 C   0  0  0  0  0  3  0  0  0  0  0  0
  180.8300  179.0020  134.8640 N   0  0  0  0  0  1  0  0  0  0  0  0
  182.9070  177.7260  134.7220 C   0  0  0  0  0  3  0  0  0  0  0  0
  181.9390  178.3720  135.4940 C   0  0  0  0  0  0  0  0  0  0  0  0
  183.9920  177.1020  135.3430 C   0  0  0  0  0  3  0  0  0  0  0  0
  190.2250  175.9770  142.8430 C   0  0  0  0  0  1  0  0  0  0  0  0
  190.2730  176.1870  141.4640 O   0  0  0  0  0  0  0  0  0  0  0  0
  2 14  1  0  0  0  0
  2 24  1  0  0  0  0
  3  9  1  0  0  0  0
  4 37  1  6  0  0  0
  4  1  1  0  0  0  0
  5 19  1  0  0  0  0
  5 10  1  0  0  0  0
  6 22  1  0  0  0  0
  7 21  1  0  0  0  0
  7  3  2  0  0  0  0
  8 12  1  0  0  0  0
  9  6  2  0  0  0  0
 10  7  1  0  0  0  0
 11  6  1  0  0  0  0
 12  4  1  0  0  0  0
 13  9  1  0  0  0  0
 13 17  1  0  0  0  0
 15 20  1  0  0  0  0
 16 11  1  0  0  0  0
 17  2  1  0  0  0  0
 18  8  1  0  0  0  0
 19 18  1  6  0  0  0
 19 25  1  0  0  0  0
 20  3  1  0  0  0  0
 20 16  2  0  0  0  0
 21 13  2  0  0  0  0
 22  2  1  0  0  0  0
 23 10  2  0  0  0  0
 23 28  1  0  0  0  0
 25 27  1  0  0  0  0
 26  8  2  0  0  0  0
 27  1  1  6  0  0  0
 27 21  1  0  0  0  0
 28 15  1  0  0  0  0
 29 30  1  0  0  0  0
 30 23  1  0  0  0  0
 31 30  2  0  0  0  0
 32 34  1  0  0  0  0
 33 35  1  0  0  0  0
 33 34  2  0  0  0  0
 34 31  1  0  0  0  0
 35 29  2  0  0  0  0
 37 36  1  0  0  0  0
M  END
>  <MODEL>
8

>  <REMARK>
 VINA RESULT:      -8.5      1.903      3.637
  Name = 
  2 active torsions:
  status: ('A' for Active; 'I' for Inactive)
    1  A    between atoms: C_4  and  O_37
    2  A    between atoms: C_23  and  C_30
                            x       y       z     vdW  Elec       q    Type
                         _______ _______ _______ _____ _____    ______ ____

>  <TORSDO>
F 2

$$$$
=
 OpenBabel11122411303D

 37 43  0  0  1  0  0  0  0  0999 V2000
  189.8940  176.8260  142.9890 C   0  0  0  0  0  2  0  0  0  0  0  0
  188.4510  177.8170  147.6440 C   0  0  0  0  0  0  0  0  0  0  0  0
  185.6870  178.3390  144.4570 C   0  0  0  0  0  0  0  0  0  0  0  0
  191.2980  176.9210  142.3690 C   0  0  2  0  0  3  0  0  0  0  0  0
  187.0060  178.4680  140.9050 O   0  0  0  0  0  0  0  0  0  0  0  0
  186.0820  178.4410  146.8720 C   0  0  0  0  0  0  0  0  0  0  0  0
  186.4770  178.2170  143.3720 C   0  0  0  0  0  0  0  0  0  0  0  0
  190.3420  177.1110  140.0140 C   0  0  0  0  0  0  0  0  0  0  0  0
  186.4990  178.2430  145.6300 C   0  0  0  0  0  0  0  0  0  0  0  0
  186.0470  178.3140  141.9190 C   0  0  0  0  0  0  0  0  0  0  0  0
  184.6200  178.7450  147.1210 C   0  0  0  0  0  2  0  0  0  0  0  0
  191.3580  177.6230  140.9990 C   0  0  0  0  0  2  0  0  0  0  0  0
  187.8520  178.0740  145.2310 C   0  0  0  0  0  0  0  0  0  0  0  0
  188.2860  176.3130  147.7820 C   0  0  0  0  0  1  0  0  0  0  0  0
  183.3500  178.8230  143.4520 C   0  0  0  0  0  2  0  0  0  0  0  0
  183.7750  178.8600  145.8540 C   0  0  0  0  0  3  0  0  0  0  0  0
  188.9710  178.1510  146.2250 C   0  0  0  0  0  2  0  0  0  0  0  0
  189.0880  177.8960  139.7540 C   0  0  0  0  0  2  0  0  0  0  0  0
  188.3370  178.0340  141.0640 C   0  0  1  0  0  3  0  0  0  0  0  0
  184.2570  178.6610  144.6150 C   0  0  0  0  0  0  0  0  0  0  0  0
  187.8890  178.0950  143.9020 C   0  0  0  0  0  0  0  0  0  0  0  0
  187.1060  178.5180  147.9810 C   0  0  0  0  0  2  0  0  0  0  0  0
  184.7530  178.2150  141.5160 C   0  0  0  0  0  0  0  0  0  0  0  0
  189.4890  178.2690  148.6490 C   0  0  0  0  0  1  0  0  0  0  0  0
  189.0190  178.8910  141.9330 O   0  0  0  0  0  0  0  0  0  0  0  0
  190.5270  176.0520  139.4370 O   0  0  0  0  0  0  0  0  0  0  0  0
  189.1830  178.1900  143.1390 C   0  0  2  0  0  3  0  0  0  0  0  0
  183.6640  177.7520  142.4360 C   0  0  0  0  0  2  0  0  0  0  0  0
  184.9970  177.7550  139.0640 C   0  0  0  0  0  3  0  0  0  0  0  0
  184.3570  178.4540  140.1020 C   0  0  0  0  0  0  0  0  0  0  0  0
  183.3100  179.3340  139.7800 C   0  0  0  0  0  3  0  0  0  0  0  0
  181.8710  180.4290  138.1400 N   0  0  0  0  0  1  0  0  0  0  0  0
  183.5810  178.8380  137.4270 C   0  0  0  0  0  3  0  0  0  0  0  0
  182.9280  179.5290  138.4500 C   0  0  0  0  0  0  0  0  0  0  0  0
  184.6140  177.9490  137.7340 C   0  0  0  0  0  3  0  0  0  0  0  0
  191.8050  175.1340  143.5730 C   0  0  0  0  0  1  0  0  0  0  0  0
  191.8550  175.6440  142.2740 O   0  0  0  0  0  0  0  0  0  0  0  0
  2 14  1  0  0  0  0
  2 22  1  0  0  0  0
  2 24  1  0  0  0  0
  3 20  1  0  0  0  0
  3  9  1  0  0  0  0
  4 37  1  6  0  0  0
  4  1  1  0  0  0  0
  5 19  1  0  0  0  0
  5 10  1  0  0  0  0
  6 11  1  0  0  0  0
  6 22  1  0  0  0  0
  7 21  1  0  0  0  0
  7  3  2  0  0  0  0
  8 12  1  0  0  0  0
  9  6  2  0  0  0  0
 10  7  1  0  0  0  0
 12  4  1  0  0  0  0
 13  9  1  0  0  0  0
 13 17  1  0  0  0  0
 15 20  1  0  0  0  0
 16 11  1  0  0  0  0
 17  2  1  0  0  0  0
 18  8  1  0  0  0  0
 19 18  1  6  0  0  0
 19 25  1  0  0  0  0
 20 16  2  0  0  0  0
 21 13  2  0  0  0  0
 23 10  2  0  0  0  0
 23 28  1  0  0  0  0
 25 27  1  0  0  0  0
 26  8  2  0  0  0  0
 27  1  1  6  0  0  0
 27 21  1  0  0  0  0
 28 15  1  0  0  0  0
 29 30  1  0  0  0  0
 30 23  1  0  0  0  0
 31 30  2  0  0  0  0
 32 34  1  0  0  0  0
 33 35  1  0  0  0  0
 33 34  2  0  0  0  0
 34 31  1  0  0  0  0
 35 29  2  0  0  0  0
 37 36  1  0  0  0  0
M  END
>  <MODEL>
9

>  <REMARK>
 VINA RESULT:      -8.0      2.106      3.584
  Name = 
  2 active torsions:
  status: ('A' for Active; 'I' for Inactive)
    1  A    between atoms: C_4  and  O_37
    2  A    between atoms: C_23  and  C_30
                            x       y       z     vdW  Elec       q    Type
                         _______ _______ _______ _____ _____    ______ ____

>  <TORSDO>
F 2

$$$$
