=
 OpenBabel11122411283D

 37 42  0  0  1  0  0  0  0  0999 V2000
  179.8620  179.0900  143.0010 C   0  0  0  0  0  0  0  0  0  0  0  0
  182.1930  177.3310  140.0100 C   0  0  0  0  0  0  0  0  0  0  0  0
  183.9360  179.3420  138.6550 C   0  0  0  0  0  1  0  0  0  0  0  0
  179.9950  177.9620  140.7130 C   0  0  0  0  0  0  0  0  0  0  0  0
  183.6080  177.5550  140.4400 C   0  0  1  0  0  3  0  0  0  0  0  0
  181.3580  177.8730  140.9290 C   0  0  0  0  0  0  0  0  0  0  0  0
  184.4970  178.0780  139.3050 C   0  0  1  0  0  3  0  0  0  0  0  0
  179.4900  177.4630  139.5460 N   0  0  0  0  0  0  0  0  0  0  0  0
  182.0340  178.5290  141.9710 N   0  0  0  0  0  0  0  0  0  0  0  0
  179.7900  177.8800  143.9150 C   0  0  0  0  0  1  0  0  0  0  0  0
  182.6180  176.4800  137.6710 C   0  0  0  0  0  2  0  0  0  0  0  0
  180.3070  176.9100  138.5930 C   0  0  0  0  0  3  0  0  0  0  0  0
  181.3370  179.5050  142.8040 C   0  0  0  0  0  2  0  0  0  0  0  0
  181.6980  176.8370  138.8000 C   0  0  0  0  0  0  0  0  0  0  0  0
  183.4610  178.5370  141.6400 C   0  0  1  0  0  3  0  0  0  0  0  0
  179.1520  178.7700  141.6620 C   0  0  0  0  0  2  0  0  0  0  0  0
  184.7910  176.9500  138.2860 C   0  0  1  0  0  3  0  0  0  0  0  0
  179.1290  180.2330  143.6710 C   0  0  0  0  0  1  0  0  0  0  0  0
  183.8200  175.9260  138.1470 O   0  0  0  0  0  0  0  0  0  0  0  0
  185.6900  178.7850  142.8410 C   0  0  0  0  0  2  0  0  0  0  0  0
  186.5940  178.1760  143.8710 C   0  0  0  0  0  0  0  0  0  0  0  0
  185.2980  179.0080  145.7930 C   0  0  0  0  0  0  0  0  0  0  0  0
  186.3920  178.3350  145.1480 N   0  0  0  0  0  0  0  0  0  0  0  0
  184.0430  179.4170  145.0800 C   0  0  1  0  0  3  0  0  0  0  0  0
  184.2010  180.6280  144.4300 F   0  0  0  0  0  0  0  0  0  0  0  0
  183.5160  178.3200  144.1510 C   0  0  0  0  0  2  0  0  0  0  0  0
  185.3830  179.2540  147.0240 O   0  0  0  0  0  0  0  0  0  0  0  0
  184.3080  178.1270  142.8480 C   0  0  1  0  0  3  0  0  0  0  0  0
  188.0660  177.2070  142.0540 C   0  0  0  0  0  1  0  0  0  0  0  0
  187.7400  177.4320  143.4530 N   0  0  0  0  0  2  0  0  0  0  0  0
  184.8990  177.1860  135.7690 C   0  0  0  0  0  3  0  0  0  0  0  0
  185.5110  177.3240  137.0230 C   0  0  0  0  0  0  0  0  0  0  0  0
  186.8090  177.8410  137.1050 C   0  0  0  0  0  3  0  0  0  0  0  0
  188.7510  178.7070  136.0280 F   0  0  0  0  0  0  0  0  0  0  0  0
  186.8810  178.0660  134.6950 C   0  0  0  0  0  3  0  0  0  0  0  0
  187.4940  178.2090  135.9430 C   0  0  0  0  0  0  0  0  0  0  0  0
  185.5830  177.5550  134.6080 C   0  0  0  0  0  3  0  0  0  0  0  0
  1 18  1  0  0  0  0
  1 10  1  0  0  0  0
  2  6  1  0  0  0  0
  4  6  2  0  0  0  0
  4 16  1  0  0  0  0
  5  2  1  6  0  0  0
  5 15  1  0  0  0  0
  6  9  1  0  0  0  0
  7  3  1  6  0  0  0
  7  5  1  0  0  0  0
  8  4  1  0  0  0  0
  9 13  1  0  0  0  0
 11 19  1  0  0  0  0
 11 14  1  0  0  0  0
 12 14  1  0  0  0  0
 12  8  2  0  0  0  0
 13  1  1  0  0  0  0
 14  2  2  0  0  0  0
 15  9  1  1  0  0  0
 15 28  1  0  0  0  0
 16  1  1  0  0  0  0
 17 32  1  6  0  0  0
 17  7  1  0  0  0  0
 19 17  1  0  0  0  0
 20 21  1  0  0  0  0
 21 23  2  0  0  0  0
 22 27  2  0  0  0  0
 23 22  1  0  0  0  0
 24 25  1  6  0  0  0
 24 22  1  0  0  0  0
 26 24  1  0  0  0  0
 28 20  1  1  0  0  0
 28 26  1  0  0  0  0
 29 30  1  0  0  0  0
 30 21  1  0  0  0  0
 31 32  1  0  0  0  0
 32 33  2  0  0  0  0
 35 36  2  0  0  0  0
 36 34  1  0  0  0  0
 36 33  1  0  0  0  0
 37 35  1  0  0  0  0
 37 31  2  0  0  0  0
M  END
>  <MODEL>
1

>  <REMARK>
 VINA RESULT:      -8.0      0.000      0.000
  Name = 
  2 active torsions:
  status: ('A' for Active; 'I' for Inactive)
    1  A    between atoms: C_21  and  C_27
    2  A    between atoms: C_23  and  C_30
                            x       y       z     vdW  Elec       q    Type
                         _______ _______ _______ _____ _____    ______ ____

>  <TORSDO>
F 2

$$$$
=
 OpenBabel11122411283D

 37 42  0  0  1  0  0  0  0  0999 V2000
  184.5190  176.4360  136.2240 C   0  0  0  0  0  0  0  0  0  0  0  0
  188.3800  174.9740  136.8820 C   0  0  0  0  0  0  0  0  0  0  0  0
  190.4090  176.4880  135.2980 C   0  0  0  0  0  1  0  0  0  0  0  0
  186.2230  174.5540  135.9360 C   0  0  0  0  0  0  0  0  0  0  0  0
  189.1340  176.1230  137.4720 C   0  0  1  0  0  3  0  0  0  0  0  0
  187.1050  175.3590  136.6330 C   0  0  0  0  0  0  0  0  0  0  0  0
  190.5030  176.3340  136.8160 C   0  0  1  0  0  3  0  0  0  0  0  0
  186.6580  173.3300  135.5130 N   0  0  0  0  0  0  0  0  0  0  0  0
  186.8670  176.7100  136.9350 N   0  0  0  0  0  0  0  0  0  0  0  0
  183.9630  176.1120  137.5990 C   0  0  0  0  0  1  0  0  0  0  0  0
  190.3120  173.4020  136.4660 C   0  0  0  0  0  2  0  0  0  0  0  0
  187.9430  172.9090  135.7460 C   0  0  0  0  0  3  0  0  0  0  0  0
  185.7160  177.4020  136.3640 C   0  0  0  0  0  2  0  0  0  0  0  0
  188.8500  173.7350  136.4370 C   0  0  0  0  0  0  0  0  0  0  0  0
  188.1510  177.3180  137.2970 C   0  0  1  0  0  3  0  0  0  0  0  0
  184.9000  175.1220  135.4970 C   0  0  0  0  0  2  0  0  0  0  0  0
  191.4890  175.2230  137.2530 C   0  0  1  0  0  3  0  0  0  0  0  0
  183.4350  177.1280  135.4260 C   0  0  0  0  0  1  0  0  0  0  0  0
  190.9410  173.9610  137.5940 O   0  0  0  0  0  0  0  0  0  0  0  0
  186.8830  177.6910  139.4690 C   0  0  0  0  0  2  0  0  0  0  0  0
  186.5960  178.6820  140.5590 C   0  0  0  0  0  0  0  0  0  0  0  0
  188.7520  178.3520  141.7020 C   0  0  0  0  0  0  0  0  0  0  0  0
  187.4360  178.9050  141.5280 N   0  0  0  0  0  0  0  0  0  0  0  0
  189.4880  177.6120  140.6250 C   0  0  1  0  0  3  0  0  0  0  0  0
  189.1050  176.2830  140.5720 F   0  0  0  0  0  0  0  0  0  0  0  0
  189.3800  178.3050  139.2640 C   0  0  0  0  0  2  0  0  0  0  0  0
  189.3300  178.5100  142.8090 O   0  0  0  0  0  0  0  0  0  0  0  0
  188.0190  178.1680  138.5630 C   0  0  1  0  0  3  0  0  0  0  0  0
  184.3330  179.1920  139.5450 C   0  0  0  0  0  1  0  0  0  0  0  0
  185.3480  179.3780  140.5700 N   0  0  0  0  0  2  0  0  0  0  0  0
  193.4260  173.9580  136.2270 C   0  0  0  0  0  3  0  0  0  0  0  0
  192.8290  175.1770  136.5780 C   0  0  0  0  0  0  0  0  0  0  0  0
  193.4820  176.3780  136.2760 C   0  0  0  0  0  3  0  0  0  0  0  0
  195.3530  177.5260  135.3460 F   0  0  0  0  0  0  0  0  0  0  0  0
  195.3170  175.1430  135.2900 C   0  0  0  0  0  3  0  0  0  0  0  0
  194.7240  176.3610  135.6350 C   0  0  0  0  0  0  0  0  0  0  0  0
  194.6670  173.9410  135.5860 C   0  0  0  0  0  3  0  0  0  0  0  0
  1 13  1  0  0  0  0
  1 10  1  0  0  0  0
  4  6  2  0  0  0  0
  5  2  1  6  0  0  0
  6  2  1  0  0  0  0
  6  9  1  0  0  0  0
  7  3  1  6  0  0  0
  7 17  1  0  0  0  0
  7  5  1  0  0  0  0
  8 12  2  0  0  0  0
  8  4  1  0  0  0  0
 11 19  1  0  0  0  0
 12 14  1  0  0  0  0
 13  9  1  0  0  0  0
 14 11  1  0  0  0  0
 14  2  2  0  0  0  0
 15  9  1  1  0  0  0
 15  5  1  0  0  0  0
 15 28  1  0  0  0  0
 16  4  1  0  0  0  0
 16  1  1  0  0  0  0
 17 32  1  6  0  0  0
 17 19  1  0  0  0  0
 18  1  1  0  0  0  0
 20 21  1  0  0  0  0
 21 30  1  0  0  0  0
 21 23  2  0  0  0  0
 22 27  2  0  0  0  0
 23 22  1  0  0  0  0
 24 25  1  6  0  0  0
 24 22  1  0  0  0  0
 26 24  1  0  0  0  0
 28 26  1  1  0  0  0
 28 20  1  0  0  0  0
 29 30  1  0  0  0  0
 31 32  1  0  0  0  0
 33 32  2  0  0  0  0
 34 36  1  0  0  0  0
 35 37  1  0  0  0  0
 35 36  2  0  0  0  0
 36 33  1  0  0  0  0
 37 31  2  0  0  0  0
M  END
>  <MODEL>
2

>  <REMARK>
 VINA RESULT:      -7.4      4.776      7.403
  Name = 
  2 active torsions:
  status: ('A' for Active; 'I' for Inactive)
    1  A    between atoms: C_21  and  C_27
    2  A    between atoms: C_23  and  C_30
                            x       y       z     vdW  Elec       q    Type
                         _______ _______ _______ _____ _____    ______ ____

>  <TORSDO>
F 2

$$$$
=
 OpenBabel11122411283D

 37 42  0  0  1  0  0  0  0  0999 V2000
  188.2360  177.5960  137.0990 C   0  0  0  0  0  0  0  0  0  0  0  0
  184.9880  178.0000  139.7000 C   0  0  0  0  0  0  0  0  0  0  0  0
  183.0590  180.0640  138.7300 C   0  0  0  0  0  1  0  0  0  0  0  0
  187.3340  178.3360  139.3730 C   0  0  0  0  0  0  0  0  0  0  0  0
  183.7900  177.6290  138.8830 C   0  0  1  0  0  3  0  0  0  0  0  0
  186.0990  177.8970  138.9310 C   0  0  0  0  0  0  0  0  0  0  0  0
  182.6370  178.6270  139.0360 C   0  0  1  0  0  3  0  0  0  0  0  0
  187.4240  178.8630  140.6290 N   0  0  0  0  0  0  0  0  0  0  0  0
  185.8200  177.5380  137.6020 N   0  0  0  0  0  0  0  0  0  0  0  0
  188.4990  176.1240  137.3600 C   0  0  0  0  0  1  0  0  0  0  0  0
  183.8120  178.9230  141.7350 C   0  0  0  0  0  2  0  0  0  0  0  0
  186.3180  178.9850  141.4330 C   0  0  0  0  0  3  0  0  0  0  0  0
  186.8040  177.7790  136.5500 C   0  0  0  0  0  2  0  0  0  0  0  0
  185.0550  178.5580  140.9790 C   0  0  0  0  0  0  0  0  0  0  0  0
  184.3640  177.5310  137.4390 C   0  0  1  0  0  3  0  0  0  0  0  0
  188.4810  178.4030  138.3990 C   0  0  0  0  0  2  0  0  0  0  0  0
  181.9680  178.4720  140.4240 C   0  0  1  0  0  3  0  0  0  0  0  0
  189.2160  178.0740  136.0480 C   0  0  0  0  0  1  0  0  0  0  0  0
  182.7770  178.0020  141.4890 O   0  0  0  0  0  0  0  0  0  0  0  0
  183.8000  175.0580  137.6250 C   0  0  0  0  0  2  0  0  0  0  0  0
  183.6060  173.7900  136.8470 C   0  0  0  0  0  0  0  0  0  0  0  0
  181.3590  174.3930  136.0380 C   0  0  0  0  0  0  0  0  0  0  0  0
  182.5040  173.5390  136.2000 N   0  0  0  0  0  0  0  0  0  0  0  0
  181.3630  175.8540  136.3780 C   0  0  1  0  0  3  0  0  0  0  0  0
  181.1310  176.0590  137.7270 F   0  0  0  0  0  0  0  0  0  0  0  0
  182.6270  176.5640  135.8890 C   0  0  0  0  0  2  0  0  0  0  0  0
  180.3010  173.9000  135.5680 O   0  0  0  0  0  0  0  0  0  0  0  0
  183.9000  176.2730  136.7000 C   0  0  1  0  0  3  0  0  0  0  0  0
  185.8980  172.9730  137.5450 C   0  0  0  0  0  1  0  0  0  0  0  0
  184.6360  172.8000  136.8440 N   0  0  0  0  0  2  0  0  0  0  0  0
  180.4070  180.3870  139.8740 C   0  0  0  0  0  3  0  0  0  0  0  0
  180.9260  179.4810  140.8100 C   0  0  0  0  0  0  0  0  0  0  0  0
  180.4510  179.5010  142.1260 C   0  0  0  0  0  3  0  0  0  0  0  0
  179.0150  180.4370  143.7830 F   0  0  0  0  0  0  0  0  0  0  0  0
  178.9590  181.3250  141.5710 C   0  0  0  0  0  3  0  0  0  0  0  0
  179.4700  180.4220  142.5070 C   0  0  0  0  0  0  0  0  0  0  0  0
  179.4270  181.3070  140.2540 C   0  0  0  0  0  3  0  0  0  0  0  0
  1 10  1  0  0  0  0
  1 16  1  0  0  0  0
  2 14  1  0  0  0  0
  4  8  2  0  0  0  0
  5  7  1  0  0  0  0
  5  2  1  1  0  0  0
  6  4  1  0  0  0  0
  6  2  2  0  0  0  0
  7  3  1  1  0  0  0
  7 17  1  0  0  0  0
  8 12  1  0  0  0  0
  9  6  1  0  0  0  0
 13  1  1  0  0  0  0
 13  9  1  0  0  0  0
 14 12  2  0  0  0  0
 14 11  1  0  0  0  0
 15  9  1  1  0  0  0
 15  5  1  0  0  0  0
 16  4  1  0  0  0  0
 17 32  1  1  0  0  0
 17 19  1  0  0  0  0
 18  1  1  0  0  0  0
 19 11  1  0  0  0  0
 21 20  1  0  0  0  0
 22 23  1  0  0  0  0
 22 24  1  0  0  0  0
 23 21  2  0  0  0  0
 24 25  1  1  0  0  0
 26 24  1  0  0  0  0
 27 22  2  0  0  0  0
 28 26  1  1  0  0  0
 28 15  1  0  0  0  0
 28 20  1  0  0  0  0
 30 21  1  0  0  0  0
 30 29  1  0  0  0  0
 31 37  2  0  0  0  0
 31 32  1  0  0  0  0
 32 33  2  0  0  0  0
 33 36  1  0  0  0  0
 35 36  2  0  0  0  0
 36 34  1  0  0  0  0
 37 35  1  0  0  0  0
M  END
>  <MODEL>
3

>  <REMARK>
 VINA RESULT:      -7.3      3.215      8.212
  Name = 
  2 active torsions:
  status: ('A' for Active; 'I' for Inactive)
    1  A    between atoms: C_21  and  C_27
    2  A    between atoms: C_23  and  C_30
                            x       y       z     vdW  Elec       q    Type
                         _______ _______ _______ _____ _____    ______ ____

>  <TORSDO>
F 2

$$$$
=
 OpenBabel11122411283D

 37 42  0  0  1  0  0  0  0  0999 V2000
  186.4810  177.3520  137.1940 C   0  0  0  0  0  0  0  0  0  0  0  0
  188.3260  178.3230  140.8170 C   0  0  0  0  0  0  0  0  0  0  0  0
  188.9970  175.8780  142.3950 C   0  0  0  0  0  1  0  0  0  0  0  0
  186.3110  178.3770  139.5280 C   0  0  0  0  0  0  0  0  0  0  0  0
  189.6810  177.6920  140.7430 C   0  0  1  0  0  3  0  0  0  0  0  0
  187.6490  178.0590  139.6730 C   0  0  0  0  0  0  0  0  0  0  0  0
  190.0470  176.9230  142.0180 C   0  0  1  0  0  3  0  0  0  0  0  0
  185.6760  178.9970  140.5660 N   0  0  0  0  0  0  0  0  0  0  0  0
  188.3640  177.2380  138.7860 N   0  0  0  0  0  0  0  0  0  0  0  0
  187.0030  178.5350  136.3980 C   0  0  0  0  0  1  0  0  0  0  0  0
  188.3330  178.9970  143.2510 C   0  0  0  0  0  2  0  0  0  0  0  0
  186.3300  179.2770  141.7390 C   0  0  0  0  0  3  0  0  0  0  0  0
  187.6680  176.5180  137.7240 C   0  0  0  0  0  2  0  0  0  0  0  0
  187.6880  178.9350  141.8990 C   0  0  0  0  0  0  0  0  0  0  0  0
  189.5870  176.8050  139.4660 C   0  0  1  0  0  3  0  0  0  0  0  0
  185.5590  177.8610  138.3310 C   0  0  0  0  0  2  0  0  0  0  0  0
  190.3660  177.9070  143.1700 C   0  0  1  0  0  3  0  0  0  0  0  0
  185.6600  176.4820  136.2650 C   0  0  0  0  0  1  0  0  0  0  0  0
  189.7250  179.1720  143.1430 O   0  0  0  0  0  0  0  0  0  0  0  0
  191.8300  175.8340  138.7630 C   0  0  0  0  0  2  0  0  0  0  0  0
  193.1230  176.1350  138.0630 C   0  0  0  0  0  0  0  0  0  0  0  0
  192.1700  175.9590  135.7980 C   0  0  0  0  0  0  0  0  0  0  0  0
  193.2200  176.1420  136.7640 N   0  0  0  0  0  0  0  0  0  0  0  0
  190.7120  175.9950  136.1450 C   0  0  1  0  0  3  0  0  0  0  0  0
  190.2750  174.7710  136.6210 F   0  0  0  0  0  0  0  0  0  0  0  0
  190.3650  177.1460  137.0930 C   0  0  0  0  0  2  0  0  0  0  0  0
  192.4850  175.7780  134.5940 O   0  0  0  0  0  0  0  0  0  0  0  0
  190.8070  176.9520  138.5520 C   0  0  1  0  0  3  0  0  0  0  0  0
  194.3080  176.3780  140.2860 C   0  0  0  0  0  1  0  0  0  0  0  0
  194.3020  176.3780  138.8320 N   0  0  0  0  0  2  0  0  0  0  0  0
  191.6800  176.5010  144.8120 C   0  0  0  0  0  3  0  0  0  0  0  0
  190.5830  177.3290  144.5380 C   0  0  0  0  0  0  0  0  0  0  0  0
  189.6820  177.6430  145.5620 C   0  0  0  0  0  3  0  0  0  0  0  0
  188.9940  177.4340  147.8340 F   0  0  0  0  0  0  0  0  0  0  0  0
  190.9640  176.3000  147.1160 C   0  0  0  0  0  3  0  0  0  0  0  0
  189.8710  177.1280  146.8480 C   0  0  0  0  0  0  0  0  0  0  0  0
  191.8700  175.9860  146.0980 C   0  0  0  0  0  3  0  0  0  0  0  0
  1 13  1  0  0  0  0
  1 16  1  0  0  0  0
  2 14  1  0  0  0  0
  4  6  1  0  0  0  0
  4  8  2  0  0  0  0
  5  2  1  1  0  0  0
  5  7  1  0  0  0  0
  6  2  2  0  0  0  0
  7  3  1  1  0  0  0
  7 17  1  0  0  0  0
  8 12  1  0  0  0  0
  9  6  1  0  0  0  0
 10  1  1  0  0  0  0
 12 14  2  0  0  0  0
 13  9  1  0  0  0  0
 14 11  1  0  0  0  0
 15  9  1  6  0  0  0
 15  5  1  0  0  0  0
 16  4  1  0  0  0  0
 17 32  1  1  0  0  0
 18  1  1  0  0  0  0
 19 17  1  0  0  0  0
 19 11  1  0  0  0  0
 21 20  1  0  0  0  0
 21 30  1  0  0  0  0
 22 24  1  0  0  0  0
 22 23  1  0  0  0  0
 23 21  2  0  0  0  0
 24 25  1  1  0  0  0
 24 26  1  0  0  0  0
 27 22  2  0  0  0  0
 28 26  1  6  0  0  0
 28 20  1  0  0  0  0
 28 15  1  0  0  0  0
 30 29  1  0  0  0  0
 31 37  1  0  0  0  0
 32 31  2  0  0  0  0
 32 33  1  0  0  0  0
 33 36  2  0  0  0  0
 36 35  1  0  0  0  0
 36 34  1  0  0  0  0
 37 35  2  0  0  0  0
M  END
>  <MODEL>
4

>  <REMARK>
 VINA RESULT:      -7.1      4.455      9.294
  Name = 
  2 active torsions:
  status: ('A' for Active; 'I' for Inactive)
    1  A    between atoms: C_21  and  C_27
    2  A    between atoms: C_23  and  C_30
                            x       y       z     vdW  Elec       q    Type
                         _______ _______ _______ _____ _____    ______ ____

>  <TORSDO>
F 2

$$$$
=
 OpenBabel11122411283D

 37 42  0  0  1  0  0  0  0  0999 V2000
  181.9310  179.8220  138.7360 C   0  0  0  0  0  0  0  0  0  0  0  0
  185.0810  177.1870  137.9510 C   0  0  0  0  0  0  0  0  0  0  0  0
  187.4880  178.6310  136.9320 C   0  0  0  0  0  1  0  0  0  0  0  0
  182.9010  177.9360  137.3110 C   0  0  0  0  0  0  0  0  0  0  0  0
  186.1820  177.6160  138.8690 C   0  0  1  0  0  3  0  0  0  0  0  0
  184.0080  177.9930  138.1380 C   0  0  0  0  0  0  0  0  0  0  0  0
  187.5370  177.7210  138.1590 C   0  0  1  0  0  3  0  0  0  0  0  0
  182.8950  177.0200  136.2970 N   0  0  0  0  0  0  0  0  0  0  0  0
  184.2400  179.0160  139.0710 N   0  0  0  0  0  0  0  0  0  0  0  0
  181.3090  179.0320  139.8730 C   0  0  0  0  0  1  0  0  0  0  0  0
  186.3680  175.5520  136.5210 C   0  0  0  0  0  2  0  0  0  0  0  0
  183.9650  176.1900  136.0790 C   0  0  0  0  0  3  0  0  0  0  0  0
  183.3850  180.1990  139.0990 C   0  0  0  0  0  2  0  0  0  0  0  0
  185.1030  176.2600  136.9060 C   0  0  0  0  0  0  0  0  0  0  0  0
  185.6560  178.9640  139.4450 C   0  0  1  0  0  3  0  0  0  0  0  0
  181.8420  179.0000  137.4260 C   0  0  0  0  0  2  0  0  0  0  0  0
  188.0960  176.3110  137.8490 C   0  0  1  0  0  3  0  0  0  0  0  0
  181.1370  181.0980  138.5560 C   0  0  0  0  0  1  0  0  0  0  0  0
  187.1570  175.2670  137.6500 O   0  0  0  0  0  0  0  0  0  0  0  0
  185.0530  177.9810  141.7120 C   0  0  0  0  0  2  0  0  0  0  0  0
  185.0140  178.2530  143.1870 C   0  0  0  0  0  0  0  0  0  0  0  0
  187.4310  177.9120  143.5180 C   0  0  0  0  0  0  0  0  0  0  0  0
  186.0790  178.1740  143.9320 N   0  0  0  0  0  0  0  0  0  0  0  0
  187.8790  177.9490  142.0870 C   0  0  1  0  0  3  0  0  0  0  0  0
  187.6140  176.7530  141.4430 F   0  0  0  0  0  0  0  0  0  0  0  0
  187.3180  179.1560  141.3310 C   0  0  0  0  0  2  0  0  0  0  0  0
  188.2920  177.6550  144.3990 O   0  0  0  0  0  0  0  0  0  0  0  0
  185.8280  179.0670  140.9630 C   0  0  1  0  0  3  0  0  0  0  0  0
  182.5180  178.6620  143.0790 C   0  0  0  0  0  1  0  0  0  0  0  0
  183.7680  178.5650  143.8140 N   0  0  0  0  0  2  0  0  0  0  0  0
  189.2680  175.9520  135.6350 C   0  0  0  0  0  3  0  0  0  0  0  0
  189.3370  176.2240  137.0090 C   0  0  0  0  0  0  0  0  0  0  0  0
  190.5820  176.4390  137.6090 C   0  0  0  0  0  3  0  0  0  0  0  0
  192.9550  176.5840  137.4300 F   0  0  0  0  0  0  0  0  0  0  0  0
  191.6780  176.1020  135.4760 C   0  0  0  0  0  3  0  0  0  0  0  0
  191.7520  176.3770  136.8440 C   0  0  0  0  0  0  0  0  0  0  0  0
  190.4360  175.8910  134.8710 C   0  0  0  0  0  3  0  0  0  0  0  0
  1 13  1  0  0  0  0
  1 10  1  0  0  0  0
  2  6  1  0  0  0  0
  4 16  1  0  0  0  0
  4  6  2  0  0  0  0
  5  2  1  6  0  0  0
  5 15  1  0  0  0  0
  6  9  1  0  0  0  0
  7  3  1  6  0  0  0
  7  5  1  0  0  0  0
  8  4  1  0  0  0  0
  9 13  1  0  0  0  0
 11 14  1  0  0  0  0
 11 19  1  0  0  0  0
 12  8  2  0  0  0  0
 12 14  1  0  0  0  0
 14  2  2  0  0  0  0
 15  9  1  1  0  0  0
 15 28  1  0  0  0  0
 16  1  1  0  0  0  0
 17 32  1  6  0  0  0
 17  7  1  0  0  0  0
 18  1  1  0  0  0  0
 19 17  1  0  0  0  0
 20 21  1  0  0  0  0
 21 30  1  0  0  0  0
 21 23  2  0  0  0  0
 22 23  1  0  0  0  0
 22 27  2  0  0  0  0
 24 25  1  6  0  0  0
 24 22  1  0  0  0  0
 26 24  1  0  0  0  0
 28 26  1  6  0  0  0
 28 20  1  0  0  0  0
 29 30  1  0  0  0  0
 31 32  1  0  0  0  0
 32 33  2  0  0  0  0
 35 36  2  0  0  0  0
 36 34  1  0  0  0  0
 36 33  1  0  0  0  0
 37 35  1  0  0  0  0
 37 31  2  0  0  0  0
M  END
>  <MODEL>
5

>  <REMARK>
 VINA RESULT:      -6.7      2.787      4.202
  Name = 
  2 active torsions:
  status: ('A' for Active; 'I' for Inactive)
    1  A    between atoms: C_21  and  C_27
    2  A    between atoms: C_23  and  C_30
                            x       y       z     vdW  Elec       q    Type
                         _______ _______ _______ _____ _____    ______ ____

>  <TORSDO>
F 2

$$$$
=
 OpenBabel11122411283D

 37 42  0  0  1  0  0  0  0  0999 V2000
  184.1100  178.7360  138.9160 C   0  0  0  0  0  0  0  0  0  0  0  0
  187.4250  176.3630  137.9910 C   0  0  0  0  0  0  0  0  0  0  0  0
  189.6260  177.9810  136.7830 C   0  0  0  0  0  1  0  0  0  0  0  0
  185.1510  176.9000  137.4760 C   0  0  0  0  0  0  0  0  0  0  0  0
  188.5390  176.9130  138.8240 C   0  0  1  0  0  3  0  0  0  0  0  0
  186.2980  177.0780  138.2280 C   0  0  0  0  0  0  0  0  0  0  0  0
  189.8320  177.1150  138.0260 C   0  0  1  0  0  3  0  0  0  0  0  0
  185.1630  175.9570  136.4870 N   0  0  0  0  0  0  0  0  0  0  0  0
  186.4970  178.1440  139.1190 N   0  0  0  0  0  0  0  0  0  0  0  0
  183.6330  177.9290  140.1100 C   0  0  0  0  0  1  0  0  0  0  0  0
  188.7610  174.8050  136.5190 C   0  0  0  0  0  2  0  0  0  0  0  0
  186.2870  175.2180  136.2190 C   0  0  0  0  0  3  0  0  0  0  0  0
  185.5440  179.2480  139.1750 C   0  0  0  0  0  2  0  0  0  0  0  0
  187.4650  175.4110  136.9690 C   0  0  0  0  0  0  0  0  0  0  0  0
  187.9330  178.2260  139.4010 C   0  0  1  0  0  3  0  0  0  0  0  0
  184.0120  177.8700  137.6340 C   0  0  0  0  0  2  0  0  0  0  0  0
  190.4930  175.7510  137.7140 C   0  0  1  0  0  3  0  0  0  0  0  0
  183.1950  179.9320  138.7580 C   0  0  0  0  0  1  0  0  0  0  0  0
  189.6410  174.6230  137.6010 O   0  0  0  0  0  0  0  0  0  0  0  0
  187.4020  177.3810  141.7410 C   0  0  0  0  0  2  0  0  0  0  0  0
  187.4550  177.7200  143.2010 C   0  0  0  0  0  0  0  0  0  0  0  0
  189.8650  177.2670  143.4250 C   0  0  0  0  0  0  0  0  0  0  0  0
  188.5520  177.6190  143.8940 N   0  0  0  0  0  0  0  0  0  0  0  0
  190.2390  177.2160  141.9730 C   0  0  1  0  0  3  0  0  0  0  0  0
  189.8790  176.0080  141.4010 F   0  0  0  0  0  0  0  0  0  0  0  0
  189.7000  178.4160  141.1900 C   0  0  0  0  0  2  0  0  0  0  0  0
  190.7580  177.0060  144.2730 O   0  0  0  0  0  0  0  0  0  0  0  0
  188.1910  178.3890  140.9020 C   0  0  1  0  0  3  0  0  0  0  0  0
  184.9810  178.2560  143.1990 C   0  0  0  0  0  1  0  0  0  0  0  0
  186.2620  178.1260  143.8750 N   0  0  0  0  0  2  0  0  0  0  0  0
  191.5440  176.0030  135.4250 C   0  0  0  0  0  3  0  0  0  0  0  0
  191.6820  175.7470  136.7960 C   0  0  0  0  0  0  0  0  0  0  0  0
  192.9530  175.5040  137.3290 C   0  0  0  0  0  3  0  0  0  0  0  0
  195.3050  175.2710  137.0180 F   0  0  0  0  0  0  0  0  0  0  0  0
  193.9340  175.7610  135.1300 C   0  0  0  0  0  3  0  0  0  0  0  0
  194.0770  175.5090  136.4980 C   0  0  0  0  0  0  0  0  0  0  0  0
  192.6670  176.0090  134.5940 C   0  0  0  0  0  3  0  0  0  0  0  0
  1 13  1  0  0  0  0
  1 10  1  0  0  0  0
  2  6  1  0  0  0  0
  4 16  1  0  0  0  0
  4  6  2  0  0  0  0
  5  2  1  6  0  0  0
  5 15  1  0  0  0  0
  6  9  1  0  0  0  0
  7  3  1  6  0  0  0
  7  5  1  0  0  0  0
  8  4  1  0  0  0  0
  9 13  1  0  0  0  0
 11 14  1  0  0  0  0
 11 19  1  0  0  0  0
 12  8  2  0  0  0  0
 12 14  1  0  0  0  0
 14  2  2  0  0  0  0
 15  9  1  1  0  0  0
 15 28  1  0  0  0  0
 16  1  1  0  0  0  0
 17 32  1  6  0  0  0
 17  7  1  0  0  0  0
 18  1  1  0  0  0  0
 19 17  1  0  0  0  0
 20 21  1  0  0  0  0
 21 30  1  0  0  0  0
 21 23  2  0  0  0  0
 22 23  1  0  0  0  0
 22 27  2  0  0  0  0
 24 25  1  6  0  0  0
 24 22  1  0  0  0  0
 26 24  1  0  0  0  0
 28 26  1  6  0  0  0
 28 20  1  0  0  0  0
 29 30  1  0  0  0  0
 31 32  1  0  0  0  0
 32 33  2  0  0  0  0
 35 36  2  0  0  0  0
 36 34  1  0  0  0  0
 36 33  1  0  0  0  0
 37 35  1  0  0  0  0
 37 31  2  0  0  0  0
M  END
>  <MODEL>
6

>  <REMARK>
 VINA RESULT:      -6.5      3.891      5.912
  Name = 
  2 active torsions:
  status: ('A' for Active; 'I' for Inactive)
    1  A    between atoms: C_21  and  C_27
    2  A    between atoms: C_23  and  C_30
                            x       y       z     vdW  Elec       q    Type
                         _______ _______ _______ _____ _____    ______ ____

>  <TORSDO>
F 2

$$$$
=
 OpenBabel11122411283D

 37 42  0  0  1  0  0  0  0  0999 V2000
  187.7880  178.1760  142.6710 C   0  0  0  0  0  0  0  0  0  0  0  0
  184.0420  178.2610  140.8180 C   0  0  0  0  0  0  0  0  0  0  0  0
  183.7270  180.6800  139.0940 C   0  0  0  0  0  1  0  0  0  0  0  0
  185.2540  178.4310  142.8740 C   0  0  0  0  0  0  0  0  0  0  0  0
  184.3340  178.2190  139.3520 C   0  0  1  0  0  3  0  0  0  0  0  0
  185.2090  178.2370  141.5050 C   0  0  0  0  0  0  0  0  0  0  0  0
  183.5370  179.2610  138.5580 C   0  0  1  0  0  3  0  0  0  0  0  0
  184.0780  178.6280  143.5400 N   0  0  0  0  0  0  0  0  0  0  0  0
  186.3400  178.2390  140.6730 N   0  0  0  0  0  0  0  0  0  0  0  0
  187.9310  176.6660  142.7290 C   0  0  0  0  0  1  0  0  0  0  0  0
  181.5720  178.7780  140.7170 C   0  0  0  0  0  2  0  0  0  0  0  0
  182.8780  178.6610  142.8750 C   0  0  0  0  0  3  0  0  0  0  0  0
  187.6450  178.6280  141.2000 C   0  0  0  0  0  2  0  0  0  0  0  0
  182.8300  178.4850  141.4780 C   0  0  0  0  0  0  0  0  0  0  0  0
  185.8780  178.4170  139.2940 C   0  0  1  0  0  3  0  0  0  0  0  0
  186.5880  178.6170  143.5460 C   0  0  0  0  0  2  0  0  0  0  0  0
  182.0490  178.8430  138.4610 C   0  0  1  0  0  3  0  0  0  0  0  0
  189.0490  178.7930  143.2400 C   0  0  0  0  0  1  0  0  0  0  0  0
  181.5230  178.0510  139.5130 O   0  0  0  0  0  0  0  0  0  0  0  0
  185.6850  177.0460  137.1600 C   0  0  0  0  0  2  0  0  0  0  0  0
  186.2590  175.8870  136.3990 C   0  0  0  0  0  0  0  0  0  0  0  0
  188.2280  177.1300  135.5970 C   0  0  0  0  0  0  0  0  0  0  0  0
  187.3560  175.9920  135.7060 N   0  0  0  0  0  0  0  0  0  0  0  0
  188.1460  178.3240  136.5020 C   0  0  1  0  0  3  0  0  0  0  0  0
  187.1800  179.2180  136.0740 F   0  0  0  0  0  0  0  0  0  0  0  0
  187.9680  177.9320  137.9710 C   0  0  0  0  0  2  0  0  0  0  0  0
  189.1210  177.1230  134.7100 O   0  0  0  0  0  0  0  0  0  0  0  0
  186.5670  177.4270  138.3510 C   0  0  1  0  0  3  0  0  0  0  0  0
  184.3280  174.4160  137.1180 C   0  0  0  0  0  1  0  0  0  0  0  0
  185.5680  174.6360  136.3910 N   0  0  0  0  0  2  0  0  0  0  0  0
  180.1160  180.4670  138.6440 C   0  0  0  0  0  3  0  0  0  0  0  0
  181.0880  179.8280  137.8600 C   0  0  0  0  0  0  0  0  0  0  0  0
  181.1810  180.1260  136.4960 C   0  0  0  0  0  3  0  0  0  0  0  0
  180.4000  181.3340  134.5960 F   0  0  0  0  0  0  0  0  0  0  0  0
  179.3370  181.6820  136.7010 C   0  0  0  0  0  3  0  0  0  0  0  0
  180.3060  181.0500  135.9170 C   0  0  0  0  0  0  0  0  0  0  0  0
  179.2420  181.3900  138.0650 C   0  0  0  0  0  3  0  0  0  0  0  0
  1 10  1  0  0  0  0
  1 18  1  0  0  0  0
  1 16  1  0  0  0  0
  2 14  2  0  0  0  0
  2  6  1  0  0  0  0
  4  8  1  0  0  0  0
  4 16  1  0  0  0  0
  5  2  1  1  0  0  0
  6  4  2  0  0  0  0
  7  3  1  1  0  0  0
  7  5  1  0  0  0  0
  9 13  1  0  0  0  0
  9  6  1  0  0  0  0
 11 14  1  0  0  0  0
 12  8  2  0  0  0  0
 13  1  1  0  0  0  0
 14 12  1  0  0  0  0
 15  5  1  0  0  0  0
 15  9  1  1  0  0  0
 17 32  1  1  0  0  0
 17  7  1  0  0  0  0
 17 19  1  0  0  0  0
 19 11  1  0  0  0  0
 21 20  1  0  0  0  0
 22 23  1  0  0  0  0
 22 24  1  0  0  0  0
 23 21  2  0  0  0  0
 24 25  1  6  0  0  0
 24 26  1  0  0  0  0
 26 28  1  0  0  0  0
 27 22  2  0  0  0  0
 28 20  1  6  0  0  0
 28 15  1  0  0  0  0
 30 21  1  0  0  0  0
 30 29  1  0  0  0  0
 32 31  2  0  0  0  0
 33 32  1  0  0  0  0
 34 36  1  0  0  0  0
 35 37  2  0  0  0  0
 36 33  2  0  0  0  0
 36 35  1  0  0  0  0
 37 31  1  0  0  0  0
M  END
>  <MODEL>
7

>  <REMARK>
 VINA RESULT:      -6.0      3.342      6.919
  Name = 
  2 active torsions:
  status: ('A' for Active; 'I' for Inactive)
    1  A    between atoms: C_21  and  C_27
    2  A    between atoms: C_23  and  C_30
                            x       y       z     vdW  Elec       q    Type
                         _______ _______ _______ _____ _____    ______ ____

>  <TORSDO>
F 2

$$$$
=
 OpenBabel11122411283D

 37 42  0  0  1  0  0  0  0  0999 V2000
  184.9730  173.4280  135.9900 C   0  0  0  0  0  0  0  0  0  0  0  0
  182.5600  176.6250  137.1880 C   0  0  0  0  0  0  0  0  0  0  0  0
  182.5790  176.9600  140.1560 C   0  0  0  0  0  1  0  0  0  0  0  0
  182.6350  174.4250  136.2510 C   0  0  0  0  0  0  0  0  0  0  0  0
  183.4920  177.5820  137.8600 C   0  0  1  0  0  3  0  0  0  0  0  0
  183.2610  175.5460  136.7620 C   0  0  0  0  0  0  0  0  0  0  0  0
  182.9510  178.0940  139.2000 C   0  0  1  0  0  3  0  0  0  0  0  0
  181.2720  174.4290  136.1570 N   0  0  0  0  0  0  0  0  0  0  0  0
  184.6200  175.5970  137.1130 N   0  0  0  0  0  0  0  0  0  0  0  0
  185.3800  173.9980  134.6440 C   0  0  0  0  0  1  0  0  0  0  0  0
  180.3630  177.6960  137.8220 C   0  0  0  0  0  2  0  0  0  0  0  0
  180.5310  175.5030  136.5810 C   0  0  0  0  0  3  0  0  0  0  0  0
  185.4280  174.3810  137.1170 C   0  0  0  0  0  2  0  0  0  0  0  0
  181.1640  176.6390  137.1220 C   0  0  0  0  0  0  0  0  0  0  0  0
  184.8140  176.7670  137.9750 C   0  0  1  0  0  3  0  0  0  0  0  0
  183.4430  173.1790  136.0060 C   0  0  0  0  0  2  0  0  0  0  0  0
  181.7940  179.0960  138.9690 C   0  0  1  0  0  3  0  0  0  0  0  0
  185.6760  172.0990  136.1740 C   0  0  0  0  0  1  0  0  0  0  0  0
  181.0210  178.9390  137.7900 O   0  0  0  0  0  0  0  0  0  0  0  0
  187.3250  177.0800  138.2250 C   0  0  0  0  0  2  0  0  0  0  0  0
  188.4630  178.0330  138.0040 C   0  0  0  0  0  0  0  0  0  0  0  0
  188.6080  177.6130  135.5810 C   0  0  0  0  0  0  0  0  0  0  0  0
  189.0060  178.2000  136.8320 N   0  0  0  0  0  0  0  0  0  0  0  0
  187.3030  176.9010  135.3800 C   0  0  1  0  0  3  0  0  0  0  0  0
  187.3750  175.5840  135.7970 F   0  0  0  0  0  0  0  0  0  0  0  0
  186.1260  177.6490  136.0120 C   0  0  0  0  0  2  0  0  0  0  0  0
  189.3820  177.7140  134.5940 O   0  0  0  0  0  0  0  0  0  0  0  0
  186.0450  177.5690  137.5450 C   0  0  1  0  0  3  0  0  0  0  0  0
  188.4850  178.6300  140.4630 C   0  0  0  0  0  1  0  0  0  0  0  0
  189.0060  178.7530  139.1120 N   0  0  0  0  0  2  0  0  0  0  0  0
  180.0780  180.5930  140.0730 C   0  0  0  0  0  3  0  0  0  0  0  0
  181.0340  179.5730  140.1730 C   0  0  0  0  0  0  0  0  0  0  0  0
  181.2740  178.9690  141.4120 C   0  0  0  0  0  3  0  0  0  0  0  0
  180.8060  178.8000  143.7430 F   0  0  0  0  0  0  0  0  0  0  0  0
  179.6190  180.4060  142.4420 C   0  0  0  0  0  3  0  0  0  0  0  0
  180.5690  179.3860  142.5460 C   0  0  0  0  0  0  0  0  0  0  0  0
  179.3730  181.0090  141.2050 C   0  0  0  0  0  3  0  0  0  0  0  0
  1 16  1  0  0  0  0
  1 18  1  0  0  0  0
  1 13  1  0  0  0  0
  4  6  1  0  0  0  0
  5  2  1  1  0  0  0
  5 15  1  0  0  0  0
  5  7  1  0  0  0  0
  6  9  1  0  0  0  0
  6  2  2  0  0  0  0
  7  3  1  1  0  0  0
  8  4  2  0  0  0  0
  8 12  1  0  0  0  0
  9 13  1  0  0  0  0
 10  1  1  0  0  0  0
 12 14  2  0  0  0  0
 14  2  1  0  0  0  0
 14 11  1  0  0  0  0
 15  9  1  6  0  0  0
 16  4  1  0  0  0  0
 17  7  1  0  0  0  0
 17 32  1  1  0  0  0
 19 11  1  0  0  0  0
 19 17  1  0  0  0  0
 21 20  1  0  0  0  0
 21 30  1  0  0  0  0
 22 23  1  0  0  0  0
 23 21  2  0  0  0  0
 24 22  1  0  0  0  0
 24 25  1  1  0  0  0
 24 26  1  0  0  0  0
 27 22  2  0  0  0  0
 28 26  1  6  0  0  0
 28 15  1  0  0  0  0
 28 20  1  0  0  0  0
 30 29  1  0  0  0  0
 31 32  2  0  0  0  0
 31 37  1  0  0  0  0
 32 33  1  0  0  0  0
 33 36  2  0  0  0  0
 35 36  1  0  0  0  0
 36 34  1  0  0  0  0
 37 35  2  0  0  0  0
M  END
>  <MODEL>
8

>  <REMARK>
 VINA RESULT:      -6.0      3.398      7.594
  Name = 
  2 active torsions:
  status: ('A' for Active; 'I' for Inactive)
    1  A    between atoms: C_21  and  C_27
    2  A    between atoms: C_23  and  C_30
                            x       y       z     vdW  Elec       q    Type
                         _______ _______ _______ _____ _____    ______ ____

>  <TORSDO>
F 2

$$$$
=
 OpenBabel11122411283D

 37 42  0  0  1  0  0  0  0  0999 V2000
  181.9250  177.9750  139.8980 C   0  0  0  0  0  0  0  0  0  0  0  0
  184.4990  178.8950  143.0610 C   0  0  0  0  0  0  0  0  0  0  0  0
  186.0560  176.5010  143.9380 C   0  0  0  0  0  1  0  0  0  0  0  0
  182.2300  178.6280  142.3500 C   0  0  0  0  0  0  0  0  0  0  0  0
  185.8720  178.6200  142.5350 C   0  0  1  0  0  3  0  0  0  0  0  0
  183.5900  178.6220  142.0940 C   0  0  0  0  0  0  0  0  0  0  0  0
  186.7290  177.8060  143.5120 C   0  0  1  0  0  3  0  0  0  0  0  0
  181.8090  178.9420  143.6100 N   0  0  0  0  0  0  0  0  0  0  0  0
  184.1670  178.1150  140.9200 N   0  0  0  0  0  0  0  0  0  0  0  0
  181.9570  179.3390  139.2320 C   0  0  0  0  0  1  0  0  0  0  0  0
  185.0680  179.2380  145.4980 C   0  0  0  0  0  2  0  0  0  0  0  0
  182.7020  179.2200  144.6140 C   0  0  0  0  0  3  0  0  0  0  0  0
  183.3530  177.3880  139.9500 C   0  0  0  0  0  2  0  0  0  0  0  0
  184.0880  179.1950  144.3630 C   0  0  0  0  0  0  0  0  0  0  0  0
  185.5940  177.9040  141.1800 C   0  0  1  0  0  3  0  0  0  0  0  0
  181.2840  178.1010  141.3040 C   0  0  0  0  0  2  0  0  0  0  0  0
  187.1640  178.6840  144.7100 C   0  0  1  0  0  3  0  0  0  0  0  0
  181.0600  177.0580  139.0590 C   0  0  0  0  0  1  0  0  0  0  0  0
  186.3090  179.7530  145.0810 O   0  0  0  0  0  0  0  0  0  0  0  0
  187.5240  177.4610  139.5840 C   0  0  0  0  0  2  0  0  0  0  0  0
  188.5120  178.1050  138.6570 C   0  0  0  0  0  0  0  0  0  0  0  0
  186.8890  178.4380  136.8350 C   0  0  0  0  0  0  0  0  0  0  0  0
  188.1860  178.4810  137.4540 N   0  0  0  0  0  0  0  0  0  0  0  0
  185.6190  178.1900  137.5930 C   0  0  1  0  0  3  0  0  0  0  0  0
  185.4010  176.8360  137.7850 F   0  0  0  0  0  0  0  0  0  0  0  0
  185.5550  178.9820  138.9010 C   0  0  0  0  0  2  0  0  0  0  0  0
  186.8060  178.6380  135.5950 O   0  0  0  0  0  0  0  0  0  0  0  0
  186.4490  178.4520  140.0340 C   0  0  1  0  0  3  0  0  0  0  0  0
  190.3400  177.8780  140.3940 C   0  0  0  0  0  1  0  0  0  0  0  0
  189.8670  178.2770  139.0780 N   0  0  0  0  0  2  0  0  0  0  0  0
  187.2580  177.8570  147.1000 C   0  0  0  0  0  3  0  0  0  0  0  0
  187.8710  178.0070  145.8480 C   0  0  0  0  0  0  0  0  0  0  0  0
  189.1590  177.4990  145.6450 C   0  0  0  0  0  3  0  0  0  0  0  0
  191.0800  176.3640  146.4840 F   0  0  0  0  0  0  0  0  0  0  0  0
  189.2190  176.7090  147.9330 C   0  0  0  0  0  3  0  0  0  0  0  0
  189.8330  176.8520  146.6850 C   0  0  0  0  0  0  0  0  0  0  0  0
  187.9310  177.2100  148.1400 C   0  0  0  0  0  3  0  0  0  0  0  0
  1 13  1  0  0  0  0
  1 16  1  0  0  0  0
  2 14  1  0  0  0  0
  4  8  2  0  0  0  0
  5  2  1  1  0  0  0
  5  7  1  0  0  0  0
  6  4  1  0  0  0  0
  6  2  2  0  0  0  0
  7  3  1  1  0  0  0
  7 17  1  0  0  0  0
  8 12  1  0  0  0  0
  9  6  1  0  0  0  0
 10  1  1  0  0  0  0
 13  9  1  0  0  0  0
 14 12  2  0  0  0  0
 14 11  1  0  0  0  0
 15  9  1  6  0  0  0
 15  5  1  0  0  0  0
 16  4  1  0  0  0  0
 17 19  1  0  0  0  0
 17 32  1  1  0  0  0
 18  1  1  0  0  0  0
 19 11  1  0  0  0  0
 20 28  1  0  0  0  0
 21 30  1  0  0  0  0
 21 20  1  0  0  0  0
 22 23  1  0  0  0  0
 22 24  1  0  0  0  0
 23 21  2  0  0  0  0
 24 25  1  1  0  0  0
 24 26  1  0  0  0  0
 27 22  2  0  0  0  0
 28 26  1  6  0  0  0
 28 15  1  0  0  0  0
 30 29  1  0  0  0  0
 31 37  1  0  0  0  0
 32 31  2  0  0  0  0
 33 32  1  0  0  0  0
 33 36  2  0  0  0  0
 34 36  1  0  0  0  0
 35 37  2  0  0  0  0
 36 35  1  0  0  0  0
M  END
>  <MODEL>
9

>  <REMARK>
 VINA RESULT:      -5.9      2.927      7.276
  Name = 
  2 active torsions:
  status: ('A' for Active; 'I' for Inactive)
    1  A    between atoms: C_21  and  C_27
    2  A    between atoms: C_23  and  C_30
                            x       y       z     vdW  Elec       q    Type
                         _______ _______ _______ _____ _____    ______ ____

>  <TORSDO>
F 2

$$$$
