=
 OpenBabel11122410243D

 30 35  0  0  1  0  0  0  0  0999 V2000
  189.2240  177.4350  143.4970 C   0  0  1  0  0  3  0  0  0  0  0  0
  191.2000  176.5430  144.8480 C   0  0  0  0  0  0  0  0  0  0  0  0
  187.0490  178.0430  147.2060 C   0  0  0  0  0  2  0  0  0  0  0  0
  187.8900  178.2190  143.5960 C   0  0  1  0  0  3  0  0  0  0  0  0
  190.0640  178.0490  142.5490 O   0  0  0  0  0  0  0  0  0  0  0  0
  187.4270  178.3610  139.8500 C   0  0  0  0  0  1  0  0  0  0  0  0
  184.7680  178.0010  142.8060 C   0  0  1  0  0  3  0  0  0  0  0  0
  188.0610  178.5570  141.2260 C   0  0  2  0  0  3  0  0  0  0  0  0
  184.5970  177.9700  144.3250 C   0  0  2  0  0  3  0  0  0  0  0  0
  185.7640  178.3510  146.5330 C   0  0  0  0  0  0  0  0  0  0  0  0
  189.4630  177.9010  141.2760 C   0  0  2  0  0  3  0  0  0  0  0  0
  187.1840  178.0660  142.3120 N   0  0  2  0  0  0  0  0  0  0  0  0
  191.7890  176.2240  146.0720 C   0  0  0  0  0  3  0  0  0  0  0  0
  183.4890  178.9640  144.6120 C   0  0  0  0  0  2  0  0  0  0  0  0
  183.4600  178.5270  142.2340 C   0  0  0  0  0  2  0  0  0  0  0  0
  191.8730  176.2320  143.6720 O   0  0  0  0  0  1  0  0  0  0  0  0
  187.9650  178.1010  146.0080 C   0  0  2  0  0  3  0  0  0  0  0  0
  191.1110  176.5100  147.2580 C   0  0  0  0  0  3  0  0  0  0  0  0
  189.9390  177.1630  144.8160 C   0  0  0  0  0  0  0  0  0  0  0  0
  187.1250  177.6810  144.8150 C   0  0  1  0  0  3  0  0  0  0  0  0
  184.7130  178.6160  147.1720 O   0  0  0  0  0  0  0  0  0  0  0  0
  185.8120  178.2560  145.1020 N   0  0  0  0  0  0  0  0  0  0  0  0
  182.5750  178.8860  143.4130 C   0  0  0  0  0  2  0  0  0  0  0  0
  186.0300  180.2670  142.8240 C   0  0  0  0  0  1  0  0  0  0  0  0
  189.8800  177.0840  147.2200 N   0  0  0  0  0  0  0  0  0  0  0  0
  189.2730  177.3850  146.0400 C   0  0  0  0  0  0  0  0  0  0  0  0
  185.9330  178.8370  142.2780 C   0  0  2  0  0  3  0  0  0  0  0  0
  189.4790  176.4430  140.8020 C   0  0  0  0  0  2  0  0  0  0  0  0
  190.3970  176.4630  138.7970 C   0  0  0  0  0  1  0  0  0  0  0  0
  190.6730  176.1750  140.1340 O   0  0  0  0  0  0  0  0  0  0  0  0
  1  5  1  6  0  0  0
  1  4  1  0  0  0  0
  1 19  1  0  0  0  0
  2 13  1  0  0  0  0
  4 20  1  0  0  0  0
  6  8  1  0  0  0  0
  7  9  1  0  0  0  0
  8 11  1  0  0  0  0
  8 12  1  0  0  0  0
  9 14  1  0  0  0  0
  9 22  1  0  0  0  0
 10 21  2  0  0  0  0
 10  3  1  0  0  0  0
 11  5  1  0  0  0  0
 12  4  1  0  0  0  0
 13 18  2  0  0  0  0
 15  7  1  0  0  0  0
 15 23  1  0  0  0  0
 16  2  1  0  0  0  0
 17 26  1  0  0  0  0
 17  3  1  0  0  0  0
 19  2  2  0  0  0  0
 19 26  1  0  0  0  0
 20 22  1  0  0  0  0
 20 17  1  0  0  0  0
 22 10  1  0  0  0  0
 23 14  1  0  0  0  0
 25 18  1  0  0  0  0
 26 25  2  0  0  0  0
 27 12  1  0  0  0  0
 27  7  1  0  0  0  0
 27 24  1  0  0  0  0
 28 11  1  0  0  0  0
 29 30  1  0  0  0  0
 30 28  1  0  0  0  0
M  END
>  <MODEL>
1

>  <REMARK>
 VINA RESULT:      -9.3      0.000      0.000
  Name = 
  2 active torsions:
  status: ('A' for Active; 'I' for Inactive)
    1  A    between atoms: C_11  and  C_28
    2  A    between atoms: C_28  and  O_30
                            x       y       z     vdW  Elec       q    Type
                         _______ _______ _______ _____ _____    ______ ____

>  <TORSDO>
F 2

$$$$
=
 OpenBabel11122410243D

 30 35  0  0  1  0  0  0  0  0999 V2000
  187.2430  178.1960  140.5780 C   0  0  1  0  0  3  0  0  0  0  0  0
  184.9540  178.9670  139.7450 C   0  0  0  0  0  0  0  0  0  0  0  0
  185.6210  177.9440  144.5980 C   0  0  0  0  0  2  0  0  0  0  0  0
  187.9870  177.5380  141.7690 C   0  0  1  0  0  3  0  0  0  0  0  0
  187.5000  177.4700  139.4000 O   0  0  0  0  0  0  0  0  0  0  0  0
  191.2500  177.2760  139.8840 C   0  0  0  0  0  1  0  0  0  0  0  0
  190.5020  177.9980  143.7390 C   0  0  1  0  0  3  0  0  0  0  0  0
  189.7750  177.0850  140.2340 C   0  0  2  0  0  3  0  0  0  0  0  0
  189.3970  178.1100  144.7890 C   0  0  2  0  0  3  0  0  0  0  0  0
  186.9410  177.7220  145.2370 C   0  0  0  0  0  0  0  0  0  0  0  0
  188.8740  177.6160  139.0920 C   0  0  2  0  0  3  0  0  0  0  0  0
  189.4330  177.6980  141.5360 N   0  0  2  0  0  0  0  0  0  0  0  0
  183.6180  179.2850  139.9890 C   0  0  0  0  0  3  0  0  0  0  0  0
  189.8580  177.2310  145.9350 C   0  0  0  0  0  2  0  0  0  0  0  0
  191.7590  177.5650  144.4790 C   0  0  0  0  0  2  0  0  0  0  0  0
  185.4760  179.1670  138.4730 O   0  0  0  0  0  1  0  0  0  0  0  0
  186.0210  177.7530  143.1550 C   0  0  2  0  0  3  0  0  0  0  0  0
  183.0900  179.1120  141.2690 C   0  0  0  0  0  3  0  0  0  0  0  0
  185.7550  178.4600  140.7830 C   0  0  0  0  0  0  0  0  0  0  0  0
  187.4700  178.1940  143.0580 C   0  0  1  0  0  3  0  0  0  0  0  0
  187.0740  177.5800  146.4810 O   0  0  0  0  0  0  0  0  0  0  0  0
  188.0480  177.7510  144.3260 N   0  0  0  0  0  0  0  0  0  0  0  0
  191.3650  177.3380  145.9260 C   0  0  0  0  0  2  0  0  0  0  0  0
  189.7670  175.6320  142.9710 C   0  0  0  0  0  1  0  0  0  0  0  0
  183.8770  178.6490  142.2750 N   0  0  0  0  0  0  0  0  0  0  0  0
  185.1890  178.3520  142.0720 C   0  0  0  0  0  0  0  0  0  0  0  0
  190.2330  177.0400  142.5790 C   0  0  2  0  0  3  0  0  0  0  0  0
  189.2140  179.0450  138.6520 C   0  0  0  0  0  2  0  0  0  0  0  0
  189.1600  178.2750  136.5860 C   0  0  0  0  0  1  0  0  0  0  0  0
  188.6650  179.2970  137.3950 O   0  0  0  0  0  0  0  0  0  0  0  0
  1  5  1  6  0  0  0
  1 19  1  0  0  0  0
  1  4  1  0  0  0  0
  2 13  2  0  0  0  0
  2 19  1  0  0  0  0
  3 10  1  0  0  0  0
  4 20  1  0  0  0  0
  6  8  1  0  0  0  0
  7 15  1  0  0  0  0
  7  9  1  0  0  0  0
  8 12  1  0  0  0  0
  9 14  1  0  0  0  0
 10 21  2  0  0  0  0
 11  5  1  0  0  0  0
 11  8  1  0  0  0  0
 12  4  1  0  0  0  0
 12 27  1  0  0  0  0
 13 18  1  0  0  0  0
 15 23  1  0  0  0  0
 16  2  1  0  0  0  0
 17  3  1  0  0  0  0
 18 25  2  0  0  0  0
 19 26  2  0  0  0  0
 20 17  1  0  0  0  0
 20 22  1  0  0  0  0
 22  9  1  0  0  0  0
 22 10  1  0  0  0  0
 23 14  1  0  0  0  0
 26 25  1  0  0  0  0
 26 17  1  0  0  0  0
 27 24  1  0  0  0  0
 27  7  1  0  0  0  0
 28 11  1  0  0  0  0
 29 30  1  0  0  0  0
 30 28  1  0  0  0  0
M  END
>  <MODEL>
2

>  <REMARK>
 VINA RESULT:      -9.1      2.291      5.685
  Name = 
  2 active torsions:
  status: ('A' for Active; 'I' for Inactive)
    1  A    between atoms: C_11  and  C_28
    2  A    between atoms: C_28  and  O_30
                            x       y       z     vdW  Elec       q    Type
                         _______ _______ _______ _____ _____    ______ ____

>  <TORSDO>
F 2

$$$$
=
 OpenBabel11122410243D

 30 35  0  0  1  0  0  0  0  0999 V2000
  188.6680  177.6300  143.9290 C   0  0  1  0  0  3  0  0  0  0  0  0
  190.1360  176.9820  145.9170 C   0  0  0  0  0  0  0  0  0  0  0  0
  185.4250  178.4850  146.6860 C   0  0  0  0  0  2  0  0  0  0  0  0
  187.3560  178.3490  143.5210 C   0  0  1  0  0  3  0  0  0  0  0  0
  189.7520  178.1920  143.2270 O   0  0  0  0  0  0  0  0  0  0  0  0
  188.0950  178.0960  139.8250 C   0  0  0  0  0  1  0  0  0  0  0  0
  184.6470  177.8890  141.8280 C   0  0  1  0  0  3  0  0  0  0  0  0
  188.2590  178.4600  141.3000 C   0  0  2  0  0  3  0  0  0  0  0  0
  184.0070  177.9980  143.2120 C   0  0  2  0  0  3  0  0  0  0  0  0
  184.4120  178.6560  145.6170 C   0  0  0  0  0  0  0  0  0  0  0  0
  189.5860  177.8870  141.8550 C   0  0  2  0  0  3  0  0  0  0  0  0
  187.0940  178.0330  142.1060 N   0  0  2  0  0  0  0  0  0  0  0  0
  190.3150  176.8170  147.2910 C   0  0  0  0  0  3  0  0  0  0  0  0
  182.8460  178.9560  143.0290 C   0  0  0  0  0  2  0  0  0  0  0  0
  183.5760  178.2860  140.8230 C   0  0  0  0  0  2  0  0  0  0  0  0
  191.1500  176.5920  145.0510 O   0  0  0  0  0  1  0  0  0  0  0  0
  186.6700  178.4730  145.8340 C   0  0  2  0  0  3  0  0  0  0  0  0
  189.2930  177.1820  148.1680 C   0  0  0  0  0  3  0  0  0  0  0  0
  188.9370  177.5280  145.4260 C   0  0  0  0  0  0  0  0  0  0  0  0
  186.2570  177.8940  144.4930 C   0  0  1  0  0  3  0  0  0  0  0  0
  183.2070  178.9270  145.8640 O   0  0  0  0  0  0  0  0  0  0  0  0
  184.9090  178.4240  144.2920 N   0  0  0  0  0  0  0  0  0  0  0  0
  182.3570  178.7120  141.6210 C   0  0  0  0  0  2  0  0  0  0  0  0
  185.7950  180.2090  141.9880 C   0  0  0  0  0  1  0  0  0  0  0  0
  188.1250  177.6830  147.6860 N   0  0  0  0  0  0  0  0  0  0  0  0
  187.9150  177.8340  146.3500 C   0  0  0  0  0  0  0  0  0  0  0  0
  185.9030  178.7290  141.6000 C   0  0  2  0  0  3  0  0  0  0  0  0
  189.7790  176.3930  141.5730 C   0  0  0  0  0  2  0  0  0  0  0  0
  191.6150  177.1420  140.6110 C   0  0  0  0  0  1  0  0  0  0  0  0
  190.5810  176.2220  140.4450 O   0  0  0  0  0  0  0  0  0  0  0  0
  1  5  1  6  0  0  0
  1 19  1  0  0  0  0
  2 13  1  0  0  0  0
  4  1  1  0  0  0  0
  4 20  1  0  0  0  0
  6  8  1  0  0  0  0
  7  9  1  0  0  0  0
  8 11  1  0  0  0  0
  8 12  1  0  0  0  0
  9 22  1  0  0  0  0
 10 21  2  0  0  0  0
 10  3  1  0  0  0  0
 11  5  1  0  0  0  0
 12  4  1  0  0  0  0
 13 18  2  0  0  0  0
 14  9  1  0  0  0  0
 15 23  1  0  0  0  0
 15  7  1  0  0  0  0
 16  2  1  0  0  0  0
 17 26  1  0  0  0  0
 17  3  1  0  0  0  0
 19  2  2  0  0  0  0
 19 26  1  0  0  0  0
 20 17  1  0  0  0  0
 22 20  1  0  0  0  0
 22 10  1  0  0  0  0
 23 14  1  0  0  0  0
 25 18  1  0  0  0  0
 26 25  2  0  0  0  0
 27  7  1  0  0  0  0
 27 24  1  0  0  0  0
 27 12  1  0  0  0  0
 28 11  1  0  0  0  0
 30 29  1  0  0  0  0
 30 28  1  0  0  0  0
M  END
>  <MODEL>
3

>  <REMARK>
 VINA RESULT:      -7.8      1.129      1.361
  Name = 
  2 active torsions:
  status: ('A' for Active; 'I' for Inactive)
    1  A    between atoms: C_11  and  C_28
    2  A    between atoms: C_28  and  O_30
                            x       y       z     vdW  Elec       q    Type
                         _______ _______ _______ _____ _____    ______ ____

>  <TORSDO>
F 2

$$$$
=
 OpenBabel11122410243D

 30 35  0  0  1  0  0  0  0  0999 V2000
  186.3950  178.2330  142.7100 C   0  0  1  0  0  3  0  0  0  0  0  0
  186.8620  178.1490  145.2200 C   0  0  0  0  0  0  0  0  0  0  0  0
  182.1950  178.9020  143.5820 C   0  0  0  0  0  2  0  0  0  0  0  0
  185.3470  178.6430  141.6430 C   0  0  1  0  0  3  0  0  0  0  0  0
  187.6220  178.8660  142.4360 O   0  0  0  0  0  0  0  0  0  0  0  0
  187.6910  177.9840  138.7550 C   0  0  0  0  0  1  0  0  0  0  0  0
  183.7460  177.4730  139.0970 C   0  0  1  0  0  3  0  0  0  0  0  0
  187.1390  178.5830  140.0470 C   0  0  2  0  0  3  0  0  0  0  0  0
  182.5440  177.6710  140.0210 C   0  0  2  0  0  3  0  0  0  0  0  0
  181.7600  178.7350  142.1740 C   0  0  0  0  0  0  0  0  0  0  0  0
  188.1200  178.3390  141.2200 C   0  0  2  0  0  3  0  0  0  0  0  0
  185.7810  178.0820  140.3520 N   0  0  2  0  0  0  0  0  0  0  0  0
  186.4180  178.2220  146.5410 C   0  0  0  0  0  3  0  0  0  0  0  0
  181.5070  178.3740  139.1670 C   0  0  0  0  0  2  0  0  0  0  0  0
  183.2100  177.5250  137.6740 C   0  0  0  0  0  2  0  0  0  0  0  0
  188.1890  177.8210  144.9700 O   0  0  0  0  0  1  0  0  0  0  0  0
  183.6850  178.9830  143.3630 C   0  0  2  0  0  3  0  0  0  0  0  0
  185.0820  178.5270  146.8030 C   0  0  0  0  0  3  0  0  0  0  0  0
  185.9690  178.4000  144.1650 C   0  0  0  0  0  0  0  0  0  0  0  0
  183.9760  178.1510  142.1270 C   0  0  1  0  0  3  0  0  0  0  0  0
  180.5540  178.8240  141.8230 O   0  0  0  0  0  0  0  0  0  0  0  0
  182.8200  178.4020  141.2670 N   0  0  0  0  0  0  0  0  0  0  0  0
  181.7300  177.8440  137.7700 C   0  0  0  0  0  2  0  0  0  0  0  0
  184.4800  179.9570  139.2410 C   0  0  0  0  0  1  0  0  0  0  0  0
  184.2160  178.7400  145.7770 N   0  0  0  0  0  0  0  0  0  0  0  0
  184.6170  178.6540  144.4800 C   0  0  0  0  0  0  0  0  0  0  0  0
  184.8870  178.4770  139.2540 C   0  0  2  0  0  3  0  0  0  0  0  0
  188.5550  176.8760  141.3660 C   0  0  0  0  0  2  0  0  0  0  0  0
  190.1010  175.9690  142.6500 C   0  0  0  0  0  1  0  0  0  0  0  0
  189.9360  176.8090  141.5490 O   0  0  0  0  0  0  0  0  0  0  0  0
  1  5  1  6  0  0  0
  1 19  1  0  0  0  0
  2 13  1  0  0  0  0
  4 20  1  0  0  0  0
  4  1  1  0  0  0  0
  6  8  1  0  0  0  0
  7 27  1  0  0  0  0
  7  9  1  0  0  0  0
  8 12  1  0  0  0  0
  8 11  1  0  0  0  0
  9 22  1  0  0  0  0
 10  3  1  0  0  0  0
 11 28  1  0  0  0  0
 11  5  1  0  0  0  0
 12  4  1  0  0  0  0
 13 18  2  0  0  0  0
 14  9  1  0  0  0  0
 15 23  1  0  0  0  0
 15  7  1  0  0  0  0
 16  2  1  0  0  0  0
 17  3  1  0  0  0  0
 17 26  1  0  0  0  0
 19 26  1  0  0  0  0
 19  2  2  0  0  0  0
 20 17  1  0  0  0  0
 21 10  2  0  0  0  0
 22 20  1  0  0  0  0
 22 10  1  0  0  0  0
 23 14  1  0  0  0  0
 24 27  1  0  0  0  0
 25 18  1  0  0  0  0
 26 25  2  0  0  0  0
 27 12  1  0  0  0  0
 28 30  1  0  0  0  0
 30 29  1  0  0  0  0
M  END
>  <MODEL>
4

>  <REMARK>
 VINA RESULT:      -7.6      2.611      4.432
  Name = 
  2 active torsions:
  status: ('A' for Active; 'I' for Inactive)
    1  A    between atoms: C_11  and  C_28
    2  A    between atoms: C_28  and  O_30
                            x       y       z     vdW  Elec       q    Type
                         _______ _______ _______ _____ _____    ______ ____

>  <TORSDO>
F 2

$$$$
=
 OpenBabel11122410243D

 30 35  0  0  1  0  0  0  0  0999 V2000
  188.0750  177.7900  142.3250 C   0  0  1  0  0  3  0  0  0  0  0  0
  186.8670  178.0140  144.5640 C   0  0  0  0  0  0  0  0  0  0  0  0
  184.4340  179.0290  140.3110 C   0  0  0  0  0  2  0  0  0  0  0  0
  188.0030  178.1560  140.8190 C   0  0  1  0  0  3  0  0  0  0  0  0
  189.2960  178.2410  142.8630 O   0  0  0  0  0  0  0  0  0  0  0  0
  191.4710  176.8420  140.0980 C   0  0  0  0  0  1  0  0  0  0  0  0
  188.1480  176.8170  137.8860 C   0  0  1  0  0  3  0  0  0  0  0  0
  190.3530  177.6750  140.7230 C   0  0  2  0  0  3  0  0  0  0  0  0
  186.6890  177.2730  137.8310 C   0  0  2  0  0  3  0  0  0  0  0  0
  184.9420  178.7110  138.9550 C   0  0  0  0  0  0  0  0  0  0  0  0
  190.3370  177.4950  142.2610 C   0  0  2  0  0  3  0  0  0  0  0  0
  189.0370  177.3730  140.1190 N   0  0  2  0  0  0  0  0  0  0  0  0
  185.7220  178.3210  145.3010 C   0  0  0  0  0  3  0  0  0  0  0  0
  186.5450  177.9560  136.4850 C   0  0  0  0  0  2  0  0  0  0  0  0
  188.6260  176.7240  136.4450 C   0  0  0  0  0  2  0  0  0  0  0  0
  187.9810  177.5100  145.2240 O   0  0  0  0  0  1  0  0  0  0  0  0
  185.7250  178.9150  141.0820 C   0  0  2  0  0  3  0  0  0  0  0  0
  184.5890  178.8030  144.6450 C   0  0  0  0  0  3  0  0  0  0  0  0
  186.8780  178.2070  143.1720 C   0  0  0  0  0  0  0  0  0  0  0  0
  186.5670  177.8890  140.3460 C   0  0  1  0  0  3  0  0  0  0  0  0
  184.2500  178.8800  137.9170 O   0  0  0  0  0  0  0  0  0  0  0  0
  186.2570  178.1390  138.9390 N   0  0  0  0  0  0  0  0  0  0  0  0
  187.4880  177.2110  135.5690 C   0  0  0  0  0  2  0  0  0  0  0  0
  189.0530  179.2010  138.3590 C   0  0  0  0  0  1  0  0  0  0  0  0
  184.5970  178.9610  143.2950 N   0  0  0  0  0  0  0  0  0  0  0  0
  185.6910  178.6490  142.5490 C   0  0  0  0  0  0  0  0  0  0  0  0
  189.0990  177.7030  138.6880 C   0  0  2  0  0  3  0  0  0  0  0  0
  190.3260  176.0300  142.7100 C   0  0  0  0  0  2  0  0  0  0  0  0
  191.4070  176.4010  144.5960 C   0  0  0  0  0  1  0  0  0  0  0  0
  191.5130  175.7300  143.3780 O   0  0  0  0  0  0  0  0  0  0  0  0
  1  5  1  1  0  0  0
  1 19  1  0  0  0  0
  2 16  1  0  0  0  0
  2 13  1  0  0  0  0
  3 17  1  0  0  0  0
  4  1  1  0  0  0  0
  6  8  1  0  0  0  0
  7 27  1  0  0  0  0
  8 11  1  0  0  0  0
  9  7  1  0  0  0  0
  9 22  1  0  0  0  0
 10  3  1  0  0  0  0
 11 28  1  0  0  0  0
 11  5  1  0  0  0  0
 12  8  1  0  0  0  0
 12  4  1  0  0  0  0
 14  9  1  0  0  0  0
 15  7  1  0  0  0  0
 17 26  1  0  0  0  0
 18 13  2  0  0  0  0
 19  2  2  0  0  0  0
 20  4  1  0  0  0  0
 20 17  1  0  0  0  0
 21 10  2  0  0  0  0
 22 10  1  0  0  0  0
 22 20  1  0  0  0  0
 23 15  1  0  0  0  0
 23 14  1  0  0  0  0
 24 27  1  0  0  0  0
 25 18  1  0  0  0  0
 26 19  1  0  0  0  0
 26 25  2  0  0  0  0
 27 12  1  0  0  0  0
 28 30  1  0  0  0  0
 30 29  1  0  0  0  0
M  END
>  <MODEL>
5

>  <REMARK>
 VINA RESULT:      -7.5      2.480      5.702
  Name = 
  2 active torsions:
  status: ('A' for Active; 'I' for Inactive)
    1  A    between atoms: C_11  and  C_28
    2  A    between atoms: C_28  and  O_30
                            x       y       z     vdW  Elec       q    Type
                         _______ _______ _______ _____ _____    ______ ____

>  <TORSDO>
F 2

$$$$
=
 OpenBabel11122410243D

 30 35  0  0  1  0  0  0  0  0999 V2000
  187.1420  177.9410  140.0140 C   0  0  1  0  0  3  0  0  0  0  0  0
  189.0150  177.1830  138.4510 C   0  0  0  0  0  0  0  0  0  0  0  0
  189.9270  177.7440  143.3400 C   0  0  0  0  0  2  0  0  0  0  0  0
  186.8390  178.5020  141.4280 C   0  0  1  0  0  3  0  0  0  0  0  0
  186.5810  178.7880  139.0390 O   0  0  0  0  0  0  0  0  0  0  0  0
  183.1780  179.0520  140.6760 C   0  0  0  0  0  1  0  0  0  0  0  0
  185.0230  177.9310  144.0350 C   0  0  1  0  0  3  0  0  0  0  0  0
  184.6980  179.1610  140.5660 C   0  0  2  0  0  3  0  0  0  0  0  0
  186.3880  177.6810  144.6770 C   0  0  2  0  0  3  0  0  0  0  0  0
  188.8820  177.9440  144.3720 C   0  0  0  0  0  0  0  0  0  0  0  0
  185.1730  178.7170  139.1610 C   0  0  2  0  0  3  0  0  0  0  0  0
  185.3840  178.4120  141.6420 N   0  0  2  0  0  0  0  0  0  0  0  0
  190.3400  176.8000  138.2410 C   0  0  0  0  0  3  0  0  0  0  0  0
  186.3530  178.4570  145.9790 C   0  0  0  0  0  2  0  0  0  0  0  0
  184.0810  178.3280  145.1610 C   0  0  0  0  0  2  0  0  0  0  0  0
  188.1180  177.1270  137.3910 O   0  0  0  0  0  1  0  0  0  0  0  0
  189.1180  178.0880  142.1130 C   0  0  2  0  0  3  0  0  0  0  0  0
  191.2440  176.8290  139.3040 C   0  0  0  0  0  3  0  0  0  0  0  0
  188.6020  177.6100  139.7250 C   0  0  0  0  0  0  0  0  0  0  0  0
  187.6840  177.7060  142.4330 C   0  0  1  0  0  3  0  0  0  0  0  0
  189.1440  177.9670  145.6040 O   0  0  0  0  0  0  0  0  0  0  0  0
  187.5500  178.0410  143.8500 N   0  0  0  0  0  0  0  0  0  0  0  0
  184.9120  178.3990  146.4280 C   0  0  0  0  0  2  0  0  0  0  0  0
  185.6310  180.3360  143.2780 C   0  0  0  0  0  1  0  0  0  0  0  0
  190.8310  177.2160  140.5400 N   0  0  0  0  0  0  0  0  0  0  0  0
  189.5410  177.5740  140.7790 C   0  0  0  0  0  0  0  0  0  0  0  0
  184.9830  178.9890  142.9330 C   0  0  2  0  0  3  0  0  0  0  0  0
  184.6290  177.3500  138.7290 C   0  0  0  0  0  2  0  0  0  0  0  0
  184.7950  175.8630  137.1100 C   0  0  0  0  0  1  0  0  0  0  0  0
  184.6850  177.2340  137.3410 O   0  0  0  0  0  0  0  0  0  0  0  0
  1  5  1  6  0  0  0
  1  4  1  0  0  0  0
  2 19  1  0  0  0  0
  3 10  1  0  0  0  0
  4 12  1  0  0  0  0
  4 20  1  0  0  0  0
  5 11  1  0  0  0  0
  7  9  1  0  0  0  0
  7 15  1  0  0  0  0
  8  6  1  0  0  0  0
  8 12  1  0  0  0  0
  9 14  1  0  0  0  0
 10 21  2  0  0  0  0
 11  8  1  0  0  0  0
 12 27  1  0  0  0  0
 13  2  2  0  0  0  0
 13 18  1  0  0  0  0
 14 23  1  0  0  0  0
 15 23  1  0  0  0  0
 16  2  1  0  0  0  0
 17 20  1  0  0  0  0
 17  3  1  0  0  0  0
 18 25  2  0  0  0  0
 19  1  1  0  0  0  0
 19 26  2  0  0  0  0
 20 22  1  0  0  0  0
 22 10  1  0  0  0  0
 22  9  1  0  0  0  0
 25 26  1  0  0  0  0
 26 17  1  0  0  0  0
 27 24  1  0  0  0  0
 27  7  1  0  0  0  0
 28 11  1  0  0  0  0
 29 30  1  0  0  0  0
 30 28  1  0  0  0  0
M  END
>  <MODEL>
6

>  <REMARK>
 VINA RESULT:      -7.5      2.444      4.731
  Name = 
  2 active torsions:
  status: ('A' for Active; 'I' for Inactive)
    1  A    between atoms: C_11  and  C_28
    2  A    between atoms: C_28  and  O_30
                            x       y       z     vdW  Elec       q    Type
                         _______ _______ _______ _____ _____    ______ ____

>  <TORSDO>
F 2

$$$$
=
 OpenBabel11122410243D

 30 35  0  0  1  0  0  0  0  0999 V2000
  186.1350  178.2530  140.3310 C   0  0  1  0  0  3  0  0  0  0  0  0
  187.4000  177.8340  138.1510 C   0  0  0  0  0  0  0  0  0  0  0  0
  189.9070  178.0820  142.4740 C   0  0  0  0  0  2  0  0  0  0  0  0
  186.3020  178.6580  141.8190 C   0  0  1  0  0  3  0  0  0  0  0  0
  185.2110  179.1130  139.7070 O   0  0  0  0  0  0  0  0  0  0  0  0
  182.5780  178.8710  142.4160 C   0  0  0  0  0  1  0  0  0  0  0  0
  185.5500  177.6800  144.8010 C   0  0  1  0  0  3  0  0  0  0  0  0
  183.9530  179.1520  141.8130 C   0  0  2  0  0  3  0  0  0  0  0  0
  187.0670  177.5260  144.9120 C   0  0  2  0  0  3  0  0  0  0  0  0
  189.2740  178.0810  143.8150 C   0  0  0  0  0  0  0  0  0  0  0  0
  183.9420  178.8800  140.2880 C   0  0  2  0  0  3  0  0  0  0  0  0
  185.0220  178.3950  142.5000 N   0  0  2  0  0  0  0  0  0  0  0  0
  188.5940  177.6160  137.4630 C   0  0  0  0  0  3  0  0  0  0  0  0
  187.4300  178.1830  146.2290 C   0  0  0  0  0  2  0  0  0  0  0  0
  185.0310  177.8780  146.2170 C   0  0  0  0  0  2  0  0  0  0  0  0
  186.1970  177.7700  137.4570 O   0  0  0  0  0  1  0  0  0  0  0  0
  188.7010  178.4380  141.6410 C   0  0  2  0  0  3  0  0  0  0  0  0
  189.8050  177.6540  138.1540 C   0  0  0  0  0  3  0  0  0  0  0  0
  187.4240  178.1070  139.5300 C   0  0  0  0  0  0  0  0  0  0  0  0
  187.4980  177.8780  142.3810 C   0  0  1  0  0  3  0  0  0  0  0  0
  189.9450  178.0300  144.8790 O   0  0  0  0  0  0  0  0  0  0  0  0
  187.8400  178.0770  143.7890 N   0  0  0  0  0  0  0  0  0  0  0  0
  186.2430  177.9330  147.1290 C   0  0  0  0  0  2  0  0  0  0  0  0
  185.6800  180.1910  144.1660 C   0  0  0  0  0  1  0  0  0  0  0  0
  189.8200  177.8900  139.4930 N   0  0  0  0  0  0  0  0  0  0  0  0
  188.6700  178.0850  140.1930 C   0  0  0  0  0  0  0  0  0  0  0  0
  185.0530  178.8150  143.9080 C   0  0  2  0  0  3  0  0  0  0  0  0
  183.3830  177.5030  139.9110 C   0  0  0  0  0  2  0  0  0  0  0  0
  183.0650  176.0960  138.2440 C   0  0  0  0  0  1  0  0  0  0  0  0
  183.1180  177.4570  138.5430 O   0  0  0  0  0  0  0  0  0  0  0  0
  1 19  1  6  0  0  0
  1  4  1  0  0  0  0
  2 19  1  0  0  0  0
  3 10  1  0  0  0  0
  4 20  1  0  0  0  0
  4 12  1  0  0  0  0
  5 11  1  0  0  0  0
  5  1  1  0  0  0  0
  7  9  1  0  0  0  0
  7 15  1  0  0  0  0
  8  6  1  0  0  0  0
  8 12  1  0  0  0  0
  9 14  1  0  0  0  0
 10 21  2  0  0  0  0
 11  8  1  0  0  0  0
 12 27  1  0  0  0  0
 13  2  2  0  0  0  0
 13 18  1  0  0  0  0
 14 23  1  0  0  0  0
 15 23  1  0  0  0  0
 16  2  1  0  0  0  0
 17 20  1  0  0  0  0
 17  3  1  0  0  0  0
 18 25  2  0  0  0  0
 19 26  2  0  0  0  0
 20 22  1  0  0  0  0
 22 10  1  0  0  0  0
 22  9  1  0  0  0  0
 25 26  1  0  0  0  0
 26 17  1  0  0  0  0
 27 24  1  0  0  0  0
 27  7  1  0  0  0  0
 28 11  1  0  0  0  0
 29 30  1  0  0  0  0
 30 28  1  0  0  0  0
M  END
>  <MODEL>
7

>  <REMARK>
 VINA RESULT:      -7.1      2.661      5.576
  Name = 
  2 active torsions:
  status: ('A' for Active; 'I' for Inactive)
    1  A    between atoms: C_11  and  C_28
    2  A    between atoms: C_28  and  O_30
                            x       y       z     vdW  Elec       q    Type
                         _______ _______ _______ _____ _____    ______ ____

>  <TORSDO>
F 2

$$$$
=
 OpenBabel11122410243D

 30 35  0  0  1  0  0  0  0  0999 V2000
  189.4600  177.1680  138.3550 C   0  0  1  0  0  3  0  0  0  0  0  0
  191.2240  176.4100  136.6700 C   0  0  0  0  0  0  0  0  0  0  0  0
  192.4860  177.0620  141.4680 C   0  0  0  0  0  2  0  0  0  0  0  0
  189.2550  177.7470  139.7790 C   0  0  1  0  0  3  0  0  0  0  0  0
  188.8170  177.9910  137.4120 O   0  0  0  0  0  0  0  0  0  0  0  0
  185.5400  178.2360  139.2930 C   0  0  0  0  0  1  0  0  0  0  0  0
  187.6450  177.1950  142.5220 C   0  0  1  0  0  3  0  0  0  0  0  0
  187.0460  178.3640  139.0690 C   0  0  2  0  0  3  0  0  0  0  0  0
  189.0570  176.9730  143.0650 C   0  0  2  0  0  3  0  0  0  0  0  0
  191.5180  177.2640  142.5720 C   0  0  0  0  0  0  0  0  0  0  0  0
  187.4230  177.9030  137.6390 C   0  0  2  0  0  3  0  0  0  0  0  0
  187.8210  177.6420  140.1020 N   0  0  2  0  0  0  0  0  0  0  0  0
  192.5350  176.0420  136.3670 C   0  0  0  0  0  3  0  0  0  0  0  0
  189.1070  177.7700  144.3540 C   0  0  0  0  0  2  0  0  0  0  0  0
  186.7830  177.5970  143.7090 C   0  0  0  0  0  2  0  0  0  0  0  0
  190.2520  176.3240  135.6800 O   0  0  0  0  0  1  0  0  0  0  0  0
  191.5840  177.3760  140.2990 C   0  0  2  0  0  3  0  0  0  0  0  0
  193.5140  176.1000  137.3600 C   0  0  0  0  0  3  0  0  0  0  0  0
  190.9000  176.8520  137.9640 C   0  0  0  0  0  0  0  0  0  0  0  0
  190.1830  176.9800  140.7310 C   0  0  1  0  0  3  0  0  0  0  0  0
  191.8700  177.3120  143.7800 O   0  0  0  0  0  0  0  0  0  0  0  0
  190.1490  177.3350  142.1490 N   0  0  0  0  0  0  0  0  0  0  0  0
  187.7040  177.7000  144.9100 C   0  0  0  0  0  2  0  0  0  0  0  0
  188.1600  179.5950  141.6850 C   0  0  0  0  0  1  0  0  0  0  0  0
  193.1890  176.5010  138.6170 N   0  0  0  0  0  0  0  0  0  0  0  0
  191.9140  176.8450  138.9450 C   0  0  0  0  0  0  0  0  0  0  0  0
  187.5080  178.2340  141.4100 C   0  0  2  0  0  3  0  0  0  0  0  0
  186.8680  176.5220  137.2700 C   0  0  0  0  0  2  0  0  0  0  0  0
  185.6430  177.1560  135.5500 C   0  0  0  0  0  1  0  0  0  0  0  0
  186.7700  176.4060  135.8840 O   0  0  0  0  0  0  0  0  0  0  0  0
  1  5  1  6  0  0  0
  1  4  1  0  0  0  0
  2 19  1  0  0  0  0
  3 10  1  0  0  0  0
  4 12  1  0  0  0  0
  4 20  1  0  0  0  0
  5 11  1  0  0  0  0
  7  9  1  0  0  0  0
  7 15  1  0  0  0  0
  8  6  1  0  0  0  0
  8 12  1  0  0  0  0
  9 14  1  0  0  0  0
 10 21  2  0  0  0  0
 11  8  1  0  0  0  0
 12 27  1  0  0  0  0
 13  2  2  0  0  0  0
 13 18  1  0  0  0  0
 14 23  1  0  0  0  0
 15 23  1  0  0  0  0
 16  2  1  0  0  0  0
 17 20  1  0  0  0  0
 17  3  1  0  0  0  0
 18 25  2  0  0  0  0
 19  1  1  0  0  0  0
 19 26  2  0  0  0  0
 20 22  1  0  0  0  0
 22 10  1  0  0  0  0
 22  9  1  0  0  0  0
 25 26  1  0  0  0  0
 26 17  1  0  0  0  0
 27 24  1  0  0  0  0
 27  7  1  0  0  0  0
 28 11  1  0  0  0  0
 29 30  1  0  0  0  0
 30 28  1  0  0  0  0
M  END
>  <MODEL>
8

>  <REMARK>
 VINA RESULT:      -6.6      2.994      6.084
  Name = 
  2 active torsions:
  status: ('A' for Active; 'I' for Inactive)
    1  A    between atoms: C_11  and  C_28
    2  A    between atoms: C_28  and  O_30
                            x       y       z     vdW  Elec       q    Type
                         _______ _______ _______ _____ _____    ______ ____

>  <TORSDO>
F 2

$$$$
=
 OpenBabel11122410243D

 30 35  0  0  1  0  0  0  0  0999 V2000
  186.7250  178.2530  140.0590 C   0  0  1  0  0  3  0  0  0  0  0  0
  186.0310  178.2530  137.6010 C   0  0  0  0  0  0  0  0  0  0  0  0
  190.8020  177.3880  138.8390 C   0  0  0  0  0  2  0  0  0  0  0  0
  187.9430  178.3080  141.0180 C   0  0  1  0  0  3  0  0  0  0  0  0
  185.8220  179.2830  140.3830 O   0  0  0  0  0  0  0  0  0  0  0  0
  185.7900  178.6040  144.1070 C   0  0  0  0  0  1  0  0  0  0  0  0
  189.2700  176.7400  143.5080 C   0  0  1  0  0  3  0  0  0  0  0  0
  186.3940  178.9290  142.7420 C   0  0  2  0  0  3  0  0  0  0  0  0
  190.3760  176.4760  142.4870 C   0  0  2  0  0  3  0  0  0  0  0  0
  191.2780  177.1270  140.2180 C   0  0  0  0  0  0  0  0  0  0  0  0
  185.2860  179.0030  141.6630 C   0  0  2  0  0  3  0  0  0  0  0  0
  187.4630  177.9770  142.3710 N   0  0  2  0  0  0  0  0  0  0  0  0
  186.3510  178.1210  136.2490 C   0  0  0  0  0  3  0  0  0  0  0  0
  191.6650  176.8020  143.2160 C   0  0  0  0  0  2  0  0  0  0  0  0
  189.9180  176.6500  144.8810 C   0  0  0  0  0  2  0  0  0  0  0  0
  184.7010  178.4150  137.9690 O   0  0  0  0  0  1  0  0  0  0  0  0
  189.4560  177.9900  139.1620 C   0  0  2  0  0  3  0  0  0  0  0  0
  187.6800  177.9330  135.8700 C   0  0  0  0  0  3  0  0  0  0  0  0
  187.0490  178.2120  138.5700 C   0  0  0  0  0  0  0  0  0  0  0  0
  189.0110  177.3530  140.4660 C   0  0  1  0  0  3  0  0  0  0  0  0
  192.4680  176.8020  140.4730 O   0  0  0  0  0  0  0  0  0  0  0  0
  190.2560  177.2140  141.2210 N   0  0  0  0  0  0  0  0  0  0  0  0
  191.4020  176.4300  144.6560 C   0  0  0  0  0  2  0  0  0  0  0  0
  189.4250  179.3180  143.2610 C   0  0  0  0  0  1  0  0  0  0  0  0
  188.6560  177.8660  136.8130 N   0  0  0  0  0  0  0  0  0  0  0  0
  188.3710  177.9690  138.1400 C   0  0  0  0  0  0  0  0  0  0  0  0
  188.5350  178.0720  143.3720 C   0  0  2  0  0  3  0  0  0  0  0  0
  184.3630  177.7800  141.6430 C   0  0  0  0  0  2  0  0  0  0  0  0
  182.4880  178.7720  142.2450 C   0  0  0  0  0  1  0  0  0  0  0  0
  183.1050  178.1430  141.1640 O   0  0  0  0  0  0  0  0  0  0  0  0
  1 19  1  6  0  0  0
  1  5  1  0  0  0  0
  1  4  1  0  0  0  0
  2 16  1  0  0  0  0
  2 19  1  0  0  0  0
  3 17  1  0  0  0  0
  3 10  1  0  0  0  0
  4 12  1  0  0  0  0
  5 11  1  0  0  0  0
  7 15  1  0  0  0  0
  8  6  1  0  0  0  0
  9 14  1  0  0  0  0
  9  7  1  0  0  0  0
 10 21  2  0  0  0  0
 10 22  1  0  0  0  0
 11  8  1  0  0  0  0
 12  8  1  0  0  0  0
 12 27  1  0  0  0  0
 13  2  2  0  0  0  0
 14 23  1  0  0  0  0
 17 20  1  0  0  0  0
 18 13  1  0  0  0  0
 18 25  2  0  0  0  0
 20  4  1  0  0  0  0
 20 22  1  0  0  0  0
 22  9  1  0  0  0  0
 23 15  1  0  0  0  0
 24 27  1  0  0  0  0
 25 26  1  0  0  0  0
 26 19  2  0  0  0  0
 26 17  1  0  0  0  0
 27  7  1  0  0  0  0
 28 11  1  0  0  0  0
 30 28  1  0  0  0  0
 30 29  1  0  0  0  0
M  END
>  <MODEL>
9

>  <REMARK>
 VINA RESULT:      -6.6      2.742      7.298
  Name = 
  2 active torsions:
  status: ('A' for Active; 'I' for Inactive)
    1  A    between atoms: C_11  and  C_28
    2  A    between atoms: C_28  and  O_30
                            x       y       z     vdW  Elec       q    Type
                         _______ _______ _______ _____ _____    ______ ____

>  <TORSDO>
F 2

$$$$
