=
 OpenBabel11122411353D

 37 43  0  0  1  0  0  0  0  0999 V2000
  190.2850  178.1950  143.6520 C   0  0  0  0  0  0  0  0  0  0  0  0
  186.2850  177.9280  142.4250 C   0  0  0  0  0  0  0  0  0  0  0  0
  185.7520  178.9960  138.7140 O   0  0  0  0  0  0  0  0  0  0  0  0
  187.8000  178.0220  144.3010 C   0  0  0  0  0  0  0  0  0  0  0  0
  186.4100  177.9060  140.9400 C   0  0  1  0  0  3  0  0  0  0  0  0
  187.5390  177.8400  142.9470 C   0  0  0  0  0  0  0  0  0  0  0  0
  185.4790  178.8890  140.1250 C   0  0  2  0  0  3  0  0  0  0  0  0
  186.7060  178.1530  145.1690 C   0  0  0  0  0  3  0  0  0  0  0  0
  188.5470  177.7110  141.8900 C   0  0  2  0  0  3  0  0  0  0  0  0
  190.8720  176.7950  143.6040 C   0  0  0  0  0  1  0  0  0  0  0  0
  183.7740  177.9490  142.7510 C   0  0  0  0  0  2  0  0  0  0  0  0
  185.3920  178.1160  144.6560 C   0  0  0  0  0  3  0  0  0  0  0  0
  189.7420  178.5870  142.2600 C   0  0  0  0  0  2  0  0  0  0  0  0
  187.1900  177.8130  137.0150 C   0  0  1  0  0  3  0  0  0  0  0  0
  186.3990  177.8290  138.2930 C   0  0  1  0  0  3  0  0  0  0  0  0
  185.1690  178.0110  143.2690 C   0  0  0  0  0  0  0  0  0  0  0  0
  187.8520  178.1740  140.6880 N   0  0  1  0  0  0  0  0  0  0  0  0
  189.2120  178.2590  144.7690 C   0  0  0  0  0  2  0  0  0  0  0  0
  183.9820  178.5960  140.3510 C   0  0  1  0  0  3  0  0  0  0  0  0
  191.3990  179.1550  144.0140 C   0  0  0  0  0  1  0  0  0  0  0  0
  187.8630  178.2370  138.3180 C   0  0  1  0  0  3  0  0  0  0  0  0
  188.2990  177.4160  139.5140 C   0  0  0  0  0  2  0  0  0  0  0  0
  183.5210  179.0410  141.7320 C   0  0  0  0  0  2  0  0  0  0  0  0
  182.7610  180.5770  139.4330 C   0  0  0  0  0  3  0  0  0  0  0  0
  183.1010  179.2250  139.3100 C   0  0  0  0  0  0  0  0  0  0  0  0
  182.6050  178.4810  138.2280 C   0  0  0  0  0  3  0  0  0  0  0  0
  181.2560  178.2970  136.1350 C   0  0  0  0  0  1  0  0  0  0  0  0
  181.4420  180.4390  137.4060 C   0  0  0  0  0  3  0  0  0  0  0  0
  181.7780  179.0880  137.2790 C   0  0  0  0  0  0  0  0  0  0  0  0
  181.9320  181.1820  138.4830 C   0  0  0  0  0  3  0  0  0  0  0  0
  188.0210  173.5900  136.1350 O   0  0  0  0  0  0  0  0  0  0  0  0
  187.0720  173.9300  136.8900 C   0  0  0  0  0  0  0  0  0  0  0  0
  187.5740  176.4150  136.6460 C   0  0  0  0  0  0  0  0  0  0  0  0
  186.8190  175.3140  137.1670 N   0  0  0  0  0  2  0  0  0  0  0  0
  188.5790  176.2180  135.9130 O   0  0  0  0  0  0  0  0  0  0  0  0
  184.9030  173.1730  137.7680 C   0  0  0  0  0  1  0  0  0  0  0  0
  186.2670  172.9390  137.4530 O   0  0  0  0  0  0  0  0  0  0  0  0
  1 20  1  0  0  0  0
  1 18  1  0  0  0  0
  2  6  2  0  0  0  0
  2 16  1  0  0  0  0
  4 18  1  0  0  0  0
  4  8  2  0  0  0  0
  5  2  1  1  0  0  0
  6  4  1  0  0  0  0
  7  3  1  6  0  0  0
  7 19  1  0  0  0  0
  7  5  1  0  0  0  0
  9 13  1  1  0  0  0
  9  6  1  0  0  0  0
 10  1  1  0  0  0  0
 11 16  1  0  0  0  0
 12  8  1  0  0  0  0
 13  1  1  0  0  0  0
 14 33  1  1  0  0  0
 14 15  1  0  0  0  0
 14 21  1  0  0  0  0
 15 21  1  0  0  0  0
 15  3  1  6  0  0  0
 16 12  2  0  0  0  0
 17 22  1  6  0  0  0
 17  5  1  0  0  0  0
 17  9  1  0  0  0  0
 19 25  1  6  0  0  0
 19 23  1  0  0  0  0
 21 22  1  1  0  0  0
 23 11  1  0  0  0  0
 25 24  1  0  0  0  0
 26 25  2  0  0  0  0
 27 29  1  0  0  0  0
 28 30  1  0  0  0  0
 29 28  2  0  0  0  0
 29 26  1  0  0  0  0
 30 24  2  0  0  0  0
 31 32  2  0  0  0  0
 32 34  1  0  0  0  0
 32 37  1  0  0  0  0
 33 34  1  0  0  0  0
 35 33  2  0  0  0  0
 37 36  1  0  0  0  0
M  END
>  <MODEL>
1

>  <REMARK>
 VINA RESULT:      -8.2      0.000      0.000
  Name = 
  3 active torsions:
  status: ('A' for Active; 'I' for Inactive)
    1  A    between atoms: C_4  and  O_37
    2  A    between atoms: C_8  and  C_18
    3  A    between atoms: C_23  and  C_30
                            x       y       z     vdW  Elec       q    Type
                         _______ _______ _______ _____ _____    ______ ____

>  <TORSDO>
F 3

$$$$
=
 OpenBabel11122411353D

 37 43  0  0  1  0  0  0  0  0999 V2000
  190.9050  178.1170  144.0750 C   0  0  0  0  0  0  0  0  0  0  0  0
  186.8050  177.8640  143.2320 C   0  0  0  0  0  0  0  0  0  0  0  0
  185.9260  178.9470  139.5920 O   0  0  0  0  0  0  0  0  0  0  0  0
  188.4920  177.9470  144.9550 C   0  0  0  0  0  0  0  0  0  0  0  0
  186.7890  177.8470  141.7410 C   0  0  1  0  0  3  0  0  0  0  0  0
  188.1030  177.7710  143.6320 C   0  0  0  0  0  0  0  0  0  0  0  0
  185.7870  178.8350  141.0220 C   0  0  2  0  0  3  0  0  0  0  0  0
  187.4850  178.0760  145.9240 C   0  0  0  0  0  3  0  0  0  0  0  0
  189.0060  177.6430  142.4830 C   0  0  2  0  0  3  0  0  0  0  0  0
  191.4800  176.7160  143.9650 C   0  0  0  0  0  1  0  0  0  0  0  0
  184.3370  177.8880  143.7940 C   0  0  0  0  0  2  0  0  0  0  0  0
  186.1280  178.0440  145.5380 C   0  0  0  0  0  3  0  0  0  0  0  0
  190.2330  178.5160  142.7410 C   0  0  0  0  0  2  0  0  0  0  0  0
  187.1930  177.7670  137.7590 C   0  0  1  0  0  3  0  0  0  0  0  0
  186.5260  177.7800  139.1070 C   0  0  1  0  0  3  0  0  0  0  0  0
  185.7750  177.9460  144.1780 C   0  0  0  0  0  0  0  0  0  0  0  0
  188.2010  178.1120  141.3540 N   0  0  1  0  0  0  0  0  0  0  0  0
  189.9430  178.1780  145.2880 C   0  0  0  0  0  2  0  0  0  0  0  0
  184.3170  178.5440  141.3870 C   0  0  1  0  0  3  0  0  0  0  0  0
  192.0500  179.0730  144.3330 C   0  0  0  0  0  1  0  0  0  0  0  0
  187.9880  178.1850  138.9940 C   0  0  1  0  0  3  0  0  0  0  0  0
  188.5330  177.3590  140.1410 C   0  0  0  0  0  2  0  0  0  0  0  0
  183.9910  178.9850  142.8080 C   0  0  0  0  0  2  0  0  0  0  0  0
  183.8280  180.0010  139.4140 C   0  0  0  0  0  3  0  0  0  0  0  0
  183.3430  179.1800  140.4370 C   0  0  0  0  0  0  0  0  0  0  0  0
  181.9610  178.9740  140.5660 C   0  0  0  0  0  3  0  0  0  0  0  0
  179.6120  179.3670  139.8150 C   0  0  0  0  0  1  0  0  0  0  0  0
  181.5640  180.4060  138.6540 C   0  0  0  0  0  3  0  0  0  0  0  0
  181.0740  179.5870  139.6760 C   0  0  0  0  0  0  0  0  0  0  0  0
  182.9400  180.6130  138.5240 C   0  0  0  0  0  3  0  0  0  0  0  0
  188.5570  173.7830  136.5100 O   0  0  0  0  0  0  0  0  0  0  0  0
  189.3400  174.7690  136.5300 C   0  0  0  0  0  0  0  0  0  0  0  0
  187.5360  176.3700  137.3500 C   0  0  0  0  0  0  0  0  0  0  0  0
  188.8740  176.0630  136.9390 N   0  0  0  0  0  2  0  0  0  0  0  0
  186.6380  175.4860  137.3350 O   0  0  0  0  0  0  0  0  0  0  0  0
  191.6580  174.1540  137.0740 C   0  0  0  0  0  1  0  0  0  0  0  0
  190.6700  174.5860  136.1510 O   0  0  0  0  0  0  0  0  0  0  0  0
  1 20  1  0  0  0  0
  1 18  1  0  0  0  0
  2  6  2  0  0  0  0
  2 16  1  0  0  0  0
  4 18  1  0  0  0  0
  4  8  2  0  0  0  0
  5  2  1  1  0  0  0
  6  4  1  0  0  0  0
  7  3  1  6  0  0  0
  7 19  1  0  0  0  0
  7  5  1  0  0  0  0
  9 13  1  1  0  0  0
  9  6  1  0  0  0  0
 10  1  1  0  0  0  0
 11 16  1  0  0  0  0
 12  8  1  0  0  0  0
 13  1  1  0  0  0  0
 14 33  1  1  0  0  0
 14 21  1  0  0  0  0
 14 15  1  0  0  0  0
 15  3  1  6  0  0  0
 16 12  2  0  0  0  0
 17 22  1  6  0  0  0
 17  5  1  0  0  0  0
 17  9  1  0  0  0  0
 19 25  1  6  0  0  0
 19 23  1  0  0  0  0
 21 15  1  0  0  0  0
 21 22  1  1  0  0  0
 23 11  1  0  0  0  0
 24 25  1  0  0  0  0
 25 26  2  0  0  0  0
 28 29  2  0  0  0  0
 29 27  1  0  0  0  0
 29 26  1  0  0  0  0
 30 28  1  0  0  0  0
 30 24  2  0  0  0  0
 31 32  2  0  0  0  0
 32 34  1  0  0  0  0
 34 33  1  0  0  0  0
 35 33  2  0  0  0  0
 37 32  1  0  0  0  0
 37 36  1  0  0  0  0
M  END
>  <MODEL>
2

>  <REMARK>
 VINA RESULT:      -7.9      1.493      1.971
  Name = 
  3 active torsions:
  status: ('A' for Active; 'I' for Inactive)
    1  A    between atoms: C_4  and  O_37
    2  A    between atoms: C_8  and  C_18
    3  A    between atoms: C_23  and  C_30
                            x       y       z     vdW  Elec       q    Type
                         _______ _______ _______ _____ _____    ______ ____

>  <TORSDO>
F 3

$$$$
=
 OpenBabel11122411353D

 37 43  0  0  1  0  0  0  0  0999 V2000
  190.2180  178.2250  143.6010 C   0  0  0  0  0  0  0  0  0  0  0  0
  186.2180  177.9380  142.3750 C   0  0  0  0  0  0  0  0  0  0  0  0
  185.6810  178.9970  138.6620 O   0  0  0  0  0  0  0  0  0  0  0  0
  187.7330  178.0420  144.2500 C   0  0  0  0  0  0  0  0  0  0  0  0
  186.3440  177.9140  140.8890 C   0  0  1  0  0  3  0  0  0  0  0  0
  187.4730  177.8570  142.8970 C   0  0  0  0  0  0  0  0  0  0  0  0
  185.4080  178.8910  140.0730 C   0  0  2  0  0  3  0  0  0  0  0  0
  186.6380  178.1690  145.1180 C   0  0  0  0  0  3  0  0  0  0  0  0
  188.4820  177.7300  141.8400 C   0  0  2  0  0  3  0  0  0  0  0  0
  190.8100  176.8280  143.5550 C   0  0  0  0  0  1  0  0  0  0  0  0
  183.7070  177.9470  142.7000 C   0  0  0  0  0  2  0  0  0  0  0  0
  185.3240  178.1250  144.6050 C   0  0  0  0  0  3  0  0  0  0  0  0
  189.6720  178.6120  142.2080 C   0  0  0  0  0  2  0  0  0  0  0  0
  187.1240  177.8170  136.9640 C   0  0  1  0  0  3  0  0  0  0  0  0
  186.3330  177.8320  138.2420 C   0  0  1  0  0  3  0  0  0  0  0  0
  185.1030  178.0170  143.2180 C   0  0  0  0  0  0  0  0  0  0  0  0
  187.7840  178.1870  140.6370 N   0  0  1  0  0  0  0  0  0  0  0  0
  189.1440  178.2860  144.7170 C   0  0  0  0  0  2  0  0  0  0  0  0
  183.9120  178.5910  140.2990 C   0  0  1  0  0  3  0  0  0  0  0  0
  191.3260  179.1910  143.9620 C   0  0  0  0  0  1  0  0  0  0  0  0
  187.7960  178.2470  138.2670 C   0  0  1  0  0  3  0  0  0  0  0  0
  188.2350  177.4300  139.4640 C   0  0  0  0  0  2  0  0  0  0  0  0
  183.4490  179.0370  141.6800 C   0  0  0  0  0  2  0  0  0  0  0  0
  182.4800  178.4060  138.2560 C   0  0  0  0  0  3  0  0  0  0  0  0
  183.0290  179.2150  139.2570 C   0  0  0  0  0  0  0  0  0  0  0  0
  182.7550  180.5920  139.2640 C   0  0  0  0  0  3  0  0  0  0  0  0
  181.6500  182.6070  138.2880 C   0  0  0  0  0  1  0  0  0  0  0  0
  181.3920  180.3370  137.2790 C   0  0  0  0  0  3  0  0  0  0  0  0
  181.9380  181.1500  138.2770 C   0  0  0  0  0  0  0  0  0  0  0  0
  181.6640  178.9660  137.2690 C   0  0  0  0  0  3  0  0  0  0  0  0
  188.5830  173.8610  135.7340 O   0  0  0  0  0  0  0  0  0  0  0  0
  189.2180  174.9120  135.4540 C   0  0  0  0  0  0  0  0  0  0  0  0
  187.5140  176.4210  136.5980 C   0  0  0  0  0  0  0  0  0  0  0  0
  188.7230  176.1950  135.8630 N   0  0  0  0  0  2  0  0  0  0  0  0
  186.7570  175.4610  136.9050 O   0  0  0  0  0  0  0  0  0  0  0  0
  191.5580  175.5750  135.0900 C   0  0  0  0  0  1  0  0  0  0  0  0
  190.4140  174.8120  134.7420 O   0  0  0  0  0  0  0  0  0  0  0  0
  1 20  1  0  0  0  0
  1 18  1  0  0  0  0
  2  6  2  0  0  0  0
  2 16  1  0  0  0  0
  4 18  1  0  0  0  0
  4  8  2  0  0  0  0
  5  2  1  1  0  0  0
  6  4  1  0  0  0  0
  7  3  1  6  0  0  0
  7 19  1  0  0  0  0
  7  5  1  0  0  0  0
  9 13  1  1  0  0  0
  9  6  1  0  0  0  0
 10  1  1  0  0  0  0
 11 16  1  0  0  0  0
 12  8  1  0  0  0  0
 13  1  1  0  0  0  0
 14 33  1  1  0  0  0
 14 15  1  0  0  0  0
 14 21  1  0  0  0  0
 15 21  1  0  0  0  0
 15  3  1  6  0  0  0
 16 12  2  0  0  0  0
 17 22  1  6  0  0  0
 17  5  1  0  0  0  0
 17  9  1  0  0  0  0
 19 25  1  6  0  0  0
 19 23  1  0  0  0  0
 21 22  1  1  0  0  0
 23 11  1  0  0  0  0
 24 25  1  0  0  0  0
 25 26  2  0  0  0  0
 28 29  2  0  0  0  0
 29 27  1  0  0  0  0
 29 26  1  0  0  0  0
 30 28  1  0  0  0  0
 30 24  2  0  0  0  0
 32 31  2  0  0  0  0
 32 34  1  0  0  0  0
 33 35  2  0  0  0  0
 34 33  1  0  0  0  0
 37 36  1  0  0  0  0
 37 32  1  0  0  0  0
M  END
>  <MODEL>
3

>  <REMARK>
 VINA RESULT:      -7.8      1.116      2.023
  Name = 
  3 active torsions:
  status: ('A' for Active; 'I' for Inactive)
    1  A    between atoms: C_4  and  O_37
    2  A    between atoms: C_8  and  C_18
    3  A    between atoms: C_23  and  C_30
                            x       y       z     vdW  Elec       q    Type
                         _______ _______ _______ _____ _____    ______ ____

>  <TORSDO>
F 3

$$$$
=
 OpenBabel11122411353D

 37 43  0  0  1  0  0  0  0  0999 V2000
  184.9370  178.8420  144.8700 C   0  0  0  0  0  0  0  0  0  0  0  0
  182.1770  178.5370  141.7280 C   0  0  0  0  0  0  0  0  0  0  0  0
  183.6520  179.6310  138.2900 O   0  0  0  0  0  0  0  0  0  0  0  0
  182.4830  178.6330  144.1200 C   0  0  0  0  0  0  0  0  0  0  0  0
  183.0620  178.5300  140.5290 C   0  0  1  0  0  3  0  0  0  0  0  0
  182.9730  178.4600  142.8300 C   0  0  0  0  0  0  0  0  0  0  0  0
  182.6820  179.5080  139.3480 C   0  0  2  0  0  3  0  0  0  0  0  0
  181.0940  178.7430  144.2860 C   0  0  0  0  0  3  0  0  0  0  0  0
  184.3870  178.3520  142.4580 C   0  0  2  0  0  3  0  0  0  0  0  0
  185.4830  177.4490  145.1340 C   0  0  0  0  0  1  0  0  0  0  0  0
  179.8680  178.5250  140.6900 C   0  0  0  0  0  2  0  0  0  0  0  0
  180.2450  178.6940  143.1600 C   0  0  0  0  0  3  0  0  0  0  0  0
  185.1980  179.2390  143.4000 C   0  0  0  0  0  2  0  0  0  0  0  0
  185.7840  178.4800  137.5940 C   0  0  1  0  0  3  0  0  0  0  0  0
  184.4410  178.4750  138.2680 C   0  0  1  0  0  3  0  0  0  0  0  0
  180.7840  178.5990  141.8630 C   0  0  0  0  0  0  0  0  0  0  0  0
  184.4180  178.8170  141.0700 N   0  0  1  0  0  0  0  0  0  0  0  0
  183.4370  178.8820  145.2580 C   0  0  0  0  0  2  0  0  0  0  0  0
  181.2930  179.1950  138.7550 C   0  0  1  0  0  3  0  0  0  0  0  0
  185.6810  179.8120  145.7630 C   0  0  0  0  0  1  0  0  0  0  0  0
  185.6690  178.9010  139.0570 C   0  0  1  0  0  3  0  0  0  0  0  0
  185.4250  178.0750  140.3030 C   0  0  0  0  0  2  0  0  0  0  0  0
  180.1690  179.6230  139.6910 C   0  0  0  0  0  2  0  0  0  0  0  0
  181.0550  179.0070  136.2720 C   0  0  0  0  0  3  0  0  0  0  0  0
  181.0780  179.8230  137.4080 C   0  0  0  0  0  0  0  0  0  0  0  0
  180.9140  181.2100  137.2690 C   0  0  0  0  0  3  0  0  0  0  0  0
  180.5540  183.2400  135.8600 C   0  0  0  0  0  1  0  0  0  0  0  0
  180.7040  180.9510  134.8710 C   0  0  0  0  0  3  0  0  0  0  0  0
  180.7270  181.7710  136.0030 C   0  0  0  0  0  0  0  0  0  0  0  0
  180.8690  179.5700  135.0060 C   0  0  0  0  0  3  0  0  0  0  0  0
  187.0260  174.2900  137.1550 O   0  0  0  0  0  0  0  0  0  0  0  0
  185.8310  174.6430  136.9770 C   0  0  0  0  0  0  0  0  0  0  0  0
  186.3250  177.0910  137.4800 C   0  0  0  0  0  0  0  0  0  0  0  0
  185.4440  176.0160  137.1270 N   0  0  0  0  0  2  0  0  0  0  0  0
  187.5410  176.8720  137.7310 O   0  0  0  0  0  0  0  0  0  0  0  0
  184.6610  172.5260  137.4220 C   0  0  0  0  0  1  0  0  0  0  0  0
  184.8850  173.6790  136.6260 O   0  0  0  0  0  0  0  0  0  0  0  0
  1 10  1  0  0  0  0
  1 18  1  0  0  0  0
  1 20  1  0  0  0  0
  2 16  2  0  0  0  0
  2  6  1  0  0  0  0
  4  8  1  0  0  0  0
  4 18  1  0  0  0  0
  5 17  1  0  0  0  0
  5  2  1  1  0  0  0
  6  4  2  0  0  0  0
  7  3  1  6  0  0  0
  7  5  1  0  0  0  0
  9  6  1  0  0  0  0
  9 13  1  1  0  0  0
 11 16  1  0  0  0  0
 12  8  2  0  0  0  0
 13  1  1  0  0  0  0
 14 33  1  1  0  0  0
 14 15  1  0  0  0  0
 14 21  1  0  0  0  0
 15  3  1  6  0  0  0
 15 21  1  0  0  0  0
 16 12  1  0  0  0  0
 17 22  1  6  0  0  0
 17  9  1  0  0  0  0
 19 25  1  6  0  0  0
 19  7  1  0  0  0  0
 19 23  1  0  0  0  0
 21 22  1  1  0  0  0
 23 11  1  0  0  0  0
 24 25  1  0  0  0  0
 26 25  2  0  0  0  0
 27 29  1  0  0  0  0
 28 30  1  0  0  0  0
 28 29  2  0  0  0  0
 29 26  1  0  0  0  0
 30 24  2  0  0  0  0
 32 34  1  0  0  0  0
 32 31  2  0  0  0  0
 33 35  2  0  0  0  0
 34 33  1  0  0  0  0
 37 32  1  0  0  0  0
 37 36  1  0  0  0  0
M  END
>  <MODEL>
4

>  <REMARK>
 VINA RESULT:      -7.2      2.488      3.822
  Name = 
  3 active torsions:
  status: ('A' for Active; 'I' for Inactive)
    1  A    between atoms: C_4  and  O_37
    2  A    between atoms: C_8  and  C_18
    3  A    between atoms: C_23  and  C_30
                            x       y       z     vdW  Elec       q    Type
                         _______ _______ _______ _____ _____    ______ ____

>  <TORSDO>
F 3

$$$$
=
 OpenBabel11122411353D

 37 43  0  0  1  0  0  0  0  0999 V2000
  182.7450  179.6340  138.7910 C   0  0  0  0  0  0  0  0  0  0  0  0
  185.4440  176.7820  137.3190 C   0  0  0  0  0  0  0  0  0  0  0  0
  189.1560  177.6120  138.1710 O   0  0  0  0  0  0  0  0  0  0  0  0
  183.2100  177.6830  137.1760 C   0  0  0  0  0  0  0  0  0  0  0  0
  186.6570  177.0380  138.1470 C   0  0  1  0  0  3  0  0  0  0  0  0
  184.4320  177.5390  137.8250 C   0  0  0  0  0  0  0  0  0  0  0  0
  188.0340  177.1700  137.3820 C   0  0  2  0  0  3  0  0  0  0  0  0
  182.9730  176.8970  136.0390 C   0  0  0  0  0  3  0  0  0  0  0  0
  184.8670  178.2890  139.0080 C   0  0  2  0  0  3  0  0  0  0  0  0
  182.1390  179.0730  140.0660 C   0  0  0  0  0  1  0  0  0  0  0  0
  186.2510  174.9890  135.7250 C   0  0  0  0  0  2  0  0  0  0  0  0
  183.9680  176.0090  135.5770 C   0  0  0  0  0  3  0  0  0  0  0  0
  184.2830  179.6970  138.9220 C   0  0  0  0  0  2  0  0  0  0  0  0
  189.6610  178.0060  140.6100 C   0  0  1  0  0  3  0  0  0  0  0  0
  188.9100  177.3030  139.5140 C   0  0  1  0  0  3  0  0  0  0  0  0
  185.2240  175.9510  136.2130 C   0  0  0  0  0  0  0  0  0  0  0  0
  186.3280  178.2710  138.9120 N   0  0  1  0  0  0  0  0  0  0  0  0
  182.2680  178.7850  137.5850 C   0  0  0  0  0  2  0  0  0  0  0  0
  188.4020  175.8830  136.6160 C   0  0  1  0  0  3  0  0  0  0  0  0
  182.2260  181.0450  138.6080 C   0  0  0  0  0  1  0  0  0  0  0  0
  188.3730  178.6160  140.0600 C   0  0  1  0  0  3  0  0  0  0  0  0
  186.9290  178.2010  140.2470 C   0  0  0  0  0  2  0  0  0  0  0  0
  187.5420  175.7000  135.3730 C   0  0  0  0  0  2  0  0  0  0  0  0
  190.2480  176.3950  135.0070 C   0  0  0  0  0  3  0  0  0  0  0  0
  189.8510  175.8320  136.2250 C   0  0  0  0  0  0  0  0  0  0  0  0
  190.8070  175.2210  137.0510 C   0  0  0  0  0  3  0  0  0  0  0  0
  193.1570  174.5290  137.5360 C   0  0  0  0  0  1  0  0  0  0  0  0
  192.5390  175.7410  135.4410 C   0  0  0  0  0  3  0  0  0  0  0  0
  192.1480  175.1770  136.6590 C   0  0  0  0  0  0  0  0  0  0  0  0
  191.5900  176.3490  134.6160 C   0  0  0  0  0  3  0  0  0  0  0  0
  188.7690  176.3780  144.5910 O   0  0  0  0  0  0  0  0  0  0  0  0
  188.4460  177.5530  144.2740 C   0  0  0  0  0  0  0  0  0  0  0  0
  189.4180  177.3440  141.9280 C   0  0  0  0  0  0  0  0  0  0  0  0
  188.7480  178.0670  142.9690 N   0  0  0  0  0  2  0  0  0  0  0  0
  189.8370  176.1720  142.1250 O   0  0  0  0  0  0  0  0  0  0  0  0
  186.7790  177.8250  146.0620 C   0  0  0  0  0  1  0  0  0  0  0  0
  187.7850  178.3500  145.2090 O   0  0  0  0  0  0  0  0  0  0  0  0
  1 13  1  0  0  0  0
  1 10  1  0  0  0  0
  2  6  1  0  0  0  0
  4 18  1  0  0  0  0
  4  6  2  0  0  0  0
  5  2  1  6  0  0  0
  5 17  1  0  0  0  0
  6  9  1  0  0  0  0
  7  5  1  0  0  0  0
  7  3  1  1  0  0  0
  8  4  1  0  0  0  0
  9 13  1  6  0  0  0
 11 16  1  0  0  0  0
 12  8  2  0  0  0  0
 12 16  1  0  0  0  0
 14 33  1  1  0  0  0
 15  3  1  6  0  0  0
 15 21  1  0  0  0  0
 15 14  1  0  0  0  0
 16  2  2  0  0  0  0
 17  9  1  0  0  0  0
 17 22  1  1  0  0  0
 18  1  1  0  0  0  0
 19 25  1  6  0  0  0
 19  7  1  0  0  0  0
 20  1  1  0  0  0  0
 21 22  1  1  0  0  0
 21 14  1  0  0  0  0
 23 11  1  0  0  0  0
 23 19  1  0  0  0  0
 24 25  1  0  0  0  0
 25 26  2  0  0  0  0
 28 29  2  0  0  0  0
 29 26  1  0  0  0  0
 29 27  1  0  0  0  0
 30 24  2  0  0  0  0
 30 28  1  0  0  0  0
 32 31  2  0  0  0  0
 32 37  1  0  0  0  0
 33 35  2  0  0  0  0
 33 34  1  0  0  0  0
 34 32  1  0  0  0  0
 37 36  1  0  0  0  0
M  END
>  <MODEL>
5

>  <REMARK>
 VINA RESULT:      -6.6      3.035      7.953
  Name = 
  3 active torsions:
  status: ('A' for Active; 'I' for Inactive)
    1  A    between atoms: C_4  and  O_37
    2  A    between atoms: C_8  and  C_18
    3  A    between atoms: C_23  and  C_30
                            x       y       z     vdW  Elec       q    Type
                         _______ _______ _______ _____ _____    ______ ____

>  <TORSDO>
F 3

$$$$
=
 OpenBabel11122411353D

 37 43  0  0  1  0  0  0  0  0999 V2000
  179.8650  179.0550  142.4370 C   0  0  0  0  0  0  0  0  0  0  0  0
  182.2490  177.0620  139.6220 C   0  0  0  0  0  0  0  0  0  0  0  0
  185.7830  178.6550  139.2140 O   0  0  0  0  0  0  0  0  0  0  0  0
  180.0120  177.4240  140.4500 C   0  0  0  0  0  0  0  0  0  0  0  0
  183.6200  177.5180  139.9890 C   0  0  1  0  0  3  0  0  0  0  0  0
  181.3940  177.5110  140.5810 C   0  0  0  0  0  0  0  0  0  0  0  0
  184.5430  178.0380  138.8170 C   0  0  2  0  0  3  0  0  0  0  0  0
  179.4990  176.7120  139.3560 C   0  0  0  0  0  3  0  0  0  0  0  0
  182.1110  178.2300  141.6390 C   0  0  2  0  0  3  0  0  0  0  0  0
  179.9150  178.2530  143.7260 C   0  0  0  0  0  1  0  0  0  0  0  0
  182.6850  175.6620  137.5580 C   0  0  0  0  0  2  0  0  0  0  0  0
  180.3800  176.1280  138.4200 C   0  0  0  0  0  3  0  0  0  0  0  0
  181.2940  179.4640  142.0160 C   0  0  0  0  0  2  0  0  0  0  0  0
  187.1150  178.9310  141.3360 C   0  0  1  0  0  3  0  0  0  0  0  0
  186.1390  178.1750  140.4790 C   0  0  1  0  0  3  0  0  0  0  0  0
  181.7720  176.3080  138.5420 C   0  0  0  0  0  0  0  0  0  0  0  0
  183.3970  178.5640  141.0230 N   0  0  1  0  0  0  0  0  0  0  0  0
  179.1200  178.2320  141.3560 C   0  0  0  0  0  2  0  0  0  0  0  0
  184.8120  176.9490  137.7580 C   0  0  1  0  0  3  0  0  0  0  0  0
  179.0690  180.3150  142.7020 C   0  0  0  0  0  1  0  0  0  0  0  0
  185.6280  179.2710  141.4020 C   0  0  1  0  0  3  0  0  0  0  0  0
  184.4710  178.5140  142.0200 C   0  0  0  0  0  2  0  0  0  0  0  0
  183.5850  176.6850  136.8950 C   0  0  0  0  0  2  0  0  0  0  0  0
  185.7380  177.8020  135.5960 C   0  0  0  0  0  3  0  0  0  0  0  0
  185.9780  177.2750  136.8700 C   0  0  0  0  0  0  0  0  0  0  0  0
  187.2990  177.0490  137.2890 C   0  0  0  0  0  3  0  0  0  0  0  0
  189.7620  177.1090  136.8860 C   0  0  0  0  0  1  0  0  0  0  0  0
  188.1200  177.8780  135.1680 C   0  0  0  0  0  3  0  0  0  0  0  0
  188.3660  177.3500  136.4390 C   0  0  0  0  0  0  0  0  0  0  0  0
  186.8070  178.1020  134.7470 C   0  0  0  0  0  3  0  0  0  0  0  0
  188.1110  176.7530  145.0180 O   0  0  0  0  0  0  0  0  0  0  0  0
  187.3720  177.7720  145.0370 C   0  0  0  0  0  0  0  0  0  0  0  0
  187.5280  178.1130  142.5180 C   0  0  0  0  0  0  0  0  0  0  0  0
  187.0600  178.4710  143.8240 N   0  0  0  0  0  2  0  0  0  0  0  0
  188.3130  177.1390  142.3580 O   0  0  0  0  0  0  0  0  0  0  0  0
  185.6810  179.0030  146.3300 C   0  0  0  0  0  1  0  0  0  0  0  0
  186.8560  178.2120  146.2570 O   0  0  0  0  0  0  0  0  0  0  0  0
  1 20  1  0  0  0  0
  1 10  1  0  0  0  0
  2  6  1  0  0  0  0
  4  6  2  0  0  0  0
  4 18  1  0  0  0  0
  5  2  1  6  0  0  0
  5 17  1  0  0  0  0
  6  9  1  0  0  0  0
  7  3  1  1  0  0  0
  7  5  1  0  0  0  0
  8  4  1  0  0  0  0
  9 13  1  6  0  0  0
 11 16  1  0  0  0  0
 12 16  1  0  0  0  0
 12  8  2  0  0  0  0
 13  1  1  0  0  0  0
 14 21  1  0  0  0  0
 14 33  1  1  0  0  0
 15  3  1  6  0  0  0
 15 14  1  0  0  0  0
 15 21  1  0  0  0  0
 16  2  2  0  0  0  0
 17  9  1  0  0  0  0
 17 22  1  1  0  0  0
 18  1  1  0  0  0  0
 19 25  1  6  0  0  0
 19  7  1  0  0  0  0
 21 22  1  1  0  0  0
 23 11  1  0  0  0  0
 23 19  1  0  0  0  0
 24 25  1  0  0  0  0
 25 26  2  0  0  0  0
 28 29  2  0  0  0  0
 29 27  1  0  0  0  0
 29 26  1  0  0  0  0
 30 28  1  0  0  0  0
 30 24  2  0  0  0  0
 31 32  2  0  0  0  0
 32 37  1  0  0  0  0
 33 34  1  0  0  0  0
 34 32  1  0  0  0  0
 35 33  2  0  0  0  0
 37 36  1  0  0  0  0
M  END
>  <MODEL>
6

>  <REMARK>
 VINA RESULT:      -6.5      3.087      7.235
  Name = 
  3 active torsions:
  status: ('A' for Active; 'I' for Inactive)
    1  A    between atoms: C_4  and  O_37
    2  A    between atoms: C_8  and  C_18
    3  A    between atoms: C_23  and  C_30
                            x       y       z     vdW  Elec       q    Type
                         _______ _______ _______ _____ _____    ______ ____

>  <TORSDO>
F 3

$$$$
=
 OpenBabel11122411353D

 37 43  0  0  1  0  0  0  0  0999 V2000
  183.2120  176.1600  135.6360 C   0  0  0  0  0  0  0  0  0  0  0  0
  186.9030  174.2430  136.1700 C   0  0  0  0  0  0  0  0  0  0  0  0
  189.8100  176.7180  136.9550 O   0  0  0  0  0  0  0  0  0  0  0  0
  184.6580  174.0560  135.3050 C   0  0  0  0  0  0  0  0  0  0  0  0
  187.6920  175.2740  136.9020 C   0  0  1  0  0  3  0  0  0  0  0  0
  185.6190  174.6860  136.0880 C   0  0  0  0  0  0  0  0  0  0  0  0
  189.1430  175.5880  136.3610 C   0  0  2  0  0  3  0  0  0  0  0  0
  185.0000  172.8360  134.7010 C   0  0  0  0  0  3  0  0  0  0  0  0
  185.4550  175.9720  136.7750 C   0  0  2  0  0  3  0  0  0  0  0  0
  182.4300  176.0110  136.9300 C   0  0  0  0  0  1  0  0  0  0  0  0
  188.6120  172.4080  135.8200 C   0  0  0  0  0  2  0  0  0  0  0  0
  186.2910  172.2980  134.8840 C   0  0  0  0  0  3  0  0  0  0  0  0
  184.5610  176.8620  135.9140 C   0  0  0  0  0  2  0  0  0  0  0  0
  189.4300  178.2760  138.9010 C   0  0  1  0  0  3  0  0  0  0  0  0
  189.2670  176.9430  138.2250 C   0  0  1  0  0  3  0  0  0  0  0  0
  187.2630  173.0060  135.6180 C   0  0  0  0  0  0  0  0  0  0  0  0
  186.8230  176.4810  136.8890 N   0  0  1  0  0  0  0  0  0  0  0  0
  183.3720  174.7670  134.9760 C   0  0  0  0  0  2  0  0  0  0  0  0
  190.0630  174.3510  136.4050 C   0  0  1  0  0  3  0  0  0  0  0  0
  182.4060  177.0350  134.7010 C   0  0  0  0  0  1  0  0  0  0  0  0
  188.2510  178.0430  137.9580 C   0  0  1  0  0  3  0  0  0  0  0  0
  186.9900  177.2250  138.1420 C   0  0  0  0  0  2  0  0  0  0  0  0
  189.7010  173.3380  135.3260 C   0  0  0  0  0  2  0  0  0  0  0  0
  191.9940  175.2250  135.0760 C   0  0  0  0  0  3  0  0  0  0  0  0
  191.5180  174.7020  136.2840 C   0  0  0  0  0  0  0  0  0  0  0  0
  192.4070  174.5030  137.3520 C   0  0  0  0  0  3  0  0  0  0  0  0
  194.6970  174.6160  138.3430 C   0  0  0  0  0  1  0  0  0  0  0  0
  194.2290  175.3510  136.0010 C   0  0  0  0  0  3  0  0  0  0  0  0
  193.7590  174.8270  137.2090 C   0  0  0  0  0  0  0  0  0  0  0  0
  193.3470  175.5480  134.9360 C   0  0  0  0  0  3  0  0  0  0  0  0
  188.3920  177.7760  143.1400 O   0  0  0  0  0  0  0  0  0  0  0  0
  189.2200  177.0170  142.5720 C   0  0  0  0  0  0  0  0  0  0  0  0
  188.9930  178.2030  140.3290 C   0  0  0  0  0  0  0  0  0  0  0  0
  189.5440  177.1950  141.1860 N   0  0  0  0  0  2  0  0  0  0  0  0
  188.1170  179.0030  140.7550 O   0  0  0  0  0  0  0  0  0  0  0  0
  191.2140  176.0020  143.5940 C   0  0  0  0  0  1  0  0  0  0  0  0
  189.8230  175.9990  143.3120 O   0  0  0  0  0  0  0  0  0  0  0  0
  1 13  1  0  0  0  0
  1 10  1  0  0  0  0
  4  6  2  0  0  0  0
  5  2  1  6  0  0  0
  6  2  1  0  0  0  0
  6  9  1  0  0  0  0
  7 19  1  0  0  0  0
  7  5  1  0  0  0  0
  7  3  1  1  0  0  0
  8 12  2  0  0  0  0
  8  4  1  0  0  0  0
  9 13  1  6  0  0  0
  9 17  1  0  0  0  0
 12 16  1  0  0  0  0
 14 33  1  1  0  0  0
 15  3  1  6  0  0  0
 15 14  1  0  0  0  0
 16 11  1  0  0  0  0
 16  2  2  0  0  0  0
 17  5  1  0  0  0  0
 17 22  1  1  0  0  0
 18  4  1  0  0  0  0
 18  1  1  0  0  0  0
 19 25  1  6  0  0  0
 20  1  1  0  0  0  0
 21 22  1  1  0  0  0
 21 15  1  0  0  0  0
 21 14  1  0  0  0  0
 23 11  1  0  0  0  0
 23 19  1  0  0  0  0
 24 25  1  0  0  0  0
 25 26  2  0  0  0  0
 28 29  2  0  0  0  0
 29 26  1  0  0  0  0
 29 27  1  0  0  0  0
 30 24  2  0  0  0  0
 30 28  1  0  0  0  0
 32 31  2  0  0  0  0
 32 37  1  0  0  0  0
 33 35  2  0  0  0  0
 33 34  1  0  0  0  0
 34 32  1  0  0  0  0
 37 36  1  0  0  0  0
M  END
>  <MODEL>
7

>  <REMARK>
 VINA RESULT:      -6.3      3.490      9.081
  Name = 
  3 active torsions:
  status: ('A' for Active; 'I' for Inactive)
    1  A    between atoms: C_4  and  O_37
    2  A    between atoms: C_8  and  C_18
    3  A    between atoms: C_23  and  C_30
                            x       y       z     vdW  Elec       q    Type
                         _______ _______ _______ _____ _____    ______ ____

>  <TORSDO>
F 3

$$$$
=
 OpenBabel11122411353D

 37 43  0  0  1  0  0  0  0  0999 V2000
  190.5730  178.2500  143.8040 C   0  0  0  0  0  0  0  0  0  0  0  0
  186.4030  177.9110  143.5340 C   0  0  0  0  0  0  0  0  0  0  0  0
  184.9820  179.2090  140.1440 O   0  0  0  0  0  0  0  0  0  0  0  0
  188.3170  177.9360  145.0030 C   0  0  0  0  0  0  0  0  0  0  0  0
  186.1730  177.9960  142.0640 C   0  0  1  0  0  3  0  0  0  0  0  0
  187.7460  177.8370  143.7390 C   0  0  0  0  0  0  0  0  0  0  0  0
  185.0530  178.9950  141.5670 C   0  0  2  0  0  3  0  0  0  0  0  0
  187.4570  177.9630  146.1110 C   0  0  0  0  0  3  0  0  0  0  0  0
  188.4780  177.8200  142.4670 C   0  0  2  0  0  3  0  0  0  0  0  0
  191.1620  176.8800  143.5130 C   0  0  0  0  0  1  0  0  0  0  0  0
  184.0410  177.8110  144.4410 C   0  0  0  0  0  2  0  0  0  0  0  0
  186.0600  177.9100  145.9200 C   0  0  0  0  0  3  0  0  0  0  0  0
  189.7070  178.7150  142.6120 C   0  0  0  0  0  2  0  0  0  0  0  0
  186.0010  178.2030  138.0700 C   0  0  1  0  0  3  0  0  0  0  0  0
  185.5350  178.1000  139.4950 C   0  0  1  0  0  3  0  0  0  0  0  0
  185.5170  177.8930  144.6200 C   0  0  0  0  0  0  0  0  0  0  0  0
  187.5070  178.3370  141.5010 N   0  0  1  0  0  0  0  0  0  0  0  0
  189.7940  178.1940  145.1420 C   0  0  0  0  0  2  0  0  0  0  0  0
  183.6590  178.6290  142.1150 C   0  0  1  0  0  3  0  0  0  0  0  0
  191.7190  179.2260  143.9660 C   0  0  0  0  0  1  0  0  0  0  0  0
  186.9550  178.5630  139.2060 C   0  0  1  0  0  3  0  0  0  0  0  0
  187.6790  177.6800  140.2010 C   0  0  0  0  0  2  0  0  0  0  0  0
  183.5290  178.9600  143.5960 C   0  0  0  0  0  2  0  0  0  0  0  0
  181.2970  179.4440  141.9810 C   0  0  0  0  0  3  0  0  0  0  0  0
  182.5430  179.2930  141.3620 C   0  0  0  0  0  0  0  0  0  0  0  0
  182.7240  179.7540  140.0480 C   0  0  0  0  0  3  0  0  0  0  0  0
  181.8620  180.8450  137.9740 C   0  0  0  0  0  1  0  0  0  0  0  0
  180.4240  180.5070  139.9880 C   0  0  0  0  0  3  0  0  0  0  0  0
  181.6660  180.3590  139.3640 C   0  0  0  0  0  0  0  0  0  0  0  0
  180.2400  180.0490  141.2960 C   0  0  0  0  0  3  0  0  0  0  0  0
  187.2660  174.3680  136.3420 O   0  0  0  0  0  0  0  0  0  0  0  0
  188.0030  175.3870  136.2900 C   0  0  0  0  0  0  0  0  0  0  0  0
  186.3170  176.8500  137.5160 C   0  0  0  0  0  0  0  0  0  0  0  0
  187.5710  176.6310  136.8580 N   0  0  0  0  0  2  0  0  0  0  0  0
  185.4620  175.9270  137.5990 O   0  0  0  0  0  0  0  0  0  0  0  0
  189.7710  174.0470  135.2280 C   0  0  0  0  0  1  0  0  0  0  0  0
  189.2510  175.2890  135.6740 O   0  0  0  0  0  0  0  0  0  0  0  0
  1 20  1  0  0  0  0
  1 18  1  0  0  0  0
  2  6  2  0  0  0  0
  2 16  1  0  0  0  0
  4 18  1  0  0  0  0
  4  8  2  0  0  0  0
  5  2  1  1  0  0  0
  6  4  1  0  0  0  0
  7  3  1  6  0  0  0
  7  5  1  0  0  0  0
  7 19  1  0  0  0  0
  9 13  1  1  0  0  0
  9  6  1  0  0  0  0
 10  1  1  0  0  0  0
 11 16  1  0  0  0  0
 12  8  1  0  0  0  0
 13  1  1  0  0  0  0
 14 33  1  1  0  0  0
 14 21  1  0  0  0  0
 14 15  1  0  0  0  0
 15  3  1  6  0  0  0
 16 12  2  0  0  0  0
 17 22  1  6  0  0  0
 17  5  1  0  0  0  0
 17  9  1  0  0  0  0
 19 25  1  6  0  0  0
 19 23  1  0  0  0  0
 21 15  1  0  0  0  0
 21 22  1  1  0  0  0
 23 11  1  0  0  0  0
 25 24  1  0  0  0  0
 26 25  2  0  0  0  0
 27 29  1  0  0  0  0
 28 30  1  0  0  0  0
 29 28  2  0  0  0  0
 29 26  1  0  0  0  0
 30 24  2  0  0  0  0
 32 31  2  0  0  0  0
 32 34  1  0  0  0  0
 33 35  2  0  0  0  0
 34 33  1  0  0  0  0
 36 37  1  0  0  0  0
 37 32  1  0  0  0  0
M  END
>  <MODEL>
8

>  <REMARK>
 VINA RESULT:      -6.2      1.393      2.078
  Name = 
  3 active torsions:
  status: ('A' for Active; 'I' for Inactive)
    1  A    between atoms: C_4  and  O_37
    2  A    between atoms: C_8  and  C_18
    3  A    between atoms: C_23  and  C_30
                            x       y       z     vdW  Elec       q    Type
                         _______ _______ _______ _____ _____    ______ ____

>  <TORSDO>
F 3

$$$$
=
 OpenBabel11122411353D

 37 43  0  0  1  0  0  0  0  0999 V2000
  185.8720  178.3340  144.5290 C   0  0  0  0  0  0  0  0  0  0  0  0
  185.6250  178.3830  140.3440 C   0  0  0  0  0  0  0  0  0  0  0  0
  182.1590  177.2040  139.0050 O   0  0  0  0  0  0  0  0  0  0  0  0
  187.0890  178.4050  142.2610 C   0  0  0  0  0  0  0  0  0  0  0  0
  184.1520  178.3760  140.1130 C   0  0  1  0  0  3  0  0  0  0  0  0
  185.8340  178.5420  141.6790 C   0  0  0  0  0  0  0  0  0  0  0  0
  183.5930  177.3310  139.0670 C   0  0  2  0  0  3  0  0  0  0  0  0
  188.1940  178.2440  141.4110 C   0  0  0  0  0  3  0  0  0  0  0  0
  184.5660  178.6940  142.4020 C   0  0  2  0  0  3  0  0  0  0  0  0
  185.6690  179.7580  145.0150 C   0  0  0  0  0  1  0  0  0  0  0  0
  186.5370  178.2530  137.9850 C   0  0  0  0  0  2  0  0  0  0  0  0
  188.0060  178.2070  140.0130 C   0  0  0  0  0  3  0  0  0  0  0  0
  184.6530  177.8840  143.6930 C   0  0  0  0  0  2  0  0  0  0  0  0
  180.1530  178.4120  139.9380 C   0  0  1  0  0  3  0  0  0  0  0  0
  181.5820  178.3900  139.4730 C   0  0  1  0  0  3  0  0  0  0  0  0
  186.7100  178.2680  139.4650 C   0  0  0  0  0  0  0  0  0  0  0  0
  183.5690  178.1700  141.4660 N   0  0  1  0  0  0  0  0  0  0  0  0
  187.2120  178.2470  143.7540 C   0  0  0  0  0  2  0  0  0  0  0  0
  184.1640  177.5590  137.6530 C   0  0  1  0  0  3  0  0  0  0  0  0
  185.9720  177.4360  145.7440 C   0  0  0  0  0  1  0  0  0  0  0  0
  181.2640  178.0510  140.9210 C   0  0  1  0  0  3  0  0  0  0  0  0
  182.3140  178.9190  141.5840 C   0  0  0  0  0  2  0  0  0  0  0  0
  185.6200  177.1250  137.5550 C   0  0  0  0  0  2  0  0  0  0  0  0
  182.4970  177.6140  135.7880 C   0  0  0  0  0  3  0  0  0  0  0  0
  183.3690  176.8640  136.5850 C   0  0  0  0  0  0  0  0  0  0  0  0
  183.4770  175.4790  136.3820 C   0  0  0  0  0  3  0  0  0  0  0  0
  182.8350  173.3890  135.1760 C   0  0  0  0  0  1  0  0  0  0  0  0
  181.8490  175.6090  134.5940 C   0  0  0  0  0  3  0  0  0  0  0  0
  182.7180  174.8550  135.3880 C   0  0  0  0  0  0  0  0  0  0  0  0
  181.7380  176.9880  134.7950 C   0  0  0  0  0  3  0  0  0  0  0  0
  178.9310  182.6220  140.2280 O   0  0  0  0  0  0  0  0  0  0  0  0
  179.5840  182.1930  139.2400 C   0  0  0  0  0  0  0  0  0  0  0  0
  179.6870  179.8170  140.1520 C   0  0  0  0  0  0  0  0  0  0  0  0
  179.9760  180.8150  139.1650 N   0  0  0  0  0  2  0  0  0  0  0  0
  179.0800  180.1180  141.2150 O   0  0  0  0  0  0  0  0  0  0  0  0
  181.1560  182.9900  137.5250 C   0  0  0  0  0  1  0  0  0  0  0  0
  179.9190  183.0780  138.2140 O   0  0  0  0  0  0  0  0  0  0  0  0
  1 10  1  0  0  0  0
  1 20  1  0  0  0  0
  2  6  1  0  0  0  0
  4 18  1  0  0  0  0
  5  2  1  1  0  0  0
  5 17  1  0  0  0  0
  6  4  2  0  0  0  0
  6  9  1  0  0  0  0
  7  3  1  6  0  0  0
  7  5  1  0  0  0  0
  8  4  1  0  0  0  0
  9 13  1  1  0  0  0
 11 16  1  0  0  0  0
 12  8  2  0  0  0  0
 13  1  1  0  0  0  0
 14 33  1  1  0  0  0
 14 21  1  0  0  0  0
 15  3  1  6  0  0  0
 15 14  1  0  0  0  0
 15 21  1  0  0  0  0
 16 12  1  0  0  0  0
 16  2  2  0  0  0  0
 17 22  1  6  0  0  0
 17  9  1  0  0  0  0
 18  1  1  0  0  0  0
 19 25  1  6  0  0  0
 19  7  1  0  0  0  0
 21 22  1  1  0  0  0
 23 19  1  0  0  0  0
 23 11  1  0  0  0  0
 24 25  1  0  0  0  0
 26 25  2  0  0  0  0
 27 29  1  0  0  0  0
 28 30  1  0  0  0  0
 28 29  2  0  0  0  0
 29 26  1  0  0  0  0
 30 24  2  0  0  0  0
 32 31  2  0  0  0  0
 33 35  2  0  0  0  0
 34 32  1  0  0  0  0
 34 33  1  0  0  0  0
 36 37  1  0  0  0  0
 37 32  1  0  0  0  0
M  END
>  <MODEL>
9

>  <REMARK>
 VINA RESULT:      -6.2      3.244      6.443
  Name = 
  3 active torsions:
  status: ('A' for Active; 'I' for Inactive)
    1  A    between atoms: C_4  and  O_37
    2  A    between atoms: C_8  and  C_18
    3  A    between atoms: C_23  and  C_30
                            x       y       z     vdW  Elec       q    Type
                         _______ _______ _______ _____ _____    ______ ____

>  <TORSDO>
F 3

$$$$
