=
 OpenBabel11122412033D

 34 42  0  0  1  0  0  0  0  0999 V2000
  185.7260  178.4740  142.1390 C   0  0  0  0  0  0  0  0  0  0  0  0
  185.0810  178.7520  139.8040 C   0  0  0  0  0  3  0  0  0  0  0  0
  190.3560  177.1260  146.8050 C   0  0  2  0  0  0  0  0  0  0  0  0
  186.6150  178.1270  144.4000 C   0  0  0  0  0  0  0  0  0  0  0  0
  188.9740  177.5660  144.6820 C   0  0  0  0  0  0  0  0  0  0  0  0
  191.4730  176.9620  145.2340 C   0  0  2  0  0  3  0  0  0  0  0  0
  191.7360  176.8230  146.5810 O   0  0  0  0  0  0  0  0  0  0  0  0
  188.1980  177.5620  147.8050 C   0  0  0  0  0  3  0  0  0  0  0  0
  187.1420  178.2410  140.2320 C   0  0  0  0  0  0  0  0  0  0  0  0
  189.4190  178.0470  138.0640 C   0  0  0  0  0  2  0  0  0  0  0  0
  189.1370  177.6100  143.2940 C   0  0  0  0  0  3  0  0  0  0  0  0
  187.4250  177.8060  146.6580 C   0  0  0  0  0  2  0  0  0  0  0  0
  188.2690  177.9360  141.0300 C   0  0  0  0  0  0  0  0  0  0  0  0
  185.6810  178.6490  138.6000 N   0  0  0  0  0  0  0  0  0  0  0  0
  187.7000  177.8240  145.2670 C   0  0  0  0  0  0  0  0  0  0  0  0
  189.5480  177.2460  147.9060 C   0  0  0  0  0  3  0  0  0  0  0  0
  187.9600  178.0320  137.7740 C   0  0  0  0  0  0  0  0  0  0  0  0
  186.8060  178.1630  142.9950 C   0  0  2  0  0  3  0  0  0  0  0  0
  190.0920  177.2670  145.4320 C   0  0  2  0  0  3  0  0  0  0  0  0
  188.0770  177.9000  142.4350 C   0  0  0  0  0  0  0  0  0  0  0  0
  184.2650  178.7030  144.0540 C   0  0  0  0  0  3  0  0  0  0  0  0
  189.7450  177.0670  139.1660 C   0  0  0  0  0  2  0  0  0  0  0  0
  185.3280  178.4010  144.9060 C   0  0  0  0  0  3  0  0  0  0  0  0
  189.6670  177.8020  140.4840 C   0  0  0  0  0  2  0  0  0  0  0  0
  186.9700  178.3190  138.8500 C   0  0  0  0  0  0  0  0  0  0  0  0
  184.4610  178.7400  142.6740 C   0  0  0  0  0  3  0  0  0  0  0  0
  185.9500  178.4980  140.8000 N   0  0  0  0  0  0  0  0  0  0  0  0
  187.6150  177.7710  136.5440 N   0  0  0  0  0  0  0  0  0  0  0  0
  186.2540  177.6540  136.0320 C   0  0  0  0  0  2  0  0  0  0  0  0
  187.5270  174.6900  136.5490 O   0  0  0  0  0  0  0  0  0  0  0  0
  185.3260  175.4960  136.8140 C   0  0  0  0  0  2  0  0  0  0  0  0
  185.9480  176.2130  135.6520 C   0  0  2  0  0  3  0  0  0  0  0  0
  186.2770  174.3570  137.0880 C   0  0  0  0  0  2  0  0  0  0  0  0
  187.2410  175.4680  135.4160 C   0  0  0  0  0  2  0  0  0  0  0  0
  1 26  2  0  0  0  0
  2 27  1  0  0  0  0
  3 16  1  6  0  0  0
  4 23  1  0  0  0  0
  4 15  2  0  0  0  0
  5 15  1  0  0  0  0
  6 19  1  0  0  0  0
  6  7  1  1  0  0  0
  6  3  1  0  0  0  0
  7  3  1  0  0  0  0
  8 16  2  0  0  0  0
  9 27  1  0  0  0  0
  9 13  1  0  0  0  0
 10 22  1  0  0  0  0
 11  5  2  0  0  0  0
 12  8  1  0  0  0  0
 13 20  2  0  0  0  0
 14 25  1  0  0  0  0
 14  2  2  0  0  0  0
 15 12  1  0  0  0  0
 17 10  1  0  0  0  0
 17 25  1  0  0  0  0
 18  1  1  1  0  0  0
 18  4  1  0  0  0  0
 19  5  1  6  0  0  0
 19  3  1  0  0  0  0
 20 18  1  0  0  0  0
 20 11  1  0  0  0  0
 21 23  2  0  0  0  0
 22 24  1  0  0  0  0
 24 13  1  0  0  0  0
 25  9  2  0  0  0  0
 26 21  1  0  0  0  0
 27  1  1  0  0  0  0
 28 17  2  0  0  0  0
 29 28  1  0  0  0  0
 30 33  1  0  0  0  0
 31 33  1  0  0  0  0
 32 29  1  1  0  0  0
 32 31  1  0  0  0  0
 34 32  1  0  0  0  0
 34 30  1  0  0  0  0
M  END
>  <MODEL>
1

>  <REMARK>
 VINA RESULT:     -12.1      0.000      0.000
  Name = 
  2 active torsions:
  status: ('A' for Active; 'I' for Inactive)
    1  A    between atoms: N_28  and  C_29
    2  A    between atoms: C_29  and  C_32
                            x       y       z     vdW  Elec       q    Type
                         _______ _______ _______ _____ _____    ______ ____

>  <TORSDO>
F 2

$$$$
=
 OpenBabel11122412033D

 34 42  0  0  1  0  0  0  0  0999 V2000
  184.5850  178.5040  144.5290 C   0  0  0  0  0  0  0  0  0  0  0  0
  182.3940  179.0220  143.5940 C   0  0  0  0  0  3  0  0  0  0  0  0
  191.1100  177.1540  143.7350 C   0  0  2  0  0  0  0  0  0  0  0  0
  186.8760  177.9630  145.2210 C   0  0  0  0  0  0  0  0  0  0  0  0
  188.6060  177.7000  143.5180 C   0  0  0  0  0  0  0  0  0  0  0  0
  190.6320  177.3730  141.8740 C   0  0  2  0  0  3  0  0  0  0  0  0
  191.8260  177.0810  142.4980 O   0  0  0  0  0  0  0  0  0  0  0  0
  190.4850  177.1400  146.0710 C   0  0  0  0  0  3  0  0  0  0  0  0
  184.0430  178.7450  142.2180 C   0  0  0  0  0  0  0  0  0  0  0  0
  183.8590  179.1800  139.1030 C   0  0  0  0  0  2  0  0  0  0  0  0
  187.6550  177.9630  142.5290 C   0  0  0  0  0  3  0  0  0  0  0  0
  189.1160  177.4370  145.9750 C   0  0  0  0  0  2  0  0  0  0  0  0
  185.3740  178.4870  141.8160 C   0  0  0  0  0  0  0  0  0  0  0  0
  181.8610  179.1770  142.3640 N   0  0  0  0  0  0  0  0  0  0  0  0
  188.2330  177.6920  144.8940 C   0  0  0  0  0  0  0  0  0  0  0  0
  191.4290  177.0030  145.0600 C   0  0  0  0  0  3  0  0  0  0  0  0
  182.6940  179.0050  140.0100 C   0  0  0  0  0  0  0  0  0  0  0  0
  185.9300  178.2260  144.1980 C   0  0  2  0  0  3  0  0  0  0  0  0
  189.8960  177.4530  143.0940 C   0  0  2  0  0  3  0  0  0  0  0  0
  186.3200  178.2250  142.8390 C   0  0  0  0  0  0  0  0  0  0  0  0
  185.1040  178.2530  146.8790 C   0  0  0  0  0  3  0  0  0  0  0  0
  184.8900  178.1070  139.3600 C   0  0  0  0  0  2  0  0  0  0  0  0
  186.4350  177.9810  146.5590 C   0  0  0  0  0  3  0  0  0  0  0  0
  185.8590  178.6280  140.3960 C   0  0  0  0  0  2  0  0  0  0  0  0
  182.8790  178.9950  141.4900 C   0  0  0  0  0  0  0  0  0  0  0  0
  184.1810  178.5140  145.8680 C   0  0  0  0  0  3  0  0  0  0  0  0
  183.7100  178.7510  143.5200 N   0  0  0  0  0  0  0  0  0  0  0  0
  181.5280  178.8790  139.4420 N   0  0  0  0  0  0  0  0  0  0  0  0
  180.2550  178.6490  140.1170 C   0  0  0  0  0  2  0  0  0  0  0  0
  181.0510  175.5840  139.3130 O   0  0  0  0  0  0  0  0  0  0  0  0
  179.3010  176.4280  140.6510 C   0  0  0  0  0  2  0  0  0  0  0  0
  179.5660  177.4160  139.5520 C   0  0  2  0  0  3  0  0  0  0  0  0
  180.0560  175.1940  140.2180 C   0  0  0  0  0  2  0  0  0  0  0  0
  180.5130  176.6850  138.6290 C   0  0  0  0  0  2  0  0  0  0  0  0
  1 26  2  0  0  0  0
  3 16  1  6  0  0  0
  4 23  1  0  0  0  0
  5 15  1  0  0  0  0
  6  7  1  1  0  0  0
  6 19  1  0  0  0  0
  6  3  1  0  0  0  0
  7  3  1  0  0  0  0
  9 27  1  0  0  0  0
 10 22  1  0  0  0  0
 10 17  1  0  0  0  0
 11 20  1  0  0  0  0
 11  5  2  0  0  0  0
 12  8  1  0  0  0  0
 13  9  1  0  0  0  0
 13 20  2  0  0  0  0
 14  2  2  0  0  0  0
 15  4  2  0  0  0  0
 15 12  1  0  0  0  0
 16  8  2  0  0  0  0
 17 25  1  0  0  0  0
 18 20  1  1  0  0  0
 18  1  1  0  0  0  0
 18  4  1  0  0  0  0
 19  5  1  6  0  0  0
 19  3  1  0  0  0  0
 22 24  1  0  0  0  0
 23 21  2  0  0  0  0
 24 13  1  0  0  0  0
 25  9  2  0  0  0  0
 25 14  1  0  0  0  0
 26 21  1  0  0  0  0
 27  2  1  0  0  0  0
 27  1  1  0  0  0  0
 28 17  2  0  0  0  0
 28 29  1  0  0  0  0
 30 33  1  0  0  0  0
 32 29  1  1  0  0  0
 32 31  1  0  0  0  0
 33 31  1  0  0  0  0
 34 30  1  0  0  0  0
 34 32  1  0  0  0  0
M  END
>  <MODEL>
2

>  <REMARK>
 VINA RESULT:     -11.4      3.017      4.515
  Name = 
  2 active torsions:
  status: ('A' for Active; 'I' for Inactive)
    1  A    between atoms: N_28  and  C_29
    2  A    between atoms: C_29  and  C_32
                            x       y       z     vdW  Elec       q    Type
                         _______ _______ _______ _____ _____    ______ ____

>  <TORSDO>
F 2

$$$$
=
 OpenBabel11122412033D

 34 42  0  0  1  0  0  0  0  0999 V2000
  184.5130  178.4990  144.5090 C   0  0  0  0  0  0  0  0  0  0  0  0
  182.3000  179.0020  143.6200 C   0  0  0  0  0  3  0  0  0  0  0  0
  191.0290  177.1910  143.5770 C   0  0  2  0  0  0  0  0  0  0  0  0
  186.8220  177.9740  145.1520 C   0  0  0  0  0  0  0  0  0  0  0  0
  188.5180  177.7200  143.4140 C   0  0  0  0  0  0  0  0  0  0  0  0
  190.5100  177.4050  141.7270 C   0  0  2  0  0  3  0  0  0  0  0  0
  191.7190  177.1210  142.3260 O   0  0  0  0  0  0  0  0  0  0  0  0
  190.4540  177.1740  145.9260 C   0  0  0  0  0  3  0  0  0  0  0  0
  183.9210  178.7340  142.2090 C   0  0  0  0  0  0  0  0  0  0  0  0
  183.6680  179.1660  139.0990 C   0  0  0  0  0  2  0  0  0  0  0  0
  187.5440  177.9770  142.4440 C   0  0  0  0  0  3  0  0  0  0  0  0
  189.0810  177.4630  145.8600 C   0  0  0  0  0  2  0  0  0  0  0  0
  185.2450  178.4850  141.7790 C   0  0  0  0  0  0  0  0  0  0  0  0
  181.7400  179.1520  142.4020 N   0  0  0  0  0  0  0  0  0  0  0  0
  188.1740  177.7110  144.7970 C   0  0  0  0  0  0  0  0  0  0  0  0
  191.3770  177.0430  144.8960 C   0  0  0  0  0  3  0  0  0  0  0  0
  182.5240  178.9840  140.0310 C   0  0  0  0  0  0  0  0  0  0  0  0
  185.8530  178.2290  144.1500 C   0  0  2  0  0  3  0  0  0  0  0  0
  189.7990  177.4820  142.9620 C   0  0  2  0  0  3  0  0  0  0  0  0
  186.2140  178.2290  142.7830 C   0  0  0  0  0  0  0  0  0  0  0  0
  185.0840  178.2530  146.8470 C   0  0  0  0  0  3  0  0  0  0  0  0
  184.7110  178.0990  139.3350 C   0  0  0  0  0  2  0  0  0  0  0  0
  186.4100  177.9900  146.5000 C   0  0  0  0  0  3  0  0  0  0  0  0
  185.6990  178.6280  140.3500 C   0  0  0  0  0  2  0  0  0  0  0  0
  182.7410  178.9770  141.5060 C   0  0  0  0  0  0  0  0  0  0  0  0
  184.1380  178.5070  145.8560 C   0  0  0  0  0  3  0  0  0  0  0  0
  183.6150  178.7400  143.5190 N   0  0  0  0  0  0  0  0  0  0  0  0
  181.3460  178.8490  139.4880 N   0  0  0  0  0  0  0  0  0  0  0  0
  180.0900  178.6120  140.1900 C   0  0  0  0  0  2  0  0  0  0  0  0
  179.6460  181.8340  140.5100 O   0  0  0  0  0  0  0  0  0  0  0  0
  179.5390  180.4380  138.6110 C   0  0  0  0  0  2  0  0  0  0  0  0
  179.0530  179.6530  139.7940 C   0  0  2  0  0  3  0  0  0  0  0  0
  179.5750  181.8620  139.1100 C   0  0  0  0  0  2  0  0  0  0  0  0
  178.9310  180.6870  140.8900 C   0  0  0  0  0  2  0  0  0  0  0  0
  1 26  2  0  0  0  0
  3 16  1  6  0  0  0
  4 23  1  0  0  0  0
  5 15  1  0  0  0  0
  6  7  1  1  0  0  0
  6 19  1  0  0  0  0
  6  3  1  0  0  0  0
  7  3  1  0  0  0  0
  9 27  1  0  0  0  0
 10 22  1  0  0  0  0
 10 17  1  0  0  0  0
 11 20  1  0  0  0  0
 11  5  2  0  0  0  0
 12  8  1  0  0  0  0
 13  9  1  0  0  0  0
 13 20  2  0  0  0  0
 14  2  2  0  0  0  0
 15  4  2  0  0  0  0
 15 12  1  0  0  0  0
 16  8  2  0  0  0  0
 17 25  1  0  0  0  0
 18 20  1  1  0  0  0
 18  1  1  0  0  0  0
 18  4  1  0  0  0  0
 19  5  1  6  0  0  0
 19  3  1  0  0  0  0
 22 24  1  0  0  0  0
 23 21  2  0  0  0  0
 24 13  1  0  0  0  0
 25  9  2  0  0  0  0
 25 14  1  0  0  0  0
 26 21  1  0  0  0  0
 27  2  1  0  0  0  0
 27  1  1  0  0  0  0
 28 17  2  0  0  0  0
 28 29  1  0  0  0  0
 30 34  1  0  0  0  0
 31 33  1  0  0  0  0
 31 32  1  0  0  0  0
 32 29  1  1  0  0  0
 32 34  1  0  0  0  0
 33 30  1  0  0  0  0
M  END
>  <MODEL>
3

>  <REMARK>
 VINA RESULT:     -11.4      3.489      5.281
  Name = 
  2 active torsions:
  status: ('A' for Active; 'I' for Inactive)
    1  A    between atoms: N_28  and  C_29
    2  A    between atoms: C_29  and  C_32
                            x       y       z     vdW  Elec       q    Type
                         _______ _______ _______ _____ _____    ______ ____

>  <TORSDO>
F 2

$$$$
=
 OpenBabel11122412033D

 34 42  0  0  1  0  0  0  0  0999 V2000
  187.7420  178.0320  140.9000 C   0  0  0  0  0  0  0  0  0  0  0  0
  186.0690  178.4780  139.1840 C   0  0  0  0  0  3  0  0  0  0  0  0
  189.4340  177.1910  147.3390 C   0  0  2  0  0  0  0  0  0  0  0  0
  189.2340  177.6170  142.8040 C   0  0  0  0  0  0  0  0  0  0  0  0
  188.3060  177.5850  145.0620 C   0  0  0  0  0  0  0  0  0  0  0  0
  187.5400  177.5000  147.5760 C   0  0  2  0  0  3  0  0  0  0  0  0
  188.5590  177.2440  148.4690 O   0  0  0  0  0  0  0  0  0  0  0  0
  191.3580  176.9820  145.8880 C   0  0  0  0  0  3  0  0  0  0  0  0
  185.4150  178.4260  141.2480 C   0  0  0  0  0  0  0  0  0  0  0  0
  182.4140  178.6690  142.1750 C   0  0  0  0  0  2  0  0  0  0  0  0
  187.0400  177.8520  144.5320 C   0  0  0  0  0  3  0  0  0  0  0  0
  190.7610  177.1950  144.6340 C   0  0  0  0  0  2  0  0  0  0  0  0
  185.5380  178.2830  142.6500 C   0  0  0  0  0  0  0  0  0  0  0  0
  184.7470  178.7470  139.1460 N   0  0  0  0  0  0  0  0  0  0  0  0
  189.4370  177.4630  144.2030 C   0  0  0  0  0  0  0  0  0  0  0  0
  190.7750  176.9740  147.1500 C   0  0  0  0  0  3  0  0  0  0  0  0
  182.9280  179.0590  140.8350 C   0  0  0  0  0  0  0  0  0  0  0  0
  187.9400  177.8890  142.2920 C   0  0  0  0  0  0  0  0  0  0  0  0
  188.3920  177.4500  146.4320 C   0  0  2  0  0  3  0  0  0  0  0  0
  186.8320  178.0110  143.1610 C   0  0  0  0  0  0  0  0  0  0  0  0
  190.1010  177.6470  140.5190 C   0  0  0  0  0  3  0  0  0  0  0  0
  183.2830  179.2570  143.2620 C   0  0  0  0  0  2  0  0  0  0  0  0
  190.3020  177.5020  141.8920 C   0  0  0  0  0  2  0  0  0  0  0  0
  184.3620  178.2530  143.5920 C   0  0  0  0  0  2  0  0  0  0  0  0
  184.3250  178.7290  140.4330 C   0  0  0  0  0  0  0  0  0  0  0  0
  188.8260  177.9110  140.0230 C   0  0  0  0  0  3  0  0  0  0  0  0
  186.4880  178.2910  140.4490 N   0  0  0  0  0  0  0  0  0  0  0  0
  182.0920  179.6810  140.0500 N   0  0  0  0  0  0  0  0  0  0  0  0
  182.3790  180.2020  138.7180 C   0  0  0  0  0  2  0  0  0  0  0  0
  179.6810  181.9090  139.4140 O   0  0  0  0  0  0  0  0  0  0  0  0
  181.1760  182.0520  137.5950 C   0  0  0  0  0  2  0  0  0  0  0  0
  181.0930  180.6140  138.0180 C   0  0  2  0  0  3  0  0  0  0  0  0
  180.0250  182.7090  138.3160 C   0  0  0  0  0  2  0  0  0  0  0  0
  179.9500  180.5930  139.0070 C   0  0  0  0  0  2  0  0  0  0  0  0
  1 18  2  0  0  0  0
  2 27  1  0  0  0  0
  3 16  1  1  0  0  0
  3  6  1  0  0  0  0
  3  7  1  0  0  0  0
  4 15  2  0  0  0  0
  6  7  1  6  0  0  0
  8 16  2  0  0  0  0
  9 13  1  0  0  0  0
 10 22  1  0  0  0  0
 11  5  2  0  0  0  0
 12  8  1  0  0  0  0
 13 20  2  0  0  0  0
 13 24  1  0  0  0  0
 14  2  2  0  0  0  0
 14 25  1  0  0  0  0
 15 12  1  0  0  0  0
 15  5  1  0  0  0  0
 17 10  1  0  0  0  0
 18  4  1  0  0  0  0
 18 20  1  0  0  0  0
 19  5  1  1  0  0  0
 19  3  1  0  0  0  0
 19  6  1  0  0  0  0
 20 11  1  0  0  0  0
 21 23  1  0  0  0  0
 22 24  1  0  0  0  0
 23  4  1  0  0  0  0
 25 17  1  0  0  0  0
 25  9  2  0  0  0  0
 26 21  2  0  0  0  0
 26  1  1  0  0  0  0
 27  1  1  0  0  0  0
 27  9  1  0  0  0  0
 28 17  2  0  0  0  0
 29 28  1  0  0  0  0
 31 32  1  0  0  0  0
 31 33  1  0  0  0  0
 32 29  1  1  0  0  0
 32 34  1  0  0  0  0
 33 30  1  0  0  0  0
 34 30  1  0  0  0  0
M  END
>  <MODEL>
4

>  <REMARK>
 VINA RESULT:     -10.8      3.049      5.288
  Name = 
  2 active torsions:
  status: ('A' for Active; 'I' for Inactive)
    1  A    between atoms: N_28  and  C_29
    2  A    between atoms: C_29  and  C_32
                            x       y       z     vdW  Elec       q    Type
                         _______ _______ _______ _____ _____    ______ ____

>  <TORSDO>
F 2

$$$$
=
 OpenBabel11122412033D

 34 42  0  0  1  0  0  0  0  0999 V2000
  186.8480  178.1710  141.4000 C   0  0  0  0  0  0  0  0  0  0  0  0
  186.8310  178.2270  138.9630 C   0  0  0  0  0  3  0  0  0  0  0  0
  190.0720  177.1940  147.2040 C   0  0  2  0  0  0  0  0  0  0  0  0
  187.1160  178.0350  143.8350 C   0  0  0  0  0  0  0  0  0  0  0  0
  189.2970  177.4500  144.7650 C   0  0  0  0  0  0  0  0  0  0  0  0
  191.5410  176.8460  145.9950 C   0  0  2  0  0  3  0  0  0  0  0  0
  191.4470  176.8380  147.3710 O   0  0  0  0  0  0  0  0  0  0  0  0
  187.7540  177.7790  147.5710 C   0  0  0  0  0  3  0  0  0  0  0  0
  188.6880  177.7140  139.9510 C   0  0  0  0  0  0  0  0  0  0  0  0
  191.4280  177.2470  138.4690 C   0  0  0  0  0  2  0  0  0  0  0  0
  189.8080  177.3490  143.4680 C   0  0  0  0  0  3  0  0  0  0  0  0
  187.3100  177.9250  146.2460 C   0  0  0  0  0  2  0  0  0  0  0  0
  189.5590  177.4640  141.0370 C   0  0  0  0  0  0  0  0  0  0  0  0
  187.7100  177.9890  137.9680 N   0  0  0  0  0  0  0  0  0  0  0  0
  187.9300  177.7960  144.9760 C   0  0  0  0  0  0  0  0  0  0  0  0
  189.0170  177.4440  148.0440 C   0  0  0  0  0  3  0  0  0  0  0  0
  190.0920  177.2370  137.8160 C   0  0  0  0  0  0  0  0  0  0  0  0
  187.6590  177.9230  142.5300 C   0  0  2  0  0  3  0  0  0  0  0  0
  190.1720  177.2020  145.8020 C   0  0  2  0  0  3  0  0  0  0  0  0
  189.0160  177.5760  142.3420 C   0  0  0  0  0  0  0  0  0  0  0  0
  184.9620  178.6280  142.8460 C   0  0  0  0  0  3  0  0  0  0  0  0
  191.4160  176.3760  139.7030 C   0  0  0  0  0  2  0  0  0  0  0  0
  185.7580  178.3880  143.9660 C   0  0  0  0  0  3  0  0  0  0  0  0
  191.0420  177.2430  140.8830 C   0  0  0  0  0  2  0  0  0  0  0  0
  188.8760  177.6550  138.5700 C   0  0  0  0  0  0  0  0  0  0  0  0
  185.5030  178.5210  141.5660 C   0  0  0  0  0  3  0  0  0  0  0  0
  187.4060  178.0550  140.1670 N   0  0  0  0  0  0  0  0  0  0  0  0
  190.0570  176.8620  136.5680 N   0  0  0  0  0  0  0  0  0  0  0  0
  188.8670  176.7260  135.7370 C   0  0  0  0  0  2  0  0  0  0  0  0
  190.2580  173.8230  136.2960 O   0  0  0  0  0  0  0  0  0  0  0  0
  187.9930  174.4820  136.3120 C   0  0  0  0  0  2  0  0  0  0  0  0
  188.7060  175.2890  135.2660 C   0  0  2  0  0  3  0  0  0  0  0  0
  188.9750  173.3910  136.6600 C   0  0  0  0  0  2  0  0  0  0  0  0
  190.0640  174.6340  135.1660 C   0  0  0  0  0  2  0  0  0  0  0  0
  1 26  2  0  0  0  0
  2 27  1  0  0  0  0
  3  7  1  0  0  0  0
  3 16  1  6  0  0  0
  4 23  1  0  0  0  0
  4 15  2  0  0  0  0
  5 15  1  0  0  0  0
  6  3  1  0  0  0  0
  6  7  1  1  0  0  0
  8 16  2  0  0  0  0
  9 27  1  0  0  0  0
  9 13  1  0  0  0  0
 10 22  1  0  0  0  0
 11  5  2  0  0  0  0
 12  8  1  0  0  0  0
 13 20  2  0  0  0  0
 14 25  1  0  0  0  0
 14  2  2  0  0  0  0
 15 12  1  0  0  0  0
 17 10  1  0  0  0  0
 17 25  1  0  0  0  0
 18  1  1  1  0  0  0
 18  4  1  0  0  0  0
 19  5  1  6  0  0  0
 19  6  1  0  0  0  0
 19  3  1  0  0  0  0
 20 18  1  0  0  0  0
 20 11  1  0  0  0  0
 21 23  2  0  0  0  0
 22 24  1  0  0  0  0
 24 13  1  0  0  0  0
 25  9  2  0  0  0  0
 26 21  1  0  0  0  0
 27  1  1  0  0  0  0
 28 17  2  0  0  0  0
 29 28  1  0  0  0  0
 30 33  1  0  0  0  0
 31 33  1  0  0  0  0
 32 29  1  1  0  0  0
 32 31  1  0  0  0  0
 34 32  1  0  0  0  0
 34 30  1  0  0  0  0
M  END
>  <MODEL>
5

>  <REMARK>
 VINA RESULT:     -10.7      1.402      1.771
  Name = 
  2 active torsions:
  status: ('A' for Active; 'I' for Inactive)
    1  A    between atoms: N_28  and  C_29
    2  A    between atoms: C_29  and  C_32
                            x       y       z     vdW  Elec       q    Type
                         _______ _______ _______ _____ _____    ______ ____

>  <TORSDO>
F 2

$$$$
=
 OpenBabel11122412033D

 34 42  0  0  1  0  0  0  0  0999 V2000
  186.7580  178.3150  140.2720 C   0  0  0  0  0  0  0  0  0  0  0  0
  188.1820  178.1040  138.3040 C   0  0  0  0  0  3  0  0  0  0  0  0
  185.9360  178.2110  146.9310 C   0  0  2  0  0  0  0  0  0  0  0  0
  185.5380  178.4630  142.3960 C   0  0  0  0  0  0  0  0  0  0  0  0
  186.7480  178.1440  144.4920 C   0  0  0  0  0  0  0  0  0  0  0  0
  187.8330  177.8420  146.8680 C   0  0  2  0  0  3  0  0  0  0  0  0
  186.9460  177.9770  147.9160 O   0  0  0  0  0  0  0  0  0  0  0  0
  183.8500  178.6620  145.7920 C   0  0  0  0  0  3  0  0  0  0  0  0
  189.0960  177.8380  140.2480 C   0  0  0  0  0  0  0  0  0  0  0  0
  192.1810  177.4150  140.7260 C   0  0  0  0  0  2  0  0  0  0  0  0
  187.9260  177.9400  143.7670 C   0  0  0  0  0  3  0  0  0  0  0  0
  184.2730  178.6300  144.4530 C   0  0  0  0  0  2  0  0  0  0  0  0
  189.1590  177.7720  141.6600 C   0  0  0  0  0  0  0  0  0  0  0  0
  189.4770  177.8240  138.0530 N   0  0  0  0  0  0  0  0  0  0  0  0
  185.5220  178.4090  143.8160 C   0  0  0  0  0  0  0  0  0  0  0  0
  184.5900  178.4730  146.9530 C   0  0  0  0  0  3  0  0  0  0  0  0
  191.4870  177.2370  139.4230 C   0  0  0  0  0  0  0  0  0  0  0  0
  186.7450  178.2510  141.6830 C   0  0  0  0  0  0  0  0  0  0  0  0
  186.8430  178.0740  145.8660 C   0  0  2  0  0  3  0  0  0  0  0  0
  187.9510  177.9850  142.3720 C   0  0  0  0  0  0  0  0  0  0  0  0
  184.3850  178.7870  140.2660 C   0  0  0  0  0  3  0  0  0  0  0  0
  191.4390  176.6850  141.8200 C   0  0  0  0  0  2  0  0  0  0  0  0
  184.3660  178.7290  141.6600 C   0  0  0  0  0  2  0  0  0  0  0  0
  190.4460  177.6450  142.4330 C   0  0  0  0  0  2  0  0  0  0  0  0
  190.0620  177.6440  139.2610 C   0  0  0  0  0  0  0  0  0  0  0  0
  185.5760  178.5810  139.5720 C   0  0  0  0  0  3  0  0  0  0  0  0
  187.9350  178.1060  139.6260 N   0  0  0  0  0  0  0  0  0  0  0  0
  192.1930  176.7270  138.4530 N   0  0  0  0  0  0  0  0  0  0  0  0
  191.7200  176.4150  137.1090 C   0  0  0  0  0  2  0  0  0  0  0  0
  194.8910  175.6270  137.0670 O   0  0  0  0  0  0  0  0  0  0  0  0
  192.9740  174.3080  137.4540 C   0  0  0  0  0  2  0  0  0  0  0  0
  192.6150  175.3710  136.4570 C   0  0  2  0  0  3  0  0  0  0  0  0
  194.4810  174.3650  137.5180 C   0  0  0  0  0  2  0  0  0  0  0  0
  193.9440  175.9960  136.0990 C   0  0  0  0  0  2  0  0  0  0  0  0
  1 18  2  0  0  0  0
  2 27  1  0  0  0  0
  3 16  1  6  0  0  0
  3  7  1  0  0  0  0
  4 15  2  0  0  0  0
  6  3  1  0  0  0  0
  6  7  1  1  0  0  0
  8 16  2  0  0  0  0
  9 13  1  0  0  0  0
 10 22  1  0  0  0  0
 11  5  2  0  0  0  0
 12  8  1  0  0  0  0
 13 20  2  0  0  0  0
 13 24  1  0  0  0  0
 14  2  2  0  0  0  0
 14 25  1  0  0  0  0
 15 12  1  0  0  0  0
 15  5  1  0  0  0  0
 17 10  1  0  0  0  0
 18 20  1  0  0  0  0
 18  4  1  0  0  0  0
 19  5  1  6  0  0  0
 19  6  1  0  0  0  0
 19  3  1  0  0  0  0
 20 11  1  0  0  0  0
 21 23  1  0  0  0  0
 22 24  1  0  0  0  0
 23  4  1  0  0  0  0
 25 17  1  0  0  0  0
 25  9  2  0  0  0  0
 26 21  2  0  0  0  0
 26  1  1  0  0  0  0
 27  9  1  0  0  0  0
 27  1  1  0  0  0  0
 28 17  2  0  0  0  0
 29 28  1  0  0  0  0
 30 33  1  0  0  0  0
 31 33  1  0  0  0  0
 32 29  1  1  0  0  0
 32 31  1  0  0  0  0
 34 32  1  0  0  0  0
 34 30  1  0  0  0  0
M  END
>  <MODEL>
6

>  <REMARK>
 VINA RESULT:     -10.4      2.797      4.308
  Name = 
  2 active torsions:
  status: ('A' for Active; 'I' for Inactive)
    1  A    between atoms: N_28  and  C_29
    2  A    between atoms: C_29  and  C_32
                            x       y       z     vdW  Elec       q    Type
                         _______ _______ _______ _____ _____    ______ ____

>  <TORSDO>
F 2

$$$$
=
 OpenBabel11122412033D

 34 42  0  0  1  0  0  0  0  0999 V2000
  189.8090  177.2690  141.7630 C   0  0  0  0  0  0  0  0  0  0  0  0
  189.8370  177.2230  139.3250 C   0  0  0  0  0  3  0  0  0  0  0  0
  186.5680  178.2570  147.5550 C   0  0  2  0  0  0  0  0  0  0  0  0
  189.5310  177.3990  144.1970 C   0  0  0  0  0  0  0  0  0  0  0  0
  187.3520  178.0030  145.1190 C   0  0  0  0  0  0  0  0  0  0  0  0
  185.1080  178.6250  146.3410 C   0  0  2  0  0  3  0  0  0  0  0  0
  185.1960  178.6260  147.7170 O   0  0  0  0  0  0  0  0  0  0  0  0
  188.8780  177.6460  147.9310 C   0  0  0  0  0  3  0  0  0  0  0  0
  187.9800  177.7520  140.3070 C   0  0  0  0  0  0  0  0  0  0  0  0
  185.2520  178.2520  138.8140 C   0  0  0  0  0  2  0  0  0  0  0  0
  186.8470  178.1140  143.8210 C   0  0  0  0  0  3  0  0  0  0  0  0
  189.3270  177.5010  146.6070 C   0  0  0  0  0  2  0  0  0  0  0  0
  187.1060  178.0060  141.3900 C   0  0  0  0  0  0  0  0  0  0  0  0
  188.9640  177.4740  138.3270 N   0  0  0  0  0  0  0  0  0  0  0  0
  188.7140  177.6420  145.3350 C   0  0  0  0  0  0  0  0  0  0  0  0
  187.6160  177.9920  148.3990 C   0  0  0  0  0  3  0  0  0  0  0  0
  186.5910  178.2510  138.1680 C   0  0  0  0  0  0  0  0  0  0  0  0
  188.9950  177.5210  142.8900 C   0  0  2  0  0  3  0  0  0  0  0  0
  186.4740  178.2560  146.1530 C   0  0  2  0  0  3  0  0  0  0  0  0
  187.6430  177.8840  142.6970 C   0  0  0  0  0  0  0  0  0  0  0  0
  191.6830  176.7880  143.2150 C   0  0  0  0  0  3  0  0  0  0  0  0
  185.2670  179.1180  140.0520 C   0  0  0  0  0  2  0  0  0  0  0  0
  190.8850  177.0310  144.3330 C   0  0  0  0  0  3  0  0  0  0  0  0
  185.6270  178.2420  141.2300 C   0  0  0  0  0  2  0  0  0  0  0  0
  187.7990  177.8180  138.9260 C   0  0  0  0  0  0  0  0  0  0  0  0
  191.1490  176.9060  141.9330 C   0  0  0  0  0  3  0  0  0  0  0  0
  189.2580  177.3960  140.5280 N   0  0  0  0  0  0  0  0  0  0  0  0
  186.6350  178.6300  136.9210 N   0  0  0  0  0  0  0  0  0  0  0  0
  187.8310  178.7570  136.0960 C   0  0  0  0  0  2  0  0  0  0  0  0
  187.6180  175.5750  135.3870 O   0  0  0  0  0  0  0  0  0  0  0  0
  186.3060  177.4080  134.6890 C   0  0  0  0  0  2  0  0  0  0  0  0
  187.7200  177.8830  134.8560 C   0  0  2  0  0  3  0  0  0  0  0  0
  186.4220  175.9030  134.7340 C   0  0  0  0  0  2  0  0  0  0  0  0
  188.5080  176.6100  135.0620 C   0  0  0  0  0  2  0  0  0  0  0  0
  1 26  2  0  0  0  0
  2 27  1  0  0  0  0
  3  7  1  0  0  0  0
  3 16  1  6  0  0  0
  4 23  1  0  0  0  0
  4 15  2  0  0  0  0
  5 15  1  0  0  0  0
  6  3  1  0  0  0  0
  6  7  1  1  0  0  0
  8 16  2  0  0  0  0
  9 27  1  0  0  0  0
  9 13  1  0  0  0  0
 10 22  1  0  0  0  0
 11  5  2  0  0  0  0
 12  8  1  0  0  0  0
 13 20  2  0  0  0  0
 14 25  1  0  0  0  0
 14  2  2  0  0  0  0
 15 12  1  0  0  0  0
 17 10  1  0  0  0  0
 17 25  1  0  0  0  0
 18  1  1  1  0  0  0
 18  4  1  0  0  0  0
 19  5  1  6  0  0  0
 19  6  1  0  0  0  0
 19  3  1  0  0  0  0
 20 18  1  0  0  0  0
 20 11  1  0  0  0  0
 21 23  2  0  0  0  0
 22 24  1  0  0  0  0
 24 13  1  0  0  0  0
 25  9  2  0  0  0  0
 26 21  1  0  0  0  0
 27  1  1  0  0  0  0
 28 17  2  0  0  0  0
 29 28  1  0  0  0  0
 31 33  1  0  0  0  0
 31 32  1  0  0  0  0
 32 34  1  0  0  0  0
 32 29  1  1  0  0  0
 33 30  1  0  0  0  0
 34 30  1  0  0  0  0
M  END
>  <MODEL>
7

>  <REMARK>
 VINA RESULT:     -10.4      1.838      3.697
  Name = 
  2 active torsions:
  status: ('A' for Active; 'I' for Inactive)
    1  A    between atoms: N_28  and  C_29
    2  A    between atoms: C_29  and  C_32
                            x       y       z     vdW  Elec       q    Type
                         _______ _______ _______ _____ _____    ______ ____

>  <TORSDO>
F 2

$$$$
=
 OpenBabel11122412033D

 34 42  0  0  1  0  0  0  0  0999 V2000
  184.5170  178.5740  143.7640 C   0  0  0  0  0  0  0  0  0  0  0  0
  182.9570  178.9870  141.9370 C   0  0  0  0  0  3  0  0  0  0  0  0
  190.6870  177.1310  145.9720 C   0  0  2  0  0  0  0  0  0  0  0  0
  186.2690  178.1110  145.4190 C   0  0  0  0  0  0  0  0  0  0  0  0
  188.5420  177.6530  144.6540 C   0  0  0  0  0  0  0  0  0  0  0  0
  191.0540  177.1390  144.0730 C   0  0  2  0  0  3  0  0  0  0  0  0
  191.8550  176.9170  145.1740 O   0  0  0  0  0  0  0  0  0  0  0  0
  189.1310  177.3820  147.8060 C   0  0  0  0  0  3  0  0  0  0  0  0
  185.0170  178.5520  141.4320 C   0  0  0  0  0  0  0  0  0  0  0  0
  186.1930  178.6330  138.5100 C   0  0  0  0  0  2  0  0  0  0  0  0
  188.1140  177.8050  143.3320 C   0  0  0  0  0  3  0  0  0  0  0  0
  187.9480  177.6690  147.1060 C   0  0  0  0  0  2  0  0  0  0  0  0
  186.3790  178.2490  141.6650 C   0  0  0  0  0  0  0  0  0  0  0  0
  183.0040  179.0020  140.5890 N   0  0  0  0  0  0  0  0  0  0  0  0
  187.6210  177.8020  145.7320 C   0  0  0  0  0  0  0  0  0  0  0  0
  190.4060  177.1300  147.3140 C   0  0  0  0  0  3  0  0  0  0  0  0
  184.7460  178.5640  138.8470 C   0  0  0  0  0  0  0  0  0  0  0  0
  185.8590  178.2580  144.0690 C   0  0  2  0  0  3  0  0  0  0  0  0
  189.8750  177.3580  144.8470 C   0  0  2  0  0  3  0  0  0  0  0  0
  186.7870  178.1020  143.0150 C   0  0  0  0  0  0  0  0  0  0  0  0
  183.9780  178.5890  146.1240 C   0  0  0  0  0  3  0  0  0  0  0  0
  186.9630  177.5940  139.2900 C   0  0  0  0  0  2  0  0  0  0  0  0
  185.3030  178.2800  146.4320 C   0  0  0  0  0  3  0  0  0  0  0  0
  187.4260  178.2270  140.5810 C   0  0  0  0  0  2  0  0  0  0  0  0
  184.2860  178.7210  140.2560 C   0  0  0  0  0  0  0  0  0  0  0  0
  183.5840  178.7360  144.7950 C   0  0  0  0  0  3  0  0  0  0  0  0
  184.1640  178.7070  142.4600 N   0  0  0  0  0  0  0  0  0  0  0  0
  183.9250  178.3760  137.8510 N   0  0  0  0  0  0  0  0  0  0  0  0
  182.4770  178.2270  137.9370 C   0  0  0  0  0  2  0  0  0  0  0  0
  179.4670  178.7790  136.7920 O   0  0  0  0  0  0  0  0  0  0  0  0
  181.0050  180.2160  137.8570 C   0  0  0  0  0  2  0  0  0  0  0  0
  181.7810  179.2310  137.0310 C   0  0  2  0  0  3  0  0  0  0  0  0
  179.5830  180.0440  137.3830 C   0  0  0  0  0  2  0  0  0  0  0  0
  180.7220  178.5280  136.2150 C   0  0  0  0  0  2  0  0  0  0  0  0
  1 18  1  0  0  0  0
  1 26  2  0  0  0  0
  2 27  1  0  0  0  0
  3 16  1  6  0  0  0
  4 15  2  0  0  0  0
  4 23  1  0  0  0  0
  5 15  1  0  0  0  0
  6 19  1  0  0  0  0
  6  7  1  1  0  0  0
  6  3  1  0  0  0  0
  7  3  1  0  0  0  0
  9 13  1  0  0  0  0
  9 27  1  0  0  0  0
 10 17  1  0  0  0  0
 10 22  1  0  0  0  0
 11  5  2  0  0  0  0
 12  8  1  0  0  0  0
 13 20  2  0  0  0  0
 14  2  2  0  0  0  0
 15 12  1  0  0  0  0
 16  8  2  0  0  0  0
 17 25  1  0  0  0  0
 18 20  1  1  0  0  0
 18  4  1  0  0  0  0
 19  5  1  6  0  0  0
 19  3  1  0  0  0  0
 20 11  1  0  0  0  0
 21 23  2  0  0  0  0
 22 24  1  0  0  0  0
 24 13  1  0  0  0  0
 25 14  1  0  0  0  0
 25  9  2  0  0  0  0
 26 21  1  0  0  0  0
 27  1  1  0  0  0  0
 28 29  1  0  0  0  0
 28 17  2  0  0  0  0
 30 33  1  0  0  0  0
 32 31  1  0  0  0  0
 32 29  1  1  0  0  0
 33 31  1  0  0  0  0
 34 30  1  0  0  0  0
 34 32  1  0  0  0  0
M  END
>  <MODEL>
8

>  <REMARK>
 VINA RESULT:     -10.3      2.682      3.547
  Name = 
  2 active torsions:
  status: ('A' for Active; 'I' for Inactive)
    1  A    between atoms: N_28  and  C_29
    2  A    between atoms: C_29  and  C_32
                            x       y       z     vdW  Elec       q    Type
                         _______ _______ _______ _____ _____    ______ ____

>  <TORSDO>
F 2

$$$$
=
 OpenBabel11122412033D

 34 42  0  0  1  0  0  0  0  0999 V2000
  190.4390  176.8160  142.4330 C   0  0  0  0  0  0  0  0  0  0  0  0
  190.8830  176.5920  140.0470 C   0  0  0  0  0  3  0  0  0  0  0  0
  186.3120  178.3660  147.4930 C   0  0  2  0  0  0  0  0  0  0  0  0
  189.7540  177.1330  144.7680 C   0  0  0  0  0  0  0  0  0  0  0  0
  187.4880  177.9010  145.2530 C   0  0  0  0  0  0  0  0  0  0  0  0
  185.1070  178.7120  146.0210 C   0  0  2  0  0  3  0  0  0  0  0  0
  184.9560  178.8080  147.3880 O   0  0  0  0  0  0  0  0  0  0  0  0
  188.4840  177.6780  148.3060 C   0  0  0  0  0  3  0  0  0  0  0  0
  188.9190  177.2750  140.6520 C   0  0  0  0  0  0  0  0  0  0  0  0
  186.5220  177.7910  138.6750 C   0  0  0  0  0  2  0  0  0  0  0  0
  187.2210  177.9410  143.8820 C   0  0  0  0  0  3  0  0  0  0  0  0
  189.1450  177.4180  147.0940 C   0  0  0  0  0  2  0  0  0  0  0  0
  187.8880  177.6460  141.5460 C   0  0  0  0  0  0  0  0  0  0  0  0
  190.2120  176.8110  138.8970 N   0  0  0  0  0  0  0  0  0  0  0  0
  188.7690  177.4950  145.7280 C   0  0  0  0  0  0  0  0  0  0  0  0
  187.1830  178.1150  148.5230 C   0  0  0  0  0  3  0  0  0  0  0  0
  187.9500  177.6820  138.2750 C   0  0  0  0  0  0  0  0  0  0  0  0
  189.4600  177.1850  143.3820 C   0  0  2  0  0  3  0  0  0  0  0  0
  186.4610  178.2670  146.0990 C   0  0  2  0  0  3  0  0  0  0  0  0
  188.1830  177.5940  142.9320 C   0  0  0  0  0  0  0  0  0  0  0  0
  192.0050  176.3540  144.2200 C   0  0  0  0  0  3  0  0  0  0  0  0
  186.3740  178.7420  139.8390 C   0  0  0  0  0  2  0  0  0  0  0  0
  191.0410  176.7140  145.1620 C   0  0  0  0  0  3  0  0  0  0  0  0
  186.4740  177.9390  141.1140 C   0  0  0  0  0  2  0  0  0  0  0  0
  188.9830  177.2490  139.2590 C   0  0  0  0  0  0  0  0  0  0  0  0
  191.7070  176.4040  142.8590 C   0  0  0  0  0  3  0  0  0  0  0  0
  190.1170  176.8780  141.1150 N   0  0  0  0  0  0  0  0  0  0  0  0
  188.2300  177.9680  137.0340 N   0  0  0  0  0  0  0  0  0  0  0  0
  189.5560  177.9800  136.4250 C   0  0  0  0  0  2  0  0  0  0  0  0
  190.0420  174.7810  135.9780 O   0  0  0  0  0  0  0  0  0  0  0  0
  188.3430  176.2130  135.1860 C   0  0  0  0  0  2  0  0  0  0  0  0
  189.6190  177.0000  135.2630 C   0  0  2  0  0  3  0  0  0  0  0  0
  188.7910  174.7810  135.3460 C   0  0  0  0  0  2  0  0  0  0  0  0
  190.6740  175.9550  135.5400 C   0  0  0  0  0  2  0  0  0  0  0  0
  1 26  2  0  0  0  0
  2 27  1  0  0  0  0
  3 16  1  6  0  0  0
  4 23  1  0  0  0  0
  4 15  2  0  0  0  0
  5 15  1  0  0  0  0
  6 19  1  0  0  0  0
  6  7  1  1  0  0  0
  6  3  1  0  0  0  0
  7  3  1  0  0  0  0
  8 16  2  0  0  0  0
  9 27  1  0  0  0  0
  9 13  1  0  0  0  0
 10 22  1  0  0  0  0
 11  5  2  0  0  0  0
 12  8  1  0  0  0  0
 13 20  2  0  0  0  0
 14 25  1  0  0  0  0
 14  2  2  0  0  0  0
 15 12  1  0  0  0  0
 17 10  1  0  0  0  0
 17 25  1  0  0  0  0
 18  1  1  1  0  0  0
 18  4  1  0  0  0  0
 19  5  1  6  0  0  0
 19  3  1  0  0  0  0
 20 18  1  0  0  0  0
 20 11  1  0  0  0  0
 21 23  2  0  0  0  0
 22 24  1  0  0  0  0
 24 13  1  0  0  0  0
 25  9  2  0  0  0  0
 26 21  1  0  0  0  0
 27  1  1  0  0  0  0
 28 17  2  0  0  0  0
 29 28  1  0  0  0  0
 31 32  1  0  0  0  0
 31 33  1  0  0  0  0
 32 34  1  0  0  0  0
 32 29  1  1  0  0  0
 33 30  1  0  0  0  0
 34 30  1  0  0  0  0
M  END
>  <MODEL>
9

>  <REMARK>
 VINA RESULT:      -9.6      2.118      3.998
  Name = 
  2 active torsions:
  status: ('A' for Active; 'I' for Inactive)
    1  A    between atoms: N_28  and  C_29
    2  A    between atoms: C_29  and  C_32
                            x       y       z     vdW  Elec       q    Type
                         _______ _______ _______ _____ _____    ______ ____

>  <TORSDO>
F 2

$$$$
