=
 OpenBabel11122410463D

 32 38  0  0  1  0  0  0  0  0999 V2000
  189.7390  176.6780  136.7990 C   0  0  1  0  0  3  0  0  0  0  0  0
  189.5110  177.8730  141.8000 C   0  0  0  0  0  0  0  0  0  0  0  0
  184.6020  178.6370  141.6760 C   0  0  0  0  0  3  0  0  0  0  0  0
  184.4970  178.2900  143.0220 C   0  0  0  0  0  3  0  0  0  0  0  0
  190.5780  177.5410  144.0770 C   0  0  0  0  0  0  0  0  0  0  0  0
  190.4340  177.3580  145.4520 C   0  0  0  0  0  0  0  0  0  0  0  0
  189.6010  176.5410  139.6270 C   0  0  1  0  0  3  0  0  0  0  0  0
  188.4000  178.7480  139.7190 C   0  0  0  0  0  2  0  0  0  0  0  0
  189.3670  177.1680  147.4420 N   0  0  0  0  0  0  0  0  0  0  0  0
  189.4360  178.0080  137.5100 C   0  0  2  0  0  3  0  0  0  0  0  0
  185.8560  178.6870  141.0650 C   0  0  0  0  0  3  0  0  0  0  0  0
  188.3120  178.4300  141.1520 N   0  0  0  0  0  0  0  0  0  0  0  0
  187.0210  178.3890  141.7920 C   0  0  2  0  0  3  0  0  0  0  0  0
  188.1340  177.7620  143.9380 C   0  0  0  0  0  0  0  0  0  0  0  0
  190.8000  177.0690  147.7200 C   0  0  0  0  0  3  0  0  0  0  0  0
  189.9180  175.4600  137.7180 C   0  0  0  0  0  2  0  0  0  0  0  0
  189.5290  177.9590  139.0480 C   0  0  2  0  0  3  0  0  0  0  0  0
  191.4650  177.1720  146.4120 N   0  0  0  0  0  0  0  0  0  0  0  0
  190.5530  175.8020  138.9200 O   0  0  0  0  0  0  0  0  0  0  0  0
  188.3070  177.1680  136.9490 C   0  0  1  0  0  3  0  0  0  0  0  0
  185.6470  177.9960  143.7570 C   0  0  0  0  0  3  0  0  0  0  0  0
  186.9140  178.0420  143.1520 C   0  0  0  0  0  0  0  0  0  0  0  0
  188.0430  177.5740  145.3350 C   0  0  0  0  0  3  0  0  0  0  0  0
  189.9240  176.5540  141.1270 C   0  0  0  0  0  2  0  0  0  0  0  0
  191.9420  177.5440  143.4670 C   0  0  0  0  0  1  0  0  0  0  0  0
  188.3360  177.3670  148.4450 C   0  0  0  0  0  1  0  0  0  0  0  0
  189.4040  177.7310  143.2990 C   0  0  0  0  0  0  0  0  0  0  0  0
  189.2170  177.3640  146.0500 C   0  0  0  0  0  0  0  0  0  0  0  0
  187.8700  177.7310  135.7210 O   0  0  0  0  0  0  0  0  0  0  0  0
  186.8330  177.1720  134.9700 C   0  0  0  0  0  0  0  0  0  0  0  0
  186.8270  175.7250  134.6040 C   0  0  0  0  0  1  0  0  0  0  0  0
  185.8820  177.9020  134.5940 O   0  0  0  0  0  0  0  0  0  0  0  0
  1 20  1  0  0  0  0
  1 10  1  0  0  0  0
  1 16  1  1  0  0  0
  2 27  2  0  0  0  0
  3  4  1  0  0  0  0
  4 21  2  0  0  0  0
  5  6  2  0  0  0  0
  6 28  1  0  0  0  0
  6 18  1  0  0  0  0
  7 24  1  1  0  0  0
  8 12  1  0  0  0  0
  9 15  1  0  0  0  0
  9 26  1  0  0  0  0
 10 17  1  0  0  0  0
 11  3  2  0  0  0  0
 11 13  1  0  0  0  0
 12 13  1  0  0  0  0
 12  2  1  0  0  0  0
 13 22  1  0  0  0  0
 14 23  1  0  0  0  0
 16 19  1  0  0  0  0
 17  7  1  0  0  0  0
 17  8  1  0  0  0  0
 18 15  2  0  0  0  0
 19  7  1  0  0  0  0
 20 10  1  0  0  0  0
 22 21  1  0  0  0  0
 22 14  2  0  0  0  0
 23 28  2  0  0  0  0
 24  2  1  0  0  0  0
 25  5  1  0  0  0  0
 27 14  1  0  0  0  0
 27  5  1  0  0  0  0
 28  9  1  0  0  0  0
 29 20  1  0  0  0  0
 30 29  1  0  0  0  0
 31 30  1  0  0  0  0
 32 30  2  0  0  0  0
M  END
>  <MODEL>
1

>  <REMARK>
 VINA RESULT:     -10.4      0.000      0.000
  Name = 
  2 active torsions:
  status: ('A' for Active; 'I' for Inactive)
    1  A    between atoms: C_20  and  O_29
    2  A    between atoms: O_29  and  C_30
                            x       y       z     vdW  Elec       q    Type
                         _______ _______ _______ _____ _____    ______ ____

>  <TORSDO>
F 2

$$$$
=
 OpenBabel11122410463D

 32 38  0  0  1  0  0  0  0  0999 V2000
  190.7980  176.9930  143.2170 C   0  0  1  0  0  3  0  0  0  0  0  0
  186.0030  178.6180  142.2920 C   0  0  0  0  0  0  0  0  0  0  0  0
  186.4070  177.8880  137.3920 C   0  0  0  0  0  3  0  0  0  0  0  0
  185.0320  177.6780  137.2930 C   0  0  0  0  0  3  0  0  0  0  0  0
  183.6640  178.8710  143.2400 C   0  0  0  0  0  0  0  0  0  0  0  0
  182.2830  178.8080  143.0550 C   0  0  0  0  0  0  0  0  0  0  0  0
  187.9830  177.1380  142.9190 C   0  0  1  0  0  3  0  0  0  0  0  0
  188.2190  178.8900  141.1310 C   0  0  0  0  0  2  0  0  0  0  0  0
  180.3270  178.5360  141.9440 N   0  0  0  0  0  0  0  0  0  0  0  0
  190.2740  178.2460  142.4940 C   0  0  2  0  0  3  0  0  0  0  0  0
  186.9720  178.2350  138.6200 C   0  0  0  0  0  3  0  0  0  0  0  0
  186.7610  178.7220  141.0340 N   0  0  0  0  0  0  0  0  0  0  0  0
  186.1690  178.3760  139.7660 C   0  0  0  0  0  0  0  0  0  0  0  0
  183.9210  178.3470  140.8520 C   0  0  0  0  0  0  0  0  0  0  0  0
  179.9850  178.8940  143.3220 C   0  0  0  0  0  3  0  0  0  0  0  0
  189.7240  175.9910  143.6710 C   0  0  0  0  0  2  0  0  0  0  0  0
  188.7410  178.3980  142.4850 C   0  0  2  0  0  3  0  0  0  0  0  0
  181.2690  179.0410  144.0230 N   0  0  0  0  0  0  0  0  0  0  0  0
  188.5530  176.6370  144.0910 O   0  0  0  0  0  0  0  0  0  0  0  0
  190.7650  177.0540  141.6970 C   0  0  1  0  0  3  0  0  0  0  0  0
  184.2230  177.8180  138.4220 C   0  0  0  0  0  2  0  0  0  0  0  0
  184.7820  178.1670  139.6640 C   0  0  0  0  0  0  0  0  0  0  0  0
  182.5160  178.2980  140.7170 C   0  0  0  0  0  3  0  0  0  0  0  0
  186.4850  177.4120  143.1140 C   0  0  0  0  0  2  0  0  0  0  0  0
  184.2180  179.2060  144.5860 C   0  0  0  0  0  1  0  0  0  0  0  0
  179.3960  178.5340  140.8300 C   0  0  0  0  0  1  0  0  0  0  0  0
  184.5030  178.6200  142.1210 C   0  0  0  0  0  0  0  0  0  0  0  0
  181.7370  178.5220  141.8460 C   0  0  0  0  0  0  0  0  0  0  0  0
  192.0710  177.3230  141.2080 O   0  0  0  0  0  0  0  0  0  0  0  0
  192.4250  177.1150  139.8740 C   0  0  0  0  0  0  0  0  0  0  0  0
  191.4140  176.7250  138.8480 C   0  0  0  0  0  1  0  0  0  0  0  0
  193.6250  177.2590  139.5250 O   0  0  0  0  0  0  0  0  0  0  0  0
  1 16  1  1  0  0  0
  2 24  1  0  0  0  0
  3 11  1  0  0  0  0
  4  3  2  0  0  0  0
  4 21  1  0  0  0  0
  5 25  1  0  0  0  0
  6  5  2  0  0  0  0
  6 18  1  0  0  0  0
  7 24  1  1  0  0  0
  7 19  1  0  0  0  0
  8 17  1  0  0  0  0
  9 15  1  0  0  0  0
 10  1  1  0  0  0  0
 11 13  2  0  0  0  0
 12  8  1  0  0  0  0
 12  2  1  0  0  0  0
 13 12  1  0  0  0  0
 14 27  1  0  0  0  0
 15 18  2  0  0  0  0
 16 19  1  0  0  0  0
 17 10  1  0  0  0  0
 17  7  1  0  0  0  0
 20 10  1  0  0  0  0
 20  1  1  0  0  0  0
 21 22  1  0  0  0  0
 22 13  1  0  0  0  0
 22 14  2  0  0  0  0
 23 14  1  0  0  0  0
 23 28  2  0  0  0  0
 26  9  1  0  0  0  0
 27  2  2  0  0  0  0
 27  5  1  0  0  0  0
 28  9  1  0  0  0  0
 28  6  1  0  0  0  0
 29 20  1  0  0  0  0
 30 29  1  0  0  0  0
 31 30  1  0  0  0  0
 32 30  2  0  0  0  0
M  END
>  <MODEL>
2

>  <REMARK>
 VINA RESULT:      -8.7      3.442      6.715
  Name = 
  2 active torsions:
  status: ('A' for Active; 'I' for Inactive)
    1  A    between atoms: C_20  and  O_29
    2  A    between atoms: O_29  and  C_30
                            x       y       z     vdW  Elec       q    Type
                         _______ _______ _______ _____ _____    ______ ____

>  <TORSDO>
F 2

$$$$
=
 OpenBabel11122410463D

 32 38  0  0  1  0  0  0  0  0999 V2000
  190.9240  177.2760  141.2660 C   0  0  1  0  0  3  0  0  0  0  0  0
  185.9020  177.5630  142.3590 C   0  0  0  0  0  0  0  0  0  0  0  0
  186.7170  178.2510  147.2130 C   0  0  0  0  0  3  0  0  0  0  0  0
  185.5200  178.9560  147.3310 C   0  0  0  0  0  3  0  0  0  0  0  0
  183.6030  178.1590  141.4710 C   0  0  0  0  0  0  0  0  0  0  0  0
  182.3490  178.7320  141.6810 C   0  0  0  0  0  0  0  0  0  0  0  0
  188.2650  178.1890  141.6280 C   0  0  1  0  0  3  0  0  0  0  0  0
  187.9030  176.5310  143.4840 C   0  0  0  0  0  2  0  0  0  0  0  0
  180.6690  179.7420  142.8190 N   0  0  0  0  0  0  0  0  0  0  0  0
  190.0020  176.3290  142.0530 C   0  0  2  0  0  3  0  0  0  0  0  0
  187.0720  177.6800  145.9900 C   0  0  0  0  0  3  0  0  0  0  0  0
  186.6130  177.2280  143.6040 N   0  0  0  0  0  0  0  0  0  0  0  0
  186.2350  177.8080  144.8680 C   0  0  2  0  0  3  0  0  0  0  0  0
  184.1170  178.6280  143.8290 C   0  0  0  0  0  0  0  0  0  0  0  0
  180.1720  179.4900  141.4660 C   0  0  0  0  0  3  0  0  0  0  0  0
  190.2780  178.5880  140.7920 C   0  0  0  0  0  2  0  0  0  0  0  0
  188.5210  176.7530  142.1000 C   0  0  2  0  0  3  0  0  0  0  0  0
  181.2870  178.8580  140.7450 N   0  0  0  0  0  0  0  0  0  0  0  0
  188.9380  178.4060  140.4240 O   0  0  0  0  0  0  0  0  0  0  0  0
  190.9240  177.2810  142.7880 C   0  0  1  0  0  3  0  0  0  0  0  0
  184.6780  179.0870  146.2260 C   0  0  0  0  0  3  0  0  0  0  0  0
  185.0250  178.5170  144.9890 C   0  0  0  0  0  0  0  0  0  0  0  0
  182.8350  179.1960  143.9890 C   0  0  0  0  0  3  0  0  0  0  0  0
  186.7660  178.4790  141.4760 C   0  0  0  0  0  2  0  0  0  0  0  0
  183.9480  177.6010  140.1290 C   0  0  0  0  0  1  0  0  0  0  0  0
  179.8440  180.1220  143.9510 C   0  0  0  0  0  1  0  0  0  0  0  0
  184.5140  178.1200  142.5600 C   0  0  0  0  0  0  0  0  0  0  0  0
  181.9880  179.2380  142.8870 C   0  0  0  0  0  0  0  0  0  0  0  0
  192.0560  176.5660  143.2610 O   0  0  0  0  0  0  0  0  0  0  0  0
  192.0160  175.7870  144.4190 C   0  0  0  0  0  0  0  0  0  0  0  0
  191.6790  176.3790  145.7470 C   0  0  0  0  0  1  0  0  0  0  0  0
  192.2680  174.5570  144.3440 O   0  0  0  0  0  0  0  0  0  0  0  0
  1 16  1  6  0  0  0
  1 10  1  0  0  0  0
  1 20  1  0  0  0  0
  2 27  2  0  0  0  0
  2 12  1  0  0  0  0
  3  4  1  0  0  0  0
  5  6  2  0  0  0  0
  5 27  1  0  0  0  0
  6 28  1  0  0  0  0
  7 24  1  6  0  0  0
  7 17  1  0  0  0  0
  8 12  1  0  0  0  0
  9 28  1  0  0  0  0
  9 26  1  0  0  0  0
 10 17  1  0  0  0  0
 10 20  1  0  0  0  0
 11  3  2  0  0  0  0
 12 13  1  0  0  0  0
 13 22  1  0  0  0  0
 13 11  1  0  0  0  0
 14 23  1  0  0  0  0
 14 22  2  0  0  0  0
 15  9  1  0  0  0  0
 17  8  1  0  0  0  0
 18 15  2  0  0  0  0
 18  6  1  0  0  0  0
 19 16  1  0  0  0  0
 19  7  1  0  0  0  0
 20 29  1  0  0  0  0
 21  4  2  0  0  0  0
 22 21  1  0  0  0  0
 24  2  1  0  0  0  0
 25  5  1  0  0  0  0
 27 14  1  0  0  0  0
 28 23  2  0  0  0  0
 29 30  1  0  0  0  0
 30 31  1  0  0  0  0
 32 30  2  0  0  0  0
M  END
>  <MODEL>
3

>  <REMARK>
 VINA RESULT:      -8.6      3.250      7.165
  Name = 
  2 active torsions:
  status: ('A' for Active; 'I' for Inactive)
    1  A    between atoms: C_20  and  O_29
    2  A    between atoms: O_29  and  C_30
                            x       y       z     vdW  Elec       q    Type
                         _______ _______ _______ _____ _____    ______ ____

>  <TORSDO>
F 2

$$$$
=
 OpenBabel11122410463D

 32 38  0  0  1  0  0  0  0  0999 V2000
  191.2720  177.6950  145.4780 C   0  0  1  0  0  3  0  0  0  0  0  0
  189.2390  176.9680  140.8050 C   0  0  0  0  0  0  0  0  0  0  0  0
  184.8280  178.8350  142.1320 C   0  0  0  0  0  3  0  0  0  0  0  0
  184.5830  179.2350  140.8190 C   0  0  0  0  0  3  0  0  0  0  0  0
  189.7230  176.7850  138.3220 C   0  0  0  0  0  0  0  0  0  0  0  0
  189.3560  177.0650  137.0060 C   0  0  0  0  0  0  0  0  0  0  0  0
  190.5260  177.9850  142.7580 C   0  0  1  0  0  3  0  0  0  0  0  0
  188.3930  176.7160  143.1620 C   0  0  0  0  0  2  0  0  0  0  0  0
  188.0770  177.8490  135.3080 N   0  0  0  0  0  0  0  0  0  0  0  0
  190.1710  176.7380  144.9890 C   0  0  2  0  0  3  0  0  0  0  0  0
  185.9890  178.1250  142.4390 C   0  0  0  0  0  3  0  0  0  0  0  0
  188.1260  177.0850  141.7640 N   0  0  0  0  0  0  0  0  0  0  0  0
  186.9230  177.8070  141.4380 C   0  0  0  0  0  0  0  0  0  0  0  0
  187.6260  177.8480  139.0420 C   0  0  0  0  0  0  0  0  0  0  0  0
  189.2420  177.2050  134.6980 C   0  0  0  0  0  3  0  0  0  0  0  0
  191.8080  178.6800  144.4270 C   0  0  0  0  0  2  0  0  0  0  0  0
  189.8920  176.7870  143.4740 C   0  0  2  0  0  3  0  0  0  0  0  0
  190.0640  176.7280  135.8210 N   0  0  0  0  0  0  0  0  0  0  0  0
  191.8610  178.1030  143.1500 O   0  0  0  0  0  0  0  0  0  0  0  0
  189.8030  178.0180  145.7100 C   0  0  1  0  0  3  0  0  0  0  0  0
  185.4990  178.9210  139.8140 C   0  0  0  0  0  2  0  0  0  0  0  0
  186.6730  178.2080  140.1120 C   0  0  0  0  0  0  0  0  0  0  0  0
  187.3010  178.1060  137.6930 C   0  0  0  0  0  3  0  0  0  0  0  0
  190.4140  177.8620  141.2320 C   0  0  0  0  0  2  0  0  0  0  0  0
  190.9990  176.0590  138.5990 C   0  0  0  0  0  1  0  0  0  0  0  0
  186.8770  178.2440  134.5940 C   0  0  0  0  0  1  0  0  0  0  0  0
  188.8500  177.1980  139.3650 C   0  0  0  0  0  0  0  0  0  0  0  0
  188.1990  177.7080  136.7090 C   0  0  0  0  0  0  0  0  0  0  0  0
  189.4620  177.7170  147.0550 O   0  0  0  0  0  0  0  0  0  0  0  0
  188.1430  177.7430  147.5140 C   0  0  0  0  0  0  0  0  0  0  0  0
  186.9870  177.7590  146.5700 C   0  0  0  0  0  1  0  0  0  0  0  0
  187.9220  177.7530  148.7520 O   0  0  0  0  0  0  0  0  0  0  0  0
  1 16  1  6  0  0  0
  1 20  1  0  0  0  0
  2 24  1  0  0  0  0
  2 12  1  0  0  0  0
  3 11  1  0  0  0  0
  4  3  2  0  0  0  0
  5 25  1  0  0  0  0
  5 27  1  0  0  0  0
  6  5  2  0  0  0  0
  7 24  1  6  0  0  0
  7 19  1  0  0  0  0
  7 17  1  0  0  0  0
  8 17  1  0  0  0  0
  9 28  1  0  0  0  0
 10  1  1  0  0  0  0
 10 20  1  0  0  0  0
 12  8  1  0  0  0  0
 13 12  1  0  0  0  0
 13 11  2  0  0  0  0
 14 27  1  0  0  0  0
 14 22  2  0  0  0  0
 15  9  1  0  0  0  0
 15 18  2  0  0  0  0
 17 10  1  0  0  0  0
 18  6  1  0  0  0  0
 19 16  1  0  0  0  0
 20 29  1  0  0  0  0
 21 22  1  0  0  0  0
 21  4  1  0  0  0  0
 22 13  1  0  0  0  0
 23 14  1  0  0  0  0
 26  9  1  0  0  0  0
 27  2  2  0  0  0  0
 28  6  1  0  0  0  0
 28 23  2  0  0  0  0
 29 30  1  0  0  0  0
 30 32  2  0  0  0  0
 31 30  1  0  0  0  0
M  END
>  <MODEL>
4

>  <REMARK>
 VINA RESULT:      -8.5      3.142      7.877
  Name = 
  2 active torsions:
  status: ('A' for Active; 'I' for Inactive)
    1  A    between atoms: C_20  and  O_29
    2  A    between atoms: O_29  and  C_30
                            x       y       z     vdW  Elec       q    Type
                         _______ _______ _______ _____ _____    ______ ____

>  <TORSDO>
F 2

$$$$
=
 OpenBabel11122410463D

 32 38  0  0  1  0  0  0  0  0999 V2000
  180.2290  177.9050  140.1310 C   0  0  1  0  0  3  0  0  0  0  0  0
  185.2450  178.5520  141.0850 C   0  0  0  0  0  0  0  0  0  0  0  0
  184.5990  178.4770  146.0130 C   0  0  0  0  0  3  0  0  0  0  0  0
  185.8920  177.9880  146.1910 C   0  0  0  0  0  3  0  0  0  0  0  0
  187.6000  178.1880  140.2170 C   0  0  0  0  0  0  0  0  0  0  0  0
  188.9300  177.8510  140.4660 C   0  0  0  0  0  0  0  0  0  0  0  0
  183.0010  177.4720  140.5330 C   0  0  1  0  0  3  0  0  0  0  0  0
  183.1210  179.4230  142.1150 C   0  0  0  0  0  2  0  0  0  0  0  0
  190.7580  177.2890  141.6820 N   0  0  0  0  0  0  0  0  0  0  0  0
  181.0000  179.0880  140.7410 C   0  0  2  0  0  3  0  0  0  0  0  0
  184.1470  178.7990  144.7320 C   0  0  0  0  0  3  0  0  0  0  0  0
  184.5040  178.9570  142.2920 N   0  0  0  0  0  0  0  0  0  0  0  0
  184.9820  178.6350  143.6130 C   0  0  2  0  0  3  0  0  0  0  0  0
  187.1900  178.0020  142.6340 C   0  0  0  0  0  0  0  0  0  0  0  0
  191.1960  177.4090  140.2900 C   0  0  0  0  0  3  0  0  0  0  0  0
  181.0660  176.6510  139.8310 C   0  0  0  0  0  2  0  0  0  0  0  0
  182.5290  178.9060  140.7990 C   0  0  2  0  0  3  0  0  0  0  0  0
  189.9890  177.7500  139.5230 N   0  0  0  0  0  0  0  0  0  0  0  0
  182.3580  176.9790  139.3960 O   0  0  0  0  0  0  0  0  0  0  0  0
  180.2460  178.1260  141.6360 C   0  0  1  0  0  3  0  0  0  0  0  0
  186.7330  177.8250  145.0900 C   0  0  0  0  0  3  0  0  0  0  0  0
  186.2880  178.1440  143.7960 C   0  0  0  0  0  0  0  0  0  0  0  0
  188.5470  177.6660  142.8320 C   0  0  0  0  0  3  0  0  0  0  0  0
  184.5260  177.3940  140.3740 C   0  0  0  0  0  2  0  0  0  0  0  0
  187.1580  178.4820  138.8210 C   0  0  0  0  0  1  0  0  0  0  0  0
  191.6450  177.2110  142.8290 C   0  0  0  0  0  1  0  0  0  0  0  0
  186.7060  178.2500  141.3190 C   0  0  0  0  0  0  0  0  0  0  0  0
  189.3780  177.5900  141.7200 C   0  0  0  0  0  0  0  0  0  0  0  0
  179.0210  178.7230  142.0380 O   0  0  0  0  0  0  0  0  0  0  0  0
  178.9750  179.8450  142.8680 C   0  0  0  0  0  0  0  0  0  0  0  0
  178.9310  179.7160  144.3550 C   0  0  0  0  0  1  0  0  0  0  0  0
  178.9720  180.9920  142.3540 O   0  0  0  0  0  0  0  0  0  0  0  0
  1 16  1  1  0  0  0
  1 10  1  0  0  0  0
  1 20  1  0  0  0  0
  2 27  2  0  0  0  0
  2 12  1  0  0  0  0
  3  4  1  0  0  0  0
  5  6  2  0  0  0  0
  5 27  1  0  0  0  0
  6 28  1  0  0  0  0
  7 24  1  6  0  0  0
  7 17  1  0  0  0  0
  8 12  1  0  0  0  0
  9 28  1  0  0  0  0
  9 26  1  0  0  0  0
 10 17  1  0  0  0  0
 10 20  1  0  0  0  0
 11  3  2  0  0  0  0
 12 13  1  0  0  0  0
 13 22  1  0  0  0  0
 13 11  1  0  0  0  0
 14 23  1  0  0  0  0
 14 22  2  0  0  0  0
 15  9  1  0  0  0  0
 17  8  1  0  0  0  0
 18 15  2  0  0  0  0
 18  6  1  0  0  0  0
 19 16  1  0  0  0  0
 19  7  1  0  0  0  0
 20 29  1  0  0  0  0
 21  4  2  0  0  0  0
 22 21  1  0  0  0  0
 24  2  1  0  0  0  0
 25  5  1  0  0  0  0
 27 14  1  0  0  0  0
 28 23  2  0  0  0  0
 29 30  1  0  0  0  0
 30 31  1  0  0  0  0
 32 30  2  0  0  0  0
M  END
>  <MODEL>
5

>  <REMARK>
 VINA RESULT:      -8.0      3.854      6.946
  Name = 
  2 active torsions:
  status: ('A' for Active; 'I' for Inactive)
    1  A    between atoms: C_20  and  O_29
    2  A    between atoms: O_29  and  C_30
                            x       y       z     vdW  Elec       q    Type
                         _______ _______ _______ _____ _____    ______ ____

>  <TORSDO>
F 2

$$$$
=
 OpenBabel11122410463D

 32 38  0  0  1  0  0  0  0  0999 V2000
  191.7090  177.3170  143.5510 C   0  0  1  0  0  3  0  0  0  0  0  0
  186.8220  177.6440  141.9670 C   0  0  0  0  0  0  0  0  0  0  0  0
  185.0800  178.2530  146.5820 C   0  0  0  0  0  3  0  0  0  0  0  0
  183.9880  178.9690  146.0930 C   0  0  0  0  0  3  0  0  0  0  0  0
  185.2860  178.2790  140.0520 C   0  0  0  0  0  0  0  0  0  0  0  0
  184.0980  178.8620  139.6120 C   0  0  0  0  0  0  0  0  0  0  0  0
  189.2320  178.2540  142.5390 C   0  0  1  0  0  3  0  0  0  0  0  0
  187.9800  176.5740  143.9290 C   0  0  0  0  0  2  0  0  0  0  0  0
  182.0770  179.8750  139.7660 N   0  0  0  0  0  0  0  0  0  0  0  0
  190.5140  176.3680  143.7480 C   0  0  2  0  0  3  0  0  0  0  0  0
  186.0010  177.6960  145.6940 C   0  0  0  0  0  3  0  0  0  0  0  0
  186.8070  177.2830  143.3950 N   0  0  0  0  0  0  0  0  0  0  0  0
  185.8440  177.8490  144.3060 C   0  0  2  0  0  3  0  0  0  0  0  0
  184.5420  178.7080  142.3560 C   0  0  0  0  0  0  0  0  0  0  0  0
  182.3290  179.6480  138.3420 C   0  0  0  0  0  3  0  0  0  0  0  0
  191.3930  178.6430  142.8400 C   0  0  0  0  0  2  0  0  0  0  0  0
  189.2120  176.8080  143.0500 C   0  0  2  0  0  3  0  0  0  0  0  0
  183.6540  179.0140  138.2710 N   0  0  0  0  0  0  0  0  0  0  0  0
  190.4210  178.4810  141.8430 O   0  0  0  0  0  0  0  0  0  0  0  0
  190.9420  177.3000  144.8640 C   0  0  1  0  0  3  0  0  0  0  0  0
  183.8180  179.1250  144.7170 C   0  0  0  0  0  3  0  0  0  0  0  0
  184.7410  178.5700  143.8140 C   0  0  0  0  0  0  0  0  0  0  0  0
  183.3550  179.2880  141.8580 C   0  0  0  0  0  3  0  0  0  0  0  0
  188.0150  178.5630  141.6570 C   0  0  0  0  0  2  0  0  0  0  0  0
  186.2590  177.7360  139.0580 C   0  0  0  0  0  1  0  0  0  0  0  0
  180.7940  180.2470  140.3340 C   0  0  0  0  0  1  0  0  0  0  0  0
  185.5230  178.2130  141.4510 C   0  0  0  0  0  0  0  0  0  0  0  0
  183.1800  179.3550  140.4810 C   0  0  0  0  0  0  0  0  0  0  0  0
  191.6790  176.5650  145.8310 O   0  0  0  0  0  0  0  0  0  0  0  0
  191.4310  176.6760  147.2010 C   0  0  0  0  0  0  0  0  0  0  0  0
  190.1070  177.1270  147.7210 C   0  0  0  0  0  1  0  0  0  0  0  0
  192.3440  176.3890  148.0170 O   0  0  0  0  0  0  0  0  0  0  0  0
  1 16  1  6  0  0  0
  1 10  1  0  0  0  0
  1 20  1  0  0  0  0
  2 12  1  0  0  0  0
  4  3  1  0  0  0  0
  5 27  1  0  0  0  0
  6  5  2  0  0  0  0
  6 28  1  0  0  0  0
  7 24  1  6  0  0  0
  7 17  1  0  0  0  0
  9 26  1  0  0  0  0
  9 28  1  0  0  0  0
 10 20  1  0  0  0  0
 11  3  2  0  0  0  0
 12  8  1  0  0  0  0
 12 13  1  0  0  0  0
 13 11  1  0  0  0  0
 14 22  2  0  0  0  0
 15  9  1  0  0  0  0
 17 10  1  0  0  0  0
 17  8  1  0  0  0  0
 18 15  2  0  0  0  0
 18  6  1  0  0  0  0
 19  7  1  0  0  0  0
 19 16  1  0  0  0  0
 20 29  1  0  0  0  0
 21  4  2  0  0  0  0
 22 13  1  0  0  0  0
 22 21  1  0  0  0  0
 23 14  1  0  0  0  0
 24  2  1  0  0  0  0
 25  5  1  0  0  0  0
 27  2  2  0  0  0  0
 27 14  1  0  0  0  0
 28 23  2  0  0  0  0
 29 30  1  0  0  0  0
 30 31  1  0  0  0  0
 30 32  2  0  0  0  0
M  END
>  <MODEL>
6

>  <REMARK>
 VINA RESULT:      -8.0      3.288      7.766
  Name = 
  2 active torsions:
  status: ('A' for Active; 'I' for Inactive)
    1  A    between atoms: C_20  and  O_29
    2  A    between atoms: O_29  and  C_30
                            x       y       z     vdW  Elec       q    Type
                         _______ _______ _______ _____ _____    ______ ____

>  <TORSDO>
F 2

$$$$
=
 OpenBabel11122410463D

 32 38  0  0  1  0  0  0  0  0999 V2000
  181.3940  178.1500  137.3620 C   0  0  1  0  0  3  0  0  0  0  0  0
  186.0180  178.6450  139.5680 C   0  0  0  0  0  0  0  0  0  0  0  0
  184.1220  178.7270  144.1620 C   0  0  0  0  0  3  0  0  0  0  0  0
  185.3040  178.1980  144.6770 C   0  0  0  0  0  3  0  0  0  0  0  0
  188.5000  178.1750  139.3440 C   0  0  0  0  0  0  0  0  0  0  0  0
  189.7060  177.7980  139.9340 C   0  0  0  0  0  0  0  0  0  0  0  0
  183.9490  177.6310  138.4730 C   0  0  1  0  0  3  0  0  0  0  0  0
  183.7370  179.6180  140.0000 C   0  0  0  0  0  2  0  0  0  0  0  0
  191.1350  177.2050  141.5900 N   0  0  0  0  0  0  0  0  0  0  0  0
  182.0300  179.3210  138.1300 C   0  0  2  0  0  3  0  0  0  0  0  0
  184.0280  179.0290  142.8020 C   0  0  0  0  0  3  0  0  0  0  0  0
  185.0080  179.1080  140.5350 N   0  0  0  0  0  0  0  0  0  0  0  0
  185.1160  178.8060  141.9400 C   0  0  2  0  0  3  0  0  0  0  0  0
  187.4740  178.0690  141.5750 C   0  0  0  0  0  0  0  0  0  0  0  0
  191.9200  177.2730  140.3570 C   0  0  0  0  0  3  0  0  0  0  0  0
  182.2280  176.8590  137.3100 C   0  0  0  0  0  2  0  0  0  0  0  0
  183.4840  179.0870  138.5840 C   0  0  2  0  0  3  0  0  0  0  0  0
  190.9660  177.6350  139.2980 N   0  0  0  0  0  0  0  0  0  0  0  0
  183.6000  177.1300  137.2180 O   0  0  0  0  0  0  0  0  0  0  0  0
  181.0320  178.4110  138.8160 C   0  0  1  0  0  3  0  0  0  0  0  0
  186.3930  177.9750  143.8330 C   0  0  0  0  0  3  0  0  0  0  0  0
  186.3100  178.2750  142.4620 C   0  0  0  0  0  0  0  0  0  0  0  0
  188.7190  177.6910  142.1230 C   0  0  0  0  0  3  0  0  0  0  0  0
  185.4590  177.4950  138.7150 C   0  0  0  0  0  2  0  0  0  0  0  0
  188.4440  178.4470  137.8760 C   0  0  0  0  0  1  0  0  0  0  0  0
  191.6920  177.1280  142.9280 C   0  0  0  0  0  1  0  0  0  0  0  0
  187.3550  178.2980  140.1760 C   0  0  0  0  0  0  0  0  0  0  0  0
  189.8040  177.5560  141.2650 C   0  0  0  0  0  0  0  0  0  0  0  0
  179.7710  179.0610  138.8780 O   0  0  0  0  0  0  0  0  0  0  0  0
  179.5310  180.1460  139.7250 C   0  0  0  0  0  0  0  0  0  0  0  0
  179.9600  180.1300  141.1540 C   0  0  0  0  0  1  0  0  0  0  0  0
  178.9400  181.1600  139.2750 O   0  0  0  0  0  0  0  0  0  0  0  0
  1 16  1  1  0  0  0
  1 10  1  0  0  0  0
  1 20  1  0  0  0  0
  2 27  2  0  0  0  0
  2 12  1  0  0  0  0
  3  4  1  0  0  0  0
  5  6  2  0  0  0  0
  5 27  1  0  0  0  0
  6 28  1  0  0  0  0
  7 17  1  0  0  0  0
  7 24  1  6  0  0  0
  8 12  1  0  0  0  0
  9 26  1  0  0  0  0
 10 17  1  0  0  0  0
 10 20  1  0  0  0  0
 11  3  2  0  0  0  0
 12 13  1  0  0  0  0
 13 22  1  0  0  0  0
 13 11  1  0  0  0  0
 14 23  1  0  0  0  0
 14 22  2  0  0  0  0
 15  9  1  0  0  0  0
 17  8  1  0  0  0  0
 18  6  1  0  0  0  0
 18 15  2  0  0  0  0
 19 16  1  0  0  0  0
 19  7  1  0  0  0  0
 20 29  1  0  0  0  0
 21  4  2  0  0  0  0
 22 21  1  0  0  0  0
 24  2  1  0  0  0  0
 25  5  1  0  0  0  0
 27 14  1  0  0  0  0
 28  9  1  0  0  0  0
 28 23  2  0  0  0  0
 29 30  1  0  0  0  0
 30 31  1  0  0  0  0
 32 30  2  0  0  0  0
M  END
>  <MODEL>
7

>  <REMARK>
 VINA RESULT:      -7.9      3.484      6.045
  Name = 
  2 active torsions:
  status: ('A' for Active; 'I' for Inactive)
    1  A    between atoms: C_20  and  O_29
    2  A    between atoms: O_29  and  C_30
                            x       y       z     vdW  Elec       q    Type
                         _______ _______ _______ _____ _____    ______ ____

>  <TORSDO>
F 2

$$$$
=
 OpenBabel11122410463D

 32 38  0  0  1  0  0  0  0  0999 V2000
  189.5860  177.8640  136.6800 C   0  0  1  0  0  3  0  0  0  0  0  0
  187.5500  177.4090  141.3860 C   0  0  0  0  0  0  0  0  0  0  0  0
  191.9870  176.8250  143.5490 C   0  0  0  0  0  3  0  0  0  0  0  0
  191.4970  177.3650  144.7370 C   0  0  0  0  0  3  0  0  0  0  0  0
  185.5980  178.0220  142.8850 C   0  0  0  0  0  0  0  0  0  0  0  0
  185.1260  178.4060  144.1400 C   0  0  0  0  0  0  0  0  0  0  0  0
  188.4670  178.4100  139.2260 C   0  0  1  0  0  3  0  0  0  0  0  0
  189.4400  176.2880  140.1590 C   0  0  0  0  0  2  0  0  0  0  0  0
  185.2120  178.9210  146.3450 N   0  0  0  0  0  0  0  0  0  0  0  0
  189.5060  176.6620  137.6390 C   0  0  2  0  0  3  0  0  0  0  0  0
  191.1300  176.6400  142.4630 C   0  0  0  0  0  3  0  0  0  0  0  0
  188.8960  176.8120  141.4210 N   0  0  0  0  0  0  0  0  0  0  0  0
  189.7720  176.9930  142.5500 C   0  0  2  0  0  3  0  0  0  0  0  0
  187.8460  177.8780  143.8710 C   0  0  0  0  0  0  0  0  0  0  0  0
  183.8060  179.0030  145.9460 C   0  0  0  0  0  3  0  0  0  0  0  0
  189.0550  179.1940  137.2390 C   0  0  0  0  0  2  0  0  0  0  0  0
  188.7460  176.9280  138.9520 C   0  0  2  0  0  3  0  0  0  0  0  0
  183.7830  178.6880  144.5090 N   0  0  0  0  0  0  0  0  0  0  0  0
  187.9460  179.0030  138.0740 O   0  0  0  0  0  0  0  0  0  0  0  0
  190.7910  177.4560  137.5160 C   0  0  1  0  0  3  0  0  0  0  0  0
  190.1500  177.7170  144.8390 C   0  0  0  0  0  3  0  0  0  0  0  0
  189.2790  177.5360  143.7510 C   0  0  0  0  0  0  0  0  0  0  0  0
  187.3160  178.2680  145.1200 C   0  0  0  0  0  3  0  0  0  0  0  0
  187.5150  178.6010  140.4160 C   0  0  0  0  0  2  0  0  0  0  0  0
  184.6440  177.8790  141.7440 C   0  0  0  0  0  1  0  0  0  0  0  0
  185.6880  178.9070  147.7160 C   0  0  0  0  0  1  0  0  0  0  0  0
  186.9890  177.7680  142.7400 C   0  0  0  0  0  0  0  0  0  0  0  0
  185.9550  178.5330  145.2060 C   0  0  0  0  0  0  0  0  0  0  0  0
  191.7080  176.7400  136.7020 O   0  0  0  0  0  0  0  0  0  0  0  0
  192.8280  176.0940  137.2310 C   0  0  0  0  0  0  0  0  0  0  0  0
  192.7960  174.6470  137.5940 C   0  0  0  0  0  1  0  0  0  0  0  0
  193.8890  176.7460  137.4060 O   0  0  0  0  0  0  0  0  0  0  0  0
  1 16  1  1  0  0  0
  1 20  1  0  0  0  0
  1 10  1  0  0  0  0
  2 12  1  0  0  0  0
  2 27  2  0  0  0  0
  3  4  1  0  0  0  0
  4 21  2  0  0  0  0
  5  6  2  0  0  0  0
  6 18  1  0  0  0  0
  6 28  1  0  0  0  0
  7 24  1  1  0  0  0
  8 12  1  0  0  0  0
  9 26  1  0  0  0  0
 10 17  1  0  0  0  0
 11 13  1  0  0  0  0
 11  3  2  0  0  0  0
 12 13  1  0  0  0  0
 13 22  1  0  0  0  0
 14 23  1  0  0  0  0
 15  9  1  0  0  0  0
 16 19  1  0  0  0  0
 17  7  1  0  0  0  0
 17  8  1  0  0  0  0
 18 15  2  0  0  0  0
 19  7  1  0  0  0  0
 20 10  1  0  0  0  0
 22 14  2  0  0  0  0
 22 21  1  0  0  0  0
 23 28  2  0  0  0  0
 24  2  1  0  0  0  0
 25  5  1  0  0  0  0
 27  5  1  0  0  0  0
 27 14  1  0  0  0  0
 28  9  1  0  0  0  0
 29 30  1  0  0  0  0
 29 20  1  0  0  0  0
 30 32  2  0  0  0  0
 30 31  1  0  0  0  0
M  END
>  <MODEL>
8

>  <REMARK>
 VINA RESULT:      -7.4      2.215      4.757
  Name = 
  2 active torsions:
  status: ('A' for Active; 'I' for Inactive)
    1  A    between atoms: C_20  and  O_29
    2  A    between atoms: O_29  and  C_30
                            x       y       z     vdW  Elec       q    Type
                         _______ _______ _______ _____ _____    ______ ____

>  <TORSDO>
F 2

$$$$
