=
 OpenBabel11122410293D

 30 35  0  0  1  0  0  0  0  0999 V2000
  188.9210  177.2250  144.6420 C   0  0  0  0  0  0  0  0  0  0  0  0
  187.3430  177.7150  146.5300 C   0  0  0  0  0  0  0  0  0  0  0  0
  186.2130  178.5910  141.8610 N   0  0  0  0  0  2  0  0  0  0  0  0
  189.1870  177.2150  143.2460 C   0  0  0  0  0  0  0  0  0  0  0  0
  189.9190  176.7570  145.5100 O   0  0  0  0  0  0  0  0  0  0  0  0
  190.7970  174.5140  143.6880 C   0  0  0  0  0  1  0  0  0  0  0  0
  190.3390  176.5790  140.3680 C   0  0  1  0  0  3  0  0  0  0  0  0
  191.3050  175.9510  143.6850 C   0  0  2  0  0  3  0  0  0  0  0  0
  189.0320  177.2000  139.9700 C   0  0  2  0  0  3  0  0  0  0  0  0
  186.9480  178.3120  140.7630 C   0  0  0  0  0  0  0  0  0  0  0  0
  191.2680  176.5720  145.0830 C   0  0  2  0  0  3  0  0  0  0  0  0
  190.4760  176.7600  142.7960 N   0  0  0  0  0  0  0  0  0  0  0  0
  186.1050  178.2140  146.9460 C   0  0  0  0  0  3  0  0  0  0  0  0
  189.4340  178.2170  138.9290 C   0  0  0  0  0  2  0  0  0  0  0  0
  191.1630  176.7520  139.1110 C   0  0  0  0  0  2  0  0  0  0  0  0
  188.3970  177.1260  147.8090 Cl  0  0  0  0  0  0  0  0  0  0  0  0
  187.0160  178.1930  142.8630 C   0  0  0  0  0  0  0  0  0  0  0  0
  185.1800  178.7040  146.0270 C   0  0  0  0  0  3  0  0  0  0  0  0
  187.6730  177.7020  145.1460 C   0  0  0  0  0  0  0  0  0  0  0  0
  188.1970  177.6990  142.3740 C   0  0  0  0  0  0  0  0  0  0  0  0
  186.5110  178.5080  139.5960 O   0  0  0  0  0  0  0  0  0  0  0  0
  188.1700  177.7770  141.0200 N   0  0  0  0  0  0  0  0  0  0  0  0
  190.6300  177.7920  138.3210 O   0  0  0  0  0  0  0  0  0  0  0  0
  191.2010  178.7320  141.5050 C   0  0  0  0  0  1  0  0  0  0  0  0
  185.4830  178.7000  144.6690 C   0  0  0  0  0  3  0  0  0  0  0  0
  186.7130  178.2070  144.2230 C   0  0  0  0  0  0  0  0  0  0  0  0
  191.0670  177.2110  141.5500 C   0  0  2  0  0  3  0  0  0  0  0  0
  192.0560  175.7610  146.1020 C   0  0  0  0  0  2  0  0  0  0  0  0
  192.8450  175.8210  148.4450 C   0  0  0  0  0  1  0  0  0  0  0  0
  191.7290  176.2290  147.5060 C   0  0  0  0  0  2  0  0  0  0  0  0
  1 19  1  0  0  0  0
  1  5  1  0  0  0  0
  2 13  1  0  0  0  0
  2 16  1  0  0  0  0
  3 17  1  0  0  0  0
  4  1  2  0  0  0  0
  7 15  1  6  0  0  0
  7 27  1  0  0  0  0
  8  6  1  1  0  0  0
  8 11  1  0  0  0  0
  9 14  1  6  0  0  0
  9  7  1  0  0  0  0
  9 22  1  0  0  0  0
 10 22  1  0  0  0  0
 10  3  1  0  0  0  0
 11  5  1  0  0  0  0
 11 28  1  1  0  0  0
 12  4  1  0  0  0  0
 12  8  1  0  0  0  0
 17 26  1  0  0  0  0
 18 13  2  0  0  0  0
 19  2  2  0  0  0  0
 20 17  2  0  0  0  0
 20  4  1  0  0  0  0
 21 10  2  0  0  0  0
 22 20  1  0  0  0  0
 23 14  1  0  0  0  0
 23 15  1  0  0  0  0
 25 18  1  0  0  0  0
 26 25  2  0  0  0  0
 26 19  1  0  0  0  0
 27 24  1  6  0  0  0
 27 12  1  0  0  0  0
 28 30  1  0  0  0  0
 30 29  1  0  0  0  0
M  END
>  <MODEL>
1

>  <REMARK>
 VINA RESULT:      -8.3      0.000      0.000
  Name = 
  2 active torsions:
  status: ('A' for Active; 'I' for Inactive)
    1  A    between atoms: C_11  and  C_28
    2  A    between atoms: C_28  and  C_30
                            x       y       z     vdW  Elec       q    Type
                         _______ _______ _______ _____ _____    ______ ____

>  <TORSDO>
F 2

$$$$
=
 OpenBabel11122410293D

 30 35  0  0  1  0  0  0  0  0999 V2000
  186.6360  178.3890  140.3860 C   0  0  0  0  0  0  0  0  0  0  0  0
  188.4200  178.0370  138.6560 C   0  0  0  0  0  0  0  0  0  0  0  0
  189.1940  177.3010  143.4200 N   0  0  0  0  0  2  0  0  0  0  0  0
  186.2340  178.3450  141.7480 C   0  0  0  0  0  0  0  0  0  0  0  0
  185.6950  178.7940  139.4290 O   0  0  0  0  0  0  0  0  0  0  0  0
  183.3770  177.3800  140.7520 C   0  0  0  0  0  1  0  0  0  0  0  0
  184.5530  178.1710  144.4240 C   0  0  1  0  0  3  0  0  0  0  0  0
  183.8740  178.7930  141.0360 C   0  0  2  0  0  3  0  0  0  0  0  0
  185.8950  177.7550  144.9560 C   0  0  2  0  0  3  0  0  0  0  0  0
  188.3020  177.3940  144.4300 C   0  0  0  0  0  0  0  0  0  0  0  0
  184.4780  179.4460  139.7910 C   0  0  2  0  0  3  0  0  0  0  0  0
  184.8940  178.7510  142.0800 N   0  0  0  0  0  0  0  0  0  0  0  0
  189.7430  177.6920  138.3640 C   0  0  0  0  0  3  0  0  0  0  0  0
  186.0700  178.6290  146.1740 C   0  0  0  0  0  2  0  0  0  0  0  0
  183.8510  178.6410  145.6790 C   0  0  0  0  0  2  0  0  0  0  0  0
  187.4150  178.4460  137.2700 Cl  0  0  0  0  0  0  0  0  0  0  0  0
  188.4650  177.6550  142.3480 C   0  0  0  0  0  0  0  0  0  0  0  0
  190.6350  177.3430  139.3750 C   0  0  0  0  0  3  0  0  0  0  0  0
  187.9660  178.0340  140.0050 C   0  0  0  0  0  0  0  0  0  0  0  0
  187.1790  177.9570  142.7120 C   0  0  0  0  0  0  0  0  0  0  0  0
  188.6020  177.0950  145.6180 O   0  0  0  0  0  0  0  0  0  0  0  0
  187.0620  177.8010  144.0550 N   0  0  0  0  0  0  0  0  0  0  0  0
  184.7990  178.9760  146.6680 O   0  0  0  0  0  0  0  0  0  0  0  0
  185.3760  180.5190  143.7310 C   0  0  0  0  0  1  0  0  0  0  0  0
  190.2120  177.3330  140.7010 C   0  0  0  0  0  3  0  0  0  0  0  0
  188.8940  177.6730  141.0230 C   0  0  0  0  0  0  0  0  0  0  0  0
  184.5450  179.2850  143.3830 C   0  0  2  0  0  3  0  0  0  0  0  0
  183.5070  179.4790  138.6200 C   0  0  0  0  0  2  0  0  0  0  0  0
  181.0920  180.0000  138.7350 C   0  0  0  0  0  1  0  0  0  0  0  0
  182.4880  180.5830  138.8190 C   0  0  0  0  0  2  0  0  0  0  0  0
  1  4  1  0  0  0  0
  2 19  1  0  0  0  0
  3 10  1  0  0  0  0
  4 12  1  0  0  0  0
  4 20  2  0  0  0  0
  5 11  1  0  0  0  0
  5  1  1  0  0  0  0
  7  9  1  0  0  0  0
  7 15  1  1  0  0  0
  8  6  1  6  0  0  0
  8 12  1  0  0  0  0
  9 14  1  1  0  0  0
 10 21  2  0  0  0  0
 11 28  1  6  0  0  0
 11  8  1  0  0  0  0
 12 27  1  0  0  0  0
 13  2  2  0  0  0  0
 13 18  1  0  0  0  0
 14 23  1  0  0  0  0
 15 23  1  0  0  0  0
 16  2  1  0  0  0  0
 17 20  1  0  0  0  0
 17  3  1  0  0  0  0
 18 25  2  0  0  0  0
 19  1  2  0  0  0  0
 19 26  1  0  0  0  0
 20 22  1  0  0  0  0
 22 10  1  0  0  0  0
 22  9  1  0  0  0  0
 25 26  1  0  0  0  0
 26 17  2  0  0  0  0
 27 24  1  1  0  0  0
 27  7  1  0  0  0  0
 28 30  1  0  0  0  0
 29 30  1  0  0  0  0
M  END
>  <MODEL>
2

>  <REMARK>
 VINA RESULT:      -8.1      3.160      7.928
  Name = 
  2 active torsions:
  status: ('A' for Active; 'I' for Inactive)
    1  A    between atoms: C_11  and  C_28
    2  A    between atoms: C_28  and  C_30
                            x       y       z     vdW  Elec       q    Type
                         _______ _______ _______ _____ _____    ______ ____

>  <TORSDO>
F 2

$$$$
=
 OpenBabel11122410293D

 30 35  0  0  1  0  0  0  0  0999 V2000
  186.0780  178.2600  142.2260 C   0  0  0  0  0  0  0  0  0  0  0  0
  183.6130  178.7150  142.0960 C   0  0  0  0  0  0  0  0  0  0  0  0
  185.9770  178.2170  146.3400 N   0  0  0  0  0  2  0  0  0  0  0  0
  187.2390  178.0550  143.0180 C   0  0  0  0  0  0  0  0  0  0  0  0
  186.2140  178.2350  140.8310 O   0  0  0  0  0  0  0  0  0  0  0  0
  188.8800  179.6530  140.8190 C   0  0  0  0  0  1  0  0  0  0  0  0
  190.2210  177.8740  144.0650 C   0  0  1  0  0  3  0  0  0  0  0  0
  188.6390  178.1530  140.9430 C   0  0  2  0  0  3  0  0  0  0  0  0
  189.5070  177.9440  145.3850 C   0  0  2  0  0  3  0  0  0  0  0  0
  187.3010  178.0370  146.5360 C   0  0  0  0  0  0  0  0  0  0  0  0
  187.3800  177.7140  140.1920 C   0  0  2  0  0  3  0  0  0  0  0  0
  188.4880  177.7970  142.3510 N   0  0  0  0  0  0  0  0  0  0  0  0
  182.4020  178.9070  142.7670 C   0  0  0  0  0  3  0  0  0  0  0  0
  190.1080  176.7990  146.1640 C   0  0  0  0  0  2  0  0  0  0  0  0
  191.5410  177.2460  144.4560 C   0  0  0  0  0  2  0  0  0  0  0  0
  183.5330  178.7930  140.3400 Cl  0  0  0  0  0  0  0  0  0  0  0  0
  185.8760  178.2350  144.9990 C   0  0  0  0  0  0  0  0  0  0  0  0
  182.3370  178.8740  144.1580 C   0  0  0  0  0  3  0  0  0  0  0  0
  184.8060  178.4810  142.8370 C   0  0  0  0  0  0  0  0  0  0  0  0
  187.1040  178.0610  144.4160 C   0  0  0  0  0  0  0  0  0  0  0  0
  187.8090  178.0070  147.6900 O   0  0  0  0  0  0  0  0  0  0  0  0
  188.0320  177.9240  145.3970 N   0  0  0  0  0  0  0  0  0  0  0  0
  191.4040  176.5510  145.6760 O   0  0  0  0  0  0  0  0  0  0  0  0
  189.0980  175.6470  143.3940 C   0  0  0  0  0  1  0  0  0  0  0  0
  183.4910  178.6480  144.9010 C   0  0  0  0  0  3  0  0  0  0  0  0
  184.7170  178.4520  144.2580 C   0  0  0  0  0  0  0  0  0  0  0  0
  189.5590  177.0420  142.9720 C   0  0  2  0  0  3  0  0  0  0  0  0
  187.4140  178.1000  138.7210 C   0  0  0  0  0  2  0  0  0  0  0  0
  189.2050  178.3110  137.0280 C   0  0  0  0  0  1  0  0  0  0  0  0
  188.5430  177.3740  138.0170 C   0  0  0  0  0  2  0  0  0  0  0  0
  1 19  2  0  0  0  0
  1  4  1  0  0  0  0
  2 13  2  0  0  0  0
  2 19  1  0  0  0  0
  3 10  1  0  0  0  0
  4 20  2  0  0  0  0
  5  1  1  0  0  0  0
  7 15  1  1  0  0  0
  7  9  1  0  0  0  0
  8  6  1  1  0  0  0
  8 12  1  0  0  0  0
  9 22  1  0  0  0  0
  9 14  1  1  0  0  0
 10 21  2  0  0  0  0
 11 28  1  6  0  0  0
 11  5  1  0  0  0  0
 11  8  1  0  0  0  0
 12 27  1  0  0  0  0
 12  4  1  0  0  0  0
 13 18  1  0  0  0  0
 15 23  1  0  0  0  0
 16  2  1  0  0  0  0
 17  3  1  0  0  0  0
 18 25  2  0  0  0  0
 19 26  1  0  0  0  0
 20 17  1  0  0  0  0
 20 22  1  0  0  0  0
 22 10  1  0  0  0  0
 23 14  1  0  0  0  0
 26 25  1  0  0  0  0
 26 17  2  0  0  0  0
 27 24  1  1  0  0  0
 27  7  1  0  0  0  0
 29 30  1  0  0  0  0
 30 28  1  0  0  0  0
M  END
>  <MODEL>
3

>  <REMARK>
 VINA RESULT:      -7.7      2.620      5.873
  Name = 
  2 active torsions:
  status: ('A' for Active; 'I' for Inactive)
    1  A    between atoms: C_11  and  C_28
    2  A    between atoms: C_28  and  C_30
                            x       y       z     vdW  Elec       q    Type
                         _______ _______ _______ _____ _____    ______ ____

>  <TORSDO>
F 2

$$$$
=
 OpenBabel11122410293D

 30 35  0  0  1  0  0  0  0  0999 V2000
  184.4510  178.5120  141.1180 C   0  0  0  0  0  0  0  0  0  0  0  0
  185.7970  178.2850  143.2240 C   0  0  0  0  0  0  0  0  0  0  0  0
  181.0210  179.2980  143.2500 N   0  0  0  0  0  2  0  0  0  0  0  0
  183.1960  178.7410  140.4920 C   0  0  0  0  0  0  0  0  0  0  0  0
  185.5660  178.2740  140.3010 O   0  0  0  0  0  0  0  0  0  0  0  0
  184.0420  176.6230  138.2830 C   0  0  0  0  0  1  0  0  0  0  0  0
  180.7760  178.8140  138.4540 C   0  0  1  0  0  3  0  0  0  0  0  0
  184.2180  178.1380  138.2850 C   0  0  2  0  0  3  0  0  0  0  0  0
  180.0210  179.0500  139.7300 C   0  0  2  0  0  3  0  0  0  0  0  0
  180.1840  179.3810  142.1940 C   0  0  0  0  0  0  0  0  0  0  0  0
  185.5540  178.5560  138.9020 C   0  0  2  0  0  3  0  0  0  0  0  0
  183.1390  178.7520  139.0540 N   0  0  0  0  0  0  0  0  0  0  0  0
  185.8390  178.3340  144.6200 C   0  0  0  0  0  3  0  0  0  0  0  0
  179.1660  180.2520  139.4090 C   0  0  0  0  0  2  0  0  0  0  0  0
  179.8220  179.3690  137.4190 C   0  0  0  0  0  2  0  0  0  0  0  0
  187.3200  177.9020  142.4280 Cl  0  0  0  0  0  0  0  0  0  0  0  0
  182.2080  179.0520  142.6690 C   0  0  0  0  0  0  0  0  0  0  0  0
  184.6970  178.6210  145.3640 C   0  0  0  0  0  3  0  0  0  0  0  0
  184.5730  178.5290  142.5410 C   0  0  0  0  0  0  0  0  0  0  0  0
  182.0810  178.9980  141.3060 C   0  0  0  0  0  0  0  0  0  0  0  0
  178.9450  179.5660  142.3340 O   0  0  0  0  0  0  0  0  0  0  0  0
  180.7800  179.2160  140.9840 N   0  0  0  0  0  0  0  0  0  0  0  0
  178.9310  180.2810  138.0220 O   0  0  0  0  0  0  0  0  0  0  0  0
  182.1580  180.9840  138.6800 C   0  0  0  0  0  1  0  0  0  0  0  0
  183.4900  178.8630  144.7170 C   0  0  0  0  0  3  0  0  0  0  0  0
  183.4170  178.8200  143.3200 C   0  0  0  0  0  0  0  0  0  0  0  0
  182.1330  179.4980  138.3230 C   0  0  2  0  0  3  0  0  0  0  0  0
  186.7440  177.9120  138.2060 C   0  0  0  0  0  2  0  0  0  0  0  0
  189.0990  178.6200  137.9400 C   0  0  0  0  0  1  0  0  0  0  0  0
  188.0250  178.2510  138.9420 C   0  0  0  0  0  2  0  0  0  0  0  0
  1 19  1  0  0  0  0
  2 13  1  0  0  0  0
  4  1  2  0  0  0  0
  4 20  1  0  0  0  0
  5  1  1  0  0  0  0
  7 15  1  6  0  0  0
  7  9  1  0  0  0  0
  8  6  1  1  0  0  0
  8 11  1  0  0  0  0
  8 12  1  0  0  0  0
  9 14  1  6  0  0  0
  9 22  1  0  0  0  0
 10 21  2  0  0  0  0
 10  3  1  0  0  0  0
 11 28  1  6  0  0  0
 11  5  1  0  0  0  0
 12  4  1  0  0  0  0
 13 18  2  0  0  0  0
 15 23  1  0  0  0  0
 16  2  1  0  0  0  0
 17  3  1  0  0  0  0
 17 26  1  0  0  0  0
 19  2  2  0  0  0  0
 19 26  1  0  0  0  0
 20 17  2  0  0  0  0
 22 20  1  0  0  0  0
 22 10  1  0  0  0  0
 23 14  1  0  0  0  0
 25 18  1  0  0  0  0
 26 25  2  0  0  0  0
 27  7  1  0  0  0  0
 27 24  1  1  0  0  0
 27 12  1  0  0  0  0
 28 30  1  0  0  0  0
 29 30  1  0  0  0  0
M  END
>  <MODEL>
4

>  <REMARK>
 VINA RESULT:      -7.7      4.774      7.899
  Name = 
  2 active torsions:
  status: ('A' for Active; 'I' for Inactive)
    1  A    between atoms: C_11  and  C_28
    2  A    between atoms: C_28  and  C_30
                            x       y       z     vdW  Elec       q    Type
                         _______ _______ _______ _____ _____    ______ ____

>  <TORSDO>
F 2

$$$$
=
 OpenBabel11122410293D

 30 35  0  0  1  0  0  0  0  0999 V2000
  185.0770  178.3890  141.2670 C   0  0  0  0  0  0  0  0  0  0  0  0
  184.9970  178.3370  143.7750 C   0  0  0  0  0  0  0  0  0  0  0  0
  189.1480  177.7850  141.2640 N   0  0  0  0  0  2  0  0  0  0  0  0
  185.8410  178.3260  140.0700 C   0  0  0  0  0  0  0  0  0  0  0  0
  183.6920  178.5760  141.1600 O   0  0  0  0  0  0  0  0  0  0  0  0
  183.8840  180.5040  138.8430 C   0  0  0  0  0  1  0  0  0  0  0  0
  186.8700  178.6290  137.0930 C   0  0  1  0  0  3  0  0  0  0  0  0
  183.8040  178.9830  138.7680 C   0  0  2  0  0  3  0  0  0  0  0  0
  188.1840  178.3760  137.7750 C   0  0  2  0  0  3  0  0  0  0  0  0
  189.3250  177.8580  139.9270 C   0  0  0  0  0  0  0  0  0  0  0  0
  182.9960  178.3960  139.9270 C   0  0  2  0  0  3  0  0  0  0  0  0
  185.1520  178.4220  138.8110 N   0  0  0  0  0  0  0  0  0  0  0  0
  185.6810  178.1850  144.9840 C   0  0  0  0  0  3  0  0  0  0  0  0
  188.8060  177.2880  136.9350 C   0  0  0  0  0  2  0  0  0  0  0  0
  187.1800  178.2420  135.6630 C   0  0  0  0  0  2  0  0  0  0  0  0
  183.2660  178.6280  143.9090 Cl  0  0  0  0  0  0  0  0  0  0  0  0
  187.8210  177.9580  141.3960 C   0  0  0  0  0  0  0  0  0  0  0  0
  187.0550  177.9560  145.0090 C   0  0  0  0  0  3  0  0  0  0  0  0
  185.7050  178.2600  142.5430 C   0  0  0  0  0  0  0  0  0  0  0  0
  187.2270  178.1200  140.1720 C   0  0  0  0  0  0  0  0  0  0  0  0
  190.4680  177.7830  139.3980 O   0  0  0  0  0  0  0  0  0  0  0  0
  188.1860  178.0500  139.2140 N   0  0  0  0  0  0  0  0  0  0  0  0
  188.2960  177.3800  135.6260 O   0  0  0  0  0  0  0  0  0  0  0  0
  185.9020  176.3260  137.7490 C   0  0  0  0  0  1  0  0  0  0  0  0
  187.7670  177.8780  143.8170 C   0  0  0  0  0  3  0  0  0  0  0  0
  187.1090  178.0260  142.5920 C   0  0  0  0  0  0  0  0  0  0  0  0
  185.6720  177.8290  137.5940 C   0  0  2  0  0  3  0  0  0  0  0  0
  181.5890  178.9710  140.0060 C   0  0  0  0  0  2  0  0  0  0  0  0
  180.2950  179.5710  142.0270 C   0  0  0  0  0  1  0  0  0  0  0  0
  180.8700  178.4230  141.2220 C   0  0  0  0  0  2  0  0  0  0  0  0
  1 19  1  0  0  0  0
  2 16  1  0  0  0  0
  2 13  1  0  0  0  0
  3 17  1  0  0  0  0
  4 20  1  0  0  0  0
  4  1  2  0  0  0  0
  5  1  1  0  0  0  0
  7 15  1  6  0  0  0
  7 27  1  0  0  0  0
  7  9  1  0  0  0  0
  8 12  1  0  0  0  0
  8  6  1  1  0  0  0
  8 11  1  0  0  0  0
  9 14  1  6  0  0  0
  9 22  1  0  0  0  0
 10  3  1  0  0  0  0
 11 28  1  1  0  0  0
 11  5  1  0  0  0  0
 12  4  1  0  0  0  0
 13 18  2  0  0  0  0
 17 26  1  0  0  0  0
 19 26  1  0  0  0  0
 19  2  2  0  0  0  0
 20 17  2  0  0  0  0
 21 10  2  0  0  0  0
 22 10  1  0  0  0  0
 22 20  1  0  0  0  0
 23 15  1  0  0  0  0
 23 14  1  0  0  0  0
 25 18  1  0  0  0  0
 26 25  2  0  0  0  0
 27 24  1  1  0  0  0
 27 12  1  0  0  0  0
 28 30  1  0  0  0  0
 30 29  1  0  0  0  0
M  END
>  <MODEL>
5

>  <REMARK>
 VINA RESULT:      -7.4      3.218      6.561
  Name = 
  2 active torsions:
  status: ('A' for Active; 'I' for Inactive)
    1  A    between atoms: C_11  and  C_28
    2  A    between atoms: C_28  and  C_30
                            x       y       z     vdW  Elec       q    Type
                         _______ _______ _______ _____ _____    ______ ____

>  <TORSDO>
F 2

$$$$
=
 OpenBabel11122410293D

 30 35  0  0  1  0  0  0  0  0999 V2000
  189.4950  177.4580  141.4430 C   0  0  0  0  0  0  0  0  0  0  0  0
  190.5980  177.0950  139.2180 C   0  0  0  0  0  0  0  0  0  0  0  0
  186.0110  178.7130  139.6480 N   0  0  0  0  0  2  0  0  0  0  0  0
  188.3570  177.8720  142.1860 C   0  0  0  0  0  0  0  0  0  0  0  0
  190.6270  177.0270  142.1480 O   0  0  0  0  0  0  0  0  0  0  0  0
  190.3500  179.0880  144.3380 C   0  0  0  0  0  1  0  0  0  0  0  0
  186.4180  178.9290  144.4540 C   0  0  1  0  0  3  0  0  0  0  0  0
  189.7060  177.7070  144.2910 C   0  0  2  0  0  3  0  0  0  0  0  0
  185.5580  179.2060  143.2540 C   0  0  2  0  0  3  0  0  0  0  0  0
  185.3370  179.0060  140.7820 C   0  0  0  0  0  0  0  0  0  0  0  0
  190.5750  176.6990  143.5370 C   0  0  2  0  0  3  0  0  0  0  0  0
  188.4110  177.7960  143.6220 N   0  0  0  0  0  0  0  0  0  0  0  0
  190.5020  177.1260  137.8240 C   0  0  0  0  0  3  0  0  0  0  0  0
  184.2270  178.6040  143.6380 C   0  0  0  0  0  2  0  0  0  0  0  0
  185.3960  178.8810  145.5680 C   0  0  0  0  0  2  0  0  0  0  0  0
  192.1510  176.5780  139.8640 Cl  0  0  0  0  0  0  0  0  0  0  0  0
  187.1910  178.2680  140.1130 C   0  0  0  0  0  0  0  0  0  0  0  0
  189.3260  177.5240  137.1920 C   0  0  0  0  0  3  0  0  0  0  0  0
  189.4820  177.4770  140.0150 C   0  0  0  0  0  0  0  0  0  0  0  0
  187.2150  178.2880  141.4830 C   0  0  0  0  0  0  0  0  0  0  0  0
  184.1770  179.5010  140.7620 O   0  0  0  0  0  0  0  0  0  0  0  0
  186.0210  178.7550  141.9280 N   0  0  0  0  0  0  0  0  0  0  0  0
  184.1170  178.6080  145.0410 O   0  0  0  0  0  0  0  0  0  0  0  0
  186.4390  176.3780  144.0520 C   0  0  0  0  0  1  0  0  0  0  0  0
  188.2240  177.9020  137.9520 C   0  0  0  0  0  3  0  0  0  0  0  0
  188.2900  177.8810  139.3490 C   0  0  0  0  0  0  0  0  0  0  0  0
  187.2220  177.6330  144.4360 C   0  0  2  0  0  3  0  0  0  0  0  0
  191.9750  176.5830  144.1220 C   0  0  0  0  0  2  0  0  0  0  0  0
  192.0550  176.0020  146.5250 C   0  0  0  0  0  1  0  0  0  0  0  0
  192.0310  175.4410  145.1190 C   0  0  0  0  0  2  0  0  0  0  0  0
  1  5  1  0  0  0  0
  1  4  1  0  0  0  0
  2 16  1  0  0  0  0
  2 19  1  0  0  0  0
  3 17  1  0  0  0  0
  3 10  1  0  0  0  0
  4 12  1  0  0  0  0
  5 11  1  0  0  0  0
  7 15  1  1  0  0  0
  8  6  1  6  0  0  0
  9 14  1  1  0  0  0
  9  7  1  0  0  0  0
 10 22  1  0  0  0  0
 11 28  1  1  0  0  0
 11  8  1  0  0  0  0
 12  8  1  0  0  0  0
 12 27  1  0  0  0  0
 13  2  2  0  0  0  0
 14 23  1  0  0  0  0
 17 20  1  0  0  0  0
 18 13  1  0  0  0  0
 18 25  2  0  0  0  0
 19  1  2  0  0  0  0
 20 22  1  0  0  0  0
 20  4  2  0  0  0  0
 21 10  2  0  0  0  0
 22  9  1  0  0  0  0
 23 15  1  0  0  0  0
 25 26  1  0  0  0  0
 26 19  1  0  0  0  0
 26 17  2  0  0  0  0
 27 24  1  6  0  0  0
 27  7  1  0  0  0  0
 28 30  1  0  0  0  0
 30 29  1  0  0  0  0
M  END
>  <MODEL>
6

>  <REMARK>
 VINA RESULT:      -7.2      2.454      5.476
  Name = 
  2 active torsions:
  status: ('A' for Active; 'I' for Inactive)
    1  A    between atoms: C_11  and  C_28
    2  A    between atoms: C_28  and  C_30
                            x       y       z     vdW  Elec       q    Type
                         _______ _______ _______ _____ _____    ______ ____

>  <TORSDO>
F 2

$$$$
=
 OpenBabel11122410293D

 30 35  0  0  1  0  0  0  0  0999 V2000
  186.6470  178.1470  143.4580 C   0  0  0  0  0  0  0  0  0  0  0  0
  184.7000  178.6310  144.9660 C   0  0  0  0  0  0  0  0  0  0  0  0
  184.3630  178.7990  140.0970 N   0  0  0  0  0  2  0  0  0  0  0  0
  187.1660  178.0130  142.1420 C   0  0  0  0  0  0  0  0  0  0  0  0
  187.5130  177.9240  144.5380 O   0  0  0  0  0  0  0  0  0  0  0  0
  188.9640  175.6280  143.2190 C   0  0  0  0  0  1  0  0  0  0  0  0
  188.8970  177.2130  139.6160 C   0  0  1  0  0  3  0  0  0  0  0  0
  189.2970  177.1110  143.1030 C   0  0  2  0  0  3  0  0  0  0  0  0
  187.6230  177.5990  138.9210 C   0  0  2  0  0  3  0  0  0  0  0  0
  185.3160  178.4990  139.1890 C   0  0  0  0  0  0  0  0  0  0  0  0
  188.9310  177.8780  144.3760 C   0  0  2  0  0  3  0  0  0  0  0  0
  188.5590  177.6900  141.9840 N   0  0  0  0  0  0  0  0  0  0  0  0
  183.3580  179.0000  145.0950 C   0  0  0  0  0  3  0  0  0  0  0  0
  188.0930  178.5350  137.8330 C   0  0  0  0  0  2  0  0  0  0  0  0
  189.9150  177.3520  138.5050 C   0  0  0  0  0  2  0  0  0  0  0  0
  185.5600  178.3430  146.4740 Cl  0  0  0  0  0  0  0  0  0  0  0  0
  185.0070  178.6330  141.2660 C   0  0  0  0  0  0  0  0  0  0  0  0
  182.5700  179.2490  143.9730 C   0  0  0  0  0  3  0  0  0  0  0  0
  185.2810  178.5040  143.6730 C   0  0  0  0  0  0  0  0  0  0  0  0
  186.3070  178.2530  141.0580 C   0  0  0  0  0  0  0  0  0  0  0  0
  185.0830  178.4970  137.9500 O   0  0  0  0  0  0  0  0  0  0  0  0
  186.5220  178.1700  139.7200 N   0  0  0  0  0  0  0  0  0  0  0  0
  189.4220  178.2100  137.5010 O   0  0  0  0  0  0  0  0  0  0  0  0
  189.2810  179.5810  140.5740 C   0  0  0  0  0  1  0  0  0  0  0  0
  183.1180  179.1300  142.7000 C   0  0  0  0  0  3  0  0  0  0  0  0
  184.4580  178.7630  142.5400 C   0  0  0  0  0  0  0  0  0  0  0  0
  189.3160  178.0710  140.8060 C   0  0  2  0  0  3  0  0  0  0  0  0
  189.6030  177.3050  145.6150 C   0  0  0  0  0  2  0  0  0  0  0  0
  189.0520  177.8780  147.9570 C   0  0  0  0  0  1  0  0  0  0  0  0
  188.5860  177.1290  146.7250 C   0  0  0  0  0  2  0  0  0  0  0  0
  1 19  1  0  0  0  0
  1  5  1  0  0  0  0
  2 13  1  0  0  0  0
  2 16  1  0  0  0  0
  3 17  1  0  0  0  0
  4  1  2  0  0  0  0
  7 15  1  6  0  0  0
  7 27  1  0  0  0  0
  8  6  1  1  0  0  0
  8 11  1  0  0  0  0
  9 14  1  6  0  0  0
  9  7  1  0  0  0  0
  9 22  1  0  0  0  0
 10 22  1  0  0  0  0
 10  3  1  0  0  0  0
 11  5  1  0  0  0  0
 11 28  1  1  0  0  0
 12  4  1  0  0  0  0
 12  8  1  0  0  0  0
 17 26  1  0  0  0  0
 18 13  2  0  0  0  0
 19  2  2  0  0  0  0
 20 17  2  0  0  0  0
 20  4  1  0  0  0  0
 21 10  2  0  0  0  0
 22 20  1  0  0  0  0
 23 14  1  0  0  0  0
 23 15  1  0  0  0  0
 25 18  1  0  0  0  0
 26 25  2  0  0  0  0
 26 19  1  0  0  0  0
 27 24  1  6  0  0  0
 27 12  1  0  0  0  0
 28 30  1  0  0  0  0
 30 29  1  0  0  0  0
M  END
>  <MODEL>
7

>  <REMARK>
 VINA RESULT:      -7.2      1.996      2.656
  Name = 
  2 active torsions:
  status: ('A' for Active; 'I' for Inactive)
    1  A    between atoms: C_11  and  C_28
    2  A    between atoms: C_28  and  C_30
                            x       y       z     vdW  Elec       q    Type
                         _______ _______ _______ _____ _____    ______ ____

>  <TORSDO>
F 2

$$$$
=
 OpenBabel11122410293D

 30 35  0  0  1  0  0  0  0  0999 V2000
  186.7860  177.9640  143.0230 C   0  0  0  0  0  0  0  0  0  0  0  0
  189.0800  177.3090  143.8020 C   0  0  0  0  0  0  0  0  0  0  0  0
  188.0100  178.0470  139.0950 N   0  0  0  0  0  2  0  0  0  0  0  0
  185.9130  178.3090  141.9570 C   0  0  0  0  0  0  0  0  0  0  0  0
  186.2670  177.9430  144.3260 O   0  0  0  0  0  0  0  0  0  0  0  0
  184.5110  180.3680  143.9260 C   0  0  0  0  0  1  0  0  0  0  0  0
  183.5360  179.4700  140.2190 C   0  0  1  0  0  3  0  0  0  0  0  0
  184.1510  178.9160  143.6320 C   0  0  2  0  0  3  0  0  0  0  0  0
  184.5560  179.2800  139.1330 C   0  0  2  0  0  3  0  0  0  0  0  0
  186.8390  178.4610  138.5660 C   0  0  0  0  0  0  0  0  0  0  0  0
  184.8620  177.9490  144.5810 C   0  0  2  0  0  3  0  0  0  0  0  0
  184.5350  178.5870  142.2610 N   0  0  0  0  0  0  0  0  0  0  0  0
  190.4010  176.9890  143.4750 C   0  0  0  0  0  3  0  0  0  0  0  0
  183.7900  178.5360  138.0660 C   0  0  0  0  0  2  0  0  0  0  0  0
  182.2430  179.4870  139.4340 C   0  0  0  0  0  2  0  0  0  0  0  0
  188.6900  177.2750  145.5180 Cl  0  0  0  0  0  0  0  0  0  0  0  0
  187.7290  177.9660  140.4080 C   0  0  0  0  0  0  0  0  0  0  0  0
  190.8340  176.9870  142.1510 C   0  0  0  0  0  3  0  0  0  0  0  0
  188.1550  177.6410  142.7730 C   0  0  0  0  0  0  0  0  0  0  0  0
  186.4260  178.3130  140.6490 C   0  0  0  0  0  0  0  0  0  0  0  0
  186.7080  178.6990  137.3340 O   0  0  0  0  0  0  0  0  0  0  0  0
  185.8370  178.6280  139.4670 N   0  0  0  0  0  0  0  0  0  0  0  0
  182.4240  178.8500  138.1890 O   0  0  0  0  0  0  0  0  0  0  0  0
  183.4300  176.9520  140.7830 C   0  0  0  0  0  1  0  0  0  0  0  0
  189.9460  177.3090  141.1300 C   0  0  0  0  0  3  0  0  0  0  0  0
  188.6190  177.6330  141.4270 C   0  0  0  0  0  0  0  0  0  0  0  0
  183.4710  178.3910  141.2950 C   0  0  2  0  0  3  0  0  0  0  0  0
  184.5750  178.2530  146.0440 C   0  0  0  0  0  2  0  0  0  0  0  0
  186.1340  179.6460  147.3650 C   0  0  0  0  0  1  0  0  0  0  0  0
  185.8650  178.2510  146.8400 C   0  0  0  0  0  2  0  0  0  0  0  0
  1  5  1  0  0  0  0
  2 16  1  0  0  0  0
  3 17  1  0  0  0  0
  4 12  1  0  0  0  0
  4  1  2  0  0  0  0
  5 11  1  0  0  0  0
  7 15  1  6  0  0  0
  7 27  1  0  0  0  0
  8  6  1  1  0  0  0
  8 11  1  0  0  0  0
  9 14  1  6  0  0  0
  9 22  1  0  0  0  0
  9  7  1  0  0  0  0
 10  3  1  0  0  0  0
 10 22  1  0  0  0  0
 11 28  1  1  0  0  0
 12  8  1  0  0  0  0
 13  2  1  0  0  0  0
 14 23  1  0  0  0  0
 17 20  2  0  0  0  0
 17 26  1  0  0  0  0
 18 13  2  0  0  0  0
 19  1  1  0  0  0  0
 19  2  2  0  0  0  0
 20  4  1  0  0  0  0
 21 10  2  0  0  0  0
 22 20  1  0  0  0  0
 23 15  1  0  0  0  0
 25 26  2  0  0  0  0
 25 18  1  0  0  0  0
 26 19  1  0  0  0  0
 27 24  1  6  0  0  0
 27 12  1  0  0  0  0
 28 30  1  0  0  0  0
 30 29  1  0  0  0  0
M  END
>  <MODEL>
8

>  <REMARK>
 VINA RESULT:      -6.9      2.418      5.772
  Name = 
  2 active torsions:
  status: ('A' for Active; 'I' for Inactive)
    1  A    between atoms: C_11  and  C_28
    2  A    between atoms: C_28  and  C_30
                            x       y       z     vdW  Elec       q    Type
                         _______ _______ _______ _____ _____    ______ ____

>  <TORSDO>
F 2

$$$$
=
 OpenBabel11122410293D

 30 35  0  0  1  0  0  0  0  0999 V2000
  185.5380  178.4490  141.4760 C   0  0  0  0  0  0  0  0  0  0  0  0
  183.2590  178.9270  140.5390 C   0  0  0  0  0  0  0  0  0  0  0  0
  184.1190  178.6150  145.3350 N   0  0  0  0  0  2  0  0  0  0  0  0
  186.3770  178.2700  142.6080 C   0  0  0  0  0  0  0  0  0  0  0  0
  186.1130  178.3520  140.2010 O   0  0  0  0  0  0  0  0  0  0  0  0
  188.6810  179.7360  140.9870 C   0  0  0  0  0  1  0  0  0  0  0  0
  188.8580  178.1060  144.5670 C   0  0  1  0  0  3  0  0  0  0  0  0
  188.3710  178.2470  141.0920 C   0  0  2  0  0  3  0  0  0  0  0  0
  187.7610  178.2510  145.5820 C   0  0  2  0  0  3  0  0  0  0  0  0
  185.3050  178.4280  145.9550 C   0  0  0  0  0  0  0  0  0  0  0  0
  187.4080  177.7860  139.9960 C   0  0  2  0  0  3  0  0  0  0  0  0
  187.7660  177.9640  142.3900 N   0  0  0  0  0  0  0  0  0  0  0  0
  181.9020  179.1670  140.7750 C   0  0  0  0  0  3  0  0  0  0  0  0
  188.0470  177.1400  146.5620 C   0  0  0  0  0  2  0  0  0  0  0  0
  189.9640  177.4830  145.3890 C   0  0  0  0  0  2  0  0  0  0  0  0
  183.7490  178.9180  138.8490 Cl  0  0  0  0  0  0  0  0  0  0  0  0
  184.4550  178.5660  144.0350 C   0  0  0  0  0  0  0  0  0  0  0  0
  181.3930  179.2050  142.0710 C   0  0  0  0  0  3  0  0  0  0  0  0
  184.1430  178.7160  141.6340 C   0  0  0  0  0  0  0  0  0  0  0  0
  185.8000  178.3490  143.8860 C   0  0  0  0  0  0  0  0  0  0  0  0
  185.4140  178.4510  147.2110 O   0  0  0  0  0  0  0  0  0  0  0  0
  186.3600  178.2500  145.1190 N   0  0  0  0  0  0  0  0  0  0  0  0
  189.4250  176.8520  146.5290 O   0  0  0  0  0  0  0  0  0  0  0  0
  187.9490  175.8620  143.6670 C   0  0  0  0  0  1  0  0  0  0  0  0
  182.2400  179.0030  143.1560 C   0  0  0  0  0  3  0  0  0  0  0  0
  183.6020  178.7600  142.9500 C   0  0  0  0  0  0  0  0  0  0  0  0
  188.5600  177.2280  143.3560 C   0  0  2  0  0  3  0  0  0  0  0  0
  187.9230  178.0970  138.5980 C   0  0  0  0  0  2  0  0  0  0  0  0
  190.1810  177.3850  137.8830 C   0  0  0  0  0  1  0  0  0  0  0  0
  188.7470  176.9370  138.0760 C   0  0  0  0  0  2  0  0  0  0  0  0
  1 19  2  0  0  0  0
  1  4  1  0  0  0  0
  2 13  2  0  0  0  0
  2 19  1  0  0  0  0
  3 10  1  0  0  0  0
  4 20  2  0  0  0  0
  5  1  1  0  0  0  0
  7 15  1  1  0  0  0
  7  9  1  0  0  0  0
  8  6  1  6  0  0  0
  8 12  1  0  0  0  0
  9 14  1  1  0  0  0
 10 21  2  0  0  0  0
 11 28  1  6  0  0  0
 11  5  1  0  0  0  0
 11  8  1  0  0  0  0
 12  4  1  0  0  0  0
 12 27  1  0  0  0  0
 13 18  1  0  0  0  0
 15 23  1  0  0  0  0
 16  2  1  0  0  0  0
 17  3  1  0  0  0  0
 18 25  2  0  0  0  0
 19 26  1  0  0  0  0
 20 17  1  0  0  0  0
 20 22  1  0  0  0  0
 22  9  1  0  0  0  0
 22 10  1  0  0  0  0
 23 14  1  0  0  0  0
 26 25  1  0  0  0  0
 26 17  2  0  0  0  0
 27 24  1  1  0  0  0
 27  7  1  0  0  0  0
 29 30  1  0  0  0  0
 30 28  1  0  0  0  0
M  END
>  <MODEL>
9

>  <REMARK>
 VINA RESULT:      -6.9      3.073      6.290
  Name = 
  2 active torsions:
  status: ('A' for Active; 'I' for Inactive)
    1  A    between atoms: C_11  and  C_28
    2  A    between atoms: C_28  and  C_30
                            x       y       z     vdW  Elec       q    Type
                         _______ _______ _______ _____ _____    ______ ____

>  <TORSDO>
F 2

$$$$
