=
 OpenBabel11122410233D

 30 35  0  0  1  0  0  0  0  0999 V2000
  187.1500  178.4180  140.5710 C   0  0  1  0  0  3  0  0  0  0  0  0
  184.7330  178.9000  139.8010 C   0  0  0  0  0  0  0  0  0  0  0  0
  185.6800  178.0640  144.5830 C   0  0  0  0  0  2  0  0  0  0  0  0
  187.8690  177.6460  141.6950 C   0  0  1  0  0  3  0  0  0  0  0  0
  187.4710  177.7130  139.2610 C   0  0  0  0  0  2  0  0  0  0  0  0
  191.0380  177.3050  139.8620 O   0  0  0  0  0  0  0  0  0  0  0  0
  190.3490  178.1730  143.6920 C   0  0  1  0  0  3  0  0  0  0  0  0
  189.8280  177.5720  140.0910 C   0  0  0  0  0  0  0  0  0  0  0  0
  189.2950  178.0380  144.7200 N   0  0  2  0  0  0  0  0  0  0  0  0
  186.9190  177.5160  145.1780 C   0  0  0  0  0  0  0  0  0  0  0  0
  188.9430  177.9160  138.9250 C   0  0  2  0  0  3  0  0  0  0  0  0
  189.3310  177.5960  141.4480 N   0  0  0  0  0  0  0  0  0  0  0  0
  183.4240  179.0860  140.1070 N   0  0  0  0  0  2  0  0  0  0  0  0
  189.8720  177.1570  145.7290 C   0  0  0  0  0  2  0  0  0  0  0  0
  191.6820  178.0140  144.3970 C   0  0  0  0  0  2  0  0  0  0  0  0
  185.1030  179.0160  138.6040 O   0  0  0  0  0  0  0  0  0  0  0  0
  186.0920  178.3880  143.2310 N   0  0  0  0  0  0  0  0  0  0  0  0
  182.9820  179.0190  141.3880 C   0  0  0  0  0  3  0  0  0  0  0  0
  185.6580  178.5920  140.8230 C   0  0  0  0  0  0  0  0  0  0  0  0
  187.5330  178.2910  143.0370 C   0  0  1  0  0  3  0  0  0  0  0  0
  186.9770  177.0880  146.3200 O   0  0  0  0  0  0  0  0  0  0  0  0
  188.0530  177.4550  144.2020 C   0  0  1  0  0  3  0  0  0  0  0  0
  191.3610  177.4220  145.7510 C   0  0  0  0  0  2  0  0  0  0  0  0
  190.1260  175.7120  142.8640 C   0  0  0  0  0  1  0  0  0  0  0  0
  183.8580  178.7830  142.3960 N   0  0  0  0  0  0  0  0  0  0  0  0
  185.1800  178.5920  142.1470 C   0  0  0  0  0  0  0  0  0  0  0  0
  190.2760  177.1850  142.4970 C   0  0  2  0  0  3  0  0  0  0  0  0
  189.1660  179.2390  138.5360 O   0  0  0  0  0  0  0  0  0  0  0  0
  189.4650  178.0560  136.4960 C   0  0  0  0  0  1  0  0  0  0  0  0
  188.8640  179.2700  137.1750 C   0  0  0  0  0  2  0  0  0  0  0  0
  1  5  1  6  0  0  0
  1 19  1  0  0  0  0
  1  4  1  0  0  0  0
  2 13  1  0  0  0  0
  2 19  1  0  0  0  0
  3 10  1  0  0  0  0
  4 12  1  6  0  0  0
  4 20  1  0  0  0  0
  6  8  2  0  0  0  0
  7 15  1  1  0  0  0
  7  9  1  0  0  0  0
  8 12  1  0  0  0  0
  9 14  1  1  0  0  0
 10 21  2  0  0  0  0
 11 28  1  1  0  0  0
 11  5  1  0  0  0  0
 11  8  1  0  0  0  0
 12 27  1  0  0  0  0
 13 18  1  0  0  0  0
 14 23  1  0  0  0  0
 15 23  1  0  0  0  0
 16  2  2  0  0  0  0
 17  3  1  0  0  0  0
 18 25  2  0  0  0  0
 19 26  2  0  0  0  0
 20 17  1  1  0  0  0
 20 22  1  0  0  0  0
 22  9  1  0  0  0  0
 22 10  1  1  0  0  0
 26 25  1  0  0  0  0
 26 17  1  0  0  0  0
 27 24  1  1  0  0  0
 27  7  1  0  0  0  0
 29 30  1  0  0  0  0
 30 28  1  0  0  0  0
M  END
>  <MODEL>
1

>  <REMARK>
 VINA RESULT:      -9.1      0.000      0.000
  Name = 
  2 active torsions:
  status: ('A' for Active; 'I' for Inactive)
    1  A    between atoms: C_11  and  O_28
    2  A    between atoms: O_28  and  C_30
                            x       y       z     vdW  Elec       q    Type
                         _______ _______ _______ _____ _____    ______ ____

>  <TORSDO>
F 2

$$$$
=
 OpenBabel11122410233D

 30 35  0  0  1  0  0  0  0  0999 V2000
  189.3060  177.2270  143.4440 C   0  0  1  0  0  3  0  0  0  0  0  0
  191.3370  176.5600  144.8920 C   0  0  0  0  0  0  0  0  0  0  0  0
  187.0580  177.7750  147.0540 C   0  0  0  0  0  2  0  0  0  0  0  0
  188.0500  178.1140  143.5600 C   0  0  1  0  0  3  0  0  0  0  0  0
  190.2100  177.8570  142.3940 C   0  0  0  0  0  2  0  0  0  0  0  0
  187.6080  178.5030  139.9310 O   0  0  0  0  0  0  0  0  0  0  0  0
  184.9220  177.8650  142.8070 C   0  0  1  0  0  3  0  0  0  0  0  0
  188.1380  178.1860  141.0300 C   0  0  0  0  0  0  0  0  0  0  0  0
  184.7600  178.0120  144.2700 N   0  0  2  0  0  0  0  0  0  0  0  0
  185.8850  178.4310  146.4350 C   0  0  0  0  0  0  0  0  0  0  0  0
  189.5640  177.7140  141.0210 C   0  0  2  0  0  3  0  0  0  0  0  0
  187.3640  178.2290  142.2500 N   0  0  0  0  0  0  0  0  0  0  0  0
  191.8730  176.3220  146.1170 N   0  0  0  0  0  2  0  0  0  0  0  0
  183.6920  178.9910  144.4290 C   0  0  0  0  0  2  0  0  0  0  0  0
  183.5710  178.1470  142.1790 C   0  0  0  0  0  2  0  0  0  0  0  0
  192.0490  176.3820  143.8690 O   0  0  0  0  0  0  0  0  0  0  0  0
  187.8480  177.3820  145.9040 N   0  0  0  0  0  0  0  0  0  0  0  0
  191.1350  176.4520  147.2480 C   0  0  0  0  0  3  0  0  0  0  0  0
  189.9970  176.9880  144.7820 C   0  0  0  0  0  0  0  0  0  0  0  0
  187.1370  177.5450  144.6420 C   0  0  1  0  0  3  0  0  0  0  0  0
  184.9860  178.9390  147.0850 O   0  0  0  0  0  0  0  0  0  0  0  0
  185.9750  178.4870  144.9410 C   0  0  1  0  0  3  0  0  0  0  0  0
  182.7480  178.8120  143.2600 C   0  0  0  0  0  2  0  0  0  0  0  0
  185.9290  180.2470  142.4860 C   0  0  0  0  0  1  0  0  0  0  0  0
  189.8280  176.8060  147.1670 N   0  0  0  0  0  0  0  0  0  0  0  0
  189.2400  177.0530  145.9670 C   0  0  0  0  0  0  0  0  0  0  0  0
  185.9980  178.7630  142.1400 C   0  0  2  0  0  3  0  0  0  0  0  0
  189.6190  176.3810  140.6040 O   0  0  0  0  0  0  0  0  0  0  0  0
  189.8380  176.2970  138.2390 C   0  0  0  0  0  1  0  0  0  0  0  0
  190.5560  176.3660  139.5710 C   0  0  0  0  0  2  0  0  0  0  0  0
  1  5  1  6  0  0  0
  1  4  1  0  0  0  0
  1 19  1  0  0  0  0
  2 13  1  0  0  0  0
  4 12  1  6  0  0  0
  4 20  1  0  0  0  0
  6  8  2  0  0  0  0
  7 15  1  6  0  0  0
  7  9  1  0  0  0  0
  8 12  1  0  0  0  0
  9 14  1  6  0  0  0
  9 22  1  0  0  0  0
 10  3  1  0  0  0  0
 10 21  2  0  0  0  0
 11 28  1  1  0  0  0
 11  8  1  0  0  0  0
 11  5  1  0  0  0  0
 13 18  1  0  0  0  0
 15 23  1  0  0  0  0
 16  2  2  0  0  0  0
 17 26  1  0  0  0  0
 17  3  1  0  0  0  0
 19  2  1  0  0  0  0
 19 26  2  0  0  0  0
 20 22  1  0  0  0  0
 20 17  1  1  0  0  0
 22 10  1  1  0  0  0
 23 14  1  0  0  0  0
 25 18  2  0  0  0  0
 26 25  1  0  0  0  0
 27 12  1  0  0  0  0
 27 24  1  1  0  0  0
 27  7  1  0  0  0  0
 29 30  1  0  0  0  0
 30 28  1  0  0  0  0
M  END
>  <MODEL>
2

>  <REMARK>
 VINA RESULT:      -9.0      1.938      5.652
  Name = 
  2 active torsions:
  status: ('A' for Active; 'I' for Inactive)
    1  A    between atoms: C_11  and  O_28
    2  A    between atoms: O_28  and  C_30
                            x       y       z     vdW  Elec       q    Type
                         _______ _______ _______ _____ _____    ______ ____

>  <TORSDO>
F 2

$$$$
=
 OpenBabel11122410233D

 30 35  0  0  1  0  0  0  0  0999 V2000
  186.3580  178.1640  142.8050 C   0  0  1  0  0  3  0  0  0  0  0  0
  186.9920  178.2860  145.3050 C   0  0  0  0  0  0  0  0  0  0  0  0
  182.2700  178.8060  143.9270 C   0  0  0  0  0  2  0  0  0  0  0  0
  185.2760  178.7270  141.8620 C   0  0  1  0  0  3  0  0  0  0  0  0
  187.6840  178.7890  142.3970 C   0  0  0  0  0  2  0  0  0  0  0  0
  187.2830  178.3230  138.8080 O   0  0  0  0  0  0  0  0  0  0  0  0
  183.4210  177.5940  139.4760 C   0  0  1  0  0  3  0  0  0  0  0  0
  186.9880  178.3510  140.0330 C   0  0  0  0  0  0  0  0  0  0  0  0
  182.3350  177.9640  140.4100 N   0  0  2  0  0  0  0  0  0  0  0  0
  181.7450  179.0340  142.5630 C   0  0  0  0  0  0  0  0  0  0  0  0
  188.1020  178.2450  141.0360 C   0  0  2  0  0  3  0  0  0  0  0  0
  185.6040  178.4290  140.4460 N   0  0  0  0  0  0  0  0  0  0  0  0
  186.6130  178.4140  146.6030 N   0  0  0  0  0  0  0  0  0  0  0  0
  181.3600  178.6670  139.5850 C   0  0  0  0  0  2  0  0  0  0  0  0
  182.7920  177.4200  138.1080 C   0  0  0  0  0  2  0  0  0  0  0  0
  188.2080  178.1010  145.0400 O   0  0  0  0  0  0  0  0  0  0  0  0
  183.6430  178.4120  143.6800 N   0  0  0  0  0  0  0  0  0  0  0  0
  185.3090  178.5680  146.9460 C   0  0  0  0  0  3  0  0  0  0  0  0
  186.0230  178.3500  144.2800 C   0  0  2  0  0  3  0  0  0  0  0  0
  183.9180  178.1630  142.2690 C   0  0  1  0  0  3  0  0  0  0  0  0
  180.6090  179.4200  142.3420 O   0  0  0  0  0  0  0  0  0  0  0  0
  182.7840  178.8340  141.5020 C   0  0  1  0  0  3  0  0  0  0  0  0
  181.4220  178.0530  138.2040 C   0  0  0  0  0  2  0  0  0  0  0  0
  184.2350  180.0480  139.1470 C   0  0  0  0  0  1  0  0  0  0  0  0
  184.3520  178.5740  145.9850 N   0  0  0  0  0  0  0  0  0  0  0  0
  184.6740  178.4460  144.6710 C   0  0  0  0  0  0  0  0  0  0  0  0
  184.6100  178.5870  139.3750 C   0  0  2  0  0  3  0  0  0  0  0  0
  188.5030  176.9120  141.1580 O   0  0  0  0  0  0  0  0  0  0  0  0
  189.9550  175.9480  142.7750 C   0  0  0  0  0  1  0  0  0  0  0  0
  189.8000  176.9710  141.6680 C   0  0  0  0  0  2  0  0  0  0  0  0
  1  5  1  6  0  0  0
  1 19  1  0  0  0  0
  2 13  1  0  0  0  0
  4 12  1  6  0  0  0
  4 20  1  0  0  0  0
  4  1  1  0  0  0  0
  6  8  2  0  0  0  0
  7 15  1  6  0  0  0
  7  9  1  0  0  0  0
  8 12  1  0  0  0  0
  8 11  1  0  0  0  0
  9 14  1  6  0  0  0
  9 22  1  0  0  0  0
 10  3  1  0  0  0  0
 11 28  1  1  0  0  0
 11  5  1  0  0  0  0
 13 18  2  0  0  0  0
 15 23  1  0  0  0  0
 16  2  2  0  0  0  0
 17  3  1  0  0  0  0
 17 26  1  0  0  0  0
 19 26  1  1  0  0  0
 19  2  1  0  0  0  0
 20 17  1  1  0  0  0
 21 10  2  0  0  0  0
 22 20  1  0  0  0  0
 22 10  1  1  0  0  0
 23 14  1  0  0  0  0
 25 18  1  0  0  0  0
 26 25  2  0  0  0  0
 27 24  1  1  0  0  0
 27  7  1  0  0  0  0
 27 12  1  0  0  0  0
 28 30  1  0  0  0  0
 30 29  1  0  0  0  0
M  END
>  <MODEL>
3

>  <REMARK>
 VINA RESULT:      -8.1      2.213      6.222
  Name = 
  2 active torsions:
  status: ('A' for Active; 'I' for Inactive)
    1  A    between atoms: C_11  and  O_28
    2  A    between atoms: O_28  and  C_30
                            x       y       z     vdW  Elec       q    Type
                         _______ _______ _______ _____ _____    ______ ____

>  <TORSDO>
F 2

$$$$
=
 OpenBabel11122410233D

 30 35  0  0  1  0  0  0  0  0999 V2000
  186.9440  178.0050  142.1620 C   0  0  1  0  0  3  0  0  0  0  0  0
  188.0580  177.9760  144.4910 C   0  0  0  0  0  0  0  0  0  0  0  0
  183.1750  178.6580  144.0990 C   0  0  0  0  0  2  0  0  0  0  0  0
  185.7150  178.6380  141.4810 C   0  0  1  0  0  3  0  0  0  0  0  0
  188.1820  178.6280  141.5330 C   0  0  0  0  0  2  0  0  0  0  0  0
  187.0730  178.3690  138.0750 O   0  0  0  0  0  0  0  0  0  0  0  0
  183.3970  177.6740  139.4520 C   0  0  1  0  0  3  0  0  0  0  0  0
  187.0240  178.3340  139.3340 C   0  0  0  0  0  0  0  0  0  0  0  0
  182.5260  178.0110  140.6000 N   0  0  2  0  0  0  0  0  0  0  0  0
  182.4000  178.9710  142.8780 C   0  0  0  0  0  0  0  0  0  0  0  0
  188.3090  178.1520  140.0910 C   0  0  2  0  0  3  0  0  0  0  0  0
  185.7510  178.4140  140.0150 N   0  0  0  0  0  0  0  0  0  0  0  0
  187.9440  178.0390  145.8430 N   0  0  0  0  0  0  0  0  0  0  0  0
  181.4290  178.7770  140.0200 C   0  0  0  0  0  2  0  0  0  0  0  0
  182.5080  177.5880  138.2280 C   0  0  0  0  0  2  0  0  0  0  0  0
  189.1930  177.7840  143.9820 O   0  0  0  0  0  0  0  0  0  0  0  0
  184.4610  178.2530  143.5660 N   0  0  0  0  0  0  0  0  0  0  0  0
  186.7380  178.1970  146.4430 C   0  0  0  0  0  3  0  0  0  0  0  0
  186.9100  178.1140  143.6820 C   0  0  2  0  0  3  0  0  0  0  0  0
  184.4470  178.0780  142.1180 C   0  0  1  0  0  3  0  0  0  0  0  0
  181.2540  179.3890  142.9050 O   0  0  0  0  0  0  0  0  0  0  0  0
  183.2040  178.8110  141.6250 C   0  0  1  0  0  3  0  0  0  0  0  0
  181.2020  178.2400  138.6240 C   0  0  0  0  0  2  0  0  0  0  0  0
  184.2010  180.1280  139.0950 C   0  0  0  0  0  1  0  0  0  0  0  0
  185.6120  178.2740  145.6920 N   0  0  0  0  0  0  0  0  0  0  0  0
  185.6670  178.2140  144.3350 C   0  0  0  0  0  0  0  0  0  0  0  0
  184.5710  178.6490  139.1690 C   0  0  2  0  0  3  0  0  0  0  0  0
  188.6880  176.8070  140.0640 O   0  0  0  0  0  0  0  0  0  0  0  0
  190.9210  176.7540  139.2510 C   0  0  0  0  0  1  0  0  0  0  0  0
  190.0230  176.8000  140.4700 C   0  0  0  0  0  2  0  0  0  0  0  0
  1  5  1  6  0  0  0
  1 19  1  0  0  0  0
  2 13  1  0  0  0  0
  4 12  1  6  0  0  0
  4 20  1  0  0  0  0
  4  1  1  0  0  0  0
  6  8  2  0  0  0  0
  7 15  1  6  0  0  0
  7  9  1  0  0  0  0
  8 12  1  0  0  0  0
  8 11  1  0  0  0  0
  9 14  1  6  0  0  0
  9 22  1  0  0  0  0
 10 21  2  0  0  0  0
 10  3  1  0  0  0  0
 11 28  1  1  0  0  0
 11  5  1  0  0  0  0
 13 18  2  0  0  0  0
 15 23  1  0  0  0  0
 16  2  2  0  0  0  0
 17  3  1  0  0  0  0
 17 26  1  0  0  0  0
 19 26  1  1  0  0  0
 19  2  1  0  0  0  0
 20 17  1  1  0  0  0
 22 20  1  0  0  0  0
 22 10  1  1  0  0  0
 23 14  1  0  0  0  0
 25 18  1  0  0  0  0
 26 25  2  0  0  0  0
 27 24  1  1  0  0  0
 27  7  1  0  0  0  0
 27 12  1  0  0  0  0
 28 30  1  0  0  0  0
 29 30  1  0  0  0  0
M  END
>  <MODEL>
4

>  <REMARK>
 VINA RESULT:      -7.8      2.098      5.949
  Name = 
  2 active torsions:
  status: ('A' for Active; 'I' for Inactive)
    1  A    between atoms: C_11  and  O_28
    2  A    between atoms: O_28  and  C_30
                            x       y       z     vdW  Elec       q    Type
                         _______ _______ _______ _____ _____    ______ ____

>  <TORSDO>
F 2

$$$$
=
 OpenBabel11122410233D

 30 35  0  0  1  0  0  0  0  0999 V2000
  186.7540  178.0010  145.1140 C   0  0  1  0  0  3  0  0  0  0  0  0
  184.3350  178.6100  145.7780 C   0  0  0  0  0  0  0  0  0  0  0  0
  185.6500  178.5710  141.0100 C   0  0  0  0  0  2  0  0  0  0  0  0
  187.7520  178.3140  143.9810 C   0  0  1  0  0  3  0  0  0  0  0  0
  187.3050  178.6260  146.3880 C   0  0  0  0  0  2  0  0  0  0  0  0
  190.7400  177.4970  145.9610 O   0  0  0  0  0  0  0  0  0  0  0  0
  189.8440  176.6540  142.1690 C   0  0  1  0  0  3  0  0  0  0  0  0
  189.5320  177.7250  145.6840 C   0  0  0  0  0  0  0  0  0  0  0  0
  188.9610  177.1160  141.0760 N   0  0  2  0  0  0  0  0  0  0  0  0
  187.0180  178.5160  140.4490 C   0  0  0  0  0  0  0  0  0  0  0  0
  188.5580  177.8730  146.8190 C   0  0  2  0  0  3  0  0  0  0  0  0
  189.1000  177.7880  144.3060 N   0  0  0  0  0  0  0  0  0  0  0  0
  183.0710  178.9460  145.4130 N   0  0  0  0  0  0  0  0  0  0  0  0
  189.8710  177.5950  140.0420 C   0  0  0  0  0  2  0  0  0  0  0  0
  191.1410  176.1970  141.5310 C   0  0  0  0  0  2  0  0  0  0  0  0
  184.5970  178.4580  147.0000 O   0  0  0  0  0  0  0  0  0  0  0  0
  185.8620  178.2270  142.4030 N   0  0  0  0  0  0  0  0  0  0  0  0
  182.7240  179.0750  144.1080 C   0  0  0  0  0  3  0  0  0  0  0  0
  185.3270  178.4270  144.7910 C   0  0  2  0  0  3  0  0  0  0  0  0
  187.2120  177.7470  142.6710 C   0  0  1  0  0  3  0  0  0  0  0  0
  187.2720  178.7820  139.2860 O   0  0  0  0  0  0  0  0  0  0  0  0
  188.0550  178.1950  141.4810 C   0  0  1  0  0  3  0  0  0  0  0  0
  191.1210  176.7480  140.1230 C   0  0  0  0  0  2  0  0  0  0  0  0
  190.6290  179.0560  142.8080 C   0  0  0  0  0  1  0  0  0  0  0  0
  183.6440  178.8470  143.1370 N   0  0  0  0  0  0  0  0  0  0  0  0
  184.9220  178.5050  143.4460 C   0  0  0  0  0  0  0  0  0  0  0  0
  190.1540  177.6860  143.2860 C   0  0  2  0  0  3  0  0  0  0  0  0
  188.2110  176.6120  147.3120 O   0  0  0  0  0  0  0  0  0  0  0  0
  188.4210  178.0970  149.1560 C   0  0  0  0  0  1  0  0  0  0  0  0
  187.7650  176.8440  148.6130 C   0  0  0  0  0  2  0  0  0  0  0  0
  1  5  1  1  0  0  0
  2 16  2  0  0  0  0
  3 17  1  0  0  0  0
  4 12  1  1  0  0  0
  4  1  1  0  0  0  0
  5 11  1  0  0  0  0
  7 15  1  6  0  0  0
  7 27  1  0  0  0  0
  8  6  2  0  0  0  0
  8 11  1  0  0  0  0
  9 14  1  6  0  0  0
  9 22  1  0  0  0  0
  9  7  1  0  0  0  0
 10  3  1  0  0  0  0
 11 28  1  6  0  0  0
 12  8  1  0  0  0  0
 13  2  1  0  0  0  0
 14 23  1  0  0  0  0
 17 26  1  0  0  0  0
 18 13  2  0  0  0  0
 19 26  1  6  0  0  0
 19  1  1  0  0  0  0
 19  2  1  0  0  0  0
 20 17  1  6  0  0  0
 20  4  1  0  0  0  0
 21 10  2  0  0  0  0
 22 10  1  6  0  0  0
 22 20  1  0  0  0  0
 23 15  1  0  0  0  0
 25 26  2  0  0  0  0
 25 18  1  0  0  0  0
 27 24  1  6  0  0  0
 27 12  1  0  0  0  0
 28 30  1  0  0  0  0
 30 29  1  0  0  0  0
M  END
>  <MODEL>
5

>  <REMARK>
 VINA RESULT:      -7.8      1.813      5.683
  Name = 
  2 active torsions:
  status: ('A' for Active; 'I' for Inactive)
    1  A    between atoms: C_11  and  O_28
    2  A    between atoms: O_28  and  C_30
                            x       y       z     vdW  Elec       q    Type
                         _______ _______ _______ _____ _____    ______ ____

>  <TORSDO>
F 2

$$$$
=
 OpenBabel11122410233D

 30 35  0  0  1  0  0  0  0  0999 V2000
  188.0750  177.5880  143.1150 C   0  0  1  0  0  3  0  0  0  0  0  0
  187.0310  177.9840  145.4420 C   0  0  0  0  0  0  0  0  0  0  0  0
  184.4410  179.0410  141.3630 C   0  0  0  0  0  2  0  0  0  0  0  0
  187.9680  178.1670  141.6900 C   0  0  1  0  0  3  0  0  0  0  0  0
  189.4650  177.9220  143.6360 C   0  0  0  0  0  2  0  0  0  0  0  0
  191.2820  176.9870  140.6240 O   0  0  0  0  0  0  0  0  0  0  0  0
  187.7980  176.9980  138.6870 C   0  0  1  0  0  3  0  0  0  0  0  0
  190.3070  177.2470  141.3780 C   0  0  0  0  0  0  0  0  0  0  0  0
  186.4830  177.6750  138.7080 N   0  0  2  0  0  0  0  0  0  0  0  0
  184.9410  179.1400  139.9740 C   0  0  0  0  0  0  0  0  0  0  0  0
  190.5020  177.1170  142.8620 C   0  0  2  0  0  3  0  0  0  0  0  0
  189.0260  177.6080  140.8130 N   0  0  0  0  0  0  0  0  0  0  0  0
  185.9700  178.3680  146.1990 N   0  0  0  0  0  0  0  0  0  0  0  0
  186.4140  178.3920  137.4410 C   0  0  0  0  0  2  0  0  0  0  0  0
  188.1330  176.7210  137.2340 C   0  0  0  0  0  2  0  0  0  0  0  0
  188.0710  177.5680  146.0160 O   0  0  0  0  0  0  0  0  0  0  0  0
  185.5420  178.3980  142.0540 N   0  0  0  0  0  0  0  0  0  0  0  0
  184.8090  178.7790  145.6300 C   0  0  0  0  0  3  0  0  0  0  0  0
  186.9500  178.0470  144.0350 C   0  0  2  0  0  3  0  0  0  0  0  0
  186.5680  177.8970  141.1460 C   0  0  1  0  0  3  0  0  0  0  0  0
  184.3060  179.6660  139.0740 O   0  0  0  0  0  0  0  0  0  0  0  0
  186.3360  178.6170  139.8220 C   0  0  1  0  0  3  0  0  0  0  0  0
  187.1810  177.5740  136.4250 C   0  0  0  0  0  2  0  0  0  0  0  0
  189.1560  179.2100  138.9150 C   0  0  0  0  0  1  0  0  0  0  0  0
  184.6850  178.7930  144.2790 N   0  0  0  0  0  0  0  0  0  0  0  0
  185.7130  178.4170  143.4750 C   0  0  0  0  0  0  0  0  0  0  0  0
  188.9750  177.7590  139.3520 C   0  0  2  0  0  3  0  0  0  0  0  0
  190.4340  175.7710  143.2320 O   0  0  0  0  0  0  0  0  0  0  0  0
  191.6910  176.1680  145.2100 C   0  0  0  0  0  1  0  0  0  0  0  0
  191.6570  175.5050  143.8480 C   0  0  0  0  0  2  0  0  0  0  0  0
  1  5  1  1  0  0  0
  1 19  1  0  0  0  0
  2 16  2  0  0  0  0
  2 13  1  0  0  0  0
  3 17  1  0  0  0  0
  4 12  1  6  0  0  0
  4  1  1  0  0  0  0
  6  8  2  0  0  0  0
  7 15  1  6  0  0  0
  7  9  1  0  0  0  0
  7 27  1  0  0  0  0
  8 11  1  0  0  0  0
  9 14  1  6  0  0  0
  9 22  1  0  0  0  0
 10  3  1  0  0  0  0
 11 28  1  1  0  0  0
 11  5  1  0  0  0  0
 12  8  1  0  0  0  0
 17 26  1  0  0  0  0
 18 13  2  0  0  0  0
 19 26  1  6  0  0  0
 19  2  1  0  0  0  0
 20  4  1  0  0  0  0
 20 17  1  1  0  0  0
 21 10  2  0  0  0  0
 22 10  1  1  0  0  0
 22 20  1  0  0  0  0
 23 15  1  0  0  0  0
 23 14  1  0  0  0  0
 25 18  1  0  0  0  0
 26 25  2  0  0  0  0
 27 24  1  1  0  0  0
 27 12  1  0  0  0  0
 28 30  1  0  0  0  0
 30 29  1  0  0  0  0
M  END
>  <MODEL>
6

>  <REMARK>
 VINA RESULT:      -7.6      1.636      5.599
  Name = 
  2 active torsions:
  status: ('A' for Active; 'I' for Inactive)
    1  A    between atoms: C_11  and  O_28
    2  A    between atoms: O_28  and  C_30
                            x       y       z     vdW  Elec       q    Type
                         _______ _______ _______ _____ _____    ______ ____

>  <TORSDO>
F 2

$$$$
=
 OpenBabel11122410233D

 30 35  0  0  1  0  0  0  0  0999 V2000
  186.6060  178.3500  142.4760 C   0  0  1  0  0  3  0  0  0  0  0  0
  189.1020  177.8530  142.9100 C   0  0  0  0  0  0  0  0  0  0  0  0
  187.3780  177.9720  138.2750 C   0  0  0  0  0  2  0  0  0  0  0  0
  185.5310  178.0180  141.4210 C   0  0  1  0  0  3  0  0  0  0  0  0
  186.2010  177.6550  143.7690 C   0  0  0  0  0  2  0  0  0  0  0  0
  182.6880  178.6060  143.6770 O   0  0  0  0  0  0  0  0  0  0  0  0
  183.2060  179.6170  139.8550 C   0  0  1  0  0  3  0  0  0  0  0  0
  183.8780  178.4530  143.2900 C   0  0  0  0  0  0  0  0  0  0  0  0
  184.0140  179.2400  138.6750 N   0  0  2  0  0  0  0  0  0  0  0  0
  185.9650  177.9700  137.8350 C   0  0  0  0  0  0  0  0  0  0  0  0
  184.9530  178.3240  144.3320 C   0  0  2  0  0  3  0  0  0  0  0  0
  184.1900  178.4590  141.8780 N   0  0  0  0  0  0  0  0  0  0  0  0
  190.3450  177.6000  142.4260 N   0  0  0  0  0  0  0  0  0  0  0  0
  183.0440  178.7440  137.7050 C   0  0  0  0  0  2  0  0  0  0  0  0
  181.8360  180.0220  139.3470 C   0  0  0  0  0  2  0  0  0  0  0  0
  188.9390  177.9520  144.1540 O   0  0  0  0  0  0  0  0  0  0  0  0
  187.2700  178.2590  139.6920 N   0  0  0  0  0  0  0  0  0  0  0  0
  190.5830  177.5320  141.0920 C   0  0  0  0  0  3  0  0  0  0  0  0
  188.0190  178.0130  142.0180 C   0  0  2  0  0  3  0  0  0  0  0  0
  185.9250  178.6560  140.0920 C   0  0  1  0  0  3  0  0  0  0  0  0
  185.6260  177.7270  136.6880 O   0  0  0  0  0  0  0  0  0  0  0  0
  185.0070  178.2000  138.9630 C   0  0  1  0  0  3  0  0  0  0  0  0
  181.7630  179.5180  137.9230 C   0  0  0  0  0  2  0  0  0  0  0  0
  182.6060  177.1560  140.4710 C   0  0  0  0  0  1  0  0  0  0  0  0
  189.5730  177.7390  140.2120 N   0  0  0  0  0  0  0  0  0  0  0  0
  188.3100  178.0000  140.6410 C   0  0  0  0  0  0  0  0  0  0  0  0
  183.0480  178.5340  140.9560 C   0  0  2  0  0  3  0  0  0  0  0  0
  185.2750  179.5850  144.8390 O   0  0  0  0  0  0  0  0  0  0  0  0
  184.8740  178.3570  146.8340 C   0  0  0  0  0  1  0  0  0  0  0  0
  185.7750  179.3430  146.1180 C   0  0  0  0  0  2  0  0  0  0  0  0
  1  5  1  1  0  0  0
  2 16  2  0  0  0  0
  3 17  1  0  0  0  0
  4 12  1  1  0  0  0
  4  1  1  0  0  0  0
  5 11  1  0  0  0  0
  7 15  1  6  0  0  0
  7 27  1  0  0  0  0
  8  6  2  0  0  0  0
  8 11  1  0  0  0  0
  9 14  1  6  0  0  0
  9 22  1  0  0  0  0
  9  7  1  0  0  0  0
 10  3  1  0  0  0  0
 11 28  1  6  0  0  0
 12  8  1  0  0  0  0
 13  2  1  0  0  0  0
 14 23  1  0  0  0  0
 17 26  1  0  0  0  0
 18 13  2  0  0  0  0
 19 26  1  6  0  0  0
 19  1  1  0  0  0  0
 19  2  1  0  0  0  0
 20 17  1  6  0  0  0
 20  4  1  0  0  0  0
 21 10  2  0  0  0  0
 22 10  1  6  0  0  0
 22 20  1  0  0  0  0
 23 15  1  0  0  0  0
 25 26  2  0  0  0  0
 25 18  1  0  0  0  0
 27 24  1  6  0  0  0
 27 12  1  0  0  0  0
 28 30  1  0  0  0  0
 30 29  1  0  0  0  0
M  END
>  <MODEL>
7

>  <REMARK>
 VINA RESULT:      -7.5      2.195      7.455
  Name = 
  2 active torsions:
  status: ('A' for Active; 'I' for Inactive)
    1  A    between atoms: C_11  and  O_28
    2  A    between atoms: O_28  and  C_30
                            x       y       z     vdW  Elec       q    Type
                         _______ _______ _______ _____ _____    ______ ____

>  <TORSDO>
F 2

$$$$
=
 OpenBabel11122410233D

 30 35  0  0  1  0  0  0  0  0999 V2000
  188.0140  178.1330  142.3490 C   0  0  1  0  0  3  0  0  0  0  0  0
  189.0340  177.8180  144.7000 C   0  0  0  0  0  0  0  0  0  0  0  0
  191.7930  176.9820  140.6810 C   0  0  0  0  0  2  0  0  0  0  0  0
  188.2000  177.5680  140.9270 C   0  0  1  0  0  3  0  0  0  0  0  0
  186.6440  177.6870  142.8390 C   0  0  0  0  0  2  0  0  0  0  0  0
  184.8260  178.4780  139.7860 O   0  0  0  0  0  0  0  0  0  0  0  0
  188.3430  178.7520  137.9280 C   0  0  1  0  0  3  0  0  0  0  0  0
  185.8020  178.2950  140.5620 C   0  0  0  0  0  0  0  0  0  0  0  0
  189.7080  178.1840  137.9800 N   0  0  2  0  0  0  0  0  0  0  0  0
  191.3340  176.8450  139.2800 C   0  0  0  0  0  0  0  0  0  0  0  0
  185.5640  178.4070  142.0420 C   0  0  2  0  0  3  0  0  0  0  0  0
  187.1200  178.0400  140.0260 N   0  0  0  0  0  0  0  0  0  0  0  0
  190.1050  177.5210  145.4800 N   0  0  0  0  0  0  0  0  0  0  0  0
  189.8630  177.4770  136.7140 C   0  0  0  0  0  2  0  0  0  0  0  0
  188.0200  179.0030  136.4690 C   0  0  0  0  0  2  0  0  0  0  0  0
  187.9510  178.1480  145.2500 O   0  0  0  0  0  0  0  0  0  0  0  0
  190.6280  177.5330  141.3460 N   0  0  0  0  0  0  0  0  0  0  0  0
  191.3080  177.2050  144.9370 C   0  0  0  0  0  3  0  0  0  0  0  0
  189.1520  177.7650  143.2940 C   0  0  2  0  0  3  0  0  0  0  0  0
  189.5860  177.9510  140.4150 C   0  0  1  0  0  3  0  0  0  0  0  0
  192.0290  176.3750  138.3950 O   0  0  0  0  0  0  0  0  0  0  0  0
  189.9050  177.2540  139.0970 C   0  0  1  0  0  3  0  0  0  0  0  0
  189.0550  178.2320  135.6820 C   0  0  0  0  0  2  0  0  0  0  0  0
  187.1630  176.4360  138.1260 C   0  0  0  0  0  1  0  0  0  0  0  0
  191.4640  177.2040  143.5900 N   0  0  0  0  0  0  0  0  0  0  0  0
  190.4270  177.4980  142.7620 C   0  0  0  0  0  0  0  0  0  0  0  0
  187.2160  177.8960  138.5660 C   0  0  2  0  0  3  0  0  0  0  0  0
  185.5130  179.7530  142.4130 O   0  0  0  0  0  0  0  0  0  0  0  0
  183.5340  179.1710  143.5940 C   0  0  0  0  0  1  0  0  0  0  0  0
  184.9290  179.7560  143.6790 C   0  0  0  0  0  2  0  0  0  0  0  0
  1  5  1  1  0  0  0
  1 19  1  0  0  0  0
  2 16  2  0  0  0  0
  2 13  1  0  0  0  0
  3 17  1  0  0  0  0
  4 12  1  6  0  0  0
  4  1  1  0  0  0  0
  6  8  2  0  0  0  0
  7 15  1  6  0  0  0
  7  9  1  0  0  0  0
  7 27  1  0  0  0  0
  8 11  1  0  0  0  0
  9 14  1  6  0  0  0
  9 22  1  0  0  0  0
 10  3  1  0  0  0  0
 11 28  1  1  0  0  0
 11  5  1  0  0  0  0
 12  8  1  0  0  0  0
 17 26  1  0  0  0  0
 18 13  2  0  0  0  0
 19 26  1  6  0  0  0
 19  2  1  0  0  0  0
 20  4  1  0  0  0  0
 20 17  1  1  0  0  0
 21 10  2  0  0  0  0
 22 10  1  1  0  0  0
 22 20  1  0  0  0  0
 23 15  1  0  0  0  0
 23 14  1  0  0  0  0
 25 18  1  0  0  0  0
 26 25  2  0  0  0  0
 27 24  1  1  0  0  0
 27 12  1  0  0  0  0
 28 30  1  0  0  0  0
 29 30  1  0  0  0  0
M  END
>  <MODEL>
8

>  <REMARK>
 VINA RESULT:      -7.1      1.875      6.618
  Name = 
  2 active torsions:
  status: ('A' for Active; 'I' for Inactive)
    1  A    between atoms: C_11  and  O_28
    2  A    between atoms: O_28  and  C_30
                            x       y       z     vdW  Elec       q    Type
                         _______ _______ _______ _____ _____    ______ ____

>  <TORSDO>
F 2

$$$$
=
 OpenBabel11122410233D

 30 35  0  0  1  0  0  0  0  0999 V2000
  188.5310  177.6600  144.4760 C   0  0  1  0  0  3  0  0  0  0  0  0
  189.7490  177.5100  146.7480 C   0  0  0  0  0  0  0  0  0  0  0  0
  184.9030  178.4890  146.6050 C   0  0  0  0  0  2  0  0  0  0  0  0
  187.3120  178.3810  143.8680 C   0  0  1  0  0  3  0  0  0  0  0  0
  189.7740  178.2230  143.8010 C   0  0  0  0  0  2  0  0  0  0  0  0
  188.4900  178.1130  140.3960 O   0  0  0  0  0  0  0  0  0  0  0  0
  184.8470  177.6050  141.9340 C   0  0  1  0  0  3  0  0  0  0  0  0
  188.4980  178.0510  141.6540 C   0  0  0  0  0  0  0  0  0  0  0  0
  184.0530  177.9650  143.1280 N   0  0  2  0  0  0  0  0  0  0  0  0
  184.0920  178.8760  145.4290 C   0  0  0  0  0  0  0  0  0  0  0  0
  189.8040  177.7750  142.3450 C   0  0  2  0  0  3  0  0  0  0  0  0
  187.2650  178.1900  142.3970 N   0  0  0  0  0  0  0  0  0  0  0  0
  189.7020  177.5470  148.1040 N   0  0  0  0  0  0  0  0  0  0  0  0
  182.9780  178.8080  142.6180 C   0  0  0  0  0  2  0  0  0  0  0  0
  183.8980  177.6000  140.7520 C   0  0  0  0  0  2  0  0  0  0  0  0
  190.8450  177.2630  146.1810 O   0  0  0  0  0  0  0  0  0  0  0  0
  186.1350  178.0210  146.0020 N   0  0  0  0  0  0  0  0  0  0  0  0
  188.5370  177.7620  148.7650 C   0  0  0  0  0  3  0  0  0  0  0  0
  188.5740  177.7350  145.9970 C   0  0  2  0  0  3  0  0  0  0  0  0
  186.0430  177.8820  144.5540 C   0  0  1  0  0  3  0  0  0  0  0  0
  182.9750  179.3600  145.5210 O   0  0  0  0  0  0  0  0  0  0  0  0
  184.8260  178.6990  144.1360 C   0  0  1  0  0  3  0  0  0  0  0  0
  182.6540  178.3190  141.2240 C   0  0  0  0  0  2  0  0  0  0  0  0
  185.7800  180.0140  141.5890 C   0  0  0  0  0  1  0  0  0  0  0  0
  187.3840  177.9240  148.0700 N   0  0  0  0  0  0  0  0  0  0  0  0
  187.3720  177.8920  146.7120 C   0  0  0  0  0  0  0  0  0  0  0  0
  186.0640  178.5150  141.6150 C   0  0  2  0  0  3  0  0  0  0  0  0
  190.0990  176.4110  142.2710 O   0  0  0  0  0  0  0  0  0  0  0  0
  191.5390  175.2090  143.7320 C   0  0  0  0  0  1  0  0  0  0  0  0
  191.4250  176.3060  142.6930 C   0  0  0  0  0  2  0  0  0  0  0  0
  1  5  1  6  0  0  0
  1 19  1  0  0  0  0
  2 13  1  0  0  0  0
  4 12  1  6  0  0  0
  4  1  1  0  0  0  0
  4 20  1  0  0  0  0
  6  8  2  0  0  0  0
  7 15  1  6  0  0  0
  7  9  1  0  0  0  0
  8 11  1  0  0  0  0
  8 12  1  0  0  0  0
  9 14  1  6  0  0  0
  9 22  1  0  0  0  0
 10 21  2  0  0  0  0
 10  3  1  0  0  0  0
 11 28  1  1  0  0  0
 11  5  1  0  0  0  0
 13 18  2  0  0  0  0
 15 23  1  0  0  0  0
 16  2  2  0  0  0  0
 17  3  1  0  0  0  0
 17 26  1  0  0  0  0
 19 26  1  1  0  0  0
 19  2  1  0  0  0  0
 20 17  1  1  0  0  0
 22 20  1  0  0  0  0
 22 10  1  1  0  0  0
 23 14  1  0  0  0  0
 25 18  1  0  0  0  0
 26 25  2  0  0  0  0
 27 24  1  1  0  0  0
 27  7  1  0  0  0  0
 27 12  1  0  0  0  0
 28 30  1  0  0  0  0
 30 29  1  0  0  0  0
M  END
>  <MODEL>
9

>  <REMARK>
 VINA RESULT:      -7.1      2.335      6.046
  Name = 
  2 active torsions:
  status: ('A' for Active; 'I' for Inactive)
    1  A    between atoms: C_11  and  O_28
    2  A    between atoms: O_28  and  C_30
                            x       y       z     vdW  Elec       q    Type
                         _______ _______ _______ _____ _____    ______ ____

>  <TORSDO>
F 2

$$$$
