=
 OpenBabel11122412093D

 34 42  0  0  1  0  0  0  0  0999 V2000
  187.2580  178.2180  140.1880 C   0  0  0  0  0  0  0  0  0  0  0  0
  185.3300  179.1110  138.7900 C   0  0  0  0  0  2  0  0  0  0  0  0
  190.5770  178.2080  144.9400 C   0  0  2  0  0  0  0  0  0  0  0  0
  188.8030  176.9510  141.5530 C   0  0  0  0  0  0  0  0  0  0  0  0
  188.5660  176.9470  144.0640 N   0  0  1  0  0  0  0  0  0  0  0  0
  190.2830  178.7710  143.5530 C   0  0  2  0  0  3  0  0  0  0  0  0
  191.3810  179.3740  144.4060 C   0  0  0  0  0  2  0  0  0  0  0  0
  191.5610  176.2980  143.4540 C   0  0  0  0  0  2  0  0  0  0  0  0
  185.1790  179.2550  141.2020 C   0  0  2  0  0  3  0  0  0  0  0  0
  182.4140  178.0960  142.3000 C   0  0  0  0  0  2  0  0  0  0  0  0
  187.1230  177.1370  143.8560 C   0  0  0  0  0  2  0  0  0  0  0  0
  190.3710  175.4580  143.0360 C   0  0  0  0  0  2  0  0  0  0  0  0
  185.3500  178.2390  142.3510 C   0  0  1  0  0  3  0  0  0  0  0  0
  183.9340  179.6110  139.1350 C   0  0  0  0  0  2  0  0  0  0  0  0
  189.0830  176.2640  142.8600 C   0  0  2  0  0  3  0  0  0  0  0  0
  191.3380  176.8660  144.8550 C   0  0  0  0  0  2  0  0  0  0  0  0
  182.8530  178.2300  140.8970 N   0  0  0  0  0  0  0  0  0  0  0  0
  187.6400  177.7280  141.4450 C   0  0  0  0  0  0  0  0  0  0  0  0
  189.1380  178.2710  144.4240 C   0  0  2  0  0  3  0  0  0  0  0  0
  186.8410  178.0970  142.6770 C   0  0  2  0  0  3  0  0  0  0  0  0
  189.2090  177.1720  139.2230 C   0  0  0  0  0  3  0  0  0  0  0  0
  183.1000  179.0420  143.2950 C   0  0  0  0  0  2  0  0  0  0  0  0
  189.5490  176.6830  140.4460 N   0  0  0  0  0  0  0  0  0  0  0  0
  184.5480  178.6460  143.5920 C   0  0  0  0  0  2  0  0  0  0  0  0
  183.7540  179.3820  140.6340 C   0  0  1  0  0  3  0  0  0  0  0  0
  188.0520  177.9380  139.0700 C   0  0  0  0  0  3  0  0  0  0  0  0
  186.0150  178.9270  140.0570 N   0  0  0  0  0  0  0  0  0  0  0  0
  183.4300  176.9550  140.4760 C   0  0  0  0  0  2  0  0  0  0  0  0
  182.4320  176.1790  139.6360 C   0  0  0  0  0  2  0  0  0  0  0  0
  184.1310  174.9410  136.7750 N   0  0  0  0  0  0  0  0  0  0  0  0
  182.9890  176.7170  137.2560 N   0  0  0  0  0  0  0  0  0  0  0  0
  183.0320  175.8820  138.3080 C   0  0  0  0  0  0  0  0  0  0  0  0
  183.6810  176.0980  136.3140 N   0  0  0  0  0  0  0  0  0  0  0  0
  183.7440  174.7770  138.0300 N   0  0  0  0  0  2  0  0  0  0  0  0
  1 18  1  0  0  0  0
  2 14  1  0  0  0  0
  2 27  1  0  0  0  0
  3  7  1  1  0  0  0
  4 15  1  0  0  0  0
  5 11  1  6  0  0  0
  5 19  1  0  0  0  0
  6  7  1  1  0  0  0
  6 19  1  0  0  0  0
  6  3  1  0  0  0  0
  8 16  1  0  0  0  0
  9 27  1  6  0  0  0
  9 13  1  0  0  0  0
 10 22  1  0  0  0  0
 12  8  1  0  0  0  0
 13 20  1  0  0  0  0
 13 24  1  1  0  0  0
 14 25  1  0  0  0  0
 15 12  1  1  0  0  0
 15  5  1  0  0  0  0
 16  3  1  0  0  0  0
 17 10  1  0  0  0  0
 18  4  2  0  0  0  0
 18 20  1  0  0  0  0
 19  3  1  0  0  0  0
 20 11  1  0  0  0  0
 21 23  2  0  0  0  0
 22 24  1  0  0  0  0
 23  4  1  0  0  0  0
 25 17  1  0  0  0  0
 25  9  1  0  0  0  0
 26 21  1  0  0  0  0
 26  1  2  0  0  0  0
 27  1  1  0  0  0  0
 28 17  1  0  0  0  0
 29 28  1  0  0  0  0
 30 34  1  0  0  0  0
 31 32  2  0  0  0  0
 32 29  1  0  0  0  0
 33 30  2  0  0  0  0
 33 31  1  0  0  0  0
 34 32  1  0  0  0  0
M  END
>  <MODEL>
1

>  <REMARK>
 VINA RESULT:      -7.9      0.000      0.000
  Name = 
  3 active torsions:
  status: ('A' for Active; 'I' for Inactive)
    1  A    between atoms: N_17  and  C_28
    2  A    between atoms: C_28  and  C_29
    3  A    between atoms: C_29  and  C_32
                            x       y       z     vdW  Elec       q    Type
                         _______ _______ _______ _____ _____    ______ ____

>  <TORSDO>
F 3

$$$$
=
 OpenBabel11122412093D

 34 42  0  0  1  0  0  0  0  0999 V2000
  189.7620  177.5900  138.7940 C   0  0  0  0  0  0  0  0  0  0  0  0
  188.8820  178.1360  136.4720 C   0  0  0  0  0  2  0  0  0  0  0  0
  190.2240  178.6170  144.4790 C   0  0  2  0  0  0  0  0  0  0  0  0
  190.2990  176.6610  140.9630 C   0  0  0  0  0  0  0  0  0  0  0  0
  188.8310  177.1590  142.9530 N   0  0  1  0  0  0  0  0  0  0  0  0
  190.7170  178.8820  143.0600 C   0  0  2  0  0  3  0  0  0  0  0  0
  191.2810  179.6700  144.2240 C   0  0  0  0  0  2  0  0  0  0  0  0
  191.6590  176.4700  144.0870 C   0  0  0  0  0  2  0  0  0  0  0  0
  187.5500  178.7610  138.3940 C   0  0  2  0  0  3  0  0  0  0  0  0
  184.5230  177.7830  138.1230 C   0  0  0  0  0  2  0  0  0  0  0  0
  187.7090  177.2680  142.0080 C   0  0  0  0  0  2  0  0  0  0  0  0
  190.7770  175.5360  143.2860 C   0  0  0  0  0  2  0  0  0  0  0  0
  187.0340  178.0020  139.6350 C   0  0  1  0  0  3  0  0  0  0  0  0
  187.5490  178.6630  135.9570 C   0  0  0  0  0  2  0  0  0  0  0  0
  189.8240  176.2590  142.3320 C   0  0  2  0  0  3  0  0  0  0  0  0
  190.8100  177.3040  145.0450 C   0  0  0  0  0  2  0  0  0  0  0  0
  185.6180  177.6410  137.1440 N   0  0  0  0  0  0  0  0  0  0  0  0
  189.4170  177.3730  140.1360 C   0  0  0  0  0  0  0  0  0  0  0  0
  189.2510  178.5410  143.3020 C   0  0  2  0  0  3  0  0  0  0  0  0
  188.1400  177.9630  140.6950 C   0  0  2  0  0  3  0  0  0  0  0  0
  191.8390  176.4160  139.1720 C   0  0  0  0  0  3  0  0  0  0  0  0
  184.6900  178.9260  139.1330 C   0  0  0  0  0  2  0  0  0  0  0  0
  191.4750  176.1920  140.4640 N   0  0  0  0  0  0  0  0  0  0  0  0
  185.7530  178.6330  140.1940 C   0  0  0  0  0  2  0  0  0  0  0  0
  186.6200  178.7370  137.1680 C   0  0  1  0  0  3  0  0  0  0  0  0
  190.9840  177.1080  138.3110 C   0  0  0  0  0  3  0  0  0  0  0  0
  188.8180  178.2280  137.9190 N   0  0  0  0  0  0  0  0  0  0  0  0
  186.2200  176.3210  137.3200 C   0  0  0  0  0  2  0  0  0  0  0  0
  186.0180  175.4810  136.0730 C   0  0  0  0  0  2  0  0  0  0  0  0
  184.5750  172.5990  137.5620 N   0  0  0  0  0  0  0  0  0  0  0  0
  185.6810  173.0220  135.7490 N   0  0  0  0  0  0  0  0  0  0  0  0
  185.4850  174.1470  136.4570 C   0  0  0  0  0  0  0  0  0  0  0  0
  185.0970  172.0750  136.4640 N   0  0  0  0  0  0  0  0  0  0  0  0
  184.8070  173.9010  137.5910 N   0  0  0  0  0  2  0  0  0  0  0  0
  1 18  1  0  0  0  0
  2 27  1  0  0  0  0
  3  7  1  1  0  0  0
  3 16  1  0  0  0  0
  4 15  1  0  0  0  0
  5 11  1  6  0  0  0
  5 19  1  0  0  0  0
  6 19  1  0  0  0  0
  6  7  1  1  0  0  0
  6  3  1  0  0  0  0
  8 16  1  0  0  0  0
  9 27  1  6  0  0  0
  9 13  1  0  0  0  0
 10 22  1  0  0  0  0
 12  8  1  0  0  0  0
 13 24  1  1  0  0  0
 13 20  1  0  0  0  0
 14  2  1  0  0  0  0
 14 25  1  0  0  0  0
 15  5  1  0  0  0  0
 15 12  1  1  0  0  0
 17 25  1  0  0  0  0
 17 28  1  0  0  0  0
 17 10  1  0  0  0  0
 18 20  1  0  0  0  0
 18  4  2  0  0  0  0
 19  3  1  0  0  0  0
 20 11  1  0  0  0  0
 21 23  2  0  0  0  0
 22 24  1  0  0  0  0
 23  4  1  0  0  0  0
 25  9  1  0  0  0  0
 26  1  2  0  0  0  0
 26 21  1  0  0  0  0
 27  1  1  0  0  0  0
 29 32  1  0  0  0  0
 29 28  1  0  0  0  0
 30 34  1  0  0  0  0
 31 32  2  0  0  0  0
 31 33  1  0  0  0  0
 32 34  1  0  0  0  0
 33 30  2  0  0  0  0
M  END
>  <MODEL>
2

>  <REMARK>
 VINA RESULT:      -6.2      2.106      3.147
  Name = 
  3 active torsions:
  status: ('A' for Active; 'I' for Inactive)
    1  A    between atoms: N_17  and  C_28
    2  A    between atoms: C_28  and  C_29
    3  A    between atoms: C_29  and  C_32
                            x       y       z     vdW  Elec       q    Type
                         _______ _______ _______ _____ _____    ______ ____

>  <TORSDO>
F 3

$$$$
=
 OpenBabel11122412093D

 34 42  0  0  1  0  0  0  0  0999 V2000
  186.0680  178.4570  139.6580 C   0  0  0  0  0  0  0  0  0  0  0  0
  188.5600  178.4390  139.1530 C   0  0  0  0  0  2  0  0  0  0  0  0
  180.5780  179.7880  138.3570 C   0  0  2  0  0  0  0  0  0  0  0  0
  183.7330  177.9720  140.0730 C   0  0  0  0  0  0  0  0  0  0  0  0
  182.1150  177.7900  138.1470 N   0  0  1  0  0  0  0  0  0  0  0  0
  181.9120  180.2020  138.9700 C   0  0  2  0  0  3  0  0  0  0  0  0
  180.7840  181.2050  138.8480 C   0  0  0  0  0  2  0  0  0  0  0  0
  180.4230  178.5600  140.6580 C   0  0  0  0  0  2  0  0  0  0  0  0
  187.0010  178.4290  137.3010 C   0  0  2  0  0  3  0  0  0  0  0  0
  187.6620  176.1290  135.1880 C   0  0  0  0  0  2  0  0  0  0  0  0
  183.2480  177.3230  137.3330 C   0  0  0  0  0  2  0  0  0  0  0  0
  181.2340  177.2910  140.4930 C   0  0  0  0  0  2  0  0  0  0  0  0
  185.7780  177.5630  136.9310 C   0  0  1  0  0  3  0  0  0  0  0  0
  189.3650  178.2540  137.8730 C   0  0  0  0  0  2  0  0  0  0  0  0
  182.4270  177.4440  139.5480 C   0  0  2  0  0  3  0  0  0  0  0  0
  179.7490  178.9290  139.3370 C   0  0  0  0  0  2  0  0  0  0  0  0
  188.4080  176.4860  136.4120 N   0  0  0  0  0  0  0  0  0  0  0  0
  184.7900  178.1520  139.1670 C   0  0  0  0  0  0  0  0  0  0  0  0
  181.8870  179.2190  137.8070 C   0  0  2  0  0  3  0  0  0  0  0  0
  184.5460  178.0900  137.6740 C   0  0  2  0  0  3  0  0  0  0  0  0
  185.1800  178.4180  141.9040 C   0  0  0  0  0  3  0  0  0  0  0  0
  186.8010  177.2520  134.5950 C   0  0  0  0  0  2  0  0  0  0  0  0
  183.9530  178.0970  141.4110 N   0  0  0  0  0  0  0  0  0  0  0  0
  185.5410  177.5350  135.4170 C   0  0  0  0  0  2  0  0  0  0  0  0
  188.3560  177.9250  136.7750 C   0  0  1  0  0  3  0  0  0  0  0  0
  186.2610  178.5930  141.0380 C   0  0  0  0  0  3  0  0  0  0  0  0
  187.1710  178.5420  138.7420 N   0  0  0  0  0  0  0  0  0  0  0  0
  187.9530  175.6130  137.4930 C   0  0  0  0  0  2  0  0  0  0  0  0
  188.3890  174.1840  137.2320 C   0  0  0  0  0  2  0  0  0  0  0  0
  191.8400  173.5490  136.6950 N   0  0  0  0  0  0  0  0  0  0  0  0
  190.6780  174.7660  138.0580 N   0  0  0  0  0  0  0  0  0  0  0  0
  189.8740  174.1190  137.1980 C   0  0  0  0  0  0  0  0  0  0  0  0
  191.8990  174.3920  137.7140 N   0  0  0  0  0  0  0  0  0  0  0  0
  190.5790  173.3510  136.3490 N   0  0  0  0  0  2  0  0  0  0  0  0
  1 26  1  0  0  0  0
  3  7  1  6  0  0  0
  3  6  1  0  0  0  0
  3 16  1  0  0  0  0
  4 23  2  0  0  0  0
  5 11  1  6  0  0  0
  5 15  1  0  0  0  0
  6  7  1  6  0  0  0
  9 27  1  1  0  0  0
 10 17  1  0  0  0  0
 11 20  1  0  0  0  0
 12  8  1  0  0  0  0
 13 24  1  6  0  0  0
 13  9  1  0  0  0  0
 13 20  1  0  0  0  0
 14  2  1  0  0  0  0
 15  4  1  0  0  0  0
 15 12  1  1  0  0  0
 16  8  1  0  0  0  0
 17 25  1  0  0  0  0
 17 28  1  0  0  0  0
 18  1  2  0  0  0  0
 18  4  1  0  0  0  0
 19  5  1  0  0  0  0
 19  3  1  0  0  0  0
 19  6  1  0  0  0  0
 20 18  1  0  0  0  0
 22 10  1  0  0  0  0
 22 24  1  0  0  0  0
 23 21  1  0  0  0  0
 25  9  1  0  0  0  0
 25 14  1  0  0  0  0
 26 21  2  0  0  0  0
 27  2  1  0  0  0  0
 27  1  1  0  0  0  0
 29 28  1  0  0  0  0
 30 33  2  0  0  0  0
 32 29  1  0  0  0  0
 32 31  2  0  0  0  0
 33 31  1  0  0  0  0
 34 30  1  0  0  0  0
 34 32  1  0  0  0  0
M  END
>  <MODEL>
3

>  <REMARK>
 VINA RESULT:      -6.0      3.301      7.715
  Name = 
  3 active torsions:
  status: ('A' for Active; 'I' for Inactive)
    1  A    between atoms: N_17  and  C_28
    2  A    between atoms: C_28  and  C_29
    3  A    between atoms: C_29  and  C_32
                            x       y       z     vdW  Elec       q    Type
                         _______ _______ _______ _____ _____    ______ ____

>  <TORSDO>
F 3

$$$$
=
 OpenBabel11122412093D

 34 42  0  0  1  0  0  0  0  0999 V2000
  184.1240  178.1800  139.4840 C   0  0  0  0  0  0  0  0  0  0  0  0
  182.0320  178.8660  140.7570 C   0  0  0  0  0  2  0  0  0  0  0  0
  186.9920  174.7540  135.7930 C   0  0  2  0  0  0  0  0  0  0  0  0
  186.0420  177.9650  138.0250 C   0  0  0  0  0  0  0  0  0  0  0  0
  185.7770  176.9710  135.7220 N   0  0  1  0  0  0  0  0  0  0  0  0
  186.5090  175.0280  137.2140 C   0  0  2  0  0  3  0  0  0  0  0  0
  187.2020  173.7220  136.8810 C   0  0  0  0  0  2  0  0  0  0  0  0
  188.7580  176.5270  136.5420 C   0  0  0  0  0  2  0  0  0  0  0  0
  181.7790  177.7620  138.6170 C   0  0  2  0  0  3  0  0  0  0  0  0
  179.8000  179.3460  136.6770 C   0  0  0  0  0  2  0  0  0  0  0  0
  184.4060  177.5020  135.7290 C   0  0  0  0  0  2  0  0  0  0  0  0
  188.0790  177.8700  136.3720 C   0  0  0  0  0  2  0  0  0  0  0  0
  182.3610  178.0040  137.2080 C   0  0  1  0  0  3  0  0  0  0  0  0
  180.5510  178.8890  140.3980 C   0  0  0  0  0  2  0  0  0  0  0  0
  186.5710  177.8300  136.6240 C   0  0  2  0  0  3  0  0  0  0  0  0
  188.2740  175.5520  135.4690 C   0  0  0  0  0  2  0  0  0  0  0  0
  180.1640  179.6700  138.0700 N   0  0  0  0  0  0  0  0  0  0  0  0
  184.6570  177.8680  138.2260 C   0  0  0  0  0  0  0  0  0  0  0  0
  185.6890  175.5190  136.0270 C   0  0  2  0  0  3  0  0  0  0  0  0
  183.7500  177.3640  137.1220 C   0  0  2  0  0  3  0  0  0  0  0  0
  186.3580  178.6380  140.2810 C   0  0  0  0  0  3  0  0  0  0  0  0
  179.9690  177.8730  136.2800 C   0  0  0  0  0  2  0  0  0  0  0  0
  186.8540  178.3560  139.0460 N   0  0  0  0  0  0  0  0  0  0  0  0
  181.4340  177.4660  136.1120 C   0  0  0  0  0  2  0  0  0  0  0  0
  180.4600  178.4930  138.9260 C   0  0  1  0  0  3  0  0  0  0  0  0
  184.9840  178.5660  140.5190 C   0  0  0  0  0  3  0  0  0  0  0  0
  182.6980  178.1800  139.6650 N   0  0  0  0  0  0  0  0  0  0  0  0
  181.2590  180.6380  138.0420 C   0  0  0  0  0  2  0  0  0  0  0  0
  180.7720  181.9950  138.5150 C   0  0  0  0  0  2  0  0  0  0  0  0
  181.5540  184.7500  136.4180 N   0  0  0  0  0  0  0  0  0  0  0  0
  180.4370  182.9070  136.2090 N   0  0  0  0  0  0  0  0  0  0  0  0
  180.9770  182.9970  137.4360 C   0  0  0  0  0  0  0  0  0  0  0  0
  180.8200  184.0160  135.5970 N   0  0  0  0  0  2  0  0  0  0  0  0
  181.6680  184.1400  137.5860 N   0  0  0  0  0  0  0  0  0  0  0  0
  1 27  1  0  0  0  0
  1 26  1  0  0  0  0
  3 16  1  6  0  0  0
  3 19  1  0  0  0  0
  3  7  1  0  0  0  0
  3  6  1  0  0  0  0
  4 18  1  0  0  0  0
  4 23  2  0  0  0  0
  5 11  1  1  0  0  0
  5 19  1  0  0  0  0
  5 15  1  0  0  0  0
  6  7  1  6  0  0  0
  9 25  1  0  0  0  0
  9 27  1  1  0  0  0
 10 17  1  0  0  0  0
 11 20  1  0  0  0  0
 12  8  1  0  0  0  0
 13 24  1  6  0  0  0
 13  9  1  0  0  0  0
 14  2  1  0  0  0  0
 15 12  1  1  0  0  0
 15  4  1  0  0  0  0
 16  8  1  0  0  0  0
 17 25  1  0  0  0  0
 18  1  2  0  0  0  0
 19  6  1  0  0  0  0
 20 13  1  0  0  0  0
 20 18  1  0  0  0  0
 21 26  2  0  0  0  0
 22 10  1  0  0  0  0
 23 21  1  0  0  0  0
 24 22  1  0  0  0  0
 25 14  1  0  0  0  0
 27  2  1  0  0  0  0
 28 17  1  0  0  0  0
 28 29  1  0  0  0  0
 30 34  2  0  0  0  0
 31 32  2  0  0  0  0
 32 34  1  0  0  0  0
 32 29  1  0  0  0  0
 33 31  1  0  0  0  0
 33 30  1  0  0  0  0
M  END
>  <MODEL>
4

>  <REMARK>
 VINA RESULT:      -5.9      3.869      6.933
  Name = 
  3 active torsions:
  status: ('A' for Active; 'I' for Inactive)
    1  A    between atoms: N_17  and  C_28
    2  A    between atoms: C_28  and  C_29
    3  A    between atoms: C_29  and  C_32
                            x       y       z     vdW  Elec       q    Type
                         _______ _______ _______ _____ _____    ______ ____

>  <TORSDO>
F 3

$$$$
=
 OpenBabel11122412093D

 34 42  0  0  1  0  0  0  0  0999 V2000
  183.7750  177.8420  139.0290 C   0  0  0  0  0  0  0  0  0  0  0  0
  181.3930  177.9880  139.9070 C   0  0  0  0  0  2  0  0  0  0  0  0
  187.9430  175.3100  135.8970 C   0  0  2  0  0  0  0  0  0  0  0  0
  185.9170  178.1240  137.9380 C   0  0  0  0  0  0  0  0  0  0  0  0
  186.2890  177.2030  135.6190 N   0  0  1  0  0  0  0  0  0  0  0  0
  187.1690  175.4040  137.2080 C   0  0  2  0  0  3  0  0  0  0  0  0
  188.1870  174.3010  136.9990 C   0  0  0  0  0  2  0  0  0  0  0  0
  189.1040  177.3930  136.9620 C   0  0  0  0  0  2  0  0  0  0  0  0
  181.7730  176.9550  137.7510 C   0  0  2  0  0  3  0  0  0  0  0  0
  179.8570  178.1500  135.4940 C   0  0  0  0  0  2  0  0  0  0  0  0
  184.8530  177.4170  135.3820 C   0  0  0  0  0  2  0  0  0  0  0  0
  188.1780  178.5590  136.6790 C   0  0  0  0  0  2  0  0  0  0  0  0
  182.5220  177.3850  136.4710 C   0  0  1  0  0  3  0  0  0  0  0  0
  180.0320  177.6990  139.2870 C   0  0  0  0  0  2  0  0  0  0  0  0
  186.6980  178.1740  136.6540 C   0  0  2  0  0  3  0  0  0  0  0  0
  189.0470  176.3860  135.8130 C   0  0  0  0  0  2  0  0  0  0  0  0
  179.8900  178.4820  136.9320 N   0  0  0  0  0  0  0  0  0  0  0  0
  184.5760  177.7130  137.8850 C   0  0  0  0  0  0  0  0  0  0  0  0
  186.4800  175.7550  135.8960 C   0  0  2  0  0  3  0  0  0  0  0  0
  184.0140  177.0730  136.6340 C   0  0  2  0  0  3  0  0  0  0  0  0
  185.6730  178.7450  140.2180 C   0  0  0  0  0  3  0  0  0  0  0  0
  180.4210  176.7710  135.1260 C   0  0  0  0  0  2  0  0  0  0  0  0
  186.4280  178.6380  139.0900 N   0  0  0  0  0  0  0  0  0  0  0  0
  181.9470  176.7060  135.2220 C   0  0  0  0  0  2  0  0  0  0  0  0
  180.2900  177.3610  137.8200 C   0  0  1  0  0  3  0  0  0  0  0  0
  184.3310  178.3600  140.2040 C   0  0  0  0  0  3  0  0  0  0  0  0
  182.3770  177.5180  138.9490 N   0  0  0  0  0  0  0  0  0  0  0  0
  180.7250  179.6680  137.1070 C   0  0  0  0  0  2  0  0  0  0  0  0
  180.6770  180.5320  135.8610 C   0  0  0  0  0  2  0  0  0  0  0  0
  180.9420  184.0630  136.1270 N   0  0  0  0  0  0  0  0  0  0  0  0
  181.0320  182.3900  137.4990 N   0  0  0  0  0  0  0  0  0  0  0  0
  180.7930  181.9630  136.2480 C   0  0  0  0  0  0  0  0  0  0  0  0
  181.1160  183.7060  137.3900 N   0  0  0  0  0  0  0  0  0  0  0  0
  180.7430  182.9890  135.3810 N   0  0  0  0  0  2  0  0  0  0  0  0
  1 26  1  0  0  0  0
  3 16  1  6  0  0  0
  3  7  1  0  0  0  0
  3  6  1  0  0  0  0
  4 23  2  0  0  0  0
  5 11  1  1  0  0  0
  5 19  1  0  0  0  0
  5 15  1  0  0  0  0
  6  7  1  6  0  0  0
  9 25  1  0  0  0  0
  9 27  1  1  0  0  0
 10 17  1  0  0  0  0
 11 20  1  0  0  0  0
 12  8  1  0  0  0  0
 13 24  1  6  0  0  0
 13 20  1  0  0  0  0
 13  9  1  0  0  0  0
 14  2  1  0  0  0  0
 15 12  1  1  0  0  0
 15  4  1  0  0  0  0
 16  8  1  0  0  0  0
 17 28  1  0  0  0  0
 17 25  1  0  0  0  0
 18  4  1  0  0  0  0
 18  1  2  0  0  0  0
 19  3  1  0  0  0  0
 19  6  1  0  0  0  0
 20 18  1  0  0  0  0
 22 24  1  0  0  0  0
 22 10  1  0  0  0  0
 23 21  1  0  0  0  0
 25 14  1  0  0  0  0
 26 21  2  0  0  0  0
 27  1  1  0  0  0  0
 27  2  1  0  0  0  0
 29 32  1  0  0  0  0
 29 28  1  0  0  0  0
 30 33  2  0  0  0  0
 32 31  2  0  0  0  0
 33 31  1  0  0  0  0
 34 30  1  0  0  0  0
 34 32  1  0  0  0  0
M  END
>  <MODEL>
5

>  <REMARK>
 VINA RESULT:      -5.7      3.957      6.973
  Name = 
  3 active torsions:
  status: ('A' for Active; 'I' for Inactive)
    1  A    between atoms: N_17  and  C_28
    2  A    between atoms: C_28  and  C_29
    3  A    between atoms: C_29  and  C_32
                            x       y       z     vdW  Elec       q    Type
                         _______ _______ _______ _____ _____    ______ ____

>  <TORSDO>
F 3

$$$$
=
 OpenBabel11122412093D

 34 42  0  0  1  0  0  0  0  0999 V2000
  185.9840  178.4340  139.6480 C   0  0  0  0  0  0  0  0  0  0  0  0
  188.4680  178.1770  139.1680 C   0  0  0  0  0  2  0  0  0  0  0  0
  180.6460  180.2150  138.2580 C   0  0  2  0  0  0  0  0  0  0  0  0
  183.6120  178.1720  140.0530 C   0  0  0  0  0  0  0  0  0  0  0  0
  181.9980  178.0820  138.1170 N   0  0  1  0  0  0  0  0  0  0  0  0
  182.0070  180.5240  138.8730 C   0  0  2  0  0  3  0  0  0  0  0  0
  180.9750  181.6210  138.7120 C   0  0  0  0  0  2  0  0  0  0  0  0
  180.3640  179.0710  140.5890 C   0  0  0  0  0  2  0  0  0  0  0  0
  186.9280  178.2570  137.3020 C   0  0  2  0  0  3  0  0  0  0  0  0
  187.3950  175.8490  135.2590 C   0  0  0  0  0  2  0  0  0  0  0  0
  183.0900  177.4930  137.3270 C   0  0  0  0  0  2  0  0  0  0  0  0
  181.0590  177.7300  140.4670 C   0  0  0  0  0  2  0  0  0  0  0  0
  185.6350  177.4940  136.9430 C   0  0  1  0  0  3  0  0  0  0  0  0
  189.2620  177.8850  137.9020 C   0  0  0  0  0  2  0  0  0  0  0  0
  182.2680  177.7490  139.5300 C   0  0  2  0  0  3  0  0  0  0  0  0
  179.7350  179.4610  139.2530 C   0  0  0  0  0  2  0  0  0  0  0  0
  188.1600  176.1700  136.4790 N   0  0  0  0  0  0  0  0  0  0  0  0
  184.6870  178.2310  139.1530 C   0  0  0  0  0  0  0  0  0  0  0  0
  181.9020  179.5160  137.7360 C   0  0  2  0  0  3  0  0  0  0  0  0
  184.4500  178.1500  137.6600 C   0  0  2  0  0  3  0  0  0  0  0  0
  185.0790  178.5370  141.8850 C   0  0  0  0  0  3  0  0  0  0  0  0
  186.6420  177.0280  134.6260 C   0  0  0  0  0  2  0  0  0  0  0  0
  183.8320  178.3130  141.3890 N   0  0  0  0  0  0  0  0  0  0  0  0
  185.4070  177.4450  135.4280 C   0  0  0  0  0  2  0  0  0  0  0  0
  188.2360  177.6180  136.8030 C   0  0  1  0  0  3  0  0  0  0  0  0
  186.1790  178.5900  141.0250 C   0  0  0  0  0  3  0  0  0  0  0  0
  187.0970  178.3940  138.7410 N   0  0  0  0  0  0  0  0  0  0  0  0
  187.6210  175.3730  137.5790 C   0  0  0  0  0  2  0  0  0  0  0  0
  187.5230  173.9150  137.1710 C   0  0  0  0  0  2  0  0  0  0  0  0
  184.3490  172.3350  136.9820 N   0  0  0  0  0  0  0  0  0  0  0  0
  185.0830  174.2790  137.5920 N   0  0  0  0  0  0  0  0  0  0  0  0
  186.1000  173.4850  137.2190 C   0  0  0  0  0  0  0  0  0  0  0  0
  184.0040  173.5300  137.4370 N   0  0  0  0  0  0  0  0  0  0  0  0
  185.6610  172.2760  136.8290 N   0  0  0  0  0  2  0  0  0  0  0  0
  1 26  1  0  0  0  0
  3  7  1  6  0  0  0
  3  6  1  0  0  0  0
  3 16  1  0  0  0  0
  4 23  2  0  0  0  0
  5 11  1  6  0  0  0
  5 15  1  0  0  0  0
  6  7  1  6  0  0  0
  9 27  1  1  0  0  0
 10 17  1  0  0  0  0
 11 20  1  0  0  0  0
 12  8  1  0  0  0  0
 13 24  1  6  0  0  0
 13  9  1  0  0  0  0
 13 20  1  0  0  0  0
 14  2  1  0  0  0  0
 15  4  1  0  0  0  0
 15 12  1  1  0  0  0
 16  8  1  0  0  0  0
 17 25  1  0  0  0  0
 17 28  1  0  0  0  0
 18  1  2  0  0  0  0
 18  4  1  0  0  0  0
 19  5  1  0  0  0  0
 19  3  1  0  0  0  0
 19  6  1  0  0  0  0
 20 18  1  0  0  0  0
 22 10  1  0  0  0  0
 22 24  1  0  0  0  0
 23 21  1  0  0  0  0
 25  9  1  0  0  0  0
 25 14  1  0  0  0  0
 26 21  2  0  0  0  0
 27  2  1  0  0  0  0
 27  1  1  0  0  0  0
 29 32  1  0  0  0  0
 29 28  1  0  0  0  0
 30 33  2  0  0  0  0
 32 31  2  0  0  0  0
 33 31  1  0  0  0  0
 34 30  1  0  0  0  0
 34 32  1  0  0  0  0
M  END
>  <MODEL>
6

>  <REMARK>
 VINA RESULT:      -5.6      3.215      7.253
  Name = 
  3 active torsions:
  status: ('A' for Active; 'I' for Inactive)
    1  A    between atoms: N_17  and  C_28
    2  A    between atoms: C_28  and  C_29
    3  A    between atoms: C_29  and  C_32
                            x       y       z     vdW  Elec       q    Type
                         _______ _______ _______ _____ _____    ______ ____

>  <TORSDO>
F 3

$$$$
=
 OpenBabel11122412093D

 34 42  0  0  1  0  0  0  0  0999 V2000
  185.5550  177.9870  137.5890 C   0  0  0  0  0  0  0  0  0  0  0  0
  187.8660  178.8730  137.0070 C   0  0  0  0  0  2  0  0  0  0  0  0
  180.7610  174.9650  136.3720 C   0  0  2  0  0  0  0  0  0  0  0  0
  183.6070  176.8670  138.4880 C   0  0  0  0  0  0  0  0  0  0  0  0
  182.9340  174.5980  137.6130 N   0  0  1  0  0  0  0  0  0  0  0  0
  181.5370  176.2760  136.2810 C   0  0  2  0  0  3  0  0  0  0  0  0
  180.2160  176.1190  135.5560 C   0  0  0  0  0  2  0  0  0  0  0  0
  180.3440  175.9080  138.7720 C   0  0  0  0  0  2  0  0  0  0  0  0
  187.1510  176.7730  136.0380 C   0  0  2  0  0  3  0  0  0  0  0  0
  189.3260  174.4690  136.4290 C   0  0  0  0  0  2  0  0  0  0  0  0
  184.3590  174.3600  137.3400 C   0  0  0  0  0  2  0  0  0  0  0  0
  181.5930  175.5700  139.5600 C   0  0  0  0  0  2  0  0  0  0  0  0
  186.5670  175.4670  136.6170 C   0  0  1  0  0  3  0  0  0  0  0  0
  189.0550  178.2800  136.2620 C   0  0  0  0  0  2  0  0  0  0  0  0
  182.8700  175.5770  138.7190 C   0  0  2  0  0  3  0  0  0  0  0  0
  180.0620  174.8160  137.7410 C   0  0  0  0  0  2  0  0  0  0  0  0
  189.4170  175.8860  136.8300 N   0  0  0  0  0  0  0  0  0  0  0  0
  184.7430  176.8460  137.6650 C   0  0  0  0  0  0  0  0  0  0  0  0
  182.2890  174.9510  136.3210 C   0  0  2  0  0  3  0  0  0  0  0  0
  185.0560  175.6350  136.8110 C   0  0  2  0  0  3  0  0  0  0  0  0
  184.0610  179.1110  139.1190 C   0  0  0  0  0  3  0  0  0  0  0  0
  188.3440  174.1720  135.2870 C   0  0  0  0  0  2  0  0  0  0  0  0
  183.3010  177.9860  139.2000 N   0  0  0  0  0  0  0  0  0  0  0  0
  186.8790  174.2610  135.7230 C   0  0  0  0  0  2  0  0  0  0  0  0
  188.6860  176.8310  135.9470 C   0  0  1  0  0  3  0  0  0  0  0  0
  185.2080  179.1280  138.3210 C   0  0  0  0  0  3  0  0  0  0  0  0
  186.7730  177.9350  136.8280 N   0  0  0  0  0  0  0  0  0  0  0  0
  189.0100  175.9910  138.2300 C   0  0  0  0  0  2  0  0  0  0  0  0
  190.1970  176.3780  139.0930 C   0  0  0  0  0  2  0  0  0  0  0  0
  189.5620  177.8740  142.2500 N   0  0  0  0  0  0  0  0  0  0  0  0
  188.5620  177.8140  140.3300 N   0  0  0  0  0  0  0  0  0  0  0  0
  189.7170  177.1280  140.2840 C   0  0  0  0  0  0  0  0  0  0  0  0
  188.4970  178.2710  141.5700 N   0  0  0  0  0  0  0  0  0  0  0  0
  190.3470  177.1480  141.4710 N   0  0  0  0  0  2  0  0  0  0  0  0
  1 18  2  0  0  0  0
  1 26  1  0  0  0  0
  3  7  1  6  0  0  0
  3 16  1  0  0  0  0
  4 15  1  0  0  0  0
  4 23  2  0  0  0  0
  5 11  1  6  0  0  0
  5 15  1  0  0  0  0
  6  7  1  6  0  0  0
  6 19  1  0  0  0  0
  6  3  1  0  0  0  0
  8 12  1  0  0  0  0
  9 13  1  0  0  0  0
  9 27  1  1  0  0  0
 10 17  1  0  0  0  0
 13 24  1  6  0  0  0
 13 20  1  0  0  0  0
 14  2  1  0  0  0  0
 15 12  1  6  0  0  0
 16  8  1  0  0  0  0
 17 28  1  0  0  0  0
 18  4  1  0  0  0  0
 19  3  1  0  0  0  0
 19  5  1  0  0  0  0
 20 11  1  0  0  0  0
 20 18  1  0  0  0  0
 21 23  1  0  0  0  0
 22 24  1  0  0  0  0
 22 10  1  0  0  0  0
 25  9  1  0  0  0  0
 25 14  1  0  0  0  0
 25 17  1  0  0  0  0
 26 21  2  0  0  0  0
 27  2  1  0  0  0  0
 27  1  1  0  0  0  0
 28 29  1  0  0  0  0
 29 32  1  0  0  0  0
 31 33  1  0  0  0  0
 32 31  2  0  0  0  0
 32 34  1  0  0  0  0
 33 30  2  0  0  0  0
 34 30  1  0  0  0  0
M  END
>  <MODEL>
7

>  <REMARK>
 VINA RESULT:      -5.6      2.987      8.379
  Name = 
  3 active torsions:
  status: ('A' for Active; 'I' for Inactive)
    1  A    between atoms: N_17  and  C_28
    2  A    between atoms: C_28  and  C_29
    3  A    between atoms: C_29  and  C_32
                            x       y       z     vdW  Elec       q    Type
                         _______ _______ _______ _____ _____    ______ ____

>  <TORSDO>
F 3

$$$$
=
 OpenBabel11122412093D

 34 42  0  0  1  0  0  0  0  0999 V2000
  184.0180  178.0530  138.7250 C   0  0  0  0  0  0  0  0  0  0  0  0
  185.6080  177.1790  136.9440 C   0  0  0  0  0  2  0  0  0  0  0  0
  178.9310  180.2410  140.4350 C   0  0  2  0  0  0  0  0  0  0  0  0
  182.5080  178.4040  140.5830 C   0  0  0  0  0  0  0  0  0  0  0  0
  180.0380  177.9710  140.3080 N   0  0  1  0  0  0  0  0  0  0  0  0
  180.3340  180.4750  139.8840 C   0  0  2  0  0  3  0  0  0  0  0  0
  179.3580  181.6270  140.0010 C   0  0  0  0  0  2  0  0  0  0  0  0
  180.3230  180.0360  142.6350 C   0  0  0  0  0  2  0  0  0  0  0  0
  183.2260  176.9100  136.6050 C   0  0  2  0  0  3  0  0  0  0  0  0
  182.4540  173.9090  135.8420 C   0  0  0  0  0  2  0  0  0  0  0  0
  180.4010  176.9500  139.3130 C   0  0  0  0  0  2  0  0  0  0  0  0
  180.8800  178.6270  142.6300 C   0  0  0  0  0  2  0  0  0  0  0  0
  182.0780  176.3340  137.4600 C   0  0  1  0  0  3  0  0  0  0  0  0
  185.4130  176.3260  135.6960 C   0  0  0  0  0  2  0  0  0  0  0  0
  181.1860  178.0940  141.2290 C   0  0  2  0  0  3  0  0  0  0  0  0
  178.9480  180.0600  141.9690 C   0  0  0  0  0  2  0  0  0  0  0  0
  183.7980  174.4740  136.0710 N   0  0  0  0  0  0  0  0  0  0  0  0
  182.7330  177.9460  139.2760 C   0  0  0  0  0  0  0  0  0  0  0  0
  179.6000  179.1790  139.5610 C   0  0  2  0  0  3  0  0  0  0  0  0
  181.5920  177.4080  138.4390 C   0  0  2  0  0  3  0  0  0  0  0  0
  184.7760  179.0830  140.7740 C   0  0  0  0  0  3  0  0  0  0  0  0
  181.3770  174.9220  135.4320 C   0  0  0  0  0  2  0  0  0  0  0  0
  183.5290  178.9470  141.3010 N   0  0  0  0  0  0  0  0  0  0  0  0
  180.9270  175.8160  136.5900 C   0  0  0  0  0  2  0  0  0  0  0  0
  183.9450  175.9020  135.6920 C   0  0  1  0  0  3  0  0  0  0  0  0
  185.0460  178.6290  139.4810 C   0  0  0  0  0  3  0  0  0  0  0  0
  184.2760  177.4940  137.4270 N   0  0  0  0  0  0  0  0  0  0  0  0
  184.1690  174.2180  137.4620 C   0  0  0  0  0  2  0  0  0  0  0  0
  184.7950  172.8420  137.5920 C   0  0  0  0  0  2  0  0  0  0  0  0
  188.0750  173.3190  136.3180 N   0  0  0  0  0  0  0  0  0  0  0  0
  186.3700  172.0880  135.7990 N   0  0  0  0  0  0  0  0  0  0  0  0
  186.1060  172.8280  136.8890 C   0  0  0  0  0  0  0  0  0  0  0  0
  187.6090  172.4150  135.4700 N   0  0  0  0  0  2  0  0  0  0  0  0
  187.1510  173.6050  137.2200 N   0  0  0  0  0  0  0  0  0  0  0  0
  1 18  2  0  0  0  0
  1 26  1  0  0  0  0
  2 27  1  0  0  0  0
  3  7  1  6  0  0  0
  3 16  1  0  0  0  0
  4 15  1  0  0  0  0
  4 23  2  0  0  0  0
  5 11  1  6  0  0  0
  5 15  1  0  0  0  0
  6  7  1  6  0  0  0
  6  3  1  0  0  0  0
  9 27  1  1  0  0  0
  9 13  1  0  0  0  0
 10 17  1  0  0  0  0
 12  8  1  0  0  0  0
 13 24  1  6  0  0  0
 13 20  1  0  0  0  0
 14  2  1  0  0  0  0
 15 12  1  1  0  0  0
 16  8  1  0  0  0  0
 17 28  1  0  0  0  0
 18  4  1  0  0  0  0
 19  6  1  0  0  0  0
 19  5  1  0  0  0  0
 19  3  1  0  0  0  0
 20 18  1  0  0  0  0
 20 11  1  0  0  0  0
 21 23  1  0  0  0  0
 22 10  1  0  0  0  0
 22 24  1  0  0  0  0
 25 14  1  0  0  0  0
 25 17  1  0  0  0  0
 25  9  1  0  0  0  0
 26 21  2  0  0  0  0
 27  1  1  0  0  0  0
 28 29  1  0  0  0  0
 30 34  2  0  0  0  0
 31 32  2  0  0  0  0
 32 34  1  0  0  0  0
 32 29  1  0  0  0  0
 33 31  1  0  0  0  0
 33 30  1  0  0  0  0
M  END
>  <MODEL>
8

>  <REMARK>
 VINA RESULT:      -5.4      4.174      7.587
  Name = 
  3 active torsions:
  status: ('A' for Active; 'I' for Inactive)
    1  A    between atoms: N_17  and  C_28
    2  A    between atoms: C_28  and  C_29
    3  A    between atoms: C_29  and  C_32
                            x       y       z     vdW  Elec       q    Type
                         _______ _______ _______ _____ _____    ______ ____

>  <TORSDO>
F 3

$$$$
=
 OpenBabel11122412093D

 34 42  0  0  1  0  0  0  0  0999 V2000
  185.3110  177.9460  137.6410 C   0  0  0  0  0  0  0  0  0  0  0  0
  187.5970  178.7570  136.8780 C   0  0  0  0  0  2  0  0  0  0  0  0
  180.1970  175.3850  136.7020 C   0  0  2  0  0  0  0  0  0  0  0  0
  183.4050  176.8440  138.6450 C   0  0  0  0  0  0  0  0  0  0  0  0
  182.4680  174.7420  137.6120 N   0  0  1  0  0  0  0  0  0  0  0  0
  181.0520  176.6480  136.6630 C   0  0  2  0  0  3  0  0  0  0  0  0
  179.6470  176.6590  136.0960 C   0  0  0  0  0  2  0  0  0  0  0  0
  180.1360  176.0540  139.2260 C   0  0  0  0  0  2  0  0  0  0  0  0
  186.6200  176.8350  135.7760 C   0  0  2  0  0  3  0  0  0  0  0  0
  188.6490  174.3760  135.6290 C   0  0  0  0  0  2  0  0  0  0  0  0
  183.8300  174.4540  137.1380 C   0  0  0  0  0  2  0  0  0  0  0  0
  181.4400  175.5500  139.8090 C   0  0  0  0  0  2  0  0  0  0  0  0
  186.0130  175.5060  136.2720 C   0  0  1  0  0  3  0  0  0  0  0  0
  188.6440  178.1880  135.9280 C   0  0  0  0  0  2  0  0  0  0  0  0
  182.6070  175.5820  138.8200 C   0  0  2  0  0  3  0  0  0  0  0  0
  179.6540  175.1140  138.1220 C   0  0  0  0  0  2  0  0  0  0  0  0
  188.8920  175.7260  136.1730 N   0  0  0  0  0  0  0  0  0  0  0  0
  184.4320  176.8550  137.6890 C   0  0  0  0  0  0  0  0  0  0  0  0
  181.7040  175.2860  136.4590 C   0  0  2  0  0  3  0  0  0  0  0  0
  184.5520  175.7390  136.6720 C   0  0  2  0  0  3  0  0  0  0  0  0
  184.0950  178.9650  139.4620 C   0  0  0  0  0  3  0  0  0  0  0  0
  187.5210  174.2780  134.5940 C   0  0  0  0  0  2  0  0  0  0  0  0
  183.2680  177.8850  139.5110 N   0  0  0  0  0  0  0  0  0  0  0  0
  186.1280  174.4000  135.2170 C   0  0  0  0  0  2  0  0  0  0  0  0
  188.1340  176.8130  135.5010 C   0  0  1  0  0  3  0  0  0  0  0  0
  185.1380  179.0090  138.5350 C   0  0  0  0  0  3  0  0  0  0  0  0
  186.4240  177.9140  136.7330 N   0  0  0  0  0  0  0  0  0  0  0  0
  188.6610  175.6860  137.6150 C   0  0  0  0  0  2  0  0  0  0  0  0
  189.7820  176.4020  138.3460 C   0  0  0  0  0  2  0  0  0  0  0  0
  193.0470  175.5840  137.2190 N   0  0  0  0  0  0  0  0  0  0  0  0
  191.3430  174.4820  137.9750 N   0  0  0  0  0  0  0  0  0  0  0  0
  191.0860  175.8000  137.9600 C   0  0  0  0  0  0  0  0  0  0  0  0
  192.5780  174.3810  137.5100 N   0  0  0  0  0  0  0  0  0  0  0  0
  192.1300  176.5000  137.4850 N   0  0  0  0  0  2  0  0  0  0  0  0
  1 18  2  0  0  0  0
  1 26  1  0  0  0  0
  3  7  1  6  0  0  0
  3 16  1  0  0  0  0
  4 15  1  0  0  0  0
  4 23  2  0  0  0  0
  5 11  1  6  0  0  0
  5 15  1  0  0  0  0
  6  7  1  6  0  0  0
  6  3  1  0  0  0  0
  8 12  1  0  0  0  0
  9 13  1  0  0  0  0
  9 27  1  1  0  0  0
 10 17  1  0  0  0  0
 13 24  1  6  0  0  0
 13 20  1  0  0  0  0
 14  2  1  0  0  0  0
 15 12  1  6  0  0  0
 16  8  1  0  0  0  0
 17 28  1  0  0  0  0
 18  4  1  0  0  0  0
 19  6  1  0  0  0  0
 19  3  1  0  0  0  0
 19  5  1  0  0  0  0
 20 11  1  0  0  0  0
 20 18  1  0  0  0  0
 21 23  1  0  0  0  0
 22 24  1  0  0  0  0
 22 10  1  0  0  0  0
 25  9  1  0  0  0  0
 25 14  1  0  0  0  0
 25 17  1  0  0  0  0
 26 21  2  0  0  0  0
 27  2  1  0  0  0  0
 27  1  1  0  0  0  0
 28 29  1  0  0  0  0
 30 34  1  0  0  0  0
 30 33  2  0  0  0  0
 32 31  2  0  0  0  0
 32 29  1  0  0  0  0
 33 31  1  0  0  0  0
 34 32  1  0  0  0  0
M  END
>  <MODEL>
9

>  <REMARK>
 VINA RESULT:      -5.0      3.975      8.616
  Name = 
  3 active torsions:
  status: ('A' for Active; 'I' for Inactive)
    1  A    between atoms: N_17  and  C_28
    2  A    between atoms: C_28  and  C_29
    3  A    between atoms: C_29  and  C_32
                            x       y       z     vdW  Elec       q    Type
                         _______ _______ _______ _____ _____    ______ ____

>  <TORSDO>
F 3

$$$$
