=
 OpenBabel11122411343D

 37 43  0  0  1  0  0  0  0  0999 V2000
  188.6320  176.7220  138.8010 C   0  0  0  0  0  2  0  0  0  0  0  0
  190.1920  177.0230  143.2460 C   0  0  0  0  0  0  0  0  0  0  0  0
  186.5440  178.3810  141.7040 C   0  0  0  0  0  0  0  0  0  0  0  0
  189.5900  176.0820  137.8110 C   0  0  2  0  0  3  0  0  0  0  0  0
  186.1960  179.2210  138.1150 C   0  0  0  0  0  2  0  0  0  0  0  0
  187.7160  177.5110  143.6230 C   0  0  0  0  0  0  0  0  0  0  0  0
  186.8690  178.9600  140.3530 C   0  0  2  0  0  3  0  0  0  0  0  0
  188.7880  177.5540  135.8470 C   0  0  0  0  0  0  0  0  0  0  0  0
  187.6850  177.9830  142.3210 C   0  0  0  0  0  0  0  0  0  0  0  0
  186.1570  178.2950  139.2440 N   0  0  1  0  0  0  0  0  0  0  0  0
  186.5000  177.4220  144.3190 C   0  0  0  0  0  3  0  0  0  0  0  0
  189.1590  176.2990  136.4330 N   0  0  0  0  0  2  0  0  0  0  0  0
  188.8250  178.1350  141.5210 N   0  0  0  0  0  0  0  0  0  0  0  0
  190.1010  175.6200  142.6660 C   0  0  0  0  0  1  0  0  0  0  0  0
  183.9960  178.5480  141.6490 C   0  0  0  0  0  2  0  0  0  0  0  0
  185.2940  177.7860  143.6780 C   0  0  0  0  0  3  0  0  0  0  0  0
  190.1630  178.0570  142.1000 C   0  0  0  0  0  2  0  0  0  0  0  0
  188.2250  178.6880  136.6490 C   0  0  1  0  0  3  0  0  0  0  0  0
  186.7290  178.4800  136.9020 C   0  0  0  0  0  2  0  0  0  0  0  0
  185.3050  178.2810  142.3580 C   0  0  0  0  0  0  0  0  0  0  0  0
  188.4350  178.8240  140.2940 C   0  0  1  0  0  3  0  0  0  0  0  0
  189.0480  177.2360  144.2680 C   0  0  0  0  0  2  0  0  0  0  0  0
  184.7500  177.9950  139.6000 C   0  0  1  0  0  3  0  0  0  0  0  0
  191.5140  177.1490  143.9720 C   0  0  0  0  0  1  0  0  0  0  0  0
  189.0990  179.0940  137.8470 C   0  0  0  0  0  2  0  0  0  0  0  0
  188.8380  177.6760  134.5950 O   0  0  0  0  0  0  0  0  0  0  0  0
  189.0680  178.1610  139.0630 C   0  0  2  0  0  3  0  0  0  0  0  0
  184.1600  179.0400  140.3370 O   0  0  0  0  0  0  0  0  0  0  0  0
  182.8820  178.3620  137.9720 C   0  0  0  0  0  3  0  0  0  0  0  0
  183.9020  177.5310  138.4480 C   0  0  0  0  0  0  0  0  0  0  0  0
  184.0860  176.2630  137.8770 C   0  0  0  0  0  3  0  0  0  0  0  0
  183.4990  174.2570  136.1210 Cl  0  0  0  0  0  0  0  0  0  0  0  0
  182.2500  176.6760  136.3540 C   0  0  0  0  0  3  0  0  0  0  0  0
  183.2630  175.8380  136.8310 C   0  0  0  0  0  0  0  0  0  0  0  0
  182.0600  177.9370  136.9250 C   0  0  0  0  0  3  0  0  0  0  0  0
  190.9230  174.1090  137.6420 O   0  0  0  0  0  1  0  0  0  0  0  0
  189.6860  174.5900  138.0730 C   0  0  0  0  0  2  0  0  0  0  0  0
  1 27  1  0  0  0  0
  2 24  1  0  0  0  0
  2 22  1  0  0  0  0
  3  9  2  0  0  0  0
  3 20  1  0  0  0  0
  4 37  1  1  0  0  0
  4  1  1  0  0  0  0
  6 22  1  0  0  0  0
  6 11  2  0  0  0  0
  7  3  1  1  0  0  0
  8 12  1  0  0  0  0
  8 18  1  0  0  0  0
  9  6  1  0  0  0  0
 10  5  1  6  0  0  0
 10 23  1  0  0  0  0
 10  7  1  0  0  0  0
 12  4  1  0  0  0  0
 13 17  1  0  0  0  0
 13  9  1  0  0  0  0
 14  2  1  0  0  0  0
 15 20  1  0  0  0  0
 16 11  1  0  0  0  0
 17  2  1  0  0  0  0
 18 19  1  1  0  0  0
 18 25  1  0  0  0  0
 19  5  1  0  0  0  0
 20 16  2  0  0  0  0
 21  7  1  0  0  0  0
 21 13  1  1  0  0  0
 23 30  1  6  0  0  0
 23 28  1  0  0  0  0
 26  8  2  0  0  0  0
 27 25  1  6  0  0  0
 27 21  1  0  0  0  0
 28 15  1  0  0  0  0
 29 30  1  0  0  0  0
 31 30  2  0  0  0  0
 32 34  1  0  0  0  0
 33 34  2  0  0  0  0
 33 35  1  0  0  0  0
 34 31  1  0  0  0  0
 35 29  2  0  0  0  0
 36 37  1  0  0  0  0
M  END
>  <MODEL>
1

>  <REMARK>
 VINA RESULT:      -6.8      0.000      0.000
  Name = 
  2 active torsions:
  status: ('A' for Active; 'I' for Inactive)
    1  A    between atoms: CA_4  and  C_37
    2  A    between atoms: C_23  and  C_30
                            x       y       z     vdW  Elec       q    Type
                         _______ _______ _______ _____ _____    ______ ____

>  <TORSDO>
F 2

$$$$
=
 OpenBabel11122411343D

 37 43  0  0  1  0  0  0  0  0999 V2000
  185.0430  175.3080  136.8280 C   0  0  0  0  0  2  0  0  0  0  0  0
  189.6760  176.1250  137.2050 C   0  0  0  0  0  0  0  0  0  0  0  0
  186.5430  178.1750  139.0790 C   0  0  0  0  0  0  0  0  0  0  0  0
  184.6490  174.1840  135.8860 C   0  0  2  0  0  3  0  0  0  0  0  0
  183.1500  178.2200  137.5980 C   0  0  0  0  0  2  0  0  0  0  0  0
  188.8380  177.4500  139.2190 C   0  0  0  0  0  0  0  0  0  0  0  0
  185.4590  178.2870  138.0410 C   0  0  2  0  0  3  0  0  0  0  0  0
  182.4440  175.3330  135.1870 C   0  0  0  0  0  0  0  0  0  0  0  0
  187.6400  177.5890  138.5370 C   0  0  0  0  0  0  0  0  0  0  0  0
  184.1930  177.6450  138.4440 N   0  0  1  0  0  0  0  0  0  0  0  0
  188.9010  177.9180  140.5410 C   0  0  0  0  0  3  0  0  0  0  0  0
  183.2160  174.1980  135.6040 N   0  0  0  0  0  2  0  0  0  0  0  0
  187.4470  177.1790  137.2110 N   0  0  0  0  0  0  0  0  0  0  0  0
  189.2120  174.7300  137.5930 C   0  0  0  0  0  1  0  0  0  0  0  0
  185.3100  179.1280  141.1030 C   0  0  0  0  0  2  0  0  0  0  0  0
  187.7550  178.4870  141.1400 C   0  0  0  0  0  3  0  0  0  0  0  0
  188.5800  176.8170  136.3660 C   0  0  0  0  0  2  0  0  0  0  0  0
  182.8210  176.7420  135.5340 C   0  0  1  0  0  3  0  0  0  0  0  0
  182.3700  177.0860  136.9570 C   0  0  0  0  0  2  0  0  0  0  0  0
  186.5580  178.6300  140.4080 C   0  0  0  0  0  0  0  0  0  0  0  0
  186.1360  177.6500  136.7730 C   0  0  1  0  0  3  0  0  0  0  0  0
  190.0400  176.9230  138.4810 C   0  0  0  0  0  2  0  0  0  0  0  0
  183.8790  177.9010  139.8700 C   0  0  1  0  0  3  0  0  0  0  0  0
  190.9190  175.9890  136.3530 C   0  0  0  0  0  1  0  0  0  0  0  0
  184.2570  177.1160  135.1330 C   0  0  0  0  0  2  0  0  0  0  0  0
  181.3500  175.1370  134.5950 O   0  0  0  0  0  0  0  0  0  0  0  0
  185.3810  176.5520  136.0110 C   0  0  2  0  0  3  0  0  0  0  0  0
  184.1920  179.2210  140.2490 O   0  0  0  0  0  0  0  0  0  0  0  0
  182.0370  176.2050  139.9300 C   0  0  0  0  0  3  0  0  0  0  0  0
  182.5000  177.4750  140.2910 C   0  0  0  0  0  0  0  0  0  0  0  0
  181.6560  178.3470  140.9950 C   0  0  0  0  0  3  0  0  0  0  0  0
  179.3170  179.0330  142.2250 Cl  0  0  0  0  0  0  0  0  0  0  0  0
  179.9090  176.6700  140.9880 C   0  0  0  0  0  3  0  0  0  0  0  0
  180.3650  177.9430  141.3450 C   0  0  0  0  0  0  0  0  0  0  0  0
  180.7450  175.8020  140.2810 C   0  0  0  0  0  3  0  0  0  0  0  0
  185.1460  172.9640  137.8760 O   0  0  0  0  0  1  0  0  0  0  0  0
  185.0230  172.8440  136.4920 C   0  0  0  0  0  2  0  0  0  0  0  0
  2 14  1  0  0  0  0
  2 22  1  0  0  0  0
  3 20  1  0  0  0  0
  4 37  1  1  0  0  0
  4  1  1  0  0  0  0
  6 11  2  0  0  0  0
  7 10  1  0  0  0  0
  7  3  1  1  0  0  0
  8 18  1  0  0  0  0
  8 12  1  0  0  0  0
  9  3  2  0  0  0  0
  9  6  1  0  0  0  0
 10  5  1  6  0  0  0
 10 23  1  0  0  0  0
 11 16  1  0  0  0  0
 12  4  1  0  0  0  0
 13  9  1  0  0  0  0
 17  2  1  0  0  0  0
 17 13  1  0  0  0  0
 18 25  1  1  0  0  0
 18 19  1  0  0  0  0
 19  5  1  0  0  0  0
 20 15  1  0  0  0  0
 20 16  2  0  0  0  0
 21 13  1  1  0  0  0
 21  7  1  0  0  0  0
 22  6  1  0  0  0  0
 23 28  1  0  0  0  0
 23 30  1  6  0  0  0
 24  2  1  0  0  0  0
 26  8  2  0  0  0  0
 27 25  1  1  0  0  0
 27 21  1  0  0  0  0
 27  1  1  0  0  0  0
 28 15  1  0  0  0  0
 29 35  2  0  0  0  0
 29 30  1  0  0  0  0
 30 31  2  0  0  0  0
 31 34  1  0  0  0  0
 33 34  2  0  0  0  0
 34 32  1  0  0  0  0
 35 33  1  0  0  0  0
 37 36  1  0  0  0  0
M  END
>  <MODEL>
2

>  <REMARK>
 VINA RESULT:      -6.4      3.039      4.960
  Name = 
  2 active torsions:
  status: ('A' for Active; 'I' for Inactive)
    1  A    between atoms: CA_4  and  C_37
    2  A    between atoms: C_23  and  C_30
                            x       y       z     vdW  Elec       q    Type
                         _______ _______ _______ _____ _____    ______ ____

>  <TORSDO>
F 2

$$$$
=
 OpenBabel11122411343D

 37 43  0  0  1  0  0  0  0  0999 V2000
  185.1660  175.5440  136.8410 C   0  0  0  0  0  2  0  0  0  0  0  0
  189.8410  176.0410  137.2580 C   0  0  0  0  0  0  0  0  0  0  0  0
  186.8400  178.2240  139.1970 C   0  0  0  0  0  0  0  0  0  0  0  0
  184.7040  174.4830  135.8570 C   0  0  2  0  0  3  0  0  0  0  0  0
  183.4650  178.5450  137.7110 C   0  0  0  0  0  2  0  0  0  0  0  0
  189.0820  177.3450  139.3160 C   0  0  0  0  0  0  0  0  0  0  0  0
  185.7700  178.4440  138.1610 C   0  0  2  0  0  3  0  0  0  0  0  0
  182.5820  175.7980  135.1950 C   0  0  0  0  0  0  0  0  0  0  0  0
  187.8990  177.5870  138.6370 C   0  0  0  0  0  0  0  0  0  0  0  0
  184.4630  177.8720  138.5380 N   0  0  1  0  0  0  0  0  0  0  0  0
  189.1690  177.7600  140.6540 C   0  0  0  0  0  3  0  0  0  0  0  0
  183.2770  174.6010  135.5730 N   0  0  0  0  0  2  0  0  0  0  0  0
  187.6850  177.2380  137.2970 N   0  0  0  0  0  0  0  0  0  0  0  0
  189.2850  174.6660  137.5950 C   0  0  0  0  0  1  0  0  0  0  0  0
  185.6630  179.1820  141.2510 C   0  0  0  0  0  2  0  0  0  0  0  0
  188.0590  178.3810  141.2710 C   0  0  0  0  0  3  0  0  0  0  0  0
  188.7970  176.8330  136.4420 C   0  0  0  0  0  2  0  0  0  0  0  0
  183.0490  177.1660  135.5940 C   0  0  1  0  0  3  0  0  0  0  0  0
  182.6150  177.4870  137.0270 C   0  0  0  0  0  2  0  0  0  0  0  0
  186.8790  178.6290  140.5420 C   0  0  0  0  0  0  0  0  0  0  0  0
  186.4100  177.8090  136.8720 C   0  0  1  0  0  3  0  0  0  0  0  0
  190.2500  176.7670  138.5630 C   0  0  0  0  0  2  0  0  0  0  0  0
  184.1600  178.0960  139.9720 C   0  0  1  0  0  3  0  0  0  0  0  0
  191.0770  175.8550  136.4050 C   0  0  0  0  0  1  0  0  0  0  0  0
  184.5090  177.4590  135.2100 C   0  0  0  0  0  2  0  0  0  0  0  0
  181.4810  175.6960  134.5940 O   0  0  0  0  0  0  0  0  0  0  0  0
  185.5880  176.7920  136.0700 C   0  0  2  0  0  3  0  0  0  0  0  0
  184.5570  179.3790  140.3980 O   0  0  0  0  0  0  0  0  0  0  0  0
  182.0380  178.6300  141.1900 C   0  0  0  0  0  3  0  0  0  0  0  0
  182.7540  177.7480  140.3730 C   0  0  0  0  0  0  0  0  0  0  0  0
  182.1680  176.5350  139.9810 C   0  0  0  0  0  3  0  0  0  0  0  0
  180.1450  174.7030  139.9030 Cl  0  0  0  0  0  0  0  0  0  0  0  0
  180.1580  177.1050  141.2060 C   0  0  0  0  0  3  0  0  0  0  0  0
  180.8720  176.2160  140.3950 C   0  0  0  0  0  0  0  0  0  0  0  0
  180.7420  178.3100  141.6040 C   0  0  0  0  0  3  0  0  0  0  0  0
  185.1490  173.1680  137.7990 O   0  0  0  0  0  1  0  0  0  0  0  0
  184.9860  173.1000  136.4160 C   0  0  0  0  0  2  0  0  0  0  0  0
  2 14  1  0  0  0  0
  2 22  1  0  0  0  0
  3 20  1  0  0  0  0
  4 37  1  1  0  0  0
  4  1  1  0  0  0  0
  6 11  2  0  0  0  0
  7 10  1  0  0  0  0
  7  3  1  1  0  0  0
  8 12  1  0  0  0  0
  8 18  1  0  0  0  0
  9  3  2  0  0  0  0
  9  6  1  0  0  0  0
 10  5  1  6  0  0  0
 10 23  1  0  0  0  0
 11 16  1  0  0  0  0
 12  4  1  0  0  0  0
 13  9  1  0  0  0  0
 17  2  1  0  0  0  0
 17 13  1  0  0  0  0
 18 25  1  1  0  0  0
 18 19  1  0  0  0  0
 19  5  1  0  0  0  0
 20 15  1  0  0  0  0
 20 16  2  0  0  0  0
 21 13  1  1  0  0  0
 21  7  1  0  0  0  0
 22  6  1  0  0  0  0
 23 30  1  6  0  0  0
 23 28  1  0  0  0  0
 24  2  1  0  0  0  0
 26  8  2  0  0  0  0
 27 25  1  1  0  0  0
 27  1  1  0  0  0  0
 27 21  1  0  0  0  0
 28 15  1  0  0  0  0
 29 35  1  0  0  0  0
 30 29  2  0  0  0  0
 31 30  1  0  0  0  0
 31 34  2  0  0  0  0
 32 34  1  0  0  0  0
 33 35  2  0  0  0  0
 34 33  1  0  0  0  0
 37 36  1  0  0  0  0
M  END
>  <MODEL>
3

>  <REMARK>
 VINA RESULT:      -6.4      2.668      4.656
  Name = 
  2 active torsions:
  status: ('A' for Active; 'I' for Inactive)
    1  A    between atoms: CA_4  and  C_37
    2  A    between atoms: C_23  and  C_30
                            x       y       z     vdW  Elec       q    Type
                         _______ _______ _______ _____ _____    ______ ____

>  <TORSDO>
F 2

$$$$
=
 OpenBabel11122411343D

 37 43  0  0  1  0  0  0  0  0999 V2000
  183.8030  177.3360  138.0490 C   0  0  0  0  0  2  0  0  0  0  0  0
  180.3030  178.8120  140.8490 C   0  0  0  0  0  0  0  0  0  0  0  0
  180.4510  175.3220  138.5410 C   0  0  0  0  0  0  0  0  0  0  0  0
  185.0040  178.2610  137.9550 C   0  0  2  0  0  3  0  0  0  0  0  0
  182.6010  175.1250  135.5350 C   0  0  0  0  0  2  0  0  0  0  0  0
  179.6110  176.3750  140.5410 C   0  0  0  0  0  0  0  0  0  0  0  0
  181.1050  175.7240  137.2470 C   0  0  2  0  0  3  0  0  0  0  0  0
  185.4980  177.6260  135.5010 C   0  0  0  0  0  0  0  0  0  0  0  0
  180.2850  176.4130  139.3320 C   0  0  0  0  0  0  0  0  0  0  0  0
  182.3520  174.9860  136.9670 N   0  0  1  0  0  0  0  0  0  0  0  0
  179.1000  175.1410  140.9710 C   0  0  0  0  0  3  0  0  0  0  0  0
  185.8880  177.8820  136.8570 N   0  0  0  0  0  2  0  0  0  0  0  0
  180.8310  177.5790  138.7800 N   0  0  0  0  0  0  0  0  0  0  0  0
  181.6550  178.6220  141.5180 C   0  0  0  0  0  1  0  0  0  0  0  0
  180.2930  172.7980  138.1860 C   0  0  0  0  0  2  0  0  0  0  0  0
  179.3030  173.9830  140.1870 C   0  0  0  0  0  3  0  0  0  0  0  0
  180.4910  178.8930  139.3190 C   0  0  0  0  0  2  0  0  0  0  0  0
  184.1300  177.1380  135.1300 C   0  0  1  0  0  3  0  0  0  0  0  0
  184.0220  175.6240  135.3390 C   0  0  0  0  0  2  0  0  0  0  0  0
  179.9780  174.0640  138.9510 C   0  0  0  0  0  0  0  0  0  0  0  0
  181.2940  177.2750  137.4290 C   0  0  1  0  0  3  0  0  0  0  0  0
  179.3510  177.6660  141.2710 C   0  0  0  0  0  2  0  0  0  0  0  0
  182.2300  173.5510  137.3190 C   0  0  1  0  0  3  0  0  0  0  0  0
  179.7180  180.1230  141.3300 C   0  0  0  0  0  1  0  0  0  0  0  0
  182.9900  178.0140  135.6750 C   0  0  0  0  0  2  0  0  0  0  0  0
  186.3660  177.7140  134.5940 O   0  0  0  0  0  0  0  0  0  0  0  0
  182.6800  177.8800  137.1700 C   0  0  2  0  0  3  0  0  0  0  0  0
  180.9690  173.0300  136.9710 O   0  0  0  0  0  0  0  0  0  0  0  0
  183.1050  171.5510  136.0910 C   0  0  0  0  0  3  0  0  0  0  0  0
  183.3740  172.6950  136.8500 C   0  0  0  0  0  0  0  0  0  0  0  0
  184.6970  173.0000  137.2000 C   0  0  0  0  0  3  0  0  0  0  0  0
  187.3920  172.5560  137.2210 Cl  0  0  0  0  0  0  0  0  0  0  0  0
  185.4680  171.0320  136.0190 C   0  0  0  0  0  3  0  0  0  0  0  0
  185.7420  172.1710  136.7830 C   0  0  0  0  0  0  0  0  0  0  0  0
  184.1500  170.7220  135.6740 C   0  0  0  0  0  3  0  0  0  0  0  0
  185.3680  179.2730  140.0860 O   0  0  0  0  0  1  0  0  0  0  0  0
  185.7840  178.2320  139.2560 C   0  0  0  0  0  2  0  0  0  0  0  0
  2 22  1  0  0  0  0
  2 24  1  0  0  0  0
  2 14  1  0  0  0  0
  3 20  2  0  0  0  0
  3  9  1  0  0  0  0
  4  1  1  0  0  0  0
  4 37  1  1  0  0  0
  6 11  1  0  0  0  0
  6 22  1  0  0  0  0
  7 21  1  0  0  0  0
  7  3  1  1  0  0  0
  8 12  1  0  0  0  0
  9  6  2  0  0  0  0
 10  5  1  6  0  0  0
 10  7  1  0  0  0  0
 10 23  1  0  0  0  0
 12  4  1  0  0  0  0
 13 17  1  0  0  0  0
 13  9  1  0  0  0  0
 15 20  1  0  0  0  0
 16 11  2  0  0  0  0
 17  2  1  0  0  0  0
 18 19  1  1  0  0  0
 18  8  1  0  0  0  0
 18 25  1  0  0  0  0
 19  5  1  0  0  0  0
 20 16  1  0  0  0  0
 21 13  1  1  0  0  0
 23 30  1  6  0  0  0
 26  8  2  0  0  0  0
 27 25  1  6  0  0  0
 27 21  1  0  0  0  0
 27  1  1  0  0  0  0
 28 23  1  0  0  0  0
 28 15  1  0  0  0  0
 29 30  1  0  0  0  0
 30 31  2  0  0  0  0
 33 34  2  0  0  0  0
 34 31  1  0  0  0  0
 34 32  1  0  0  0  0
 35 33  1  0  0  0  0
 35 29  2  0  0  0  0
 37 36  1  0  0  0  0
M  END
>  <MODEL>
4

>  <REMARK>
 VINA RESULT:      -5.6      3.837      7.106
  Name = 
  2 active torsions:
  status: ('A' for Active; 'I' for Inactive)
    1  A    between atoms: CA_4  and  C_37
    2  A    between atoms: C_23  and  C_30
                            x       y       z     vdW  Elec       q    Type
                         _______ _______ _______ _____ _____    ______ ____

>  <TORSDO>
F 2

$$$$
=
 OpenBabel11122411343D

 37 43  0  0  1  0  0  0  0  0999 V2000
  183.8850  176.1260  137.7280 C   0  0  0  0  0  2  0  0  0  0  0  0
  188.1610  175.0680  136.0320 C   0  0  0  0  0  0  0  0  0  0  0  0
  187.1800  177.9240  138.9330 C   0  0  0  0  0  0  0  0  0  0  0  0
  182.7280  175.3540  137.1180 C   0  0  2  0  0  3  0  0  0  0  0  0
  183.7990  179.4280  139.0470 C   0  0  0  0  0  2  0  0  0  0  0  0
  188.8340  176.3680  138.1220 C   0  0  0  0  0  0  0  0  0  0  0  0
  185.9020  178.5600  138.4540 C   0  0  2  0  0  3  0  0  0  0  0  0
  181.0810  177.3280  137.3590 C   0  0  0  0  0  0  0  0  0  0  0  0
  187.6230  177.0310  138.0110 C   0  0  0  0  0  0  0  0  0  0  0  0
  184.7800  178.4050  139.4000 N   0  0  1  0  0  0  0  0  0  0  0  0
  189.6210  176.6200  139.2570 C   0  0  0  0  0  3  0  0  0  0  0  0
  181.4420  175.9450  137.4770 N   0  0  0  0  0  2  0  0  0  0  0  0
  186.7510  176.8830  136.9250 N   0  0  0  0  0  0  0  0  0  0  0  0
  187.3950  173.9200  136.6690 C   0  0  0  0  0  1  0  0  0  0  0  0
  187.3880  179.0310  141.2250 C   0  0  0  0  0  2  0  0  0  0  0  0
  189.1550  177.5090  140.2520 C   0  0  0  0  0  3  0  0  0  0  0  0
  187.1850  176.2170  135.7010 C   0  0  0  0  0  2  0  0  0  0  0  0
  182.0880  178.4370  137.4210 C   0  0  1  0  0  3  0  0  0  0  0  0
  182.4470  178.7590  138.8760 C   0  0  0  0  0  2  0  0  0  0  0  0
  187.9250  178.1810  140.0950 C   0  0  0  0  0  0  0  0  0  0  0  0
  185.6780  177.8650  137.0610 C   0  0  1  0  0  3  0  0  0  0  0  0
  189.3050  175.5140  136.9750 C   0  0  0  0  0  2  0  0  0  0  0  0
  185.2190  178.5930  140.8040 C   0  0  1  0  0  3  0  0  0  0  0  0
  188.7720  174.5700  134.7400 C   0  0  0  0  0  1  0  0  0  0  0  0
  183.2450  178.2800  136.4220 C   0  0  0  0  0  2  0  0  0  0  0  0
  179.8600  177.6340  137.3060 O   0  0  0  0  0  0  0  0  0  0  0  0
  184.3100  177.2340  136.7680 C   0  0  2  0  0  3  0  0  0  0  0  0
  186.1520  179.6410  140.9280 O   0  0  0  0  0  0  0  0  0  0  0  0
  184.3800  179.0510  143.1190 C   0  0  0  0  0  3  0  0  0  0  0  0
  184.0960  178.6790  141.8010 C   0  0  0  0  0  0  0  0  0  0  0  0
  182.7820  178.3480  141.4410 C   0  0  0  0  0  3  0  0  0  0  0  0
  180.1210  177.9900  141.9400 Cl  0  0  0  0  0  0  0  0  0  0  0  0
  182.0480  178.7810  143.7080 C   0  0  0  0  0  3  0  0  0  0  0  0
  181.7590  178.4020  142.3930 C   0  0  0  0  0  0  0  0  0  0  0  0
  183.3580  179.1040  144.0700 C   0  0  0  0  0  3  0  0  0  0  0  0
  184.0810  173.4780  137.7080 O   0  0  0  0  0  1  0  0  0  0  0  0
  182.7610  173.9120  137.5890 C   0  0  0  0  0  2  0  0  0  0  0  0
  2 14  1  0  0  0  0
  2 22  1  0  0  0  0
  3 20  1  0  0  0  0
  4 12  1  0  0  0  0
  4 37  1  1  0  0  0
  4  1  1  0  0  0  0
  6 11  2  0  0  0  0
  7  3  1  1  0  0  0
  7 10  1  0  0  0  0
  8 18  1  0  0  0  0
  8 12  1  0  0  0  0
  9  6  1  0  0  0  0
  9  3  2  0  0  0  0
 10  5  1  6  0  0  0
 10 23  1  0  0  0  0
 11 16  1  0  0  0  0
 13  9  1  0  0  0  0
 17  2  1  0  0  0  0
 17 13  1  0  0  0  0
 18 25  1  6  0  0  0
 18 19  1  0  0  0  0
 19  5  1  0  0  0  0
 20 16  2  0  0  0  0
 20 15  1  0  0  0  0
 21 13  1  1  0  0  0
 21  7  1  0  0  0  0
 22  6  1  0  0  0  0
 23 28  1  0  0  0  0
 23 30  1  1  0  0  0
 24  2  1  0  0  0  0
 26  8  2  0  0  0  0
 27 25  1  1  0  0  0
 27 21  1  0  0  0  0
 27  1  1  0  0  0  0
 28 15  1  0  0  0  0
 29 35  1  0  0  0  0
 30 29  2  0  0  0  0
 31 30  1  0  0  0  0
 31 34  2  0  0  0  0
 32 34  1  0  0  0  0
 33 35  2  0  0  0  0
 34 33  1  0  0  0  0
 37 36  1  0  0  0  0
M  END
>  <MODEL>
5

>  <REMARK>
 VINA RESULT:      -5.5      2.893      5.939
  Name = 
  2 active torsions:
  status: ('A' for Active; 'I' for Inactive)
    1  A    between atoms: CA_4  and  C_37
    2  A    between atoms: C_23  and  C_30
                            x       y       z     vdW  Elec       q    Type
                         _______ _______ _______ _____ _____    ______ ____

>  <TORSDO>
F 2

$$$$
=
 OpenBabel11122411343D

 37 43  0  0  1  0  0  0  0  0999 V2000
  187.3350  176.6070  138.6840 C   0  0  0  0  0  2  0  0  0  0  0  0
  190.2210  177.3010  142.3540 C   0  0  0  0  0  0  0  0  0  0  0  0
  186.1900  178.3830  142.0120 C   0  0  0  0  0  0  0  0  0  0  0  0
  187.9610  175.9380  137.4730 C   0  0  2  0  0  3  0  0  0  0  0  0
  184.6500  178.9410  138.6920 C   0  0  0  0  0  2  0  0  0  0  0  0
  187.9720  177.7070  143.4890 C   0  0  0  0  0  0  0  0  0  0  0  0
  186.0250  178.8740  140.5990 C   0  0  2  0  0  3  0  0  0  0  0  0
  186.4750  177.2250  135.7990 C   0  0  0  0  0  0  0  0  0  0  0  0
  187.4930  178.0810  142.2440 C   0  0  0  0  0  0  0  0  0  0  0  0
  185.0380  178.0990  139.8210 N   0  0  1  0  0  0  0  0  0  0  0  0
  187.0540  177.6170  144.5480 C   0  0  0  0  0  3  0  0  0  0  0  0
  187.0970  176.0340  136.3010 N   0  0  0  0  0  2  0  0  0  0  0  0
  188.3010  178.2230  141.1100 N   0  0  0  0  0  0  0  0  0  0  0  0
  190.0390  175.8570  141.9140 C   0  0  0  0  0  1  0  0  0  0  0  0
  183.7550  178.4350  142.7810 C   0  0  0  0  0  2  0  0  0  0  0  0
  185.6850  177.8810  144.3160 C   0  0  0  0  0  3  0  0  0  0  0  0
  189.7570  178.2460  141.2250 C   0  0  0  0  0  2  0  0  0  0  0  0
  186.1290  178.3900  136.6770 C   0  0  1  0  0  3  0  0  0  0  0  0
  184.8110  178.1360  137.4150 C   0  0  0  0  0  2  0  0  0  0  0  0
  185.2370  178.2770  143.0390 C   0  0  0  0  0  0  0  0  0  0  0  0
  187.4930  178.8020  140.0400 C   0  0  1  0  0  3  0  0  0  0  0  0
  189.4560  177.5390  143.6790 C   0  0  0  0  0  2  0  0  0  0  0  0
  183.8430  177.7650  140.6320 C   0  0  1  0  0  3  0  0  0  0  0  0
  191.6950  177.5370  142.6020 C   0  0  0  0  0  1  0  0  0  0  0  0
  187.3140  178.9210  137.5000 C   0  0  0  0  0  2  0  0  0  0  0  0
  186.1110  177.2570  134.5940 O   0  0  0  0  0  0  0  0  0  0  0  0
  187.7370  178.0790  138.7090 C   0  0  2  0  0  3  0  0  0  0  0  0
  183.4550  178.8350  141.4630 O   0  0  0  0  0  0  0  0  0  0  0  0
  182.8270  175.8940  139.3130 C   0  0  0  0  0  3  0  0  0  0  0  0
  182.7010  177.1810  139.8470 C   0  0  0  0  0  0  0  0  0  0  0  0
  181.5350  177.9220  139.6040 C   0  0  0  0  0  3  0  0  0  0  0  0
  179.0480  178.3000  138.5420 Cl  0  0  0  0  0  0  0  0  0  0  0  0
  180.6290  176.0830  138.3160 C   0  0  0  0  0  3  0  0  0  0  0  0
  180.5010  177.3730  138.8420 C   0  0  0  0  0  0  0  0  0  0  0  0
  181.7920  175.3460  138.5510 C   0  0  0  0  0  3  0  0  0  0  0  0
  187.2180  173.6820  137.2400 O   0  0  0  0  0  1  0  0  0  0  0  0
  188.2340  174.4750  137.7720 C   0  0  0  0  0  2  0  0  0  0  0  0
  1 27  1  0  0  0  0
  2 24  1  0  0  0  0
  2 22  1  0  0  0  0
  3  9  2  0  0  0  0
  3 20  1  0  0  0  0
  4 37  1  1  0  0  0
  4  1  1  0  0  0  0
  6 22  1  0  0  0  0
  6 11  2  0  0  0  0
  7  3  1  1  0  0  0
  8 12  1  0  0  0  0
  8 18  1  0  0  0  0
  9  6  1  0  0  0  0
 10  5  1  6  0  0  0
 10  7  1  0  0  0  0
 10 23  1  0  0  0  0
 12  4  1  0  0  0  0
 13 17  1  0  0  0  0
 13  9  1  0  0  0  0
 14  2  1  0  0  0  0
 15 20  1  0  0  0  0
 16 11  1  0  0  0  0
 17  2  1  0  0  0  0
 18 19  1  1  0  0  0
 18 25  1  0  0  0  0
 19  5  1  0  0  0  0
 20 16  2  0  0  0  0
 21  7  1  0  0  0  0
 21 13  1  1  0  0  0
 23 30  1  6  0  0  0
 23 28  1  0  0  0  0
 26  8  2  0  0  0  0
 27 25  1  6  0  0  0
 27 21  1  0  0  0  0
 28 15  1  0  0  0  0
 29 30  1  0  0  0  0
 31 30  2  0  0  0  0
 32 34  1  0  0  0  0
 33 35  1  0  0  0  0
 33 34  2  0  0  0  0
 34 31  1  0  0  0  0
 35 29  2  0  0  0  0
 36 37  1  0  0  0  0
M  END
>  <MODEL>
6

>  <REMARK>
 VINA RESULT:      -5.4      1.895      2.122
  Name = 
  2 active torsions:
  status: ('A' for Active; 'I' for Inactive)
    1  A    between atoms: CA_4  and  C_37
    2  A    between atoms: C_23  and  C_30
                            x       y       z     vdW  Elec       q    Type
                         _______ _______ _______ _____ _____    ______ ____

>  <TORSDO>
F 2

$$$$
=
 OpenBabel11122411343D

 37 43  0  0  1  0  0  0  0  0999 V2000
  181.0510  176.9700  140.4590 C   0  0  0  0  0  2  0  0  0  0  0  0
  181.7240  176.2250  135.8470 C   0  0  0  0  0  0  0  0  0  0  0  0
  184.2560  178.2100  138.5270 C   0  0  0  0  0  0  0  0  0  0  0  0
  179.7400  176.4510  141.0230 C   0  0  2  0  0  3  0  0  0  0  0  0
  182.9120  179.7790  141.5990 C   0  0  0  0  0  2  0  0  0  0  0  0
  184.0980  176.8650  136.5330 C   0  0  0  0  0  0  0  0  0  0  0  0
  183.3470  179.0120  139.4190 C   0  0  2  0  0  3  0  0  0  0  0  0
  179.5530  178.3560  142.7570 C   0  0  0  0  0  0  0  0  0  0  0  0
  183.5260  177.5880  137.5670 C   0  0  0  0  0  0  0  0  0  0  0  0
  183.4610  178.6540  140.8460 N   0  0  1  0  0  0  0  0  0  0  0  0
  185.4970  176.7560  136.5000 C   0  0  0  0  0  3  0  0  0  0  0  0
  179.4860  176.9790  142.3600 N   0  0  0  0  0  2  0  0  0  0  0  0
  182.1470  177.7860  137.7090 N   0  0  0  0  0  0  0  0  0  0  0  0
  181.5270  174.9830  136.7000 C   0  0  0  0  0  1  0  0  0  0  0  0
  186.4910  178.6290  139.6900 C   0  0  0  0  0  2  0  0  0  0  0  0
  186.2720  177.3560  137.5180 C   0  0  0  0  0  3  0  0  0  0  0  0
  181.2270  177.4650  136.6210 C   0  0  0  0  0  2  0  0  0  0  0  0
  180.4300  179.3560  142.0660 C   0  0  1  0  0  3  0  0  0  0  0  0
  181.8730  179.2460  142.5710 C   0  0  0  0  0  2  0  0  0  0  0  0
  185.6560  178.1010  138.5450 C   0  0  0  0  0  0  0  0  0  0  0  0
  181.9300  178.7400  138.7930 C   0  0  1  0  0  3  0  0  0  0  0  0
  183.2120  176.3390  135.4340 C   0  0  0  0  0  2  0  0  0  0  0  0
  184.8710  178.4260  141.2420 C   0  0  1  0  0  3  0  0  0  0  0  0
  180.8890  176.0760  134.5940 C   0  0  0  0  0  1  0  0  0  0  0  0
  180.2120  179.4290  140.5470 C   0  0  0  0  0  2  0  0  0  0  0  0
  178.9310  178.7200  143.7890 O   0  0  0  0  0  0  0  0  0  0  0  0
  180.7950  178.2790  139.7170 C   0  0  2  0  0  3  0  0  0  0  0  0
  185.7430  179.3550  140.6400 O   0  0  0  0  0  0  0  0  0  0  0  0
  184.0510  178.6240  143.6000 C   0  0  0  0  0  3  0  0  0  0  0  0
  185.0880  178.2850  142.7230 C   0  0  0  0  0  0  0  0  0  0  0  0
  186.3230  177.8660  143.2390 C   0  0  0  0  0  3  0  0  0  0  0  0
  188.0550  177.2500  145.2580 Cl  0  0  0  0  0  0  0  0  0  0  0  0
  185.4710  178.1090  145.4920 C   0  0  0  0  0  3  0  0  0  0  0  0
  186.5130  177.7750  144.6200 C   0  0  0  0  0  0  0  0  0  0  0  0
  184.2420  178.5340  144.9820 C   0  0  0  0  0  3  0  0  0  0  0  0
  179.0010  174.4870  142.1610 O   0  0  0  0  0  1  0  0  0  0  0  0
  179.7650  174.9350  141.0830 C   0  0  0  0  0  2  0  0  0  0  0  0
  1  4  1  0  0  0  0
  2 17  1  0  0  0  0
  2 14  1  0  0  0  0
  3 20  1  0  0  0  0
  4 37  1  1  0  0  0
  4 12  1  0  0  0  0
  5 19  1  0  0  0  0
  6  9  1  0  0  0  0
  7  3  1  6  0  0  0
  7 10  1  0  0  0  0
  8 26  2  0  0  0  0
  9 13  1  0  0  0  0
  9  3  2  0  0  0  0
 10 23  1  0  0  0  0
 10  5  1  1  0  0  0
 11  6  2  0  0  0  0
 11 16  1  0  0  0  0
 12  8  1  0  0  0  0
 15 28  1  0  0  0  0
 16 20  2  0  0  0  0
 17 13  1  0  0  0  0
 18 25  1  6  0  0  0
 18 19  1  0  0  0  0
 18  8  1  0  0  0  0
 20 15  1  0  0  0  0
 21 13  1  6  0  0  0
 21  7  1  0  0  0  0
 21 27  1  0  0  0  0
 22  2  1  0  0  0  0
 22  6  1  0  0  0  0
 23 30  1  1  0  0  0
 24  2  1  0  0  0  0
 27  1  1  1  0  0  0
 27 25  1  0  0  0  0
 28 23  1  0  0  0  0
 29 35  1  0  0  0  0
 30 31  1  0  0  0  0
 30 29  2  0  0  0  0
 31 34  2  0  0  0  0
 34 32  1  0  0  0  0
 34 33  1  0  0  0  0
 35 33  2  0  0  0  0
 37 36  1  0  0  0  0
M  END
>  <MODEL>
7

>  <REMARK>
 VINA RESULT:      -5.3      3.696      8.533
  Name = 
  2 active torsions:
  status: ('A' for Active; 'I' for Inactive)
    1  A    between atoms: CA_4  and  C_37
    2  A    between atoms: C_23  and  C_30
                            x       y       z     vdW  Elec       q    Type
                         _______ _______ _______ _____ _____    ______ ____

>  <TORSDO>
F 2

$$$$
=
 OpenBabel11122411343D

 37 43  0  0  1  0  0  0  0  0999 V2000
  185.0590  174.6230  136.4860 C   0  0  0  0  0  2  0  0  0  0  0  0
  189.7750  174.6910  136.3190 C   0  0  0  0  0  0  0  0  0  0  0  0
  187.2250  177.4920  138.1040 C   0  0  0  0  0  0  0  0  0  0  0  0
  184.3930  173.4570  135.7760 C   0  0  2  0  0  3  0  0  0  0  0  0
  183.7350  177.8940  136.9380 C   0  0  0  0  0  2  0  0  0  0  0  0
  189.3830  176.4170  138.1570 C   0  0  0  0  0  0  0  0  0  0  0  0
  186.0610  177.6330  137.1600 C   0  0  2  0  0  3  0  0  0  0  0  0
  182.3270  174.8480  135.0970 C   0  0  0  0  0  0  0  0  0  0  0  0
  188.1520  176.6560  137.5690 C   0  0  0  0  0  0  0  0  0  0  0  0
  184.7650  177.2800  137.7710 N   0  0  1  0  0  0  0  0  0  0  0  0
  189.6650  177.0550  139.3750 C   0  0  0  0  0  3  0  0  0  0  0  0
  182.9580  173.6720  135.6220 N   0  0  0  0  0  2  0  0  0  0  0  0
  187.7490  176.0970  136.3490 N   0  0  0  0  0  0  0  0  0  0  0  0
  189.1500  173.4660  136.9670 C   0  0  0  0  0  1  0  0  0  0  0  0
  186.3900  178.9220  140.0470 C   0  0  0  0  0  2  0  0  0  0  0  0
  188.6950  177.8900  139.9730 C   0  0  0  0  0  3  0  0  0  0  0  0
  188.7110  175.4290  135.4780 C   0  0  0  0  0  2  0  0  0  0  0  0
  182.9520  176.2080  135.1770 C   0  0  1  0  0  3  0  0  0  0  0  0
  182.7230  176.8270  136.5600 C   0  0  0  0  0  2  0  0  0  0  0  0
  187.4600  178.1260  139.3350 C   0  0  0  0  0  0  0  0  0  0  0  0
  186.4850  176.7130  135.9570 C   0  0  1  0  0  3  0  0  0  0  0  0
  190.3990  175.5930  137.4120 C   0  0  0  0  0  2  0  0  0  0  0  0
  184.6580  177.7890  139.1590 C   0  0  1  0  0  3  0  0  0  0  0  0
  190.8790  174.2250  135.3940 C   0  0  0  0  0  1  0  0  0  0  0  0
  184.3750  176.2720  134.5970 C   0  0  0  0  0  2  0  0  0  0  0  0
  181.1560  174.7560  134.6420 O   0  0  0  0  0  0  0  0  0  0  0  0
  185.4900  175.6610  135.4520 C   0  0  2  0  0  3  0  0  0  0  0  0
  185.2100  179.0780  139.2900 O   0  0  0  0  0  0  0  0  0  0  0  0
  182.7460  178.7580  140.4560 C   0  0  0  0  0  3  0  0  0  0  0  0
  183.2850  177.6690  139.7620 C   0  0  0  0  0  0  0  0  0  0  0  0
  182.5610  176.4710  139.6800 C   0  0  0  0  0  3  0  0  0  0  0  0
  180.4000  174.8750  140.1710 Cl  0  0  0  0  0  0  0  0  0  0  0  0
  180.7640  177.4640  140.9640 C   0  0  0  0  0  3  0  0  0  0  0  0
  181.3010  176.3710  140.2780 C   0  0  0  0  0  0  0  0  0  0  0  0
  181.4870  178.6570  141.0530 C   0  0  0  0  0  3  0  0  0  0  0  0
  185.9620  172.0830  136.9380 O   0  0  0  0  0  1  0  0  0  0  0  0
  184.6240  172.1760  136.5560 C   0  0  0  0  0  2  0  0  0  0  0  0
  2 14  1  0  0  0  0
  2 22  1  0  0  0  0
  3 20  1  0  0  0  0
  4  1  1  0  0  0  0
  4 37  1  1  0  0  0
  6 11  2  0  0  0  0
  7 10  1  0  0  0  0
  7  3  1  1  0  0  0
  8 18  1  0  0  0  0
  8 12  1  0  0  0  0
  9  3  2  0  0  0  0
  9  6  1  0  0  0  0
 10  5  1  6  0  0  0
 10 23  1  0  0  0  0
 11 16  1  0  0  0  0
 12  4  1  0  0  0  0
 13  9  1  0  0  0  0
 17  2  1  0  0  0  0
 17 13  1  0  0  0  0
 18 25  1  1  0  0  0
 18 19  1  0  0  0  0
 19  5  1  0  0  0  0
 20 16  2  0  0  0  0
 20 15  1  0  0  0  0
 21 13  1  1  0  0  0
 21  7  1  0  0  0  0
 22  6  1  0  0  0  0
 23 28  1  0  0  0  0
 23 30  1  6  0  0  0
 24  2  1  0  0  0  0
 26  8  2  0  0  0  0
 27 25  1  1  0  0  0
 27 21  1  0  0  0  0
 27  1  1  0  0  0  0
 28 15  1  0  0  0  0
 29 35  1  0  0  0  0
 30 29  2  0  0  0  0
 31 30  1  0  0  0  0
 31 34  2  0  0  0  0
 32 34  1  0  0  0  0
 33 35  2  0  0  0  0
 34 33  1  0  0  0  0
 37 36  1  0  0  0  0
M  END
>  <MODEL>
8

>  <REMARK>
 VINA RESULT:      -5.3      2.923      5.289
  Name = 
  2 active torsions:
  status: ('A' for Active; 'I' for Inactive)
    1  A    between atoms: CA_4  and  C_37
    2  A    between atoms: C_23  and  C_30
                            x       y       z     vdW  Elec       q    Type
                         _______ _______ _______ _____ _____    ______ ____

>  <TORSDO>
F 2

$$$$
=
 OpenBabel11122411343D

 37 43  0  0  1  0  0  0  0  0999 V2000
  184.2180  177.0490  137.5220 C   0  0  0  0  0  2  0  0  0  0  0  0
  180.1100  177.8910  139.6890 C   0  0  0  0  0  0  0  0  0  0  0  0
  181.1520  174.5780  137.3500 C   0  0  0  0  0  0  0  0  0  0  0  0
  185.2730  178.1320  137.6700 C   0  0  2  0  0  3  0  0  0  0  0  0
  183.7980  174.8300  134.7740 C   0  0  0  0  0  2  0  0  0  0  0  0
  179.8370  175.4020  139.1950 C   0  0  0  0  0  0  0  0  0  0  0  0
  181.9570  175.1310  136.2060 C   0  0  2  0  0  3  0  0  0  0  0  0
  186.2710  177.6980  135.3280 C   0  0  0  0  0  0  0  0  0  0  0  0
  180.6990  175.5940  138.1280 C   0  0  0  0  0  0  0  0  0  0  0  0
  183.3260  174.5850  136.1340 N   0  0  1  0  0  0  0  0  0  0  0  0
  179.4390  174.0890  139.4930 C   0  0  0  0  0  3  0  0  0  0  0  0
  186.3790  177.9330  136.7390 N   0  0  0  0  0  2  0  0  0  0  0  0
  181.1600  176.8510  137.7150 N   0  0  0  0  0  0  0  0  0  0  0  0
  181.3390  177.8510  140.5830 C   0  0  0  0  0  1  0  0  0  0  0  0
  181.4190  172.0780  136.9040 C   0  0  0  0  0  2  0  0  0  0  0  0
  179.9390  173.0130  138.7260 C   0  0  0  0  0  3  0  0  0  0  0  0
  180.5490  178.0760  138.2200 C   0  0  0  0  0  2  0  0  0  0  0  0
  185.0710  177.0500  134.7050 C   0  0  1  0  0  3  0  0  0  0  0  0
  185.1450  175.5260  134.8500 C   0  0  0  0  0  2  0  0  0  0  0  0
  180.7990  173.2480  137.6340 C   0  0  0  0  0  0  0  0  0  0  0  0
  181.8890  176.6820  136.4610 C   0  0  1  0  0  3  0  0  0  0  0  0
  179.2720  176.6060  139.9020 C   0  0  0  0  0  2  0  0  0  0  0  0
  183.3500  173.1300  136.4190 C   0  0  1  0  0  3  0  0  0  0  0  0
  179.2700  179.0840  140.0930 C   0  0  0  0  0  1  0  0  0  0  0  0
  183.7410  177.7340  135.0600 C   0  0  0  0  0  2  0  0  0  0  0  0
  187.2620  177.9500  134.5940 O   0  0  0  0  0  0  0  0  0  0  0  0
  183.1990  177.4820  136.4710 C   0  0  2  0  0  3  0  0  0  0  0  0
  182.2550  172.4620  135.8360 O   0  0  0  0  0  0  0  0  0  0  0  0
  184.7000  171.3330  135.3130 C   0  0  0  0  0  3  0  0  0  0  0  0
  184.6680  172.4620  136.1390 C   0  0  0  0  0  0  0  0  0  0  0  0
  185.8530  172.9240  136.7300 C   0  0  0  0  0  3  0  0  0  0  0  0
  188.5380  172.8470  137.2210 Cl  0  0  0  0  0  0  0  0  0  0  0  0
  187.0900  171.1420  135.6520 C   0  0  0  0  0  3  0  0  0  0  0  0
  187.0620  172.2660  136.4840 C   0  0  0  0  0  0  0  0  0  0  0  0
  185.9090  170.6760  135.0680 C   0  0  0  0  0  3  0  0  0  0  0  0
  185.3160  179.2450  139.7810 O   0  0  0  0  0  1  0  0  0  0  0  0
  185.8110  178.1400  139.0890 C   0  0  0  0  0  2  0  0  0  0  0  0
  1  4  1  0  0  0  0
  2 22  1  0  0  0  0
  2 24  1  0  0  0  0
  2 14  1  0  0  0  0
  3 20  2  0  0  0  0
  3  9  1  0  0  0  0
  4 37  1  1  0  0  0
  5 19  1  0  0  0  0
  6 11  1  0  0  0  0
  6 22  1  0  0  0  0
  7 21  1  0  0  0  0
  7  3  1  1  0  0  0
  8 12  1  0  0  0  0
  9  6  2  0  0  0  0
 10  5  1  6  0  0  0
 10  7  1  0  0  0  0
 10 23  1  0  0  0  0
 12  4  1  0  0  0  0
 13  9  1  0  0  0  0
 13 17  1  0  0  0  0
 15 20  1  0  0  0  0
 16 11  2  0  0  0  0
 17  2  1  0  0  0  0
 18 19  1  1  0  0  0
 18 25  1  0  0  0  0
 18  8  1  0  0  0  0
 20 16  1  0  0  0  0
 21 27  1  0  0  0  0
 21 13  1  1  0  0  0
 23 30  1  6  0  0  0
 26  8  2  0  0  0  0
 27 25  1  6  0  0  0
 27  1  1  0  0  0  0
 28 23  1  0  0  0  0
 28 15  1  0  0  0  0
 29 30  1  0  0  0  0
 30 31  2  0  0  0  0
 33 34  2  0  0  0  0
 34 31  1  0  0  0  0
 34 32  1  0  0  0  0
 35 29  2  0  0  0  0
 35 33  1  0  0  0  0
 37 36  1  0  0  0  0
M  END
>  <MODEL>
9

>  <REMARK>
 VINA RESULT:      -5.1      3.821      7.409
  Name = 
  2 active torsions:
  status: ('A' for Active; 'I' for Inactive)
    1  A    between atoms: CA_4  and  C_37
    2  A    between atoms: C_23  and  C_30
                            x       y       z     vdW  Elec       q    Type
                         _______ _______ _______ _____ _____    ______ ____

>  <TORSDO>
F 2

$$$$
