=
 OpenBabel11122410263D

 30 35  0  0  1  0  0  0  0  0999 V2000
  186.6150  178.4400  142.8830 C   0  0  2  0  0  3  0  0  0  0  0  0
  187.5020  177.9240  145.2900 C   0  0  1  0  0  3  0  0  0  0  0  0
  182.8090  179.1060  144.4420 N   0  0  0  0  0  0  0  0  0  0  0  0
  185.3560  178.6090  142.0300 C   0  0  0  0  0  0  0  0  0  0  0  0
  187.4800  177.5300  142.2510 O   0  0  0  0  0  0  0  0  0  0  0  0
  187.2560  178.7560  138.8570 O   0  0  0  0  0  1  0  0  0  0  0  0
  183.4320  177.2390  140.2090 C   0  0  1  0  0  3  0  0  0  0  0  0
  186.8420  178.1020  140.0190 C   0  0  1  0  0  3  0  0  0  0  0  0
  182.4280  177.7360  141.2600 C   0  0  2  0  0  3  0  0  0  0  0  0
  182.0330  179.1940  143.2500 C   0  0  0  0  0  0  0  0  0  0  0  0
  187.9450  178.1600  141.0860 C   0  0  2  0  0  3  0  0  0  0  0  0
  185.5410  178.7430  140.5240 C   0  0  1  0  0  3  0  0  0  0  0  0
  187.1020  177.3780  146.5290 O   0  0  0  0  0  0  0  0  0  0  0  0
  181.1160  177.8980  140.5250 C   0  0  0  0  0  2  0  0  0  0  0  0
  182.6010  176.6110  139.1000 C   0  0  0  0  0  2  0  0  0  0  0  0
  188.6530  177.0890  144.7580 C   0  0  0  0  0  1  0  0  0  0  0  0
  184.0190  178.8620  144.0710 C   0  0  0  0  0  0  0  0  0  0  0  0
  186.2220  178.2910  147.1400 C   0  0  0  0  0  2  0  0  0  0  0  0
  186.2970  177.9480  144.3230 C   0  0  1  0  0  3  0  0  0  0  0  0
  184.1750  178.8280  142.6290 C   0  0  0  0  0  0  0  0  0  0  0  0
  180.7960  179.4320  143.2650 O   0  0  0  0  0  0  0  0  0  0  0  0
  182.8380  179.0170  141.9970 C   0  0  1  0  0  3  0  0  0  0  0  0
  181.1410  176.8260  139.4570 C   0  0  0  0  0  2  0  0  0  0  0  0
  183.6500  179.5260  139.0420 C   0  0  0  0  0  1  0  0  0  0  0  0
  184.9020  178.3390  146.3750 C   0  0  0  0  0  2  0  0  0  0  0  0
  185.2110  178.8250  144.9660 C   0  0  2  0  0  3  0  0  0  0  0  0
  184.3690  178.3150  139.6230 C   0  0  2  0  0  3  0  0  0  0  0  0
  189.1980  177.4390  140.6150 C   0  0  0  0  0  2  0  0  0  0  0  0
  190.4350  175.9510  141.9950 O   0  0  0  0  0  1  0  0  0  0  0  0
  190.1890  177.3020  141.7560 C   0  0  0  0  0  2  0  0  0  0  0  0
  1  4  1  6  0  0  0
  1 19  1  0  0  0  0
  2 16  1  6  0  0  0
  2 13  1  0  0  0  0
  4 20  2  0  0  0  0
  5  1  1  0  0  0  0
  7 15  1  6  0  0  0
  7  9  1  0  0  0  0
  8  6  1  6  0  0  0
  8 12  1  0  0  0  0
  8 11  1  0  0  0  0
  9 14  1  6  0  0  0
  9 22  1  0  0  0  0
 10 21  2  0  0  0  0
 10  3  1  0  0  0  0
 11 28  1  6  0  0  0
 11  5  1  0  0  0  0
 12  4  1  1  0  0  0
 13 18  1  0  0  0  0
 15 23  1  0  0  0  0
 17  3  2  0  0  0  0
 17 26  1  0  0  0  0
 19 26  1  0  0  0  0
 19  2  1  0  0  0  0
 20 17  1  0  0  0  0
 22 20  1  0  0  0  0
 22 10  1  0  0  0  0
 23 14  1  0  0  0  0
 24 27  1  0  0  0  0
 25 18  1  0  0  0  0
 26 25  1  0  0  0  0
 27  7  1  0  0  0  0
 27 12  1  0  0  0  0
 28 30  1  0  0  0  0
 30 29  1  0  0  0  0
M  END
>  <MODEL>
1

>  <REMARK>
 VINA RESULT:      -9.6      0.000      0.000
  Name = 
  2 active torsions:
  status: ('A' for Active; 'I' for Inactive)
    1  A    between atoms: C_11  and  C_28
    2  A    between atoms: C_28  and  C_30
                            x       y       z     vdW  Elec       q    Type
                         _______ _______ _______ _____ _____    ______ ____

>  <TORSDO>
F 2

$$$$
=
 OpenBabel11122410263D

 30 35  0  0  1  0  0  0  0  0999 V2000
  187.8780  178.0290  141.3480 C   0  0  2  0  0  3  0  0  0  0  0  0
  189.4390  177.1040  143.2320 C   0  0  1  0  0  3  0  0  0  0  0  0
  184.8060  178.4690  144.1280 N   0  0  0  0  0  0  0  0  0  0  0  0
  186.4280  178.3550  140.9800 C   0  0  0  0  0  0  0  0  0  0  0  0
  188.4380  177.2290  140.3380 O   0  0  0  0  0  0  0  0  0  0  0  0
  187.2410  179.0110  137.4310 O   0  0  0  0  0  1  0  0  0  0  0  0
  183.9440  177.3360  139.6820 C   0  0  1  0  0  3  0  0  0  0  0  0
  187.1710  178.1760  138.5470 C   0  0  1  0  0  3  0  0  0  0  0  0
  183.3560  177.6600  141.0640 C   0  0  2  0  0  3  0  0  0  0  0  0
  183.7020  178.7660  143.2770 C   0  0  0  0  0  0  0  0  0  0  0  0
  188.5550  178.0400  139.1990 C   0  0  2  0  0  3  0  0  0  0  0  0
  186.1390  178.7390  139.5350 C   0  0  1  0  0  3  0  0  0  0  0  0
  189.4140  176.3620  144.4330 O   0  0  0  0  0  0  0  0  0  0  0  0
  181.8930  177.9590  140.8220 C   0  0  0  0  0  2  0  0  0  0  0  0
  182.7680  176.9140  138.8140 C   0  0  0  0  0  2  0  0  0  0  0  0
  190.3080  176.3560  142.2360 C   0  0  0  0  0  1  0  0  0  0  0  0
  185.8190  178.2760  143.3560 C   0  0  0  0  0  0  0  0  0  0  0  0
  188.8320  177.1690  145.4280 C   0  0  0  0  0  2  0  0  0  0  0  0
  187.9960  177.3050  142.7180 C   0  0  1  0  0  3  0  0  0  0  0  0
  185.5120  178.4840  141.9530 C   0  0  0  0  0  0  0  0  0  0  0  0
  182.5510  179.0140  143.7240 O   0  0  0  0  0  0  0  0  0  0  0  0
  184.0590  178.7930  141.8200 C   0  0  1  0  0  3  0  0  0  0  0  0
  181.5110  177.0830  139.6500 C   0  0  0  0  0  2  0  0  0  0  0  0
  183.9350  179.7840  138.8790 C   0  0  0  0  0  1  0  0  0  0  0  0
  187.3440  177.3610  145.1440 C   0  0  0  0  0  2  0  0  0  0  0  0
  187.2270  178.0740  143.8040 C   0  0  2  0  0  3  0  0  0  0  0  0
  184.7190  178.4830  139.0030 C   0  0  2  0  0  3  0  0  0  0  0  0
  189.5460  177.3940  138.2450 C   0  0  0  0  0  2  0  0  0  0  0  0
  190.0250  175.0820  137.9660 O   0  0  0  0  0  1  0  0  0  0  0  0
  189.0320  176.0430  137.7840 C   0  0  0  0  0  2  0  0  0  0  0  0
  1  5  1  6  0  0  0
  1 19  1  0  0  0  0
  2 16  1  6  0  0  0
  2 13  1  0  0  0  0
  4  1  1  0  0  0  0
  4 20  2  0  0  0  0
  7 15  1  6  0  0  0
  7  9  1  0  0  0  0
  8  6  1  6  0  0  0
  8 11  1  0  0  0  0
  8 12  1  0  0  0  0
  9 14  1  6  0  0  0
  9 22  1  0  0  0  0
 10 21  2  0  0  0  0
 10  3  1  0  0  0  0
 11 28  1  6  0  0  0
 11  5  1  0  0  0  0
 12  4  1  1  0  0  0
 13 18  1  0  0  0  0
 15 23  1  0  0  0  0
 17 26  1  0  0  0  0
 17  3  2  0  0  0  0
 19  2  1  0  0  0  0
 19 26  1  0  0  0  0
 20 17  1  0  0  0  0
 22 20  1  0  0  0  0
 22 10  1  0  0  0  0
 23 14  1  0  0  0  0
 24 27  1  0  0  0  0
 25 18  1  0  0  0  0
 26 25  1  0  0  0  0
 27 12  1  0  0  0  0
 27  7  1  0  0  0  0
 30 29  1  0  0  0  0
 30 28  1  0  0  0  0
M  END
>  <MODEL>
2

>  <REMARK>
 VINA RESULT:      -8.6      1.599      2.198
  Name = 
  2 active torsions:
  status: ('A' for Active; 'I' for Inactive)
    1  A    between atoms: C_11  and  C_28
    2  A    between atoms: C_28  and  C_30
                            x       y       z     vdW  Elec       q    Type
                         _______ _______ _______ _____ _____    ______ ____

>  <TORSDO>
F 2

$$$$
=
 OpenBabel11122410263D

 30 35  0  0  1  0  0  0  0  0999 V2000
  187.5940  178.2050  141.7630 C   0  0  2  0  0  3  0  0  0  0  0  0
  186.8540  178.0780  144.2690 C   0  0  1  0  0  3  0  0  0  0  0  0
  183.7350  179.3570  140.6960 N   0  0  0  0  0  0  0  0  0  0  0  0
  187.0930  178.2900  140.3200 C   0  0  0  0  0  0  0  0  0  0  0  0
  188.5140  177.1480  141.8670 O   0  0  0  0  0  0  0  0  0  0  0  0
  190.4610  177.7570  138.8820 O   0  0  0  0  0  1  0  0  0  0  0  0
  186.3750  176.7300  137.8810 C   0  0  1  0  0  3  0  0  0  0  0  0
  189.3630  177.3470  139.6420 C   0  0  1  0  0  3  0  0  0  0  0  0
  185.0390  177.4640  138.0760 C   0  0  2  0  0  3  0  0  0  0  0  0
  183.8040  179.2750  139.2740 C   0  0  0  0  0  0  0  0  0  0  0  0
  189.6510  177.5310  141.1390 C   0  0  2  0  0  3  0  0  0  0  0  0
  188.1230  178.1420  139.2080 C   0  0  1  0  0  3  0  0  0  0  0  0
  185.7400  177.7870  145.0860 O   0  0  0  0  0  0  0  0  0  0  0  0
  184.4270  177.5670  136.6970 C   0  0  0  0  0  2  0  0  0  0  0  0
  186.2440  175.9620  136.5740 C   0  0  0  0  0  2  0  0  0  0  0  0
  187.9590  177.0960  144.6140 C   0  0  0  0  0  1  0  0  0  0  0  0
  184.8860  178.9820  141.1380 C   0  0  0  0  0  0  0  0  0  0  0  0
  184.8190  178.8440  144.9560 C   0  0  0  0  0  2  0  0  0  0  0  0
  186.4390  177.9970  142.7830 C   0  0  1  0  0  3  0  0  0  0  0  0
  185.8310  178.6810  140.0790 C   0  0  0  0  0  0  0  0  0  0  0  0
  182.8350  179.5840  138.5310 O   0  0  0  0  0  0  0  0  0  0  0  0
  185.1430  178.8300  138.7650 C   0  0  1  0  0  3  0  0  0  0  0  0
  184.8950  176.3220  135.9760 C   0  0  0  0  0  2  0  0  0  0  0  0
  187.5650  178.7540  136.8210 C   0  0  0  0  0  1  0  0  0  0  0  0
  184.2000  178.8290  143.5600 C   0  0  0  0  0  2  0  0  0  0  0  0
  185.3290  179.0360  142.5610 C   0  0  2  0  0  3  0  0  0  0  0  0
  187.6280  177.6270  137.8450 C   0  0  2  0  0  3  0  0  0  0  0  0
  190.8210  176.6660  141.5800 C   0  0  0  0  0  2  0  0  0  0  0  0
  191.7080  176.0620  143.7000 O   0  0  0  0  0  1  0  0  0  0  0  0
  191.3690  177.1560  142.9060 C   0  0  0  0  0  2  0  0  0  0  0  0
  1  4  1  6  0  0  0
  1  5  1  0  0  0  0
  1 19  1  0  0  0  0
  2 16  1  6  0  0  0
  2 13  1  0  0  0  0
  3 17  2  0  0  0  0
  7 15  1  6  0  0  0
  7  9  1  0  0  0  0
  8  6  1  6  0  0  0
  8 11  1  0  0  0  0
  9 14  1  6  0  0  0
  9 22  1  0  0  0  0
 10  3  1  0  0  0  0
 11 28  1  1  0  0  0
 11  5  1  0  0  0  0
 12  8  1  0  0  0  0
 12  4  1  1  0  0  0
 17 26  1  0  0  0  0
 18 13  1  0  0  0  0
 19  2  1  0  0  0  0
 20  4  2  0  0  0  0
 20 17  1  0  0  0  0
 21 10  2  0  0  0  0
 22 10  1  0  0  0  0
 22 20  1  0  0  0  0
 23 15  1  0  0  0  0
 23 14  1  0  0  0  0
 24 27  1  0  0  0  0
 25 18  1  0  0  0  0
 26 19  1  0  0  0  0
 26 25  1  0  0  0  0
 27  7  1  0  0  0  0
 27 12  1  0  0  0  0
 28 30  1  0  0  0  0
 30 29  1  0  0  0  0
M  END
>  <MODEL>
3

>  <REMARK>
 VINA RESULT:      -8.3      2.141      3.241
  Name = 
  2 active torsions:
  status: ('A' for Active; 'I' for Inactive)
    1  A    between atoms: C_11  and  C_28
    2  A    between atoms: C_28  and  C_30
                            x       y       z     vdW  Elec       q    Type
                         _______ _______ _______ _____ _____    ______ ____

>  <TORSDO>
F 2

$$$$
=
 OpenBabel11122410263D

 30 35  0  0  1  0  0  0  0  0999 V2000
  186.5430  177.8710  140.8580 C   0  0  2  0  0  3  0  0  0  0  0  0
  184.1490  178.8860  140.5600 C   0  0  1  0  0  3  0  0  0  0  0  0
  185.9230  177.6520  144.9720 N   0  0  0  0  0  0  0  0  0  0  0  0
  187.6400  177.5460  141.8740 C   0  0  0  0  0  0  0  0  0  0  0  0
  187.1030  178.5990  139.7950 O   0  0  0  0  0  0  0  0  0  0  0  0
  190.1070  176.6600  139.2630 O   0  0  0  0  0  1  0  0  0  0  0  0
  190.1420  178.5230  143.1710 C   0  0  1  0  0  3  0  0  0  0  0  0
  189.2540  177.5630  139.9000 C   0  0  1  0  0  3  0  0  0  0  0  0
  189.3080  178.2930  144.4410 C   0  0  2  0  0  3  0  0  0  0  0  0
  187.2310  177.3200  145.4320 C   0  0  0  0  0  0  0  0  0  0  0  0
  187.9500  177.7180  139.1050 C   0  0  2  0  0  3  0  0  0  0  0  0
  188.9840  177.0790  141.3310 C   0  0  1  0  0  3  0  0  0  0  0  0
  183.1980  179.7010  141.2110 O   0  0  0  0  0  0  0  0  0  0  0  0
  190.3080  178.0030  145.5370 C   0  0  0  0  0  2  0  0  0  0  0  0
  191.5340  178.9090  143.6480 C   0  0  0  0  0  2  0  0  0  0  0  0
  184.5250  179.5570  139.2510 C   0  0  0  0  0  1  0  0  0  0  0  0
  186.0100  177.7800  143.6920 C   0  0  0  0  0  0  0  0  0  0  0  0
  182.6610  178.9650  142.2840 C   0  0  0  0  0  2  0  0  0  0  0  0
  185.3700  178.6760  141.4840 C   0  0  1  0  0  3  0  0  0  0  0  0
  187.3360  177.4920  143.1810 C   0  0  0  0  0  0  0  0  0  0  0  0
  187.4890  177.1190  146.6480 O   0  0  0  0  0  0  0  0  0  0  0  0
  188.2410  177.1980  144.3290 C   0  0  1  0  0  3  0  0  0  0  0  0
  191.5310  178.8110  145.1640 C   0  0  0  0  0  2  0  0  0  0  0  0
  190.7100  176.0310  142.8500 C   0  0  0  0  0  1  0  0  0  0  0  0
  183.7160  178.7800  143.3720 C   0  0  0  0  0  2  0  0  0  0  0  0
  184.8630  177.9880  142.7620 C   0  0  2  0  0  3  0  0  0  0  0  0
  190.2260  177.3240  142.2050 C   0  0  2  0  0  3  0  0  0  0  0  0
  188.2180  178.2880  137.7210 C   0  0  0  0  0  2  0  0  0  0  0  0
  186.4790  176.7630  137.1760 O   0  0  0  0  0  1  0  0  0  0  0  0
  187.0710  177.9620  136.7840 C   0  0  0  0  0  2  0  0  0  0  0  0
  1  5  1  6  0  0  0
  1 19  1  0  0  0  0
  1  4  1  0  0  0  0
  2 16  1  6  0  0  0
  2 13  1  0  0  0  0
  2 19  1  0  0  0  0
  3 10  1  0  0  0  0
  4 20  2  0  0  0  0
  7 15  1  1  0  0  0
  7  9  1  0  0  0  0
  8  6  1  6  0  0  0
  8 12  1  0  0  0  0
  9 14  1  1  0  0  0
 10 21  2  0  0  0  0
 11 28  1  6  0  0  0
 11  5  1  0  0  0  0
 11  8  1  0  0  0  0
 12  4  1  1  0  0  0
 12 27  1  0  0  0  0
 13 18  1  0  0  0  0
 15 23  1  0  0  0  0
 17  3  2  0  0  0  0
 18 25  1  0  0  0  0
 19 26  1  0  0  0  0
 20 17  1  0  0  0  0
 20 22  1  0  0  0  0
 22  9  1  0  0  0  0
 22 10  1  0  0  0  0
 23 14  1  0  0  0  0
 26 25  1  0  0  0  0
 26 17  1  0  0  0  0
 27 24  1  0  0  0  0
 27  7  1  0  0  0  0
 30 29  1  0  0  0  0
 30 28  1  0  0  0  0
M  END
>  <MODEL>
4

>  <REMARK>
 VINA RESULT:      -7.8      1.850      6.044
  Name = 
  2 active torsions:
  status: ('A' for Active; 'I' for Inactive)
    1  A    between atoms: C_11  and  C_28
    2  A    between atoms: C_28  and  C_30
                            x       y       z     vdW  Elec       q    Type
                         _______ _______ _______ _____ _____    ______ ____

>  <TORSDO>
F 2

$$$$
=
 OpenBabel11122410263D

 30 35  0  0  1  0  0  0  0  0999 V2000
  188.4850  178.0170  141.6910 C   0  0  2  0  0  3  0  0  0  0  0  0
  186.7590  178.3190  143.6330 C   0  0  1  0  0  3  0  0  0  0  0  0
  185.4020  178.3750  138.9120 N   0  0  0  0  0  0  0  0  0  0  0  0
  188.6400  177.7270  140.1960 C   0  0  0  0  0  0  0  0  0  0  0  0
  189.3140  177.1430  142.4160 O   0  0  0  0  0  0  0  0  0  0  0  0
  192.3170  177.3740  140.4170 O   0  0  0  0  0  1  0  0  0  0  0  0
  189.0820  175.6050  138.1470 C   0  0  1  0  0  3  0  0  0  0  0  0
  191.0170  176.9850  140.7470 C   0  0  1  0  0  3  0  0  0  0  0  0
  187.7630  176.1720  137.6000 C   0  0  2  0  0  3  0  0  0  0  0  0
  186.0700  178.0060  137.7080 C   0  0  0  0  0  0  0  0  0  0  0  0
  190.6370  177.5180  142.1360 C   0  0  2  0  0  3  0  0  0  0  0  0
  190.0490  177.4920  139.6680 C   0  0  1  0  0  3  0  0  0  0  0  0
  185.4150  178.0550  143.9780 O   0  0  0  0  0  0  0  0  0  0  0  0
  187.7890  175.8970  136.1130 C   0  0  0  0  0  2  0  0  0  0  0  0
  189.5460  174.5690  137.1350 C   0  0  0  0  0  2  0  0  0  0  0  0
  187.6490  177.5940  144.6260 C   0  0  0  0  0  1  0  0  0  0  0  0
  186.2700  178.2630  139.8580 C   0  0  0  0  0  0  0  0  0  0  0  0
  184.5980  178.9240  143.2300 C   0  0  0  0  0  2  0  0  0  0  0  0
  187.0160  177.8710  142.1770 C   0  0  1  0  0  3  0  0  0  0  0  0
  187.5850  177.8800  139.3800 C   0  0  0  0  0  0  0  0  0  0  0  0
  185.4960  178.0140  136.5870 O   0  0  0  0  0  0  0  0  0  0  0  0
  187.5140  177.6530  137.9080 C   0  0  1  0  0  3  0  0  0  0  0  0
  188.5640  174.6050  135.9760 C   0  0  0  0  0  2  0  0  0  0  0  0
  190.5320  177.5060  137.1890 C   0  0  0  0  0  1  0  0  0  0  0  0
  184.6290  178.5300  141.7540 C   0  0  0  0  0  2  0  0  0  0  0  0
  186.0660  178.6770  141.2760 C   0  0  2  0  0  3  0  0  0  0  0  0
  190.1980  176.6390  138.3960 C   0  0  2  0  0  3  0  0  0  0  0  0
  191.5420  176.9360  143.2100 C   0  0  0  0  0  2  0  0  0  0  0  0
  191.4150  179.1850  143.9680 O   0  0  0  0  0  1  0  0  0  0  0  0
  191.6230  177.8760  144.3980 C   0  0  0  0  0  2  0  0  0  0  0  0
  1  4  1  6  0  0  0
  1 19  1  0  0  0  0
  1  5  1  0  0  0  0
  2 13  1  0  0  0  0
  2 16  1  1  0  0  0
  3 17  2  0  0  0  0
  7 15  1  6  0  0  0
  7 27  1  0  0  0  0
  8  6  1  6  0  0  0
  8 11  1  0  0  0  0
  9 14  1  6  0  0  0
  9 22  1  0  0  0  0
  9  7  1  0  0  0  0
 10 22  1  0  0  0  0
 10  3  1  0  0  0  0
 11  5  1  0  0  0  0
 11 28  1  1  0  0  0
 12  4  1  1  0  0  0
 12  8  1  0  0  0  0
 17 26  1  0  0  0  0
 18 13  1  0  0  0  0
 19  2  1  0  0  0  0
 20 17  1  0  0  0  0
 20  4  2  0  0  0  0
 21 10  2  0  0  0  0
 22 20  1  0  0  0  0
 23 14  1  0  0  0  0
 23 15  1  0  0  0  0
 24 27  1  0  0  0  0
 25 18  1  0  0  0  0
 26 25  1  0  0  0  0
 26 19  1  0  0  0  0
 27 12  1  0  0  0  0
 28 30  1  0  0  0  0
 29 30  1  0  0  0  0
M  END
>  <MODEL>
5

>  <REMARK>
 VINA RESULT:      -7.7      2.750      5.258
  Name = 
  2 active torsions:
  status: ('A' for Active; 'I' for Inactive)
    1  A    between atoms: C_11  and  C_28
    2  A    between atoms: C_28  and  C_30
                            x       y       z     vdW  Elec       q    Type
                         _______ _______ _______ _____ _____    ______ ____

>  <TORSDO>
F 2

$$$$
=
 OpenBabel11122410263D

 30 35  0  0  1  0  0  0  0  0999 V2000
  189.1390  177.5230  140.4440 C   0  0  2  0  0  3  0  0  0  0  0  0
  189.4980  177.0310  142.9890 C   0  0  1  0  0  3  0  0  0  0  0  0
  185.2840  178.8760  141.2620 N   0  0  0  0  0  0  0  0  0  0  0  0
  188.0930  177.8310  139.3710 C   0  0  0  0  0  0  0  0  0  0  0  0
  189.9370  176.4500  140.0120 O   0  0  0  0  0  0  0  0  0  0  0  0
  190.5110  177.4730  136.5920 O   0  0  0  0  0  1  0  0  0  0  0  0
  186.3130  176.6650  137.2810 C   0  0  1  0  0  3  0  0  0  0  0  0
  189.7990  176.9690  137.6830 C   0  0  1  0  0  3  0  0  0  0  0  0
  185.2380  177.3800  138.1150 C   0  0  2  0  0  3  0  0  0  0  0  0
  184.7520  179.0070  139.9460 C   0  0  0  0  0  0  0  0  0  0  0  0
  190.6950  176.9220  138.9290 C   0  0  2  0  0  3  0  0  0  0  0  0
  188.5550  177.8370  137.9190 C   0  0  1  0  0  3  0  0  0  0  0  0
  188.8040  176.6360  144.1530 O   0  0  0  0  0  0  0  0  0  0  0  0
  184.1190  177.6960  137.1480 C   0  0  0  0  0  2  0  0  0  0  0  0
  185.5950  176.1040  136.0630 C   0  0  0  0  0  2  0  0  0  0  0  0
  190.5690  175.9930  142.7050 C   0  0  0  0  0  1  0  0  0  0  0  0
  186.4830  178.4220  141.1250 C   0  0  0  0  0  0  0  0  0  0  0  0
  187.9960  177.7130  144.5620 C   0  0  0  0  0  2  0  0  0  0  0  0
  188.5000  177.1800  141.8190 C   0  0  1  0  0  3  0  0  0  0  0  0
  186.8780  178.2710  139.7380 C   0  0  0  0  0  0  0  0  0  0  0  0
  183.5880  179.4370  139.7280 O   0  0  0  0  0  0  0  0  0  0  0  0
  185.7210  178.6250  138.8670 C   0  0  1  0  0  3  0  0  0  0  0  0
  184.1500  176.5680  136.1420 C   0  0  0  0  0  2  0  0  0  0  0  0
  187.1060  178.8090  136.0930 C   0  0  0  0  0  1  0  0  0  0  0  0
  186.8540  177.9170  143.5680 C   0  0  0  0  0  2  0  0  0  0  0  0
  187.4790  178.2560  142.2230 C   0  0  2  0  0  3  0  0  0  0  0  0
  187.5020  177.5400  136.8370 C   0  0  2  0  0  3  0  0  0  0  0  0
  191.8740  175.9850  138.7190 C   0  0  0  0  0  2  0  0  0  0  0  0
  193.7980  176.7570  137.5570 O   0  0  0  0  0  1  0  0  0  0  0  0
  193.1800  176.7520  138.8050 C   0  0  0  0  0  2  0  0  0  0  0  0
  1  4  1  6  0  0  0
  1 19  1  0  0  0  0
  2 16  1  6  0  0  0
  2 13  1  0  0  0  0
  4 20  2  0  0  0  0
  5  1  1  0  0  0  0
  7 15  1  6  0  0  0
  7  9  1  0  0  0  0
  8  6  1  6  0  0  0
  8 12  1  0  0  0  0
  8 11  1  0  0  0  0
  9 14  1  6  0  0  0
  9 22  1  0  0  0  0
 10  3  1  0  0  0  0
 11 28  1  6  0  0  0
 11  5  1  0  0  0  0
 12  4  1  1  0  0  0
 13 18  1  0  0  0  0
 15 23  1  0  0  0  0
 17  3  2  0  0  0  0
 17 26  1  0  0  0  0
 19 26  1  0  0  0  0
 19  2  1  0  0  0  0
 20 17  1  0  0  0  0
 21 10  2  0  0  0  0
 22 20  1  0  0  0  0
 22 10  1  0  0  0  0
 23 14  1  0  0  0  0
 24 27  1  0  0  0  0
 25 18  1  0  0  0  0
 26 25  1  0  0  0  0
 27  7  1  0  0  0  0
 27 12  1  0  0  0  0
 28 30  1  0  0  0  0
 29 30  1  0  0  0  0
M  END
>  <MODEL>
6

>  <REMARK>
 VINA RESULT:      -7.3      2.807      3.995
  Name = 
  2 active torsions:
  status: ('A' for Active; 'I' for Inactive)
    1  A    between atoms: C_11  and  C_28
    2  A    between atoms: C_28  and  C_30
                            x       y       z     vdW  Elec       q    Type
                         _______ _______ _______ _____ _____    ______ ____

>  <TORSDO>
F 2

$$$$
=
 OpenBabel11122410263D

 30 35  0  0  1  0  0  0  0  0999 V2000
  188.3320  177.3360  142.5260 C   0  0  2  0  0  3  0  0  0  0  0  0
  187.0250  178.3930  140.5210 C   0  0  1  0  0  3  0  0  0  0  0  0
  185.0590  178.0280  145.0080 N   0  0  0  0  0  0  0  0  0  0  0  0
  188.3610  177.1750  144.0470 C   0  0  0  0  0  0  0  0  0  0  0  0
  189.5890  177.7900  142.0890 O   0  0  0  0  0  0  0  0  0  0  0  0
  191.7200  175.6220  144.0440 O   0  0  0  0  0  1  0  0  0  0  0  0
  189.4390  178.2660  146.6050 C   0  0  1  0  0  3  0  0  0  0  0  0
  190.8510  176.6850  143.7910 C   0  0  1  0  0  3  0  0  0  0  0  0
  187.9420  178.3570  146.9380 C   0  0  2  0  0  3  0  0  0  0  0  0
  185.6130  177.7300  146.2870 C   0  0  0  0  0  0  0  0  0  0  0  0
  190.4930  176.7380  142.2980 C   0  0  2  0  0  3  0  0  0  0  0  0
  189.5960  176.5300  144.6630 C   0  0  1  0  0  3  0  0  0  0  0  0
  186.0600  179.3780  140.2180 O   0  0  0  0  0  0  0  0  0  0  0  0
  187.8540  178.2510  148.4440 C   0  0  0  0  0  2  0  0  0  0  0  0
  190.1760  178.6680  147.8730 C   0  0  0  0  0  2  0  0  0  0  0  0
  188.3060  178.7500  139.7880 C   0  0  0  0  0  1  0  0  0  0  0  0
  186.0130  177.8770  144.1540 C   0  0  0  0  0  0  0  0  0  0  0  0
  184.8120  178.9170  140.6790 C   0  0  0  0  0  2  0  0  0  0  0  0
  187.2250  178.3180  142.0510 C   0  0  1  0  0  3  0  0  0  0  0  0
  187.2480  177.4150  144.7590 C   0  0  0  0  0  0  0  0  0  0  0  0
  184.9330  177.7780  147.3460 O   0  0  0  0  0  0  0  0  0  0  0  0
  187.0550  177.3230  146.2350 C   0  0  1  0  0  3  0  0  0  0  0  0
  189.1270  178.8940  148.9480 C   0  0  0  0  0  2  0  0  0  0  0  0
  189.5940  175.7360  147.0610 C   0  0  0  0  0  1  0  0  0  0  0  0
  184.7880  178.9090  142.2060 C   0  0  0  0  0  2  0  0  0  0  0  0
  185.8700  177.9450  142.6720 C   0  0  2  0  0  3  0  0  0  0  0  0
  189.9310  176.8870  146.1210 C   0  0  2  0  0  3  0  0  0  0  0  0
  191.7290  176.9870  141.4500 C   0  0  0  0  0  2  0  0  0  0  0  0
  190.5560  176.0030  139.6320 O   0  0  0  0  0  1  0  0  0  0  0  0
  191.3510  177.0920  139.9840 C   0  0  0  0  0  2  0  0  0  0  0  0
  1  5  1  1  0  0  0
  1  4  1  0  0  0  0
  2 16  1  6  0  0  0
  2 19  1  0  0  0  0
  3 10  1  0  0  0  0
  4 20  2  0  0  0  0
  5 11  1  0  0  0  0
  7  9  1  0  0  0  0
  7 15  1  1  0  0  0
  8  6  1  6  0  0  0
  8 12  1  0  0  0  0
  9 14  1  1  0  0  0
 10 21  2  0  0  0  0
 11 28  1  6  0  0  0
 11  8  1  0  0  0  0
 12  4  1  6  0  0  0
 12 27  1  0  0  0  0
 13  2  1  0  0  0  0
 13 18  1  0  0  0  0
 14 23  1  0  0  0  0
 15 23  1  0  0  0  0
 17 20  1  0  0  0  0
 17  3  2  0  0  0  0
 18 25  1  0  0  0  0
 19  1  1  0  0  0  0
 19 26  1  0  0  0  0
 20 22  1  0  0  0  0
 22 10  1  0  0  0  0
 22  9  1  0  0  0  0
 25 26  1  0  0  0  0
 26 17  1  0  0  0  0
 27  7  1  0  0  0  0
 27 24  1  0  0  0  0
 29 30  1  0  0  0  0
 30 28  1  0  0  0  0
M  END
>  <MODEL>
7

>  <REMARK>
 VINA RESULT:      -7.1      2.284      6.353
  Name = 
  2 active torsions:
  status: ('A' for Active; 'I' for Inactive)
    1  A    between atoms: C_11  and  C_28
    2  A    between atoms: C_28  and  C_30
                            x       y       z     vdW  Elec       q    Type
                         _______ _______ _______ _____ _____    ______ ____

>  <TORSDO>
F 2

$$$$
=
 OpenBabel11122410263D

 30 35  0  0  1  0  0  0  0  0999 V2000
  187.1580  177.9260  138.3100 C   0  0  2  0  0  3  0  0  0  0  0  0
  186.7900  176.9370  135.9160 C   0  0  1  0  0  3  0  0  0  0  0  0
  191.1880  176.8880  138.1040 N   0  0  0  0  0  0  0  0  0  0  0  0
  188.1210  177.9850  139.4990 C   0  0  0  0  0  0  0  0  0  0  0  0
  185.8790  177.5720  138.7730 O   0  0  0  0  0  0  0  0  0  0  0  0
  185.6810  179.7160  141.6760 O   0  0  0  0  0  1  0  0  0  0  0  0
  188.8330  176.7830  142.1340 C   0  0  1  0  0  3  0  0  0  0  0  0
  186.0930  178.6270  140.9070 C   0  0  1  0  0  3  0  0  0  0  0  0
  190.1830  176.5880  141.4280 C   0  0  2  0  0  3  0  0  0  0  0  0
  191.6050  177.1280  139.4470 C   0  0  0  0  0  0  0  0  0  0  0  0
  185.4110  178.6550  139.5310 C   0  0  2  0  0  3  0  0  0  0  0  0
  187.6230  178.6530  140.7740 C   0  0  1  0  0  3  0  0  0  0  0  0
  187.2510  175.9230  135.0490 O   0  0  0  0  0  0  0  0  0  0  0  0
  191.2200  176.5860  142.5300 C   0  0  0  0  0  2  0  0  0  0  0  0
  189.0430  176.3370  143.5730 C   0  0  0  0  0  2  0  0  0  0  0  0
  185.3110  176.7010  136.1700 C   0  0  0  0  0  1  0  0  0  0  0  0
  189.9260  177.1480  138.0640 C   0  0  0  0  0  0  0  0  0  0  0  0
  188.5400  176.2820  134.6100 C   0  0  0  0  0  2  0  0  0  0  0  0
  187.6190  176.9190  137.2200 C   0  0  1  0  0  3  0  0  0  0  0  0
  189.4060  177.6360  139.3270 C   0  0  0  0  0  0  0  0  0  0  0  0
  192.7970  176.9720  139.8220 O   0  0  0  0  0  0  0  0  0  0  0  0
  190.5020  177.6170  140.3380 C   0  0  1  0  0  3  0  0  0  0  0  0
  190.5120  175.9810  143.7220 C   0  0  0  0  0  2  0  0  0  0  0  0
  189.2210  179.2820  142.6260 C   0  0  0  0  0  1  0  0  0  0  0  0
  189.5330  176.1850  135.7670 C   0  0  0  0  0  2  0  0  0  0  0  0
  189.0850  177.1740  136.8330 C   0  0  2  0  0  3  0  0  0  0  0  0
  188.2660  178.2170  142.1020 C   0  0  2  0  0  3  0  0  0  0  0  0
  183.9020  178.5330  139.6690 C   0  0  0  0  0  2  0  0  0  0  0  0
  184.1810  180.6950  138.7220 O   0  0  0  0  0  1  0  0  0  0  0  0
  183.2180  179.7550  139.0850 C   0  0  0  0  0  2  0  0  0  0  0  0
  1  5  1  1  0  0  0
  1  4  1  0  0  0  0
  2 16  1  1  0  0  0
  2 19  1  0  0  0  0
  3 10  1  0  0  0  0
  5 11  1  0  0  0  0
  7 15  1  1  0  0  0
  8  6  1  1  0  0  0
  9  7  1  0  0  0  0
  9 14  1  1  0  0  0
 10 21  2  0  0  0  0
 10 22  1  0  0  0  0
 11 28  1  1  0  0  0
 11  8  1  0  0  0  0
 12  4  1  6  0  0  0
 12  8  1  0  0  0  0
 12 27  1  0  0  0  0
 13  2  1  0  0  0  0
 14 23  1  0  0  0  0
 15 23  1  0  0  0  0
 17  3  2  0  0  0  0
 17 20  1  0  0  0  0
 18 13  1  0  0  0  0
 18 25  1  0  0  0  0
 19  1  1  0  0  0  0
 20  4  2  0  0  0  0
 20 22  1  0  0  0  0
 22  9  1  0  0  0  0
 25 26  1  0  0  0  0
 26 19  1  0  0  0  0
 26 17  1  0  0  0  0
 27  7  1  0  0  0  0
 27 24  1  0  0  0  0
 29 30  1  0  0  0  0
 30 28  1  0  0  0  0
M  END
>  <MODEL>
8

>  <REMARK>
 VINA RESULT:      -7.0      3.527      8.149
  Name = 
  2 active torsions:
  status: ('A' for Active; 'I' for Inactive)
    1  A    between atoms: C_11  and  C_28
    2  A    between atoms: C_28  and  C_30
                            x       y       z     vdW  Elec       q    Type
                         _______ _______ _______ _____ _____    ______ ____

>  <TORSDO>
F 2

$$$$
=
 OpenBabel11122410263D

 30 35  0  0  1  0  0  0  0  0999 V2000
  183.3140  178.3520  140.0360 C   0  0  2  0  0  3  0  0  0  0  0  0
  182.9450  177.3300  137.6560 C   0  0  1  0  0  3  0  0  0  0  0  0
  187.4320  178.3100  139.4010 N   0  0  0  0  0  0  0  0  0  0  0  0
  184.3530  178.6250  141.1260 C   0  0  0  0  0  0  0  0  0  0  0  0
  182.2110  177.6960  140.6090 O   0  0  0  0  0  0  0  0  0  0  0  0
  181.8110  179.6980  143.5920 O   0  0  0  0  0  1  0  0  0  0  0  0
  185.5980  177.5990  143.6350 C   0  0  1  0  0  3  0  0  0  0  0  0
  182.3880  178.7480  142.7480 C   0  0  1  0  0  3  0  0  0  0  0  0
  186.8760  177.7410  142.7940 C   0  0  2  0  0  3  0  0  0  0  0  0
  187.9160  178.6280  140.7030 C   0  0  0  0  0  0  0  0  0  0  0  0
  181.5800  178.6280  141.4480 C   0  0  2  0  0  3  0  0  0  0  0  0
  183.8460  179.1400  142.4670 C   0  0  1  0  0  3  0  0  0  0  0  0
  183.5410  176.4660  136.7120 O   0  0  0  0  0  0  0  0  0  0  0  0
  187.9920  177.9750  143.7880 C   0  0  0  0  0  2  0  0  0  0  0  0
  186.0550  177.2000  145.0300 C   0  0  0  0  0  2  0  0  0  0  0  0
  181.5990  176.7450  138.0440 C   0  0  0  0  0  1  0  0  0  0  0  0
  186.1470  178.2620  139.4930 C   0  0  0  0  0  0  0  0  0  0  0  0
  184.6550  177.1280  136.1630 C   0  0  0  0  0  2  0  0  0  0  0  0
  183.8850  177.4960  138.8710 C   0  0  1  0  0  3  0  0  0  0  0  0
  185.6590  178.5960  140.8170 C   0  0  0  0  0  0  0  0  0  0  0  0
  189.1440  178.7570  140.9540 O   0  0  0  0  0  0  0  0  0  0  0  0
  186.8280  178.8290  141.7150 C   0  0  1  0  0  3  0  0  0  0  0  0
  187.5740  177.2050  145.0210 C   0  0  0  0  0  2  0  0  0  0  0  0
  185.4330  180.1130  144.1750 C   0  0  0  0  0  1  0  0  0  0  0  0
  185.7570  177.2580  137.2120 C   0  0  0  0  0  2  0  0  0  0  0  0
  185.2010  178.0990  138.3520 C   0  0  2  0  0  3  0  0  0  0  0  0
  184.7080  178.8560  143.7090 C   0  0  2  0  0  3  0  0  0  0  0  0
  180.1650  178.1470  141.7270 C   0  0  0  0  0  2  0  0  0  0  0  0
  179.8220  180.3330  140.8600 O   0  0  0  0  0  1  0  0  0  0  0  0
  179.1550  179.1750  141.2540 C   0  0  0  0  0  2  0  0  0  0  0  0
  1  5  1  1  0  0  0
  1  4  1  0  0  0  0
  2 16  1  1  0  0  0
  2 19  1  0  0  0  0
  3 17  2  0  0  0  0
  3 10  1  0  0  0  0
  5 11  1  0  0  0  0
  7 27  1  0  0  0  0
  7 15  1  1  0  0  0
  8  6  1  1  0  0  0
  9  7  1  0  0  0  0
  9 14  1  1  0  0  0
 10 21  2  0  0  0  0
 10 22  1  0  0  0  0
 11 28  1  1  0  0  0
 11  8  1  0  0  0  0
 12  4  1  6  0  0  0
 12  8  1  0  0  0  0
 12 27  1  0  0  0  0
 13  2  1  0  0  0  0
 14 23  1  0  0  0  0
 17 20  1  0  0  0  0
 18 13  1  0  0  0  0
 18 25  1  0  0  0  0
 19  1  1  0  0  0  0
 20  4  2  0  0  0  0
 20 22  1  0  0  0  0
 22  9  1  0  0  0  0
 23 15  1  0  0  0  0
 25 26  1  0  0  0  0
 26 19  1  0  0  0  0
 26 17  1  0  0  0  0
 27 24  1  0  0  0  0
 29 30  1  0  0  0  0
 30 28  1  0  0  0  0
M  END
>  <MODEL>
9

>  <REMARK>
 VINA RESULT:      -6.8      2.269      7.237
  Name = 
  2 active torsions:
  status: ('A' for Active; 'I' for Inactive)
    1  A    between atoms: C_11  and  C_28
    2  A    between atoms: C_28  and  C_30
                            x       y       z     vdW  Elec       q    Type
                         _______ _______ _______ _____ _____    ______ ____

>  <TORSDO>
F 2

$$$$
