=
 OpenBabel11122411113D

 31 35  0  0  1  0  0  0  0  0999 V2000
  190.0280  176.0250  142.7820 C   0  0  0  0  0  0  0  0  0  0  0  0
  186.5910  177.1100  144.0070 C   0  0  2  0  0  3  0  0  0  0  0  0
  186.8280  177.8060  145.3380 C   0  0  0  0  0  0  0  0  0  0  0  0
  188.1540  178.0890  147.3590 C   0  0  0  0  0  0  0  0  0  0  0  0
  187.8350  177.0070  143.1500 C   0  0  0  0  0  0  0  0  0  0  0  0
  190.1980  176.8160  141.6440 C   0  0  0  0  0  3  0  0  0  0  0  0
  187.9680  177.5120  146.1010 C   0  0  0  0  0  3  0  0  0  0  0  0
  185.8320  178.9870  142.4710 C   0  0  2  0  0  3  0  0  0  0  0  0
  191.0070  175.1700  143.1630 F   0  0  0  0  0  0  0  0  0  0  0  0
  184.6080  179.0040  145.1140 C   0  0  0  0  0  2  0  0  0  0  0  0
  189.3750  177.7780  148.1460 C   0  0  0  0  0  1  0  0  0  0  0  0
  186.8980  178.6430  141.4350 C   0  0  0  0  0  2  0  0  0  0  0  0
  185.4080  177.7210  143.2310 C   0  0  2  0  0  3  0  0  0  0  0  0
  188.8520  176.1180  143.5270 C   0  0  0  0  0  3  0  0  0  0  0  0
  187.1890  178.9540  147.8790 C   0  0  0  0  0  3  0  0  0  0  0  0
  188.0070  177.7980  141.9910 C   0  0  0  0  0  0  0  0  0  0  0  0
  189.1850  177.6900  141.2450 C   0  0  0  0  0  3  0  0  0  0  0  0
  184.2730  177.9680  144.1320 N   0  0  0  0  0  2  0  0  0  0  0  0
  185.8390  178.6500  145.8890 C   0  0  0  0  0  0  0  0  0  0  0  0
  186.0350  179.2340  147.1440 C   0  0  0  0  0  3  0  0  0  0  0  0
  183.9380  177.5720  140.8800 O   0  0  0  0  0  0  0  0  0  0  0  0
  183.7640  178.8130  141.0260 C   0  0  0  0  0  0  0  0  0  0  0  0
  184.6830  179.5820  141.8040 N   0  0  0  0  0  2  0  0  0  0  0  0
  181.4350  178.0770  138.1210 N   0  0  0  0  0  0  0  0  0  0  0  0
  181.3160  178.6820  140.4970 C   0  0  0  0  0  2  0  0  0  0  0  0
  184.1120  180.5080  138.7690 O   0  0  0  0  0  1  0  0  0  0  0  0
  181.4070  176.9400  137.2200 C   0  0  0  0  0  1  0  0  0  0  0  0
  181.3000  177.5420  139.4750 C   0  0  0  0  0  2  0  0  0  0  0  0
  182.8640  179.8980  138.9110 C   0  0  2  0  0  3  0  0  0  0  0  0
  182.6020  179.5050  140.3750 C   0  0  2  0  0  3  0  0  0  0  0  0
  182.7590  178.6830  137.9910 C   0  0  0  0  0  2  0  0  0  0  0  0
  1  9  1  0  0  0  0
  1 14  1  0  0  0  0
  2  5  1  6  0  0  0
  2  3  1  0  0  0  0
  3 19  2  0  0  0  0
  3  7  1  0  0  0  0
  4 15  1  0  0  0  0
  4 11  1  0  0  0  0
  5 14  2  0  0  0  0
  6  1  2  0  0  0  0
  7  4  2  0  0  0  0
  8 23  1  6  0  0  0
  8 13  1  0  0  0  0
 10 19  1  0  0  0  0
 12 16  1  0  0  0  0
 12  8  1  0  0  0  0
 13  2  1  0  0  0  0
 13 18  1  1  0  0  0
 16  5  1  0  0  0  0
 17  6  1  0  0  0  0
 17 16  2  0  0  0  0
 18 10  1  0  0  0  0
 19 20  1  0  0  0  0
 20 15  2  0  0  0  0
 21 22  2  0  0  0  0
 22 23  1  0  0  0  0
 24 28  1  0  0  0  0
 27 24  1  0  0  0  0
 28 25  1  0  0  0  0
 29 26  1  1  0  0  0
 29 30  1  0  0  0  0
 30 25  1  0  0  0  0
 30 22  1  6  0  0  0
 31 24  1  0  0  0  0
 31 29  1  0  0  0  0
M  END
>  <MODEL>
1

>  <REMARK>
 VINA RESULT:     -10.2      0.000      0.000
  Name = 
  2 active torsions:
  status: ('A' for Active; 'I' for Inactive)
    1  A    between atoms: C_5  and  C_30
    2  A    between atoms: C_10  and  N_16
                            x       y       z     vdW  Elec       q    Type
                         _______ _______ _______ _____ _____    ______ ____

>  <TORSDO>
F 2

$$$$
=
 OpenBabel11122411113D

 31 35  0  0  1  0  0  0  0  0999 V2000
  191.3470  176.5300  144.7280 C   0  0  0  0  0  0  0  0  0  0  0  0
  187.6880  176.9690  143.7760 C   0  0  2  0  0  3  0  0  0  0  0  0
  187.0590  177.7660  144.9070 C   0  0  0  0  0  0  0  0  0  0  0  0
  187.0120  178.4150  147.2520 C   0  0  0  0  0  0  0  0  0  0  0  0
  189.1980  177.0710  143.7300 C   0  0  0  0  0  0  0  0  0  0  0  0
  191.9980  177.2790  143.7450 C   0  0  0  0  0  3  0  0  0  0  0  0
  187.6250  177.7470  146.1910 C   0  0  0  0  0  3  0  0  0  0  0  0
  187.6370  178.5720  141.8060 C   0  0  2  0  0  3  0  0  0  0  0  0
  192.0670  175.9100  145.6930 F   0  0  0  0  0  0  0  0  0  0  0  0
  185.1810  178.4820  143.3680 C   0  0  0  0  0  2  0  0  0  0  0  0
  187.6340  178.3960  148.6010 C   0  0  0  0  0  1  0  0  0  0  0  0
  189.1310  178.3950  141.5530 C   0  0  0  0  0  2  0  0  0  0  0  0
  187.0480  177.2890  142.4100 C   0  0  2  0  0  3  0  0  0  0  0  0
  189.9560  176.4250  144.7170 C   0  0  0  0  0  3  0  0  0  0  0  0
  185.8100  179.0950  147.0470 C   0  0  0  0  0  3  0  0  0  0  0  0
  189.8620  177.8190  142.7310 C   0  0  0  0  0  0  0  0  0  0  0  0
  191.2570  177.9100  142.7440 C   0  0  0  0  0  3  0  0  0  0  0  0
  185.5850  177.3500  142.5280 N   0  0  0  0  0  2  0  0  0  0  0  0
  185.8230  178.4230  144.7190 C   0  0  0  0  0  0  0  0  0  0  0  0
  185.2190  179.1000  145.7820 C   0  0  0  0  0  3  0  0  0  0  0  0
  188.1420  177.3030  139.3040 O   0  0  0  0  0  0  0  0  0  0  0  0
  187.2630  178.2070  139.3310 C   0  0  0  0  0  0  0  0  0  0  0  0
  186.9680  178.8890  140.5510 N   0  0  0  0  0  2  0  0  0  0  0  0
  186.7500  176.6910  135.8890 N   0  0  0  0  0  0  0  0  0  0  0  0
  185.4190  177.5860  137.7480 C   0  0  0  0  0  2  0  0  0  0  0  0
  188.5430  179.6110  137.2130 O   0  0  0  0  0  1  0  0  0  0  0  0
  187.2670  175.4530  135.3360 C   0  0  0  0  0  1  0  0  0  0  0  0
  186.0060  176.3320  137.0960 C   0  0  0  0  0  2  0  0  0  0  0  0
  187.4430  178.8210  136.8710 C   0  0  2  0  0  3  0  0  0  0  0  0
  186.5230  178.5940  138.0830 C   0  0  2  0  0  3  0  0  0  0  0  0
  187.9090  177.4920  136.2800 C   0  0  0  0  0  2  0  0  0  0  0  0
  1  9  1  0  0  0  0
  2  5  1  6  0  0  0
  2  3  1  0  0  0  0
  3  7  1  0  0  0  0
  4 11  1  0  0  0  0
  5 14  2  0  0  0  0
  6  1  2  0  0  0  0
  7  4  2  0  0  0  0
  8 23  1  6  0  0  0
  8 13  1  0  0  0  0
 10 19  1  0  0  0  0
 12  8  1  0  0  0  0
 12 16  1  0  0  0  0
 13 18  1  1  0  0  0
 13  2  1  0  0  0  0
 14  1  1  0  0  0  0
 15  4  1  0  0  0  0
 16 17  2  0  0  0  0
 16  5  1  0  0  0  0
 17  6  1  0  0  0  0
 18 10  1  0  0  0  0
 19  3  2  0  0  0  0
 19 20  1  0  0  0  0
 20 15  2  0  0  0  0
 21 22  2  0  0  0  0
 22 23  1  0  0  0  0
 24 31  1  0  0  0  0
 24 28  1  0  0  0  0
 25 30  1  0  0  0  0
 27 24  1  0  0  0  0
 28 25  1  0  0  0  0
 29 26  1  1  0  0  0
 29 30  1  0  0  0  0
 30 22  1  1  0  0  0
 31 29  1  0  0  0  0
M  END
>  <MODEL>
2

>  <REMARK>
 VINA RESULT:      -9.6      2.865      3.341
  Name = 
  2 active torsions:
  status: ('A' for Active; 'I' for Inactive)
    1  A    between atoms: C_5  and  C_30
    2  A    between atoms: C_10  and  N_16
                            x       y       z     vdW  Elec       q    Type
                         _______ _______ _______ _____ _____    ______ ____

>  <TORSDO>
F 2

$$$$
=
 OpenBabel11122411113D

 31 35  0  0  1  0  0  0  0  0999 V2000
  189.2080  177.7000  143.7210 C   0  0  0  0  0  0  0  0  0  0  0  0
  186.9210  178.9090  140.9280 C   0  0  2  0  0  3  0  0  0  0  0  0
  187.2800  178.0750  139.7100 C   0  0  0  0  0  0  0  0  0  0  0  0
  188.9130  176.7840  138.4480 C   0  0  0  0  0  0  0  0  0  0  0  0
  187.3790  178.2980  142.2360 C   0  0  0  0  0  0  0  0  0  0  0  0
  188.3030  177.1190  144.6100 C   0  0  0  0  0  3  0  0  0  0  0  0
  188.5490  177.4880  139.5980 C   0  0  0  0  0  3  0  0  0  0  0  0
  184.5760  178.1330  141.5230 C   0  0  2  0  0  3  0  0  0  0  0  0
  190.5330  177.6890  144.0000 F   0  0  0  0  0  0  0  0  0  0  0  0
  185.0240  178.5920  138.6820 C   0  0  0  0  0  2  0  0  0  0  0  0
  190.2560  176.1560  138.3550 C   0  0  0  0  0  1  0  0  0  0  0  0
  184.9800  177.8400  142.9640 C   0  0  0  0  0  2  0  0  0  0  0  0
  185.4260  179.2820  140.9610 C   0  0  2  0  0  3  0  0  0  0  0  0
  188.7470  178.2890  142.5420 C   0  0  0  0  0  3  0  0  0  0  0  0
  188.0150  176.6750  137.3850 C   0  0  0  0  0  3  0  0  0  0  0  0
  186.4650  177.7180  143.1450 C   0  0  0  0  0  0  0  0  0  0  0  0
  186.9360  177.1390  144.3280 C   0  0  0  0  0  3  0  0  0  0  0  0
  184.9720  179.7100  139.6300 N   0  0  0  0  0  2  0  0  0  0  0  0
  186.3940  177.9930  138.6130 C   0  0  0  0  0  0  0  0  0  0  0  0
  186.7580  177.2770  137.4690 C   0  0  0  0  0  3  0  0  0  0  0  0
  182.5730  176.7220  140.0650 O   0  0  0  0  0  0  0  0  0  0  0  0
  182.2080  177.7280  140.7330 C   0  0  0  0  0  0  0  0  0  0  0  0
  183.1630  178.4840  141.4790 N   0  0  0  0  0  2  0  0  0  0  0  0
  179.1790  177.1680  138.5140 N   0  0  0  0  0  0  0  0  0  0  0  0
  179.8240  176.9580  140.8740 C   0  0  0  0  0  2  0  0  0  0  0  0
  181.3280  180.0360  139.3220 O   0  0  0  0  0  1  0  0  0  0  0  0
  179.0600  176.4110  137.2830 C   0  0  0  0  0  1  0  0  0  0  0  0
  179.6720  176.2390  139.5310 C   0  0  0  0  0  2  0  0  0  0  0  0
  180.3800  179.0340  139.5420 C   0  0  2  0  0  3  0  0  0  0  0  0
  180.7690  178.1570  140.7450 C   0  0  2  0  0  3  0  0  0  0  0  0
  180.2010  178.1870  138.2830 C   0  0  0  0  0  2  0  0  0  0  0  0
  1  9  1  0  0  0  0
  1  6  1  0  0  0  0
  2  3  1  6  0  0  0
  2 13  1  0  0  0  0
  2  5  1  0  0  0  0
  4  7  2  0  0  0  0
  5 14  1  0  0  0  0
  5 16  2  0  0  0  0
  7  3  1  0  0  0  0
  8 23  1  1  0  0  0
  8 12  1  0  0  0  0
 10 18  1  0  0  0  0
 11  4  1  0  0  0  0
 12 16  1  0  0  0  0
 13 18  1  6  0  0  0
 13  8  1  0  0  0  0
 14  1  2  0  0  0  0
 15 20  2  0  0  0  0
 15  4  1  0  0  0  0
 16 17  1  0  0  0  0
 17  6  2  0  0  0  0
 19 10  1  0  0  0  0
 19  3  2  0  0  0  0
 20 19  1  0  0  0  0
 21 22  2  0  0  0  0
 22 23  1  0  0  0  0
 24 28  1  0  0  0  0
 27 24  1  0  0  0  0
 28 25  1  0  0  0  0
 29 26  1  6  0  0  0
 29 30  1  0  0  0  0
 30 22  1  6  0  0  0
 30 25  1  0  0  0  0
 31 24  1  0  0  0  0
 31 29  1  0  0  0  0
M  END
>  <MODEL>
3

>  <REMARK>
 VINA RESULT:      -8.7      2.186      4.853
  Name = 
  2 active torsions:
  status: ('A' for Active; 'I' for Inactive)
    1  A    between atoms: C_5  and  C_30
    2  A    between atoms: C_10  and  N_16
                            x       y       z     vdW  Elec       q    Type
                         _______ _______ _______ _____ _____    ______ ____

>  <TORSDO>
F 2

$$$$
=
 OpenBabel11122411113D

 31 35  0  0  1  0  0  0  0  0999 V2000
  188.8160  177.8590  143.9470 C   0  0  0  0  0  0  0  0  0  0  0  0
  186.7660  179.0010  140.9490 C   0  0  2  0  0  3  0  0  0  0  0  0
  187.2220  178.1380  139.7840 C   0  0  0  0  0  0  0  0  0  0  0  0
  188.9520  176.8190  138.6910 C   0  0  0  0  0  0  0  0  0  0  0  0
  187.1150  178.4210  142.3040 C   0  0  0  0  0  0  0  0  0  0  0  0
  187.8400  177.2980  144.7730 C   0  0  0  0  0  3  0  0  0  0  0  0
  188.4960  177.5500  139.7900 C   0  0  0  0  0  3  0  0  0  0  0  0
  184.3790  178.2360  141.3680 C   0  0  2  0  0  3  0  0  0  0  0  0
  190.1140  177.8560  144.3330 F   0  0  0  0  0  0  0  0  0  0  0  0
  185.0590  178.6290  138.5630 C   0  0  0  0  0  2  0  0  0  0  0  0
  190.2980  176.1910  138.7220 C   0  0  0  0  0  1  0  0  0  0  0  0
  184.6640  177.9770  142.8440 C   0  0  0  0  0  2  0  0  0  0  0  0
  185.2730  179.3730  140.8500 C   0  0  2  0  0  3  0  0  0  0  0  0
  188.4530  178.4200  142.7210 C   0  0  0  0  0  3  0  0  0  0  0  0
  188.1440  176.6850  137.5600 C   0  0  0  0  0  3  0  0  0  0  0  0
  186.1290  177.8610  143.1490 C   0  0  0  0  0  0  0  0  0  0  0  0
  186.5010  177.3100  144.3790 C   0  0  0  0  0  3  0  0  0  0  0  0
  184.9310  179.7690  139.4770 N   0  0  0  0  0  2  0  0  0  0  0  0
  186.4290  178.0300  138.6200 C   0  0  0  0  0  0  0  0  0  0  0  0
  186.8850  177.2880  137.5270 C   0  0  0  0  0  3  0  0  0  0  0  0
  182.4840  176.7490  139.8440 O   0  0  0  0  0  0  0  0  0  0  0  0
  182.0740  177.7900  140.4280 C   0  0  0  0  0  0  0  0  0  0  0  0
  182.9750  178.5850  141.2000 N   0  0  0  0  0  2  0  0  0  0  0  0
  179.3490  178.8760  142.8360 N   0  0  0  0  0  0  0  0  0  0  0  0
  180.4430  179.6620  140.7840 C   0  0  0  0  0  2  0  0  0  0  0  0
  179.9350  175.9370  140.7120 O   0  0  0  0  0  1  0  0  0  0  0  0
  179.3850  179.0030  144.2810 C   0  0  0  0  0  1  0  0  0  0  0  0
  180.4110  179.7330  142.3130 C   0  0  0  0  0  2  0  0  0  0  0  0
  179.6560  177.2710  141.0170 C   0  0  2  0  0  3  0  0  0  0  0  0
  180.6400  178.2190  140.3100 C   0  0  2  0  0  3  0  0  0  0  0  0
  179.6800  177.4860  142.5290 C   0  0  0  0  0  2  0  0  0  0  0  0
  1  9  1  0  0  0  0
  1  6  1  0  0  0  0
  2  3  1  6  0  0  0
  2  5  1  0  0  0  0
  3  7  1  0  0  0  0
  4 11  1  0  0  0  0
  4  7  2  0  0  0  0
  5 14  1  0  0  0  0
  5 16  2  0  0  0  0
  8 23  1  1  0  0  0
  8 12  1  0  0  0  0
 10 19  1  0  0  0  0
 10 18  1  0  0  0  0
 12 16  1  0  0  0  0
 13 18  1  6  0  0  0
 13  2  1  0  0  0  0
 13  8  1  0  0  0  0
 14  1  2  0  0  0  0
 15  4  1  0  0  0  0
 16 17  1  0  0  0  0
 17  6  2  0  0  0  0
 19  3  2  0  0  0  0
 20 15  2  0  0  0  0
 20 19  1  0  0  0  0
 21 22  2  0  0  0  0
 22 23  1  0  0  0  0
 24 27  1  0  0  0  0
 25 28  1  0  0  0  0
 28 24  1  0  0  0  0
 29 26  1  1  0  0  0
 29 31  1  0  0  0  0
 30 22  1  1  0  0  0
 30 25  1  0  0  0  0
 30 29  1  0  0  0  0
 31 24  1  0  0  0  0
M  END
>  <MODEL>
4

>  <REMARK>
 VINA RESULT:      -8.6      2.470      5.333
  Name = 
  2 active torsions:
  status: ('A' for Active; 'I' for Inactive)
    1  A    between atoms: C_5  and  C_30
    2  A    between atoms: C_10  and  N_16
                            x       y       z     vdW  Elec       q    Type
                         _______ _______ _______ _____ _____    ______ ____

>  <TORSDO>
F 2

$$$$
=
 OpenBabel11122411113D

 31 35  0  0  1  0  0  0  0  0999 V2000
  190.4560  176.8960  145.9010 C   0  0  0  0  0  0  0  0  0  0  0  0
  187.7490  177.2030  143.2420 C   0  0  2  0  0  3  0  0  0  0  0  0
  186.6350  178.0180  143.8800 C   0  0  0  0  0  0  0  0  0  0  0  0
  185.4230  178.7380  145.8640 C   0  0  0  0  0  0  0  0  0  0  0  0
  189.0810  177.3470  143.9480 C   0  0  0  0  0  0  0  0  0  0  0  0
  191.5020  177.6320  145.3410 C   0  0  0  0  0  3  0  0  0  0  0  0
  186.4880  178.0550  145.2750 C   0  0  0  0  0  3  0  0  0  0  0  0
  188.6690  178.7430  141.4430 C   0  0  2  0  0  3  0  0  0  0  0  0
  190.6060  176.3260  147.1200 F   0  0  0  0  0  0  0  0  0  0  0  0
  185.7620  178.6340  141.5840 C   0  0  0  0  0  2  0  0  0  0  0  0
  185.2930  178.7780  147.3430 C   0  0  0  0  0  1  0  0  0  0  0  0
  190.0920  178.5990  141.9720 C   0  0  0  0  0  2  0  0  0  0  0  0
  187.8690  177.4640  141.7280 C   0  0  2  0  0  3  0  0  0  0  0  0
  189.2540  176.7530  145.2060 C   0  0  0  0  0  3  0  0  0  0  0  0
  184.4760  179.3780  145.0620 C   0  0  0  0  0  3  0  0  0  0  0  0
  190.1470  178.0810  143.3790 C   0  0  0  0  0  0  0  0  0  0  0  0
  191.3510  178.2110  144.0800 C   0  0  0  0  0  3  0  0  0  0  0  0
  186.5390  177.4880  141.1020 N   0  0  0  0  0  2  0  0  0  0  0  0
  185.6500  178.6340  143.0770 C   0  0  0  0  0  0  0  0  0  0  0  0
  184.5920  179.3270  143.6720 C   0  0  0  0  0  3  0  0  0  0  0  0
  189.9280  177.0770  139.5030 O   0  0  0  0  0  0  0  0  0  0  0  0
  189.3510  178.1200  139.0890 C   0  0  0  0  0  0  0  0  0  0  0  0
  188.7090  179.0030  140.0100 N   0  0  0  0  0  2  0  0  0  0  0  0
  187.5040  176.8770  136.0150 N   0  0  0  0  0  0  0  0  0  0  0  0
  187.9750  178.9860  137.1790 C   0  0  0  0  0  2  0  0  0  0  0  0
  190.9710  176.7140  137.2200 O   0  0  0  0  0  1  0  0  0  0  0  0
  186.5110  175.8270  135.8920 C   0  0  0  0  0  1  0  0  0  0  0  0
  186.9840  177.8350  136.9890 C   0  0  0  0  0  2  0  0  0  0  0  0
  189.8050  177.3030  136.7250 C   0  0  2  0  0  3  0  0  0  0  0  0
  189.3420  178.4610  137.6260 C   0  0  2  0  0  3  0  0  0  0  0  0
  188.7050  176.2550  136.5710 C   0  0  0  0  0  2  0  0  0  0  0  0
  1  9  1  0  0  0  0
  2  3  1  1  0  0  0
  2  5  1  0  0  0  0
  3  7  1  0  0  0  0
  4 11  1  0  0  0  0
  5 14  1  0  0  0  0
  6  1  1  0  0  0  0
  7  4  2  0  0  0  0
  8 23  1  6  0  0  0
  8 13  1  0  0  0  0
  8 12  1  0  0  0  0
 10 19  1  0  0  0  0
 12 16  1  0  0  0  0
 13 18  1  1  0  0  0
 13  2  1  0  0  0  0
 14  1  2  0  0  0  0
 15  4  1  0  0  0  0
 16  5  2  0  0  0  0
 16 17  1  0  0  0  0
 17  6  2  0  0  0  0
 18 10  1  0  0  0  0
 19 20  1  0  0  0  0
 19  3  2  0  0  0  0
 20 15  2  0  0  0  0
 22 21  2  0  0  0  0
 22 23  1  0  0  0  0
 24 31  1  0  0  0  0
 24 28  1  0  0  0  0
 25 30  1  0  0  0  0
 27 24  1  0  0  0  0
 28 25  1  0  0  0  0
 29 26  1  1  0  0  0
 29 30  1  0  0  0  0
 30 22  1  1  0  0  0
 31 29  1  0  0  0  0
M  END
>  <MODEL>
5

>  <REMARK>
 VINA RESULT:      -8.4      3.427      4.680
  Name = 
  2 active torsions:
  status: ('A' for Active; 'I' for Inactive)
    1  A    between atoms: C_5  and  C_30
    2  A    between atoms: C_10  and  N_16
                            x       y       z     vdW  Elec       q    Type
                         _______ _______ _______ _____ _____    ______ ____

>  <TORSDO>
F 2

$$$$
=
 OpenBabel11122411113D

 31 35  0  0  1  0  0  0  0  0999 V2000
  179.9860  178.9170  143.5250 C   0  0  0  0  0  0  0  0  0  0  0  0
  183.3090  179.3290  141.7140 C   0  0  2  0  0  3  0  0  0  0  0  0
  184.3650  178.7810  142.6600 C   0  0  0  0  0  0  0  0  0  0  0  0
  185.1240  178.3110  144.9240 C   0  0  0  0  0  0  0  0  0  0  0  0
  181.9070  178.8570  142.0360 C   0  0  0  0  0  0  0  0  0  0  0  0
  179.3340  177.9730  142.7300 C   0  0  0  0  0  3  0  0  0  0  0  0
  184.1310  178.7410  144.0430 C   0  0  0  0  0  3  0  0  0  0  0  0
  183.2990  177.6660  139.7920 C   0  0  2  0  0  3  0  0  0  0  0  0
  179.3800  179.4020  144.6350 F   0  0  0  0  0  0  0  0  0  0  0  0
  185.9490  178.4520  140.7110 C   0  0  0  0  0  2  0  0  0  0  0  0
  184.8510  178.2610  146.3840 C   0  0  0  0  0  1  0  0  0  0  0  0
  181.7930  177.4570  139.9090 C   0  0  0  0  0  2  0  0  0  0  0  0
  183.6700  179.0900  140.2340 C   0  0  2  0  0  3  0  0  0  0  0  0
  181.2640  179.3580  143.1770 C   0  0  0  0  0  3  0  0  0  0  0  0
  186.3750  177.9340  144.4340 C   0  0  0  0  0  3  0  0  0  0  0  0
  181.2380  177.9090  141.2280 C   0  0  0  0  0  0  0  0  0  0  0  0
  179.9540  177.4800  141.5800 C   0  0  0  0  0  3  0  0  0  0  0  0
  185.0870  179.3960  139.9940 N   0  0  0  0  0  2  0  0  0  0  0  0
  185.6470  178.4360  142.1780 C   0  0  0  0  0  0  0  0  0  0  0  0
  186.6350  177.9950  143.0630 C   0  0  0  0  0  3  0  0  0  0  0  0
  183.4680  175.1250  138.5110 O   0  0  0  0  0  0  0  0  0  0  0  0
  183.7680  176.1430  137.8290 C   0  0  0  0  0  0  0  0  0  0  0  0
  183.7130  177.4450  138.4130 N   0  0  0  0  0  2  0  0  0  0  0  0
  185.0170  173.3170  135.6230 N   0  0  0  0  0  0  0  0  0  0  0  0
  183.2830  175.0550  135.6210 C   0  0  0  0  0  2  0  0  0  0  0  0
  186.5020  176.3490  137.0720 O   0  0  0  0  0  1  0  0  0  0  0  0
  185.2470  171.9220  135.9460 C   0  0  0  0  0  1  0  0  0  0  0  0
  183.6160  173.5950  135.9370 C   0  0  0  0  0  2  0  0  0  0  0  0
  185.6750  175.5900  136.2410 C   0  0  2  0  0  3  0  0  0  0  0  0
  184.2010  176.0030  136.3980 C   0  0  2  0  0  3  0  0  0  0  0  0
  185.8590  174.1010  136.5260 C   0  0  0  0  0  2  0  0  0  0  0  0
  1  9  1  0  0  0  0
  2  5  1  1  0  0  0
  2  3  1  0  0  0  0
  3  7  1  0  0  0  0
  4 11  1  0  0  0  0
  5 14  2  0  0  0  0
  6  1  2  0  0  0  0
  7  4  2  0  0  0  0
  8 23  1  6  0  0  0
  8 12  1  0  0  0  0
  8 13  1  0  0  0  0
 10 19  1  0  0  0  0
 12 16  1  0  0  0  0
 13 18  1  1  0  0  0
 13  2  1  0  0  0  0
 14  1  1  0  0  0  0
 15  4  1  0  0  0  0
 16 17  2  0  0  0  0
 16  5  1  0  0  0  0
 17  6  1  0  0  0  0
 18 10  1  0  0  0  0
 19  3  2  0  0  0  0
 19 20  1  0  0  0  0
 20 15  2  0  0  0  0
 22 23  1  0  0  0  0
 22 21  2  0  0  0  0
 24 28  1  0  0  0  0
 24 27  1  0  0  0  0
 24 31  1  0  0  0  0
 25 28  1  0  0  0  0
 25 30  1  0  0  0  0
 29 30  1  0  0  0  0
 29 31  1  0  0  0  0
 29 26  1  1  0  0  0
 30 22  1  1  0  0  0
M  END
>  <MODEL>
6

>  <REMARK>
 VINA RESULT:      -8.4      3.709      6.203
  Name = 
  2 active torsions:
  status: ('A' for Active; 'I' for Inactive)
    1  A    between atoms: C_5  and  C_30
    2  A    between atoms: C_10  and  N_16
                            x       y       z     vdW  Elec       q    Type
                         _______ _______ _______ _____ _____    ______ ____

>  <TORSDO>
F 2

$$$$
=
 OpenBabel11122411113D

 31 35  0  0  1  0  0  0  0  0999 V2000
  184.9260  178.6280  139.2790 C   0  0  0  0  0  0  0  0  0  0  0  0
  188.6890  178.3020  139.7560 C   0  0  2  0  0  3  0  0  0  0  0  0
  188.8750  177.5030  141.0360 C   0  0  0  0  0  0  0  0  0  0  0  0
  188.0670  176.8180  143.2270 C   0  0  0  0  0  0  0  0  0  0  0  0
  187.3080  178.1600  139.1510 C   0  0  0  0  0  0  0  0  0  0  0  0
  184.7110  177.8790  138.1210 C   0  0  0  0  0  3  0  0  0  0  0  0
  187.8720  177.4860  142.0170 C   0  0  0  0  0  3  0  0  0  0  0  0
  189.5180  176.7320  137.9390 C   0  0  2  0  0  3  0  0  0  0  0  0
  183.8810  179.2140  139.9100 F   0  0  0  0  0  0  0  0  0  0  0  0
  191.2130  176.8610  140.3030 C   0  0  0  0  0  2  0  0  0  0  0  0
  186.9870  176.7980  144.2470 C   0  0  0  0  0  1  0  0  0  0  0  0
  188.2210  176.8740  137.1490 C   0  0  0  0  0  2  0  0  0  0  0  0
  189.8000  178.0200  138.7260 C   0  0  2  0  0  3  0  0  0  0  0  0
  186.2180  178.7700  139.7880 C   0  0  0  0  0  3  0  0  0  0  0  0
  189.2790  176.1730  143.4800 C   0  0  0  0  0  3  0  0  0  0  0  0
  187.0870  177.4110  137.9720 C   0  0  0  0  0  0  0  0  0  0  0  0
  185.7900  177.2830  137.4650 C   0  0  0  0  0  3  0  0  0  0  0  0
  191.1160  177.9960  139.3800 N   0  0  0  0  0  2  0  0  0  0  0  0
  190.1120  176.8820  141.3180 C   0  0  0  0  0  0  0  0  0  0  0  0
  190.2970  176.2040  142.5260 C   0  0  0  0  0  3  0  0  0  0  0  0
  191.1320  174.3820  137.9680 O   0  0  0  0  0  0  0  0  0  0  0  0
  191.3810  175.2480  137.0860 C   0  0  0  0  0  0  0  0  0  0  0  0
  190.6150  176.4520  137.0220 N   0  0  0  0  0  2  0  0  0  0  0  0
  194.5530  173.1680  136.9580 N   0  0  0  0  0  0  0  0  0  0  0  0
  192.5450  173.5870  135.6100 C   0  0  0  0  0  2  0  0  0  0  0  0
  193.7920  176.7530  137.2120 O   0  0  0  0  0  1  0  0  0  0  0  0
  195.1070  172.2610  137.9460 C   0  0  0  0  0  1  0  0  0  0  0  0
  193.2070  172.6850  136.6540 C   0  0  0  0  0  2  0  0  0  0  0  0
  193.8680  175.4910  136.6180 C   0  0  2  0  0  3  0  0  0  0  0  0
  192.4920  175.0380  136.0980 C   0  0  2  0  0  3  0  0  0  0  0  0
  194.4420  174.4750  137.6030 C   0  0  0  0  0  2  0  0  0  0  0  0
  1 14  1  0  0  0  0
  1  9  1  0  0  0  0
  2  5  1  6  0  0  0
  2  3  1  0  0  0  0
  3 19  2  0  0  0  0
  3  7  1  0  0  0  0
  4 15  1  0  0  0  0
  4 11  1  0  0  0  0
  5 14  2  0  0  0  0
  6  1  2  0  0  0  0
  7  4  2  0  0  0  0
  8 23  1  6  0  0  0
  8 13  1  0  0  0  0
 10 19  1  0  0  0  0
 12  8  1  0  0  0  0
 12 16  1  0  0  0  0
 13 18  1  1  0  0  0
 13  2  1  0  0  0  0
 16  5  1  0  0  0  0
 17 16  2  0  0  0  0
 17  6  1  0  0  0  0
 18 10  1  0  0  0  0
 19 20  1  0  0  0  0
 20 15  2  0  0  0  0
 22 21  2  0  0  0  0
 23 22  1  0  0  0  0
 24 31  1  0  0  0  0
 24 27  1  0  0  0  0
 25 30  1  0  0  0  0
 25 28  1  0  0  0  0
 28 24  1  0  0  0  0
 29 26  1  1  0  0  0
 29 31  1  0  0  0  0
 30 29  1  0  0  0  0
 30 22  1  1  0  0  0
M  END
>  <MODEL>
7

>  <REMARK>
 VINA RESULT:      -8.3      5.480      8.524
  Name = 
  2 active torsions:
  status: ('A' for Active; 'I' for Inactive)
    1  A    between atoms: C_5  and  C_30
    2  A    between atoms: C_10  and  N_16
                            x       y       z     vdW  Elec       q    Type
                         _______ _______ _______ _____ _____    ______ ____

>  <TORSDO>
F 2

$$$$
=
 OpenBabel11122411113D

 31 35  0  0  1  0  0  0  0  0999 V2000
  179.7290  178.4450  142.1470 C   0  0  0  0  0  0  0  0  0  0  0  0
  183.1830  179.1750  140.7230 C   0  0  2  0  0  3  0  0  0  0  0  0
  184.1670  178.8270  141.8280 C   0  0  0  0  0  0  0  0  0  0  0  0
  184.6790  178.5960  144.1960 C   0  0  0  0  0  0  0  0  0  0  0  0
  181.8180  178.5450  140.9090 C   0  0  0  0  0  0  0  0  0  0  0  0
  179.3040  177.3780  141.3530 C   0  0  0  0  0  3  0  0  0  0  0  0
  183.7620  178.8390  143.1710 C   0  0  0  0  0  3  0  0  0  0  0  0
  183.6230  177.4130  138.9460 C   0  0  2  0  0  3  0  0  0  0  0  0
  178.9310  178.9120  143.1360 F   0  0  0  0  0  0  0  0  0  0  0  0
  186.0170  178.5890  140.1150 C   0  0  0  0  0  2  0  0  0  0  0  0
  184.2280  178.5980  145.6120 C   0  0  0  0  0  1  0  0  0  0  0  0
  182.1510  177.0180  138.8960 C   0  0  0  0  0  2  0  0  0  0  0  0
  183.7580  178.8970  139.3200 C   0  0  2  0  0  3  0  0  0  0  0  0
  180.9780  179.0260  141.9220 C   0  0  0  0  0  3  0  0  0  0  0  0
  186.0190  178.3550  143.8900 C   0  0  0  0  0  3  0  0  0  0  0  0
  181.3790  177.4720  140.1010 C   0  0  0  0  0  0  0  0  0  0  0  0
  180.1220  176.9020  140.3270 C   0  0  0  0  0  3  0  0  0  0  0  0
  185.1470  179.3690  139.2300 N   0  0  0  0  0  2  0  0  0  0  0  0
  185.5330  178.6220  141.5310 C   0  0  0  0  0  0  0  0  0  0  0  0
  186.4440  178.3670  142.5600 C   0  0  0  0  0  3  0  0  0  0  0  0
  184.3130  174.8470  137.9140 O   0  0  0  0  0  0  0  0  0  0  0  0
  184.5490  175.8500  137.1860 C   0  0  0  0  0  0  0  0  0  0  0  0
  184.2350  177.1650  137.6470 N   0  0  0  0  0  2  0  0  0  0  0  0
  187.4520  173.8690  135.7520 N   0  0  0  0  0  0  0  0  0  0  0  0
  185.0610  174.2390  135.3330 C   0  0  0  0  0  2  0  0  0  0  0  0
  186.7700  177.4260  136.3640 O   0  0  0  0  0  1  0  0  0  0  0  0
  188.3780  172.9700  136.4150 C   0  0  0  0  0  1  0  0  0  0  0  0
  186.1090  173.3470  136.0040 C   0  0  0  0  0  2  0  0  0  0  0  0
  186.6310  176.1730  135.7640 C   0  0  2  0  0  3  0  0  0  0  0  0
  185.1740  175.6830  135.8310 C   0  0  2  0  0  3  0  0  0  0  0  0
  187.5780  175.1660  136.4150 C   0  0  0  0  0  2  0  0  0  0  0  0
  1  9  1  0  0  0  0
  2  5  1  1  0  0  0
  2  3  1  0  0  0  0
  3  7  1  0  0  0  0
  4 11  1  0  0  0  0
  5 14  2  0  0  0  0
  6  1  2  0  0  0  0
  7  4  2  0  0  0  0
  8 23  1  6  0  0  0
  8 13  1  0  0  0  0
 10 19  1  0  0  0  0
 12  8  1  0  0  0  0
 12 16  1  0  0  0  0
 13 18  1  1  0  0  0
 13  2  1  0  0  0  0
 14  1  1  0  0  0  0
 15  4  1  0  0  0  0
 16 17  2  0  0  0  0
 16  5  1  0  0  0  0
 17  6  1  0  0  0  0
 18 10  1  0  0  0  0
 19  3  2  0  0  0  0
 19 20  1  0  0  0  0
 20 15  2  0  0  0  0
 22 23  1  0  0  0  0
 22 21  2  0  0  0  0
 24 28  1  0  0  0  0
 24 31  1  0  0  0  0
 24 27  1  0  0  0  0
 25 30  1  0  0  0  0
 25 28  1  0  0  0  0
 29 30  1  0  0  0  0
 29 26  1  1  0  0  0
 29 31  1  0  0  0  0
 30 22  1  1  0  0  0
M  END
>  <MODEL>
8

>  <REMARK>
 VINA RESULT:      -7.9      4.031      6.709
  Name = 
  2 active torsions:
  status: ('A' for Active; 'I' for Inactive)
    1  A    between atoms: C_5  and  C_30
    2  A    between atoms: C_10  and  N_16
                            x       y       z     vdW  Elec       q    Type
                         _______ _______ _______ _____ _____    ______ ____

>  <TORSDO>
F 2

$$$$
=
 OpenBabel11122411113D

 31 35  0  0  1  0  0  0  0  0999 V2000
  186.7740  178.1440  147.0660 C   0  0  0  0  0  0  0  0  0  0  0  0
  189.7480  178.2590  144.6920 C   0  0  2  0  0  3  0  0  0  0  0  0
  190.6150  177.0660  145.0590 C   0  0  0  0  0  0  0  0  0  0  0  0
  191.4020  175.4630  146.7130 C   0  0  0  0  0  0  0  0  0  0  0  0
  188.3230  178.1460  145.1930 C   0  0  0  0  0  0  0  0  0  0  0  0
  185.7140  177.8800  146.1970 C   0  0  0  0  0  3  0  0  0  0  0  0
  190.5540  176.5100  146.3460 C   0  0  0  0  0  3  0  0  0  0  0  0
  188.8580  177.6720  142.3850 C   0  0  2  0  0  3  0  0  0  0  0  0
  186.5450  178.2640  148.3950 F   0  0  0  0  0  0  0  0  0  0  0  0
  191.6950  177.1390  142.7700 C   0  0  0  0  0  2  0  0  0  0  0  0
  191.3120  174.8770  148.0760 C   0  0  0  0  0  1  0  0  0  0  0  0
  187.4160  177.9030  142.8240 C   0  0  0  0  0  2  0  0  0  0  0  0
  189.8040  178.5800  143.1850 C   0  0  2  0  0  3  0  0  0  0  0  0
  188.0700  178.2790  146.5650 C   0  0  0  0  0  3  0  0  0  0  0  0
  192.3380  174.9720  145.8020 C   0  0  0  0  0  3  0  0  0  0  0  0
  187.2450  177.8900  144.3140 C   0  0  0  0  0  0  0  0  0  0  0  0
  185.9490  177.7660  144.8250 C   0  0  0  0  0  3  0  0  0  0  0  0
  191.1880  178.5120  142.6950 N   0  0  0  0  0  2  0  0  0  0  0  0
  191.5930  176.5880  144.1580 C   0  0  0  0  0  0  0  0  0  0  0  0
  192.4310  175.5330  144.5270 C   0  0  0  0  0  3  0  0  0  0  0  0
  190.1810  176.0030  140.4910 O   0  0  0  0  0  0  0  0  0  0  0  0
  189.6520  177.0650  140.0620 C   0  0  0  0  0  0  0  0  0  0  0  0
  188.9810  177.9500  140.9610 N   0  0  0  0  0  2  0  0  0  0  0  0
  187.2370  177.1060  137.1340 N   0  0  0  0  0  0  0  0  0  0  0  0
  188.8150  178.6060  138.2680 C   0  0  0  0  0  2  0  0  0  0  0  0
  190.1720  175.1040  138.0670 O   0  0  0  0  0  1  0  0  0  0  0  0
  185.8350  176.7360  137.0840 C   0  0  0  0  0  1  0  0  0  0  0  0
  187.3590  178.1510  138.1500 C   0  0  0  0  0  2  0  0  0  0  0  0
  189.4600  176.2370  137.6660 C   0  0  2  0  0  3  0  0  0  0  0  0
  189.7300  177.4240  138.6060 C   0  0  2  0  0  3  0  0  0  0  0  0
  187.9660  175.9250  137.5930 C   0  0  0  0  0  2  0  0  0  0  0  0
  1  9  1  0  0  0  0
  2  3  1  6  0  0  0
  2  5  1  0  0  0  0
  3  7  1  0  0  0  0
  4 11  1  0  0  0  0
  5 14  2  0  0  0  0
  6  1  2  0  0  0  0
  7  4  2  0  0  0  0
  8 23  1  6  0  0  0
  8 12  1  0  0  0  0
  8 13  1  0  0  0  0
 10 19  1  0  0  0  0
 12 16  1  0  0  0  0
 13 18  1  6  0  0  0
 13  2  1  0  0  0  0
 14  1  1  0  0  0  0
 15  4  1  0  0  0  0
 16 17  2  0  0  0  0
 16  5  1  0  0  0  0
 17  6  1  0  0  0  0
 18 10  1  0  0  0  0
 19 20  1  0  0  0  0
 19  3  2  0  0  0  0
 20 15  2  0  0  0  0
 22 21  2  0  0  0  0
 22 23  1  0  0  0  0
 24 31  1  0  0  0  0
 24 28  1  0  0  0  0
 25 30  1  0  0  0  0
 27 24  1  0  0  0  0
 28 25  1  0  0  0  0
 29 26  1  1  0  0  0
 29 30  1  0  0  0  0
 30 22  1  1  0  0  0
 31 29  1  0  0  0  0
M  END
>  <MODEL>
9

>  <REMARK>
 VINA RESULT:      -7.7      3.819      5.717
  Name = 
  2 active torsions:
  status: ('A' for Active; 'I' for Inactive)
    1  A    between atoms: C_5  and  C_30
    2  A    between atoms: C_10  and  N_16
                            x       y       z     vdW  Elec       q    Type
                         _______ _______ _______ _____ _____    ______ ____

>  <TORSDO>
F 2

$$$$
