=
 OpenBabel11122410293D

 30 35  0  0  1  0  0  0  0  0999 V2000
  186.9960  177.9820  141.2150 C   0  0  2  0  0  3  0  0  0  0  0  0
  184.6860  178.8500  140.5170 C   0  0  0  0  0  0  0  0  0  0  0  0
  185.6350  178.0630  145.1860 N   0  0  0  0  0  2  0  0  0  0  0  0
  187.9130  178.1360  142.4400 C   0  0  2  0  0  3  0  0  0  0  0  0
  187.5290  178.7900  140.1930 O   0  0  0  0  0  0  0  0  0  0  0  0
  190.8870  177.6190  140.3570 O   0  0  0  0  0  0  0  0  0  0  0  0
  190.4470  178.0050  144.2640 C   0  0  1  0  0  3  0  0  0  0  0  0
  189.6920  177.8500  140.6950 C   0  0  0  0  0  0  0  0  0  0  0  0
  189.3670  177.9600  145.3380 C   0  0  2  0  0  3  0  0  0  0  0  0
  186.9030  178.3410  145.7290 C   0  0  0  0  0  0  0  0  0  0  0  0
  188.6380  178.1110  139.6470 C   0  0  2  0  0  3  0  0  0  0  0  0
  189.2850  177.7310  142.0700 N   0  0  0  0  0  0  0  0  0  0  0  0
  183.3590  179.1600  140.8290 C   0  0  0  0  0  3  0  0  0  0  0  0
  189.6930  176.7870  146.2320 C   0  0  0  0  0  2  0  0  0  0  0  0
  191.6870  177.5230  145.0000 C   0  0  0  0  0  2  0  0  0  0  0  0
  185.1080  178.9980  139.1650 N   0  0  0  0  0  1  0  0  0  0  0  0
  185.8590  177.4370  143.8860 C   0  0  2  0  0  3  0  0  0  0  0  0
  182.8710  178.9580  142.1160 C   0  0  0  0  0  3  0  0  0  0  0  0
  185.5640  178.3640  141.5220 C   0  0  0  0  0  0  0  0  0  0  0  0
  187.4040  177.3830  143.6740 C   0  0  2  0  0  3  0  0  0  0  0  0
  187.0620  178.8600  146.8660 O   0  0  0  0  0  0  0  0  0  0  0  0
  187.9730  177.9710  144.8860 N   0  0  0  0  0  0  0  0  0  0  0  0
  191.2090  176.6790  146.1810 C   0  0  0  0  0  2  0  0  0  0  0  0
  189.8930  175.6610  143.2860 C   0  0  0  0  0  1  0  0  0  0  0  0
  183.7050  178.4260  143.0950 C   0  0  0  0  0  3  0  0  0  0  0  0
  185.0470  178.1260  142.8160 C   0  0  0  0  0  0  0  0  0  0  0  0
  190.2200  177.1290  143.0200 C   0  0  2  0  0  3  0  0  0  0  0  0
  189.1810  178.8710  138.4320 C   0  0  0  0  0  2  0  0  0  0  0  0
  187.6150  178.5510  136.5050 C   0  0  0  0  0  1  0  0  0  0  0  0
  188.9430  178.1390  137.1160 C   0  0  0  0  0  2  0  0  0  0  0  0
  1  5  1  6  0  0  0
  1 19  1  0  0  0  0
  1  4  1  0  0  0  0
  2 13  2  0  0  0  0
  2 19  1  0  0  0  0
  3 10  1  0  0  0  0
  4 12  1  6  0  0  0
  4 20  1  0  0  0  0
  6  8  2  0  0  0  0
  7 15  1  1  0  0  0
  7  9  1  0  0  0  0
  8 12  1  0  0  0  0
  9 14  1  6  0  0  0
 10 21  2  0  0  0  0
 11 28  1  6  0  0  0
 11  5  1  0  0  0  0
 11  8  1  0  0  0  0
 12 27  1  0  0  0  0
 13 18  1  0  0  0  0
 15 23  1  0  0  0  0
 16  2  1  0  0  0  0
 17 26  1  6  0  0  0
 17  3  1  0  0  0  0
 18 25  2  0  0  0  0
 19 26  2  0  0  0  0
 20 17  1  0  0  0  0
 20 22  1  1  0  0  0
 22  9  1  0  0  0  0
 22 10  1  0  0  0  0
 23 14  1  0  0  0  0
 26 25  1  0  0  0  0
 27 24  1  1  0  0  0
 27  7  1  0  0  0  0
 29 30  1  0  0  0  0
 30 28  1  0  0  0  0
M  END
>  <MODEL>
1

>  <REMARK>
 VINA RESULT:      -9.2      0.000      0.000
  Name = 
  2 active torsions:
  status: ('A' for Active; 'I' for Inactive)
    1  A    between atoms: C_11  and  C_28
    2  A    between atoms: C_28  and  C_30
                            x       y       z     vdW  Elec       q    Type
                         _______ _______ _______ _____ _____    ______ ____

>  <TORSDO>
F 2

$$$$
=
 OpenBabel11122410293D

 30 35  0  0  1  0  0  0  0  0999 V2000
  187.8280  177.5880  142.7400 C   0  0  2  0  0  3  0  0  0  0  0  0
  188.4790  177.5290  145.2200 C   0  0  0  0  0  0  0  0  0  0  0  0
  191.8400  176.7310  141.8470 N   0  0  0  0  0  2  0  0  0  0  0  0
  188.5220  177.9750  141.4230 C   0  0  2  0  0  3  0  0  0  0  0  0
  186.9500  178.6380  143.0700 O   0  0  0  0  0  0  0  0  0  0  0  0
  185.3040  178.8920  139.9240 O   0  0  0  0  0  0  0  0  0  0  0  0
  188.9460  178.6860  138.4100 C   0  0  1  0  0  3  0  0  0  0  0  0
  186.1770  178.5930  140.7870 C   0  0  0  0  0  0  0  0  0  0  0  0
  190.3220  178.1090  138.7240 C   0  0  2  0  0  3  0  0  0  0  0  0
  191.8330  177.4370  140.6290 C   0  0  0  0  0  0  0  0  0  0  0  0
  185.8100  178.5150  142.2480 C   0  0  2  0  0  3  0  0  0  0  0  0
  187.4970  178.1880  140.3810 N   0  0  0  0  0  0  0  0  0  0  0  0
  189.4080  177.2520  146.2270 C   0  0  0  0  0  3  0  0  0  0  0  0
  190.6150  177.0820  137.6560 C   0  0  0  0  0  2  0  0  0  0  0  0
  188.9020  178.6680  136.8900 C   0  0  0  0  0  2  0  0  0  0  0  0
  187.1800  177.9640  145.6100 N   0  0  0  0  0  1  0  0  0  0  0  0
  190.4540  176.3770  142.1400 C   0  0  2  0  0  3  0  0  0  0  0  0
  190.6650  176.7470  145.9070 C   0  0  0  0  0  3  0  0  0  0  0  0
  188.8200  177.3360  143.8560 C   0  0  0  0  0  0  0  0  0  0  0  0
  189.5880  176.9640  140.9820 C   0  0  2  0  0  3  0  0  0  0  0  0
  192.8830  177.8620  140.0790 O   0  0  0  0  0  0  0  0  0  0  0  0
  190.5430  177.6080  140.0830 N   0  0  0  0  0  0  0  0  0  0  0  0
  189.8830  177.5920  136.4250 C   0  0  0  0  0  2  0  0  0  0  0  0
  187.6900  176.4240  138.6550 C   0  0  0  0  0  1  0  0  0  0  0  0
  190.9910  176.4980  144.5760 C   0  0  0  0  0  3  0  0  0  0  0  0
  190.0850  176.7860  143.5450 C   0  0  0  0  0  0  0  0  0  0  0  0
  187.7340  177.9180  138.9630 C   0  0  2  0  0  3  0  0  0  0  0  0
  184.7500  179.5430  142.6540 C   0  0  0  0  0  2  0  0  0  0  0  0
  183.7130  178.9620  144.8570 C   0  0  0  0  0  1  0  0  0  0  0  0
  183.5460  178.9160  143.3490 C   0  0  0  0  0  2  0  0  0  0  0  0
  1  5  1  1  0  0  0
  1 19  1  0  0  0  0
  2 16  1  0  0  0  0
  2 13  1  0  0  0  0
  4 12  1  6  0  0  0
  4  1  1  0  0  0  0
  6  8  2  0  0  0  0
  7 15  1  6  0  0  0
  7  9  1  0  0  0  0
  7 27  1  0  0  0  0
  8 11  1  0  0  0  0
  9 14  1  6  0  0  0
  9 22  1  0  0  0  0
 10  3  1  0  0  0  0
 11 28  1  1  0  0  0
 11  5  1  0  0  0  0
 12  8  1  0  0  0  0
 17  3  1  6  0  0  0
 17 26  1  0  0  0  0
 18 13  2  0  0  0  0
 19  2  2  0  0  0  0
 20 22  1  6  0  0  0
 20  4  1  0  0  0  0
 20 17  1  0  0  0  0
 21 10  2  0  0  0  0
 22 10  1  0  0  0  0
 23 15  1  0  0  0  0
 23 14  1  0  0  0  0
 25 18  1  0  0  0  0
 26 19  1  0  0  0  0
 26 25  2  0  0  0  0
 27 24  1  1  0  0  0
 27 12  1  0  0  0  0
 28 30  1  0  0  0  0
 30 29  1  0  0  0  0
M  END
>  <MODEL>
2

>  <REMARK>
 VINA RESULT:      -8.6      1.579      6.429
  Name = 
  2 active torsions:
  status: ('A' for Active; 'I' for Inactive)
    1  A    between atoms: C_11  and  C_28
    2  A    between atoms: C_28  and  C_30
                            x       y       z     vdW  Elec       q    Type
                         _______ _______ _______ _____ _____    ______ ____

>  <TORSDO>
F 2

$$$$
=
 OpenBabel11122410293D

 30 35  0  0  1  0  0  0  0  0999 V2000
  187.7970  178.1180  141.6810 C   0  0  2  0  0  3  0  0  0  0  0  0
  186.3310  178.1390  143.7850 C   0  0  0  0  0  0  0  0  0  0  0  0
  184.2660  178.4010  139.4280 N   0  0  0  0  0  2  0  0  0  0  0  0
  187.6520  177.6140  140.2350 C   0  0  2  0  0  3  0  0  0  0  0  0
  188.6290  177.2050  142.3560 O   0  0  0  0  0  0  0  0  0  0  0  0
  191.2750  177.1140  139.9770 O   0  0  0  0  0  0  0  0  0  0  0  0
  188.3800  176.7910  137.3100 C   0  0  1  0  0  3  0  0  0  0  0  0
  190.1290  177.3090  140.4720 C   0  0  0  0  0  0  0  0  0  0  0  0
  186.9210  177.1800  137.1010 C   0  0  2  0  0  3  0  0  0  0  0  0
  184.7770  177.6790  138.3340 C   0  0  0  0  0  0  0  0  0  0  0  0
  189.9580  177.4670  141.9630 C   0  0  2  0  0  3  0  0  0  0  0  0
  188.9910  177.5220  139.6180 N   0  0  0  0  0  0  0  0  0  0  0  0
  185.0860  178.3070  144.3960 C   0  0  0  0  0  3  0  0  0  0  0  0
  186.8920  178.1360  135.9320 C   0  0  0  0  0  2  0  0  0  0  0  0
  188.9420  176.7840  135.8970 C   0  0  0  0  0  2  0  0  0  0  0  0
  187.4590  177.8930  144.6190 N   0  0  0  0  0  1  0  0  0  0  0  0
  185.4120  178.9470  140.1490 C   0  0  2  0  0  3  0  0  0  0  0  0
  183.9640  178.6290  143.6380 C   0  0  0  0  0  3  0  0  0  0  0  0
  186.4590  178.2550  142.3750 C   0  0  0  0  0  0  0  0  0  0  0  0
  186.6890  178.4610  139.3940 C   0  0  2  0  0  3  0  0  0  0  0  0
  184.0400  177.1030  137.4900 O   0  0  0  0  0  0  0  0  0  0  0  0
  186.1870  177.6740  138.2690 N   0  0  0  0  0  0  0  0  0  0  0  0
  188.0590  177.7050  135.0570 C   0  0  0  0  0  2  0  0  0  0  0  0
  189.1910  179.2070  137.8160 C   0  0  0  0  0  1  0  0  0  0  0  0
  184.0890  178.8040  142.2620 C   0  0  0  0  0  3  0  0  0  0  0  0
  185.3220  178.6210  141.6190 C   0  0  0  0  0  0  0  0  0  0  0  0
  189.2250  177.7270  138.1890 C   0  0  2  0  0  3  0  0  0  0  0  0
  190.9300  176.6010  142.7700 C   0  0  0  0  0  2  0  0  0  0  0  0
  191.4320  178.8140  143.8280 C   0  0  0  0  0  1  0  0  0  0  0  0
  191.4680  177.3070  144.0110 C   0  0  0  0  0  2  0  0  0  0  0  0
  1  5  1  1  0  0  0
  1 19  1  0  0  0  0
  2 13  1  0  0  0  0
  2 16  1  0  0  0  0
  4 12  1  6  0  0  0
  4  1  1  0  0  0  0
  6  8  2  0  0  0  0
  7 15  1  6  0  0  0
  7 27  1  0  0  0  0
  8 11  1  0  0  0  0
  9 14  1  6  0  0  0
  9  7  1  0  0  0  0
  9 22  1  0  0  0  0
 10  3  1  0  0  0  0
 11  5  1  0  0  0  0
 11 28  1  1  0  0  0
 12  8  1  0  0  0  0
 17  3  1  6  0  0  0
 17 26  1  0  0  0  0
 18 13  2  0  0  0  0
 19  2  2  0  0  0  0
 20 22  1  6  0  0  0
 20 17  1  0  0  0  0
 20  4  1  0  0  0  0
 21 10  2  0  0  0  0
 22 10  1  0  0  0  0
 23 15  1  0  0  0  0
 23 14  1  0  0  0  0
 25 18  1  0  0  0  0
 26 25  2  0  0  0  0
 26 19  1  0  0  0  0
 27 24  1  6  0  0  0
 27 12  1  0  0  0  0
 28 30  1  0  0  0  0
 29 30  1  0  0  0  0
M  END
>  <MODEL>
3

>  <REMARK>
 VINA RESULT:      -8.4      1.750      5.972
  Name = 
  2 active torsions:
  status: ('A' for Active; 'I' for Inactive)
    1  A    between atoms: C_11  and  C_28
    2  A    between atoms: C_28  and  C_30
                            x       y       z     vdW  Elec       q    Type
                         _______ _______ _______ _____ _____    ______ ____

>  <TORSDO>
F 2

$$$$
=
 OpenBabel11122410293D

 30 35  0  0  1  0  0  0  0  0999 V2000
  185.9850  178.1790  141.4950 C   0  0  2  0  0  3  0  0  0  0  0  0
  185.1690  178.7370  143.8610 C   0  0  0  0  0  0  0  0  0  0  0  0
  189.6790  177.1420  143.2000 N   0  0  0  0  0  2  0  0  0  0  0  0
  187.3280  178.2300  140.7460 C   0  0  2  0  0  3  0  0  0  0  0  0
  185.2210  179.2750  141.0500 O   0  0  0  0  0  0  0  0  0  0  0  0
  185.5990  178.7370  137.5520 O   0  0  0  0  0  0  0  0  0  0  0  0
  189.4120  178.1760  138.4180 C   0  0  1  0  0  3  0  0  0  0  0  0
  185.8140  178.6640  138.7950 C   0  0  0  0  0  0  0  0  0  0  0  0
  190.3040  177.7000  139.5600 C   0  0  2  0  0  3  0  0  0  0  0  0
  190.4300  177.5250  142.0730 C   0  0  0  0  0  0  0  0  0  0  0  0
  184.7060  178.9480  139.7790 C   0  0  2  0  0  3  0  0  0  0  0  0
  187.0730  178.1760  139.2920 N   0  0  0  0  0  0  0  0  0  0  0  0
  185.3560  178.7210  145.2460 C   0  0  0  0  0  3  0  0  0  0  0  0
  190.9870  176.4420  139.0790 C   0  0  0  0  0  2  0  0  0  0  0  0
  190.1980  177.7820  137.1780 C   0  0  0  0  0  2  0  0  0  0  0  0
  183.9400  179.2510  143.3570 N   0  0  0  0  0  1  0  0  0  0  0  0
  188.3230  176.8670  142.7330 C   0  0  2  0  0  3  0  0  0  0  0  0
  186.5020  178.1570  145.7980 C   0  0  0  0  0  3  0  0  0  0  0  0
  186.1670  178.2140  142.9970 C   0  0  0  0  0  0  0  0  0  0  0  0
  188.3130  177.1450  141.1980 C   0  0  2  0  0  3  0  0  0  0  0  0
  191.6560  177.8050  142.1320 O   0  0  0  0  0  0  0  0  0  0  0  0
  189.6810  177.5510  140.8770 N   0  0  0  0  0  0  0  0  0  0  0  0
  191.1180  176.6290  137.5760 C   0  0  0  0  0  2  0  0  0  0  0  0
  187.9310  176.0400  138.3800 C   0  0  0  0  0  1  0  0  0  0  0  0
  187.4610  177.5890  144.9640 C   0  0  0  0  0  3  0  0  0  0  0  0
  187.3100  177.6090  143.5690 C   0  0  0  0  0  0  0  0  0  0  0  0
  188.0030  177.5650  138.3430 C   0  0  2  0  0  3  0  0  0  0  0  0
  183.7460  180.0410  139.2980 C   0  0  0  0  0  2  0  0  0  0  0  0
  181.8480  178.6950  140.2230 C   0  0  0  0  0  1  0  0  0  0  0  0
  182.3330  179.5250  139.0470 C   0  0  0  0  0  2  0  0  0  0  0  0
  1  5  1  6  0  0  0
  1 19  1  0  0  0  0
  2 13  1  0  0  0  0
  4 12  1  6  0  0  0
  4 20  1  0  0  0  0
  4  1  1  0  0  0  0
  6  8  2  0  0  0  0
  7 15  1  6  0  0  0
  7  9  1  0  0  0  0
  8 12  1  0  0  0  0
  8 11  1  0  0  0  0
  9 14  1  6  0  0  0
  9 22  1  0  0  0  0
 10 21  2  0  0  0  0
 10  3  1  0  0  0  0
 11 28  1  6  0  0  0
 11  5  1  0  0  0  0
 13 18  2  0  0  0  0
 15 23  1  0  0  0  0
 16  2  1  0  0  0  0
 17  3  1  1  0  0  0
 17 26  1  0  0  0  0
 19 26  1  0  0  0  0
 19  2  2  0  0  0  0
 20 22  1  1  0  0  0
 20 17  1  0  0  0  0
 22 10  1  0  0  0  0
 23 14  1  0  0  0  0
 25 18  1  0  0  0  0
 26 25  2  0  0  0  0
 27 24  1  1  0  0  0
 27  7  1  0  0  0  0
 27 12  1  0  0  0  0
 30 28  1  0  0  0  0
 30 29  1  0  0  0  0
M  END
>  <MODEL>
4

>  <REMARK>
 VINA RESULT:      -7.7      2.181      5.079
  Name = 
  2 active torsions:
  status: ('A' for Active; 'I' for Inactive)
    1  A    between atoms: C_11  and  C_28
    2  A    between atoms: C_28  and  C_30
                            x       y       z     vdW  Elec       q    Type
                         _______ _______ _______ _____ _____    ______ ____

>  <TORSDO>
F 2

$$$$
=
 OpenBabel11122410293D

 30 35  0  0  1  0  0  0  0  0999 V2000
  185.7990  178.6790  142.3890 C   0  0  2  0  0  3  0  0  0  0  0  0
  186.3690  178.2210  144.8470 C   0  0  0  0  0  0  0  0  0  0  0  0
  181.7580  178.7730  143.5250 N   0  0  0  0  0  2  0  0  0  0  0  0
  184.6280  178.3550  141.4450 C   0  0  2  0  0  3  0  0  0  0  0  0
  186.8530  177.8070  142.0560 O   0  0  0  0  0  0  0  0  0  0  0  0
  186.8710  178.3930  138.5450 O   0  0  0  0  0  0  0  0  0  0  0  0
  182.9480  178.0330  138.8300 C   0  0  1  0  0  3  0  0  0  0  0  0
  186.4680  178.3620  139.7420 C   0  0  0  0  0  0  0  0  0  0  0  0
  181.8150  178.2440  139.8270 C   0  0  2  0  0  3  0  0  0  0  0  0
  181.2880  178.2780  142.2940 C   0  0  0  0  0  0  0  0  0  0  0  0
  187.4570  178.2970  140.8800 C   0  0  2  0  0  3  0  0  0  0  0  0
  185.0720  178.5290  140.0470 N   0  0  0  0  0  0  0  0  0  0  0  0
  185.9850  178.1350  146.1880 C   0  0  0  0  0  3  0  0  0  0  0  0
  180.9360  179.3320  139.2590 C   0  0  0  0  0  2  0  0  0  0  0  0
  182.2810  178.2890  137.4880 C   0  0  0  0  0  2  0  0  0  0  0  0
  187.7440  178.0240  144.5300 N   0  0  0  0  0  1  0  0  0  0  0  0
  183.0650  179.3700  143.2700 C   0  0  2  0  0  3  0  0  0  0  0  0
  184.6720  178.3990  146.5640 C   0  0  0  0  0  3  0  0  0  0  0  0
  185.4130  178.5390  143.8460 C   0  0  0  0  0  0  0  0  0  0  0  0
  183.3630  179.1670  141.7520 C   0  0  2  0  0  3  0  0  0  0  0  0
  180.1640  177.7230  142.1640 O   0  0  0  0  0  0  0  0  0  0  0  0
  182.1880  178.4740  141.2250 N   0  0  0  0  0  0  0  0  0  0  0  0
  181.0710  179.1840  137.7520 C   0  0  0  0  0  2  0  0  0  0  0  0
  183.8830  180.4490  139.0330 C   0  0  0  0  0  1  0  0  0  0  0  0
  183.7390  178.7690  145.5990 C   0  0  0  0  0  3  0  0  0  0  0  0
  184.0910  178.8430  144.2440 C   0  0  0  0  0  0  0  0  0  0  0  0
  184.1730  178.9520  138.9730 C   0  0  2  0  0  3  0  0  0  0  0  0
  188.7030  177.4730  140.5410 C   0  0  0  0  0  2  0  0  0  0  0  0
  190.1550  176.3270  142.2290 C   0  0  0  0  0  1  0  0  0  0  0  0
  189.8280  177.6490  141.5550 C   0  0  0  0  0  2  0  0  0  0  0  0
  1  5  1  6  0  0  0
  1 19  1  0  0  0  0
  2 13  1  0  0  0  0
  4 12  1  6  0  0  0
  4 20  1  0  0  0  0
  4  1  1  0  0  0  0
  6  8  2  0  0  0  0
  7 15  1  6  0  0  0
  7 27  1  0  0  0  0
  7  9  1  0  0  0  0
  8 12  1  0  0  0  0
  8 11  1  0  0  0  0
  9 14  1  6  0  0  0
  9 22  1  0  0  0  0
 10  3  1  0  0  0  0
 11 28  1  6  0  0  0
 11  5  1  0  0  0  0
 13 18  2  0  0  0  0
 15 23  1  0  0  0  0
 16  2  1  0  0  0  0
 17  3  1  1  0  0  0
 17 26  1  0  0  0  0
 19 26  1  0  0  0  0
 19  2  2  0  0  0  0
 20 22  1  1  0  0  0
 20 17  1  0  0  0  0
 21 10  2  0  0  0  0
 22 10  1  0  0  0  0
 23 14  1  0  0  0  0
 25 18  1  0  0  0  0
 26 25  2  0  0  0  0
 27 24  1  1  0  0  0
 27 12  1  0  0  0  0
 28 30  1  0  0  0  0
 30 29  1  0  0  0  0
M  END
>  <MODEL>
5

>  <REMARK>
 VINA RESULT:      -7.7      2.474      6.484
  Name = 
  2 active torsions:
  status: ('A' for Active; 'I' for Inactive)
    1  A    between atoms: C_11  and  C_28
    2  A    between atoms: C_28  and  C_30
                            x       y       z     vdW  Elec       q    Type
                         _______ _______ _______ _____ _____    ______ ____

>  <TORSDO>
F 2

$$$$
=
 OpenBabel11122410293D

 30 35  0  0  1  0  0  0  0  0999 V2000
  186.4410  178.4640  143.3100 C   0  0  2  0  0  3  0  0  0  0  0  0
  183.9260  178.6000  142.8270 C   0  0  0  0  0  0  0  0  0  0  0  0
  187.0390  178.1080  139.1700 N   0  0  0  0  0  2  0  0  0  0  0  0
  187.6550  177.7710  142.6680 C   0  0  2  0  0  3  0  0  0  0  0  0
  186.1070  177.7310  144.4640 O   0  0  0  0  0  0  0  0  0  0  0  0
  189.3560  177.6100  145.9130 O   0  0  0  0  0  0  0  0  0  0  0  0
  190.5510  176.6670  142.2680 C   0  0  1  0  0  3  0  0  0  0  0  0
  188.4460  177.7480  145.0480 C   0  0  0  0  0  0  0  0  0  0  0  0
  190.1630  176.8790  140.8090 C   0  0  2  0  0  3  0  0  0  0  0  0
  188.1910  177.3100  139.2950 C   0  0  0  0  0  0  0  0  0  0  0  0
  187.0340  178.0730  145.4700 C   0  0  2  0  0  3  0  0  0  0  0  0
  188.7630  177.7380  143.6440 N   0  0  0  0  0  0  0  0  0  0  0  0
  182.8660  178.7170  141.9230 C   0  0  0  0  0  3  0  0  0  0  0  0
  191.2800  177.6730  140.1760 C   0  0  0  0  0  2  0  0  0  0  0  0
  192.0640  176.5400  142.2090 C   0  0  0  0  0  2  0  0  0  0  0  0
  183.6190  178.5750  144.2180 N   0  0  0  0  0  1  0  0  0  0  0  0
  186.9010  178.8520  140.4180 C   0  0  2  0  0  3  0  0  0  0  0  0
  183.1120  178.8280  140.5580 C   0  0  0  0  0  3  0  0  0  0  0  0
  185.2650  178.5520  142.3600 C   0  0  0  0  0  0  0  0  0  0  0  0
  188.0790  178.4060  141.3380 C   0  0  2  0  0  3  0  0  0  0  0  0
  188.6090  176.5620  138.3710 O   0  0  0  0  0  0  0  0  0  0  0  0
  188.8350  177.4380  140.5440 N   0  0  0  0  0  0  0  0  0  0  0  0
  192.5260  177.2560  140.9410 C   0  0  0  0  0  2  0  0  0  0  0  0
  190.6030  179.1970  142.8600 C   0  0  0  0  0  1  0  0  0  0  0  0
  184.4240  178.8410  140.0920 C   0  0  0  0  0  3  0  0  0  0  0  0
  185.5060  178.7040  140.9750 C   0  0  0  0  0  0  0  0  0  0  0  0
  190.1720  177.7860  143.2520 C   0  0  2  0  0  3  0  0  0  0  0  0
  186.6420  177.4160  146.7980 C   0  0  0  0  0  2  0  0  0  0  0  0
  188.0420  177.8820  148.8210 C   0  0  0  0  0  1  0  0  0  0  0  0
  186.8470  178.3330  147.9990 C   0  0  0  0  0  2  0  0  0  0  0  0
  1 19  1  6  0  0  0
  1  5  1  0  0  0  0
  2 16  1  0  0  0  0
  3 10  1  0  0  0  0
  4  1  1  0  0  0  0
  4 12  1  1  0  0  0
  5 11  1  0  0  0  0
  7 15  1  6  0  0  0
  7 27  1  0  0  0  0
  8 11  1  0  0  0  0
  8  6  2  0  0  0  0
  9 14  1  1  0  0  0
  9  7  1  0  0  0  0
 10 22  1  0  0  0  0
 11 28  1  1  0  0  0
 12  8  1  0  0  0  0
 13  2  2  0  0  0  0
 14 23  1  0  0  0  0
 17  3  1  6  0  0  0
 17 26  1  0  0  0  0
 17 20  1  0  0  0  0
 18 13  1  0  0  0  0
 19  2  1  0  0  0  0
 20 22  1  6  0  0  0
 20  4  1  0  0  0  0
 21 10  2  0  0  0  0
 22  9  1  0  0  0  0
 23 15  1  0  0  0  0
 25 18  2  0  0  0  0
 25 26  1  0  0  0  0
 26 19  2  0  0  0  0
 27 24  1  6  0  0  0
 27 12  1  0  0  0  0
 28 30  1  0  0  0  0
 30 29  1  0  0  0  0
M  END
>  <MODEL>
6

>  <REMARK>
 VINA RESULT:      -7.6      1.778      5.323
  Name = 
  2 active torsions:
  status: ('A' for Active; 'I' for Inactive)
    1  A    between atoms: C_11  and  C_28
    2  A    between atoms: C_28  and  C_30
                            x       y       z     vdW  Elec       q    Type
                         _______ _______ _______ _____ _____    ______ ____

>  <TORSDO>
F 2

$$$$
=
 OpenBabel11122410293D

 30 35  0  0  1  0  0  0  0  0999 V2000
  184.3240  178.6750  140.6080 C   0  0  2  0  0  3  0  0  0  0  0  0
  184.9380  178.0700  138.1930 C   0  0  0  0  0  0  0  0  0  0  0  0
  188.2810  177.7480  141.6620 N   0  0  0  0  0  2  0  0  0  0  0  0
  184.7600  178.2140  142.0100 C   0  0  2  0  0  3  0  0  0  0  0  0
  183.0640  178.0990  140.3560 O   0  0  0  0  0  0  0  0  0  0  0  0
  181.4730  179.0800  143.3850 O   0  0  0  0  0  0  0  0  0  0  0  0
  184.8020  177.8390  145.1110 C   0  0  1  0  0  3  0  0  0  0  0  0
  182.3890  178.8230  142.5540 C   0  0  0  0  0  0  0  0  0  0  0  0
  186.2910  177.6790  144.8220 C   0  0  2  0  0  3  0  0  0  0  0  0
  187.9480  177.3090  142.9570 C   0  0  0  0  0  0  0  0  0  0  0  0
  182.1040  178.8430  141.0730 C   0  0  2  0  0  3  0  0  0  0  0  0
  183.7470  178.6430  142.9950 N   0  0  0  0  0  0  0  0  0  0  0  0
  185.8950  177.7460  137.2260 C   0  0  0  0  0  3  0  0  0  0  0  0
  187.0160  178.6070  145.7670 C   0  0  0  0  0  2  0  0  0  0  0  0
  184.7660  178.0970  146.6090 C   0  0  0  0  0  2  0  0  0  0  0  0
  183.5850  178.2160  137.7720 N   0  0  0  0  0  1  0  0  0  0  0  0
  187.2120  178.6430  141.2290 C   0  0  2  0  0  3  0  0  0  0  0  0
  187.2420  177.6700  137.5650 C   0  0  0  0  0  3  0  0  0  0  0  0
  185.3250  178.2850  139.5410 C   0  0  0  0  0  0  0  0  0  0  0  0
  186.1680  178.6880  142.3890 C   0  0  2  0  0  3  0  0  0  0  0  0
  188.6860  176.5410  143.6290 O   0  0  0  0  0  0  0  0  0  0  0  0
  186.7210  177.8210  143.4290 N   0  0  0  0  0  0  0  0  0  0  0  0
  186.1280  178.6690  147.0000 C   0  0  0  0  0  2  0  0  0  0  0  0
  184.7190  180.3610  144.4890 C   0  0  0  0  0  1  0  0  0  0  0  0
  187.6410  177.9370  138.8720 C   0  0  0  0  0  3  0  0  0  0  0  0
  186.7000  178.2440  139.8660 C   0  0  0  0  0  0  0  0  0  0  0  0
  184.0770  178.9810  144.3800 C   0  0  2  0  0  3  0  0  0  0  0  0
  180.6920  178.3570  140.7300 C   0  0  0  0  0  2  0  0  0  0  0  0
  179.6240  176.0980  140.5800 C   0  0  0  0  0  1  0  0  0  0  0  0
  180.6830  177.0180  140.0000 C   0  0  0  0  0  2  0  0  0  0  0  0
  1 19  1  6  0  0  0
  1  4  1  0  0  0  0
  2 19  1  0  0  0  0
  3 10  1  0  0  0  0
  4 20  1  0  0  0  0
  4 12  1  1  0  0  0
  5  1  1  0  0  0  0
  5 11  1  0  0  0  0
  7 15  1  1  0  0  0
  8 12  1  0  0  0  0
  8  6  2  0  0  0  0
  9  7  1  0  0  0  0
  9 14  1  1  0  0  0
 10 22  1  0  0  0  0
 10 21  2  0  0  0  0
 11 28  1  1  0  0  0
 11  8  1  0  0  0  0
 12 27  1  0  0  0  0
 13 18  1  0  0  0  0
 13  2  2  0  0  0  0
 14 23  1  0  0  0  0
 15 23  1  0  0  0  0
 16  2  1  0  0  0  0
 17 26  1  6  0  0  0
 17  3  1  0  0  0  0
 17 20  1  0  0  0  0
 18 25  2  0  0  0  0
 19 26  2  0  0  0  0
 20 22  1  1  0  0  0
 22  9  1  0  0  0  0
 25 26  1  0  0  0  0
 27 24  1  6  0  0  0
 27  7  1  0  0  0  0
 30 29  1  0  0  0  0
 30 28  1  0  0  0  0
M  END
>  <MODEL>
7

>  <REMARK>
 VINA RESULT:      -7.6      2.471      5.577
  Name = 
  2 active torsions:
  status: ('A' for Active; 'I' for Inactive)
    1  A    between atoms: C_11  and  C_28
    2  A    between atoms: C_28  and  C_30
                            x       y       z     vdW  Elec       q    Type
                         _______ _______ _______ _____ _____    ______ ____

>  <TORSDO>
F 2

$$$$
=
 OpenBabel11122410293D

 30 35  0  0  1  0  0  0  0  0999 V2000
  189.4080  177.4740  143.5180 C   0  0  2  0  0  3  0  0  0  0  0  0
  191.2950  176.4370  144.9100 C   0  0  0  0  0  0  0  0  0  0  0  0
  187.1860  177.7660  147.0670 N   0  0  0  0  0  2  0  0  0  0  0  0
  187.8710  177.4930  143.5760 C   0  0  2  0  0  3  0  0  0  0  0  0
  189.7730  176.5830  142.4900 O   0  0  0  0  0  0  0  0  0  0  0  0
  187.6750  177.9080  139.9380 O   0  0  0  0  0  0  0  0  0  0  0  0
  184.8920  177.9300  142.7410 C   0  0  1  0  0  3  0  0  0  0  0  0
  188.1360  177.6640  141.0880 C   0  0  0  0  0  0  0  0  0  0  0  0
  184.7440  178.0450  144.2540 C   0  0  2  0  0  3  0  0  0  0  0  0
  185.9410  177.6030  146.4300 C   0  0  0  0  0  0  0  0  0  0  0  0
  189.5760  177.2460  141.2610 C   0  0  2  0  0  3  0  0  0  0  0  0
  187.3430  177.9140  142.2630 N   0  0  0  0  0  0  0  0  0  0  0  0
  191.8510  176.1060  146.1490 C   0  0  0  0  0  3  0  0  0  0  0  0
  183.9800  179.3200  144.5180 C   0  0  0  0  0  2  0  0  0  0  0  0
  183.6010  178.5420  142.2200 C   0  0  0  0  0  2  0  0  0  0  0  0
  192.0590  176.1610  143.7390 N   0  0  0  0  0  1  0  0  0  0  0  0
  188.1190  178.2560  146.0570 C   0  0  2  0  0  3  0  0  0  0  0  0
  191.1860  176.4260  147.3280 C   0  0  0  0  0  3  0  0  0  0  0  0
  190.0250  177.0660  144.8380 C   0  0  0  0  0  0  0  0  0  0  0  0
  187.3210  178.3540  144.7200 C   0  0  2  0  0  3  0  0  0  0  0  0
  184.9070  177.2180  147.0370 O   0  0  0  0  0  0  0  0  0  0  0  0
  185.9640  177.9250  145.0560 N   0  0  0  0  0  0  0  0  0  0  0  0
  183.0830  179.4870  143.3020 C   0  0  0  0  0  2  0  0  0  0  0  0
  186.2540  180.1270  142.4780 C   0  0  0  0  0  1  0  0  0  0  0  0
  189.9670  177.0960  147.2730 C   0  0  0  0  0  3  0  0  0  0  0  0
  189.3760  177.4210  146.0430 C   0  0  0  0  0  0  0  0  0  0  0  0
  186.0910  178.6550  142.1080 C   0  0  2  0  0  3  0  0  0  0  0  0
  190.0890  176.3820  140.1040 C   0  0  0  0  0  2  0  0  0  0  0  0
  192.3080  177.5050  140.3930 C   0  0  0  0  0  1  0  0  0  0  0  0
  191.2890  176.9940  139.3900 C   0  0  0  0  0  2  0  0  0  0  0  0
  1  5  1  6  0  0  0
  1  4  1  0  0  0  0
  1 19  1  0  0  0  0
  2 13  1  0  0  0  0
  4 12  1  6  0  0  0
  4 20  1  0  0  0  0
  6  8  2  0  0  0  0
  7 15  1  6  0  0  0
  7  9  1  0  0  0  0
  8 11  1  0  0  0  0
  8 12  1  0  0  0  0
  9 14  1  6  0  0  0
  9 22  1  0  0  0  0
 10 21  2  0  0  0  0
 10  3  1  0  0  0  0
 11 28  1  6  0  0  0
 11  5  1  0  0  0  0
 13 18  2  0  0  0  0
 15 23  1  0  0  0  0
 16  2  1  0  0  0  0
 17 26  1  6  0  0  0
 17  3  1  0  0  0  0
 19  2  2  0  0  0  0
 19 26  1  0  0  0  0
 20 22  1  1  0  0  0
 20 17  1  0  0  0  0
 22 10  1  0  0  0  0
 23 14  1  0  0  0  0
 25 18  1  0  0  0  0
 26 25  2  0  0  0  0
 27 12  1  0  0  0  0
 27 24  1  1  0  0  0
 27  7  1  0  0  0  0
 30 28  1  0  0  0  0
 30 29  1  0  0  0  0
M  END
>  <MODEL>
8

>  <REMARK>
 VINA RESULT:      -7.3      1.911      5.564
  Name = 
  2 active torsions:
  status: ('A' for Active; 'I' for Inactive)
    1  A    between atoms: C_11  and  C_28
    2  A    between atoms: C_28  and  C_30
                            x       y       z     vdW  Elec       q    Type
                         _______ _______ _______ _____ _____    ______ ____

>  <TORSDO>
F 2

$$$$
=
 OpenBabel11122410293D

 30 35  0  0  1  0  0  0  0  0999 V2000
  186.1890  178.5800  141.7550 C   0  0  2  0  0  3  0  0  0  0  0  0
  184.4540  178.6870  139.8700 C   0  0  0  0  0  0  0  0  0  0  0  0
  188.9990  177.4030  138.8670 N   0  0  0  0  0  2  0  0  0  0  0  0
  187.4430  177.7410  142.0600 C   0  0  2  0  0  3  0  0  0  0  0  0
  185.1560  178.0960  142.5810 O   0  0  0  0  0  0  0  0  0  0  0  0
  186.9320  178.1720  145.6650 O   0  0  0  0  0  0  0  0  0  0  0  0
  189.8590  176.5010  143.6050 C   0  0  1  0  0  3  0  0  0  0  0  0
  186.7120  178.1630  144.4210 C   0  0  0  0  0  0  0  0  0  0  0  0
  190.4120  176.4340  142.1860 C   0  0  2  0  0  3  0  0  0  0  0  0
  189.7480  176.6130  139.7590 C   0  0  0  0  0  0  0  0  0  0  0  0
  185.3750  178.6030  143.8780 C   0  0  2  0  0  3  0  0  0  0  0  0
  187.7720  177.8690  143.4940 N   0  0  0  0  0  0  0  0  0  0  0  0
  184.1340  178.6540  138.5100 C   0  0  0  0  0  3  0  0  0  0  0  0
  191.7860  177.0570  142.2280 C   0  0  0  0  0  2  0  0  0  0  0  0
  191.0970  176.3230  144.4680 C   0  0  0  0  0  2  0  0  0  0  0  0
  183.4050  178.9430  140.7990 N   0  0  0  0  0  1  0  0  0  0  0  0
  188.2730  178.3800  139.6710 C   0  0  2  0  0  3  0  0  0  0  0  0
  185.1310  178.4880  137.5530 C   0  0  0  0  0  3  0  0  0  0  0  0
  185.7970  178.5110  140.2950 C   0  0  0  0  0  0  0  0  0  0  0  0
  188.6350  178.0910  141.1620 C   0  0  2  0  0  3  0  0  0  0  0  0
  190.5130  175.6880  139.3770 O   0  0  0  0  0  0  0  0  0  0  0  0
  189.5680  176.9660  141.1140 N   0  0  0  0  0  0  0  0  0  0  0  0
  192.2960  176.7640  143.6300 C   0  0  0  0  0  2  0  0  0  0  0  0
  189.9090  179.0950  143.7460 C   0  0  0  0  0  1  0  0  0  0  0  0
  186.4590  178.3740  137.9550 C   0  0  0  0  0  3  0  0  0  0  0  0
  186.8070  178.3830  139.3130 C   0  0  0  0  0  0  0  0  0  0  0  0
  189.1420  177.8010  144.0050 C   0  0  2  0  0  3  0  0  0  0  0  0
  184.2060  178.2310  144.7970 C   0  0  0  0  0  2  0  0  0  0  0  0
  181.8670  178.6570  144.0150 C   0  0  0  0  0  1  0  0  0  0  0  0
  183.0630  179.2390  144.7460 C   0  0  0  0  0  2  0  0  0  0  0  0
  1 19  1  6  0  0  0
  1  4  1  0  0  0  0
  1  5  1  0  0  0  0
  2 19  1  0  0  0  0
  2 16  1  0  0  0  0
  3 10  1  0  0  0  0
  4 12  1  1  0  0  0
  5 11  1  0  0  0  0
  7 27  1  0  0  0  0
  7 15  1  1  0  0  0
  8  6  2  0  0  0  0
  9 14  1  1  0  0  0
  9  7  1  0  0  0  0
 10 22  1  0  0  0  0
 11  8  1  0  0  0  0
 11 28  1  1  0  0  0
 12 27  1  0  0  0  0
 12  8  1  0  0  0  0
 13  2  2  0  0  0  0
 14 23  1  0  0  0  0
 17  3  1  6  0  0  0
 17 20  1  0  0  0  0
 18 25  2  0  0  0  0
 18 13  1  0  0  0  0
 20 22  1  6  0  0  0
 20  4  1  0  0  0  0
 21 10  2  0  0  0  0
 22  9  1  0  0  0  0
 23 15  1  0  0  0  0
 25 26  1  0  0  0  0
 26 17  1  0  0  0  0
 26 19  2  0  0  0  0
 27 24  1  6  0  0  0
 29 30  1  0  0  0  0
 30 28  1  0  0  0  0
M  END
>  <MODEL>
9

>  <REMARK>
 VINA RESULT:      -7.2      1.747      4.969
  Name = 
  2 active torsions:
  status: ('A' for Active; 'I' for Inactive)
    1  A    between atoms: C_11  and  C_28
    2  A    between atoms: C_28  and  C_30
                            x       y       z     vdW  Elec       q    Type
                         _______ _______ _______ _____ _____    ______ ____

>  <TORSDO>
F 2

$$$$
