=
 OpenBabel11122411553D

 28 32  0  0  1  0  0  0  0  0999 V2000
  181.5580  178.8470  142.1290 C   0  0  0  0  0  0  0  0  0  0  0  0
  180.4770  181.3120  139.3260 O   0  0  0  0  0  0  0  0  0  0  0  0
  178.9310  175.4010  137.5080 O   0  0  0  0  0  0  0  0  0  0  0  0
  184.3610  178.8890  142.1370 C   0  0  0  0  0  3  0  0  0  0  0  0
  181.0660  176.2490  136.9910 N   0  0  0  0  0  0  0  0  0  0  0  0
  180.0680  178.7460  142.1880 C   0  0  0  0  0  2  0  0  0  0  0  0
  182.7690  181.9840  138.7500 O   0  0  0  0  0  0  0  0  0  0  0  0
  181.6280  181.0770  138.3890 S   0  0  0  0  0  0  0  0  0  0  0  0
  180.7560  180.3170  135.9220 C   0  0  0  0  0  0  0  0  0  0  0  0
  182.1890  179.3750  138.4820 C   0  0  2  0  0  3  0  0  0  0  0  0
  179.1650  175.2350  141.6850 O   0  0  0  0  0  0  0  0  0  0  0  0
  181.5290  177.1320  139.1630 C   0  0  2  0  0  3  0  0  0  0  0  0
  180.6920  178.9280  136.4690 C   0  0  0  0  0  2  0  0  0  0  0  0
  181.1270  181.4000  136.7680 N   0  0  0  0  0  2  0  0  0  0  0  0
  179.3160  176.4550  141.4130 C   0  0  0  0  0  0  0  0  0  0  0  0
  182.2620  178.7490  140.9110 C   0  0  0  0  0  0  0  0  0  0  0  0
  179.9800  176.0040  137.8570 C   0  0  0  0  0  0  0  0  0  0  0  0
  180.3350  180.5530  134.7250 N   0  0  0  0  0  2  0  0  0  0  0  0
  179.0790  176.9300  140.0180 C   0  0  0  0  0  2  0  0  0  0  0  0
  183.6670  178.7580  140.9320 C   0  0  0  0  0  3  0  0  0  0  0  0
  182.2620  178.9720  143.3330 C   0  0  0  0  0  3  0  0  0  0  0  0
  183.6590  179.0010  143.3360 C   0  0  0  0  0  3  0  0  0  0  0  0
  179.6860  177.3660  142.4500 N   0  0  0  0  0  2  0  0  0  0  0  0
  182.0190  177.1030  137.6940 C   0  0  2  0  0  3  0  0  0  0  0  0
  180.1820  176.5470  139.1450 N   0  0  0  0  0  0  0  0  0  0  0  0
  181.9950  178.5620  137.2020 C   0  0  2  0  0  3  0  0  0  0  0  0
  181.1720  175.8130  135.6090 C   0  0  0  0  0  1  0  0  0  0  0  0
  181.5250  178.5920  139.6050 C   0  0  1  0  0  3  0  0  0  0  0  0
  1  6  1  0  0  0  0
  1 21  1  0  0  0  0
  3 17  2  0  0  0  0
  4 22  1  0  0  0  0
  5 17  1  0  0  0  0
  6 23  1  0  0  0  0
  8  7  2  0  0  0  0
  8  2  2  0  0  0  0
  9 13  1  0  0  0  0
  9 14  1  0  0  0  0
 10  8  1  6  0  0  0
 10 28  1  0  0  0  0
 12 25  1  6  0  0  0
 12 28  1  0  0  0  0
 14  8  1  0  0  0  0
 15 11  2  0  0  0  0
 15 23  1  0  0  0  0
 16 20  1  0  0  0  0
 16  1  2  0  0  0  0
 17 25  1  0  0  0  0
 18  9  2  0  0  0  0
 19 15  1  0  0  0  0
 20  4  2  0  0  0  0
 21 22  2  0  0  0  0
 24  5  1  6  0  0  0
 24 12  1  0  0  0  0
 25 19  1  0  0  0  0
 26 13  1  1  0  0  0
 26 24  1  0  0  0  0
 26 10  1  0  0  0  0
 27  5  1  0  0  0  0
 28 16  1  1  0  0  0
M  END
>  <MODEL>
1

>  <REMARK>
 VINA RESULT:      -6.2      0.000      0.000
  Name = 
  0 active torsions:
  status: ('A' for Active; 'I' for Inactive)
                            x       y       z     vdW  Elec       q    Type
                         _______ _______ _______ _____ _____    ______ ____

>  <TORSDO>
F 0

$$$$
=
 OpenBabel11122411553D

 28 32  0  0  1  0  0  0  0  0999 V2000
  180.6280  179.4460  142.1320 C   0  0  0  0  0  0  0  0  0  0  0  0
  180.6230  175.9970  140.3420 O   0  0  0  0  0  0  0  0  0  0  0  0
  186.6370  178.0860  140.6590 O   0  0  0  0  0  0  0  0  0  0  0  0
  179.3410  181.2130  140.3770 C   0  0  0  0  0  3  0  0  0  0  0  0
  185.2990  178.6880  138.8170 N   0  0  0  0  0  0  0  0  0  0  0  0
  181.3390  178.5830  143.1240 C   0  0  0  0  0  2  0  0  0  0  0  0
  179.3750  176.7880  138.3780 O   0  0  0  0  0  0  0  0  0  0  0  0
  180.7420  176.4970  138.9290 S   0  0  0  0  0  0  0  0  0  0  0  0
  182.9030  175.4100  137.6740 C   0  0  0  0  0  0  0  0  0  0  0  0
  181.7240  177.9970  138.8650 C   0  0  2  0  0  3  0  0  0  0  0  0
  184.6240  180.0730  143.7460 O   0  0  0  0  0  0  0  0  0  0  0  0
  183.3720  179.3100  140.0860 C   0  0  2  0  0  3  0  0  0  0  0  0
  183.7070  176.4960  138.3100 C   0  0  0  0  0  2  0  0  0  0  0  0
  181.5120  175.2960  137.9560 N   0  0  0  0  0  2  0  0  0  0  0  0
  183.7730  179.2660  143.2880 C   0  0  0  0  0  0  0  0  0  0  0  0
  180.9800  179.4540  140.7670 C   0  0  0  0  0  0  0  0  0  0  0  0
  185.5460  178.5100  140.1930 C   0  0  0  0  0  0  0  0  0  0  0  0
  183.4950  174.4930  136.9870 N   0  0  0  0  0  2  0  0  0  0  0  0
  184.2010  178.2290  142.3040 C   0  0  0  0  0  2  0  0  0  0  0  0
  180.3360  180.3560  139.9020 C   0  0  0  0  0  3  0  0  0  0  0  0
  179.6330  180.3130  142.6010 C   0  0  0  0  0  3  0  0  0  0  0  0
  178.9870  181.1890  141.7260 C   0  0  0  0  0  3  0  0  0  0  0  0
  182.4190  179.3410  143.7390 N   0  0  0  0  0  2  0  0  0  0  0  0
  183.8900  179.0340  138.6520 C   0  0  2  0  0  3  0  0  0  0  0  0
  184.4210  178.8210  140.9890 N   0  0  0  0  0  0  0  0  0  0  0  0
  183.0440  177.8700  138.1040 C   0  0  2  0  0  3  0  0  0  0  0  0
  186.2520  178.4660  137.7420 C   0  0  0  0  0  1  0  0  0  0  0  0
  182.0620  178.5450  140.2440 C   0  0  1  0  0  3  0  0  0  0  0  0
  1 21  1  0  0  0  0
  1  6  1  0  0  0  0
  4 22  1  0  0  0  0
  5 17  1  0  0  0  0
  6 23  1  0  0  0  0
  7  8  2  0  0  0  0
  8  2  2  0  0  0  0
  9 14  1  0  0  0  0
  9 13  1  0  0  0  0
 10  8  1  1  0  0  0
 10 28  1  0  0  0  0
 12 28  1  0  0  0  0
 12 25  1  1  0  0  0
 14  8  1  0  0  0  0
 15 23  1  0  0  0  0
 15 11  2  0  0  0  0
 16  1  2  0  0  0  0
 17  3  2  0  0  0  0
 17 25  1  0  0  0  0
 18  9  2  0  0  0  0
 19 15  1  0  0  0  0
 20  4  2  0  0  0  0
 20 16  1  0  0  0  0
 22 21  2  0  0  0  0
 24  5  1  1  0  0  0
 24 12  1  0  0  0  0
 25 19  1  0  0  0  0
 26 13  1  1  0  0  0
 26 24  1  0  0  0  0
 26 10  1  0  0  0  0
 27  5  1  0  0  0  0
 28 16  1  6  0  0  0
M  END
>  <MODEL>
2

>  <REMARK>
 VINA RESULT:      -5.8      2.954      4.969
  Name = 
  0 active torsions:
  status: ('A' for Active; 'I' for Inactive)
                            x       y       z     vdW  Elec       q    Type
                         _______ _______ _______ _____ _____    ______ ____

>  <TORSDO>
F 0

$$$$
=
 OpenBabel11122411553D

 28 32  0  0  1  0  0  0  0  0999 V2000
  182.3610  176.9290  137.2820 C   0  0  0  0  0  0  0  0  0  0  0  0
  184.4920  173.7540  137.9760 O   0  0  0  0  0  0  0  0  0  0  0  0
  188.3220  178.8430  138.2440 O   0  0  0  0  0  0  0  0  0  0  0  0
  181.5860  176.7490  134.5940 C   0  0  0  0  0  3  0  0  0  0  0  0
  187.9700  177.7680  136.1790 N   0  0  0  0  0  0  0  0  0  0  0  0
  182.7380  177.1180  138.7160 C   0  0  0  0  0  2  0  0  0  0  0  0
  184.2040  172.8180  135.7230 O   0  0  0  0  0  0  0  0  0  0  0  0
  185.1110  173.6180  136.6130 S   0  0  0  0  0  0  0  0  0  0  0  0
  187.8320  173.5930  136.7590 C   0  0  0  0  0  0  0  0  0  0  0  0
  185.3770  175.2300  135.8710 C   0  0  2  0  0  3  0  0  0  0  0  0
  184.4800  180.3240  138.9990 O   0  0  0  0  0  0  0  0  0  0  0  0
  185.5940  177.6040  136.3720 C   0  0  2  0  0  3  0  0  0  0  0  0
  187.7580  175.0840  136.7680 C   0  0  0  0  0  2  0  0  0  0  0  0
  186.6360  172.8200  136.7490 N   0  0  0  0  0  2  0  0  0  0  0  0
  184.3280  179.0760  138.9500 C   0  0  0  0  0  0  0  0  0  0  0  0
  183.3170  176.5960  136.3010 C   0  0  0  0  0  0  0  0  0  0  0  0
  187.5420  178.3310  137.3980 C   0  0  0  0  0  0  0  0  0  0  0  0
  188.9720  173.0080  136.9080 N   0  0  0  0  0  2  0  0  0  0  0  0
  185.5310  178.1920  138.9070 C   0  0  0  0  0  2  0  0  0  0  0  0
  182.9160  176.5230  134.9550 C   0  0  0  0  0  3  0  0  0  0  0  0
  181.0310  177.1590  136.9110 C   0  0  0  0  0  3  0  0  0  0  0  0
  180.6430  177.0630  135.5720 C   0  0  0  0  0  3  0  0  0  0  0  0
  183.0090  178.5270  138.9640 N   0  0  0  0  0  2  0  0  0  0  0  0
  186.8180  177.1360  135.5440 C   0  0  2  0  0  3  0  0  0  0  0  0
  186.1460  178.2190  137.5850 N   0  0  0  0  0  0  0  0  0  0  0  0
  186.8430  175.6000  135.6420 C   0  0  2  0  0  3  0  0  0  0  0  0
  189.3380  177.7330  135.6870 C   0  0  0  0  0  1  0  0  0  0  0  0
  184.7580  176.3640  136.6750 C   0  0  1  0  0  3  0  0  0  0  0  0
  1  6  1  0  0  0  0
  4 20  2  0  0  0  0
  4 22  1  0  0  0  0
  5 17  1  0  0  0  0
  6 23  1  0  0  0  0
  7  8  2  0  0  0  0
  8 14  1  0  0  0  0
  8  2  2  0  0  0  0
  9 13  1  0  0  0  0
  9 18  2  0  0  0  0
 10  8  1  1  0  0  0
 10 28  1  0  0  0  0
 12 28  1  0  0  0  0
 12 25  1  1  0  0  0
 14  9  1  0  0  0  0
 15 23  1  0  0  0  0
 15 11  2  0  0  0  0
 16  1  2  0  0  0  0
 17 25  1  0  0  0  0
 17  3  2  0  0  0  0
 19 15  1  0  0  0  0
 20 16  1  0  0  0  0
 21  1  1  0  0  0  0
 22 21  2  0  0  0  0
 24 26  1  0  0  0  0
 24  5  1  1  0  0  0
 24 12  1  0  0  0  0
 25 19  1  0  0  0  0
 26 10  1  0  0  0  0
 26 13  1  1  0  0  0
 27  5  1  0  0  0  0
 28 16  1  6  0  0  0
M  END
>  <MODEL>
3

>  <REMARK>
 VINA RESULT:      -5.6      4.978      7.529
  Name = 
  0 active torsions:
  status: ('A' for Active; 'I' for Inactive)
                            x       y       z     vdW  Elec       q    Type
                         _______ _______ _______ _____ _____    ______ ____

>  <TORSDO>
F 0

$$$$
=
 OpenBabel11122411553D

 28 32  0  0  1  0  0  0  0  0999 V2000
  189.1850  175.2590  136.3470 C   0  0  0  0  0  0  0  0  0  0  0  0
  188.5050  176.9670  139.7710 O   0  0  0  0  0  0  0  0  0  0  0  0
  182.9830  174.7180  137.5170 O   0  0  0  0  0  0  0  0  0  0  0  0
  189.8910  177.3290  134.5940 C   0  0  0  0  0  3  0  0  0  0  0  0
  183.6730  176.8910  136.9290 N   0  0  0  0  0  0  0  0  0  0  0  0
  188.8040  174.0940  137.2030 C   0  0  0  0  0  2  0  0  0  0  0  0
  189.0760  179.2250  138.9900 O   0  0  0  0  0  0  0  0  0  0  0  0
  187.9520  178.2640  139.2490 S   0  0  0  0  0  0  0  0  0  0  0  0
  185.4690  178.7570  140.2570 C   0  0  0  0  0  0  0  0  0  0  0  0
  187.0490  178.0020  137.7210 C   0  0  2  0  0  3  0  0  0  0  0  0
  185.9450  172.4390  135.6290 O   0  0  0  0  0  0  0  0  0  0  0  0
  185.9240  176.3100  136.3780 C   0  0  2  0  0  3  0  0  0  0  0  0
  184.9470  177.8920  139.1580 C   0  0  0  0  0  2  0  0  0  0  0  0
  186.8720  178.9400  140.4140 N   0  0  0  0  0  2  0  0  0  0  0  0
  186.5770  173.1500  136.4530 C   0  0  0  0  0  0  0  0  0  0  0  0
  188.4120  176.4370  136.3110 C   0  0  0  0  0  0  0  0  0  0  0  0
  183.8770  175.5090  137.1170 C   0  0  0  0  0  0  0  0  0  0  0  0
  184.6580  179.2200  141.1480 N   0  0  0  0  0  2  0  0  0  0  0  0
  185.8220  173.9470  137.4650 C   0  0  0  0  0  2  0  0  0  0  0  0
  188.7700  177.4610  135.4160 C   0  0  0  0  0  3  0  0  0  0  0  0
  190.3040  175.1330  135.5160 C   0  0  0  0  0  3  0  0  0  0  0  0
  190.6600  176.1670  134.6470 C   0  0  0  0  0  3  0  0  0  0  0  0
  188.0050  173.1600  136.4220 N   0  0  0  0  0  2  0  0  0  0  0  0
  184.9630  177.5000  136.6200 C   0  0  2  0  0  3  0  0  0  0  0  0
  185.2080  175.1180  136.8490 N   0  0  0  0  0  0  0  0  0  0  0  0
  185.5500  178.2960  137.8010 C   0  0  2  0  0  3  0  0  0  0  0  0
  182.4180  177.6020  137.1090 C   0  0  0  0  0  1  0  0  0  0  0  0
  187.1910  176.5860  137.1820 C   0  0  1  0  0  3  0  0  0  0  0  0
  1  6  1  0  0  0  0
  4 22  2  0  0  0  0
  4 20  1  0  0  0  0
  5 27  1  0  0  0  0
  5 17  1  0  0  0  0
  7  8  2  0  0  0  0
  8  2  2  0  0  0  0
  8 14  1  0  0  0  0
  9 14  1  0  0  0  0
  9 18  2  0  0  0  0
 10 26  1  0  0  0  0
 10  8  1  1  0  0  0
 11 15  2  0  0  0  0
 12 24  1  0  0  0  0
 12 25  1  1  0  0  0
 12 28  1  0  0  0  0
 13  9  1  0  0  0  0
 15 19  1  0  0  0  0
 16  1  1  0  0  0  0
 17  3  2  0  0  0  0
 20 16  2  0  0  0  0
 21  1  2  0  0  0  0
 22 21  1  0  0  0  0
 23 15  1  0  0  0  0
 23  6  1  0  0  0  0
 24  5  1  1  0  0  0
 24 26  1  0  0  0  0
 25 17  1  0  0  0  0
 25 19  1  0  0  0  0
 26 13  1  1  0  0  0
 28 16  1  6  0  0  0
 28 10  1  0  0  0  0
M  END
>  <MODEL>
4

>  <REMARK>
 VINA RESULT:      -5.3      5.992      7.648
  Name = 
  0 active torsions:
  status: ('A' for Active; 'I' for Inactive)
                            x       y       z     vdW  Elec       q    Type
                         _______ _______ _______ _____ _____    ______ ____

>  <TORSDO>
F 0

$$$$
=
 OpenBabel11122411553D

 28 32  0  0  1  0  0  0  0  0999 V2000
  183.3680  175.9690  136.1830 C   0  0  0  0  0  0  0  0  0  0  0  0
  180.8730  178.9380  136.4380 O   0  0  0  0  0  0  0  0  0  0  0  0
  185.3770  179.7120  140.8820 O   0  0  0  0  0  0  0  0  0  0  0  0
  181.9340  173.7020  136.9960 C   0  0  0  0  0  3  0  0  0  0  0  0
  183.4490  178.4620  141.3950 N   0  0  0  0  0  0  0  0  0  0  0  0
  184.2160  177.1220  135.7510 C   0  0  0  0  0  2  0  0  0  0  0  0
  178.9750  177.5490  137.1480 O   0  0  0  0  0  0  0  0  0  0  0  0
  180.0840  178.4450  137.6190 S   0  0  0  0  0  0  0  0  0  0  0  0
  180.0730  180.2770  139.6350 C   0  0  0  0  0  0  0  0  0  0  0  0
  181.1340  177.5230  138.7460 C   0  0  2  0  0  3  0  0  0  0  0  0
  187.1230  177.2630  137.9690 O   0  0  0  0  0  0  0  0  0  0  0  0
  183.4500  177.1490  139.3980 C   0  0  2  0  0  3  0  0  0  0  0  0
  181.3850  179.6980  140.0510 C   0  0  0  0  0  2  0  0  0  0  0  0
  179.4170  179.7910  138.4690 N   0  0  0  0  0  2  0  0  0  0  0  0
  186.0090  177.5830  137.4800 C   0  0  0  0  0  0  0  0  0  0  0  0
  182.5830  176.0220  137.3530 C   0  0  0  0  0  0  0  0  0  0  0  0
  184.5390  178.8230  140.5770 C   0  0  0  0  0  0  0  0  0  0  0  0
  179.6060  181.3110  140.2500 N   0  0  0  0  0  2  0  0  0  0  0  0
  185.1870  178.6330  138.1510 C   0  0  0  0  0  2  0  0  0  0  0  0
  181.8800  174.8720  137.7550 C   0  0  0  0  0  3  0  0  0  0  0  0
  183.4200  174.7900  135.4300 C   0  0  0  0  0  3  0  0  0  0  0  0
  182.7000  173.6620  135.8320 C   0  0  0  0  0  3  0  0  0  0  0  0
  185.5630  176.9550  136.2760 N   0  0  0  0  0  2  0  0  0  0  0  0
  182.6150  177.5250  140.6480 C   0  0  2  0  0  3  0  0  0  0  0  0
  184.5610  178.1080  139.3590 N   0  0  0  0  0  0  0  0  0  0  0  0
  181.3150  178.1620  140.1230 C   0  0  2  0  0  3  0  0  0  0  0  0
  183.1510  179.0030  142.7110 C   0  0  0  0  0  1  0  0  0  0  0  0
  182.5280  177.2740  138.1900 C   0  0  1  0  0  3  0  0  0  0  0  0
  1 16  1  0  0  0  0
  2  8  2  0  0  0  0
  4 20  1  0  0  0  0
  5 27  1  0  0  0  0
  6  1  1  0  0  0  0
  6 23  1  0  0  0  0
  7  8  2  0  0  0  0
  8 14  1  0  0  0  0
  9 13  1  0  0  0  0
  9 18  2  0  0  0  0
 10  8  1  6  0  0  0
 10 26  1  0  0  0  0
 12 25  1  6  0  0  0
 12 24  1  0  0  0  0
 14  9  1  0  0  0  0
 15 11  2  0  0  0  0
 15 19  1  0  0  0  0
 16 20  2  0  0  0  0
 17  3  2  0  0  0  0
 17  5  1  0  0  0  0
 19 25  1  0  0  0  0
 21 22  1  0  0  0  0
 21  1  2  0  0  0  0
 22  4  2  0  0  0  0
 23 15  1  0  0  0  0
 24  5  1  1  0  0  0
 25 17  1  0  0  0  0
 26 13  1  6  0  0  0
 26 24  1  0  0  0  0
 28 16  1  1  0  0  0
 28 10  1  0  0  0  0
 28 12  1  0  0  0  0
M  END
>  <MODEL>
5

>  <REMARK>
 VINA RESULT:      -4.9      2.989      6.055
  Name = 
  0 active torsions:
  status: ('A' for Active; 'I' for Inactive)
                            x       y       z     vdW  Elec       q    Type
                         _______ _______ _______ _____ _____    ______ ____

>  <TORSDO>
F 0

$$$$
=
 OpenBabel11122411553D

 28 32  0  0  1  0  0  0  0  0999 V2000
  182.4040  178.3420  139.6870 C   0  0  0  0  0  0  0  0  0  0  0  0
  183.5030  174.8160  138.4780 O   0  0  0  0  0  0  0  0  0  0  0  0
  188.7330  178.1720  139.8980 O   0  0  0  0  0  0  0  0  0  0  0  0
  181.3210  179.6120  137.4350 C   0  0  0  0  0  3  0  0  0  0  0  0
  187.8380  178.2910  137.7230 N   0  0  0  0  0  0  0  0  0  0  0  0
  182.9770  177.7530  140.9350 C   0  0  0  0  0  2  0  0  0  0  0  0
  182.6910  175.1250  136.1800 O   0  0  0  0  0  0  0  0  0  0  0  0
  183.8950  175.1900  137.0760 S   0  0  0  0  0  0  0  0  0  0  0  0
  186.4700  174.4790  136.5440 C   0  0  0  0  0  0  0  0  0  0  0  0
  184.5660  176.8540  137.0250 C   0  0  2  0  0  3  0  0  0  0  0  0
  185.6510  179.9680  142.0910 O   0  0  0  0  0  0  0  0  0  0  0  0
  185.5650  178.6030  138.3930 C   0  0  2  0  0  3  0  0  0  0  0  0
  186.8670  175.7690  137.1840 C   0  0  0  0  0  2  0  0  0  0  0  0
  185.1000  174.0960  136.5020 N   0  0  0  0  0  2  0  0  0  0  0  0
  185.1130  178.9570  141.5690 C   0  0  0  0  0  0  0  0  0  0  0  0
  183.0940  178.2940  138.4580 C   0  0  0  0  0  0  0  0  0  0  0  0
  187.7440  178.3050  139.1300 C   0  0  0  0  0  0  0  0  0  0  0  0
  187.3810  173.6490  136.1610 N   0  0  0  0  0  2  0  0  0  0  0  0
  185.9680  177.9460  140.8790 C   0  0  0  0  0  2  0  0  0  0  0  0
  182.5450  178.9470  137.3410 C   0  0  0  0  0  3  0  0  0  0  0  0
  181.1790  179.0150  139.7730 C   0  0  0  0  0  3  0  0  0  0  0  0
  180.6360  179.6420  138.6490 C   0  0  0  0  0  3  0  0  0  0  0  0
  183.6990  178.7820  141.6700 N   0  0  0  0  0  2  0  0  0  0  0  0
  186.4830  178.3070  137.1800 C   0  0  2  0  0  3  0  0  0  0  0  0
  186.4120  178.4410  139.5810 N   0  0  0  0  0  0  0  0  0  0  0  0
  186.0400  176.9410  136.6260 C   0  0  2  0  0  3  0  0  0  0  0  0
  189.0630  178.1760  136.9500 C   0  0  0  0  0  1  0  0  0  0  0  0
  184.4240  177.5930  138.3470 C   0  0  1  0  0  3  0  0  0  0  0  0
  1 21  1  0  0  0  0
  1  6  1  0  0  0  0
  4 22  1  0  0  0  0
  5 17  1  0  0  0  0
  6 23  1  0  0  0  0
  7  8  2  0  0  0  0
  8  2  2  0  0  0  0
  9 13  1  0  0  0  0
 10  8  1  1  0  0  0
 10 28  1  0  0  0  0
 12 25  1  1  0  0  0
 14  9  1  0  0  0  0
 14  8  1  0  0  0  0
 15 23  1  0  0  0  0
 15 11  2  0  0  0  0
 16  1  2  0  0  0  0
 17 25  1  0  0  0  0
 17  3  2  0  0  0  0
 18  9  2  0  0  0  0
 19 15  1  0  0  0  0
 20  4  2  0  0  0  0
 20 16  1  0  0  0  0
 22 21  2  0  0  0  0
 24  5  1  1  0  0  0
 24 12  1  0  0  0  0
 25 19  1  0  0  0  0
 26 10  1  0  0  0  0
 26 24  1  0  0  0  0
 26 13  1  1  0  0  0
 27  5  1  0  0  0  0
 28 12  1  0  0  0  0
 28 16  1  6  0  0  0
M  END
>  <MODEL>
6

>  <REMARK>
 VINA RESULT:      -4.9      4.341      6.395
  Name = 
  0 active torsions:
  status: ('A' for Active; 'I' for Inactive)
                            x       y       z     vdW  Elec       q    Type
                         _______ _______ _______ _____ _____    ______ ____

>  <TORSDO>
F 0

$$$$
=
 OpenBabel11122411553D

 28 32  0  0  1  0  0  0  0  0999 V2000
  189.6710  177.1380  138.1500 C   0  0  0  0  0  0  0  0  0  0  0  0
  189.4550  173.3400  137.3550 O   0  0  0  0  0  0  0  0  0  0  0  0
  195.6040  175.0100  137.5260 O   0  0  0  0  0  0  0  0  0  0  0  0
  188.6300  178.4440  135.8990 C   0  0  0  0  0  3  0  0  0  0  0  0
  194.4160  175.1780  135.5000 N   0  0  0  0  0  0  0  0  0  0  0  0
  190.2550  176.5310  139.3840 C   0  0  0  0  0  2  0  0  0  0  0  0
  188.3790  173.6500  135.1680 O   0  0  0  0  0  0  0  0  0  0  0  0
  189.6860  173.4260  135.8720 S   0  0  0  0  0  0  0  0  0  0  0  0
  191.8040  171.8900  135.1110 C   0  0  0  0  0  0  0  0  0  0  0  0
  190.7970  174.7790  135.4780 C   0  0  2  0  0  3  0  0  0  0  0  0
  193.6210  177.9000  139.8160 O   0  0  0  0  0  0  0  0  0  0  0  0
  192.4900  176.2570  136.4150 C   0  0  2  0  0  3  0  0  0  0  0  0
  192.6680  173.0480  135.4880 C   0  0  0  0  0  2  0  0  0  0  0  0
  190.3960  171.9540  135.3140 N   0  0  0  0  0  2  0  0  0  0  0  0
  192.7280  177.0610  139.5320 C   0  0  0  0  0  0  0  0  0  0  0  0
  190.0890  176.7490  136.8610 C   0  0  0  0  0  0  0  0  0  0  0  0
  194.5790  175.3670  136.8870 C   0  0  0  0  0  0  0  0  0  0  0  0
  192.3490  170.7800  134.7390 N   0  0  0  0  0  2  0  0  0  0  0  0
  193.1120  175.7670  138.8950 C   0  0  0  0  0  2  0  0  0  0  0  0
  189.5680  177.4220  135.7420 C   0  0  0  0  0  3  0  0  0  0  0  0
  188.7330  178.1670  138.2980 C   0  0  0  0  0  3  0  0  0  0  0  0
  188.2090  178.8140  137.1760 C   0  0  0  0  0  3  0  0  0  0  0  0
  191.3650  177.3510  139.8490 N   0  0  0  0  0  2  0  0  0  0  0  0
  193.0530  175.5640  135.1490 C   0  0  2  0  0  3  0  0  0  0  0  0
  193.4470  175.9610  137.4890 N   0  0  0  0  0  0  0  0  0  0  0  0
  192.1370  174.3570  134.8750 C   0  0  2  0  0  3  0  0  0  0  0  0
  195.3980  174.6050  134.5940 C   0  0  0  0  0  1  0  0  0  0  0  0
  191.1130  175.6580  136.6790 C   0  0  1  0  0  3  0  0  0  0  0  0
  1 21  1  0  0  0  0
  1  6  1  0  0  0  0
  4 22  1  0  0  0  0
  5 17  1  0  0  0  0
  6 23  1  0  0  0  0
  7  8  2  0  0  0  0
  8  2  2  0  0  0  0
  9 14  1  0  0  0  0
  9 13  1  0  0  0  0
 10  8  1  1  0  0  0
 10 28  1  0  0  0  0
 12 28  1  0  0  0  0
 12 25  1  1  0  0  0
 14  8  1  0  0  0  0
 15 11  2  0  0  0  0
 15 23  1  0  0  0  0
 16  1  2  0  0  0  0
 17 25  1  0  0  0  0
 17  3  2  0  0  0  0
 18  9  2  0  0  0  0
 19 15  1  0  0  0  0
 20  4  2  0  0  0  0
 20 16  1  0  0  0  0
 22 21  2  0  0  0  0
 24  5  1  1  0  0  0
 24 12  1  0  0  0  0
 25 19  1  0  0  0  0
 26 24  1  0  0  0  0
 26 10  1  0  0  0  0
 26 13  1  1  0  0  0
 27  5  1  0  0  0  0
 28 16  1  6  0  0  0
M  END
>  <MODEL>
7

>  <REMARK>
 VINA RESULT:      -4.8     10.433     12.122
  Name = 
  0 active torsions:
  status: ('A' for Active; 'I' for Inactive)
                            x       y       z     vdW  Elec       q    Type
                         _______ _______ _______ _____ _____    ______ ____

>  <TORSDO>
F 0

$$$$
=
 OpenBabel11122411553D

 28 32  0  0  1  0  0  0  0  0999 V2000
  185.8250  174.9350  136.2670 C   0  0  0  0  0  0  0  0  0  0  0  0
  182.7320  176.5950  134.5990 O   0  0  0  0  0  0  0  0  0  0  0  0
  184.4420  180.1280  139.6220 O   0  0  0  0  0  0  0  0  0  0  0  0
  184.8950  172.5270  137.3610 C   0  0  0  0  0  3  0  0  0  0  0  0
  182.9280  178.3490  139.9210 N   0  0  0  0  0  0  0  0  0  0  0  0
  186.4070  176.2040  135.7330 C   0  0  0  0  0  2  0  0  0  0  0  0
  181.1990  174.7510  135.1300 O   0  0  0  0  0  0  0  0  0  0  0  0
  181.6880  176.1030  135.5620 S   0  0  0  0  0  0  0  0  0  0  0  0
  180.2830  178.1730  136.6410 C   0  0  0  0  0  0  0  0  0  0  0  0
  182.3620  175.9730  137.2200 C   0  0  2  0  0  3  0  0  0  0  0  0
  187.8940  178.0200  138.5400 O   0  0  0  0  0  0  0  0  0  0  0  0
  184.1680  176.7380  138.6640 C   0  0  2  0  0  3  0  0  0  0  0  0
  181.3910  178.2930  137.6340 C   0  0  0  0  0  2  0  0  0  0  0  0
  180.3650  177.2110  135.5940 N   0  0  0  0  0  2  0  0  0  0  0  0
  187.0610  177.7360  137.6400 C   0  0  0  0  0  0  0  0  0  0  0  0
  184.6320  174.9240  137.0200 C   0  0  0  0  0  0  0  0  0  0  0  0
  184.1110  178.9300  139.4190 C   0  0  0  0  0  0  0  0  0  0  0  0
  179.3230  179.0350  136.6460 N   0  0  0  0  0  2  0  0  0  0  0  0
  185.7680  178.4790  137.5770 C   0  0  0  0  0  2  0  0  0  0  0  0
  184.1860  173.7110  137.5730 C   0  0  0  0  0  3  0  0  0  0  0  0
  186.5320  173.7440  136.0640 C   0  0  0  0  0  3  0  0  0  0  0  0
  186.0650  172.5430  136.6030 C   0  0  0  0  0  3  0  0  0  0  0  0
  187.3800  176.7270  136.6800 N   0  0  0  0  0  2  0  0  0  0  0  0
  182.8060  177.0110  139.3510 C   0  0  2  0  0  3  0  0  0  0  0  0
  184.8610  178.0310  138.6270 N   0  0  0  0  0  0  0  0  0  0  0  0
  181.7390  176.9230  138.2440 C   0  0  2  0  0  3  0  0  0  0  0  0
  181.9500  179.0020  140.7740 C   0  0  0  0  0  1  0  0  0  0  0  0
  183.8660  176.1980  137.2700 C   0  0  1  0  0  3  0  0  0  0  0  0
  1 16  1  0  0  0  0
  2  8  2  0  0  0  0
  4 20  1  0  0  0  0
  5 27  1  0  0  0  0
  6  1  1  0  0  0  0
  6 23  1  0  0  0  0
  7  8  2  0  0  0  0
  8 14  1  0  0  0  0
  9 18  2  0  0  0  0
  9 13  1  0  0  0  0
 10  8  1  6  0  0  0
 10 28  1  0  0  0  0
 10 26  1  0  0  0  0
 12 25  1  6  0  0  0
 12 24  1  0  0  0  0
 14  9  1  0  0  0  0
 15 11  2  0  0  0  0
 16 20  2  0  0  0  0
 17  3  2  0  0  0  0
 17  5  1  0  0  0  0
 19 15  1  0  0  0  0
 19 25  1  0  0  0  0
 21  1  2  0  0  0  0
 21 22  1  0  0  0  0
 22  4  2  0  0  0  0
 23 15  1  0  0  0  0
 24  5  1  6  0  0  0
 25 17  1  0  0  0  0
 26 13  1  6  0  0  0
 26 24  1  0  0  0  0
 28 16  1  1  0  0  0
 28 12  1  0  0  0  0
M  END
>  <MODEL>
8

>  <REMARK>
 VINA RESULT:      -4.8      3.897      6.523
  Name = 
  0 active torsions:
  status: ('A' for Active; 'I' for Inactive)
                            x       y       z     vdW  Elec       q    Type
                         _______ _______ _______ _____ _____    ______ ____

>  <TORSDO>
F 0

$$$$
=
 OpenBabel11122411553D

 28 32  0  0  1  0  0  0  0  0999 V2000
  182.7250  180.0700  138.9400 C   0  0  0  0  0  0  0  0  0  0  0  0
  181.2340  177.8710  141.7770 O   0  0  0  0  0  0  0  0  0  0  0  0
  183.3410  174.0240  137.1520 O   0  0  0  0  0  0  0  0  0  0  0  0
  180.5480  181.4300  137.8120 C   0  0  0  0  0  3  0  0  0  0  0  0
  181.1350  174.8420  137.0600 N   0  0  0  0  0  0  0  0  0  0  0  0
  183.9410  179.3780  139.4650 C   0  0  0  0  0  2  0  0  0  0  0  0
  178.9310  178.6680  141.4640 O   0  0  0  0  0  0  0  0  0  0  0  0
  179.9070  177.5760  141.1350 S   0  0  0  0  0  0  0  0  0  0  0  0
  179.4790  174.8920  140.9390 C   0  0  0  0  0  0  0  0  0  0  0  0
  180.0740  177.4660  139.3510 C   0  0  2  0  0  3  0  0  0  0  0  0
  185.4960  177.5830  136.6810 O   0  0  0  0  0  0  0  0  0  0  0  0
  181.6790  177.1160  137.5540 C   0  0  2  0  0  3  0  0  0  0  0  0
  180.2740  174.9460  139.6760 C   0  0  0  0  0  2  0  0  0  0  0  0
  179.3060  176.0680  141.7220 N   0  0  0  0  0  2  0  0  0  0  0  0
  184.8370  177.7550  137.7400 C   0  0  0  0  0  0  0  0  0  0  0  0
  181.5460  179.3620  138.6230 C   0  0  0  0  0  0  0  0  0  0  0  0
  182.5260  174.9790  137.2440 C   0  0  0  0  0  0  0  0  0  0  0  0
  179.0740  173.7540  141.3920 N   0  0  0  0  0  2  0  0  0  0  0  0
  184.1050  176.6030  138.3440 C   0  0  0  0  0  2  0  0  0  0  0  0
  180.4690  180.0560  138.0460 C   0  0  0  0  0  3  0  0  0  0  0  0
  182.7980  181.4460  138.6970 C   0  0  0  0  0  3  0  0  0  0  0  0
  181.7110  182.1260  138.1410 C   0  0  0  0  0  3  0  0  0  0  0  0
  184.8240  179.0430  138.3580 N   0  0  0  0  0  2  0  0  0  0  0  0
  180.5070  176.1150  137.4020 C   0  0  2  0  0  3  0  0  0  0  0  0
  182.8980  176.2990  137.5840 N   0  0  0  0  0  0  0  0  0  0  0  0
  179.7860  176.0840  138.7620 C   0  0  2  0  0  3  0  0  0  0  0  0
  180.4370  173.6200  136.6940 C   0  0  0  0  0  1  0  0  0  0  0  0
  181.4530  177.8760  138.8560 C   0  0  1  0  0  3  0  0  0  0  0  0
  1  6  1  0  0  0  0
  3 17  2  0  0  0  0
  4 20  2  0  0  0  0
  4 22  1  0  0  0  0
  5 17  1  0  0  0  0
  8  7  2  0  0  0  0
  8 14  1  0  0  0  0
  8  2  2  0  0  0  0
  9 18  2  0  0  0  0
  9 14  1  0  0  0  0
 10  8  1  1  0  0  0
 11 15  2  0  0  0  0
 12 25  1  1  0  0  0
 12 28  1  0  0  0  0
 13  9  1  0  0  0  0
 15 19  1  0  0  0  0
 15 23  1  0  0  0  0
 16  1  2  0  0  0  0
 17 25  1  0  0  0  0
 20 16  1  0  0  0  0
 21  1  1  0  0  0  0
 22 21  2  0  0  0  0
 23  6  1  0  0  0  0
 24  5  1  1  0  0  0
 24 12  1  0  0  0  0
 24 26  1  0  0  0  0
 25 19  1  0  0  0  0
 26 10  1  0  0  0  0
 26 13  1  1  0  0  0
 27  5  1  0  0  0  0
 28 16  1  6  0  0  0
 28 10  1  0  0  0  0
M  END
>  <MODEL>
9

>  <REMARK>
 VINA RESULT:      -4.7      3.025      5.152
  Name = 
  0 active torsions:
  status: ('A' for Active; 'I' for Inactive)
                            x       y       z     vdW  Elec       q    Type
                         _______ _______ _______ _____ _____    ______ ____

>  <TORSDO>
F 0

$$$$
