=
 OpenBabel11122410553D

 31 35  0  0  1  0  0  0  0  0999 V2000
  188.8330  177.6720  143.8030 C   0  0  0  0  0  0  0  0  0  0  0  0
  186.7630  178.9790  140.9720 C   0  0  2  0  0  3  0  0  0  0  0  0
  187.1940  178.1250  139.7980 C   0  0  0  0  0  0  0  0  0  0  0  0
  188.8670  176.8340  138.7190 C   0  0  0  0  0  0  0  0  0  0  0  0
  187.1340  178.3580  142.2990 C   0  0  0  0  0  0  0  0  0  0  0  0
  187.9000  177.1740  144.6550 N   0  0  0  0  0  0  0  0  0  0  0  0
  188.4280  177.5500  139.7850 N   0  0  0  0  0  0  0  0  0  0  0  0
  184.3650  178.2680  141.4590 C   0  0  2  0  0  3  0  0  0  0  0  0
  190.2140  177.5790  144.1270 N   0  0  0  0  0  1  0  0  0  0  0  0
  185.0090  178.6070  138.6240 C   0  0  0  0  0  2  0  0  0  0  0  0
  190.2130  176.2070  138.7420 C   0  0  0  0  0  1  0  0  0  0  0  0
  184.6880  178.0300  142.9310 C   0  0  0  0  0  2  0  0  0  0  0  0
  185.2720  179.3740  140.8980 C   0  0  2  0  0  3  0  0  0  0  0  0
  188.4470  178.2580  142.6390 N   0  0  0  0  0  0  0  0  0  0  0  0
  188.0460  176.6940  137.6010 C   0  0  0  0  0  3  0  0  0  0  0  0
  186.1550  177.8420  143.1720 C   0  0  0  0  0  0  0  0  0  0  0  0
  186.5760  177.2570  144.3650 C   0  0  0  0  0  3  0  0  0  0  0  0
  184.9030  179.7550  139.5280 N   0  0  0  0  0  2  0  0  0  0  0  0
  186.3830  178.0110  138.6540 C   0  0  0  0  0  0  0  0  0  0  0  0
  186.8220  177.2840  137.5940 N   0  0  0  0  0  0  0  0  0  0  0  0
  182.3950  176.8190  139.9980 O   0  0  0  0  0  0  0  0  0  0  0  0
  182.0270  177.8760  140.5790 C   0  0  0  0  0  0  0  0  0  0  0  0
  182.9670  178.6520  141.3250 N   0  0  0  0  0  2  0  0  0  0  0  0
  179.9950  178.8820  143.1870 C   0  0  0  0  0  0  0  0  0  0  0  0
  180.4520  179.8270  140.8880 C   0  0  0  0  0  2  0  0  0  0  0  0
  179.6580  176.1620  140.6920 C   0  0  0  0  0  1  0  0  0  0  0  0
  179.8000  179.0840  144.4130 O   0  0  0  0  0  0  0  0  0  0  0  0
  180.4090  179.9590  142.3440 N   0  0  0  0  0  2  0  0  0  0  0  0
  179.6200  177.5280  141.1940 N   0  0  0  0  0  0  0  0  0  0  0  0
  180.6020  178.3600  140.4710 C   0  0  2  0  0  3  0  0  0  0  0  0
  179.8960  177.4930  142.6330 C   0  0  0  0  0  2  0  0  0  0  0  0
  1  9  1  0  0  0  0
  1  6  2  0  0  0  0
  2  3  1  6  0  0  0
  2  5  1  0  0  0  0
  4 11  1  0  0  0  0
  4  7  2  0  0  0  0
  5 14  2  0  0  0  0
  5 16  1  0  0  0  0
  7  3  1  0  0  0  0
  8 23  1  1  0  0  0
  8 12  1  0  0  0  0
 10 19  1  0  0  0  0
 10 18  1  0  0  0  0
 12 16  1  0  0  0  0
 13 18  1  6  0  0  0
 13  2  1  0  0  0  0
 13  8  1  0  0  0  0
 14  1  1  0  0  0  0
 15  4  1  0  0  0  0
 16 17  2  0  0  0  0
 17  6  1  0  0  0  0
 19  3  2  0  0  0  0
 20 15  2  0  0  0  0
 20 19  1  0  0  0  0
 21 22  2  0  0  0  0
 22 23  1  0  0  0  0
 24 27  2  0  0  0  0
 25 28  1  0  0  0  0
 26 29  1  0  0  0  0
 28 24  1  0  0  0  0
 29 31  1  0  0  0  0
 30 22  1  1  0  0  0
 30 25  1  0  0  0  0
 30 29  1  0  0  0  0
 31 24  1  0  0  0  0
M  END
>  <MODEL>
1

>  <REMARK>
 VINA RESULT:      -7.6      0.000      0.000
  Name = 
  2 active torsions:
  status: ('A' for Active; 'I' for Inactive)
    1  A    between atoms: C_5  and  C_30
    2  A    between atoms: C_10  and  N_16
                            x       y       z     vdW  Elec       q    Type
                         _______ _______ _______ _____ _____    ______ ____

>  <TORSDO>
F 2

$$$$
=
 OpenBabel11122410553D

 31 35  0  0  1  0  0  0  0  0999 V2000
  185.1760  178.4750  138.9670 C   0  0  0  0  0  0  0  0  0  0  0  0
  188.8720  178.2280  139.4980 C   0  0  2  0  0  3  0  0  0  0  0  0
  188.9890  177.5250  140.8340 C   0  0  0  0  0  0  0  0  0  0  0  0
  188.0820  177.0430  142.9740 C   0  0  0  0  0  0  0  0  0  0  0  0
  187.5070  178.0530  138.8760 C   0  0  0  0  0  0  0  0  0  0  0  0
  184.9790  177.7200  137.8550 N   0  0  0  0  0  0  0  0  0  0  0  0
  187.9790  177.6080  141.7430 N   0  0  0  0  0  0  0  0  0  0  0  0
  189.7240  176.5420  137.7880 C   0  0  2  0  0  3  0  0  0  0  0  0
  184.0700  179.0950  139.6110 N   0  0  0  0  0  1  0  0  0  0  0  0
  191.3150  176.7410  140.2370 C   0  0  0  0  0  2  0  0  0  0  0  0
  186.9560  177.1400  143.9380 C   0  0  0  0  0  1  0  0  0  0  0  0
  188.4640  176.6970  136.9430 C   0  0  0  0  0  2  0  0  0  0  0  0
  190.0170  177.8540  138.5330 C   0  0  2  0  0  3  0  0  0  0  0  0
  186.4290  178.6370  139.4660 N   0  0  0  0  0  0  0  0  0  0  0  0
  189.2540  176.3740  143.3260 C   0  0  0  0  0  3  0  0  0  0  0  0
  187.3160  177.2640  137.7230 C   0  0  0  0  0  0  0  0  0  0  0  0
  186.0230  177.1240  137.2240 C   0  0  0  0  0  3  0  0  0  0  0  0
  191.3030  177.8160  139.2420 N   0  0  0  0  0  2  0  0  0  0  0  0
  190.1820  176.8790  141.2060 C   0  0  0  0  0  0  0  0  0  0  0  0
  190.2770  176.3050  142.4340 N   0  0  0  0  0  0  0  0  0  0  0  0
  191.2240  174.1250  137.9410 O   0  0  0  0  0  0  0  0  0  0  0  0
  191.5550  174.9600  137.0550 C   0  0  0  0  0  0  0  0  0  0  0  0
  190.8460  176.1940  136.9280 N   0  0  0  0  0  2  0  0  0  0  0  0
  194.4780  173.3130  137.8810 C   0  0  0  0  0  0  0  0  0  0  0  0
  192.9300  173.1920  135.8870 C   0  0  0  0  0  2  0  0  0  0  0  0
  193.8340  176.7530  136.6610 C   0  0  0  0  0  1  0  0  0  0  0  0
  195.2040  172.7150  138.7150 O   0  0  0  0  0  0  0  0  0  0  0  0
  193.6340  172.5630  137.0030 N   0  0  0  0  0  2  0  0  0  0  0  0
  193.9910  175.3090  136.5680 N   0  0  0  0  0  0  0  0  0  0  0  0
  192.7220  174.6900  136.1370 C   0  0  2  0  0  3  0  0  0  0  0  0
  194.4190  174.8100  137.8770 C   0  0  0  0  0  2  0  0  0  0  0  0
  1 14  1  0  0  0  0
  1  9  1  0  0  0  0
  2  5  1  6  0  0  0
  2  3  1  0  0  0  0
  3 19  2  0  0  0  0
  3  7  1  0  0  0  0
  4 15  1  0  0  0  0
  4 11  1  0  0  0  0
  5 14  2  0  0  0  0
  6  1  2  0  0  0  0
  7  4  2  0  0  0  0
  8 23  1  6  0  0  0
  8 13  1  0  0  0  0
 10 19  1  0  0  0  0
 12 16  1  0  0  0  0
 12  8  1  0  0  0  0
 13 18  1  1  0  0  0
 13  2  1  0  0  0  0
 16  5  1  0  0  0  0
 17 16  2  0  0  0  0
 17  6  1  0  0  0  0
 18 10  1  0  0  0  0
 19 20  1  0  0  0  0
 20 15  2  0  0  0  0
 22 21  2  0  0  0  0
 23 22  1  0  0  0  0
 24 27  2  0  0  0  0
 25 30  1  0  0  0  0
 25 28  1  0  0  0  0
 28 24  1  0  0  0  0
 29 26  1  0  0  0  0
 29 31  1  0  0  0  0
 30 29  1  0  0  0  0
 30 22  1  1  0  0  0
 31 24  1  0  0  0  0
M  END
>  <MODEL>
2

>  <REMARK>
 VINA RESULT:      -7.6      4.353      9.617
  Name = 
  2 active torsions:
  status: ('A' for Active; 'I' for Inactive)
    1  A    between atoms: C_5  and  C_30
    2  A    between atoms: C_10  and  N_16
                            x       y       z     vdW  Elec       q    Type
                         _______ _______ _______ _____ _____    ______ ____

>  <TORSDO>
F 2

$$$$
=
 OpenBabel11122410553D

 31 35  0  0  1  0  0  0  0  0999 V2000
  189.2070  177.6450  143.5980 C   0  0  0  0  0  0  0  0  0  0  0  0
  186.9160  178.9330  140.9340 C   0  0  2  0  0  3  0  0  0  0  0  0
  187.2780  178.0970  139.7250 C   0  0  0  0  0  0  0  0  0  0  0  0
  188.8940  176.8460  138.5180 C   0  0  0  0  0  0  0  0  0  0  0  0
  187.3930  178.3090  142.2260 C   0  0  0  0  0  0  0  0  0  0  0  0
  188.3470  177.1210  144.5100 N   0  0  0  0  0  0  0  0  0  0  0  0
  188.5190  177.5460  139.6190 N   0  0  0  0  0  0  0  0  0  0  0  0
  184.5730  178.1720  141.5850 C   0  0  2  0  0  3  0  0  0  0  0  0
  190.6090  177.5750  143.8220 N   0  0  0  0  0  1  0  0  0  0  0  0
  185.0070  178.5450  138.7140 C   0  0  0  0  0  2  0  0  0  0  0  0
  190.2500  176.2450  138.4390 C   0  0  0  0  0  1  0  0  0  0  0  0
  185.0050  177.9280  143.0270 C   0  0  0  0  0  2  0  0  0  0  0  0
  185.4170  179.2990  140.9710 C   0  0  2  0  0  3  0  0  0  0  0  0
  188.7280  178.2320  142.4710 N   0  0  0  0  0  0  0  0  0  0  0  0
  187.9980  176.6990  137.4600 C   0  0  0  0  0  3  0  0  0  0  0  0
  186.4890  177.7670  143.1620 C   0  0  0  0  0  0  0  0  0  0  0  0
  187.0050  177.1820  144.3160 C   0  0  0  0  0  3  0  0  0  0  0  0
  184.9440  179.6840  139.6340 N   0  0  0  0  0  2  0  0  0  0  0  0
  186.3900  177.9760  138.6410 C   0  0  0  0  0  0  0  0  0  0  0  0
  186.7660  177.2660  137.5450 N   0  0  0  0  0  0  0  0  0  0  0  0
  182.5510  176.7640  140.1540 O   0  0  0  0  0  0  0  0  0  0  0  0
  182.1960  177.7760  140.8180 C   0  0  0  0  0  0  0  0  0  0  0  0
  183.1620  178.5290  141.5540 N   0  0  0  0  0  2  0  0  0  0  0  0
  179.6700  176.6140  138.7660 C   0  0  0  0  0  0  0  0  0  0  0  0
  179.7950  177.1150  141.2400 C   0  0  0  0  0  2  0  0  0  0  0  0
  181.1310  179.9900  139.2270 C   0  0  0  0  0  1  0  0  0  0  0  0
  179.2630  175.8680  137.8390 O   0  0  0  0  0  0  0  0  0  0  0  0
  179.5270  176.2040  140.1280 N   0  0  0  0  0  2  0  0  0  0  0  0
  180.3070  178.8340  139.5500 N   0  0  0  0  0  0  0  0  0  0  0  0
  180.7580  178.2310  140.8200 C   0  0  2  0  0  3  0  0  0  0  0  0
  180.3980  177.8830  138.4390 C   0  0  0  0  0  2  0  0  0  0  0  0
  1  9  1  0  0  0  0
  1  6  2  0  0  0  0
  2  3  1  6  0  0  0
  2 13  1  0  0  0  0
  2  5  1  0  0  0  0
  4  7  2  0  0  0  0
  5 14  2  0  0  0  0
  5 16  1  0  0  0  0
  7  3  1  0  0  0  0
  8 23  1  1  0  0  0
  8 12  1  0  0  0  0
 10 18  1  0  0  0  0
 11  4  1  0  0  0  0
 12 16  1  0  0  0  0
 13 18  1  6  0  0  0
 13  8  1  0  0  0  0
 14  1  1  0  0  0  0
 15 20  2  0  0  0  0
 15  4  1  0  0  0  0
 16 17  2  0  0  0  0
 17  6  1  0  0  0  0
 19 10  1  0  0  0  0
 19  3  2  0  0  0  0
 20 19  1  0  0  0  0
 21 22  2  0  0  0  0
 22 23  1  0  0  0  0
 24 28  1  0  0  0  0
 26 29  1  0  0  0  0
 27 24  2  0  0  0  0
 28 25  1  0  0  0  0
 29 30  1  0  0  0  0
 30 22  1  6  0  0  0
 30 25  1  0  0  0  0
 31 24  1  0  0  0  0
 31 29  1  0  0  0  0
M  END
>  <MODEL>
3

>  <REMARK>
 VINA RESULT:      -7.4      1.364      2.201
  Name = 
  2 active torsions:
  status: ('A' for Active; 'I' for Inactive)
    1  A    between atoms: C_5  and  C_30
    2  A    between atoms: C_10  and  N_16
                            x       y       z     vdW  Elec       q    Type
                         _______ _______ _______ _____ _____    ______ ____

>  <TORSDO>
F 2

$$$$
=
 OpenBabel11122410553D

 31 35  0  0  1  0  0  0  0  0999 V2000
  191.3640  176.6040  145.1440 C   0  0  0  0  0  0  0  0  0  0  0  0
  187.8120  177.0050  144.0350 C   0  0  2  0  0  3  0  0  0  0  0  0
  187.1750  177.7790  145.1690 C   0  0  0  0  0  0  0  0  0  0  0  0
  187.1090  178.3390  147.4740 C   0  0  0  0  0  0  0  0  0  0  0  0
  189.3200  177.1010  144.0510 C   0  0  0  0  0  0  0  0  0  0  0  0
  192.0550  177.2930  144.2000 N   0  0  0  0  0  0  0  0  0  0  0  0
  187.6960  177.7080  146.4250 N   0  0  0  0  0  0  0  0  0  0  0  0
  187.8610  178.6290  142.0720 C   0  0  2  0  0  3  0  0  0  0  0  0
  192.0560  175.9800  146.2180 N   0  0  0  0  0  1  0  0  0  0  0  0
  185.3700  178.6110  143.6100 C   0  0  0  0  0  2  0  0  0  0  0  0
  187.7100  178.2530  148.8300 C   0  0  0  0  0  1  0  0  0  0  0  0
  189.3510  178.3880  141.8530 C   0  0  0  0  0  2  0  0  0  0  0  0
  187.2090  177.3680  142.6610 C   0  0  2  0  0  3  0  0  0  0  0  0
  190.0110  176.5110  145.0640 N   0  0  0  0  0  0  0  0  0  0  0  0
  185.9360  179.0650  147.2700 C   0  0  0  0  0  3  0  0  0  0  0  0
  190.0250  177.8220  143.0660 C   0  0  0  0  0  0  0  0  0  0  0  0
  191.4130  177.8920  143.1640 C   0  0  0  0  0  3  0  0  0  0  0  0
  185.7470  177.4870  142.7500 N   0  0  0  0  0  2  0  0  0  0  0  0
  185.9730  178.4840  144.9740 C   0  0  0  0  0  0  0  0  0  0  0  0
  185.3950  179.1230  146.0250 N   0  0  0  0  0  0  0  0  0  0  0  0
  188.3050  177.2850  139.5990 O   0  0  0  0  0  0  0  0  0  0  0  0
  187.4960  178.2530  139.5990 C   0  0  0  0  0  0  0  0  0  0  0  0
  187.2320  178.9710  140.8040 N   0  0  0  0  0  2  0  0  0  0  0  0
  186.7900  176.2660  136.8600 C   0  0  0  0  0  0  0  0  0  0  0  0
  185.4620  178.0080  138.1210 C   0  0  0  0  0  2  0  0  0  0  0  0
  188.8740  179.3080  137.2420 C   0  0  0  0  0  1  0  0  0  0  0  0
  186.8200  175.1550  136.2720 O   0  0  0  0  0  0  0  0  0  0  0  0
  185.6260  176.6540  137.5940 N   0  0  0  0  0  2  0  0  0  0  0  0
  187.6470  178.5350  137.1100 N   0  0  0  0  0  0  0  0  0  0  0  0
  186.8190  178.6910  138.3230 C   0  0  2  0  0  3  0  0  0  0  0  0
  188.0110  177.1350  136.8800 C   0  0  0  0  0  2  0  0  0  0  0  0
  1  9  1  0  0  0  0
  2  5  1  6  0  0  0
  2  3  1  0  0  0  0
  3  7  1  0  0  0  0
  4 11  1  0  0  0  0
  5 14  2  0  0  0  0
  6  1  2  0  0  0  0
  7  4  2  0  0  0  0
  8 23  1  6  0  0  0
  8 13  1  0  0  0  0
 10 19  1  0  0  0  0
 12  8  1  0  0  0  0
 12 16  1  0  0  0  0
 13 18  1  1  0  0  0
 13  2  1  0  0  0  0
 14  1  1  0  0  0  0
 15  4  1  0  0  0  0
 16 17  2  0  0  0  0
 16  5  1  0  0  0  0
 17  6  1  0  0  0  0
 18 10  1  0  0  0  0
 19  3  2  0  0  0  0
 19 20  1  0  0  0  0
 20 15  2  0  0  0  0
 22 21  2  0  0  0  0
 22 23  1  0  0  0  0
 24 31  1  0  0  0  0
 24 28  1  0  0  0  0
 25 30  1  0  0  0  0
 27 24  2  0  0  0  0
 28 25  1  0  0  0  0
 29 26  1  0  0  0  0
 29 30  1  0  0  0  0
 30 22  1  1  0  0  0
 31 29  1  0  0  0  0
M  END
>  <MODEL>
4

>  <REMARK>
 VINA RESULT:      -7.4      3.882      6.782
  Name = 
  2 active torsions:
  status: ('A' for Active; 'I' for Inactive)
    1  A    between atoms: C_5  and  C_30
    2  A    between atoms: C_10  and  N_16
                            x       y       z     vdW  Elec       q    Type
                         _______ _______ _______ _____ _____    ______ ____

>  <TORSDO>
F 2

$$$$
=
 OpenBabel11122410553D

 31 35  0  0  1  0  0  0  0  0999 V2000
  190.4680  176.5770  143.4560 C   0  0  0  0  0  0  0  0  0  0  0  0
  186.7850  177.2220  143.6080 C   0  0  2  0  0  3  0  0  0  0  0  0
  186.6130  177.9720  144.9120 C   0  0  0  0  0  0  0  0  0  0  0  0
  187.3520  178.4180  147.1230 C   0  0  0  0  0  0  0  0  0  0  0  0
  188.2160  177.2370  143.1230 C   0  0  0  0  0  0  0  0  0  0  0  0
  190.8530  177.2750  142.3570 N   0  0  0  0  0  0  0  0  0  0  0  0
  187.5140  177.8100  145.9200 N   0  0  0  0  0  0  0  0  0  0  0  0
  186.2900  178.9380  141.7910 C   0  0  2  0  0  3  0  0  0  0  0  0
  191.4330  175.8640  144.2190 N   0  0  0  0  0  1  0  0  0  0  0  0
  184.4530  178.9770  144.0700 C   0  0  0  0  0  2  0  0  0  0  0  0
  188.3600  178.2320  148.1980 C   0  0  0  0  0  1  0  0  0  0  0  0
  187.6030  178.6290  141.0800 C   0  0  0  0  0  2  0  0  0  0  0  0
  185.7870  177.6860  142.5260 C   0  0  2  0  0  3  0  0  0  0  0  0
  189.1620  176.5610  143.8300 N   0  0  0  0  0  0  0  0  0  0  0  0
  186.2290  179.2150  147.3440 C   0  0  0  0  0  3  0  0  0  0  0  0
  188.6010  177.9680  141.9820 C   0  0  0  0  0  0  0  0  0  0  0  0
  189.9450  177.9580  141.6130 C   0  0  0  0  0  3  0  0  0  0  0  0
  184.4480  177.8780  143.1010 N   0  0  0  0  0  2  0  0  0  0  0  0
  185.4650  178.7490  145.1510 C   0  0  0  0  0  0  0  0  0  0  0  0
  185.3120  179.3640  146.3520 N   0  0  0  0  0  0  0  0  0  0  0  0
  185.8980  177.7880  139.2130 O   0  0  0  0  0  0  0  0  0  0  0  0
  185.1530  178.7530  139.5400 C   0  0  0  0  0  0  0  0  0  0  0  0
  185.3010  179.3770  140.8160 N   0  0  0  0  0  2  0  0  0  0  0  0
  181.7710  178.0440  139.5600 C   0  0  0  0  0  0  0  0  0  0  0  0
  183.0880  180.1820  139.2750 C   0  0  0  0  0  2  0  0  0  0  0  0
  184.4020  177.4940  137.0070 C   0  0  0  0  0  1  0  0  0  0  0  0
  180.7750  177.4510  140.0480 O   0  0  0  0  0  0  0  0  0  0  0  0
  182.0710  179.3830  139.9580 N   0  0  0  0  0  2  0  0  0  0  0  0
  183.4310  178.2500  137.7860 N   0  0  0  0  0  0  0  0  0  0  0  0
  184.1190  179.2870  138.5800 C   0  0  2  0  0  3  0  0  0  0  0  0
  182.7000  177.3110  138.6400 C   0  0  0  0  0  2  0  0  0  0  0  0
  1 14  1  0  0  0  0
  1  9  1  0  0  0  0
  2  5  1  6  0  0  0
  2  3  1  0  0  0  0
  3 19  2  0  0  0  0
  3  7  1  0  0  0  0
  4 15  1  0  0  0  0
  4 11  1  0  0  0  0
  5 14  2  0  0  0  0
  6  1  2  0  0  0  0
  7  4  2  0  0  0  0
  8 23  1  6  0  0  0
  8 13  1  0  0  0  0
 10 19  1  0  0  0  0
 12  8  1  0  0  0  0
 12 16  1  0  0  0  0
 13 18  1  1  0  0  0
 13  2  1  0  0  0  0
 16  5  1  0  0  0  0
 17 16  2  0  0  0  0
 17  6  1  0  0  0  0
 18 10  1  0  0  0  0
 19 20  1  0  0  0  0
 20 15  2  0  0  0  0
 21 22  2  0  0  0  0
 22 23  1  0  0  0  0
 24 28  1  0  0  0  0
 24 27  2  0  0  0  0
 25 28  1  0  0  0  0
 26 29  1  0  0  0  0
 29 30  1  0  0  0  0
 29 31  1  0  0  0  0
 30 25  1  0  0  0  0
 30 22  1  1  0  0  0
 31 24  1  0  0  0  0
M  END
>  <MODEL>
5

>  <REMARK>
 VINA RESULT:      -7.3      2.461      5.080
  Name = 
  2 active torsions:
  status: ('A' for Active; 'I' for Inactive)
    1  A    between atoms: C_5  and  C_30
    2  A    between atoms: C_10  and  N_16
                            x       y       z     vdW  Elec       q    Type
                         _______ _______ _______ _____ _____    ______ ____

>  <TORSDO>
F 2

$$$$
=
 OpenBabel11122410553D

 31 35  0  0  1  0  0  0  0  0999 V2000
  189.9620  176.3980  142.9890 C   0  0  0  0  0  0  0  0  0  0  0  0
  186.4370  177.2240  143.9370 C   0  0  2  0  0  3  0  0  0  0  0  0
  186.5900  177.9550  145.2540 C   0  0  0  0  0  0  0  0  0  0  0  0
  187.8080  178.3180  147.2580 C   0  0  0  0  0  0  0  0  0  0  0  0
  187.7290  177.1770  143.1550 C   0  0  0  0  0  0  0  0  0  0  0  0
  190.1380  177.0990  141.8390 N   0  0  0  0  0  0  0  0  0  0  0  0
  187.6760  177.7270  146.0430 N   0  0  0  0  0  0  0  0  0  0  0  0
  185.6560  179.0000  142.2850 C   0  0  2  0  0  3  0  0  0  0  0  0
  191.0290  175.6230  143.5190 N   0  0  0  0  0  1  0  0  0  0  0  0
  184.3560  179.0830  144.9070 C   0  0  0  0  0  2  0  0  0  0  0  0
  189.0120  178.0590  148.0880 C   0  0  0  0  0  1  0  0  0  0  0  0
  186.7670  178.6400  141.3050 C   0  0  0  0  0  2  0  0  0  0  0  0
  185.2560  177.7590  143.0990 C   0  0  2  0  0  3  0  0  0  0  0  0
  188.7670  176.4400  143.6350 N   0  0  0  0  0  0  0  0  0  0  0  0
  186.8030  179.1650  147.7230 C   0  0  0  0  0  3  0  0  0  0  0  0
  187.8990  177.9110  141.9640 C   0  0  0  0  0  0  0  0  0  0  0  0
  189.1300  177.8420  141.3140 C   0  0  0  0  0  3  0  0  0  0  0  0
  184.0840  178.0060  143.9510 N   0  0  0  0  0  2  0  0  0  0  0  0
  185.5620  178.7830  145.7420 C   0  0  0  0  0  0  0  0  0  0  0  0
  185.7040  179.3810  146.9540 N   0  0  0  0  0  0  0  0  0  0  0  0
  183.8180  177.4070  140.8000 O   0  0  0  0  0  0  0  0  0  0  0  0
  183.6190  178.6520  140.8280 C   0  0  0  0  0  0  0  0  0  0  0  0
  184.5060  179.5070  141.5500 N   0  0  0  0  0  2  0  0  0  0  0  0
  180.6000  177.1340  140.1030 C   0  0  0  0  0  0  0  0  0  0  0  0
  181.2200  179.4330  140.9500 C   0  0  0  0  0  2  0  0  0  0  0  0
  183.2540  178.5310  137.9260 C   0  0  0  0  0  1  0  0  0  0  0  0
  179.8290  176.1420  140.1530 O   0  0  0  0  0  0  0  0  0  0  0  0
  180.4920  178.1720  141.0810 N   0  0  0  0  0  2  0  0  0  0  0  0
  182.1100  178.5600  138.8250 N   0  0  0  0  0  0  0  0  0  0  0  0
  182.4650  179.2650  140.0730 C   0  0  2  0  0  3  0  0  0  0  0  0
  181.6970  177.1780  139.0840 C   0  0  0  0  0  2  0  0  0  0  0  0
  1  9  1  0  0  0  0
  1 14  1  0  0  0  0
  2  5  1  6  0  0  0
  2  3  1  0  0  0  0
  3 19  2  0  0  0  0
  3  7  1  0  0  0  0
  4 15  1  0  0  0  0
  4 11  1  0  0  0  0
  5 14  2  0  0  0  0
  6  1  2  0  0  0  0
  7  4  2  0  0  0  0
  8 23  1  6  0  0  0
  8 13  1  0  0  0  0
 10 19  1  0  0  0  0
 12 16  1  0  0  0  0
 12  8  1  0  0  0  0
 13  2  1  0  0  0  0
 13 18  1  1  0  0  0
 16  5  1  0  0  0  0
 17  6  1  0  0  0  0
 17 16  2  0  0  0  0
 18 10  1  0  0  0  0
 19 20  1  0  0  0  0
 20 15  2  0  0  0  0
 21 22  2  0  0  0  0
 22 23  1  0  0  0  0
 24 27  2  0  0  0  0
 24 28  1  0  0  0  0
 25 28  1  0  0  0  0
 26 29  1  0  0  0  0
 29 31  1  0  0  0  0
 29 30  1  0  0  0  0
 30 22  1  1  0  0  0
 30 25  1  0  0  0  0
 31 24  1  0  0  0  0
M  END
>  <MODEL>
6

>  <REMARK>
 VINA RESULT:      -7.2      2.295      4.916
  Name = 
  2 active torsions:
  status: ('A' for Active; 'I' for Inactive)
    1  A    between atoms: C_5  and  C_30
    2  A    between atoms: C_10  and  N_16
                            x       y       z     vdW  Elec       q    Type
                         _______ _______ _______ _____ _____    ______ ____

>  <TORSDO>
F 2

$$$$
=
 OpenBabel11122410553D

 31 35  0  0  1  0  0  0  0  0999 V2000
  190.6200  176.9240  146.3640 C   0  0  0  0  0  0  0  0  0  0  0  0
  188.0070  176.9880  143.6860 C   0  0  2  0  0  3  0  0  0  0  0  0
  186.9300  177.8790  144.2670 C   0  0  0  0  0  0  0  0  0  0  0  0
  185.8050  178.7470  146.1680 C   0  0  0  0  0  0  0  0  0  0  0  0
  189.3340  177.1620  144.3870 C   0  0  0  0  0  0  0  0  0  0  0  0
  191.6860  177.5100  145.7610 N   0  0  0  0  0  0  0  0  0  0  0  0
  186.8010  178.0080  145.6170 N   0  0  0  0  0  0  0  0  0  0  0  0
  189.0000  178.3270  141.7580 C   0  0  2  0  0  3  0  0  0  0  0  0
  190.7170  176.4900  147.7150 N   0  0  0  0  0  1  0  0  0  0  0  0
  186.0790  178.3950  141.9450 C   0  0  0  0  0  2  0  0  0  0  0  0
  185.7000  178.8790  147.6440 C   0  0  0  0  0  1  0  0  0  0  0  0
  190.4140  178.1330  142.2940 C   0  0  0  0  0  2  0  0  0  0  0  0
  188.1240  177.1280  142.1530 C   0  0  2  0  0  3  0  0  0  0  0  0
  189.4590  176.7530  145.6780 N   0  0  0  0  0  0  0  0  0  0  0  0
  184.8780  179.3780  145.3390 C   0  0  0  0  0  3  0  0  0  0  0  0
  190.4310  177.7750  143.7500 C   0  0  0  0  0  0  0  0  0  0  0  0
  191.6140  177.9270  144.4710 C   0  0  0  0  0  3  0  0  0  0  0  0
  186.7920  177.1830  141.5330 N   0  0  0  0  0  2  0  0  0  0  0  0
  185.9720  178.4880  143.4360 C   0  0  0  0  0  0  0  0  0  0  0  0
  184.9830  179.2360  143.9920 N   0  0  0  0  0  0  0  0  0  0  0  0
  190.2400  176.4830  139.9750 O   0  0  0  0  0  0  0  0  0  0  0  0
  189.6800  177.4940  139.4700 C   0  0  0  0  0  0  0  0  0  0  0  0
  189.0430  178.4590  140.3090 N   0  0  0  0  0  2  0  0  0  0  0  0
  186.9300  177.7020  137.3860 C   0  0  0  0  0  0  0  0  0  0  0  0
  189.0560  179.0550  137.5850 C   0  0  0  0  0  2  0  0  0  0  0  0
  189.8200  175.3820  137.4490 C   0  0  0  0  0  1  0  0  0  0  0  0
  185.6870  177.6740  137.2020 O   0  0  0  0  0  0  0  0  0  0  0  0
  187.5970  178.9530  137.5710 N   0  0  0  0  0  2  0  0  0  0  0  0
  189.1090  176.6240  137.1870 N   0  0  0  0  0  0  0  0  0  0  0  0
  189.6990  177.7220  137.9780 C   0  0  2  0  0  3  0  0  0  0  0  0
  187.6950  176.4200  137.5160 C   0  0  0  0  0  2  0  0  0  0  0  0
  1  9  1  0  0  0  0
  2  3  1  1  0  0  0
  2  5  1  0  0  0  0
  3  7  1  0  0  0  0
  4 11  1  0  0  0  0
  5 14  2  0  0  0  0
  6  1  2  0  0  0  0
  7  4  2  0  0  0  0
  8 23  1  6  0  0  0
  8 13  1  0  0  0  0
  8 12  1  0  0  0  0
 10 19  1  0  0  0  0
 12 16  1  0  0  0  0
 13 18  1  6  0  0  0
 13  2  1  0  0  0  0
 14  1  1  0  0  0  0
 15  4  1  0  0  0  0
 16  5  1  0  0  0  0
 16 17  2  0  0  0  0
 17  6  1  0  0  0  0
 18 10  1  0  0  0  0
 19 20  1  0  0  0  0
 19  3  2  0  0  0  0
 20 15  2  0  0  0  0
 22 21  2  0  0  0  0
 22 23  1  0  0  0  0
 24 31  1  0  0  0  0
 24 28  1  0  0  0  0
 25 30  1  0  0  0  0
 27 24  2  0  0  0  0
 28 25  1  0  0  0  0
 29 26  1  0  0  0  0
 29 31  1  0  0  0  0
 29 30  1  0  0  0  0
 30 22  1  1  0  0  0
M  END
>  <MODEL>
7

>  <REMARK>
 VINA RESULT:      -7.1      3.769      6.930
  Name = 
  2 active torsions:
  status: ('A' for Active; 'I' for Inactive)
    1  A    between atoms: C_5  and  C_30
    2  A    between atoms: C_10  and  N_16
                            x       y       z     vdW  Elec       q    Type
                         _______ _______ _______ _____ _____    ______ ____

>  <TORSDO>
F 2

$$$$
=
 OpenBabel11122410553D

 31 35  0  0  1  0  0  0  0  0999 V2000
  179.7120  178.2160  142.4180 C   0  0  0  0  0  0  0  0  0  0  0  0
  182.9860  179.1450  140.8630 C   0  0  2  0  0  3  0  0  0  0  0  0
  183.9920  178.8330  141.9500 C   0  0  0  0  0  0  0  0  0  0  0  0
  184.5070  178.6280  144.2580 C   0  0  0  0  0  0  0  0  0  0  0  0
  181.6620  178.4540  141.0930 C   0  0  0  0  0  0  0  0  0  0  0  0
  179.2790  177.2000  141.6290 N   0  0  0  0  0  0  0  0  0  0  0  0
  183.6140  178.8390  143.2580 N   0  0  0  0  0  0  0  0  0  0  0  0
  183.4230  177.4150  139.0430 C   0  0  2  0  0  3  0  0  0  0  0  0
  178.9320  178.6340  143.5310 N   0  0  0  0  0  1  0  0  0  0  0  0
  185.8200  178.6150  140.2190 C   0  0  0  0  0  2  0  0  0  0  0  0
  184.0590  178.6280  145.6740 C   0  0  0  0  0  1  0  0  0  0  0  0
  181.9530  177.0090  139.0150 C   0  0  0  0  0  2  0  0  0  0  0  0
  183.5490  178.8920  139.4480 C   0  0  2  0  0  3  0  0  0  0  0  0
  180.8910  178.8340  142.1470 N   0  0  0  0  0  0  0  0  0  0  0  0
  185.8490  178.4150  143.9450 C   0  0  0  0  0  3  0  0  0  0  0  0
  181.2260  177.3980  140.2670 C   0  0  0  0  0  0  0  0  0  0  0  0
  180.0080  176.7900  140.5590 C   0  0  0  0  0  3  0  0  0  0  0  0
  184.9300  179.3820  139.3430 N   0  0  0  0  0  2  0  0  0  0  0  0
  185.3530  178.6520  141.6410 C   0  0  0  0  0  0  0  0  0  0  0  0
  186.2420  178.4300  142.6450 N   0  0  0  0  0  0  0  0  0  0  0  0
  184.1820  174.8880  137.9670 O   0  0  0  0  0  0  0  0  0  0  0  0
  184.3660  175.9070  137.2460 C   0  0  0  0  0  0  0  0  0  0  0  0
  184.0110  177.2040  137.7280 N   0  0  0  0  0  2  0  0  0  0  0  0
  187.0570  173.9130  136.3970 C   0  0  0  0  0  0  0  0  0  0  0  0
  184.8310  174.3750  135.2920 C   0  0  0  0  0  2  0  0  0  0  0  0
  186.5440  177.5810  136.2370 C   0  0  0  0  0  1  0  0  0  0  0  0
  187.9530  173.0870  136.7060 O   0  0  0  0  0  0  0  0  0  0  0  0
  185.8180  173.4530  135.8530 N   0  0  0  0  0  2  0  0  0  0  0  0
  186.4100  176.1920  135.8200 N   0  0  0  0  0  0  0  0  0  0  0  0
  184.9930  175.7810  135.8790 C   0  0  2  0  0  3  0  0  0  0  0  0
  187.2490  175.3690  136.6950 C   0  0  0  0  0  2  0  0  0  0  0  0
  1  9  1  0  0  0  0
  2  5  1  1  0  0  0
  2  3  1  0  0  0  0
  3  7  1  0  0  0  0
  4 11  1  0  0  0  0
  5 14  2  0  0  0  0
  6  1  2  0  0  0  0
  7  4  2  0  0  0  0
  8 23  1  6  0  0  0
  8 13  1  0  0  0  0
 10 19  1  0  0  0  0
 12  8  1  0  0  0  0
 12 16  1  0  0  0  0
 13 18  1  1  0  0  0
 13  2  1  0  0  0  0
 14  1  1  0  0  0  0
 15  4  1  0  0  0  0
 16 17  2  0  0  0  0
 16  5  1  0  0  0  0
 17  6  1  0  0  0  0
 18 10  1  0  0  0  0
 19  3  2  0  0  0  0
 19 20  1  0  0  0  0
 20 15  2  0  0  0  0
 22 23  1  0  0  0  0
 22 21  2  0  0  0  0
 24 31  1  0  0  0  0
 24 27  2  0  0  0  0
 25 28  1  0  0  0  0
 25 30  1  0  0  0  0
 28 24  1  0  0  0  0
 29 30  1  0  0  0  0
 29 26  1  0  0  0  0
 29 31  1  0  0  0  0
 30 22  1  1  0  0  0
M  END
>  <MODEL>
8

>  <REMARK>
 VINA RESULT:      -6.9      2.599      7.241
  Name = 
  2 active torsions:
  status: ('A' for Active; 'I' for Inactive)
    1  A    between atoms: C_5  and  C_30
    2  A    between atoms: C_10  and  N_16
                            x       y       z     vdW  Elec       q    Type
                         _______ _______ _______ _____ _____    ______ ____

>  <TORSDO>
F 2

$$$$
=
 OpenBabel11122410553D

 31 35  0  0  1  0  0  0  0  0999 V2000
  188.9740  177.9130  143.5650 C   0  0  0  0  0  0  0  0  0  0  0  0
  186.6720  179.0070  140.8250 C   0  0  2  0  0  3  0  0  0  0  0  0
  187.1440  178.2070  139.6300 C   0  0  0  0  0  0  0  0  0  0  0  0
  188.9000  177.1020  138.4780 C   0  0  0  0  0  0  0  0  0  0  0  0
  187.1560  178.4230  142.1320 C   0  0  0  0  0  0  0  0  0  0  0  0
  188.1320  177.3160  144.4490 N   0  0  0  0  0  0  0  0  0  0  0  0
  188.4300  177.7640  139.5660 N   0  0  0  0  0  0  0  0  0  0  0  0
  184.3820  178.0470  141.3980 C   0  0  2  0  0  3  0  0  0  0  0  0
  190.3690  177.9630  143.8360 N   0  0  0  0  0  1  0  0  0  0  0  0
  184.8780  178.4620  138.5430 C   0  0  0  0  0  2  0  0  0  0  0  0
  190.3050  176.6190  138.4450 C   0  0  0  0  0  1  0  0  0  0  0  0
  184.7840  177.8380  142.8540 C   0  0  0  0  0  2  0  0  0  0  0  0
  185.1460  179.2430  140.8110 C   0  0  2  0  0  3  0  0  0  0  0  0
  188.4850  178.4600  142.4220 N   0  0  0  0  0  0  0  0  0  0  0  0
  188.0560  176.8810  137.3900 C   0  0  0  0  0  3  0  0  0  0  0  0
  186.2720  177.8040  143.0380 C   0  0  0  0  0  0  0  0  0  0  0  0
  186.7970  177.2620  144.2100 C   0  0  0  0  0  3  0  0  0  0  0  0
  184.6870  179.5890  139.4590 N   0  0  0  0  0  2  0  0  0  0  0  0
  186.3060  178.0130  138.5160 C   0  0  0  0  0  0  0  0  0  0  0  0
  186.7770  177.3400  137.4340 N   0  0  0  0  0  0  0  0  0  0  0  0
  182.5390  176.4870  139.8850 O   0  0  0  0  0  0  0  0  0  0  0  0
  182.0760  177.4580  140.5440 C   0  0  0  0  0  0  0  0  0  0  0  0
  182.9470  178.2820  141.3190 N   0  0  0  0  0  2  0  0  0  0  0  0
  180.5670  179.8460  138.5540 C   0  0  0  0  0  0  0  0  0  0  0  0
  179.9760  177.4600  139.1400 C   0  0  0  0  0  2  0  0  0  0  0  0
  180.7460  179.4420  142.2340 C   0  0  0  0  0  1  0  0  0  0  0  0
  180.6320  180.7560  137.6890 O   0  0  0  0  0  0  0  0  0  0  0  0
  180.2620  178.5060  138.1600 N   0  0  0  0  0  2  0  0  0  0  0  0
  180.2800  179.1760  140.8810 N   0  0  0  0  0  0  0  0  0  0  0  0
  180.6040  177.7880  140.4990 C   0  0  2  0  0  3  0  0  0  0  0  0
  180.9100  180.1470  139.9820 C   0  0  0  0  0  2  0  0  0  0  0  0
  1  9  1  0  0  0  0
  1  6  2  0  0  0  0
  2  3  1  6  0  0  0
  2  5  1  0  0  0  0
  4  7  2  0  0  0  0
  5 14  2  0  0  0  0
  5 16  1  0  0  0  0
  7  3  1  0  0  0  0
  8 23  1  1  0  0  0
  8 12  1  0  0  0  0
 10 18  1  0  0  0  0
 11  4  1  0  0  0  0
 12 16  1  0  0  0  0
 13 18  1  6  0  0  0
 13  2  1  0  0  0  0
 13  8  1  0  0  0  0
 14  1  1  0  0  0  0
 15 20  2  0  0  0  0
 15  4  1  0  0  0  0
 16 17  2  0  0  0  0
 17  6  1  0  0  0  0
 19 10  1  0  0  0  0
 19  3  2  0  0  0  0
 20 19  1  0  0  0  0
 21 22  2  0  0  0  0
 22 23  1  0  0  0  0
 24 31  1  0  0  0  0
 25 30  1  0  0  0  0
 27 24  2  0  0  0  0
 28 24  1  0  0  0  0
 28 25  1  0  0  0  0
 29 26  1  0  0  0  0
 30 22  1  6  0  0  0
 30 29  1  0  0  0  0
 31 29  1  0  0  0  0
M  END
>  <MODEL>
9

>  <REMARK>
 VINA RESULT:      -6.7      1.325      2.088
  Name = 
  2 active torsions:
  status: ('A' for Active; 'I' for Inactive)
    1  A    between atoms: C_5  and  C_30
    2  A    between atoms: C_10  and  N_16
                            x       y       z     vdW  Elec       q    Type
                         _______ _______ _______ _____ _____    ______ ____

>  <TORSDO>
F 2

$$$$
