=
 OpenBabel11122412133D

 34 41  0  0  1  0  0  0  0  0999 V2000
  188.0540  177.7930  142.9830 C   0  0  0  0  0  0  0  0  0  0  0  0
  190.4690  177.0680  142.4820 C   0  0  0  0  0  2  0  0  0  0  0  0
  182.0550  178.1780  140.6970 C   0  0  2  0  0  3  0  0  0  0  0  0
  185.7080  178.3940  143.2140 C   0  0  0  0  0  0  0  0  0  0  0  0
  184.4380  178.5300  141.0590 C   0  0  1  0  0  3  0  0  0  0  0  0
  183.0180  178.8600  138.9230 C   0  0  0  0  0  2  0  0  0  0  0  0
  181.7350  178.0970  139.2210 C   0  0  0  0  0  2  0  0  0  0  0  0
  181.7520  179.4090  143.1840 S   0  0  0  0  0  0  0  0  0  0  0  0
  189.0780  177.7920  140.7160 C   0  0  0  0  0  0  0  0  0  0  0  0
  189.9020  177.5750  137.5790 C   0  0  0  0  0  2  0  0  0  0  0  0
  185.6400  179.0940  140.4460 N   0  0  0  0  0  2  0  0  0  0  0  0
  183.1870  178.2600  143.2780 C   0  0  0  0  0  2  0  0  0  0  0  0
  187.9230  178.2100  140.1430 C   0  0  0  0  0  0  0  0  0  0  0  0
  191.1970  176.8200  141.1550 C   0  0  0  0  0  2  0  0  0  0  0  0
  184.4220  178.8530  142.5730 C   0  0  1  0  0  3  0  0  0  0  0  0
  181.0290  178.8660  141.5740 C   0  0  0  0  0  2  0  0  0  0  0  0
  190.2240  176.6850  138.7850 C   0  0  2  0  0  3  0  0  0  0  0  0
  186.8490  178.2190  142.4130 C   0  0  0  0  0  0  0  0  0  0  0  0
  183.1980  179.1160  140.4090 C   0  0  1  0  0  3  0  0  0  0  0  0
  186.7720  178.4480  140.9870 N   0  0  0  0  0  0  0  0  0  0  0  0
  187.0260  177.8060  145.1730 C   0  0  0  0  0  3  0  0  0  0  0  0
  188.9780  178.7530  137.8960 C   0  0  0  0  0  2  0  0  0  0  0  0
  185.8140  178.2120  144.6030 C   0  0  0  0  0  3  0  0  0  0  0  0
  187.7360  178.2950  138.6460 C   0  0  0  0  0  2  0  0  0  0  0  0
  190.3880  177.5270  140.0550 C   0  0  1  0  0  3  0  0  0  0  0  0
  188.1450  177.5890  144.3640 C   0  0  0  0  0  3  0  0  0  0  0  0
  189.1670  177.5810  142.1110 N   0  0  0  0  0  0  0  0  0  0  0  0
  191.3860  175.9590  138.5090 O   0  0  0  0  0  0  0  0  0  0  0  0
  191.8120  176.4280  137.2640 C   0  0  0  0  0  2  0  0  0  0  0  0
  194.9740  175.6630  137.2480 O   0  0  0  0  0  0  0  0  0  0  0  0
  193.0630  174.3210  137.5860 C   0  0  0  0  0  2  0  0  0  0  0  0
  192.7110  175.3970  136.6020 C   0  0  2  0  0  3  0  0  0  0  0  0
  194.5680  174.3940  137.6810 C   0  0  0  0  0  2  0  0  0  0  0  0
  194.0420  176.0320  136.2680 C   0  0  0  0  0  2  0  0  0  0  0  0
  1 26  1  0  0  0  0
  3  7  1  6  0  0  0
  3 16  1  0  0  0  0
  4 23  2  0  0  0  0
  5 11  1  6  0  0  0
  5 15  1  0  0  0  0
  6  7  1  0  0  0  0
  8 12  1  0  0  0  0
  9 27  1  0  0  0  0
 10 22  1  0  0  0  0
 10 17  1  0  0  0  0
 11 20  1  0  0  0  0
 13  9  2  0  0  0  0
 13 20  1  0  0  0  0
 14  2  1  0  0  0  0
 15  4  1  0  0  0  0
 15 12  1  1  0  0  0
 16  8  1  0  0  0  0
 17 28  1  6  0  0  0
 17 25  1  0  0  0  0
 18  1  2  0  0  0  0
 18  4  1  0  0  0  0
 19  6  1  6  0  0  0
 19  3  1  0  0  0  0
 19  5  1  0  0  0  0
 20 18  1  0  0  0  0
 22 24  1  0  0  0  0
 23 21  1  0  0  0  0
 24 13  1  0  0  0  0
 25  9  1  0  0  0  0
 25 14  1  1  0  0  0
 26 21  2  0  0  0  0
 27  2  1  0  0  0  0
 27  1  1  0  0  0  0
 29 28  1  0  0  0  0
 30 33  1  0  0  0  0
 31 33  1  0  0  0  0
 32 29  1  1  0  0  0
 32 31  1  0  0  0  0
 34 32  1  0  0  0  0
 34 30  1  0  0  0  0
M  END
>  <MODEL>
1

>  <REMARK>
 VINA RESULT:      -9.5      0.000      0.000
  Name = 
  3 active torsions:
  status: ('A' for Active; 'I' for Inactive)
    1  A    between atoms: C_17  and  O_28
    2  A    between atoms: O_28  and  C_29
    3  A    between atoms: C_29  and  C_32
                            x       y       z     vdW  Elec       q    Type
                         _______ _______ _______ _____ _____    ______ ____

>  <TORSDO>
F 3

$$$$
=
 OpenBabel11122412133D

 34 41  0  0  1  0  0  0  0  0999 V2000
  183.8000  178.6080  143.6000 C   0  0  0  0  0  0  0  0  0  0  0  0
  185.4250  178.3090  145.5690 C   0  0  0  0  0  2  0  0  0  0  0  0
  182.6010  177.1510  137.4510 C   0  0  2  0  0  3  0  0  0  0  0  0
  182.4260  178.7380  141.5960 C   0  0  0  0  0  0  0  0  0  0  0  0
  183.5890  178.0750  139.4770 C   0  0  1  0  0  3  0  0  0  0  0  0
  184.6740  177.5690  137.1860 C   0  0  0  0  0  2  0  0  0  0  0  0
  183.6700  176.6490  136.5060 C   0  0  0  0  0  2  0  0  0  0  0  0
  180.4660  178.8580  138.0150 S   0  0  0  0  0  0  0  0  0  0  0  0
  186.2520  178.2720  143.3570 C   0  0  0  0  0  0  0  0  0  0  0  0
  189.3130  177.4770  142.6010 C   0  0  0  0  0  2  0  0  0  0  0  0
  184.7950  178.7140  140.0010 N   0  0  0  0  0  2  0  0  0  0  0  0
  181.0290  178.0960  139.5930 C   0  0  0  0  0  2  0  0  0  0  0  0
  186.1680  178.2840  142.0050 C   0  0  0  0  0  0  0  0  0  0  0  0
  186.9040  177.9050  145.6090 C   0  0  0  0  0  2  0  0  0  0  0  0
  182.3350  178.7460  140.0910 C   0  0  1  0  0  3  0  0  0  0  0  0
  181.3880  177.8000  136.8160 C   0  0  0  0  0  2  0  0  0  0  0  0
  188.3770  176.9960  143.7160 C   0  0  2  0  0  3  0  0  0  0  0  0
  183.6870  178.6190  142.2050 C   0  0  0  0  0  0  0  0  0  0  0  0
  183.5410  178.2110  137.9660 C   0  0  1  0  0  3  0  0  0  0  0  0
  184.8720  178.4720  141.3890 N   0  0  0  0  0  0  0  0  0  0  0  0
  181.4110  178.9360  143.7980 C   0  0  0  0  0  3  0  0  0  0  0  0
  188.6740  178.4750  141.6320 C   0  0  0  0  0  2  0  0  0  0  0  0
  181.2930  178.9260  142.4030 C   0  0  0  0  0  3  0  0  0  0  0  0
  187.3410  177.9610  141.1090 C   0  0  0  0  0  2  0  0  0  0  0  0
  187.4760  178.1360  144.2010 C   0  0  1  0  0  3  0  0  0  0  0  0
  182.6620  178.7690  144.3980 C   0  0  0  0  0  3  0  0  0  0  0  0
  185.1010  178.4300  144.1630 N   0  0  0  0  0  0  0  0  0  0  0  0
  189.1510  176.4860  144.7620 O   0  0  0  0  0  0  0  0  0  0  0  0
  190.4720  176.7380  144.3840 C   0  0  0  0  0  2  0  0  0  0  0  0
  190.3340  176.3680  147.6130 O   0  0  0  0  0  0  0  0  0  0  0  0
  192.1010  176.0040  146.0910 C   0  0  0  0  0  2  0  0  0  0  0  0
  191.2860  177.1620  145.5940 C   0  0  2  0  0  3  0  0  0  0  0  0
  191.6070  175.7910  147.5020 C   0  0  0  0  0  2  0  0  0  0  0  0
  190.3540  177.4690  146.7440 C   0  0  0  0  0  2  0  0  0  0  0  0
  1 27  1  0  0  0  0
  1 26  1  0  0  0  0
  2 14  1  0  0  0  0
  3  7  1  6  0  0  0
  3 19  1  0  0  0  0
  4 18  1  0  0  0  0
  4 23  2  0  0  0  0
  5 11  1  1  0  0  0
  5 15  1  0  0  0  0
  7  6  1  0  0  0  0
  8 12  1  0  0  0  0
  9 27  1  0  0  0  0
  9 25  1  0  0  0  0
 10 17  1  0  0  0  0
 11 20  1  0  0  0  0
 13  9  2  0  0  0  0
 15 12  1  1  0  0  0
 15  4  1  0  0  0  0
 16  3  1  0  0  0  0
 16  8  1  0  0  0  0
 17 25  1  0  0  0  0
 17 28  1  1  0  0  0
 18  1  2  0  0  0  0
 19  6  1  6  0  0  0
 19  5  1  0  0  0  0
 20 13  1  0  0  0  0
 20 18  1  0  0  0  0
 21 26  2  0  0  0  0
 22 10  1  0  0  0  0
 23 21  1  0  0  0  0
 24 22  1  0  0  0  0
 24 13  1  0  0  0  0
 25 14  1  1  0  0  0
 27  2  1  0  0  0  0
 29 28  1  0  0  0  0
 31 33  1  0  0  0  0
 32 29  1  6  0  0  0
 32 31  1  0  0  0  0
 32 34  1  0  0  0  0
 33 30  1  0  0  0  0
 34 30  1  0  0  0  0
M  END
>  <MODEL>
2

>  <REMARK>
 VINA RESULT:      -9.2      3.941      5.698
  Name = 
  3 active torsions:
  status: ('A' for Active; 'I' for Inactive)
    1  A    between atoms: C_17  and  O_28
    2  A    between atoms: O_28  and  C_29
    3  A    between atoms: C_29  and  C_32
                            x       y       z     vdW  Elec       q    Type
                         _______ _______ _______ _____ _____    ______ ____

>  <TORSDO>
F 3

$$$$
=
 OpenBabel11122412133D

 34 41  0  0  1  0  0  0  0  0999 V2000
  190.0220  177.1230  141.3810 C   0  0  0  0  0  0  0  0  0  0  0  0
  191.5680  176.3790  139.4670 C   0  0  0  0  0  2  0  0  0  0  0  0
  183.9420  178.2470  143.1500 C   0  0  2  0  0  3  0  0  0  0  0  0
  188.3590  177.7920  143.0250 C   0  0  0  0  0  0  0  0  0  0  0  0
  186.1210  178.3990  142.0730 C   0  0  1  0  0  3  0  0  0  0  0  0
  183.8050  179.2000  141.2490 C   0  0  0  0  0  2  0  0  0  0  0  0
  182.8260  178.4630  142.1520 C   0  0  0  0  0  2  0  0  0  0  0  0
  185.3120  179.0030  145.4610 S   0  0  0  0  0  0  0  0  0  0  0  0
  189.5470  177.4950  138.9690 C   0  0  0  0  0  0  0  0  0  0  0  0
  188.3790  177.8290  135.9530 C   0  0  0  0  0  2  0  0  0  0  0  0
  186.8250  179.0040  140.9430 N   0  0  0  0  0  2  0  0  0  0  0  0
  186.3450  177.7820  144.5500 C   0  0  0  0  0  2  0  0  0  0  0  0
  188.3530  178.0730  139.2450 C   0  0  0  0  0  0  0  0  0  0  0  0
  191.3550  176.3460  137.9490 C   0  0  0  0  0  2  0  0  0  0  0  0
  187.0260  178.4310  143.3290 C   0  0  1  0  0  3  0  0  0  0  0  0
  183.7240  178.8110  144.5400 C   0  0  0  0  0  2  0  0  0  0  0  0
  189.1940  176.7120  136.6170 C   0  0  2  0  0  3  0  0  0  0  0  0
  188.7910  177.7120  141.6910 C   0  0  0  0  0  0  0  0  0  0  0  0
  184.8410  179.1610  142.3590 C   0  0  1  0  0  3  0  0  0  0  0  0
  187.9470  178.2090  140.6270 N   0  0  0  0  0  0  0  0  0  0  0  0
  190.4510  176.7770  143.7380 C   0  0  0  0  0  3  0  0  0  0  0  0
  187.9980  178.9730  136.8950 C   0  0  0  0  0  2  0  0  0  0  0  0
  189.2110  177.3460  144.0480 C   0  0  0  0  0  3  0  0  0  0  0  0
  187.3580  178.4480  138.1710 C   0  0  0  0  0  2  0  0  0  0  0  0
  190.1830  177.2900  137.6350 C   0  0  1  0  0  3  0  0  0  0  0  0
  190.8550  176.6570  142.4050 C   0  0  0  0  0  3  0  0  0  0  0  0
  190.3860  177.0200  140.0030 N   0  0  0  0  0  0  0  0  0  0  0  0
  189.8590  175.9910  135.6220 O   0  0  0  0  0  0  0  0  0  0  0  0
  188.9750  174.9680  135.2710 C   0  0  0  0  0  2  0  0  0  0  0  0
  186.8450  172.6180  135.9980 O   0  0  0  0  0  0  0  0  0  0  0  0
  189.0030  173.0610  136.8440 C   0  0  0  0  0  2  0  0  0  0  0  0
  188.3490  174.3730  136.5210 C   0  0  2  0  0  3  0  0  0  0  0  0
  187.8720  172.0630  136.7740 C   0  0  0  0  0  2  0  0  0  0  0  0
  186.9120  173.9990  136.2340 C   0  0  0  0  0  2  0  0  0  0  0  0
  1 18  2  0  0  0  0
  1 26  1  0  0  0  0
  2 27  1  0  0  0  0
  3  7  1  6  0  0  0
  3 16  1  0  0  0  0
  4 15  1  0  0  0  0
  4 23  2  0  0  0  0
  5 11  1  6  0  0  0
  5 19  1  0  0  0  0
  5 15  1  0  0  0  0
  6  7  1  0  0  0  0
  9 13  2  0  0  0  0
  9 27  1  0  0  0  0
 10 17  1  0  0  0  0
 10 22  1  0  0  0  0
 12  8  1  0  0  0  0
 13 20  1  0  0  0  0
 14  2  1  0  0  0  0
 15 12  1  1  0  0  0
 16  8  1  0  0  0  0
 17 28  1  6  0  0  0
 17 25  1  0  0  0  0
 18  4  1  0  0  0  0
 19  6  1  6  0  0  0
 19  3  1  0  0  0  0
 20 11  1  0  0  0  0
 20 18  1  0  0  0  0
 21 23  1  0  0  0  0
 22 24  1  0  0  0  0
 24 13  1  0  0  0  0
 25 14  1  1  0  0  0
 25  9  1  0  0  0  0
 26 21  2  0  0  0  0
 27  1  1  0  0  0  0
 29 28  1  0  0  0  0
 30 34  1  0  0  0  0
 30 33  1  0  0  0  0
 32 29  1  6  0  0  0
 32 31  1  0  0  0  0
 33 31  1  0  0  0  0
 34 32  1  0  0  0  0
M  END
>  <MODEL>
3

>  <REMARK>
 VINA RESULT:      -8.5      2.441      3.632
  Name = 
  3 active torsions:
  status: ('A' for Active; 'I' for Inactive)
    1  A    between atoms: C_17  and  O_28
    2  A    between atoms: O_28  and  C_29
    3  A    between atoms: C_29  and  C_32
                            x       y       z     vdW  Elec       q    Type
                         _______ _______ _______ _____ _____    ______ ____

>  <TORSDO>
F 3

$$$$
=
 OpenBabel11122412133D

 34 41  0  0  1  0  0  0  0  0999 V2000
  189.1740  177.3870  138.8480 C   0  0  0  0  0  0  0  0  0  0  0  0
  188.0520  177.1960  136.5430 C   0  0  0  0  0  2  0  0  0  0  0  0
  188.2930  177.0920  145.2120 C   0  0  2  0  0  3  0  0  0  0  0  0
  189.9990  177.5160  141.1330 C   0  0  0  0  0  0  0  0  0  0  0  0
  188.2240  177.7920  142.8800 C   0  0  1  0  0  3  0  0  0  0  0  0
  186.5390  178.2260  144.7920 C   0  0  0  0  0  2  0  0  0  0  0  0
  186.9290  177.2100  145.8560 C   0  0  0  0  0  2  0  0  0  0  0  0
  190.9870  177.8080  145.0850 S   0  0  0  0  0  0  0  0  0  0  0  0
  186.7960  177.9540  138.3940 C   0  0  0  0  0  0  0  0  0  0  0  0
  183.5800  178.4240  138.3070 C   0  0  0  0  0  2  0  0  0  0  0  0
  187.5080  178.6560  141.9410 N   0  0  0  0  0  2  0  0  0  0  0  0
  190.5480  176.9310  143.5280 C   0  0  0  0  0  2  0  0  0  0  0  0
  186.5690  178.2530  139.6960 C   0  0  0  0  0  0  0  0  0  0  0  0
  186.5830  177.3100  136.1210 C   0  0  0  0  0  2  0  0  0  0  0  0
  189.7430  177.8440  142.5830 C   0  0  1  0  0  3  0  0  0  0  0  0
  189.4830  177.4280  146.0870 C   0  0  0  0  0  2  0  0  0  0  0  0
  184.4860  177.4130  137.5940 C   0  0  2  0  0  3  0  0  0  0  0  0
  188.9630  177.6850  140.1990 C   0  0  0  0  0  0  0  0  0  0  0  0
  187.9760  178.2530  144.3050 C   0  0  1  0  0  3  0  0  0  0  0  0
  187.6620  178.1360  140.6390 N   0  0  0  0  0  0  0  0  0  0  0  0
  191.4830  176.8440  139.3270 C   0  0  0  0  0  3  0  0  0  0  0  0
  184.3150  179.3490  139.2800 C   0  0  0  0  0  2  0  0  0  0  0  0
  191.2690  177.1210  140.6820 C   0  0  0  0  0  3  0  0  0  0  0  0
  185.1920  178.5580  140.2390 C   0  0  0  0  0  2  0  0  0  0  0  0
  185.8400  178.0410  137.2510 C   0  0  1  0  0  3  0  0  0  0  0  0
  190.4360  176.9690  138.4100 C   0  0  0  0  0  3  0  0  0  0  0  0
  188.0690  177.5260  137.9530 N   0  0  0  0  0  0  0  0  0  0  0  0
  183.8350  176.9610  136.4430 O   0  0  0  0  0  0  0  0  0  0  0  0
  183.2620  175.7410  136.8130 C   0  0  0  0  0  2  0  0  0  0  0  0
  184.5560  172.9300  137.8200 O   0  0  0  0  0  0  0  0  0  0  0  0
  183.1510  173.4140  135.9870 C   0  0  0  0  0  2  0  0  0  0  0  0
  184.0530  174.5930  136.2090 C   0  0  2  0  0  3  0  0  0  0  0  0
  183.7580  172.3260  136.8390 C   0  0  0  0  0  2  0  0  0  0  0  0
  185.0620  174.0920  137.2180 C   0  0  0  0  0  2  0  0  0  0  0  0
  1 18  1  0  0  0  0
  2 27  1  0  0  0  0
  3  7  1  1  0  0  0
  3 16  1  0  0  0  0
  4 15  1  0  0  0  0
  5 11  1  6  0  0  0
  5 19  1  0  0  0  0
  6  7  1  0  0  0  0
  8 16  1  0  0  0  0
  9 13  2  0  0  0  0
 10 22  1  0  0  0  0
 12  8  1  0  0  0  0
 13 24  1  0  0  0  0
 13 20  1  0  0  0  0
 14  2  1  0  0  0  0
 15  5  1  0  0  0  0
 15 12  1  1  0  0  0
 17 28  1  6  0  0  0
 17 10  1  0  0  0  0
 18 20  1  0  0  0  0
 18  4  2  0  0  0  0
 19  6  1  6  0  0  0
 19  3  1  0  0  0  0
 20 11  1  0  0  0  0
 21 23  2  0  0  0  0
 22 24  1  0  0  0  0
 23  4  1  0  0  0  0
 25 14  1  6  0  0  0
 25 17  1  0  0  0  0
 25  9  1  0  0  0  0
 26  1  2  0  0  0  0
 26 21  1  0  0  0  0
 27  9  1  0  0  0  0
 27  1  1  0  0  0  0
 28 29  1  0  0  0  0
 31 32  1  0  0  0  0
 31 33  1  0  0  0  0
 32 29  1  1  0  0  0
 32 34  1  0  0  0  0
 33 30  1  0  0  0  0
 34 30  1  0  0  0  0
M  END
>  <MODEL>
4

>  <REMARK>
 VINA RESULT:      -8.3      3.500      6.865
  Name = 
  3 active torsions:
  status: ('A' for Active; 'I' for Inactive)
    1  A    between atoms: C_17  and  O_28
    2  A    between atoms: O_28  and  C_29
    3  A    between atoms: C_29  and  C_32
                            x       y       z     vdW  Elec       q    Type
                         _______ _______ _______ _____ _____    ______ ____

>  <TORSDO>
F 3

$$$$
=
 OpenBabel11122412133D

 34 41  0  0  1  0  0  0  0  0999 V2000
  188.9910  177.6630  142.9400 C   0  0  0  0  0  0  0  0  0  0  0  0
  191.2560  176.9040  141.9880 C   0  0  0  0  0  2  0  0  0  0  0  0
  182.6780  178.1760  141.8230 C   0  0  2  0  0  3  0  0  0  0  0  0
  186.7420  178.2990  143.6130 C   0  0  0  0  0  0  0  0  0  0  0  0
  185.0930  178.4840  141.7350 C   0  0  1  0  0  3  0  0  0  0  0  0
  183.3050  178.8660  139.9070 C   0  0  0  0  0  2  0  0  0  0  0  0
  182.0870  178.1200  140.4320 C   0  0  0  0  0  2  0  0  0  0  0  0
  182.8700  179.3800  144.3340 S   0  0  0  0  0  0  0  0  0  0  0  0
  189.5720  177.6740  140.5220 C   0  0  0  0  0  0  0  0  0  0  0  0
  189.7900  177.4840  137.2840 C   0  0  0  0  0  2  0  0  0  0  0  0
  186.1700  179.0360  140.9140 N   0  0  0  0  0  2  0  0  0  0  0  0
  184.2760  178.2060  144.1470 C   0  0  0  0  0  2  0  0  0  0  0  0
  188.3390  178.1180  140.1790 C   0  0  0  0  0  0  0  0  0  0  0  0
  191.7180  176.6610  140.5460 C   0  0  0  0  0  2  0  0  0  0  0  0
  185.3670  178.7870  143.2290 C   0  0  1  0  0  3  0  0  0  0  0  0
  181.8480  178.8700  142.8840 C   0  0  0  0  0  2  0  0  0  0  0  0
  190.3160  176.5740  138.4000 C   0  0  2  0  0  3  0  0  0  0  0  0
  187.7090  178.1160  142.6100 C   0  0  0  0  0  0  0  0  0  0  0  0
  183.7650  179.0990  141.3350 C   0  0  1  0  0  3  0  0  0  0  0  0
  187.3710  178.3640  141.2270 N   0  0  0  0  0  0  0  0  0  0  0  0
  188.3910  177.6640  145.2840 C   0  0  0  0  0  3  0  0  0  0  0  0
  188.9650  178.6730  137.7800 C   0  0  0  0  0  2  0  0  0  0  0  0
  187.1020  178.0970  144.9550 C   0  0  0  0  0  3  0  0  0  0  0  0
  187.8760  178.2260  138.7450 C   0  0  0  0  0  2  0  0  0  0  0  0
  190.7310  177.3960  139.6240 C   0  0  1  0  0  3  0  0  0  0  0  0
  189.3350  177.4390  144.2780 C   0  0  0  0  0  3  0  0  0  0  0  0
  189.9170  177.4430  141.8730 N   0  0  0  0  0  0  0  0  0  0  0  0
  191.3920  175.8320  137.9040 O   0  0  0  0  0  0  0  0  0  0  0  0
  190.9260  175.2850  136.7060 C   0  0  0  0  0  2  0  0  0  0  0  0
  189.3560  172.8920  135.1570 O   0  0  0  0  0  0  0  0  0  0  0  0
  191.6030  173.0640  135.8580 C   0  0  0  0  0  2  0  0  0  0  0  0
  190.7450  173.7840  136.8570 C   0  0  2  0  0  3  0  0  0  0  0  0
  190.6140  172.2890  135.0210 C   0  0  0  0  0  2  0  0  0  0  0  0
  189.3350  173.4060  136.4630 C   0  0  0  0  0  2  0  0  0  0  0  0
  1 26  1  0  0  0  0
  3  7  1  6  0  0  0
  3 16  1  0  0  0  0
  4 23  2  0  0  0  0
  5 11  1  6  0  0  0
  5 15  1  0  0  0  0
  6  7  1  0  0  0  0
  9 27  1  0  0  0  0
 10 22  1  0  0  0  0
 10 17  1  0  0  0  0
 11 20  1  0  0  0  0
 12  8  1  0  0  0  0
 13  9  2  0  0  0  0
 13 20  1  0  0  0  0
 14  2  1  0  0  0  0
 15  4  1  0  0  0  0
 15 12  1  1  0  0  0
 16  8  1  0  0  0  0
 17 28  1  6  0  0  0
 17 25  1  0  0  0  0
 18  1  2  0  0  0  0
 18  4  1  0  0  0  0
 19  6  1  6  0  0  0
 19  5  1  0  0  0  0
 19  3  1  0  0  0  0
 20 18  1  0  0  0  0
 22 24  1  0  0  0  0
 23 21  1  0  0  0  0
 24 13  1  0  0  0  0
 25  9  1  0  0  0  0
 25 14  1  1  0  0  0
 26 21  2  0  0  0  0
 27  2  1  0  0  0  0
 27  1  1  0  0  0  0
 29 28  1  0  0  0  0
 30 34  1  0  0  0  0
 31 32  1  0  0  0  0
 32 29  1  6  0  0  0
 33 30  1  0  0  0  0
 33 31  1  0  0  0  0
 34 32  1  0  0  0  0
M  END
>  <MODEL>
5

>  <REMARK>
 VINA RESULT:      -8.3      1.648      2.049
  Name = 
  3 active torsions:
  status: ('A' for Active; 'I' for Inactive)
    1  A    between atoms: C_17  and  O_28
    2  A    between atoms: O_28  and  C_29
    3  A    between atoms: C_29  and  C_32
                            x       y       z     vdW  Elec       q    Type
                         _______ _______ _______ _____ _____    ______ ____

>  <TORSDO>
F 3

$$$$
=
 OpenBabel11122412133D

 34 41  0  0  1  0  0  0  0  0999 V2000
  184.5730  178.4220  144.3320 C   0  0  0  0  0  0  0  0  0  0  0  0
  182.4500  179.1880  143.1010 C   0  0  0  0  0  2  0  0  0  0  0  0
  190.9930  178.1060  144.1290 C   0  0  2  0  0  3  0  0  0  0  0  0
  186.7180  177.7940  145.2920 C   0  0  0  0  0  0  0  0  0  0  0  0
  188.6270  177.7540  143.6690 C   0  0  1  0  0  3  0  0  0  0  0  0
  190.6730  177.5180  142.1060 C   0  0  0  0  0  2  0  0  0  0  0  0
  191.7800  178.2560  142.8450 C   0  0  0  0  0  2  0  0  0  0  0  0
  190.4730  176.7510  146.5130 S   0  0  0  0  0  0  0  0  0  0  0  0
  184.3510  178.5420  141.8580 C   0  0  0  0  0  0  0  0  0  0  0  0
  184.6010  178.9180  138.6380 C   0  0  0  0  0  2  0  0  0  0  0  0
  187.6980  177.2290  142.6690 N   0  0  0  0  0  2  0  0  0  0  0  0
  189.0760  177.9050  146.1870 C   0  0  0  0  0  2  0  0  0  0  0  0
  185.6340  178.1440  141.6760 C   0  0  0  0  0  0  0  0  0  0  0  0
  182.1960  179.5070  141.6230 C   0  0  0  0  0  2  0  0  0  0  0  0
  188.1470  177.3570  145.0870 C   0  0  1  0  0  3  0  0  0  0  0  0
  191.6810  177.3680  145.2600 C   0  0  0  0  0  2  0  0  0  0  0  0
  183.8920  179.7500  139.7130 C   0  0  2  0  0  3  0  0  0  0  0  0
  185.9020  178.0150  144.1700 C   0  0  0  0  0  0  0  0  0  0  0  0
  190.0170  177.1910  143.4350 C   0  0  1  0  0  3  0  0  0  0  0  0
  186.4460  177.8560  142.8390 N   0  0  0  0  0  0  0  0  0  0  0  0
  184.8250  178.2940  146.7350 C   0  0  0  0  0  3  0  0  0  0  0  0
  185.3800  177.7200  139.1840 C   0  0  0  0  0  2  0  0  0  0  0  0
  186.1600  177.9080  146.5750 C   0  0  0  0  0  3  0  0  0  0  0  0
  186.3030  178.1310  140.3210 C   0  0  0  0  0  2  0  0  0  0  0  0
  183.3280  178.8480  140.8160 C   0  0  1  0  0  3  0  0  0  0  0  0
  184.0320  178.5590  145.6150 C   0  0  0  0  0  3  0  0  0  0  0  0
  183.8060  178.6850  143.1540 N   0  0  0  0  0  0  0  0  0  0  0  0
  182.8790  180.4980  139.1070 O   0  0  0  0  0  0  0  0  0  0  0  0
  182.2810  179.6180  138.2000 C   0  0  0  0  0  2  0  0  0  0  0  0
  180.6860  182.4420  137.9380 O   0  0  0  0  0  0  0  0  0  0  0  0
  180.8030  180.5930  136.4760 C   0  0  0  0  0  2  0  0  0  0  0  0
  180.8690  180.0800  137.8850 C   0  0  2  0  0  3  0  0  0  0  0  0
  180.3790  182.0330  136.6330 C   0  0  0  0  0  2  0  0  0  0  0  0
  180.5360  181.2910  138.7270 C   0  0  0  0  0  2  0  0  0  0  0  0
  1 26  1  0  0  0  0
  2 27  1  0  0  0  0
  3  7  1  6  0  0  0
  3 16  1  0  0  0  0
  4 23  2  0  0  0  0
  5 11  1  6  0  0  0
  5 15  1  0  0  0  0
  6  7  1  0  0  0  0
  9 27  1  0  0  0  0
 10 22  1  0  0  0  0
 10 17  1  0  0  0  0
 11 20  1  0  0  0  0
 12  8  1  0  0  0  0
 13  9  2  0  0  0  0
 13 20  1  0  0  0  0
 14  2  1  0  0  0  0
 15  4  1  0  0  0  0
 15 12  1  1  0  0  0
 16  8  1  0  0  0  0
 17 28  1  6  0  0  0
 17 25  1  0  0  0  0
 18  1  2  0  0  0  0
 18  4  1  0  0  0  0
 19  6  1  6  0  0  0
 19  5  1  0  0  0  0
 19  3  1  0  0  0  0
 20 18  1  0  0  0  0
 22 24  1  0  0  0  0
 23 21  1  0  0  0  0
 24 13  1  0  0  0  0
 25 14  1  1  0  0  0
 25  9  1  0  0  0  0
 26 21  2  0  0  0  0
 27  1  1  0  0  0  0
 29 28  1  0  0  0  0
 30 34  1  0  0  0  0
 31 33  1  0  0  0  0
 31 32  1  0  0  0  0
 32 29  1  1  0  0  0
 32 34  1  0  0  0  0
 33 30  1  0  0  0  0
M  END
>  <MODEL>
6

>  <REMARK>
 VINA RESULT:      -8.2      4.372      8.355
  Name = 
  3 active torsions:
  status: ('A' for Active; 'I' for Inactive)
    1  A    between atoms: C_17  and  O_28
    2  A    between atoms: O_28  and  C_29
    3  A    between atoms: C_29  and  C_32
                            x       y       z     vdW  Elec       q    Type
                         _______ _______ _______ _____ _____    ______ ____

>  <TORSDO>
F 3

$$$$
=
 OpenBabel11122412133D

 34 41  0  0  1  0  0  0  0  0999 V2000
  182.1220  178.7750  143.0770 C   0  0  0  0  0  0  0  0  0  0  0  0
  183.7140  178.7360  145.0960 C   0  0  0  0  0  2  0  0  0  0  0  0
  181.2280  176.8840  136.9950 C   0  0  2  0  0  3  0  0  0  0  0  0
  180.7970  178.6680  141.0410 C   0  0  0  0  0  0  0  0  0  0  0  0
  182.0720  178.0040  138.9880 C   0  0  1  0  0  3  0  0  0  0  0  0
  183.2600  177.4790  136.7520 C   0  0  0  0  0  2  0  0  0  0  0  0
  182.3640  176.4340  136.1030 C   0  0  0  0  0  2  0  0  0  0  0  0
  178.9300  178.4110  137.4170 S   0  0  0  0  0  0  0  0  0  0  0  0
  184.6010  178.6570  142.9080 C   0  0  0  0  0  0  0  0  0  0  0  0
  187.7400  178.1130  142.2630 C   0  0  0  0  0  2  0  0  0  0  0  0
  183.2000  178.7800  139.5010 N   0  0  0  0  0  2  0  0  0  0  0  0
  179.5190  177.7910  139.0470 C   0  0  0  0  0  2  0  0  0  0  0  0
  184.5520  178.5890  141.5550 C   0  0  0  0  0  0  0  0  0  0  0  0
  185.2220  178.4740  145.1900 C   0  0  0  0  0  2  0  0  0  0  0  0
  180.7450  178.5860  139.5350 C   0  0  1  0  0  3  0  0  0  0  0  0
  179.9780  177.3810  136.2990 C   0  0  0  0  0  2  0  0  0  0  0  0
  186.8230  177.6070  143.3830 C   0  0  2  0  0  3  0  0  0  0  0  0
  182.0460  178.7000  141.6820 C   0  0  0  0  0  0  0  0  0  0  0  0
  182.0520  178.0530  137.4710 C   0  0  1  0  0  3  0  0  0  0  0  0
  183.2610  178.6220  140.9010 N   0  0  0  0  0  0  0  0  0  0  0  0
  179.7080  178.8880  143.2050 C   0  0  0  0  0  3  0  0  0  0  0  0
  187.0390  178.9930  141.2260 C   0  0  0  0  0  2  0  0  0  0  0  0
  179.6290  178.7910  141.8110 C   0  0  0  0  0  3  0  0  0  0  0  0
  185.7730  178.3300  140.7040 C   0  0  0  0  0  2  0  0  0  0  0  0
  185.8080  178.6820  143.7840 C   0  0  1  0  0  3  0  0  0  0  0  0
  180.9530  178.8710  143.8410 C   0  0  0  0  0  3  0  0  0  0  0  0
  183.4190  178.7490  143.6780 N   0  0  0  0  0  0  0  0  0  0  0  0
  187.6120  177.2290  144.4730 O   0  0  0  0  0  0  0  0  0  0  0  0
  188.7260  176.6040  143.9060 C   0  0  0  0  0  2  0  0  0  0  0  0
  191.8220  177.4400  143.3540 O   0  0  0  0  0  0  0  0  0  0  0  0
  190.1950  178.3920  144.7740 C   0  0  0  0  0  2  0  0  0  0  0  0
  189.9660  176.9100  144.7290 C   0  0  2  0  0  3  0  0  0  0  0  0
  191.5530  178.5700  144.1380 C   0  0  0  0  0  2  0  0  0  0  0  0
  191.1870  176.3770  144.0140 C   0  0  0  0  0  2  0  0  0  0  0  0
  1 27  1  0  0  0  0
  1 26  1  0  0  0  0
  2 14  1  0  0  0  0
  3  7  1  6  0  0  0
  3 19  1  0  0  0  0
  4 18  1  0  0  0  0
  4 23  2  0  0  0  0
  5 11  1  1  0  0  0
  5 15  1  0  0  0  0
  7  6  1  0  0  0  0
  8 12  1  0  0  0  0
  9 27  1  0  0  0  0
  9 25  1  0  0  0  0
 10 17  1  0  0  0  0
 11 20  1  0  0  0  0
 13  9  2  0  0  0  0
 15 12  1  1  0  0  0
 15  4  1  0  0  0  0
 16  3  1  0  0  0  0
 16  8  1  0  0  0  0
 17 25  1  0  0  0  0
 17 28  1  1  0  0  0
 18  1  2  0  0  0  0
 19  6  1  6  0  0  0
 19  5  1  0  0  0  0
 20 13  1  0  0  0  0
 20 18  1  0  0  0  0
 21 26  2  0  0  0  0
 22 10  1  0  0  0  0
 23 21  1  0  0  0  0
 24 22  1  0  0  0  0
 24 13  1  0  0  0  0
 25 14  1  1  0  0  0
 27  2  1  0  0  0  0
 29 28  1  0  0  0  0
 30 34  1  0  0  0  0
 30 33  1  0  0  0  0
 32 29  1  6  0  0  0
 32 31  1  0  0  0  0
 33 31  1  0  0  0  0
 34 32  1  0  0  0  0
M  END
>  <MODEL>
7

>  <REMARK>
 VINA RESULT:      -8.2      4.067      5.944
  Name = 
  3 active torsions:
  status: ('A' for Active; 'I' for Inactive)
    1  A    between atoms: C_17  and  O_28
    2  A    between atoms: O_28  and  C_29
    3  A    between atoms: C_29  and  C_32
                            x       y       z     vdW  Elec       q    Type
                         _______ _______ _______ _____ _____    ______ ____

>  <TORSDO>
F 3

$$$$
=
 OpenBabel11122412133D

 34 41  0  0  1  0  0  0  0  0999 V2000
  186.6870  178.3150  140.2170 C   0  0  0  0  0  0  0  0  0  0  0  0
  184.4650  178.4690  138.9330 C   0  0  0  0  0  2  0  0  0  0  0  0
  189.4880  176.7540  145.7920 C   0  0  2  0  0  3  0  0  0  0  0  0
  188.6480  178.0780  141.6360 C   0  0  0  0  0  0  0  0  0  0  0  0
  188.1580  177.8730  144.0850 C   0  0  1  0  0  3  0  0  0  0  0  0
  187.8400  177.7980  146.6500 C   0  0  0  0  0  2  0  0  0  0  0  0
  188.7180  176.6350  147.0890 C   0  0  0  0  0  2  0  0  0  0  0  0
  191.6800  177.7010  144.3470 S   0  0  0  0  0  0  0  0  0  0  0  0
  184.4810  178.7580  141.2770 C   0  0  0  0  0  0  0  0  0  0  0  0
  181.7820  178.9700  143.0760 C   0  0  0  0  0  2  0  0  0  0  0  0
  187.0740  178.8350  143.8950 N   0  0  0  0  0  2  0  0  0  0  0  0
  190.4150  177.0990  143.1510 C   0  0  0  0  0  2  0  0  0  0  0  0
  185.0290  178.7870  142.5150 C   0  0  0  0  0  0  0  0  0  0  0  0
  183.0140  178.5390  139.4250 C   0  0  0  0  0  2  0  0  0  0  0  0
  189.2550  178.1040  143.0170 C   0  0  1  0  0  3  0  0  0  0  0  0
  190.9750  177.0160  145.9100 C   0  0  0  0  0  2  0  0  0  0  0  0
  182.0990  178.1890  141.7950 C   0  0  2  0  0  3  0  0  0  0  0  0
  187.2750  178.3340  141.4860 C   0  0  0  0  0  0  0  0  0  0  0  0
  188.7630  178.0340  145.4670 C   0  0  1  0  0  3  0  0  0  0  0  0
  186.4560  178.5860  142.6510 N   0  0  0  0  0  0  0  0  0  0  0  0
  188.8490  177.8840  139.2190 C   0  0  0  0  0  3  0  0  0  0  0  0
  182.9680  179.7520  143.6440 C   0  0  0  0  0  2  0  0  0  0  0  0
  189.4350  177.8810  140.4900 C   0  0  0  0  0  3  0  0  0  0  0  0
  184.2000  178.8700  143.7760 C   0  0  0  0  0  2  0  0  0  0  0  0
  183.0550  178.9800  140.8970 C   0  0  1  0  0  3  0  0  0  0  0  0
  187.4740  178.0920  139.0810 C   0  0  0  0  0  3  0  0  0  0  0  0
  185.2760  178.5280  140.1300 N   0  0  0  0  0  0  0  0  0  0  0  0
  180.9010  177.9100  141.1320 O   0  0  0  0  0  0  0  0  0  0  0  0
  179.9150  178.5410  141.8950 C   0  0  0  0  0  2  0  0  0  0  0  0
  179.8380  181.2680  140.1230 O   0  0  0  0  0  0  0  0  0  0  0  0
  179.3170  179.0390  139.5490 C   0  0  0  0  0  2  0  0  0  0  0  0
  178.9320  179.2560  140.9840 C   0  0  2  0  0  3  0  0  0  0  0  0
  179.5770  180.4330  139.0290 C   0  0  0  0  0  2  0  0  0  0  0  0
  179.0660  180.7500  141.1730 C   0  0  0  0  0  2  0  0  0  0  0  0
  1 18  1  0  0  0  0
  2 14  1  0  0  0  0
  2 27  1  0  0  0  0
  3 16  1  1  0  0  0
  3  7  1  0  0  0  0
  4 15  1  0  0  0  0
  5 11  1  6  0  0  0
  5 19  1  0  0  0  0
  6  7  1  0  0  0  0
  8 16  1  0  0  0  0
  9 13  2  0  0  0  0
 10 22  1  0  0  0  0
 12  8  1  0  0  0  0
 13 20  1  0  0  0  0
 13 24  1  0  0  0  0
 15 12  1  6  0  0  0
 15  5  1  0  0  0  0
 17 28  1  6  0  0  0
 17 10  1  0  0  0  0
 18  4  2  0  0  0  0
 18 20  1  0  0  0  0
 19  3  1  0  0  0  0
 19  6  1  1  0  0  0
 20 11  1  0  0  0  0
 21 23  2  0  0  0  0
 22 24  1  0  0  0  0
 23  4  1  0  0  0  0
 25 14  1  6  0  0  0
 25  9  1  0  0  0  0
 25 17  1  0  0  0  0
 26 21  1  0  0  0  0
 26  1  2  0  0  0  0
 27  1  1  0  0  0  0
 27  9  1  0  0  0  0
 28 29  1  0  0  0  0
 30 34  1  0  0  0  0
 31 32  1  0  0  0  0
 32 34  1  0  0  0  0
 32 29  1  1  0  0  0
 33 31  1  0  0  0  0
 33 30  1  0  0  0  0
M  END
>  <MODEL>
8

>  <REMARK>
 VINA RESULT:      -8.1      4.373      9.156
  Name = 
  3 active torsions:
  status: ('A' for Active; 'I' for Inactive)
    1  A    between atoms: C_17  and  O_28
    2  A    between atoms: O_28  and  C_29
    3  A    between atoms: C_29  and  C_32
                            x       y       z     vdW  Elec       q    Type
                         _______ _______ _______ _____ _____    ______ ____

>  <TORSDO>
F 3

$$$$
=
 OpenBabel11122412133D

 34 41  0  0  1  0  0  0  0  0999 V2000
  188.9600  177.4000  138.8220 C   0  0  0  0  0  0  0  0  0  0  0  0
  187.8120  177.2330  136.5280 C   0  0  0  0  0  2  0  0  0  0  0  0
  188.1390  177.0900  145.1940 C   0  0  2  0  0  3  0  0  0  0  0  0
  189.8090  177.5080  141.0990 C   0  0  0  0  0  0  0  0  0  0  0  0
  188.0560  177.8010  142.8650 C   0  0  1  0  0  3  0  0  0  0  0  0
  186.3960  178.2500  144.7960 C   0  0  0  0  0  2  0  0  0  0  0  0
  186.7830  177.2240  145.8510 C   0  0  0  0  0  2  0  0  0  0  0  0
  190.8410  177.7700  145.0420 S   0  0  0  0  0  0  0  0  0  0  0  0
  186.5850  178.0010  138.3950 C   0  0  0  0  0  0  0  0  0  0  0  0
  183.3750  178.5150  138.3420 C   0  0  0  0  0  2  0  0  0  0  0  0
  187.3430  178.6780  141.9370 N   0  0  0  0  0  2  0  0  0  0  0  0
  190.3750  176.9050  143.4860 C   0  0  0  0  0  2  0  0  0  0  0  0
  186.3760  178.2970  139.7000 C   0  0  0  0  0  0  0  0  0  0  0  0
  186.3400  177.3690  136.1210 C   0  0  0  0  0  2  0  0  0  0  0  0
  189.5720  177.8330  142.5530 C   0  0  1  0  0  3  0  0  0  0  0  0
  189.3430  177.4070  146.0570 C   0  0  0  0  0  2  0  0  0  0  0  0
  184.2590  177.4940  137.6170 C   0  0  2  0  0  3  0  0  0  0  0  0
  188.7660  177.6950  140.1770 C   0  0  0  0  0  0  0  0  0  0  0  0
  187.8290  178.2590  144.2940 C   0  0  1  0  0  3  0  0  0  0  0  0
  187.4760  178.1620  140.6310 N   0  0  0  0  0  0  0  0  0  0  0  0
  191.2660  176.8230  139.2750 C   0  0  0  0  0  3  0  0  0  0  0  0
  184.1320  179.4260  139.3110 C   0  0  0  0  0  2  0  0  0  0  0  0
  191.0690  177.0970  140.6330 C   0  0  0  0  0  3  0  0  0  0  0  0
  185.0080  178.6190  140.2580 C   0  0  0  0  0  2  0  0  0  0  0  0
  185.6190  178.1050  137.2620 C   0  0  1  0  0  3  0  0  0  0  0  0
  190.2110  176.9660  138.3690 C   0  0  0  0  0  3  0  0  0  0  0  0
  187.8480  177.5570  137.9390 N   0  0  0  0  0  0  0  0  0  0  0  0
  183.5910  177.0560  136.4700 O   0  0  0  0  0  0  0  0  0  0  0  0
  183.2570  175.7260  136.7390 C   0  0  0  0  0  2  0  0  0  0  0  0
  181.1190  173.2780  136.8930 O   0  0  0  0  0  0  0  0  0  0  0  0
  181.2450  175.2970  138.1090 C   0  0  0  0  0  2  0  0  0  0  0  0
  181.7480  175.5560  136.7190 C   0  0  2  0  0  3  0  0  0  0  0  0
  180.5950  173.9370  138.0130 C   0  0  0  0  0  2  0  0  0  0  0  0
  181.3940  174.2940  135.9650 C   0  0  0  0  0  2  0  0  0  0  0  0
  1 18  1  0  0  0  0
  2 27  1  0  0  0  0
  3  7  1  1  0  0  0
  3 16  1  0  0  0  0
  4 15  1  0  0  0  0
  5 11  1  6  0  0  0
  5 19  1  0  0  0  0
  6  7  1  0  0  0  0
  8 16  1  0  0  0  0
  9 13  2  0  0  0  0
 10 22  1  0  0  0  0
 12  8  1  0  0  0  0
 13 24  1  0  0  0  0
 13 20  1  0  0  0  0
 14  2  1  0  0  0  0
 15  5  1  0  0  0  0
 15 12  1  1  0  0  0
 17 28  1  6  0  0  0
 17 10  1  0  0  0  0
 18 20  1  0  0  0  0
 18  4  2  0  0  0  0
 19  6  1  6  0  0  0
 19  3  1  0  0  0  0
 20 11  1  0  0  0  0
 21 23  2  0  0  0  0
 22 24  1  0  0  0  0
 23  4  1  0  0  0  0
 25 14  1  6  0  0  0
 25 17  1  0  0  0  0
 25  9  1  0  0  0  0
 26  1  2  0  0  0  0
 26 21  1  0  0  0  0
 27  9  1  0  0  0  0
 27  1  1  0  0  0  0
 28 29  1  0  0  0  0
 30 33  1  0  0  0  0
 32 29  1  1  0  0  0
 32 31  1  0  0  0  0
 33 31  1  0  0  0  0
 34 32  1  0  0  0  0
 34 30  1  0  0  0  0
M  END
>  <MODEL>
9

>  <REMARK>
 VINA RESULT:      -8.0      3.535      7.507
  Name = 
  3 active torsions:
  status: ('A' for Active; 'I' for Inactive)
    1  A    between atoms: C_17  and  O_28
    2  A    between atoms: O_28  and  C_29
    3  A    between atoms: C_29  and  C_32
                            x       y       z     vdW  Elec       q    Type
                         _______ _______ _______ _____ _____    ______ ____

>  <TORSDO>
F 3

$$$$
