=
 OpenBabel11122410403D

 32 37  0  0  1  0  0  0  0  0999 V2000
  187.1690  177.3070  143.6770 C   0  0  0  0  0  2  0  0  0  0  0  0
  190.7540  177.4330  139.2100 C   0  0  1  0  0  3  0  0  0  0  0  0
  186.8310  175.2110  137.2790 C   0  0  0  0  0  2  0  0  0  0  0  0
  187.6000  174.6620  136.2310 O   0  0  0  0  0  0  0  0  0  0  0  0
  193.0060  176.4170  138.6170 C   0  0  0  0  0  0  0  0  0  0  0  0
  193.7280  175.4790  137.8850 C   0  0  0  0  0  0  0  0  0  0  0  0
  189.7110  177.8010  141.4660 C   0  0  1  0  0  3  0  0  0  0  0  0
  188.4960  178.5560  139.4210 C   0  0  0  0  0  2  0  0  0  0  0  0
  194.1050  173.7700  136.3310 C   0  0  1  0  0  3  0  0  0  0  0  0
  187.3770  178.7790  141.6410 C   0  0  0  0  0  2  0  0  0  0  0  0
  187.4060  176.5690  137.6940 C   0  0  0  0  0  2  0  0  0  0  0  0
  189.3880  177.6720  138.5280 C   0  0  2  0  0  3  0  0  0  0  0  0
  188.7700  176.3770  138.1990 N   0  0  2  0  0  0  0  0  0  0  0  0
  191.0060  175.5980  137.4710 C   0  0  0  0  0  0  0  0  0  0  0  0
  195.4300  174.2140  136.9940 C   0  0  0  0  0  2  0  0  0  0  0  0
  188.4070  176.0480  143.2240 S   0  0  0  0  0  0  0  0  0  0  0  0
  188.3330  177.9430  140.8060 C   0  0  2  0  0  3  0  0  0  0  0  0
  195.0860  175.2490  137.9180 O   0  0  0  0  0  0  0  0  0  0  0  0
  189.6740  177.3240  142.9200 C   0  0  0  0  0  2  0  0  0  0  0  0
  186.4600  177.8650  142.4450 C   0  0  2  0  0  3  0  0  0  0  0  0
  188.8940  174.4230  136.7340 C   0  0  0  0  0  2  0  0  0  0  0  0
  189.5490  175.7580  137.1130 C   0  0  1  0  0  3  0  0  0  0  0  0
  191.7810  174.7170  136.7680 N   0  0  0  0  0  0  0  0  0  0  0  0
  190.5780  176.8720  140.6270 C   0  0  0  0  0  2  0  0  0  0  0  0
  193.7080  177.3160  139.5790 C   0  0  0  0  0  1  0  0  0  0  0  0
  193.8260  172.3210  136.6820 C   0  0  0  0  0  1  0  0  0  0  0  0
  191.6080  176.4840  138.4070 C   0  0  0  0  0  0  0  0  0  0  0  0
  193.1160  174.6530  136.9990 C   0  0  0  0  0  0  0  0  0  0  0  0
  185.2850  178.6180  142.8580 N   0  0  0  0  0  2  0  0  0  0  0  0
  184.0060  178.4470  142.2450 C   0  0  0  0  0  0  0  0  0  0  0  0
  183.8550  177.6390  141.2910 O   0  0  0  0  0  0  0  0  0  0  0  0
  182.8950  179.2000  142.7140 N   0  0  0  0  0  1  0  0  0  0  0  0
  2 24  1  1  0  0  0
  3 11  1  0  0  0  0
  4 21  1  0  0  0  0
  4  3  1  0  0  0  0
  5 25  1  0  0  0  0
  6 18  1  0  0  0  0
  6  5  2  0  0  0  0
  7 24  1  6  0  0  0
  7 19  1  0  0  0  0
  9 26  1  1  0  0  0
  9 15  1  0  0  0  0
  9 28  1  0  0  0  0
 10 20  1  0  0  0  0
 12  2  1  0  0  0  0
 12  8  1  1  0  0  0
 13 11  1  6  0  0  0
 13 12  1  0  0  0  0
 14 27  2  0  0  0  0
 15 18  1  0  0  0  0
 16  1  1  0  0  0  0
 17  8  1  6  0  0  0
 17  7  1  0  0  0  0
 17 10  1  0  0  0  0
 19 16  1  0  0  0  0
 20 29  1  1  0  0  0
 20  1  1  0  0  0  0
 22 21  1  1  0  0  0
 22 14  1  0  0  0  0
 22 13  1  0  0  0  0
 23 28  2  0  0  0  0
 23 14  1  0  0  0  0
 27  5  1  0  0  0  0
 27  2  1  0  0  0  0
 28  6  1  0  0  0  0
 30 32  1  0  0  0  0
 30 29  1  0  0  0  0
 31 30  2  0  0  0  0
M  END
>  <MODEL>
1

>  <REMARK>
 VINA RESULT:      -7.8      0.000      0.000
  Name = 
  1 active torsions:
  status: ('A' for Active; 'I' for Inactive)
    1  A    between atoms: C_20  and  N_29
                            x       y       z     vdW  Elec       q    Type
                         _______ _______ _______ _____ _____    ______ ____

>  <TORSDO>
F 1

$$$$
=
 OpenBabel11122410403D

 32 37  0  0  1  0  0  0  0  0999 V2000
  187.9040  177.3120  143.4360 C   0  0  0  0  0  2  0  0  0  0  0  0
  190.6010  177.0680  138.3890 C   0  0  1  0  0  3  0  0  0  0  0  0
  186.2490  175.0900  137.2910 C   0  0  0  0  0  2  0  0  0  0  0  0
  186.7720  174.4610  136.1420 O   0  0  0  0  0  0  0  0  0  0  0  0
  192.6310  175.8770  137.4320 C   0  0  0  0  0  0  0  0  0  0  0  0
  193.1420  174.8710  136.6160 C   0  0  0  0  0  0  0  0  0  0  0  0
  190.0200  177.5660  140.7810 C   0  0  1  0  0  3  0  0  0  0  0  0
  188.5010  178.3570  138.9660 C   0  0  0  0  0  2  0  0  0  0  0  0
  193.1090  173.1020  135.0850 C   0  0  1  0  0  3  0  0  0  0  0  0
  187.8290  178.7150  141.3440 C   0  0  0  0  0  2  0  0  0  0  0  0
  186.9810  176.4120  137.5430 C   0  0  0  0  0  2  0  0  0  0  0  0
  189.1520  177.3890  137.9590 C   0  0  2  0  0  3  0  0  0  0  0  0
  188.3980  176.1340  137.7970 N   0  0  2  0  0  0  0  0  0  0  0  0
  190.4040  175.1770  136.7020 C   0  0  0  0  0  0  0  0  0  0  0  0
  194.5610  173.4640  135.4770 C   0  0  0  0  0  2  0  0  0  0  0  0
  188.9500  175.9560  142.8130 S   0  0  0  0  0  0  0  0  0  0  0  0
  188.5570  177.7920  140.3800 C   0  0  2  0  0  3  0  0  0  0  0  0
  194.4640  174.5440  136.4090 O   0  0  0  0  0  0  0  0  0  0  0  0
  190.2220  177.1280  142.2340 C   0  0  0  0  0  2  0  0  0  0  0  0
  187.0180  177.8890  142.3350 C   0  0  2  0  0  3  0  0  0  0  0  0
  188.1180  174.1410  136.4080 C   0  0  0  0  0  2  0  0  0  0  0  0
  188.9200  175.4340  136.6110 C   0  0  1  0  0  3  0  0  0  0  0  0
  190.9750  174.2260  135.9030 N   0  0  0  0  0  0  0  0  0  0  0  0
  190.6530  176.5560  139.8340 C   0  0  0  0  0  2  0  0  0  0  0  0
  193.5580  176.7460  138.2150 C   0  0  0  0  0  1  0  0  0  0  0  0
  192.8040  171.6860  135.5350 C   0  0  0  0  0  1  0  0  0  0  0  0
  191.2270  176.0400  137.4790 C   0  0  0  0  0  0  0  0  0  0  0  0
  192.3220  174.0700  135.8880 C   0  0  0  0  0  0  0  0  0  0  0  0
  185.9930  178.7360  142.9270 N   0  0  0  0  0  2  0  0  0  0  0  0
  184.6060  178.6000  142.6120 C   0  0  0  0  0  0  0  0  0  0  0  0
  184.2190  177.7420  141.7760 O   0  0  0  0  0  0  0  0  0  0  0  0
  183.6550  179.4460  143.2460 N   0  0  0  0  0  1  0  0  0  0  0  0
  2 24  1  1  0  0  0
  3 11  1  0  0  0  0
  4 21  1  0  0  0  0
  4  3  1  0  0  0  0
  5 27  1  0  0  0  0
  5 25  1  0  0  0  0
  6  5  2  0  0  0  0
  7 24  1  6  0  0  0
  7 19  1  0  0  0  0
  9 15  1  0  0  0  0
  9 26  1  1  0  0  0
  9 28  1  0  0  0  0
 10 20  1  0  0  0  0
 12  2  1  0  0  0  0
 12  8  1  1  0  0  0
 13 11  1  6  0  0  0
 13 12  1  0  0  0  0
 14 27  2  0  0  0  0
 15 18  1  0  0  0  0
 16  1  1  0  0  0  0
 17  8  1  6  0  0  0
 17  7  1  0  0  0  0
 17 10  1  0  0  0  0
 18  6  1  0  0  0  0
 19 16  1  0  0  0  0
 20 29  1  1  0  0  0
 20  1  1  0  0  0  0
 22 21  1  1  0  0  0
 22 14  1  0  0  0  0
 22 13  1  0  0  0  0
 23 14  1  0  0  0  0
 27  2  1  0  0  0  0
 28 23  2  0  0  0  0
 28  6  1  0  0  0  0
 30 29  1  0  0  0  0
 30 32  1  0  0  0  0
 31 30  2  0  0  0  0
M  END
>  <MODEL>
2

>  <REMARK>
 VINA RESULT:      -7.0      0.959      1.065
  Name = 
  1 active torsions:
  status: ('A' for Active; 'I' for Inactive)
    1  A    between atoms: C_20  and  N_29
                            x       y       z     vdW  Elec       q    Type
                         _______ _______ _______ _____ _____    ______ ____

>  <TORSDO>
F 1

$$$$
=
 OpenBabel11122410403D

 32 37  0  0  1  0  0  0  0  0999 V2000
  188.7680  177.8160  142.3930 C   0  0  0  0  0  2  0  0  0  0  0  0
  190.9890  176.3670  137.3160 C   0  0  1  0  0  3  0  0  0  0  0  0
  186.6750  174.0370  137.2180 C   0  0  0  0  0  2  0  0  0  0  0  0
  187.1230  173.1500  136.2170 O   0  0  0  0  0  0  0  0  0  0  0  0
  192.9860  175.0350  136.4820 C   0  0  0  0  0  0  0  0  0  0  0  0
  193.4750  173.8700  135.8980 C   0  0  0  0  0  0  0  0  0  0  0  0
  190.6070  177.4460  139.5520 C   0  0  1  0  0  3  0  0  0  0  0  0
  188.8820  177.6940  137.7670 C   0  0  0  0  0  2  0  0  0  0  0  0
  193.4000  171.7670  134.8760 C   0  0  1  0  0  3  0  0  0  0  0  0
  188.4170  178.6300  140.0340 C   0  0  0  0  0  2  0  0  0  0  0  0
  187.3490  175.4020  137.0500 C   0  0  0  0  0  2  0  0  0  0  0  0
  189.4900  176.5210  136.9740 C   0  0  2  0  0  3  0  0  0  0  0  0
  188.7980  175.2440  137.2150 N   0  0  2  0  0  0  0  0  0  0  0  0
  190.7440  174.1010  136.1920 C   0  0  0  0  0  0  0  0  0  0  0  0
  194.8590  172.2630  135.0080 C   0  0  0  0  0  2  0  0  0  0  0  0
  189.8270  176.3790  142.0260 S   0  0  0  0  0  0  0  0  0  0  0  0
  189.1030  177.5140  139.2640 C   0  0  2  0  0  3  0  0  0  0  0  0
  194.7880  173.5430  135.6420 O   0  0  0  0  0  0  0  0  0  0  0  0
  190.9690  177.4030  141.0390 C   0  0  0  0  0  2  0  0  0  0  0  0
  187.7510  178.0620  141.2810 C   0  0  2  0  0  3  0  0  0  0  0  0
  188.5040  172.9530  136.4120 C   0  0  0  0  0  2  0  0  0  0  0  0
  189.2460  174.2790  136.1960 C   0  0  1  0  0  3  0  0  0  0  0  0
  191.2910  172.9950  135.6040 N   0  0  0  0  0  0  0  0  0  0  0  0
  191.2060  176.2460  138.8300 C   0  0  0  0  0  2  0  0  0  0  0  0
  193.9300  176.1050  136.9180 C   0  0  0  0  0  1  0  0  0  0  0  0
  193.2200  170.5050  135.6980 C   0  0  0  0  0  1  0  0  0  0  0  0
  191.5850  175.1610  136.6340 C   0  0  0  0  0  0  0  0  0  0  0  0
  192.6380  172.8830  135.4870 C   0  0  0  0  0  0  0  0  0  0  0  0
  186.7390  179.0000  141.7450 N   0  0  0  0  0  2  0  0  0  0  0  0
  185.7700  178.6580  142.7380 C   0  0  0  0  0  0  0  0  0  0  0  0
  185.7440  177.5030  143.2380 O   0  0  0  0  0  0  0  0  0  0  0  0
  184.8240  179.6310  143.1610 N   0  0  0  0  0  1  0  0  0  0  0  0
  2 24  1  1  0  0  0
  4 21  1  0  0  0  0
  4  3  1  0  0  0  0
  5 27  1  0  0  0  0
  5 25  1  0  0  0  0
  6  5  2  0  0  0  0
  7 24  1  6  0  0  0
  7 19  1  0  0  0  0
  9 15  1  0  0  0  0
  9 28  1  0  0  0  0
  9 26  1  1  0  0  0
 10 20  1  0  0  0  0
 11  3  1  0  0  0  0
 12 13  1  0  0  0  0
 12  2  1  0  0  0  0
 12  8  1  1  0  0  0
 13 11  1  6  0  0  0
 14 22  1  0  0  0  0
 14 27  2  0  0  0  0
 15 18  1  0  0  0  0
 16  1  1  0  0  0  0
 17  8  1  6  0  0  0
 17  7  1  0  0  0  0
 17 10  1  0  0  0  0
 18  6  1  0  0  0  0
 19 16  1  0  0  0  0
 20 29  1  1  0  0  0
 20  1  1  0  0  0  0
 22 21  1  1  0  0  0
 22 13  1  0  0  0  0
 23 14  1  0  0  0  0
 27  2  1  0  0  0  0
 28 23  2  0  0  0  0
 28  6  1  0  0  0  0
 29 30  1  0  0  0  0
 30 32  1  0  0  0  0
 30 31  2  0  0  0  0
M  END
>  <MODEL>
3

>  <REMARK>
 VINA RESULT:      -6.6      1.534      2.121
  Name = 
  1 active torsions:
  status: ('A' for Active; 'I' for Inactive)
    1  A    between atoms: C_20  and  N_29
                            x       y       z     vdW  Elec       q    Type
                         _______ _______ _______ _____ _____    ______ ____

>  <TORSDO>
F 1

$$$$
=
 OpenBabel11122410403D

 32 37  0  0  1  0  0  0  0  0999 V2000
  188.3310  173.1590  136.2780 C   0  0  0  0  0  2  0  0  0  0  0  0
  185.1070  177.7850  137.2840 C   0  0  1  0  0  3  0  0  0  0  0  0
  188.3050  177.9720  140.9980 C   0  0  0  0  0  2  0  0  0  0  0  0
  187.4530  178.8060  141.7520 O   0  0  0  0  0  0  0  0  0  0  0  0
  182.6840  178.2560  137.8860 C   0  0  0  0  0  0  0  0  0  0  0  0
  181.7520  178.6390  138.8470 C   0  0  0  0  0  0  0  0  0  0  0  0
  186.1240  175.7500  136.2190 C   0  0  1  0  0  3  0  0  0  0  0  0
  187.5820  177.7020  136.7610 C   0  0  0  0  0  2  0  0  0  0  0  0
  180.9650  179.3840  140.9210 C   0  0  1  0  0  3  0  0  0  0  0  0
  188.6310  175.6260  135.8550 C   0  0  0  0  0  2  0  0  0  0  0  0
  188.1250  178.2530  139.5030 C   0  0  0  0  0  2  0  0  0  0  0  0
  186.5090  178.2780  137.7060 C   0  0  2  0  0  3  0  0  0  0  0  0
  186.7450  177.9390  139.1190 N   0  0  2  0  0  0  0  0  0  0  0  0
  184.4090  178.6250  139.5790 C   0  0  0  0  0  0  0  0  0  0  0  0
  179.7970  179.1850  139.9280 C   0  0  0  0  0  2  0  0  0  0  0  0
  186.8050  173.2410  137.2700 S   0  0  0  0  0  0  0  0  0  0  0  0
  187.5090  176.1800  136.7170 C   0  0  2  0  0  3  0  0  0  0  0  0
  180.3850  178.7300  138.7060 O   0  0  0  0  0  0  0  0  0  0  0  0
  185.9660  174.2430  135.9980 C   0  0  0  0  0  2  0  0  0  0  0  0
  189.2170  174.3810  136.5100 C   0  0  2  0  0  3  0  0  0  0  0  0
  186.1260  178.4630  141.4260 C   0  0  0  0  0  2  0  0  0  0  0  0
  185.8640  178.7800  139.9480 C   0  0  1  0  0  3  0  0  0  0  0  0
  183.4440  179.0140  140.4650 N   0  0  0  0  0  0  0  0  0  0  0  0
  185.0600  176.2550  137.1850 C   0  0  0  0  0  2  0  0  0  0  0  0
  182.2300  177.8780  136.5150 C   0  0  0  0  0  1  0  0  0  0  0  0
  180.8050  178.4250  142.0860 C   0  0  0  0  0  1  0  0  0  0  0  0
  184.0490  178.2490  138.2550 C   0  0  0  0  0  0  0  0  0  0  0  0
  182.1380  178.9930  140.1000 C   0  0  0  0  0  0  0  0  0  0  0  0
  190.5410  174.1360  135.9570 N   0  0  0  0  0  2  0  0  0  0  0  0
  191.7300  174.2010  136.7480 C   0  0  0  0  0  0  0  0  0  0  0  0
  191.6720  174.5030  137.9690 O   0  0  0  0  0  0  0  0  0  0  0  0
  192.9890  173.9270  136.1480 N   0  0  0  0  0  1  0  0  0  0  0  0
  1 20  1  0  0  0  0
  1 16  1  0  0  0  0
  2 24  1  1  0  0  0
  2 12  1  0  0  0  0
  2 27  1  0  0  0  0
  3  4  1  0  0  0  0
  5 27  2  0  0  0  0
  5  6  1  0  0  0  0
  6 28  2  0  0  0  0
  7 19  1  1  0  0  0
  7 17  1  0  0  0  0
  7 24  1  0  0  0  0
  9 26  1  1  0  0  0
 10 20  1  0  0  0  0
 11  3  1  0  0  0  0
 12  8  1  6  0  0  0
 12 13  1  0  0  0  0
 13 11  1  1  0  0  0
 13 22  1  0  0  0  0
 14 22  1  0  0  0  0
 14 23  2  0  0  0  0
 15  9  1  0  0  0  0
 17 10  1  6  0  0  0
 17  8  1  0  0  0  0
 18  6  1  0  0  0  0
 18 15  1  0  0  0  0
 19 16  1  0  0  0  0
 20 29  1  6  0  0  0
 21  4  1  0  0  0  0
 22 21  1  1  0  0  0
 25  5  1  0  0  0  0
 27 14  1  0  0  0  0
 28 23  1  0  0  0  0
 28  9  1  0  0  0  0
 29 30  1  0  0  0  0
 30 31  2  0  0  0  0
 32 30  1  0  0  0  0
M  END
>  <MODEL>
4

>  <REMARK>
 VINA RESULT:      -6.3      3.009      9.377
  Name = 
  1 active torsions:
  status: ('A' for Active; 'I' for Inactive)
    1  A    between atoms: C_20  and  N_29
                            x       y       z     vdW  Elec       q    Type
                         _______ _______ _______ _____ _____    ______ ____

>  <TORSDO>
F 1

$$$$
=
 OpenBabel11122410403D

 32 37  0  0  1  0  0  0  0  0999 V2000
  190.8640  173.6050  136.1870 C   0  0  0  0  0  2  0  0  0  0  0  0
  186.6820  177.5140  136.4120 C   0  0  1  0  0  3  0  0  0  0  0  0
  188.9580  178.2390  140.6960 C   0  0  0  0  0  2  0  0  0  0  0  0
  187.8270  178.8810  141.2410 O   0  0  0  0  0  0  0  0  0  0  0  0
  184.1430  177.5030  136.4960 C   0  0  0  0  0  0  0  0  0  0  0  0
  182.9790  177.6840  137.2380 C   0  0  0  0  0  0  0  0  0  0  0  0
  188.2630  175.7290  135.6210 C   0  0  1  0  0  3  0  0  0  0  0  0
  189.1820  177.9120  136.4070 C   0  0  0  0  0  2  0  0  0  0  0  0
  181.6570  178.2280  139.0900 C   0  0  1  0  0  3  0  0  0  0  0  0
  190.7690  176.0910  135.7800 C   0  0  0  0  0  2  0  0  0  0  0  0
  189.0380  178.5070  139.1900 C   0  0  0  0  0  2  0  0  0  0  0  0
  187.8490  178.2570  137.1010 C   0  0  2  0  0  3  0  0  0  0  0  0
  187.8500  177.9430  138.5390 N   0  0  2  0  0  0  0  0  0  0  0  0
  185.3830  178.1640  138.4970 C   0  0  0  0  0  0  0  0  0  0  0  0
  180.7760  177.8280  137.8840 C   0  0  0  0  0  2  0  0  0  0  0  0
  189.1790  173.3770  136.8430 S   0  0  0  0  0  0  0  0  0  0  0  0
  189.4100  176.4060  136.3830 C   0  0  2  0  0  3  0  0  0  0  0  0
  181.6780  177.5170  136.8180 O   0  0  0  0  0  0  0  0  0  0  0  0
  188.4440  174.2240  135.4050 C   0  0  0  0  0  2  0  0  0  0  0  0
  191.4340  174.9690  136.5680 C   0  0  2  0  0  3  0  0  0  0  0  0
  186.6850  178.2980  140.6590 C   0  0  0  0  0  2  0  0  0  0  0  0
  186.6750  178.5860  139.1520 C   0  0  1  0  0  3  0  0  0  0  0  0
  184.2010  178.3450  139.1590 N   0  0  0  0  0  0  0  0  0  0  0  0
  186.9490  176.0050  136.3390 C   0  0  0  0  0  2  0  0  0  0  0  0
  184.0600  177.0700  135.0690 C   0  0  0  0  0  1  0  0  0  0  0  0
  181.4480  177.2360  140.2180 C   0  0  0  0  0  1  0  0  0  0  0  0
  185.3800  177.7500  137.1360 C   0  0  0  0  0  0  0  0  0  0  0  0
  183.0260  178.0830  138.5340 C   0  0  0  0  0  0  0  0  0  0  0  0
  192.8650  174.9900  136.3030 N   0  0  0  0  0  2  0  0  0  0  0  0
  193.7960  175.6680  137.1500 C   0  0  0  0  0  0  0  0  0  0  0  0
  193.3970  176.3040  138.1610 O   0  0  0  0  0  0  0  0  0  0  0  0
  195.1830  175.6280  136.8440 N   0  0  0  0  0  1  0  0  0  0  0  0
  1 20  1  0  0  0  0
  1 16  1  0  0  0  0
  2 24  1  1  0  0  0
  2 12  1  0  0  0  0
  2 27  1  0  0  0  0
  3  4  1  0  0  0  0
  5 27  2  0  0  0  0
  5  6  1  0  0  0  0
  6 28  2  0  0  0  0
  7 19  1  1  0  0  0
  7 24  1  0  0  0  0
  7 17  1  0  0  0  0
  9 26  1  1  0  0  0
 10 20  1  0  0  0  0
 11  3  1  0  0  0  0
 12  8  1  6  0  0  0
 12 13  1  0  0  0  0
 13 22  1  0  0  0  0
 13 11  1  1  0  0  0
 14 22  1  0  0  0  0
 14 23  2  0  0  0  0
 15  9  1  0  0  0  0
 17 10  1  6  0  0  0
 17  8  1  0  0  0  0
 18  6  1  0  0  0  0
 18 15  1  0  0  0  0
 19 16  1  0  0  0  0
 20 29  1  6  0  0  0
 21  4  1  0  0  0  0
 22 21  1  1  0  0  0
 25  5  1  0  0  0  0
 27 14  1  0  0  0  0
 28  9  1  0  0  0  0
 28 23  1  0  0  0  0
 29 30  1  0  0  0  0
 30 31  2  0  0  0  0
 32 30  1  0  0  0  0
M  END
>  <MODEL>
5

>  <REMARK>
 VINA RESULT:      -6.3      3.046      8.864
  Name = 
  1 active torsions:
  status: ('A' for Active; 'I' for Inactive)
    1  A    between atoms: C_20  and  N_29
                            x       y       z     vdW  Elec       q    Type
                         _______ _______ _______ _____ _____    ______ ____

>  <TORSDO>
F 1

$$$$
=
 OpenBabel11122410403D

 32 37  0  0  1  0  0  0  0  0999 V2000
  190.6900  172.9660  135.8250 C   0  0  0  0  0  2  0  0  0  0  0  0
  187.8020  177.6630  137.3780 C   0  0  1  0  0  3  0  0  0  0  0  0
  190.8890  177.0980  141.1470 C   0  0  0  0  0  2  0  0  0  0  0  0
  190.0800  177.8910  141.9890 O   0  0  0  0  0  0  0  0  0  0  0  0
  185.4050  178.2430  137.9880 C   0  0  0  0  0  0  0  0  0  0  0  0
  184.4760  178.5690  138.9720 C   0  0  0  0  0  0  0  0  0  0  0  0
  188.6920  175.7120  136.0690 C   0  0  1  0  0  3  0  0  0  0  0  0
  190.2780  177.4510  136.8980 C   0  0  0  0  0  2  0  0  0  0  0  0
  183.6850  179.0940  141.1110 C   0  0  1  0  0  3  0  0  0  0  0  0
  191.1920  175.4350  135.7430 C   0  0  0  0  0  2  0  0  0  0  0  0
  190.7780  177.5880  139.7000 C   0  0  0  0  0  2  0  0  0  0  0  0
  189.2250  177.9820  137.8900 C   0  0  2  0  0  3  0  0  0  0  0  0
  189.3890  177.4400  139.2490 N   0  0  2  0  0  0  0  0  0  0  0  0
  187.1010  178.2450  139.7500 C   0  0  0  0  0  0  0  0  0  0  0  0
  182.5360  179.1230  140.0760 C   0  0  0  0  0  2  0  0  0  0  0  0
  189.1440  173.0390  136.7870 S   0  0  0  0  0  0  0  0  0  0  0  0
  190.0900  175.9600  136.6490 C   0  0  2  0  0  3  0  0  0  0  0  0
  183.1250  178.7890  138.8170 O   0  0  0  0  0  0  0  0  0  0  0  0
  188.4250  174.2650  135.6440 C   0  0  0  0  0  2  0  0  0  0  0  0
  191.6600  174.0720  136.2370 C   0  0  2  0  0  3  0  0  0  0  0  0
  188.7420  177.7020  141.5930 C   0  0  0  0  0  2  0  0  0  0  0  0
  188.5510  178.2320  140.1650 C   0  0  1  0  0  3  0  0  0  0  0  0
  186.1410  178.5900  140.6600 N   0  0  0  0  0  0  0  0  0  0  0  0
  187.6410  176.1680  137.0730 C   0  0  0  0  0  2  0  0  0  0  0  0
  184.9660  178.0880  136.5690 C   0  0  0  0  0  1  0  0  0  0  0  0
  183.4160  178.0060  142.1330 C   0  0  0  0  0  1  0  0  0  0  0  0
  186.7540  178.0780  138.3800 C   0  0  0  0  0  0  0  0  0  0  0  0
  184.8490  178.7230  140.2690 C   0  0  0  0  0  0  0  0  0  0  0  0
  192.9770  173.7960  135.6830 N   0  0  0  0  0  2  0  0  0  0  0  0
  194.1860  174.0780  136.3930 C   0  0  0  0  0  0  0  0  0  0  0  0
  194.1500  174.6080  137.5340 O   0  0  0  0  0  0  0  0  0  0  0  0
  195.4380  173.7610  135.8010 N   0  0  0  0  0  1  0  0  0  0  0  0
  1 20  1  0  0  0  0
  1 16  1  0  0  0  0
  2 24  1  1  0  0  0
  2 12  1  0  0  0  0
  2 27  1  0  0  0  0
  3  4  1  0  0  0  0
  5 27  2  0  0  0  0
  5  6  1  0  0  0  0
  6 28  2  0  0  0  0
  7 19  1  1  0  0  0
  7 17  1  0  0  0  0
  7 24  1  0  0  0  0
  9 26  1  1  0  0  0
 10 20  1  0  0  0  0
 11  3  1  0  0  0  0
 12  8  1  6  0  0  0
 12 13  1  0  0  0  0
 13 11  1  1  0  0  0
 13 22  1  0  0  0  0
 14 22  1  0  0  0  0
 14 23  2  0  0  0  0
 15  9  1  0  0  0  0
 17 10  1  6  0  0  0
 17  8  1  0  0  0  0
 18  6  1  0  0  0  0
 18 15  1  0  0  0  0
 19 16  1  0  0  0  0
 20 29  1  6  0  0  0
 21  4  1  0  0  0  0
 22 21  1  1  0  0  0
 25  5  1  0  0  0  0
 27 14  1  0  0  0  0
 28 23  1  0  0  0  0
 28  9  1  0  0  0  0
 29 30  1  0  0  0  0
 30 31  2  0  0  0  0
 32 30  1  0  0  0  0
M  END
>  <MODEL>
6

>  <REMARK>
 VINA RESULT:      -6.0      2.487      8.666
  Name = 
  1 active torsions:
  status: ('A' for Active; 'I' for Inactive)
    1  A    between atoms: C_20  and  N_29
                            x       y       z     vdW  Elec       q    Type
                         _______ _______ _______ _____ _____    ______ ____

>  <TORSDO>
F 1

$$$$
=
 OpenBabel11122410403D

 32 37  0  0  1  0  0  0  0  0999 V2000
  189.1700  174.0570  135.9780 C   0  0  0  0  0  2  0  0  0  0  0  0
  187.3410  178.3980  139.2380 C   0  0  1  0  0  3  0  0  0  0  0  0
  191.2220  176.8070  141.7800 C   0  0  0  0  0  2  0  0  0  0  0  0
  190.7580  177.4190  142.9630 O   0  0  0  0  0  0  0  0  0  0  0  0
  185.2690  178.9390  140.6060 C   0  0  0  0  0  0  0  0  0  0  0  0
  184.6740  179.0710  141.8570 C   0  0  0  0  0  0  0  0  0  0  0  0
  187.6300  176.7660  137.3500 C   0  0  1  0  0  3  0  0  0  0  0  0
  189.5650  178.1780  138.0490 C   0  0  0  0  0  2  0  0  0  0  0  0
  184.5350  179.1180  144.1920 C   0  0  1  0  0  3  0  0  0  0  0  0
  189.9090  176.4470  136.2840 C   0  0  0  0  0  2  0  0  0  0  0  0
  190.7930  177.6280  140.5610 C   0  0  0  0  0  2  0  0  0  0  0  0
  188.8750  178.5140  139.3860 C   0  0  2  0  0  3  0  0  0  0  0  0
  189.3270  177.6600  140.4970 N   0  0  2  0  0  0  0  0  0  0  0  0
  187.3560  178.4400  141.7790 C   0  0  0  0  0  0  0  0  0  0  0  0
  183.1670  179.4480  143.5520 C   0  0  0  0  0  2  0  0  0  0  0  0
  187.9480  173.9800  137.3280 S   0  0  0  0  0  0  0  0  0  0  0  0
  189.1500  176.7990  137.5530 C   0  0  2  0  0  3  0  0  0  0  0  0
  183.3640  179.3890  142.1370 O   0  0  0  0  0  0  0  0  0  0  0  0
  187.0990  175.4750  136.7210 C   0  0  0  0  0  2  0  0  0  0  0  0
  190.3320  174.9840  136.3250 C   0  0  2  0  0  3  0  0  0  0  0  0
  189.3500  177.3970  142.9280 C   0  0  0  0  0  2  0  0  0  0  0  0
  188.8530  178.2560  141.7580 C   0  0  1  0  0  3  0  0  0  0  0  0
  186.7140  178.6100  142.9740 N   0  0  0  0  0  0  0  0  0  0  0  0
  186.9370  177.0260  138.6810 C   0  0  0  0  0  2  0  0  0  0  0  0
  184.4590  179.1440  139.3680 C   0  0  0  0  0  1  0  0  0  0  0  0
  184.4220  177.8350  144.9940 C   0  0  0  0  0  1  0  0  0  0  0  0
  186.6460  178.6180  140.5580 C   0  0  0  0  0  0  0  0  0  0  0  0
  185.3880  178.8970  142.9980 C   0  0  0  0  0  0  0  0  0  0  0  0
  191.4180  174.7790  135.3790 N   0  0  0  0  0  2  0  0  0  0  0  0
  192.7290  175.3130  135.5830 C   0  0  0  0  0  0  0  0  0  0  0  0
  192.9850  176.0130  136.5970 O   0  0  0  0  0  0  0  0  0  0  0  0
  193.7490  175.0550  134.6280 N   0  0  0  0  0  1  0  0  0  0  0  0
  1 20  1  0  0  0  0
  1 16  1  0  0  0  0
  2 24  1  1  0  0  0
  2 12  1  0  0  0  0
  2 27  1  0  0  0  0
  3  4  1  0  0  0  0
  5  6  1  0  0  0  0
  6 18  1  0  0  0  0
  6 28  2  0  0  0  0
  7 19  1  1  0  0  0
  7 17  1  0  0  0  0
  7 24  1  0  0  0  0
  9 26  1  1  0  0  0
 10 20  1  0  0  0  0
 11  3  1  0  0  0  0
 12  8  1  6  0  0  0
 12 13  1  0  0  0  0
 13 11  1  1  0  0  0
 13 22  1  0  0  0  0
 14 23  2  0  0  0  0
 15  9  1  0  0  0  0
 17 10  1  6  0  0  0
 17  8  1  0  0  0  0
 18 15  1  0  0  0  0
 19 16  1  0  0  0  0
 20 29  1  6  0  0  0
 21  4  1  0  0  0  0
 22 14  1  0  0  0  0
 22 21  1  1  0  0  0
 23 28  1  0  0  0  0
 25  5  1  0  0  0  0
 27  5  2  0  0  0  0
 27 14  1  0  0  0  0
 28  9  1  0  0  0  0
 29 30  1  0  0  0  0
 30 31  2  0  0  0  0
 32 30  1  0  0  0  0
M  END
>  <MODEL>
7

>  <REMARK>
 VINA RESULT:      -5.6      2.419      8.638
  Name = 
  1 active torsions:
  status: ('A' for Active; 'I' for Inactive)
    1  A    between atoms: C_20  and  N_29
                            x       y       z     vdW  Elec       q    Type
                         _______ _______ _______ _____ _____    ______ ____

>  <TORSDO>
F 1

$$$$
=
 OpenBabel11122410403D

 32 37  0  0  1  0  0  0  0  0999 V2000
  190.5360  176.0830  144.6820 C   0  0  0  0  0  2  0  0  0  0  0  0
  188.3010  178.6110  140.0520 C   0  0  1  0  0  3  0  0  0  0  0  0
  184.3910  178.2840  142.9960 C   0  0  0  0  0  2  0  0  0  0  0  0
  183.5030  178.4210  141.9090 O   0  0  0  0  0  0  0  0  0  0  0  0
  187.9070  177.9970  137.6190 C   0  0  0  0  0  0  0  0  0  0  0  0
  187.0120  177.6380  136.6150 C   0  0  0  0  0  0  0  0  0  0  0  0
  189.9090  177.6230  141.7110 C   0  0  1  0  0  3  0  0  0  0  0  0
  188.4680  179.5400  142.4010 C   0  0  0  0  0  2  0  0  0  0  0  0
  184.9420  177.1850  135.6230 C   0  0  1  0  0  3  0  0  0  0  0  0
  189.9410  178.4630  144.1040 C   0  0  0  0  0  2  0  0  0  0  0  0
  185.6760  179.0740  142.7260 C   0  0  0  0  0  2  0  0  0  0  0  0
  187.5330  179.3090  141.1970 C   0  0  2  0  0  3  0  0  0  0  0  0
  186.3380  178.5200  141.5400 N   0  0  2  0  0  0  0  0  0  0  0  0
  185.9800  178.1770  139.1130 C   0  0  0  0  0  0  0  0  0  0  0  0
  186.0880  177.0450  134.5940 C   0  0  0  0  0  2  0  0  0  0  0  0
  189.8090  175.2640  143.2240 S   0  0  0  0  0  0  0  0  0  0  0  0
  189.0970  178.2310  142.8610 C   0  0  2  0  0  3  0  0  0  0  0  0
  187.2960  177.3380  135.3000 O   0  0  0  0  0  0  0  0  0  0  0  0
  190.7070  176.3710  142.0860 C   0  0  0  0  0  2  0  0  0  0  0  0
  189.7350  177.3180  145.0880 C   0  0  2  0  0  3  0  0  0  0  0  0
  184.1150  177.8360  140.7840 C   0  0  0  0  0  2  0  0  0  0  0  0
  185.3820  178.6240  140.4240 C   0  0  1  0  0  3  0  0  0  0  0  0
  185.1550  177.8430  138.0750 N   0  0  0  0  0  0  0  0  0  0  0  0
  188.9800  177.3250  140.5410 C   0  0  0  0  0  2  0  0  0  0  0  0
  189.3680  178.0840  137.3210 C   0  0  0  0  0  1  0  0  0  0  0  0
  184.2640  175.8400  135.8100 C   0  0  0  0  0  1  0  0  0  0  0  0
  187.3840  178.2770  138.9030 C   0  0  0  0  0  0  0  0  0  0  0  0
  185.6790  177.5570  136.8560 C   0  0  0  0  0  0  0  0  0  0  0  0
  190.1500  177.7540  146.4130 N   0  0  0  0  0  2  0  0  0  0  0  0
  189.2440  177.8420  147.5140 C   0  0  0  0  0  0  0  0  0  0  0  0
  188.0250  177.5620  147.3650 O   0  0  0  0  0  0  0  0  0  0  0  0
  189.7220  178.2530  148.7880 N   0  0  0  0  0  1  0  0  0  0  0  0
  1 20  1  0  0  0  0
  2 24  1  1  0  0  0
  2 12  1  0  0  0  0
  4  3  1  0  0  0  0
  5 27  1  0  0  0  0
  6 28  1  0  0  0  0
  6  5  2  0  0  0  0
  7 24  1  6  0  0  0
  7 19  1  0  0  0  0
  7 17  1  0  0  0  0
  9 26  1  1  0  0  0
  9 28  1  0  0  0  0
 10 20  1  0  0  0  0
 11  3  1  0  0  0  0
 12 13  1  0  0  0  0
 12  8  1  1  0  0  0
 13 11  1  1  0  0  0
 14 22  1  0  0  0  0
 15 18  1  0  0  0  0
 15  9  1  0  0  0  0
 16  1  1  0  0  0  0
 17  8  1  6  0  0  0
 17 10  1  0  0  0  0
 18  6  1  0  0  0  0
 19 16  1  0  0  0  0
 20 29  1  1  0  0  0
 21  4  1  0  0  0  0
 22 21  1  1  0  0  0
 22 13  1  0  0  0  0
 23 14  1  0  0  0  0
 25  5  1  0  0  0  0
 27 14  2  0  0  0  0
 27  2  1  0  0  0  0
 28 23  2  0  0  0  0
 29 30  1  0  0  0  0
 30 32  1  0  0  0  0
 31 30  2  0  0  0  0
M  END
>  <MODEL>
8

>  <REMARK>
 VINA RESULT:      -5.1      3.830      6.198
  Name = 
  1 active torsions:
  status: ('A' for Active; 'I' for Inactive)
    1  A    between atoms: C_20  and  N_29
                            x       y       z     vdW  Elec       q    Type
                         _______ _______ _______ _____ _____    ______ ____

>  <TORSDO>
F 1

$$$$
