=
 OpenBabel11122410413D

 32 37  0  0  1  0  0  0  0  0999 V2000
  188.5210  178.6480  137.1650 C   0  0  0  0  0  2  0  0  0  0  0  0
  188.0120  177.7520  142.2490 C   0  0  0  0  0  0  0  0  0  0  0  0
  183.5530  179.4490  143.1650 C   0  0  0  0  0  3  0  0  0  0  0  0
  183.7120  179.1580  144.6030 C   0  0  0  0  0  3  0  0  0  0  0  0
  189.5700  177.2270  144.1520 C   0  0  0  0  0  0  0  0  0  0  0  0
  189.6930  177.2860  145.6020 C   0  0  0  0  0  0  0  0  0  0  0  0
  188.7350  177.4170  139.8630 C   0  0  1  0  0  3  0  0  0  0  0  0
  186.3810  178.0400  140.3290 C   0  0  0  0  0  2  0  0  0  0  0  0
  189.1200  177.5670  147.7510 C   0  0  0  0  0  0  0  0  0  0  0  0
  187.2840  178.2380  137.9710 C   0  0  2  0  0  3  0  0  0  0  0  0
  184.4200  178.9720  142.2650 C   0  0  0  0  0  3  0  0  0  0  0  0
  186.6870  178.1060  141.7650 N   0  0  0  0  0  0  0  0  0  0  0  0
  185.5300  178.0280  142.6670 C   0  0  1  0  0  3  0  0  0  0  0  0
  187.1240  177.8900  144.5600 C   0  0  0  0  0  0  0  0  0  0  0  0
  190.3630  177.2070  147.6890 N   0  0  0  0  0  0  0  0  0  0  0  0
  189.8000  178.0350  137.6880 C   0  0  0  0  0  3  0  0  0  0  0  0
  187.5970  178.3520  139.4690 C   0  0  2  0  0  3  0  0  0  0  0  0
  190.7260  177.0280  146.3360 N   0  0  0  0  0  0  0  0  0  0  0  0
  189.9080  177.5210  138.9230 C   0  0  0  0  0  3  0  0  0  0  0  0
  184.8230  178.5740  145.0630 C   0  0  0  0  0  3  0  0  0  0  0  0
  185.8950  178.1840  144.1230 C   0  0  0  0  0  0  0  0  0  0  0  0
  187.3970  177.9180  145.9820 N   0  0  0  0  0  0  0  0  0  0  0  0
  189.1710  177.7320  141.2800 C   0  0  0  0  0  2  0  0  0  0  0  0
  190.5450  176.8500  143.4480 O   0  0  0  0  0  0  0  0  0  0  0  0
  188.4230  177.8240  148.9640 N   0  0  0  0  0  1  0  0  0  0  0  0
  188.2340  177.5980  143.5790 C   0  0  0  0  0  0  0  0  0  0  0  0
  188.5840  177.6470  146.4170 C   0  0  0  0  0  0  0  0  0  0  0  0
  186.8060  176.8390  137.5770 C   0  0  0  0  0  2  0  0  0  0  0  0
  185.5600  176.9140  136.8950 O   0  0  0  0  0  0  0  0  0  0  0  0
  184.3350  176.7690  137.5490 C   0  0  0  0  0  0  0  0  0  0  0  0
  183.5100  177.9510  137.9370 C   0  0  0  0  0  1  0  0  0  0  0  0
  183.9080  175.6140  137.8100 O   0  0  0  0  0  0  0  0  0  0  0  0
  1 16  1  0  0  0  0
  1 10  1  0  0  0  0
  2 26  2  0  0  0  0
  3  4  1  0  0  0  0
  4 20  2  0  0  0  0
  5  6  1  0  0  0  0
  6 18  2  0  0  0  0
  6 27  1  0  0  0  0
  7 19  1  6  0  0  0
  7 23  1  0  0  0  0
  8 12  1  0  0  0  0
  9 25  1  0  0  0  0
 10 28  1  1  0  0  0
 10 17  1  0  0  0  0
 11  3  2  0  0  0  0
 12  2  1  0  0  0  0
 12 13  1  0  0  0  0
 13 11  1  6  0  0  0
 13 21  1  0  0  0  0
 14 22  1  0  0  0  0
 15  9  2  0  0  0  0
 16 19  2  0  0  0  0
 17  7  1  0  0  0  0
 17  8  1  1  0  0  0
 18 15  1  0  0  0  0
 21 14  2  0  0  0  0
 21 20  1  0  0  0  0
 22 27  2  0  0  0  0
 23  2  1  0  0  0  0
 24  5  2  0  0  0  0
 26  5  1  0  0  0  0
 26 14  1  0  0  0  0
 27  9  1  0  0  0  0
 29 30  1  0  0  0  0
 29 28  1  0  0  0  0
 30 32  2  0  0  0  0
 30 31  1  0  0  0  0
M  END
>  <MODEL>
1

>  <REMARK>
 VINA RESULT:      -9.4      0.000      0.000
  Name = 
  3 active torsions:
  status: ('A' for Active; 'I' for Inactive)
    1  A    between atoms: C_10  and  C_20
    2  A    between atoms: C_20  and  O_29
    3  A    between atoms: O_29  and  C_30
                            x       y       z     vdW  Elec       q    Type
                         _______ _______ _______ _____ _____    ______ ____

>  <TORSDO>
F 3

$$$$
=
 OpenBabel11122410413D

 32 37  0  0  1  0  0  0  0  0999 V2000
  181.7770  178.1560  139.6160 C   0  0  0  0  0  2  0  0  0  0  0  0
  185.9850  178.2140  142.6470 C   0  0  0  0  0  0  0  0  0  0  0  0
  189.5600  177.2990  139.4860 C   0  0  0  0  0  3  0  0  0  0  0  0
  190.5540  177.2920  140.5770 C   0  0  0  0  0  3  0  0  0  0  0  0
  186.4300  178.0720  145.1180 C   0  0  0  0  0  0  0  0  0  0  0  0
  187.4550  177.7330  146.0970 C   0  0  0  0  0  0  0  0  0  0  0  0
  183.7020  178.8200  141.7820 C   0  0  1  0  0  3  0  0  0  0  0  0
  185.5770  178.6030  140.1750 C   0  0  0  0  0  2  0  0  0  0  0  0
  189.4600  177.1920  146.9390 C   0  0  0  0  0  0  0  0  0  0  0  0
  183.1950  178.6530  139.3170 C   0  0  2  0  0  3  0  0  0  0  0  0
  188.3160  177.7480  139.6910 C   0  0  0  0  0  3  0  0  0  0  0  0
  186.4720  178.2220  141.2770 N   0  0  0  0  0  0  0  0  0  0  0  0
  187.9100  178.3660  141.0090 C   0  0  1  0  0  3  0  0  0  0  0  0
  188.3200  177.8450  143.3970 C   0  0  0  0  0  0  0  0  0  0  0  0
  188.6100  177.3040  147.9110 N   0  0  0  0  0  0  0  0  0  0  0  0
  181.3510  178.4000  141.0450 C   0  0  0  0  0  3  0  0  0  0  0  0
  184.1320  178.2140  140.4500 C   0  0  2  0  0  3  0  0  0  0  0  0
  187.3460  177.6450  147.3830 N   0  0  0  0  0  2  0  0  0  0  0  0
  182.2260  178.6540  142.0320 C   0  0  0  0  0  3  0  0  0  0  0  0
  190.1890  177.5520  141.8350 C   0  0  0  0  0  3  0  0  0  0  0  0
  188.7820  177.8840  142.1430 C   0  0  0  0  0  0  0  0  0  0  0  0
  189.2260  177.5100  144.4760 N   0  0  0  0  0  2  0  0  0  0  0  0
  184.4970  178.1760  142.9020 C   0  0  0  0  0  2  0  0  0  0  0  0
  185.2650  178.3680  145.4970 O   0  0  0  0  0  0  0  0  0  0  0  0
  190.8340  176.8660  147.1140 N   0  0  0  0  0  1  0  0  0  0  0  0
  186.8560  178.0810  143.6800 C   0  0  0  0  0  0  0  0  0  0  0  0
  188.7910  177.4590  145.6930 C   0  0  0  0  0  0  0  0  0  0  0  0
  183.2160  180.1670  139.0930 C   0  0  0  0  0  2  0  0  0  0  0  0
  182.1490  180.5560  138.2380 O   0  0  0  0  0  0  0  0  0  0  0  0
  181.3130  181.6390  138.5230 C   0  0  0  0  0  0  0  0  0  0  0  0
  180.1340  181.5010  139.4280 C   0  0  0  0  0  1  0  0  0  0  0  0
  181.5640  182.7610  138.0130 O   0  0  0  0  0  0  0  0  0  0  0  0
  1 16  1  0  0  0  0
  2 23  1  0  0  0  0
  2 26  2  0  0  0  0
  3 11  2  0  0  0  0
  3  4  1  0  0  0  0
  4 20  2  0  0  0  0
  5 24  2  0  0  0  0
  5  6  1  0  0  0  0
  6 18  1  0  0  0  0
  7 19  1  1  0  0  0
  7 23  1  0  0  0  0
  8 12  1  0  0  0  0
  9 25  1  0  0  0  0
  9 15  2  0  0  0  0
 10 28  1  1  0  0  0
 10  1  1  0  0  0  0
 10 17  1  0  0  0  0
 12  2  1  0  0  0  0
 13 11  1  6  0  0  0
 13 12  1  0  0  0  0
 13 21  1  0  0  0  0
 14 26  1  0  0  0  0
 14 22  1  0  0  0  0
 16 19  2  0  0  0  0
 17  8  1  6  0  0  0
 17  7  1  0  0  0  0
 18 15  1  0  0  0  0
 20 21  1  0  0  0  0
 21 14  2  0  0  0  0
 22 27  1  0  0  0  0
 26  5  1  0  0  0  0
 27  6  2  0  0  0  0
 27  9  1  0  0  0  0
 29 30  1  0  0  0  0
 29 28  1  0  0  0  0
 30 31  1  0  0  0  0
 32 30  2  0  0  0  0
M  END
>  <MODEL>
2

>  <REMARK>
 VINA RESULT:      -9.3      2.595      4.880
  Name = 
  3 active torsions:
  status: ('A' for Active; 'I' for Inactive)
    1  A    between atoms: C_10  and  C_20
    2  A    between atoms: C_20  and  O_29
    3  A    between atoms: O_29  and  C_30
                            x       y       z     vdW  Elec       q    Type
                         _______ _______ _______ _____ _____    ______ ____

>  <TORSDO>
F 3

$$$$
=
 OpenBabel11122410413D

 32 37  0  0  1  0  0  0  0  0999 V2000
  190.5880  175.9280  146.9940 C   0  0  0  0  0  2  0  0  0  0  0  0
  188.9390  177.6680  142.3950 C   0  0  0  0  0  0  0  0  0  0  0  0
  184.1860  178.3150  143.1680 C   0  0  0  0  0  3  0  0  0  0  0  0
  183.9860  178.7040  141.7580 C   0  0  0  0  0  3  0  0  0  0  0  0
  189.8440  177.6990  140.0490 C   0  0  0  0  0  0  0  0  0  0  0  0
  189.4450  177.7980  138.6510 C   0  0  0  0  0  0  0  0  0  0  0  0
  190.4660  177.2990  144.3590 C   0  0  1  0  0  3  0  0  0  0  0  0
  188.0920  177.8780  144.7750 C   0  0  0  0  0  2  0  0  0  0  0  0
  188.1430  178.1140  136.8540 C   0  0  0  0  0  0  0  0  0  0  0  0
  189.5050  176.9610  146.6660 C   0  0  2  0  0  3  0  0  0  0  0  0
  185.4150  178.2170  143.6880 C   0  0  0  0  0  3  0  0  0  0  0  0
  187.8440  177.8860  143.3270 N   0  0  0  0  0  0  0  0  0  0  0  0
  186.6390  178.6050  142.8910 C   0  0  1  0  0  3  0  0  0  0  0  0
  187.3940  178.2760  140.5530 C   0  0  0  0  0  0  0  0  0  0  0  0
  189.3520  177.8620  136.4610 N   0  0  0  0  0  0  0  0  0  0  0  0
  191.7550  175.9650  146.0350 C   0  0  0  0  0  3  0  0  0  0  0  0
  189.2200  176.9320  145.1590 C   0  0  2  0  0  3  0  0  0  0  0  0
  190.1740  177.6630  137.5920 N   0  0  0  0  0  0  0  0  0  0  0  0
  191.6840  176.5440  144.8260 C   0  0  0  0  0  3  0  0  0  0  0  0
  185.0220  178.7830  140.9180 C   0  0  0  0  0  3  0  0  0  0  0  0
  186.3900  178.5100  141.4050 C   0  0  0  0  0  0  0  0  0  0  0  0
  187.1410  178.3300  139.1280 N   0  0  0  0  0  0  0  0  0  0  0  0
  190.2130  177.0260  142.8900 C   0  0  0  0  0  2  0  0  0  0  0  0
  191.0500  177.4920  140.3510 O   0  0  0  0  0  0  0  0  0  0  0  0
  187.0560  178.3740  135.9740 N   0  0  0  0  0  1  0  0  0  0  0  0
  188.7600  177.8930  141.0690 C   0  0  0  0  0  0  0  0  0  0  0  0
  188.1000  178.0950  138.2930 C   0  0  0  0  0  0  0  0  0  0  0  0
  189.9020  178.3540  147.1610 C   0  0  0  0  0  2  0  0  0  0  0  0
  189.1040  178.7310  148.2760 O   0  0  0  0  0  0  0  0  0  0  0  0
  187.7990  178.2670  148.4580 C   0  0  0  0  0  0  0  0  0  0  0  0
  186.6420  178.8820  147.7410 C   0  0  0  0  0  1  0  0  0  0  0  0
  187.5920  177.3010  149.2370 O   0  0  0  0  0  0  0  0  0  0  0  0
  2 23  1  0  0  0  0
  2 12  1  0  0  0  0
  3 11  2  0  0  0  0
  4  3  1  0  0  0  0
  5 24  2  0  0  0  0
  5 26  1  0  0  0  0
  6  5  1  0  0  0  0
  7 23  1  6  0  0  0
  7 19  1  0  0  0  0
  7 17  1  0  0  0  0
  9 27  1  0  0  0  0
 10  1  1  0  0  0  0
 10 28  1  6  0  0  0
 12  8  1  0  0  0  0
 13 12  1  0  0  0  0
 13 11  1  1  0  0  0
 14 26  1  0  0  0  0
 14 21  2  0  0  0  0
 15  9  2  0  0  0  0
 15 18  1  0  0  0  0
 16  1  1  0  0  0  0
 17  8  1  1  0  0  0
 17 10  1  0  0  0  0
 18  6  2  0  0  0  0
 19 16  2  0  0  0  0
 20 21  1  0  0  0  0
 20  4  2  0  0  0  0
 21 13  1  0  0  0  0
 22 14  1  0  0  0  0
 25  9  1  0  0  0  0
 26  2  2  0  0  0  0
 27  6  1  0  0  0  0
 27 22  2  0  0  0  0
 28 29  1  0  0  0  0
 29 30  1  0  0  0  0
 30 32  2  0  0  0  0
 31 30  1  0  0  0  0
M  END
>  <MODEL>
3

>  <REMARK>
 VINA RESULT:      -9.1      2.828      7.466
  Name = 
  3 active torsions:
  status: ('A' for Active; 'I' for Inactive)
    1  A    between atoms: C_10  and  C_20
    2  A    between atoms: C_20  and  O_29
    3  A    between atoms: O_29  and  C_30
                            x       y       z     vdW  Elec       q    Type
                         _______ _______ _______ _____ _____    ______ ____

>  <TORSDO>
F 3

$$$$
=
 OpenBabel11122410413D

 32 37  0  0  1  0  0  0  0  0999 V2000
  189.3050  178.3580  148.3060 C   0  0  0  0  0  2  0  0  0  0  0  0
  186.6460  178.0630  143.8630 C   0  0  0  0  0  0  0  0  0  0  0  0
  190.1810  178.0800  140.5300 C   0  0  0  0  0  3  0  0  0  0  0  0
  189.1860  178.0750  139.4400 C   0  0  0  0  0  3  0  0  0  0  0  0
  184.2600  178.4330  143.1620 C   0  0  0  0  0  0  0  0  0  0  0  0
  183.4210  178.7370  142.0100 C   0  0  0  0  0  0  0  0  0  0  0  0
  187.2350  177.6890  146.2790 C   0  0  1  0  0  3  0  0  0  0  0  0
  189.0040  177.4460  144.5600 C   0  0  0  0  0  2  0  0  0  0  0  0
  182.8240  179.0830  139.8780 C   0  0  0  0  0  0  0  0  0  0  0  0
  189.6510  177.6330  147.0020 C   0  0  2  0  0  3  0  0  0  0  0  0
  189.8190  177.8390  141.7950 C   0  0  0  0  0  3  0  0  0  0  0  0
  188.0390  177.8240  143.5190 N   0  0  0  0  0  0  0  0  0  0  0  0
  188.4030  177.4460  142.1460 C   0  0  1  0  0  3  0  0  0  0  0  0
  186.1440  178.1830  141.4370 C   0  0  0  0  0  0  0  0  0  0  0  0
  181.7790  179.2100  140.6350 N   0  0  0  0  0  0  0  0  0  0  0  0
  187.8260  178.3480  148.6170 C   0  0  0  0  0  3  0  0  0  0  0  0
  188.6660  178.0660  145.9080 C   0  0  2  0  0  3  0  0  0  0  0  0
  182.1540  178.9910  141.9780 N   0  0  0  0  0  2  0  0  0  0  0  0
  186.8900  178.0920  147.6900 C   0  0  0  0  0  3  0  0  0  0  0  0
  187.8780  178.0210  139.7100 C   0  0  0  0  0  3  0  0  0  0  0  0
  187.4160  177.9310  141.1110 C   0  0  0  0  0  0  0  0  0  0  0  0
  185.1960  178.5120  140.3930 N   0  0  0  0  0  2  0  0  0  0  0  0
  186.2790  178.3420  145.3010 C   0  0  0  0  0  2  0  0  0  0  0  0
  183.7510  178.3530  144.3120 O   0  0  0  0  0  0  0  0  0  0  0  0
  182.8050  179.2300  138.4630 N   0  0  0  0  0  1  0  0  0  0  0  0
  185.7150  178.1930  142.8850 C   0  0  0  0  0  0  0  0  0  0  0  0
  183.9660  178.7690  140.6960 C   0  0  0  0  0  0  0  0  0  0  0  0
  189.6760  176.1160  147.2010 C   0  0  0  0  0  2  0  0  0  0  0  0
  190.9070  175.7120  147.7860 O   0  0  0  0  0  0  0  0  0  0  0  0
  192.1060  175.6840  147.0710 C   0  0  0  0  0  0  0  0  0  0  0  0
  192.1280  175.6670  145.5790 C   0  0  0  0  0  1  0  0  0  0  0  0
  193.1970  175.6840  147.6990 O   0  0  0  0  0  0  0  0  0  0  0  0
  1 16  1  0  0  0  0
  2 23  1  0  0  0  0
  3 11  2  0  0  0  0
  4 20  2  0  0  0  0
  4  3  1  0  0  0  0
  5 24  2  0  0  0  0
  6  5  1  0  0  0  0
  7 23  1  6  0  0  0
  7 19  1  0  0  0  0
  9 15  2  0  0  0  0
  9 27  1  0  0  0  0
 10 28  1  1  0  0  0
 10  1  1  0  0  0  0
 12  2  1  0  0  0  0
 12  8  1  0  0  0  0
 13 11  1  6  0  0  0
 13 12  1  0  0  0  0
 14 26  1  0  0  0  0
 15 18  1  0  0  0  0
 17  8  1  6  0  0  0
 17  7  1  0  0  0  0
 17 10  1  0  0  0  0
 18  6  1  0  0  0  0
 19 16  2  0  0  0  0
 20 21  1  0  0  0  0
 21 14  2  0  0  0  0
 21 13  1  0  0  0  0
 22 27  1  0  0  0  0
 22 14  1  0  0  0  0
 25  9  1  0  0  0  0
 26  5  1  0  0  0  0
 26  2  2  0  0  0  0
 27  6  2  0  0  0  0
 28 29  1  0  0  0  0
 30 32  2  0  0  0  0
 30 29  1  0  0  0  0
 31 30  1  0  0  0  0
M  END
>  <MODEL>
4

>  <REMARK>
 VINA RESULT:      -9.0      2.889      8.305
  Name = 
  3 active torsions:
  status: ('A' for Active; 'I' for Inactive)
    1  A    between atoms: C_10  and  C_20
    2  A    between atoms: C_20  and  O_29
    3  A    between atoms: O_29  and  C_30
                            x       y       z     vdW  Elec       q    Type
                         _______ _______ _______ _____ _____    ______ ____

>  <TORSDO>
F 3

$$$$
=
 OpenBabel11122410413D

 32 37  0  0  1  0  0  0  0  0999 V2000
  179.3840  178.3380  141.7670 C   0  0  0  0  0  2  0  0  0  0  0  0
  184.4510  178.5190  142.8550 C   0  0  0  0  0  0  0  0  0  0  0  0
  186.4780  178.0530  138.4640 C   0  0  0  0  0  3  0  0  0  0  0  0
  187.8270  178.0530  139.0610 C   0  0  0  0  0  3  0  0  0  0  0  0
  185.8630  178.2630  144.9210 C   0  0  0  0  0  0  0  0  0  0  0  0
  187.2090  177.9410  145.3750 C   0  0  0  0  0  0  0  0  0  0  0  0
  181.9910  179.0090  143.0290 C   0  0  1  0  0  3  0  0  0  0  0  0
  183.0630  179.0230  140.7940 C   0  0  0  0  0  2  0  0  0  0  0  0
  189.4040  177.4980  145.2970 C   0  0  0  0  0  0  0  0  0  0  0  0
  180.5380  178.9520  140.9690 C   0  0  2  0  0  3  0  0  0  0  0  0
  185.4060  178.3980  139.1850 C   0  0  0  0  0  3  0  0  0  0  0  0
  184.3420  178.6430  141.4100 N   0  0  0  0  0  0  0  0  0  0  0  0
  185.5410  178.9060  140.6020 C   0  0  1  0  0  3  0  0  0  0  0  0
  186.9030  178.2750  142.5750 C   0  0  0  0  0  0  0  0  0  0  0  0
  189.0160  177.4900  146.5330 N   0  0  0  0  0  0  0  0  0  0  0  0
  179.5620  178.4650  143.2630 C   0  0  0  0  0  3  0  0  0  0  0  0
  181.8700  178.5150  141.5910 C   0  0  2  0  0  3  0  0  0  0  0  0
  187.6330  177.7700  146.5850 N   0  0  0  0  0  2  0  0  0  0  0  0
  180.7490  178.7220  143.8340 C   0  0  0  0  0  3  0  0  0  0  0  0
  187.9920  178.2110  140.3770 C   0  0  0  0  0  3  0  0  0  0  0  0
  186.8170  178.4210  141.2480 C   0  0  0  0  0  0  0  0  0  0  0  0
  188.1820  177.9430  143.1690 N   0  0  0  0  0  2  0  0  0  0  0  0
  183.1960  178.3590  143.6790 C   0  0  0  0  0  2  0  0  0  0  0  0
  184.9390  178.4520  145.7570 O   0  0  0  0  0  0  0  0  0  0  0  0
  190.7440  177.2620  144.8800 N   0  0  0  0  0  1  0  0  0  0  0  0
  185.6700  178.3880  143.4380 C   0  0  0  0  0  0  0  0  0  0  0  0
  188.2780  177.7890  144.4490 C   0  0  0  0  0  0  0  0  0  0  0  0
  180.4020  180.4740  140.8820 C   0  0  0  0  0  2  0  0  0  0  0  0
  180.0170  180.8640  139.5700 O   0  0  0  0  0  0  0  0  0  0  0  0
  180.9200  180.9210  138.5060 C   0  0  0  0  0  0  0  0  0  0  0  0
  180.9670  179.8560  137.4610 C   0  0  0  0  0  1  0  0  0  0  0  0
  181.7080  181.8980  138.4180 O   0  0  0  0  0  0  0  0  0  0  0  0
  1 16  1  0  0  0  0
  2 26  2  0  0  0  0
  2 23  1  0  0  0  0
  3  4  1  0  0  0  0
  3 11  2  0  0  0  0
  4 20  2  0  0  0  0
  5  6  1  0  0  0  0
  5 24  2  0  0  0  0
  6 18  1  0  0  0  0
  7 23  1  1  0  0  0
  7 19  1  0  0  0  0
  8 12  1  0  0  0  0
  9 15  2  0  0  0  0
 10 28  1  1  0  0  0
 10 17  1  0  0  0  0
 10  1  1  0  0  0  0
 12  2  1  0  0  0  0
 13 11  1  6  0  0  0
 13 21  1  0  0  0  0
 13 12  1  0  0  0  0
 14 22  1  0  0  0  0
 14 26  1  0  0  0  0
 15 18  1  0  0  0  0
 16 19  2  0  0  0  0
 17  8  1  6  0  0  0
 17  7  1  0  0  0  0
 20 21  1  0  0  0  0
 21 14  2  0  0  0  0
 22 27  1  0  0  0  0
 25  9  1  0  0  0  0
 26  5  1  0  0  0  0
 27  9  1  0  0  0  0
 27  6  2  0  0  0  0
 29 28  1  0  0  0  0
 30 29  1  0  0  0  0
 31 30  1  0  0  0  0
 32 30  2  0  0  0  0
M  END
>  <MODEL>
5

>  <REMARK>
 VINA RESULT:      -8.9      2.919      5.710
  Name = 
  3 active torsions:
  status: ('A' for Active; 'I' for Inactive)
    1  A    between atoms: C_10  and  C_20
    2  A    between atoms: C_20  and  O_29
    3  A    between atoms: O_29  and  C_30
                            x       y       z     vdW  Elec       q    Type
                         _______ _______ _______ _____ _____    ______ ____

>  <TORSDO>
F 3

$$$$
=
 OpenBabel11122410413D

 32 37  0  0  1  0  0  0  0  0999 V2000
  181.9840  179.9730  139.3190 C   0  0  0  0  0  2  0  0  0  0  0  0
  186.0720  178.2500  142.0060 C   0  0  0  0  0  0  0  0  0  0  0  0
  184.5950  178.7830  146.6050 C   0  0  0  0  0  3  0  0  0  0  0  0
  185.9070  178.3250  147.1030 C   0  0  0  0  0  3  0  0  0  0  0  0
  188.4960  177.8020  141.5120 C   0  0  0  0  0  0  0  0  0  0  0  0
  189.8050  177.6710  142.1390 C   0  0  0  0  0  0  0  0  0  0  0  0
  184.3900  178.4350  140.1450 C   0  0  1  0  0  3  0  0  0  0  0  0
  183.5920  178.4560  142.4920 C   0  0  0  0  0  2  0  0  0  0  0  0
  191.3590  177.5020  143.7450 C   0  0  0  0  0  0  0  0  0  0  0  0
  182.0340  179.1900  140.6350 C   0  0  2  0  0  3  0  0  0  0  0  0
  184.2610  178.6430  145.3170 C   0  0  0  0  0  3  0  0  0  0  0  0
  184.9820  178.3750  142.9620 N   0  0  0  0  0  0  0  0  0  0  0  0
  185.1610  177.9150  144.3460 C   0  0  1  0  0  3  0  0  0  0  0  0
  187.6010  177.8500  143.9170 C   0  0  0  0  0  0  0  0  0  0  0  0
  191.9380  177.4340  142.5870 N   0  0  0  0  0  0  0  0  0  0  0  0
  183.0790  179.5830  138.3530 C   0  0  0  0  0  3  0  0  0  0  0  0
  183.4820  179.1480  141.1420 C   0  0  2  0  0  3  0  0  0  0  0  0
  190.9610  177.5400  141.5740 N   0  0  0  0  0  0  0  0  0  0  0  0
  184.1870  178.9290  138.7370 C   0  0  0  0  0  3  0  0  0  0  0  0
  186.8620  177.9360  146.2550 C   0  0  0  0  0  3  0  0  0  0  0  0
  186.6000  177.9300  144.8000 C   0  0  0  0  0  0  0  0  0  0  0  0
  188.9620  177.7270  144.3970 N   0  0  0  0  0  0  0  0  0  0  0  0
  185.8350  178.6260  140.5630 C   0  0  0  0  0  2  0  0  0  0  0  0
  188.3860  177.7540  140.2570 O   0  0  0  0  0  0  0  0  0  0  0  0
  192.0470  177.4200  144.9870 N   0  0  0  0  0  1  0  0  0  0  0  0
  187.3240  177.9540  142.4370 C   0  0  0  0  0  0  0  0  0  0  0  0
  189.9410  177.6600  143.5550 C   0  0  0  0  0  0  0  0  0  0  0  0
  181.4300  177.7940  140.4710 C   0  0  0  0  0  2  0  0  0  0  0  0
  180.1340  177.7430  141.0550 O   0  0  0  0  0  0  0  0  0  0  0  0
  179.7530  178.5690  142.1150 C   0  0  0  0  0  0  0  0  0  0  0  0
  180.0650  178.2190  143.5320 C   0  0  0  0  0  1  0  0  0  0  0  0
  179.1400  179.6410  141.8710 O   0  0  0  0  0  0  0  0  0  0  0  0
  1 10  1  0  0  0  0
  2 26  2  0  0  0  0
  2 12  1  0  0  0  0
  3  4  1  0  0  0  0
  5  6  1  0  0  0  0
  5 26  1  0  0  0  0
  6 27  1  0  0  0  0
  7 19  1  6  0  0  0
  7 23  1  0  0  0  0
  7 17  1  0  0  0  0
  8 12  1  0  0  0  0
  9 25  1  0  0  0  0
 10 28  1  6  0  0  0
 10 17  1  0  0  0  0
 11  3  2  0  0  0  0
 12 13  1  0  0  0  0
 13 21  1  0  0  0  0
 13 11  1  1  0  0  0
 14 22  1  0  0  0  0
 14 21  2  0  0  0  0
 15  9  2  0  0  0  0
 16 19  2  0  0  0  0
 16  1  1  0  0  0  0
 17  8  1  1  0  0  0
 18  6  2  0  0  0  0
 18 15  1  0  0  0  0
 20  4  2  0  0  0  0
 21 20  1  0  0  0  0
 23  2  1  0  0  0  0
 24  5  2  0  0  0  0
 26 14  1  0  0  0  0
 27  9  1  0  0  0  0
 27 22  2  0  0  0  0
 28 29  1  0  0  0  0
 29 30  1  0  0  0  0
 30 31  1  0  0  0  0
 32 30  2  0  0  0  0
M  END
>  <MODEL>
6

>  <REMARK>
 VINA RESULT:      -8.6      2.730      4.580
  Name = 
  3 active torsions:
  status: ('A' for Active; 'I' for Inactive)
    1  A    between atoms: C_10  and  C_20
    2  A    between atoms: C_20  and  O_29
    3  A    between atoms: O_29  and  C_30
                            x       y       z     vdW  Elec       q    Type
                         _______ _______ _______ _____ _____    ______ ____

>  <TORSDO>
F 3

$$$$
=
 OpenBabel11122410413D

 32 37  0  0  1  0  0  0  0  0999 V2000
  190.6190  178.2070  144.9190 C   0  0  0  0  0  2  0  0  0  0  0  0
  186.7430  178.1580  141.4740 C   0  0  0  0  0  0  0  0  0  0  0  0
  189.0820  178.7980  137.2630 C   0  0  0  0  0  3  0  0  0  0  0  0
  187.8020  178.8260  136.5300 C   0  0  0  0  0  3  0  0  0  0  0  0
  184.2420  178.4060  141.5690 C   0  0  0  0  0  0  0  0  0  0  0  0
  183.0780  178.7590  140.7660 C   0  0  0  0  0  0  0  0  0  0  0  0
  188.0600  177.5870  143.5380 C   0  0  1  0  0  3  0  0  0  0  0  0
  189.2260  177.6630  141.3530 C   0  0  0  0  0  2  0  0  0  0  0  0
  181.8420  179.2730  138.9690 C   0  0  0  0  0  0  0  0  0  0  0  0
  190.5810  177.6490  143.4920 C   0  0  2  0  0  3  0  0  0  0  0  0
  189.1360  178.4010  138.5390 C   0  0  0  0  0  3  0  0  0  0  0  0
  187.9720  178.0670  140.7020 N   0  0  0  0  0  0  0  0  0  0  0  0
  187.9150  177.8620  139.2480 C   0  0  1  0  0  3  0  0  0  0  0  0
  185.5170  178.4860  139.3430 C   0  0  0  0  0  0  0  0  0  0  0  0
  181.0750  179.2380  140.0140 N   0  0  0  0  0  0  0  0  0  0  0  0
  189.3090  178.0470  145.6550 C   0  0  0  0  0  3  0  0  0  0  0  0
  189.2900  178.1120  142.8050 C   0  0  2  0  0  3  0  0  0  0  0  0
  181.8520  178.9130  141.1470 N   0  0  0  0  0  2  0  0  0  0  0  0
  188.1460  177.8140  145.0260 C   0  0  0  0  0  3  0  0  0  0  0  0
  186.6440  178.6400  137.1690 C   0  0  0  0  0  3  0  0  0  0  0  0
  186.6380  178.3710  138.6220 C   0  0  0  0  0  0  0  0  0  0  0  0
  184.2810  178.8430  138.6780 N   0  0  0  0  0  2  0  0  0  0  0  0
  186.8220  178.2580  142.9790 C   0  0  0  0  0  2  0  0  0  0  0  0
  184.1150  178.1680  142.8000 O   0  0  0  0  0  0  0  0  0  0  0  0
  181.3840  179.5620  137.6540 N   0  0  0  0  0  1  0  0  0  0  0  0
  185.5520  178.3130  140.8420 C   0  0  0  0  0  0  0  0  0  0  0  0
  183.1920  178.9690  139.3640 C   0  0  0  0  0  0  0  0  0  0  0  0
  190.7330  176.1270  143.4890 C   0  0  0  0  0  2  0  0  0  0  0  0
  192.0330  175.7570  143.9320 O   0  0  0  0  0  0  0  0  0  0  0  0
  192.2430  174.8790  144.9980 C   0  0  0  0  0  0  0  0  0  0  0  0
  192.1690  175.3370  146.4160 C   0  0  0  0  0  1  0  0  0  0  0  0
  192.4920  173.6680  144.7580 O   0  0  0  0  0  0  0  0  0  0  0  0
  1 16  1  0  0  0  0
  2 23  1  0  0  0  0
  3 11  2  0  0  0  0
  4 20  2  0  0  0  0
  4  3  1  0  0  0  0
  5 24  2  0  0  0  0
  6 18  1  0  0  0  0
  6  5  1  0  0  0  0
  7 23  1  6  0  0  0
  7 19  1  0  0  0  0
  9 27  1  0  0  0  0
  9 15  2  0  0  0  0
 10 28  1  1  0  0  0
 10  1  1  0  0  0  0
 12  8  1  0  0  0  0
 12  2  1  0  0  0  0
 13 11  1  6  0  0  0
 13 12  1  0  0  0  0
 14 26  1  0  0  0  0
 15 18  1  0  0  0  0
 17  8  1  6  0  0  0
 17 10  1  0  0  0  0
 17  7  1  0  0  0  0
 19 16  2  0  0  0  0
 20 21  1  0  0  0  0
 21 13  1  0  0  0  0
 21 14  2  0  0  0  0
 22 14  1  0  0  0  0
 22 27  1  0  0  0  0
 25  9  1  0  0  0  0
 26  2  2  0  0  0  0
 26  5  1  0  0  0  0
 27  6  2  0  0  0  0
 28 29  1  0  0  0  0
 29 30  1  0  0  0  0
 30 31  1  0  0  0  0
 32 30  2  0  0  0  0
M  END
>  <MODEL>
7

>  <REMARK>
 VINA RESULT:      -8.3      3.204      7.937
  Name = 
  3 active torsions:
  status: ('A' for Active; 'I' for Inactive)
    1  A    between atoms: C_10  and  C_20
    2  A    between atoms: C_20  and  O_29
    3  A    between atoms: O_29  and  C_30
                            x       y       z     vdW  Elec       q    Type
                         _______ _______ _______ _____ _____    ______ ____

>  <TORSDO>
F 3

$$$$
=
 OpenBabel11122410413D

 32 37  0  0  1  0  0  0  0  0999 V2000
  190.6760  175.5600  137.4740 C   0  0  0  0  0  2  0  0  0  0  0  0
  188.6540  177.4110  141.8770 C   0  0  0  0  0  0  0  0  0  0  0  0
  191.8520  175.9000  145.2090 C   0  0  0  0  0  3  0  0  0  0  0  0
  191.0230  176.4620  146.2930 C   0  0  0  0  0  3  0  0  0  0  0  0
  186.4150  178.2990  142.6000 C   0  0  0  0  0  0  0  0  0  0  0  0
  185.5760  178.5200  143.7710 C   0  0  0  0  0  0  0  0  0  0  0  0
  189.2650  177.2870  139.4410 C   0  0  1  0  0  3  0  0  0  0  0  0
  190.9890  176.7530  141.1400 C   0  0  0  0  0  2  0  0  0  0  0  0
  184.9620  178.6530  145.9220 C   0  0  0  0  0  0  0  0  0  0  0  0
  191.3760  176.1110  138.7210 C   0  0  2  0  0  3  0  0  0  0  0  0
  191.6070  176.2000  143.9290 C   0  0  0  0  0  3  0  0  0  0  0  0
  189.9990  176.9650  142.2050 N   0  0  0  0  0  0  0  0  0  0  0  0
  190.5490  177.2090  143.5460 C   0  0  1  0  0  3  0  0  0  0  0  0
  188.2440  177.7140  144.3040 C   0  0  0  0  0  0  0  0  0  0  0  0
  183.9610  179.0010  145.1750 N   0  0  0  0  0  0  0  0  0  0  0  0
  189.3780  176.2680  137.1610 C   0  0  0  0  0  3  0  0  0  0  0  0
  190.3450  176.2870  139.8430 C   0  0  2  0  0  3  0  0  0  0  0  0
  184.3470  178.9180  143.8190 N   0  0  0  0  0  0  0  0  0  0  0  0
  188.7180  177.0090  138.0640 C   0  0  0  0  0  3  0  0  0  0  0  0
  189.8980  177.1280  146.0180 C   0  0  0  0  0  3  0  0  0  0  0  0
  189.4890  177.3360  144.6130 C   0  0  0  0  0  0  0  0  0  0  0  0
  187.2930  177.9600  145.3690 N   0  0  0  0  0  0  0  0  0  0  0  0
  188.1470  177.2510  140.4640 C   0  0  0  0  0  2  0  0  0  0  0  0
  185.9700  178.5390  141.4460 O   0  0  0  0  0  0  0  0  0  0  0  0
  184.9250  178.6300  147.3440 N   0  0  0  0  0  1  0  0  0  0  0  0
  187.8130  177.8180  142.8610 C   0  0  0  0  0  0  0  0  0  0  0  0
  186.0830  178.3160  145.0840 C   0  0  0  0  0  0  0  0  0  0  0  0
  192.1280  177.4060  138.4060 C   0  0  0  0  0  2  0  0  0  0  0  0
  193.5260  177.1620  138.3250 O   0  0  0  0  0  0  0  0  0  0  0  0
  194.0770  176.2310  137.4410 C   0  0  0  0  0  0  0  0  0  0  0  0
  193.9340  176.3760  135.9620 C   0  0  0  0  0  1  0  0  0  0  0  0
  194.7180  175.2500  137.9000 O   0  0  0  0  0  0  0  0  0  0  0  0
  1 10  1  0  0  0  0
  2 12  1  0  0  0  0
  2 26  2  0  0  0  0
  3  4  1  0  0  0  0
  5 26  1  0  0  0  0
  5  6  1  0  0  0  0
  6 18  2  0  0  0  0
  6 27  1  0  0  0  0
  7 19  1  6  0  0  0
  7 17  1  0  0  0  0
  7 23  1  0  0  0  0
  8 12  1  0  0  0  0
  9 25  1  0  0  0  0
 10 28  1  6  0  0  0
 10 17  1  0  0  0  0
 11  3  2  0  0  0  0
 12 13  1  0  0  0  0
 13 11  1  1  0  0  0
 13 21  1  0  0  0  0
 14 21  2  0  0  0  0
 14 22  1  0  0  0  0
 15  9  2  0  0  0  0
 16  1  1  0  0  0  0
 16 19  2  0  0  0  0
 17  8  1  1  0  0  0
 18 15  1  0  0  0  0
 20  4  2  0  0  0  0
 21 20  1  0  0  0  0
 23  2  1  0  0  0  0
 24  5  2  0  0  0  0
 26 14  1  0  0  0  0
 27 22  2  0  0  0  0
 27  9  1  0  0  0  0
 29 28  1  0  0  0  0
 30 32  2  0  0  0  0
 30 29  1  0  0  0  0
 31 30  1  0  0  0  0
M  END
>  <MODEL>
8

>  <REMARK>
 VINA RESULT:      -8.3      2.796      5.614
  Name = 
  3 active torsions:
  status: ('A' for Active; 'I' for Inactive)
    1  A    between atoms: C_10  and  C_20
    2  A    between atoms: C_20  and  O_29
    3  A    between atoms: O_29  and  C_30
                            x       y       z     vdW  Elec       q    Type
                         _______ _______ _______ _____ _____    ______ ____

>  <TORSDO>
F 3

$$$$
=
 OpenBabel11122410413D

 32 37  0  0  1  0  0  0  0  0999 V2000
  191.5050  175.6220  143.7850 C   0  0  0  0  0  2  0  0  0  0  0  0
  187.1110  178.0330  142.4530 C   0  0  0  0  0  0  0  0  0  0  0  0
  184.6120  178.0230  146.6190 C   0  0  0  0  0  3  0  0  0  0  0  0
  183.4550  178.6530  145.9540 C   0  0  0  0  0  3  0  0  0  0  0  0
  185.9520  178.6080  140.2960 C   0  0  0  0  0  0  0  0  0  0  0  0
  184.6500  178.9320  139.7280 C   0  0  0  0  0  0  0  0  0  0  0  0
  189.5590  177.4540  142.4840 C   0  0  1  0  0  3  0  0  0  0  0  0
  188.3530  177.6930  144.6370 C   0  0  0  0  0  2  0  0  0  0  0  0
  182.4720  179.4510  139.6230 C   0  0  0  0  0  0  0  0  0  0  0  0
  190.6280  176.5810  144.5950 C   0  0  2  0  0  3  0  0  0  0  0  0
  185.8020  177.9550  146.0130 C   0  0  0  0  0  3  0  0  0  0  0  0
  187.1050  177.9530  143.9050 N   0  0  0  0  0  0  0  0  0  0  0  0
  186.0420  178.6130  144.6740 C   0  0  1  0  0  3  0  0  0  0  0  0
  184.7620  178.8200  142.5610 C   0  0  0  0  0  0  0  0  0  0  0  0
  182.9540  179.4050  138.4210 N   0  0  0  0  0  0  0  0  0  0  0  0
  191.5580  175.9630  142.3130 C   0  0  0  0  0  3  0  0  0  0  0  0
  189.3090  176.8130  143.8460 C   0  0  2  0  0  3  0  0  0  0  0  0
  184.3260  179.0800  138.4850 N   0  0  0  0  0  0  0  0  0  0  0  0
  190.6510  176.7540  141.7180 C   0  0  0  0  0  3  0  0  0  0  0  0
  183.5130  178.9980  144.6650 C   0  0  0  0  0  3  0  0  0  0  0  0
  184.7580  178.7800  143.8970 C   0  0  0  0  0  0  0  0  0  0  0  0
  183.5330  179.1210  141.8570 N   0  0  0  0  0  0  0  0  0  0  0  0
  188.2710  177.4430  141.6850 C   0  0  0  0  0  2  0  0  0  0  0  0
  186.9550  178.4730  139.5460 O   0  0  0  0  0  0  0  0  0  0  0  0
  181.1180  179.7610  139.9290 N   0  0  0  0  0  1  0  0  0  0  0  0
  186.0180  178.4890  141.7910 C   0  0  0  0  0  0  0  0  0  0  0  0
  183.5200  179.1520  140.5640 C   0  0  0  0  0  0  0  0  0  0  0  0
  191.3680  177.8860  144.8970 C   0  0  0  0  0  2  0  0  0  0  0  0
  191.8110  177.9040  146.2480 O   0  0  0  0  0  0  0  0  0  0  0  0
  191.3670  176.9810  147.1980 C   0  0  0  0  0  0  0  0  0  0  0  0
  192.2060  175.8180  147.6110 C   0  0  0  0  0  1  0  0  0  0  0  0
  190.2360  177.1370  147.7270 O   0  0  0  0  0  0  0  0  0  0  0  0
  1 10  1  0  0  0  0
  2 12  1  0  0  0  0
  4  3  1  0  0  0  0
  5 26  1  0  0  0  0
  6  5  1  0  0  0  0
  6 27  1  0  0  0  0
  7 23  1  6  0  0  0
  7 17  1  0  0  0  0
  9 25  1  0  0  0  0
  9 27  1  0  0  0  0
 10 28  1  6  0  0  0
 11  3  2  0  0  0  0
 12  8  1  0  0  0  0
 12 13  1  0  0  0  0
 13 11  1  1  0  0  0
 14 21  2  0  0  0  0
 15 18  1  0  0  0  0
 15  9  2  0  0  0  0
 16  1  1  0  0  0  0
 17 10  1  0  0  0  0
 17  8  1  1  0  0  0
 18  6  2  0  0  0  0
 19 16  2  0  0  0  0
 19  7  1  0  0  0  0
 20  4  2  0  0  0  0
 21 20  1  0  0  0  0
 21 13  1  0  0  0  0
 22 14  1  0  0  0  0
 23  2  1  0  0  0  0
 24  5  2  0  0  0  0
 26  2  2  0  0  0  0
 26 14  1  0  0  0  0
 27 22  2  0  0  0  0
 28 29  1  0  0  0  0
 29 30  1  0  0  0  0
 30 31  1  0  0  0  0
 30 32  2  0  0  0  0
M  END
>  <MODEL>
9

>  <REMARK>
 VINA RESULT:      -8.3      2.686      7.213
  Name = 
  3 active torsions:
  status: ('A' for Active; 'I' for Inactive)
    1  A    between atoms: C_10  and  C_20
    2  A    between atoms: C_20  and  O_29
    3  A    between atoms: O_29  and  C_30
                            x       y       z     vdW  Elec       q    Type
                         _______ _______ _______ _____ _____    ______ ____

>  <TORSDO>
F 3

$$$$
