=
 OpenBabel11122410273D

 30 34  0  0  1  0  0  0  0  0999 V2000
  187.0620  177.8770  142.9250 C   0  0  0  0  0  0  0  0  0  0  0  0
  184.7100  178.8150  142.6410 C   0  0  0  0  0  0  0  0  0  0  0  0
  186.7310  177.8990  147.1000 N   0  0  0  0  0  2  0  0  0  0  0  0
  188.0790  177.3680  143.7640 C   0  0  0  0  0  0  0  0  0  0  0  0
  187.3100  178.0350  141.5540 O   0  0  0  0  0  0  0  0  0  0  0  0
  190.8400  177.7070  141.4970 O   0  0  0  0  0  0  0  0  0  0  0  0
  190.9280  177.1290  145.2270 C   0  0  2  0  0  3  0  0  0  0  0  0
  189.6580  177.4880  141.8780 C   0  0  0  0  0  0  0  0  0  0  0  0
  189.9620  177.8510  145.9780 O   0  0  0  0  0  0  0  0  0  0  0  0
  188.0620  177.4790  147.4010 C   0  0  0  0  0  0  0  0  0  0  0  0
  188.5100  177.6010  140.9090 C   0  0  2  0  0  3  0  0  0  0  0  0
  189.3850  177.0690  143.2280 N   0  0  0  0  0  0  0  0  0  0  0  0
  183.3410  179.0080  143.2310 C   0  0  0  0  0  2  0  0  0  0  0  0
  184.8800  179.0670  141.4190 O   0  0  0  0  0  0  0  0  0  0  0  0
  186.6640  177.7840  145.6860 C   0  0  0  0  0  0  0  0  0  0  0  0
  183.3600  179.1670  144.7270 C   0  0  0  0  0  3  0  0  0  0  0  0
  185.8150  178.2830  143.4770 C   0  0  0  0  0  0  0  0  0  0  0  0
  187.8360  177.3140  145.1410 C   0  0  0  0  0  0  0  0  0  0  0  0
  188.5170  177.4660  148.5730 O   0  0  0  0  0  0  0  0  0  0  0  0
  188.8380  177.0330  146.2020 C   0  0  1  0  0  3  0  0  0  0  0  0
  191.4310  175.5960  143.2310 C   0  0  0  0  0  1  0  0  0  0  0  0
  184.3940  178.7880  145.4800 C   0  0  0  0  0  3  0  0  0  0  0  0
  185.6250  178.2490  144.8790 C   0  0  0  0  0  0  0  0  0  0  0  0
  190.3530  176.3050  144.0450 C   0  0  1  0  0  3  0  0  0  0  0  0
  191.7770  176.2580  146.1500 C   0  0  0  0  0  2  0  0  0  0  0  0
  192.6630  175.9830  148.4430 C   0  0  0  0  0  1  0  0  0  0  0  0
  191.7400  176.8010  147.5660 C   0  0  0  0  0  2  0  0  0  0  0  0
  188.8180  178.5140  139.7270 C   0  0  0  0  0  2  0  0  0  0  0  0
  187.8470  177.5800  137.9790 C   0  0  0  0  0  1  0  0  0  0  0  0
  187.7040  178.6240  138.8920 O   0  0  0  0  0  0  0  0  0  0  0  0
  1 17  2  0  0  0  0
  1  4  1  0  0  0  0
  2 13  1  0  0  0  0
  2 17  1  0  0  0  0
  3 10  1  0  0  0  0
  4 18  2  0  0  0  0
  5  1  1  0  0  0  0
  6  8  2  0  0  0  0
  7  9  1  0  0  0  0
  7 25  1  1  0  0  0
  8 12  1  0  0  0  0
  9 20  1  0  0  0  0
 10 19  2  0  0  0  0
 11 28  1  6  0  0  0
 11  5  1  0  0  0  0
 11  8  1  0  0  0  0
 12  4  1  0  0  0  0
 12 24  1  0  0  0  0
 13 16  1  0  0  0  0
 14  2  2  0  0  0  0
 15  3  1  0  0  0  0
 16 22  2  0  0  0  0
 17 23  1  0  0  0  0
 18 15  1  0  0  0  0
 20 18  1  6  0  0  0
 20 10  1  0  0  0  0
 23 22  1  0  0  0  0
 23 15  2  0  0  0  0
 24 21  1  6  0  0  0
 24  7  1  0  0  0  0
 25 27  1  0  0  0  0
 27 26  1  0  0  0  0
 29 30  1  0  0  0  0
 30 28  1  0  0  0  0
M  END
>  <MODEL>
1

>  <REMARK>
 VINA RESULT:     -10.6      0.000      0.000
  Name = 
  4 active torsions:
  status: ('A' for Active; 'I' for Inactive)
    1  A    between atoms: C_7  and  C_15
    2  A    between atoms: C_11  and  C_28
    3  A    between atoms: C_15  and  C_23
    4  A    between atoms: C_28  and  O_30
                            x       y       z     vdW  Elec       q    Type
                         _______ _______ _______ _____ _____    ______ ____

>  <TORSDO>
F 4

$$$$
=
 OpenBabel11122410273D

 30 34  0  0  1  0  0  0  0  0999 V2000
  186.2240  178.1900  141.5390 C   0  0  0  0  0  0  0  0  0  0  0  0
  184.2430  178.9360  140.1220 C   0  0  0  0  0  0  0  0  0  0  0  0
  184.0240  178.5580  145.0840 N   0  0  0  0  0  2  0  0  0  0  0  0
  186.7570  177.8290  142.7970 C   0  0  0  0  0  0  0  0  0  0  0  0
  187.0680  178.2430  140.4200 O   0  0  0  0  0  0  0  0  0  0  0  0
  190.2410  178.1540  142.0010 O   0  0  0  0  0  0  0  0  0  0  0  0
  188.6290  177.9150  145.4060 C   0  0  2  0  0  3  0  0  0  0  0  0
  189.0200  177.8890  141.8280 C   0  0  0  0  0  0  0  0  0  0  0  0
  187.4110  178.6330  145.5550 O   0  0  0  0  0  0  0  0  0  0  0  0
  185.0790  178.2580  145.9980 C   0  0  0  0  0  0  0  0  0  0  0  0
  188.4390  177.8380  140.4390 C   0  0  2  0  0  3  0  0  0  0  0  0
  188.1700  177.5730  142.9460 N   0  0  0  0  0  0  0  0  0  0  0  0
  182.7520  179.0860  140.0050 C   0  0  0  0  0  2  0  0  0  0  0  0
  184.9470  179.0900  139.0890 O   0  0  0  0  0  0  0  0  0  0  0  0
  184.6120  178.3140  143.8140 C   0  0  0  0  0  0  0  0  0  0  0  0
  182.0820  179.3770  141.3200 C   0  0  0  0  0  3  0  0  0  0  0  0
  184.8550  178.5570  141.4200 C   0  0  0  0  0  0  0  0  0  0  0  0
  185.9130  177.8790  143.9120 C   0  0  0  0  0  0  0  0  0  0  0  0
  184.9500  178.3800  147.2430 O   0  0  0  0  0  0  0  0  0  0  0  0
  186.3260  177.7620  145.3360 C   0  0  1  0  0  3  0  0  0  0  0  0
  190.0190  176.2500  144.0340 C   0  0  0  0  0  1  0  0  0  0  0  0
  182.6660  179.1380  142.4960 C   0  0  0  0  0  3  0  0  0  0  0  0
  184.0470  178.6340  142.5790 C   0  0  0  0  0  0  0  0  0  0  0  0
  188.6730  176.9530  144.1900 C   0  0  1  0  0  3  0  0  0  0  0  0
  188.9810  177.1900  146.7020 C   0  0  0  0  0  2  0  0  0  0  0  0
  188.0710  177.9030  148.8890 C   0  0  0  0  0  1  0  0  0  0  0  0
  189.1240  178.1840  147.8390 C   0  0  0  0  0  2  0  0  0  0  0  0
  189.2330  178.6620  139.4310 C   0  0  0  0  0  2  0  0  0  0  0  0
  189.0870  178.7230  137.2300 C   0  0  0  0  0  1  0  0  0  0  0  0
  188.4060  179.0900  138.3900 O   0  0  0  0  0  0  0  0  0  0  0  0
  1  4  1  0  0  0  0
  2 17  1  0  0  0  0
  3 10  1  0  0  0  0
  4 12  1  0  0  0  0
  4 18  2  0  0  0  0
  5 11  1  0  0  0  0
  5  1  1  0  0  0  0
  7  9  1  0  0  0  0
  7 25  1  1  0  0  0
  8  6  2  0  0  0  0
  8 12  1  0  0  0  0
 10 19  2  0  0  0  0
 11 28  1  6  0  0  0
 11  8  1  0  0  0  0
 12 24  1  0  0  0  0
 13  2  1  0  0  0  0
 13 16  1  0  0  0  0
 14  2  2  0  0  0  0
 15 18  1  0  0  0  0
 15  3  1  0  0  0  0
 16 22  2  0  0  0  0
 17  1  2  0  0  0  0
 17 23  1  0  0  0  0
 20 18  1  6  0  0  0
 20  9  1  0  0  0  0
 20 10  1  0  0  0  0
 22 23  1  0  0  0  0
 23 15  2  0  0  0  0
 24 21  1  6  0  0  0
 24  7  1  0  0  0  0
 25 27  1  0  0  0  0
 27 26  1  0  0  0  0
 29 30  1  0  0  0  0
 30 28  1  0  0  0  0
M  END
>  <MODEL>
2

>  <REMARK>
 VINA RESULT:      -9.3      1.794      2.572
  Name = 
  4 active torsions:
  status: ('A' for Active; 'I' for Inactive)
    1  A    between atoms: C_7  and  C_15
    2  A    between atoms: C_11  and  C_28
    3  A    between atoms: C_15  and  C_23
    4  A    between atoms: C_28  and  O_30
                            x       y       z     vdW  Elec       q    Type
                         _______ _______ _______ _____ _____    ______ ____

>  <TORSDO>
F 4

$$$$
=
 OpenBabel11122410273D

 30 34  0  0  1  0  0  0  0  0999 V2000
  186.9220  178.2210  144.4330 C   0  0  0  0  0  0  0  0  0  0  0  0
  184.5270  178.5480  145.2390 C   0  0  0  0  0  0  0  0  0  0  0  0
  185.7800  178.5590  140.4180 N   0  0  0  0  0  2  0  0  0  0  0  0
  187.8630  178.2030  143.3780 C   0  0  0  0  0  0  0  0  0  0  0  0
  187.3350  177.8990  145.7340 O   0  0  0  0  0  0  0  0  0  0  0  0
  190.5000  176.4470  145.0630 O   0  0  0  0  0  0  0  0  0  0  0  0
  190.0970  177.0800  141.3630 C   0  0  2  0  0  3  0  0  0  0  0  0
  189.5270  177.2360  144.9140 C   0  0  0  0  0  0  0  0  0  0  0  0
  188.7700  176.9610  140.8650 O   0  0  0  0  0  0  0  0  0  0  0  0
  187.0520  178.2850  139.8320 C   0  0  0  0  0  0  0  0  0  0  0  0
  188.6960  177.6560  146.0980 C   0  0  2  0  0  3  0  0  0  0  0  0
  189.2260  177.7970  143.6230 N   0  0  0  0  0  0  0  0  0  0  0  0
  183.1520  179.0800  144.9470 C   0  0  0  0  0  2  0  0  0  0  0  0
  184.7980  178.1890  146.4150 O   0  0  0  0  0  0  0  0  0  0  0  0
  186.0670  178.6260  141.8070 C   0  0  0  0  0  0  0  0  0  0  0  0
  182.7850  179.0020  143.4900 C   0  0  0  0  0  3  0  0  0  0  0  0
  185.5540  178.5060  144.1680 C   0  0  0  0  0  0  0  0  0  0  0  0
  187.4020  178.4340  142.0780 C   0  0  0  0  0  0  0  0  0  0  0  0
  187.2060  178.1260  138.5930 O   0  0  0  0  0  0  0  0  0  0  0  0
  188.1730  178.2350  140.8210 C   0  0  1  0  0  3  0  0  0  0  0  0
  191.6810  178.0730  143.1210 C   0  0  0  0  0  1  0  0  0  0  0  0
  183.6940  178.8590  142.5240 C   0  0  0  0  0  3  0  0  0  0  0  0
  185.1240  178.6940  142.8330 C   0  0  0  0  0  0  0  0  0  0  0  0
  190.2530  178.0240  142.5840 C   0  0  1  0  0  3  0  0  0  0  0  0
  191.0550  177.4620  140.2370 C   0  0  0  0  0  2  0  0  0  0  0  0
  190.5270  177.0980  137.8480 C   0  0  0  0  0  1  0  0  0  0  0  0
  190.9960  176.4330  139.1240 C   0  0  0  0  0  2  0  0  0  0  0  0
  188.7510  176.6560  147.2480 C   0  0  0  0  0  2  0  0  0  0  0  0
  188.8760  178.3000  148.7150 C   0  0  0  0  0  1  0  0  0  0  0  0
  188.1200  177.1770  148.3790 O   0  0  0  0  0  0  0  0  0  0  0  0
  1  5  1  0  0  0  0
  2 14  2  0  0  0  0
  3 15  1  0  0  0  0
  4 12  1  0  0  0  0
  4  1  2  0  0  0  0
  5 11  1  0  0  0  0
  7 25  1  6  0  0  0
  7 24  1  0  0  0  0
  8  6  2  0  0  0  0
  8 11  1  0  0  0  0
  9  7  1  0  0  0  0
 10  3  1  0  0  0  0
 11 28  1  1  0  0  0
 12  8  1  0  0  0  0
 13  2  1  0  0  0  0
 15 18  2  0  0  0  0
 15 23  1  0  0  0  0
 16 13  1  0  0  0  0
 17  1  1  0  0  0  0
 17  2  1  0  0  0  0
 18  4  1  0  0  0  0
 19 10  2  0  0  0  0
 20 10  1  6  0  0  0
 20  9  1  0  0  0  0
 20 18  1  0  0  0  0
 22 23  1  0  0  0  0
 22 16  2  0  0  0  0
 23 17  2  0  0  0  0
 24 21  1  1  0  0  0
 24 12  1  0  0  0  0
 26 27  1  0  0  0  0
 27 25  1  0  0  0  0
 28 30  1  0  0  0  0
 30 29  1  0  0  0  0
M  END
>  <MODEL>
3

>  <REMARK>
 VINA RESULT:      -9.3      1.889      5.598
  Name = 
  4 active torsions:
  status: ('A' for Active; 'I' for Inactive)
    1  A    between atoms: C_7  and  C_15
    2  A    between atoms: C_11  and  C_28
    3  A    between atoms: C_15  and  C_23
    4  A    between atoms: C_28  and  O_30
                            x       y       z     vdW  Elec       q    Type
                         _______ _______ _______ _____ _____    ______ ____

>  <TORSDO>
F 4

$$$$
=
 OpenBabel11122410273D

 30 34  0  0  1  0  0  0  0  0999 V2000
  188.6710  177.6130  144.8060 C   0  0  0  0  0  0  0  0  0  0  0  0
  186.8600  177.9010  146.5750 C   0  0  0  0  0  0  0  0  0  0  0  0
  185.9960  178.4850  141.7040 N   0  0  0  0  0  2  0  0  0  0  0  0
  189.0850  177.7020  143.4570 C   0  0  0  0  0  0  0  0  0  0  0  0
  189.5600  177.1180  145.7710 O   0  0  0  0  0  0  0  0  0  0  0  0
  192.0380  175.6750  143.6840 O   0  0  0  0  0  0  0  0  0  0  0  0
  190.1860  176.7800  140.5850 C   0  0  2  0  0  3  0  0  0  0  0  0
  191.1560  176.5030  144.0400 C   0  0  0  0  0  0  0  0  0  0  0  0
  188.7680  176.7620  140.6830 O   0  0  0  0  0  0  0  0  0  0  0  0
  186.8850  178.2520  140.6120 C   0  0  0  0  0  0  0  0  0  0  0  0
  190.9260  176.7940  145.5010 C   0  0  2  0  0  3  0  0  0  0  0  0
  190.3910  177.2310  143.0620 N   0  0  0  0  0  0  0  0  0  0  0  0
  185.5340  178.5030  146.9460 C   0  0  0  0  0  2  0  0  0  0  0  0
  187.5650  177.3900  147.4840 O   0  0  0  0  0  0  0  0  0  0  0  0
  186.8380  178.3680  142.8420 C   0  0  0  0  0  0  0  0  0  0  0  0
  184.5900  178.6200  145.7800 C   0  0  0  0  0  3  0  0  0  0  0  0
  187.3430  177.9670  145.1730 C   0  0  0  0  0  0  0  0  0  0  0  0
  188.1460  178.1080  142.5030 C   0  0  0  0  0  0  0  0  0  0  0  0
  186.4980  178.2460  139.4150 O   0  0  0  0  0  0  0  0  0  0  0  0
  188.3080  178.0470  141.0260 C   0  0  1  0  0  3  0  0  0  0  0  0
  192.4290  177.5000  141.6040 C   0  0  0  0  0  1  0  0  0  0  0  0
  185.0020  178.5750  144.5120 C   0  0  0  0  0  3  0  0  0  0  0  0
  186.4140  178.3330  144.1700 C   0  0  0  0  0  0  0  0  0  0  0  0
  190.9080  177.5580  141.7160 C   0  0  1  0  0  3  0  0  0  0  0  0
  190.6170  177.2750  139.2060 C   0  0  0  0  0  2  0  0  0  0  0  0
  192.6010  176.4610  137.9730 C   0  0  0  0  0  1  0  0  0  0  0  0
  191.1840  176.1300  138.3900 C   0  0  0  0  0  2  0  0  0  0  0  0
  191.3750  175.6560  146.4110 C   0  0  0  0  0  2  0  0  0  0  0  0
  192.8010  175.6290  148.0960 C   0  0  0  0  0  1  0  0  0  0  0  0
  191.5500  176.1150  147.7180 O   0  0  0  0  0  0  0  0  0  0  0  0
  1 17  1  0  0  0  0
  1  5  1  0  0  0  0
  2 13  1  0  0  0  0
  2 14  2  0  0  0  0
  3 15  1  0  0  0  0
  4  1  2  0  0  0  0
  6  8  2  0  0  0  0
  7 25  1  6  0  0  0
  7  9  1  0  0  0  0
  7 24  1  0  0  0  0
  8 11  1  0  0  0  0
  9 20  1  0  0  0  0
 10  3  1  0  0  0  0
 11  5  1  0  0  0  0
 11 28  1  1  0  0  0
 12  4  1  0  0  0  0
 12  8  1  0  0  0  0
 15 23  1  0  0  0  0
 16 13  1  0  0  0  0
 17  2  1  0  0  0  0
 18 15  2  0  0  0  0
 18  4  1  0  0  0  0
 19 10  2  0  0  0  0
 20 10  1  6  0  0  0
 20 18  1  0  0  0  0
 22 16  2  0  0  0  0
 23 22  1  0  0  0  0
 23 17  2  0  0  0  0
 24 21  1  1  0  0  0
 24 12  1  0  0  0  0
 26 27  1  0  0  0  0
 27 25  1  0  0  0  0
 28 30  1  0  0  0  0
 30 29  1  0  0  0  0
M  END
>  <MODEL>
4

>  <REMARK>
 VINA RESULT:      -9.0      1.928      5.739
  Name = 
  4 active torsions:
  status: ('A' for Active; 'I' for Inactive)
    1  A    between atoms: C_7  and  C_15
    2  A    between atoms: C_11  and  C_28
    3  A    between atoms: C_15  and  C_23
    4  A    between atoms: C_28  and  O_30
                            x       y       z     vdW  Elec       q    Type
                         _______ _______ _______ _____ _____    ______ ____

>  <TORSDO>
F 4

$$$$
=
 OpenBabel11122410273D

 30 34  0  0  1  0  0  0  0  0999 V2000
  186.6870  177.9480  142.2290 C   0  0  0  0  0  0  0  0  0  0  0  0
  184.4660  178.7570  141.2780 C   0  0  0  0  0  0  0  0  0  0  0  0
  185.3050  178.3010  146.1670 N   0  0  0  0  0  2  0  0  0  0  0  0
  187.4680  177.5540  143.3400 C   0  0  0  0  0  0  0  0  0  0  0  0
  187.2730  178.0010  140.9560 O   0  0  0  0  0  0  0  0  0  0  0  0
  190.7070  177.8220  141.8200 O   0  0  0  0  0  0  0  0  0  0  0  0
  189.8550  177.5590  145.4880 C   0  0  2  0  0  3  0  0  0  0  0  0
  189.4720  177.5840  141.9090 C   0  0  0  0  0  0  0  0  0  0  0  0
  188.7140  178.2990  145.9030 O   0  0  0  0  0  0  0  0  0  0  0  0
  186.5230  177.9650  146.8300 C   0  0  0  0  0  0  0  0  0  0  0  0
  188.6060  177.5680  140.6770 C   0  0  2  0  0  3  0  0  0  0  0  0
  188.8730  177.2670  143.1790 N   0  0  0  0  0  0  0  0  0  0  0  0
  182.9890  178.9390  141.4840 C   0  0  0  0  0  2  0  0  0  0  0  0
  184.9370  178.9130  140.1210 O   0  0  0  0  0  0  0  0  0  0  0  0
  185.6010  178.0670  144.7980 C   0  0  0  0  0  0  0  0  0  0  0  0
  182.6220  179.2230  142.9160 C   0  0  0  0  0  3  0  0  0  0  0  0
  185.3330  178.3440  142.4100 C   0  0  0  0  0  0  0  0  0  0  0  0
  186.8830  177.6030  144.6100 C   0  0  0  0  0  0  0  0  0  0  0  0
  186.6650  178.0690  148.0750 O   0  0  0  0  0  0  0  0  0  0  0  0
  187.5880  177.4550  145.9110 C   0  0  1  0  0  3  0  0  0  0  0  0
  190.8800  175.8890  143.8310 C   0  0  0  0  0  1  0  0  0  0  0  0
  183.4380  178.9510  143.9370 C   0  0  0  0  0  3  0  0  0  0  0  0
  184.7930  178.4180  143.7160 C   0  0  0  0  0  0  0  0  0  0  0  0
  189.6160  176.6160  144.2800 C   0  0  1  0  0  3  0  0  0  0  0  0
  190.4590  176.8050  146.6710 C   0  0  0  0  0  2  0  0  0  0  0  0
  192.5120  175.6840  147.4730 C   0  0  0  0  0  1  0  0  0  0  0  0
  191.9680  176.7450  146.5410 C   0  0  0  0  0  2  0  0  0  0  0  0
  189.1860  178.3920  139.5320 C   0  0  0  0  0  2  0  0  0  0  0  0
  188.8600  176.7530  138.0900 C   0  0  0  0  0  1  0  0  0  0  0  0
  189.8570  177.5670  138.6270 O   0  0  0  0  0  0  0  0  0  0  0  0
  1 17  2  0  0  0  0
  1  4  1  0  0  0  0
  2 13  1  0  0  0  0
  2 17  1  0  0  0  0
  3 10  1  0  0  0  0
  4 18  2  0  0  0  0
  5  1  1  0  0  0  0
  6  8  2  0  0  0  0
  7  9  1  0  0  0  0
  7 25  1  1  0  0  0
  8 12  1  0  0  0  0
  9 20  1  0  0  0  0
 10 19  2  0  0  0  0
 11 28  1  6  0  0  0
 11  5  1  0  0  0  0
 11  8  1  0  0  0  0
 12  4  1  0  0  0  0
 12 24  1  0  0  0  0
 13 16  1  0  0  0  0
 14  2  2  0  0  0  0
 15  3  1  0  0  0  0
 16 22  2  0  0  0  0
 17 23  1  0  0  0  0
 18 15  1  0  0  0  0
 20 18  1  6  0  0  0
 20 10  1  0  0  0  0
 23 22  1  0  0  0  0
 23 15  2  0  0  0  0
 24 21  1  6  0  0  0
 24  7  1  0  0  0  0
 27 25  1  0  0  0  0
 27 26  1  0  0  0  0
 29 30  1  0  0  0  0
 30 28  1  0  0  0  0
M  END
>  <MODEL>
5

>  <REMARK>
 VINA RESULT:      -9.0      1.126      1.310
  Name = 
  4 active torsions:
  status: ('A' for Active; 'I' for Inactive)
    1  A    between atoms: C_7  and  C_15
    2  A    between atoms: C_11  and  C_28
    3  A    between atoms: C_15  and  C_23
    4  A    between atoms: C_28  and  O_30
                            x       y       z     vdW  Elec       q    Type
                         _______ _______ _______ _____ _____    ______ ____

>  <TORSDO>
F 4

$$$$
=
 OpenBabel11122410273D

 30 34  0  0  1  0  0  0  0  0999 V2000
  187.3110  178.0250  142.6750 C   0  0  0  0  0  0  0  0  0  0  0  0
  186.2090  178.0740  144.9720 C   0  0  0  0  0  0  0  0  0  0  0  0
  183.7200  179.0170  140.7600 N   0  0  0  0  0  2  0  0  0  0  0  0
  187.2360  178.2460  141.2800 C   0  0  0  0  0  0  0  0  0  0  0  0
  188.4850  177.4960  143.2290 O   0  0  0  0  0  0  0  0  0  0  0  0
  190.1260  176.3590  140.2990 O   0  0  0  0  0  0  0  0  0  0  0  0
  187.3060  177.6230  138.1310 C   0  0  2  0  0  3  0  0  0  0  0  0
  189.4040  177.1090  141.0100 C   0  0  0  0  0  0  0  0  0  0  0  0
  186.0080  177.5260  138.7020 O   0  0  0  0  0  0  0  0  0  0  0  0
  184.1860  178.9200  139.4150 C   0  0  0  0  0  0  0  0  0  0  0  0
  189.6820  177.2650  142.4820 C   0  0  2  0  0  3  0  0  0  0  0  0
  188.3370  177.8760  140.4230 N   0  0  0  0  0  0  0  0  0  0  0  0
  185.0790  178.5750  145.8250 C   0  0  0  0  0  2  0  0  0  0  0  0
  187.1920  177.5240  145.5340 O   0  0  0  0  0  0  0  0  0  0  0  0
  184.9030  178.8480  141.5290 C   0  0  0  0  0  0  0  0  0  0  0  0
  183.7910  178.7410  145.0650 C   0  0  0  0  0  3  0  0  0  0  0  0
  186.1820  178.2800  143.5020 C   0  0  0  0  0  0  0  0  0  0  0  0
  186.0200  178.6820  140.7440 C   0  0  0  0  0  0  0  0  0  0  0  0
  183.4130  178.9950  138.4250 O   0  0  0  0  0  0  0  0  0  0  0  0
  185.6690  178.7540  139.3010 C   0  0  1  0  0  3  0  0  0  0  0  0
  189.7480  178.3680  138.3930 C   0  0  0  0  0  1  0  0  0  0  0  0
  183.7450  178.8230  143.7340 C   0  0  0  0  0  3  0  0  0  0  0  0
  184.9590  178.6810  142.9130 C   0  0  0  0  0  0  0  0  0  0  0  0
  188.3570  178.3400  139.0190 C   0  0  1  0  0  3  0  0  0  0  0  0
  187.2300  178.2520  136.7420 C   0  0  0  0  0  2  0  0  0  0  0  0
  187.8890  175.9450  136.1430 C   0  0  0  0  0  1  0  0  0  0  0  0
  187.1360  177.1730  135.6800 C   0  0  0  0  0  2  0  0  0  0  0  0
  190.4370  176.0790  143.0740 C   0  0  0  0  0  2  0  0  0  0  0  0
  191.3850  176.7460  144.9520 C   0  0  0  0  0  1  0  0  0  0  0  0
  191.6580  176.4940  143.6080 O   0  0  0  0  0  0  0  0  0  0  0  0
  1  5  1  0  0  0  0
  1 17  1  0  0  0  0
  2 14  2  0  0  0  0
  2 13  1  0  0  0  0
  3 15  1  0  0  0  0
  4  1  2  0  0  0  0
  6  8  2  0  0  0  0
  7 25  1  6  0  0  0
  7  9  1  0  0  0  0
  7 24  1  0  0  0  0
  8 11  1  0  0  0  0
 10  3  1  0  0  0  0
 11 28  1  1  0  0  0
 11  5  1  0  0  0  0
 12  8  1  0  0  0  0
 12  4  1  0  0  0  0
 15 23  1  0  0  0  0
 16 13  1  0  0  0  0
 17  2  1  0  0  0  0
 18  4  1  0  0  0  0
 18 15  2  0  0  0  0
 19 10  2  0  0  0  0
 20  9  1  6  0  0  0
 20 10  1  0  0  0  0
 20 18  1  0  0  0  0
 22 16  2  0  0  0  0
 23 17  2  0  0  0  0
 23 22  1  0  0  0  0
 24 21  1  6  0  0  0
 24 12  1  0  0  0  0
 27 26  1  0  0  0  0
 27 25  1  0  0  0  0
 28 30  1  0  0  0  0
 30 29  1  0  0  0  0
M  END
>  <MODEL>
6

>  <REMARK>
 VINA RESULT:      -8.7      2.265      6.390
  Name = 
  4 active torsions:
  status: ('A' for Active; 'I' for Inactive)
    1  A    between atoms: C_7  and  C_15
    2  A    between atoms: C_11  and  C_28
    3  A    between atoms: C_15  and  C_23
    4  A    between atoms: C_28  and  O_30
                            x       y       z     vdW  Elec       q    Type
                         _______ _______ _______ _____ _____    ______ ____

>  <TORSDO>
F 4

$$$$
=
 OpenBabel11122410273D

 30 34  0  0  1  0  0  0  0  0999 V2000
  189.3340  177.3930  142.5420 C   0  0  0  0  0  0  0  0  0  0  0  0
  191.0250  177.2410  140.6420 C   0  0  0  0  0  0  0  0  0  0  0  0
  186.2950  178.6420  139.9450 N   0  0  0  0  0  2  0  0  0  0  0  0
  188.0060  177.6010  142.9810 C   0  0  0  0  0  0  0  0  0  0  0  0
  190.3480  177.1780  143.4860 O   0  0  0  0  0  0  0  0  0  0  0  0
  188.6910  178.1880  146.4540 O   0  0  0  0  0  0  0  0  0  0  0  0
  185.5260  178.9270  144.5320 C   0  0  2  0  0  3  0  0  0  0  0  0
  188.8140  177.6810  145.3060 C   0  0  0  0  0  0  0  0  0  0  0  0
  185.7160  179.4390  143.2190 O   0  0  0  0  0  0  0  0  0  0  0  0
  185.2840  178.8690  140.9260 C   0  0  0  0  0  0  0  0  0  0  0  0
  190.1110  177.0380  144.8890 C   0  0  2  0  0  3  0  0  0  0  0  0
  187.7030  177.6520  144.3910 N   0  0  0  0  0  0  0  0  0  0  0  0
  191.2640  177.0910  139.1660 C   0  0  0  0  0  2  0  0  0  0  0  0
  192.0030  177.1270  141.4260 O   0  0  0  0  0  0  0  0  0  0  0  0
  187.3530  178.0590  140.6930 C   0  0  0  0  0  0  0  0  0  0  0  0
  190.1860  177.7210  138.3250 C   0  0  0  0  0  3  0  0  0  0  0  0
  189.6500  177.4610  141.1570 C   0  0  0  0  0  0  0  0  0  0  0  0
  187.0340  177.9090  142.0230 C   0  0  0  0  0  0  0  0  0  0  0  0
  184.1820  179.4080  140.6480 O   0  0  0  0  0  0  0  0  0  0  0  0
  185.6500  178.3820  142.2920 C   0  0  1  0  0  3  0  0  0  0  0  0
  186.1090  177.1340  146.2730 C   0  0  0  0  0  1  0  0  0  0  0  0
  188.9780  178.0200  138.8070 C   0  0  0  0  0  3  0  0  0  0  0  0
  188.6440  177.8150  140.2260 C   0  0  0  0  0  0  0  0  0  0  0  0
  186.2930  177.6130  144.8360 C   0  0  1  0  0  3  0  0  0  0  0  0
  184.0370  178.7850  144.8370 C   0  0  0  0  0  2  0  0  0  0  0  0
  182.0180  179.0030  143.4250 C   0  0  0  0  0  1  0  0  0  0  0  0
  183.2300  179.7300  143.9670 C   0  0  0  0  0  2  0  0  0  0  0  0
  191.3120  177.5630  145.6690 C   0  0  0  0  0  2  0  0  0  0  0  0
  191.6630  176.4270  147.5280 C   0  0  0  0  0  1  0  0  0  0  0  0
  192.0560  176.5040  146.1930 O   0  0  0  0  0  0  0  0  0  0  0  0
  1  4  1  0  0  0  0
  1  5  1  0  0  0  0
  2 17  1  0  0  0  0
  2 14  2  0  0  0  0
  3 15  1  0  0  0  0
  3 10  1  0  0  0  0
  4 12  1  0  0  0  0
  5 11  1  0  0  0  0
  7 24  1  0  0  0  0
  7 25  1  6  0  0  0
  8  6  2  0  0  0  0
  9  7  1  0  0  0  0
 11  8  1  0  0  0  0
 11 28  1  1  0  0  0
 12 24  1  0  0  0  0
 12  8  1  0  0  0  0
 13  2  1  0  0  0  0
 15 18  1  0  0  0  0
 16 22  2  0  0  0  0
 16 13  1  0  0  0  0
 17  1  2  0  0  0  0
 18 20  1  0  0  0  0
 18  4  2  0  0  0  0
 19 10  2  0  0  0  0
 20 10  1  6  0  0  0
 20  9  1  0  0  0  0
 22 23  1  0  0  0  0
 23 15  2  0  0  0  0
 23 17  1  0  0  0  0
 24 21  1  1  0  0  0
 26 27  1  0  0  0  0
 27 25  1  0  0  0  0
 28 30  1  0  0  0  0
 30 29  1  0  0  0  0
M  END
>  <MODEL>
7

>  <REMARK>
 VINA RESULT:      -8.7      1.652      6.793
  Name = 
  4 active torsions:
  status: ('A' for Active; 'I' for Inactive)
    1  A    between atoms: C_7  and  C_15
    2  A    between atoms: C_11  and  C_28
    3  A    between atoms: C_15  and  C_23
    4  A    between atoms: C_28  and  O_30
                            x       y       z     vdW  Elec       q    Type
                         _______ _______ _______ _____ _____    ______ ____

>  <TORSDO>
F 4

$$$$
=
 OpenBabel11122410273D

 30 34  0  0  1  0  0  0  0  0999 V2000
  187.4130  177.8090  144.1420 C   0  0  0  0  0  0  0  0  0  0  0  0
  187.8310  177.5410  146.6410 C   0  0  0  0  0  0  0  0  0  0  0  0
  191.4070  176.9450  143.2250 N   0  0  0  0  0  2  0  0  0  0  0  0
  187.8760  177.7120  142.8100 C   0  0  0  0  0  0  0  0  0  0  0  0
  186.1240  178.3020  144.3910 O   0  0  0  0  0  0  0  0  0  0  0  0
  185.3520  179.7180  141.2330 O   0  0  0  0  0  0  0  0  0  0  0  0
  188.6810  178.6140  139.8340 C   0  0  2  0  0  3  0  0  0  0  0  0
  185.8570  178.8980  142.0480 C   0  0  0  0  0  0  0  0  0  0  0  0
  189.7670  178.6440  140.7510 O   0  0  0  0  0  0  0  0  0  0  0  0
  191.3350  177.1670  141.8170 C   0  0  0  0  0  0  0  0  0  0  0  0
  185.1800  178.6150  143.3640 C   0  0  2  0  0  3  0  0  0  0  0  0
  187.0550  178.1720  141.7160 N   0  0  0  0  0  0  0  0  0  0  0  0
  188.6830  176.9510  147.7280 C   0  0  0  0  0  2  0  0  0  0  0  0
  186.7230  178.0510  146.9540 O   0  0  0  0  0  0  0  0  0  0  0  0
  190.0550  177.0600  143.6450 C   0  0  0  0  0  0  0  0  0  0  0  0
  190.1340  176.8360  147.3460 C   0  0  0  0  0  3  0  0  0  0  0  0
  188.2690  177.4670  145.2250 C   0  0  0  0  0  0  0  0  0  0  0  0
  189.1990  177.3100  142.5980 C   0  0  0  0  0  0  0  0  0  0  0  0
  192.3540  177.1710  141.0800 O   0  0  0  0  0  0  0  0  0  0  0  0
  189.9410  177.3630  141.3090 C   0  0  1  0  0  3  0  0  0  0  0  0
  186.2720  177.8820  139.3370 C   0  0  0  0  0  1  0  0  0  0  0  0
  190.5510  176.8740  146.0790 C   0  0  0  0  0  3  0  0  0  0  0  0
  189.6120  177.1040  144.9670 C   0  0  0  0  0  0  0  0  0  0  0  0
  187.4330  177.8360  140.3270 C   0  0  1  0  0  3  0  0  0  0  0  0
  189.1490  178.1110  138.4710 C   0  0  0  0  0  2  0  0  0  0  0  0
  187.9840  178.8750  136.4280 C   0  0  0  0  0  1  0  0  0  0  0  0
  189.0550  179.2190  137.4400 C   0  0  0  0  0  2  0  0  0  0  0  0
  184.2760  179.7530  143.8250 C   0  0  0  0  0  2  0  0  0  0  0  0
  182.2140  179.0020  143.5870 C   0  0  0  0  0  1  0  0  0  0  0  0
  183.1920  179.2530  144.5490 O   0  0  0  0  0  0  0  0  0  0  0  0
  1  5  1  0  0  0  0
  1 17  1  0  0  0  0
  2 14  2  0  0  0  0
  2 13  1  0  0  0  0
  3 15  1  0  0  0  0
  4  1  2  0  0  0  0
  6  8  2  0  0  0  0
  7 25  1  6  0  0  0
  7 24  1  0  0  0  0
  7  9  1  0  0  0  0
  8 11  1  0  0  0  0
 10  3  1  0  0  0  0
 11 28  1  1  0  0  0
 11  5  1  0  0  0  0
 12  8  1  0  0  0  0
 12  4  1  0  0  0  0
 15 23  1  0  0  0  0
 16 13  1  0  0  0  0
 17  2  1  0  0  0  0
 18  4  1  0  0  0  0
 18 15  2  0  0  0  0
 19 10  2  0  0  0  0
 20  9  1  1  0  0  0
 20 10  1  0  0  0  0
 20 18  1  0  0  0  0
 22 16  2  0  0  0  0
 23 17  2  0  0  0  0
 23 22  1  0  0  0  0
 24 21  1  6  0  0  0
 24 12  1  0  0  0  0
 26 27  1  0  0  0  0
 27 25  1  0  0  0  0
 28 30  1  0  0  0  0
 29 30  1  0  0  0  0
M  END
>  <MODEL>
8

>  <REMARK>
 VINA RESULT:      -8.6      1.905      6.286
  Name = 
  4 active torsions:
  status: ('A' for Active; 'I' for Inactive)
    1  A    between atoms: C_7  and  C_15
    2  A    between atoms: C_11  and  C_28
    3  A    between atoms: C_15  and  C_23
    4  A    between atoms: C_28  and  O_30
                            x       y       z     vdW  Elec       q    Type
                         _______ _______ _______ _____ _____    ______ ____

>  <TORSDO>
F 4

$$$$
=
 OpenBabel11122410273D

 30 34  0  0  1  0  0  0  0  0999 V2000
  187.0990  178.3500  140.6860 C   0  0  0  0  0  0  0  0  0  0  0  0
  188.1660  178.0440  138.3920 C   0  0  0  0  0  0  0  0  0  0  0  0
  190.5420  176.9810  142.6400 N   0  0  0  0  0  2  0  0  0  0  0  0
  187.2100  178.3350  142.0950 C   0  0  0  0  0  0  0  0  0  0  0  0
  185.8580  178.6210  140.0930 O   0  0  0  0  0  0  0  0  0  0  0  0
  183.7120  178.2500  142.8910 O   0  0  0  0  0  0  0  0  0  0  0  0
  186.6470  177.5020  145.1450 C   0  0  2  0  0  3  0  0  0  0  0  0
  184.7630  178.5540  142.2640 C   0  0  0  0  0  0  0  0  0  0  0  0
  187.7080  176.7720  144.5420 O   0  0  0  0  0  0  0  0  0  0  0  0
  190.0300  177.0050  143.9720 C   0  0  0  0  0  0  0  0  0  0  0  0
  184.6930  179.0030  140.8280 C   0  0  2  0  0  3  0  0  0  0  0  0
  186.0440  178.5360  142.9210 N   0  0  0  0  0  0  0  0  0  0  0  0
  189.4290  177.9350  137.5850 C   0  0  0  0  0  2  0  0  0  0  0  0
  187.0740  178.1930  137.7850 O   0  0  0  0  0  0  0  0  0  0  0  0
  189.5020  177.5790  141.8790 C   0  0  0  0  0  0  0  0  0  0  0  0
  190.5560  177.2780  138.3360 C   0  0  0  0  0  3  0  0  0  0  0  0
  188.2250  178.0340  139.8750 C   0  0  0  0  0  0  0  0  0  0  0  0
  188.4370  177.9670  142.6580 C   0  0  0  0  0  0  0  0  0  0  0  0
  190.6650  176.5310  144.9490 O   0  0  0  0  0  0  0  0  0  0  0  0
  188.6940  177.6690  144.0920 C   0  0  1  0  0  3  0  0  0  0  0  0
  185.0290  179.4900  145.0220 C   0  0  0  0  0  1  0  0  0  0  0  0
  190.5700  177.1700  139.6660 C   0  0  0  0  0  3  0  0  0  0  0  0
  189.4350  177.6280  140.4860 C   0  0  0  0  0  0  0  0  0  0  0  0
  186.2080  178.7730  144.3720 C   0  0  1  0  0  3  0  0  0  0  0  0
  186.9830  177.8240  146.5990 C   0  0  0  0  0  2  0  0  0  0  0  0
  189.0440  177.6580  147.9560 C   0  0  0  0  0  1  0  0  0  0  0  0
  188.0550  176.8830  147.1120 C   0  0  0  0  0  2  0  0  0  0  0  0
  183.4440  178.5030  140.1090 C   0  0  0  0  0  2  0  0  0  0  0  0
  182.6800  176.4680  139.7250 C   0  0  0  0  0  1  0  0  0  0  0  0
  183.7240  177.3330  139.3990 O   0  0  0  0  0  0  0  0  0  0  0  0
  1  4  1  0  0  0  0
  2 17  1  0  0  0  0
  3 10  1  0  0  0  0
  4 18  2  0  0  0  0
  4 12  1  0  0  0  0
  5  1  1  0  0  0  0
  5 11  1  0  0  0  0
  7 25  1  1  0  0  0
  8  6  2  0  0  0  0
  8 12  1  0  0  0  0
  9  7  1  0  0  0  0
 10 20  1  0  0  0  0
 10 19  2  0  0  0  0
 11 28  1  6  0  0  0
 11  8  1  0  0  0  0
 12 24  1  0  0  0  0
 13 16  1  0  0  0  0
 13  2  1  0  0  0  0
 14  2  2  0  0  0  0
 15  3  1  0  0  0  0
 15 18  1  0  0  0  0
 16 22  2  0  0  0  0
 17 23  1  0  0  0  0
 17  1  2  0  0  0  0
 20 18  1  6  0  0  0
 20  9  1  0  0  0  0
 22 23  1  0  0  0  0
 23 15  2  0  0  0  0
 24 21  1  1  0  0  0
 24  7  1  0  0  0  0
 25 27  1  0  0  0  0
 27 26  1  0  0  0  0
 30 29  1  0  0  0  0
 30 28  1  0  0  0  0
M  END
>  <MODEL>
9

>  <REMARK>
 VINA RESULT:      -8.6      2.003      5.205
  Name = 
  4 active torsions:
  status: ('A' for Active; 'I' for Inactive)
    1  A    between atoms: C_7  and  C_15
    2  A    between atoms: C_11  and  C_28
    3  A    between atoms: C_15  and  C_23
    4  A    between atoms: C_28  and  O_30
                            x       y       z     vdW  Elec       q    Type
                         _______ _______ _______ _____ _____    ______ ____

>  <TORSDO>
F 4

$$$$
