=
 OpenBabel11122411063D

 31 35  0  0  1  0  0  0  0  0999 V2000
  185.3090  178.7300  143.7310 C   0  0  0  0  0  0  0  0  0  0  0  0
  188.7880  177.0980  143.6710 C   0  0  1  0  0  3  0  0  0  0  0  0
  189.2940  177.1970  145.0990 C   0  0  0  0  0  0  0  0  0  0  0  0
  189.1020  177.0370  138.4110 O   0  0  0  0  0  0  0  0  0  0  0  0
  190.2630  176.8790  138.8760 C   0  0  0  0  0  0  0  0  0  0  0  0
  188.9770  177.4720  147.4930 C   0  0  0  0  0  0  0  0  0  0  0  0
  187.5240  177.8390  143.2690 C   0  0  0  0  0  0  0  0  0  0  0  0
  185.1130  178.9670  142.3680 C   0  0  0  0  0  3  0  0  0  0  0  0
  188.4700  177.5030  146.1920 C   0  0  0  0  0  3  0  0  0  0  0  0
  189.5190  177.3480  141.2770 C   0  0  0  0  0  0  0  0  0  0  0  0
  184.3370  179.0440  144.6200 F   0  0  0  0  0  0  0  0  0  0  0  0
  191.4670  176.4360  144.2340 N   0  0  0  0  0  0  0  0  0  0  0  0
  187.9410  177.8780  148.8440 Cl  0  0  0  0  0  0  0  0  0  0  0  0
  188.3110  177.6920  140.9310 N   0  0  0  0  0  0  0  0  0  0  0  0
  189.9350  177.4690  142.7190 C   0  0  2  0  0  3  0  0  0  0  0  0
  190.4980  177.0110  140.2850 N   0  0  0  0  0  2  0  0  0  0  0  0
  186.5000  178.1520  144.1760 C   0  0  0  0  0  3  0  0  0  0  0  0
  190.3060  177.1020  147.7190 C   0  0  0  0  0  3  0  0  0  0  0  0
  187.3080  178.0630  141.8910 C   0  0  0  0  0  0  0  0  0  0  0  0
  186.1090  178.6280  141.4500 C   0  0  0  0  0  3  0  0  0  0  0  0
  191.1340  176.6880  143.0260 N   0  0  0  0  0  0  0  0  0  0  0  0
  190.6300  176.8110  145.3380 C   0  0  0  0  0  0  0  0  0  0  0  0
  191.1290  176.7650  146.6420 C   0  0  0  0  0  3  0  0  0  0  0  0
  193.5500  175.9650  136.3120 C   0  0  0  0  0  0  0  0  0  0  0  0
  192.6990  176.7530  138.3810 C   0  0  0  0  0  3  0  0  0  0  0  0
  189.9170  175.8110  136.1810 F   0  0  0  0  0  0  0  0  0  0  0  0
  194.7180  175.6590  135.4470 C   0  0  0  0  0  1  0  0  0  0  0  0
  193.7430  176.4610  137.5620 N   0  0  0  0  0  0  0  0  0  0  0  0
  191.1650  176.0350  136.6620 C   0  0  0  0  0  0  0  0  0  0  0  0
  191.3770  176.5490  137.9570 C   0  0  0  0  0  0  0  0  0  0  0  0
  192.2570  175.7440  135.8410 C   0  0  0  0  0  3  0  0  0  0  0  0
  1 17  1  0  0  0  0
  1 11  1  0  0  0  0
  2  7  1  1  0  0  0
  2  3  1  0  0  0  0
  3 22  2  0  0  0  0
  3  9  1  0  0  0  0
  4  5  2  0  0  0  0
  5 16  1  0  0  0  0
  6 18  1  0  0  0  0
  6 13  1  0  0  0  0
  7 17  2  0  0  0  0
  8  1  2  0  0  0  0
  9  6  2  0  0  0  0
 12 22  1  0  0  0  0
 14 10  2  0  0  0  0
 14 19  1  0  0  0  0
 15 10  1  6  0  0  0
 15 21  1  0  0  0  0
 15  2  1  0  0  0  0
 16 10  1  0  0  0  0
 19  7  1  0  0  0  0
 20 19  2  0  0  0  0
 20  8  1  0  0  0  0
 21 12  2  0  0  0  0
 22 23  1  0  0  0  0
 23 18  2  0  0  0  0
 24 28  1  0  0  0  0
 26 29  1  0  0  0  0
 27 24  1  0  0  0  0
 28 25  2  0  0  0  0
 29 30  2  0  0  0  0
 30 25  1  0  0  0  0
 30  5  1  0  0  0  0
 31 24  2  0  0  0  0
 31 29  1  0  0  0  0
M  END
>  <MODEL>
1

>  <REMARK>
 VINA RESULT:     -11.5      0.000      0.000
  Name = 
  1 active torsions:
  status: ('A' for Active; 'I' for Inactive)
    1  A    between atoms: C_5  and  C_30
                            x       y       z     vdW  Elec       q    Type
                         _______ _______ _______ _____ _____    ______ ____

>  <TORSDO>
F 1

$$$$
=
 OpenBabel11122411063D

 31 35  0  0  1  0  0  0  0  0999 V2000
  186.1810  178.1300  146.5910 C   0  0  0  0  0  0  0  0  0  0  0  0
  186.9750  177.7640  142.8490 C   0  0  1  0  0  3  0  0  0  0  0  0
  188.4910  177.7130  142.7720 C   0  0  0  0  0  0  0  0  0  0  0  0
  182.0790  178.9360  141.2920 O   0  0  0  0  0  0  0  0  0  0  0  0
  182.8480  179.0660  140.3020 C   0  0  0  0  0  0  0  0  0  0  0  0
  190.6960  177.3520  143.7280 C   0  0  0  0  0  0  0  0  0  0  0  0
  186.3020  178.1250  144.1630 C   0  0  0  0  0  0  0  0  0  0  0  0
  184.8590  178.5780  146.5310 C   0  0  0  0  0  3  0  0  0  0  0  0
  189.3150  177.4940  143.8850 C   0  0  0  0  0  3  0  0  0  0  0  0
  184.9550  178.7440  141.7150 C   0  0  0  0  0  0  0  0  0  0  0  0
  186.7680  177.9150  147.7920 F   0  0  0  0  0  0  0  0  0  0  0  0
  188.2320  177.9000  140.3320 N   0  0  0  0  0  0  0  0  0  0  0  0
  191.7120  177.1010  145.1300 Cl  0  0  0  0  0  0  0  0  0  0  0  0
  184.3050  178.7440  142.8450 N   0  0  0  0  0  0  0  0  0  0  0  0
  186.4590  178.6820  141.7300 C   0  0  2  0  0  3  0  0  0  0  0  0
  184.2680  178.9620  140.4750 N   0  0  0  0  0  2  0  0  0  0  0  0
  186.8910  177.8870  145.4130 C   0  0  0  0  0  3  0  0  0  0  0  0
  191.2640  177.3920  142.4520 C   0  0  0  0  0  3  0  0  0  0  0  0
  184.9580  178.5570  144.1110 C   0  0  0  0  0  0  0  0  0  0  0  0
  184.2470  178.7840  145.2920 C   0  0  0  0  0  3  0  0  0  0  0  0
  187.0180  178.2830  140.4380 N   0  0  0  0  0  0  0  0  0  0  0  0
  189.0720  177.7390  141.4860 C   0  0  0  0  0  0  0  0  0  0  0  0
  190.4510  177.5790  141.3310 C   0  0  0  0  0  3  0  0  0  0  0  0
  181.1660  179.9090  136.4710 C   0  0  0  0  0  0  0  0  0  0  0  0
  181.7620  180.5920  138.6630 C   0  0  0  0  0  3  0  0  0  0  0  0
  182.6860  177.0750  138.1730 F   0  0  0  0  0  0  0  0  0  0  0  0
  180.5730  180.2380  135.1500 C   0  0  0  0  0  1  0  0  0  0  0  0
  181.2270  180.8570  137.4430 N   0  0  0  0  0  0  0  0  0  0  0  0
  182.2140  178.3280  137.9600 C   0  0  0  0  0  0  0  0  0  0  0  0
  182.2720  179.3200  138.9610 C   0  0  0  0  0  0  0  0  0  0  0  0
  181.6580  178.6280  136.7140 C   0  0  0  0  0  3  0  0  0  0  0  0
  1 11  1  0  0  0  0
  2  3  1  1  0  0  0
  2  7  1  0  0  0  0
  3  9  1  0  0  0  0
  5 16  1  0  0  0  0
  5  4  2  0  0  0  0
  6  9  2  0  0  0  0
  6 13  1  0  0  0  0
  7 17  1  0  0  0  0
  8  1  1  0  0  0  0
 10 15  1  0  0  0  0
 10 14  2  0  0  0  0
 12 21  2  0  0  0  0
 12 22  1  0  0  0  0
 14 19  1  0  0  0  0
 15 21  1  6  0  0  0
 15  2  1  0  0  0  0
 16 10  1  0  0  0  0
 17  1  2  0  0  0  0
 18  6  1  0  0  0  0
 19  7  2  0  0  0  0
 19 20  1  0  0  0  0
 20  8  2  0  0  0  0
 22  3  2  0  0  0  0
 23 22  1  0  0  0  0
 23 18  2  0  0  0  0
 24 31  2  0  0  0  0
 24 28  1  0  0  0  0
 25 30  1  0  0  0  0
 27 24  1  0  0  0  0
 28 25  2  0  0  0  0
 29 26  1  0  0  0  0
 29 30  2  0  0  0  0
 30  5  1  0  0  0  0
 31 29  1  0  0  0  0
M  END
>  <MODEL>
2

>  <REMARK>
 VINA RESULT:     -10.9      4.199      7.076
  Name = 
  1 active torsions:
  status: ('A' for Active; 'I' for Inactive)
    1  A    between atoms: C_5  and  C_30
                            x       y       z     vdW  Elec       q    Type
                         _______ _______ _______ _____ _____    ______ ____

>  <TORSDO>
F 1

$$$$
=
 OpenBabel11122411063D

 31 35  0  0  1  0  0  0  0  0999 V2000
  191.3070  177.4040  141.5670 C   0  0  0  0  0  0  0  0  0  0  0  0
  188.0870  178.2690  143.4780 C   0  0  1  0  0  3  0  0  0  0  0  0
  188.3320  177.7930  144.8990 C   0  0  0  0  0  0  0  0  0  0  0  0
  185.3060  179.2870  139.1190 O   0  0  0  0  0  0  0  0  0  0  0  0
  184.4960  179.1110  140.0700 C   0  0  0  0  0  0  0  0  0  0  0  0
  189.7720  177.1280  146.7400 C   0  0  0  0  0  0  0  0  0  0  0  0
  189.0680  177.8950  142.3810 C   0  0  0  0  0  0  0  0  0  0  0  0
  190.8510  177.4810  140.2490 C   0  0  0  0  0  3  0  0  0  0  0  0
  189.6000  177.4550  145.3930 C   0  0  0  0  0  3  0  0  0  0  0  0
  186.3310  178.3460  141.6780 C   0  0  0  0  0  0  0  0  0  0  0  0
  192.6080  177.1280  141.8190 F   0  0  0  0  0  0  0  0  0  0  0  0
  185.9500  178.2470  145.3130 N   0  0  0  0  0  0  0  0  0  0  0  0
  191.3570  176.6880  147.3360 Cl  0  0  0  0  0  0  0  0  0  0  0  0
  187.2550  178.3300  140.7590 N   0  0  0  0  0  0  0  0  0  0  0  0
  186.6640  177.8630  143.0650 C   0  0  2  0  0  3  0  0  0  0  0  0
  184.9720  178.6620  141.3460 N   0  0  0  0  0  2  0  0  0  0  0  0
  190.4230  177.6280  142.6260 C   0  0  0  0  0  3  0  0  0  0  0  0
  188.6830  177.1670  147.6150 C   0  0  0  0  0  3  0  0  0  0  0  0
  188.6220  177.9920  141.0440 C   0  0  0  0  0  0  0  0  0  0  0  0
  189.5130  177.7820  139.9880 C   0  0  0  0  0  3  0  0  0  0  0  0
  185.6900  178.3080  144.0630 N   0  0  0  0  0  0  0  0  0  0  0  0
  187.2420  177.8430  145.7930 C   0  0  0  0  0  0  0  0  0  0  0  0
  187.4200  177.5310  147.1430 C   0  0  0  0  0  3  0  0  0  0  0  0
  180.3700  179.9370  139.3580 C   0  0  0  0  0  0  0  0  0  0  0  0
  182.6490  180.0890  138.7190 C   0  0  0  0  0  3  0  0  0  0  0  0
  182.3750  178.2530  141.8840 F   0  0  0  0  0  0  0  0  0  0  0  0
  178.9440  180.2430  139.0780 C   0  0  0  0  0  1  0  0  0  0  0  0
  181.3350  180.3500  138.4950 N   0  0  0  0  0  0  0  0  0  0  0  0
  182.0620  178.9450  140.7610 C   0  0  0  0  0  0  0  0  0  0  0  0
  183.0550  179.3780  139.8580 C   0  0  0  0  0  0  0  0  0  0  0  0
  180.7180  179.2270  140.5060 C   0  0  0  0  0  3  0  0  0  0  0  0
  1 11  1  0  0  0  0
  1 17  1  0  0  0  0
  2  7  1  6  0  0  0
  2  3  1  0  0  0  0
  3  9  2  0  0  0  0
  3 22  1  0  0  0  0
  4  5  2  0  0  0  0
  5 16  1  0  0  0  0
  6 13  1  0  0  0  0
  6 18  2  0  0  0  0
  7 17  2  0  0  0  0
  8  1  2  0  0  0  0
  9  6  1  0  0  0  0
 12 22  1  0  0  0  0
 14 19  1  0  0  0  0
 14 10  2  0  0  0  0
 15 10  1  6  0  0  0
 15  2  1  0  0  0  0
 15 21  1  0  0  0  0
 16 10  1  0  0  0  0
 19  7  1  0  0  0  0
 20  8  1  0  0  0  0
 20 19  2  0  0  0  0
 21 12  2  0  0  0  0
 22 23  2  0  0  0  0
 23 18  1  0  0  0  0
 24 31  1  0  0  0  0
 25 30  2  0  0  0  0
 27 24  1  0  0  0  0
 28 25  1  0  0  0  0
 28 24  2  0  0  0  0
 29 26  1  0  0  0  0
 30  5  1  0  0  0  0
 30 29  1  0  0  0  0
 31 29  2  0  0  0  0
M  END
>  <MODEL>
3

>  <REMARK>
 VINA RESULT:     -10.7      3.492      7.303
  Name = 
  1 active torsions:
  status: ('A' for Active; 'I' for Inactive)
    1  A    between atoms: C_5  and  C_30
                            x       y       z     vdW  Elec       q    Type
                         _______ _______ _______ _____ _____    ______ ____

>  <TORSDO>
F 1

$$$$
=
 OpenBabel11122411063D

 31 35  0  0  1  0  0  0  0  0999 V2000
  184.1250  179.0250  144.7880 C   0  0  0  0  0  0  0  0  0  0  0  0
  187.5160  177.4330  143.9300 C   0  0  1  0  0  3  0  0  0  0  0  0
  188.3030  177.4590  145.2290 C   0  0  0  0  0  0  0  0  0  0  0  0
  186.7510  177.6650  138.7210 O   0  0  0  0  0  0  0  0  0  0  0  0
  187.9830  177.4920  138.9310 C   0  0  0  0  0  0  0  0  0  0  0  0
  188.4810  177.5990  147.6480 C   0  0  0  0  0  0  0  0  0  0  0  0
  186.1980  178.1830  143.8360 C   0  0  0  0  0  0  0  0  0  0  0  0
  183.6560  179.3350  143.5090 C   0  0  0  0  0  3  0  0  0  0  0  0
  187.7200  177.6960  146.4810 C   0  0  0  0  0  3  0  0  0  0  0  0
  187.7440  177.8220  141.4550 C   0  0  0  0  0  0  0  0  0  0  0  0
  183.3550  179.2800  145.8720 F   0  0  0  0  0  0  0  0  0  0  0  0
  190.2530  176.7680  143.8970 N   0  0  0  0  0  0  0  0  0  0  0  0
  187.7430  177.9190  149.2020 Cl  0  0  0  0  0  0  0  0  0  0  0  0
  186.4920  178.1720  141.3820 N   0  0  0  0  0  0  0  0  0  0  0  0
  188.4460  177.8680  142.7870 C   0  0  2  0  0  3  0  0  0  0  0  0
  188.5000  177.5490  140.2670 N   0  0  0  0  0  2  0  0  0  0  0  0
  185.3810  178.4350  144.9480 C   0  0  0  0  0  3  0  0  0  0  0  0
  189.8280  177.2310  147.5770 C   0  0  0  0  0  3  0  0  0  0  0  0
  185.7070  178.4800  142.5450 C   0  0  0  0  0  0  0  0  0  0  0  0
  184.4430  179.0560  142.3900 C   0  0  0  0  0  3  0  0  0  0  0  0
  189.6810  177.0830  142.7990 N   0  0  0  0  0  0  0  0  0  0  0  0
  189.6590  177.0740  145.1680 C   0  0  0  0  0  0  0  0  0  0  0  0
  190.4140  176.9610  146.3380 C   0  0  0  0  0  3  0  0  0  0  0  0
  190.6360  176.6360  135.6990 C   0  0  0  0  0  0  0  0  0  0  0  0
  189.8500  176.2120  137.8970 C   0  0  0  0  0  3  0  0  0  0  0  0
  187.9120  178.9440  136.3980 F   0  0  0  0  0  0  0  0  0  0  0  0
  191.5750  176.3100  134.5960 C   0  0  0  0  0  1  0  0  0  0  0  0
  190.6930  175.9430  136.8670 N   0  0  0  0  0  0  0  0  0  0  0  0
  188.8170  177.9510  136.5800 C   0  0  0  0  0  0  0  0  0  0  0  0
  188.8850  177.2250  137.7870 C   0  0  0  0  0  0  0  0  0  0  0  0
  189.6960  177.6520  135.5370 C   0  0  0  0  0  3  0  0  0  0  0  0
  1 17  1  0  0  0  0
  1 11  1  0  0  0  0
  2  7  1  1  0  0  0
  2  3  1  0  0  0  0
  3  9  1  0  0  0  0
  4  5  2  0  0  0  0
  5 16  1  0  0  0  0
  6 13  1  0  0  0  0
  7 17  2  0  0  0  0
  8  1  2  0  0  0  0
  9  6  2  0  0  0  0
 12 22  1  0  0  0  0
 14 10  2  0  0  0  0
 14 19  1  0  0  0  0
 15 10  1  6  0  0  0
 15 21  1  0  0  0  0
 15  2  1  0  0  0  0
 16 10  1  0  0  0  0
 18  6  1  0  0  0  0
 19  7  1  0  0  0  0
 20 19  2  0  0  0  0
 20  8  1  0  0  0  0
 21 12  2  0  0  0  0
 22  3  2  0  0  0  0
 22 23  1  0  0  0  0
 23 18  2  0  0  0  0
 24 28  1  0  0  0  0
 26 29  1  0  0  0  0
 27 24  1  0  0  0  0
 28 25  2  0  0  0  0
 29 30  2  0  0  0  0
 30 25  1  0  0  0  0
 30  5  1  0  0  0  0
 31 24  2  0  0  0  0
 31 29  1  0  0  0  0
M  END
>  <MODEL>
4

>  <REMARK>
 VINA RESULT:     -10.7      1.702      2.082
  Name = 
  1 active torsions:
  status: ('A' for Active; 'I' for Inactive)
    1  A    between atoms: C_5  and  C_30
                            x       y       z     vdW  Elec       q    Type
                         _______ _______ _______ _____ _____    ______ ____

>  <TORSDO>
F 1

$$$$
=
 OpenBabel11122411063D

 31 35  0  0  1  0  0  0  0  0999 V2000
  185.7740  178.2530  146.6800 C   0  0  0  0  0  0  0  0  0  0  0  0
  185.8360  178.6270  142.8550 C   0  0  1  0  0  3  0  0  0  0  0  0
  184.3760  178.6650  142.4400 C   0  0  0  0  0  0  0  0  0  0  0  0
  190.9670  177.5030  142.4350 O   0  0  0  0  0  0  0  0  0  0  0  0
  190.4410  177.3710  141.2970 C   0  0  0  0  0  0  0  0  0  0  0  0
  182.0090  179.0040  142.8780 C   0  0  0  0  0  0  0  0  0  0  0  0
  186.2000  178.2670  144.2860 C   0  0  0  0  0  0  0  0  0  0  0  0
  187.0800  177.8170  146.9160 C   0  0  0  0  0  3  0  0  0  0  0  0
  183.3210  178.8720  143.3400 C   0  0  0  0  0  3  0  0  0  0  0  0
  188.0680  177.6700  142.2020 C   0  0  0  0  0  0  0  0  0  0  0  0
  184.9300  178.4580  147.7180 F   0  0  0  0  0  0  0  0  0  0  0  0
  185.1770  178.4910  140.1200 N   0  0  0  0  0  0  0  0  0  0  0  0
  180.7020  179.2400  144.0160 Cl  0  0  0  0  0  0  0  0  0  0  0  0
  188.4470  177.6700  143.4490 N   0  0  0  0  0  0  0  0  0  0  0  0
  186.5980  177.7190  141.8790 C   0  0  2  0  0  3  0  0  0  0  0  0
  189.0180  177.4620  141.1480 N   0  0  0  0  0  2  0  0  0  0  0  0
  185.3430  178.4940  145.3730 C   0  0  0  0  0  3  0  0  0  0  0  0
  181.7430  178.9630  141.5060 C   0  0  0  0  0  3  0  0  0  0  0  0
  187.5260  177.8470  144.5360 C   0  0  0  0  0  0  0  0  0  0  0  0
  187.9560  177.6210  145.8470 C   0  0  0  0  0  3  0  0  0  0  0  0
  186.3400  178.1170  140.4950 N   0  0  0  0  0  0  0  0  0  0  0  0
  184.0990  178.6400  141.0570 C   0  0  0  0  0  0  0  0  0  0  0  0
  182.7880  178.7890  140.5960 C   0  0  0  0  0  3  0  0  0  0  0  0
  193.0260  176.7060  137.9670 C   0  0  0  0  0  0  0  0  0  0  0  0
  192.6820  177.3820  140.2140 C   0  0  0  0  0  3  0  0  0  0  0  0
  189.4830  176.3780  138.7240 F   0  0  0  0  0  0  0  0  0  0  0  0
  193.9550  176.4870  136.8290 C   0  0  0  0  0  1  0  0  0  0  0  0
  193.5020  177.1700  139.1520 N   0  0  0  0  0  0  0  0  0  0  0  0
  190.8010  176.6470  138.8930 C   0  0  0  0  0  0  0  0  0  0  0  0
  191.3060  177.1280  140.1190 C   0  0  0  0  0  0  0  0  0  0  0  0
  191.6670  176.4380  137.8180 C   0  0  0  0  0  3  0  0  0  0  0  0
  1  8  1  0  0  0  0
  1 11  1  0  0  0  0
  2  3  1  1  0  0  0
  2  7  1  0  0  0  0
  3  9  1  0  0  0  0
  5  4  2  0  0  0  0
  6  9  2  0  0  0  0
  6 13  1  0  0  0  0
  7 19  2  0  0  0  0
  7 17  1  0  0  0  0
 10 14  2  0  0  0  0
 12 21  2  0  0  0  0
 12 22  1  0  0  0  0
 14 19  1  0  0  0  0
 15 21  1  6  0  0  0
 15 10  1  0  0  0  0
 15  2  1  0  0  0  0
 16  5  1  0  0  0  0
 16 10  1  0  0  0  0
 17  1  2  0  0  0  0
 18  6  1  0  0  0  0
 19 20  1  0  0  0  0
 20  8  2  0  0  0  0
 22  3  2  0  0  0  0
 23 22  1  0  0  0  0
 23 18  2  0  0  0  0
 24 28  1  0  0  0  0
 26 29  1  0  0  0  0
 27 24  1  0  0  0  0
 28 25  2  0  0  0  0
 29 30  2  0  0  0  0
 30 25  1  0  0  0  0
 30  5  1  0  0  0  0
 31 24  2  0  0  0  0
 31 29  1  0  0  0  0
M  END
>  <MODEL>
5

>  <REMARK>
 VINA RESULT:     -10.0      2.561      5.022
  Name = 
  1 active torsions:
  status: ('A' for Active; 'I' for Inactive)
    1  A    between atoms: C_5  and  C_30
                            x       y       z     vdW  Elec       q    Type
                         _______ _______ _______ _____ _____    ______ ____

>  <TORSDO>
F 1

$$$$
=
 OpenBabel11122411063D

 31 35  0  0  1  0  0  0  0  0999 V2000
  187.2880  178.2910  148.1460 C   0  0  0  0  0  0  0  0  0  0  0  0
  187.6820  177.1270  144.5050 C   0  0  1  0  0  3  0  0  0  0  0  0
  189.1570  176.7980  144.3540 C   0  0  0  0  0  0  0  0  0  0  0  0
  182.9230  178.8410  143.0280 O   0  0  0  0  0  0  0  0  0  0  0  0
  183.6130  178.6550  141.9900 C   0  0  0  0  0  0  0  0  0  0  0  0
  191.3490  176.2330  145.2370 C   0  0  0  0  0  0  0  0  0  0  0  0
  187.1940  177.8290  145.7600 C   0  0  0  0  0  0  0  0  0  0  0  0
  186.0560  178.9450  148.0750 C   0  0  0  0  0  3  0  0  0  0  0  0
  190.0290  176.6410  145.4410 C   0  0  0  0  0  3  0  0  0  0  0  0
  185.7550  178.2260  143.3190 C   0  0  0  0  0  0  0  0  0  0  0  0
  187.9360  178.1950  149.3310 F   0  0  0  0  0  0  0  0  0  0  0  0
  188.7190  176.5870  141.9420 N   0  0  0  0  0  0  0  0  0  0  0  0
  192.4310  176.0630  146.6030 Cl  0  0  0  0  0  0  0  0  0  0  0  0
  185.2160  178.5430  144.4620 N   0  0  0  0  0  0  0  0  0  0  0  0
  187.2250  177.9050  143.2620 C   0  0  2  0  0  3  0  0  0  0  0  0
  185.0070  178.3360  142.1000 N   0  0  0  0  0  2  0  0  0  0  0  0
  187.8440  177.7200  146.9990 C   0  0  0  0  0  3  0  0  0  0  0  0
  191.8020  175.9440  143.9470 C   0  0  0  0  0  3  0  0  0  0  0  0
  185.9380  178.4740  145.7020 C   0  0  0  0  0  0  0  0  0  0  0  0
  185.3790  179.0300  146.8560 C   0  0  0  0  0  3  0  0  0  0  0  0
  187.5970  177.1900  142.0400 N   0  0  0  0  0  0  0  0  0  0  0  0
  189.6190  176.4910  143.0570 C   0  0  0  0  0  0  0  0  0  0  0  0
  190.9350  176.0660  142.8590 C   0  0  0  0  0  3  0  0  0  0  0  0
  181.8640  179.0050  138.1120 C   0  0  0  0  0  0  0  0  0  0  0  0
  183.7100  179.2660  139.5790 C   0  0  0  0  0  3  0  0  0  0  0  0
  180.8580  177.8750  141.4210 F   0  0  0  0  0  0  0  0  0  0  0  0
  181.2880  179.1420  136.7500 C   0  0  0  0  0  1  0  0  0  0  0  0
  183.1500  179.3770  138.3460 N   0  0  0  0  0  0  0  0  0  0  0  0
  181.6350  178.3720  140.4280 C   0  0  0  0  0  0  0  0  0  0  0  0
  182.9710  178.7610  140.6590 C   0  0  0  0  0  0  0  0  0  0  0  0
  181.0850  178.4970  139.1500 C   0  0  0  0  0  3  0  0  0  0  0  0
  1 11  1  0  0  0  0
  2  3  1  1  0  0  0
  2  7  1  0  0  0  0
  3  9  1  0  0  0  0
  5 16  1  0  0  0  0
  5  4  2  0  0  0  0
  6  9  2  0  0  0  0
  6 13  1  0  0  0  0
  7 17  1  0  0  0  0
  8  1  1  0  0  0  0
 10 14  2  0  0  0  0
 12 21  2  0  0  0  0
 12 22  1  0  0  0  0
 14 19  1  0  0  0  0
 15 21  1  6  0  0  0
 15 10  1  0  0  0  0
 15  2  1  0  0  0  0
 16 10  1  0  0  0  0
 17  1  2  0  0  0  0
 18  6  1  0  0  0  0
 19  7  2  0  0  0  0
 19 20  1  0  0  0  0
 20  8  2  0  0  0  0
 22  3  2  0  0  0  0
 23 22  1  0  0  0  0
 23 18  2  0  0  0  0
 24 28  2  0  0  0  0
 24 31  1  0  0  0  0
 25 30  2  0  0  0  0
 27 24  1  0  0  0  0
 28 25  1  0  0  0  0
 29 30  1  0  0  0  0
 29 26  1  0  0  0  0
 30  5  1  0  0  0  0
 31 29  2  0  0  0  0
M  END
>  <MODEL>
6

>  <REMARK>
 VINA RESULT:      -9.9      4.406      6.902
  Name = 
  1 active torsions:
  status: ('A' for Active; 'I' for Inactive)
    1  A    between atoms: C_5  and  C_30
                            x       y       z     vdW  Elec       q    Type
                         _______ _______ _______ _____ _____    ______ ____

>  <TORSDO>
F 1

$$$$
=
 OpenBabel11122411063D

 31 35  0  0  1  0  0  0  0  0999 V2000
  183.8760  179.1270  139.5420 C   0  0  0  0  0  0  0  0  0  0  0  0
  187.6340  178.3780  139.8310 C   0  0  1  0  0  3  0  0  0  0  0  0
  188.0770  178.0310  138.4210 C   0  0  0  0  0  0  0  0  0  0  0  0
  187.5790  178.1230  145.0950 O   0  0  0  0  0  0  0  0  0  0  0  0
  188.6380  177.5730  144.6850 C   0  0  0  0  0  0  0  0  0  0  0  0
  187.8160  178.0510  136.0050 C   0  0  0  0  0  0  0  0  0  0  0  0
  186.1540  178.5210  140.1410 C   0  0  0  0  0  0  0  0  0  0  0  0
  183.4890  179.0200  140.8800 C   0  0  0  0  0  3  0  0  0  0  0  0
  187.3050  178.2970  137.2810 C   0  0  0  0  0  3  0  0  0  0  0  0
  187.9190  177.6900  142.2340 C   0  0  0  0  0  0  0  0  0  0  0  0
  182.9660  179.4690  138.5990 F   0  0  0  0  0  0  0  0  0  0  0  0
  190.2180  177.3370  139.4130 N   0  0  0  0  0  0  0  0  0  0  0  0
  186.8310  178.3690  134.5940 Cl  0  0  0  0  0  0  0  0  0  0  0  0
  186.7210  178.1210  142.5120 N   0  0  0  0  0  0  0  0  0  0  0  0
  188.2760  177.3780  140.8050 C   0  0  2  0  0  3  0  0  0  0  0  0
  188.8400  177.3600  143.2820 N   0  0  0  0  0  2  0  0  0  0  0  0
  185.2050  178.8960  139.1780 C   0  0  0  0  0  3  0  0  0  0  0  0
  189.1180  177.5670  135.8530 C   0  0  0  0  0  3  0  0  0  0  0  0
  185.7580  178.4380  141.4940 C   0  0  0  0  0  0  0  0  0  0  0  0
  184.4310  178.6830  141.8550 C   0  0  0  0  0  3  0  0  0  0  0  0
  189.7220  177.3050  140.5900 N   0  0  0  0  0  0  0  0  0  0  0  0
  189.3950  177.5560  138.2570 C   0  0  0  0  0  0  0  0  0  0  0  0
  189.9090  177.3260  136.9790 C   0  0  0  0  0  3  0  0  0  0  0  0
  191.6900  176.3890  147.4230 C   0  0  0  0  0  0  0  0  0  0  0  0
  191.0100  177.0900  145.2610 C   0  0  0  0  0  3  0  0  0  0  0  0
  188.0830  176.8660  147.4630 F   0  0  0  0  0  0  0  0  0  0  0  0
  192.7790  175.9810  148.3480 C   0  0  0  0  0  1  0  0  0  0  0  0
  191.9790  176.7120  146.1350 N   0  0  0  0  0  0  0  0  0  0  0  0
  189.3560  176.8250  146.9990 C   0  0  0  0  0  0  0  0  0  0  0  0
  189.6680  177.1580  145.6650 C   0  0  0  0  0  0  0  0  0  0  0  0
  190.3730  176.4400  147.8760 C   0  0  0  0  0  3  0  0  0  0  0  0
  1  8  1  0  0  0  0
  2  3  1  6  0  0  0
  2  7  1  0  0  0  0
  2 15  1  0  0  0  0
  5  4  2  0  0  0  0
  5 30  1  0  0  0  0
  6  9  1  0  0  0  0
  7 19  2  0  0  0  0
  8 20  2  0  0  0  0
  9  3  2  0  0  0  0
 10 14  2  0  0  0  0
 10 16  1  0  0  0  0
 11  1  1  0  0  0  0
 12 21  2  0  0  0  0
 13  6  1  0  0  0  0
 15 21  1  1  0  0  0
 15 10  1  0  0  0  0
 16  5  1  0  0  0  0
 17  1  2  0  0  0  0
 17  7  1  0  0  0  0
 18  6  2  0  0  0  0
 18 23  1  0  0  0  0
 19 20  1  0  0  0  0
 19 14  1  0  0  0  0
 22  3  1  0  0  0  0
 22 12  1  0  0  0  0
 23 22  2  0  0  0  0
 24 31  1  0  0  0  0
 24 27  1  0  0  0  0
 25 30  2  0  0  0  0
 25 28  1  0  0  0  0
 28 24  2  0  0  0  0
 29 26  1  0  0  0  0
 29 31  2  0  0  0  0
 30 29  1  0  0  0  0
M  END
>  <MODEL>
7

>  <REMARK>
 VINA RESULT:      -9.7      3.906      7.842
  Name = 
  1 active torsions:
  status: ('A' for Active; 'I' for Inactive)
    1  A    between atoms: C_5  and  C_30
                            x       y       z     vdW  Elec       q    Type
                         _______ _______ _______ _____ _____    ______ ____

>  <TORSDO>
F 1

$$$$
=
 OpenBabel11122411063D

 31 35  0  0  1  0  0  0  0  0999 V2000
  189.8090  177.2520  146.9660 C   0  0  0  0  0  0  0  0  0  0  0  0
  188.4070  178.0000  143.4670 C   0  0  1  0  0  3  0  0  0  0  0  0
  186.9070  178.1260  143.6620 C   0  0  0  0  0  0  0  0  0  0  0  0
  192.8830  176.7570  140.9780 O   0  0  0  0  0  0  0  0  0  0  0  0
  191.9490  176.7550  140.1320 C   0  0  0  0  0  0  0  0  0  0  0  0
  184.9250  178.4960  145.0190 C   0  0  0  0  0  0  0  0  0  0  0  0
  189.2730  177.4890  144.6060 C   0  0  0  0  0  0  0  0  0  0  0  0
  191.0710  176.7530  146.6360 C   0  0  0  0  0  3  0  0  0  0  0  0
  186.3010  178.2770  144.9170 C   0  0  0  0  0  3  0  0  0  0  0  0
  190.1400  177.0390  141.9170 C   0  0  0  0  0  0  0  0  0  0  0  0
  189.4500  177.3810  148.2660 F   0  0  0  0  0  0  0  0  0  0  0  0
  186.7310  178.1550  141.2090 N   0  0  0  0  0  0  0  0  0  0  0  0
  184.1810  178.6610  146.5950 Cl  0  0  0  0  0  0  0  0  0  0  0  0
  190.9720  176.9050  142.9100 N   0  0  0  0  0  0  0  0  0  0  0  0
  188.6670  177.1680  142.2020 C   0  0  2  0  0  3  0  0  0  0  0  0
  190.5890  176.9060  140.5610 N   0  0  0  0  0  2  0  0  0  0  0  0
  188.9230  177.6350  145.9560 C   0  0  0  0  0  3  0  0  0  0  0  0
  184.1450  178.6000  143.8640 C   0  0  0  0  0  3  0  0  0  0  0  0
  190.5590  177.0030  144.2820 C   0  0  0  0  0  0  0  0  0  0  0  0
  191.4480  176.6360  145.2960 C   0  0  0  0  0  3  0  0  0  0  0  0
  187.9200  177.7090  141.0660 N   0  0  0  0  0  0  0  0  0  0  0  0
  186.1140  178.2460  142.5020 C   0  0  0  0  0  0  0  0  0  0  0  0
  184.7410  178.4820  142.6060 C   0  0  0  0  0  3  0  0  0  0  0  0
  192.9890  176.3130  136.0160 C   0  0  0  0  0  0  0  0  0  0  0  0
  193.6130  176.5320  138.2940 C   0  0  0  0  0  3  0  0  0  0  0  0
  189.9550  176.5800  138.0060 F   0  0  0  0  0  0  0  0  0  0  0  0
  193.3880  176.1590  134.5940 C   0  0  0  0  0  1  0  0  0  0  0  0
  193.9400  176.3920  136.9830 N   0  0  0  0  0  0  0  0  0  0  0  0
  191.2740  176.5210  137.6990 C   0  0  0  0  0  0  0  0  0  0  0  0
  192.2700  176.6010  138.6940 C   0  0  0  0  0  0  0  0  0  0  0  0
  191.6400  176.3760  136.3580 C   0  0  0  0  0  3  0  0  0  0  0  0
  1 11  1  0  0  0  0
  2  3  1  1  0  0  0
  2  7  1  0  0  0  0
  3  9  1  0  0  0  0
  5 16  1  0  0  0  0
  5  4  2  0  0  0  0
  6 13  1  0  0  0  0
  7 17  1  0  0  0  0
  8  1  1  0  0  0  0
  9  6  2  0  0  0  0
 10 15  1  0  0  0  0
 10 14  2  0  0  0  0
 12 22  1  0  0  0  0
 14 19  1  0  0  0  0
 15 21  1  6  0  0  0
 15  2  1  0  0  0  0
 16 10  1  0  0  0  0
 17  1  2  0  0  0  0
 18  6  1  0  0  0  0
 19  7  2  0  0  0  0
 19 20  1  0  0  0  0
 20  8  2  0  0  0  0
 21 12  2  0  0  0  0
 22 23  1  0  0  0  0
 22  3  2  0  0  0  0
 23 18  2  0  0  0  0
 24 31  2  0  0  0  0
 24 28  1  0  0  0  0
 25 30  1  0  0  0  0
 27 24  1  0  0  0  0
 28 25  2  0  0  0  0
 29 26  1  0  0  0  0
 29 30  2  0  0  0  0
 30  5  1  0  0  0  0
 31 29  1  0  0  0  0
M  END
>  <MODEL>
8

>  <REMARK>
 VINA RESULT:      -9.6      1.898      4.096
  Name = 
  1 active torsions:
  status: ('A' for Active; 'I' for Inactive)
    1  A    between atoms: C_5  and  C_30
                            x       y       z     vdW  Elec       q    Type
                         _______ _______ _______ _____ _____    ______ ____

>  <TORSDO>
F 1

$$$$
=
 OpenBabel11122411063D

 31 35  0  0  1  0  0  0  0  0999 V2000
  190.7730  177.1820  145.1830 C   0  0  0  0  0  0  0  0  0  0  0  0
  188.7740  177.3110  141.9030 C   0  0  1  0  0  3  0  0  0  0  0  0
  189.8220  177.4010  140.8070 C   0  0  0  0  0  0  0  0  0  0  0  0
  184.1640  178.2200  144.2880 O   0  0  0  0  0  0  0  0  0  0  0  0
  184.0450  178.5280  143.0710 C   0  0  0  0  0  0  0  0  0  0  0  0
  192.0750  177.1280  139.9400 C   0  0  0  0  0  0  0  0  0  0  0  0
  189.1930  177.4610  143.3560 C   0  0  0  0  0  0  0  0  0  0  0  0
  189.7770  177.5170  146.1040 C   0  0  0  0  0  3  0  0  0  0  0  0
  191.1820  177.1310  141.0140 C   0  0  0  0  0  3  0  0  0  0  0  0
  186.5410  178.2330  142.6050 C   0  0  0  0  0  0  0  0  0  0  0  0
  192.0210  176.8850  145.6140 F   0  0  0  0  0  0  0  0  0  0  0  0
  187.9610  177.8390  139.2590 N   0  0  0  0  0  0  0  0  0  0  0  0
  193.7740  176.8100  140.2180 Cl  0  0  0  0  0  0  0  0  0  0  0  0
  186.8460  178.0490  143.8590 N   0  0  0  0  0  0  0  0  0  0  0  0
  187.6440  178.3000  141.5820 C   0  0  2  0  0  3  0  0  0  0  0  0
  185.1940  178.5290  142.2140 N   0  0  0  0  0  2  0  0  0  0  0  0
  190.4760  177.1360  143.8190 C   0  0  0  0  0  3  0  0  0  0  0  0
  191.6120  177.3620  138.6430 C   0  0  0  0  0  3  0  0  0  0  0  0
  188.1870  177.7770  144.2960 C   0  0  0  0  0  0  0  0  0  0  0  0
  188.4850  177.8070  145.6610 C   0  0  0  0  0  3  0  0  0  0  0  0
  187.1570  178.1010  140.2160 N   0  0  0  0  0  0  0  0  0  0  0  0
  189.3610  177.6220  139.4920 C   0  0  0  0  0  0  0  0  0  0  0  0
  190.2540  177.6010  138.4180 C   0  0  0  0  0  3  0  0  0  0  0  0
  180.2410  179.5380  141.4210 C   0  0  0  0  0  0  0  0  0  0  0  0
  182.5350  179.0010  141.1500 C   0  0  0  0  0  3  0  0  0  0  0  0
  181.6810  179.0020  144.7190 F   0  0  0  0  0  0  0  0  0  0  0  0
  178.9320  179.8880  140.8120 C   0  0  0  0  0  1  0  0  0  0  0  0
  181.3230  179.3240  140.6280 N   0  0  0  0  0  0  0  0  0  0  0  0
  181.5930  179.1010  143.3700 C   0  0  0  0  0  0  0  0  0  0  0  0
  182.7090  178.8800  142.5370 C   0  0  0  0  0  0  0  0  0  0  0  0
  180.3580  179.4300  142.8060 C   0  0  0  0  0  3  0  0  0  0  0  0
  1 11  1  0  0  0  0
  1  8  1  0  0  0  0
  2  3  1  6  0  0  0
  2  7  1  0  0  0  0
  3  9  1  0  0  0  0
  5  4  2  0  0  0  0
  6 13  1  0  0  0  0
  6  9  2  0  0  0  0
  7 17  1  0  0  0  0
  7 19  2  0  0  0  0
 10 14  2  0  0  0  0
 12 22  1  0  0  0  0
 12 21  2  0  0  0  0
 14 19  1  0  0  0  0
 15 21  1  6  0  0  0
 15  2  1  0  0  0  0
 15 10  1  0  0  0  0
 16 10  1  0  0  0  0
 16  5  1  0  0  0  0
 17  1  2  0  0  0  0
 18  6  1  0  0  0  0
 19 20  1  0  0  0  0
 20  8  2  0  0  0  0
 22  3  2  0  0  0  0
 23 18  2  0  0  0  0
 23 22  1  0  0  0  0
 24 31  1  0  0  0  0
 25 30  2  0  0  0  0
 27 24  1  0  0  0  0
 28 25  1  0  0  0  0
 28 24  2  0  0  0  0
 29 26  1  0  0  0  0
 30  5  1  0  0  0  0
 30 29  1  0  0  0  0
 31 29  2  0  0  0  0
M  END
>  <MODEL>
9

>  <REMARK>
 VINA RESULT:      -9.3      3.840      8.537
  Name = 
  1 active torsions:
  status: ('A' for Active; 'I' for Inactive)
    1  A    between atoms: C_5  and  C_30
                            x       y       z     vdW  Elec       q    Type
                         _______ _______ _______ _____ _____    ______ ____

>  <TORSDO>
F 1

$$$$
