=
 OpenBabel11122411223D

 37 43  0  0  1  0  0  0  0  0999 V2000
  185.4470  178.4060  140.1140 O   0  0  0  0  0  0  0  0  0  0  0  0
  187.6810  176.1450  136.9830 C   0  0  0  0  0  0  0  0  0  0  0  0
  190.0550  177.4590  140.0670 C   0  0  0  0  0  0  0  0  0  0  0  0
  184.4440  179.2950  140.5280 C   0  0  2  0  0  3  0  0  0  0  0  0
  188.0720  177.0320  143.1460 O   0  0  0  0  0  0  0  0  0  0  0  0
  190.0540  176.3970  137.9070 C   0  0  0  0  0  0  0  0  0  0  0  0
  189.0950  178.0850  141.0110 C   0  0  2  0  0  3  0  0  0  0  0  0
  184.6410  178.5510  142.9100 C   0  0  0  0  0  0  0  0  0  0  0  0
  189.4360  177.1210  138.9010 C   0  0  0  0  0  0  0  0  0  0  0  0
  189.1920  177.5380  142.4410 C   0  0  0  0  0  0  0  0  0  0  0  0
  191.4300  176.1450  138.0290 C   0  0  0  0  0  3  0  0  0  0  0  0
  183.8880  178.8380  141.7590 O   0  0  0  0  0  0  0  0  0  0  0  0
  188.0310  177.5000  138.8400 C   0  0  1  0  0  3  0  0  0  0  0  0
  186.9030  174.9380  136.5010 C   0  0  0  0  0  1  0  0  0  0  0  0
  192.1630  177.8170  141.3430 C   0  0  0  0  0  3  0  0  0  0  0  0
  192.1230  176.6190  139.1640 C   0  0  0  0  0  3  0  0  0  0  0  0
  187.2900  176.4070  138.3350 O   0  0  0  0  0  0  0  0  0  0  0  0
  186.1490  178.5360  142.9380 C   0  0  1  0  0  3  0  0  0  0  0  0
  186.6900  177.1110  142.7950 C   0  0  0  0  0  2  0  0  0  0  0  0
  191.4280  177.2710  140.2040 C   0  0  0  0  0  0  0  0  0  0  0  0
  187.7350  177.8070  140.3100 C   0  0  2  0  0  3  0  0  0  0  0  0
  189.1960  175.8110  136.8220 C   0  0  0  0  0  2  0  0  0  0  0  0
  190.3630  177.5780  143.1320 C   0  0  0  0  0  0  0  0  0  0  0  0
  187.3140  177.3090  136.0690 C   0  0  0  0  0  1  0  0  0  0  0  0
  186.7610  179.4920  141.9150 C   0  0  0  0  0  2  0  0  0  0  0  0
  184.0270  178.2520  143.9670 O   0  0  0  0  0  0  0  0  0  0  0  0
  186.7110  178.9330  140.4690 C   0  0  2  0  0  3  0  0  0  0  0  0
  191.6870  177.9690  142.5790 C   0  0  0  0  0  3  0  0  0  0  0  0
  191.4830  176.5790  145.1360 C   0  0  0  0  0  3  0  0  0  0  0  0
  190.3860  177.2600  144.5830 C   0  0  0  0  0  0  0  0  0  0  0  0
  189.3440  177.6740  145.4290 C   0  0  0  0  0  3  0  0  0  0  0  0
  188.0770  177.9050  147.8360 Cl  0  0  0  0  0  0  0  0  0  0  0  0
  190.4780  176.7050  147.3350 C   0  0  0  0  0  3  0  0  0  0  0  0
  189.3880  177.3920  146.7970 C   0  0  0  0  0  0  0  0  0  0  0  0
  191.5280  176.3000  146.5050 C   0  0  0  0  0  3  0  0  0  0  0  0
  183.6350  178.3850  138.3580 C   0  0  0  0  0  1  0  0  0  0  0  0
  183.3510  179.3680  139.4770 C   0  0  0  0  0  2  0  0  0  0  0  0
  1 27  1  0  0  0  0
  1  4  1  0  0  0  0
  2 17  1  0  0  0  0
  3 20  1  0  0  0  0
  4 37  1  6  0  0  0
  4 12  1  0  0  0  0
  6 11  2  0  0  0  0
  6  9  1  0  0  0  0
  7  3  1  6  0  0  0
  7 10  1  0  0  0  0
  8 18  1  0  0  0  0
  8 26  2  0  0  0  0
  9  3  2  0  0  0  0
 10 23  2  0  0  0  0
 10  5  1  0  0  0  0
 11 16  1  0  0  0  0
 12  8  1  0  0  0  0
 13 17  1  1  0  0  0
 13  9  1  0  0  0  0
 13 21  1  0  0  0  0
 14  2  1  0  0  0  0
 15 28  2  0  0  0  0
 16 20  2  0  0  0  0
 18 25  1  6  0  0  0
 19 18  1  0  0  0  0
 19  5  1  0  0  0  0
 20 15  1  0  0  0  0
 21 27  1  0  0  0  0
 21  7  1  0  0  0  0
 22  2  1  0  0  0  0
 22  6  1  0  0  0  0
 23 30  1  0  0  0  0
 24  2  1  0  0  0  0
 27 25  1  0  0  0  0
 28 23  1  0  0  0  0
 29 35  1  0  0  0  0
 30 29  2  0  0  0  0
 30 31  1  0  0  0  0
 31 34  2  0  0  0  0
 34 33  1  0  0  0  0
 34 32  1  0  0  0  0
 35 33  2  0  0  0  0
 36 37  1  0  0  0  0
M  END
>  <MODEL>
1

>  <REMARK>
 VINA RESULT:      -9.1      0.000      0.000
  Name = 
  2 active torsions:
  status: ('A' for Active; 'I' for Inactive)
    1  A    between atoms: C_4  and  C_37
    2  A    between atoms: C_23  and  C_30
                            x       y       z     vdW  Elec       q    Type
                         _______ _______ _______ _____ _____    ______ ____

>  <TORSDO>
F 2

$$$$
=
 OpenBabel11122411223D

 37 43  0  0  1  0  0  0  0  0999 V2000
  182.8170  178.7780  142.6090 O   0  0  0  0  0  0  0  0  0  0  0  0
  182.4820  176.9120  138.5710 C   0  0  0  0  0  0  0  0  0  0  0  0
  186.2780  178.1960  139.4760 C   0  0  0  0  0  0  0  0  0  0  0  0
  182.3190  179.5570  143.6640 C   0  0  2  0  0  3  0  0  0  0  0  0
  186.8060  177.4100  143.0390 O   0  0  0  0  0  0  0  0  0  0  0  0
  184.8750  177.2840  137.7450 C   0  0  0  0  0  0  0  0  0  0  0  0
  186.1630  178.6800  140.8750 C   0  0  2  0  0  3  0  0  0  0  0  0
  184.0410  178.6720  145.2510 C   0  0  0  0  0  0  0  0  0  0  0  0
  185.0510  177.8900  138.9680 C   0  0  0  0  0  0  0  0  0  0  0  0
  187.1820  178.0470  141.8300 C   0  0  0  0  0  0  0  0  0  0  0  0
  185.9960  177.1320  136.9140 C   0  0  0  0  0  3  0  0  0  0  0  0
  182.7130  178.9760  144.9060 O   0  0  0  0  0  0  0  0  0  0  0  0
  183.9440  178.1620  139.8760 C   0  0  1  0  0  3  0  0  0  0  0  0
  181.5950  175.6840  138.5930 C   0  0  0  0  0  1  0  0  0  0  0  0
  188.7000  178.6280  139.0970 C   0  0  0  0  0  3  0  0  0  0  0  0
  187.2580  177.5800  137.3640 C   0  0  0  0  0  3  0  0  0  0  0  0
  183.0700  177.0520  139.8680 O   0  0  0  0  0  0  0  0  0  0  0  0
  185.1970  178.7710  144.2880 C   0  0  1  0  0  3  0  0  0  0  0  0
  185.5320  177.4050  143.6830 C   0  0  0  0  0  2  0  0  0  0  0  0
  187.4070  178.1050  138.6650 C   0  0  0  0  0  0  0  0  0  0  0  0
  184.6810  178.3460  141.2050 C   0  0  2  0  0  3  0  0  0  0  0  0
  183.5250  176.7080  137.4280 C   0  0  0  0  0  2  0  0  0  0  0  0
  188.5180  178.1310  141.5910 C   0  0  0  0  0  0  0  0  0  0  0  0
  181.5880  178.1040  138.2410 C   0  0  0  0  0  1  0  0  0  0  0  0
  184.9750  179.8390  143.2170 C   0  0  0  0  0  2  0  0  0  0  0  0
  184.2750  178.2560  146.4160 O   0  0  0  0  0  0  0  0  0  0  0  0
  183.9960  179.3760  142.1060 C   0  0  2  0  0  3  0  0  0  0  0  0
  189.1490  178.6600  140.3530 C   0  0  0  0  0  3  0  0  0  0  0  0
  190.7460  177.2080  142.2630 C   0  0  0  0  0  3  0  0  0  0  0  0
  189.4920  177.7190  142.6350 C   0  0  0  0  0  0  0  0  0  0  0  0
  189.1980  177.8770  143.9990 C   0  0  0  0  0  3  0  0  0  0  0  0
  189.7450  177.7030  146.6680 Cl  0  0  0  0  0  0  0  0  0  0  0  0
  191.3720  176.9930  144.5920 C   0  0  0  0  0  3  0  0  0  0  0  0
  190.1320  177.5100  144.9720 C   0  0  0  0  0  0  0  0  0  0  0  0
  191.6810  176.8440  143.2370 C   0  0  0  0  0  3  0  0  0  0  0  0
  180.2110  178.2720  143.9680 C   0  0  0  0  0  1  0  0  0  0  0  0
  180.8040  179.6160  143.5930 C   0  0  0  0  0  2  0  0  0  0  0  0
  1  4  1  0  0  0  0
  2 14  1  0  0  0  0
  2 17  1  0  0  0  0
  4 37  1  1  0  0  0
  4 12  1  0  0  0  0
  5 19  1  0  0  0  0
  6  9  2  0  0  0  0
  7  3  1  6  0  0  0
  7 21  1  0  0  0  0
  7 10  1  0  0  0  0
  8 26  2  0  0  0  0
  9  3  1  0  0  0  0
 10  5  1  0  0  0  0
 11 16  2  0  0  0  0
 11  6  1  0  0  0  0
 12  8  1  0  0  0  0
 13  9  1  6  0  0  0
 13 21  1  0  0  0  0
 15 28  2  0  0  0  0
 16 20  1  0  0  0  0
 17 13  1  0  0  0  0
 18 25  1  6  0  0  0
 18  8  1  0  0  0  0
 19 18  1  0  0  0  0
 20 15  1  0  0  0  0
 20  3  2  0  0  0  0
 21 27  1  0  0  0  0
 22  6  1  0  0  0  0
 22  2  1  0  0  0  0
 23 10  2  0  0  0  0
 23 30  1  0  0  0  0
 24  2  1  0  0  0  0
 27  1  1  0  0  0  0
 27 25  1  0  0  0  0
 28 23  1  0  0  0  0
 29 30  2  0  0  0  0
 29 35  1  0  0  0  0
 30 31  1  0  0  0  0
 31 34  2  0  0  0  0
 33 34  1  0  0  0  0
 34 32  1  0  0  0  0
 35 33  2  0  0  0  0
 37 36  1  0  0  0  0
M  END
>  <MODEL>
2

>  <REMARK>
 VINA RESULT:      -8.6      1.954      3.883
  Name = 
  2 active torsions:
  status: ('A' for Active; 'I' for Inactive)
    1  A    between atoms: C_4  and  C_37
    2  A    between atoms: C_23  and  C_30
                            x       y       z     vdW  Elec       q    Type
                         _______ _______ _______ _____ _____    ______ ____

>  <TORSDO>
F 2

$$$$
=
 OpenBabel11122411223D

 37 43  0  0  1  0  0  0  0  0999 V2000
  191.0930  176.5630  138.2350 O   0  0  0  0  0  0  0  0  0  0  0  0
  190.2840  176.7660  142.6180 C   0  0  0  0  0  0  0  0  0  0  0  0
  187.1930  178.1820  140.3110 C   0  0  0  0  0  0  0  0  0  0  0  0
  191.9420  176.6500  137.1230 C   0  0  2  0  0  3  0  0  0  0  0  0
  186.9860  175.9450  137.3870 O   0  0  0  0  0  0  0  0  0  0  0  0
  188.0060  177.9310  142.5630 C   0  0  0  0  0  0  0  0  0  0  0  0
  187.6450  177.9270  138.9200 C   0  0  2  0  0  3  0  0  0  0  0  0
  190.2890  175.4760  135.6550 C   0  0  0  0  0  0  0  0  0  0  0  0
  188.1930  177.9190  141.2000 C   0  0  0  0  0  0  0  0  0  0  0  0
  186.6380  177.1310  138.0820 C   0  0  0  0  0  0  0  0  0  0  0  0
  186.7800  178.4010  143.0600 C   0  0  0  0  0  3  0  0  0  0  0  0
  191.5830  175.6460  136.1760 O   0  0  0  0  0  0  0  0  0  0  0  0
  189.4500  177.5190  140.5820 C   0  0  1  0  0  3  0  0  0  0  0  0
  190.7720  175.5250  143.3360 C   0  0  0  0  0  1  0  0  0  0  0  0
  184.9710  179.1960  139.8330 C   0  0  0  0  0  3  0  0  0  0  0  0
  185.7810  178.8210  142.1530 C   0  0  0  0  0  3  0  0  0  0  0  0
  189.9570  176.3960  141.2750 O   0  0  0  0  0  0  0  0  0  0  0  0
  189.0830  176.2320  136.1540 C   0  0  1  0  0  3  0  0  0  0  0  0
  188.2840  175.3970  137.1580 C   0  0  0  0  0  2  0  0  0  0  0  0
  185.9810  178.6970  140.7630 C   0  0  0  0  0  0  0  0  0  0  0  0
  188.9990  177.2010  139.1550 C   0  0  2  0  0  3  0  0  0  0  0  0
  189.0720  177.3220  143.4280 C   0  0  0  0  0  2  0  0  0  0  0  0
  185.3630  177.5710  137.9080 C   0  0  0  0  0  0  0  0  0  0  0  0
  191.4250  177.7780  142.6470 C   0  0  0  0  0  1  0  0  0  0  0  0
  189.4450  177.6100  136.7060 C   0  0  0  0  0  2  0  0  0  0  0  0
  190.1170  174.6190  134.7490 O   0  0  0  0  0  0  0  0  0  0  0  0
  190.0760  177.5400  138.1210 C   0  0  2  0  0  3  0  0  0  0  0  0
  184.7380  178.7250  138.6070 C   0  0  0  0  0  3  0  0  0  0  0  0
  184.6020  177.2190  135.5490 C   0  0  0  0  0  3  0  0  0  0  0  0
  184.4740  176.9150  136.9140 C   0  0  0  0  0  0  0  0  0  0  0  0
  183.5330  175.9510  137.3120 C   0  0  0  0  0  3  0  0  0  0  0  0
  181.5450  174.1310  136.8780 Cl  0  0  0  0  0  0  0  0  0  0  0  0
  182.8480  175.6390  135.0110 C   0  0  0  0  0  3  0  0  0  0  0  0
  182.7210  175.3210  136.3650 C   0  0  0  0  0  0  0  0  0  0  0  0
  183.7910  176.5870  134.6020 C   0  0  0  0  0  3  0  0  0  0  0  0
  193.7140  174.9640  137.5800 C   0  0  0  0  0  1  0  0  0  0  0  0
  193.3830  176.4430  137.5540 C   0  0  0  0  0  2  0  0  0  0  0  0
  2 24  1  0  0  0  0
  2 14  1  0  0  0  0
  2 22  1  0  0  0  0
  3 20  2  0  0  0  0
  3  9  1  0  0  0  0
  4 37  1  1  0  0  0
  4  1  1  0  0  0  0
  5 10  1  0  0  0  0
  6 11  1  0  0  0  0
  6 22  1  0  0  0  0
  7 10  1  1  0  0  0
  7 21  1  0  0  0  0
  7  3  1  0  0  0  0
  8 18  1  0  0  0  0
  8 12  1  0  0  0  0
  9  6  2  0  0  0  0
 12  4  1  0  0  0  0
 13  9  1  1  0  0  0
 13 17  1  0  0  0  0
 15 20  1  0  0  0  0
 16 11  2  0  0  0  0
 17  2  1  0  0  0  0
 18 25  1  1  0  0  0
 18 19  1  0  0  0  0
 19  5  1  0  0  0  0
 20 16  1  0  0  0  0
 21 13  1  0  0  0  0
 23 10  2  0  0  0  0
 23 28  1  0  0  0  0
 25 27  1  0  0  0  0
 26  8  2  0  0  0  0
 27  1  1  0  0  0  0
 27 21  1  0  0  0  0
 28 15  2  0  0  0  0
 29 30  1  0  0  0  0
 30 31  2  0  0  0  0
 30 23  1  0  0  0  0
 33 34  2  0  0  0  0
 34 32  1  0  0  0  0
 34 31  1  0  0  0  0
 35 33  1  0  0  0  0
 35 29  2  0  0  0  0
 37 36  1  0  0  0  0
M  END
>  <MODEL>
3

>  <REMARK>
 VINA RESULT:      -8.6      3.179      8.321
  Name = 
  2 active torsions:
  status: ('A' for Active; 'I' for Inactive)
    1  A    between atoms: C_4  and  C_37
    2  A    between atoms: C_23  and  C_30
                            x       y       z     vdW  Elec       q    Type
                         _______ _______ _______ _____ _____    ______ ____

>  <TORSDO>
F 2

$$$$
=
 OpenBabel11122411223D

 37 43  0  0  1  0  0  0  0  0999 V2000
  182.4770  178.2940  137.6780 O   0  0  0  0  0  0  0  0  0  0  0  0
  185.6370  175.7700  135.7950 C   0  0  0  0  0  0  0  0  0  0  0  0
  186.9530  177.8780  139.0660 C   0  0  0  0  0  0  0  0  0  0  0  0
  181.3490  179.1250  137.6160 C   0  0  2  0  0  3  0  0  0  0  0  0
  184.2010  177.7940  141.5180 O   0  0  0  0  0  0  0  0  0  0  0  0
  187.6290  176.4500  137.2500 C   0  0  0  0  0  0  0  0  0  0  0  0
  185.7290  178.5520  139.5680 C   0  0  2  0  0  3  0  0  0  0  0  0
  180.8990  178.8500  140.0630 C   0  0  0  0  0  0  0  0  0  0  0  0
  186.7130  177.2680  137.8710 C   0  0  0  0  0  0  0  0  0  0  0  0
  185.4450  178.2870  141.0510 C   0  0  0  0  0  0  0  0  0  0  0  0
  188.9250  176.3800  137.7850 C   0  0  0  0  0  3  0  0  0  0  0  0
  180.4910  178.8380  138.7180 O   0  0  0  0  0  0  0  0  0  0  0  0
  185.3640  177.4690  137.3590 C   0  0  1  0  0  3  0  0  0  0  0  0
  185.0990  174.4170  135.3790 C   0  0  0  0  0  1  0  0  0  0  0  0
  188.5850  178.6940  140.7590 C   0  0  0  0  0  3  0  0  0  0  0  0
  189.2370  177.1260  138.9430 C   0  0  0  0  0  3  0  0  0  0  0  0
  184.8620  176.2270  136.9080 O   0  0  0  0  0  0  0  0  0  0  0  0
  182.3350  179.0100  140.4970 C   0  0  1  0  0  3  0  0  0  0  0  0
  182.9750  177.6530  140.8000 C   0  0  0  0  0  2  0  0  0  0  0  0
  188.2380  177.8730  139.6020 C   0  0  0  0  0  0  0  0  0  0  0  0
  184.6450  178.0010  138.6000 C   0  0  2  0  0  3  0  0  0  0  0  0
  187.1520  175.5850  136.1190 C   0  0  0  0  0  2  0  0  0  0  0  0
  186.3660  178.5820  142.0080 C   0  0  0  0  0  0  0  0  0  0  0  0
  185.4810  176.7020  134.5970 C   0  0  0  0  0  1  0  0  0  0  0  0
  183.1580  179.8280  139.5030 C   0  0  0  0  0  2  0  0  0  0  0  0
  180.0270  178.6800  140.9550 O   0  0  0  0  0  0  0  0  0  0  0  0
  183.5540  179.0150  138.2430 C   0  0  2  0  0  3  0  0  0  0  0  0
  187.7680  179.0130  141.7630 C   0  0  0  0  0  3  0  0  0  0  0  0
  184.7510  179.0430  143.8650 C   0  0  0  0  0  3  0  0  0  0  0  0
  185.9910  178.5360  143.4450 C   0  0  0  0  0  0  0  0  0  0  0  0
  186.8420  177.9440  144.3940 C   0  0  0  0  0  3  0  0  0  0  0  0
  187.5440  177.1530  146.9110 Cl  0  0  0  0  0  0  0  0  0  0  0  0
  185.2370  178.4000  146.1480 C   0  0  0  0  0  3  0  0  0  0  0  0
  186.4680  177.8820  145.7390 C   0  0  0  0  0  0  0  0  0  0  0  0
  184.3770  178.9780  145.2110 C   0  0  0  0  0  3  0  0  0  0  0  0
  181.5060  178.2110  135.3070 C   0  0  0  0  0  1  0  0  0  0  0  0
  180.5990  178.8840  136.3180 C   0  0  0  0  0  2  0  0  0  0  0  0
  1 27  1  0  0  0  0
  2 22  1  0  0  0  0
  2 17  1  0  0  0  0
  3 20  1  0  0  0  0
  4 37  1  6  0  0  0
  4  1  1  0  0  0  0
  4 12  1  0  0  0  0
  6 11  2  0  0  0  0
  6  9  1  0  0  0  0
  7  3  1  6  0  0  0
  7 10  1  0  0  0  0
  8 18  1  0  0  0  0
  8 26  2  0  0  0  0
  9  3  2  0  0  0  0
 10  5  1  0  0  0  0
 10 23  2  0  0  0  0
 11 16  1  0  0  0  0
 12  8  1  0  0  0  0
 13 17  1  1  0  0  0
 13  9  1  0  0  0  0
 13 21  1  0  0  0  0
 14  2  1  0  0  0  0
 15 28  2  0  0  0  0
 16 20  2  0  0  0  0
 18 25  1  6  0  0  0
 18 19  1  0  0  0  0
 19  5  1  0  0  0  0
 20 15  1  0  0  0  0
 21  7  1  0  0  0  0
 22  6  1  0  0  0  0
 23 30  1  0  0  0  0
 24  2  1  0  0  0  0
 27 21  1  0  0  0  0
 27 25  1  0  0  0  0
 28 23  1  0  0  0  0
 29 35  1  0  0  0  0
 30 29  2  0  0  0  0
 30 31  1  0  0  0  0
 31 34  2  0  0  0  0
 34 33  1  0  0  0  0
 34 32  1  0  0  0  0
 35 33  2  0  0  0  0
 36 37  1  0  0  0  0
M  END
>  <MODEL>
4

>  <REMARK>
 VINA RESULT:      -8.4      2.470      3.998
  Name = 
  2 active torsions:
  status: ('A' for Active; 'I' for Inactive)
    1  A    between atoms: C_4  and  C_37
    2  A    between atoms: C_23  and  C_30
                            x       y       z     vdW  Elec       q    Type
                         _______ _______ _______ _____ _____    ______ ____

>  <TORSDO>
F 2

$$$$
=
 OpenBabel11122411223D

 37 43  0  0  1  0  0  0  0  0999 V2000
  187.6800  178.1310  138.8660 O   0  0  0  0  0  0  0  0  0  0  0  0
  188.7440  177.2400  143.1060 C   0  0  0  0  0  0  0  0  0  0  0  0
  184.8800  178.5500  142.6240 C   0  0  0  0  0  0  0  0  0  0  0  0
  187.9840  178.6040  137.5810 C   0  0  2  0  0  3  0  0  0  0  0  0
  183.6480  176.9940  139.5160 O   0  0  0  0  0  0  0  0  0  0  0  0
  186.5680  177.9680  144.2390 C   0  0  0  0  0  0  0  0  0  0  0  0
  184.7330  178.6840  141.1530 C   0  0  2  0  0  3  0  0  0  0  0  0
  185.9640  177.5000  136.5980 C   0  0  0  0  0  0  0  0  0  0  0  0
  186.1740  178.2820  142.9580 C   0  0  0  0  0  0  0  0  0  0  0  0
  183.5320  177.9220  140.5810 C   0  0  0  0  0  0  0  0  0  0  0  0
  185.6260  178.0960  145.2720 C   0  0  0  0  0  3  0  0  0  0  0  0
  187.3410  177.7800  136.6110 O   0  0  0  0  0  0  0  0  0  0  0  0
  187.0900  178.2540  141.8250 C   0  0  1  0  0  3  0  0  0  0  0  0
  189.5760  175.9800  143.2220 C   0  0  0  0  0  1  0  0  0  0  0  0
  182.5900  179.2330  143.3210 C   0  0  0  0  0  3  0  0  0  0  0  0
  184.3130  178.5170  144.9640 C   0  0  0  0  0  3  0  0  0  0  0  0
  187.9190  177.1160  141.9430 O   0  0  0  0  0  0  0  0  0  0  0  0
  185.0190  177.9060  137.7020 C   0  0  1  0  0  3  0  0  0  0  0  0
  184.7720  176.7470  138.6710 C   0  0  0  0  0  2  0  0  0  0  0  0
  183.9290  178.7330  143.6240 C   0  0  0  0  0  0  0  0  0  0  0  0
  186.1140  178.1750  140.6490 C   0  0  2  0  0  3  0  0  0  0  0  0
  187.9380  177.3850  144.4340 C   0  0  0  0  0  2  0  0  0  0  0  0
  182.2700  178.1560  141.0330 C   0  0  0  0  0  0  0  0  0  0  0  0
  189.7160  178.4080  142.9680 C   0  0  0  0  0  1  0  0  0  0  0  0
  185.4740  179.1750  138.4220 C   0  0  0  0  0  2  0  0  0  0  0  0
  185.4960  176.8420  135.6320 O   0  0  0  0  0  0  0  0  0  0  0  0
  186.6380  178.9140  139.4150 C   0  0  2  0  0  3  0  0  0  0  0  0
  181.9070  179.0030  142.1990 C   0  0  0  0  0  3  0  0  0  0  0  0
  180.4460  178.3350  139.3280 C   0  0  0  0  0  3  0  0  0  0  0  0
  181.1020  177.5830  140.3160 C   0  0  0  0  0  0  0  0  0  0  0  0
  180.6670  176.2730  140.5760 C   0  0  0  0  0  3  0  0  0  0  0  0
  179.0460  174.1050  140.2220 Cl  0  0  0  0  0  0  0  0  0  0  0  0
  178.9310  176.4950  138.9040 C   0  0  0  0  0  3  0  0  0  0  0  0
  179.5830  175.7350  139.8770 C   0  0  0  0  0  0  0  0  0  0  0  0
  179.3640  177.7940  138.6270 C   0  0  0  0  0  3  0  0  0  0  0  0
  189.9630  177.1330  137.2540 C   0  0  0  0  0  1  0  0  0  0  0  0
  189.4840  178.5680  137.3580 C   0  0  0  0  0  2  0  0  0  0  0  0
  1 27  1  0  0  0  0
  2 14  1  0  0  0  0
  2 22  1  0  0  0  0
  3  9  2  0  0  0  0
  3 20  1  0  0  0  0
  4 37  1  6  0  0  0
  4  1  1  0  0  0  0
  5 10  1  0  0  0  0
  6 22  1  0  0  0  0
  6 11  2  0  0  0  0
  7 10  1  6  0  0  0
  7  3  1  0  0  0  0
  8 12  1  0  0  0  0
  8 18  1  0  0  0  0
  9  6  1  0  0  0  0
 10 23  2  0  0  0  0
 12  4  1  0  0  0  0
 13 17  1  1  0  0  0
 13  9  1  0  0  0  0
 15 20  1  0  0  0  0
 16 11  1  0  0  0  0
 17  2  1  0  0  0  0
 18 25  1  1  0  0  0
 18 19  1  0  0  0  0
 19  5  1  0  0  0  0
 20 16  2  0  0  0  0
 21  7  1  0  0  0  0
 21 13  1  0  0  0  0
 23 28  1  0  0  0  0
 24  2  1  0  0  0  0
 25 27  1  0  0  0  0
 26  8  2  0  0  0  0
 27 21  1  0  0  0  0
 28 15  2  0  0  0  0
 29 30  1  0  0  0  0
 30 31  2  0  0  0  0
 30 23  1  0  0  0  0
 33 34  2  0  0  0  0
 34 32  1  0  0  0  0
 34 31  1  0  0  0  0
 35 33  1  0  0  0  0
 35 29  2  0  0  0  0
 36 37  1  0  0  0  0
M  END
>  <MODEL>
5

>  <REMARK>
 VINA RESULT:      -7.9      3.098      8.023
  Name = 
  2 active torsions:
  status: ('A' for Active; 'I' for Inactive)
    1  A    between atoms: C_4  and  C_37
    2  A    between atoms: C_23  and  C_30
                            x       y       z     vdW  Elec       q    Type
                         _______ _______ _______ _____ _____    ______ ____

>  <TORSDO>
F 2

$$$$
=
 OpenBabel11122411223D

 37 43  0  0  1  0  0  0  0  0999 V2000
  189.7830  177.2220  145.5510 O   0  0  0  0  0  0  0  0  0  0  0  0
  185.3900  177.9820  145.3850 C   0  0  0  0  0  0  0  0  0  0  0  0
  187.2710  178.4270  141.7600 C   0  0  0  0  0  0  0  0  0  0  0  0
  191.0310  177.2790  146.1880 C   0  0  2  0  0  3  0  0  0  0  0  0
  189.7970  175.7470  141.5770 O   0  0  0  0  0  0  0  0  0  0  0  0
  185.1870  178.6940  142.9350 C   0  0  0  0  0  0  0  0  0  0  0  0
  188.6760  178.0360  142.0400 C   0  0  2  0  0  3  0  0  0  0  0  0
  192.0160  175.6050  144.6080 C   0  0  0  0  0  0  0  0  0  0  0  0
  186.5490  178.4950  142.9140 C   0  0  0  0  0  0  0  0  0  0  0  0
  189.2100  176.9470  141.1030 C   0  0  0  0  0  0  0  0  0  0  0  0
  184.5450  179.0100  141.7280 C   0  0  0  0  0  3  0  0  0  0  0  0
  191.7610  176.0870  145.9030 O   0  0  0  0  0  0  0  0  0  0  0  0
  187.3240  178.2330  144.1200 C   0  0  1  0  0  3  0  0  0  0  0  0
  184.6160  176.9810  146.2190 C   0  0  0  0  0  1  0  0  0  0  0  0
  187.4710  178.9340  139.3310 C   0  0  0  0  0  3  0  0  0  0  0  0
  185.3040  179.0910  140.5400 C   0  0  0  0  0  3  0  0  0  0  0  0
  186.5940  177.3470  144.9430 O   0  0  0  0  0  0  0  0  0  0  0  0
  191.4110  176.2030  143.3620 C   0  0  1  0  0  3  0  0  0  0  0  0
  190.1810  175.4120  142.9100 C   0  0  0  0  0  2  0  0  0  0  0  0
  186.6800  178.7820  140.5500 C   0  0  0  0  0  0  0  0  0  0  0  0
  188.5940  177.6130  143.5340 C   0  0  2  0  0  3  0  0  0  0  0  0
  184.4550  178.4340  144.2210 C   0  0  0  0  0  2  0  0  0  0  0  0
  189.2080  177.1170  139.7530 C   0  0  0  0  0  0  0  0  0  0  0  0
  185.6970  179.1740  146.2860 C   0  0  0  0  0  1  0  0  0  0  0  0
  191.1160  177.6940  143.5140 C   0  0  0  0  0  2  0  0  0  0  0  0
  192.7580  174.5970  144.4800 O   0  0  0  0  0  0  0  0  0  0  0  0
  189.8390  177.9680  144.3510 C   0  0  2  0  0  3  0  0  0  0  0  0
  188.5640  178.2370  139.0180 C   0  0  0  0  0  3  0  0  0  0  0  0
  189.2180  175.2860  138.0460 C   0  0  0  0  0  3  0  0  0  0  0  0
  189.9340  176.1600  138.8790 C   0  0  0  0  0  0  0  0  0  0  0  0
  191.3380  176.1470  138.8320 C   0  0  0  0  0  3  0  0  0  0  0  0
  193.7600  175.2490  137.9490 Cl  0  0  0  0  0  0  0  0  0  0  0  0
  191.2890  174.3880  137.1700 C   0  0  0  0  0  3  0  0  0  0  0  0
  192.0110  175.2610  137.9860 C   0  0  0  0  0  0  0  0  0  0  0  0
  189.8910  174.4020  137.1970 C   0  0  0  0  0  3  0  0  0  0  0  0
  189.4340  177.8760  147.9990 C   0  0  0  0  0  1  0  0  0  0  0  0
  190.8410  177.4070  147.6880 C   0  0  0  0  0  2  0  0  0  0  0  0
  1  4  1  0  0  0  0
  2 14  1  0  0  0  0
  2 24  1  0  0  0  0
  3  7  1  0  0  0  0
  3  9  1  0  0  0  0
  4 37  1  1  0  0  0
  5 19  1  0  0  0  0
  6 22  1  0  0  0  0
  7 10  1  6  0  0  0
  7 21  1  0  0  0  0
  8 12  1  0  0  0  0
  9  6  2  0  0  0  0
 10  5  1  0  0  0  0
 11  6  1  0  0  0  0
 12  4  1  0  0  0  0
 13  9  1  6  0  0  0
 13 17  1  0  0  0  0
 15 20  1  0  0  0  0
 16 20  1  0  0  0  0
 16 11  2  0  0  0  0
 17  2  1  0  0  0  0
 18 19  1  1  0  0  0
 18 25  1  0  0  0  0
 18  8  1  0  0  0  0
 20  3  2  0  0  0  0
 21 13  1  0  0  0  0
 21 27  1  0  0  0  0
 22  2  1  0  0  0  0
 23 10  2  0  0  0  0
 25 27  1  0  0  0  0
 26  8  2  0  0  0  0
 27  1  1  0  0  0  0
 28 15  2  0  0  0  0
 28 23  1  0  0  0  0
 29 30  1  0  0  0  0
 30 23  1  0  0  0  0
 31 30  2  0  0  0  0
 32 34  1  0  0  0  0
 33 35  1  0  0  0  0
 33 34  2  0  0  0  0
 34 31  1  0  0  0  0
 35 29  2  0  0  0  0
 37 36  1  0  0  0  0
M  END
>  <MODEL>
6

>  <REMARK>
 VINA RESULT:      -7.6      2.771      7.482
  Name = 
  2 active torsions:
  status: ('A' for Active; 'I' for Inactive)
    1  A    between atoms: C_4  and  C_37
    2  A    between atoms: C_23  and  C_30
                            x       y       z     vdW  Elec       q    Type
                         _______ _______ _______ _____ _____    ______ ____

>  <TORSDO>
F 2

$$$$
=
 OpenBabel11122411223D

 37 43  0  0  1  0  0  0  0  0999 V2000
  189.0100  178.0180  144.3830 O   0  0  0  0  0  0  0  0  0  0  0  0
  184.7590  178.7220  143.2270 C   0  0  0  0  0  0  0  0  0  0  0  0
  187.3240  178.5460  140.0230 C   0  0  0  0  0  0  0  0  0  0  0  0
  190.1100  178.1890  145.2350 C   0  0  2  0  0  3  0  0  0  0  0  0
  189.7550  175.8840  140.7970 O   0  0  0  0  0  0  0  0  0  0  0  0
  185.0600  179.0030  140.7010 C   0  0  0  0  0  0  0  0  0  0  0  0
  188.6340  178.2150  140.6370 C   0  0  2  0  0  3  0  0  0  0  0  0
  191.3340  176.2730  144.1870 C   0  0  0  0  0  0  0  0  0  0  0  0
  186.3930  178.8080  140.9830 C   0  0  0  0  0  0  0  0  0  0  0  0
  189.3090  176.9830  140.0210 C   0  0  0  0  0  0  0  0  0  0  0  0
  184.6750  179.1040  139.3540 C   0  0  0  0  0  3  0  0  0  0  0  0
  190.8450  176.9680  145.3060 O   0  0  0  0  0  0  0  0  0  0  0  0
  186.9090  178.7600  142.3440 C   0  0  1  0  0  3  0  0  0  0  0  0
  183.8070  177.8770  144.0470 C   0  0  0  0  0  1  0  0  0  0  0  0
  188.0100  178.6300  137.6310 C   0  0  0  0  0  3  0  0  0  0  0  0
  185.6550  178.9840  138.3440 C   0  0  0  0  0  3  0  0  0  0  0  0
  186.0060  178.0250  143.1450 O   0  0  0  0  0  0  0  0  0  0  0  0
  191.0030  176.6450  142.7630 C   0  0  1  0  0  3  0  0  0  0  0  0
  189.8610  175.7840  142.2170 C   0  0  0  0  0  2  0  0  0  0  0  0
  186.9920  178.6860  138.6770 C   0  0  0  0  0  0  0  0  0  0  0  0
  188.2500  178.0530  142.1340 C   0  0  2  0  0  3  0  0  0  0  0  0
  184.0830  178.9640  141.8410 C   0  0  0  0  0  2  0  0  0  0  0  0
  189.5750  176.9180  138.6890 C   0  0  0  0  0  0  0  0  0  0  0  0
  184.9190  180.0530  143.9560 C   0  0  0  0  0  1  0  0  0  0  0  0
  190.7280  178.1400  142.6000 C   0  0  0  0  0  2  0  0  0  0  0  0
  192.0560  175.2600  144.3800 O   0  0  0  0  0  0  0  0  0  0  0  0
  189.3210  178.5480  143.1100 C   0  0  2  0  0  3  0  0  0  0  0  0
  189.1210  177.8940  137.6620 C   0  0  0  0  0  3  0  0  0  0  0  0
  189.8480  174.7680  137.4350 C   0  0  0  0  0  3  0  0  0  0  0  0
  190.4290  175.8290  138.1490 C   0  0  0  0  0  0  0  0  0  0  0  0
  191.8250  175.8640  138.2980 C   0  0  0  0  0  3  0  0  0  0  0  0
  194.3580  174.9010  137.9690 Cl  0  0  0  0  0  0  0  0  0  0  0  0
  192.0320  173.7920  137.0650 C   0  0  0  0  0  3  0  0  0  0  0  0
  192.6210  174.8480  137.7640 C   0  0  0  0  0  0  0  0  0  0  0  0
  190.6450  173.7530  136.8980 C   0  0  0  0  0  3  0  0  0  0  0  0
  188.9840  177.3810  147.3010 C   0  0  0  0  0  1  0  0  0  0  0  0
  189.6350  178.5720  146.6250 C   0  0  0  0  0  2  0  0  0  0  0  0
  1  4  1  0  0  0  0
  2 24  1  0  0  0  0
  2 14  1  0  0  0  0
  3  7  1  0  0  0  0
  3  9  1  0  0  0  0
  4 12  1  0  0  0  0
  4 37  1  1  0  0  0
  5 19  1  0  0  0  0
  6  9  2  0  0  0  0
  6 22  1  0  0  0  0
  7 10  1  6  0  0  0
  7 21  1  0  0  0  0
  8 26  2  0  0  0  0
  8 12  1  0  0  0  0
 10  5  1  0  0  0  0
 11  6  1  0  0  0  0
 13  9  1  6  0  0  0
 13 17  1  0  0  0  0
 15 28  2  0  0  0  0
 15 20  1  0  0  0  0
 16 20  1  0  0  0  0
 16 11  2  0  0  0  0
 17  2  1  0  0  0  0
 18 19  1  1  0  0  0
 18  8  1  0  0  0  0
 20  3  2  0  0  0  0
 21 13  1  0  0  0  0
 21 27  1  0  0  0  0
 22  2  1  0  0  0  0
 23 10  2  0  0  0  0
 25 18  1  0  0  0  0
 25 27  1  0  0  0  0
 27  1  1  0  0  0  0
 28 23  1  0  0  0  0
 29 30  1  0  0  0  0
 30 31  2  0  0  0  0
 30 23  1  0  0  0  0
 33 34  2  0  0  0  0
 34 32  1  0  0  0  0
 34 31  1  0  0  0  0
 35 33  1  0  0  0  0
 35 29  2  0  0  0  0
 37 36  1  0  0  0  0
M  END
>  <MODEL>
7

>  <REMARK>
 VINA RESULT:      -7.4      2.612      6.940
  Name = 
  2 active torsions:
  status: ('A' for Active; 'I' for Inactive)
    1  A    between atoms: C_4  and  C_37
    2  A    between atoms: C_23  and  C_30
                            x       y       z     vdW  Elec       q    Type
                         _______ _______ _______ _____ _____    ______ ____

>  <TORSDO>
F 2

$$$$
=
 OpenBabel11122411223D

 37 43  0  0  1  0  0  0  0  0999 V2000
  187.3980  177.9110  139.3320 O   0  0  0  0  0  0  0  0  0  0  0  0
  189.5190  176.5360  143.0080 C   0  0  0  0  0  0  0  0  0  0  0  0
  186.0790  178.6400  143.7890 C   0  0  0  0  0  0  0  0  0  0  0  0
  187.3790  178.3980  138.0170 C   0  0  2  0  0  3  0  0  0  0  0  0
  183.6290  177.5850  141.2430 O   0  0  0  0  0  0  0  0  0  0  0  0
  188.0200  177.6170  144.7780 C   0  0  0  0  0  0  0  0  0  0  0  0
  185.5110  178.9020  142.4420 C   0  0  2  0  0  3  0  0  0  0  0  0
  184.9640  177.8020  137.7350 C   0  0  0  0  0  0  0  0  0  0  0  0
  187.3220  178.0910  143.6900 C   0  0  0  0  0  0  0  0  0  0  0  0
  184.0560  178.4430  142.2880 C   0  0  0  0  0  0  0  0  0  0  0  0
  187.5010  177.8650  146.0580 C   0  0  0  0  0  3  0  0  0  0  0  0
  186.3010  177.7910  137.3060 O   0  0  0  0  0  0  0  0  0  0  0  0
  187.8070  177.9520  142.3240 C   0  0  1  0  0  3  0  0  0  0  0  0
  190.0530  175.1260  142.8530 C   0  0  0  0  0  1  0  0  0  0  0  0
  184.3280  179.7310  145.1820 C   0  0  0  0  0  3  0  0  0  0  0  0
  186.2820  178.5670  146.1870 C   0  0  0  0  0  3  0  0  0  0  0  0
  188.3650  176.6620  142.1710 O   0  0  0  0  0  0  0  0  0  0  0  0
  184.5250  178.3170  139.0840 C   0  0  1  0  0  3  0  0  0  0  0  0
  184.3490  177.1700  140.0830 C   0  0  0  0  0  2  0  0  0  0  0  0
  185.5520  178.9470  145.0410 C   0  0  0  0  0  0  0  0  0  0  0  0
  186.5190  178.1560  141.5230 C   0  0  2  0  0  3  0  0  0  0  0  0
  189.2220  176.7530  144.5240 C   0  0  0  0  0  2  0  0  0  0  0  0
  183.0820  178.9000  143.1200 C   0  0  0  0  0  0  0  0  0  0  0  0
  190.6270  177.4860  142.5630 C   0  0  0  0  0  1  0  0  0  0  0  0
  185.4460  179.4130  139.6180 C   0  0  0  0  0  2  0  0  0  0  0  0
  184.0860  177.3200  136.9720 O   0  0  0  0  0  0  0  0  0  0  0  0
  186.7760  178.8530  140.1850 C   0  0  2  0  0  3  0  0  0  0  0  0
  183.2950  179.7230  144.3390 C   0  0  0  0  0  3  0  0  0  0  0  0
  180.7300  178.4720  143.8640 C   0  0  0  0  0  3  0  0  0  0  0  0
  181.6530  178.6290  142.8170 C   0  0  0  0  0  0  0  0  0  0  0  0
  181.1930  178.5770  141.4900 C   0  0  0  0  0  3  0  0  0  0  0  0
  179.2880  178.2730  139.5590 Cl  0  0  0  0  0  0  0  0  0  0  0  0
  178.9350  178.1810  142.2660 C   0  0  0  0  0  3  0  0  0  0  0  0
  179.8420  178.3470  141.2170 C   0  0  0  0  0  0  0  0  0  0  0  0
  179.3780  178.2450  143.5900 C   0  0  0  0  0  3  0  0  0  0  0  0
  189.1450  176.6740  137.7030 C   0  0  0  0  0  1  0  0  0  0  0  0
  188.6880  178.0690  137.3230 C   0  0  0  0  0  2  0  0  0  0  0  0
  1 27  1  0  0  0  0
  2 22  1  0  0  0  0
  3 20  1  0  0  0  0
  4 37  1  6  0  0  0
  4  1  1  0  0  0  0
  5 10  1  0  0  0  0
  6 11  2  0  0  0  0
  7 10  1  1  0  0  0
  7  3  1  0  0  0  0
  8 18  1  0  0  0  0
  9  3  2  0  0  0  0
  9  6  1  0  0  0  0
 10 23  2  0  0  0  0
 11 16  1  0  0  0  0
 12  8  1  0  0  0  0
 12  4  1  0  0  0  0
 13 17  1  1  0  0  0
 13  9  1  0  0  0  0
 14  2  1  0  0  0  0
 17  2  1  0  0  0  0
 18 25  1  1  0  0  0
 18 19  1  0  0  0  0
 19  5  1  0  0  0  0
 20 15  1  0  0  0  0
 20 16  2  0  0  0  0
 21 13  1  0  0  0  0
 21  7  1  0  0  0  0
 22  6  1  0  0  0  0
 23 28  1  0  0  0  0
 24  2  1  0  0  0  0
 25 27  1  0  0  0  0
 26  8  2  0  0  0  0
 27 21  1  0  0  0  0
 28 15  2  0  0  0  0
 30 23  1  0  0  0  0
 30 29  2  0  0  0  0
 31 30  1  0  0  0  0
 32 34  1  0  0  0  0
 33 35  2  0  0  0  0
 34 31  2  0  0  0  0
 34 33  1  0  0  0  0
 35 29  1  0  0  0  0
 37 36  1  0  0  0  0
M  END
>  <MODEL>
8

>  <REMARK>
 VINA RESULT:      -7.2      3.063      7.280
  Name = 
  2 active torsions:
  status: ('A' for Active; 'I' for Inactive)
    1  A    between atoms: C_4  and  C_37
    2  A    between atoms: C_23  and  C_30
                            x       y       z     vdW  Elec       q    Type
                         _______ _______ _______ _____ _____    ______ ____

>  <TORSDO>
F 2

$$$$
=
 OpenBabel11122411223D

 37 43  0  0  1  0  0  0  0  0999 V2000
  183.1360  178.5530  142.8130 O   0  0  0  0  0  0  0  0  0  0  0  0
  181.8660  176.5370  139.0410 C   0  0  0  0  0  0  0  0  0  0  0  0
  185.6590  178.1070  138.8670 C   0  0  0  0  0  0  0  0  0  0  0  0
  182.8830  179.3300  143.9530 C   0  0  2  0  0  3  0  0  0  0  0  0
  187.1840  177.4760  142.1650 O   0  0  0  0  0  0  0  0  0  0  0  0
  183.9150  177.0460  137.5930 C   0  0  0  0  0  0  0  0  0  0  0  0
  185.8890  178.6280  140.2390 C   0  0  2  0  0  3  0  0  0  0  0  0
  185.0290  178.6170  145.0260 C   0  0  0  0  0  0  0  0  0  0  0  0
  184.3670  177.7010  138.7150 C   0  0  0  0  0  0  0  0  0  0  0  0
  187.1720  178.0980  140.8910 C   0  0  0  0  0  0  0  0  0  0  0  0
  184.7790  176.9430  136.4910 C   0  0  0  0  0  3  0  0  0  0  0  0
  183.6390  178.8180  145.0490 O   0  0  0  0  0  0  0  0  0  0  0  0
  183.5290  177.9260  139.8850 C   0  0  1  0  0  3  0  0  0  0  0  0
  181.1130  175.2530  139.3180 C   0  0  0  0  0  1  0  0  0  0  0  0
  187.8510  178.6920  137.8420 C   0  0  0  0  0  3  0  0  0  0  0  0
  186.0780  177.4920  136.5780 C   0  0  0  0  0  3  0  0  0  0  0  0
  182.7700  176.7590  140.1290 O   0  0  0  0  0  0  0  0  0  0  0  0
  185.8730  178.7640  143.7840 C   0  0  1  0  0  3  0  0  0  0  0  0
  186.1340  177.4050  143.1290 C   0  0  0  0  0  2  0  0  0  0  0  0
  186.5320  178.0670  137.7830 C   0  0  0  0  0  0  0  0  0  0  0  0
  184.5800  178.2040  140.9620 C   0  0  2  0  0  3  0  0  0  0  0  0
  182.5760  176.3680  137.6610 C   0  0  0  0  0  2  0  0  0  0  0  0
  188.3840  178.2650  140.2980 C   0  0  0  0  0  0  0  0  0  0  0  0
  180.8310  177.6540  138.9490 C   0  0  0  0  0  1  0  0  0  0  0  0
  185.2920  179.7780  142.8000 C   0  0  0  0  0  2  0  0  0  0  0  0
  185.5990  178.2560  146.0890 O   0  0  0  0  0  0  0  0  0  0  0  0
  184.0870  179.2130  142.0020 C   0  0  2  0  0  3  0  0  0  0  0  0
  188.6170  178.7950  138.9280 C   0  0  0  0  0  3  0  0  0  0  0  0
  189.6030  177.8430  142.4440 C   0  0  0  0  0  3  0  0  0  0  0  0
  189.6310  177.9540  141.0440 C   0  0  0  0  0  0  0  0  0  0  0  0
  190.8390  177.7190  140.3660 C   0  0  0  0  0  3  0  0  0  0  0  0
  193.4990  177.1240  140.2180 Cl  0  0  0  0  0  0  0  0  0  0  0  0
  191.9630  177.3050  142.4690 C   0  0  0  0  0  3  0  0  0  0  0  0
  192.0000  177.4020  141.0770 C   0  0  0  0  0  0  0  0  0  0  0  0
  190.7640  177.5230  143.1530 C   0  0  0  0  0  3  0  0  0  0  0  0
  180.6280  178.6310  143.1670 C   0  0  0  0  0  1  0  0  0  0  0  0
  181.4050  179.2830  144.2950 C   0  0  0  0  0  2  0  0  0  0  0  0
  1  4  1  0  0  0  0
  2 14  1  0  0  0  0
  2 17  1  0  0  0  0
  4 37  1  1  0  0  0
  4 12  1  0  0  0  0
  5 19  1  0  0  0  0
  6 22  1  0  0  0  0
  6  9  2  0  0  0  0
  7  3  1  6  0  0  0
  7 10  1  0  0  0  0
  7 21  1  0  0  0  0
  8 12  1  0  0  0  0
  8 26  2  0  0  0  0
  9  3  1  0  0  0  0
 10  5  1  0  0  0  0
 11 16  2  0  0  0  0
 11  6  1  0  0  0  0
 13  9  1  6  0  0  0
 13 17  1  0  0  0  0
 13 21  1  0  0  0  0
 15 28  2  0  0  0  0
 16 20  1  0  0  0  0
 18 25  1  6  0  0  0
 18  8  1  0  0  0  0
 19 18  1  0  0  0  0
 20 15  1  0  0  0  0
 20  3  2  0  0  0  0
 21 27  1  0  0  0  0
 22  2  1  0  0  0  0
 23 10  2  0  0  0  0
 23 30  1  0  0  0  0
 24  2  1  0  0  0  0
 27 25  1  0  0  0  0
 27  1  1  0  0  0  0
 28 23  1  0  0  0  0
 29 35  1  0  0  0  0
 30 29  2  0  0  0  0
 31 30  1  0  0  0  0
 31 34  2  0  0  0  0
 32 34  1  0  0  0  0
 33 35  2  0  0  0  0
 34 33  1  0  0  0  0
 36 37  1  0  0  0  0
M  END
>  <MODEL>
9

>  <REMARK>
 VINA RESULT:      -7.2      2.574      4.845
  Name = 
  2 active torsions:
  status: ('A' for Active; 'I' for Inactive)
    1  A    between atoms: C_4  and  C_37
    2  A    between atoms: C_23  and  C_30
                            x       y       z     vdW  Elec       q    Type
                         _______ _______ _______ _____ _____    ______ ____

>  <TORSDO>
F 2

$$$$
