=
 OpenBabel11122410543D

 31 35  0  0  1  0  0  0  0  0999 V2000
  184.4730  178.5580  145.2590 C   0  0  0  0  0  0  0  0  0  0  0  0
  187.2830  178.4410  142.6380 C   0  0  2  0  0  3  0  0  0  0  0  0
  188.4330  177.7440  143.3610 C   0  0  0  0  0  0  0  0  0  0  0  0
  189.6050  177.0690  145.3850 C   0  0  0  0  0  0  0  0  0  0  0  0
  185.9150  178.4780  143.2990 C   0  0  0  0  0  0  0  0  0  0  0  0
  183.3750  178.8490  144.4490 C   0  0  0  0  0  3  0  0  0  0  0  0
  188.5030  177.6550  144.7590 C   0  0  0  0  0  3  0  0  0  0  0  0
  186.0290  178.5870  140.4300 C   0  0  0  0  0  0  0  0  0  0  0  0
  184.3170  178.4550  146.6000 F   0  0  0  0  0  0  0  0  0  0  0  0
  189.5380  177.4250  141.2060 O   0  0  0  0  0  0  0  0  0  0  0  0
  189.6470  176.9650  146.8680 C   0  0  0  0  0  1  0  0  0  0  0  0
  184.9510  178.9240  141.0730 N   0  0  0  0  0  0  0  0  0  0  0  0
  187.1830  177.9420  141.1800 C   0  0  1  0  0  3  0  0  0  0  0  0
  186.0040  178.6680  138.9980 N   0  0  0  0  0  2  0  0  0  0  0  0
  185.7380  178.3930  144.6890 C   0  0  0  0  0  3  0  0  0  0  0  0
  190.6680  176.5850  144.6210 C   0  0  0  0  0  3  0  0  0  0  0  0
  184.8040  178.7920  142.4920 C   0  0  0  0  0  0  0  0  0  0  0  0
  183.5420  178.9700  143.0670 C   0  0  0  0  0  3  0  0  0  0  0  0
  188.5390  178.1780  140.5220 C   0  0  0  0  0  2  0  0  0  0  0  0
  189.5370  177.2930  142.5990 C   0  0  0  0  0  0  0  0  0  0  0  0
  190.6340  176.7010  143.2290 C   0  0  0  0  0  3  0  0  0  0  0  0
  186.1310  176.7040  137.5910 C   0  0  0  0  0  1  0  0  0  0  0  0
  186.8830  177.9210  138.1090 C   0  0  1  0  0  3  0  0  0  0  0  0
  189.3510  177.2940  135.5550 C   0  0  1  0  0  3  0  0  0  0  0  0
  187.1250  178.1470  135.5840 C   0  0  0  0  0  2  0  0  0  0  0  0
  189.0790  179.7250  138.2300 F   0  0  0  0  0  0  0  0  0  0  0  0
  190.1990  176.0460  135.4220 C   0  0  0  0  0  1  0  0  0  0  0  0
  187.9380  176.9360  135.4530 N   0  0  0  0  0  2  0  0  0  0  0  0
  188.8060  179.1550  137.0350 N   0  0  0  0  0  0  0  0  0  0  0  0
  187.3740  178.8130  136.9460 C   0  0  2  0  0  3  0  0  0  0  0  0
  189.6280  177.9510  136.9060 C   0  0  0  0  0  2  0  0  0  0  0  0
  1  9  1  0  0  0  0
  2  5  1  1  0  0  0
  2  3  1  0  0  0  0
  3  7  1  0  0  0  0
  4 11  1  0  0  0  0
  5 15  2  0  0  0  0
  6  1  2  0  0  0  0
  7  4  2  0  0  0  0
  8 12  2  0  0  0  0
  8 13  1  0  0  0  0
 10 20  1  0  0  0  0
 12 17  1  0  0  0  0
 13 19  1  6  0  0  0
 13  2  1  0  0  0  0
 14  8  1  0  0  0  0
 15  1  1  0  0  0  0
 16  4  1  0  0  0  0
 17 18  2  0  0  0  0
 17  5  1  0  0  0  0
 18  6  1  0  0  0  0
 19 10  1  0  0  0  0
 20 21  1  0  0  0  0
 20  3  2  0  0  0  0
 21 16  2  0  0  0  0
 23 22  1  6  0  0  0
 23 14  1  0  0  0  0
 24 27  1  1  0  0  0
 24 31  1  0  0  0  0
 25 30  1  0  0  0  0
 28 24  1  0  0  0  0
 28 25  1  0  0  0  0
 29 26  1  0  0  0  0
 30 29  1  0  0  0  0
 30 23  1  1  0  0  0
 31 29  1  0  0  0  0
M  END
>  <MODEL>
1

>  <REMARK>
 VINA RESULT:     -10.4      0.000      0.000
  Name = 
  2 active torsions:
  status: ('A' for Active; 'I' for Inactive)
    1  A    between atoms: C_5  and  N_16
    2  A    between atoms: C_5  and  C_30
                            x       y       z     vdW  Elec       q    Type
                         _______ _______ _______ _____ _____    ______ ____

>  <TORSDO>
F 2

$$$$
=
 OpenBabel11122410543D

 31 35  0  0  1  0  0  0  0  0999 V2000
  190.4850  176.8850  145.7450 C   0  0  0  0  0  0  0  0  0  0  0  0
  187.9390  177.2320  142.8860 C   0  0  2  0  0  3  0  0  0  0  0  0
  186.7740  177.9880  143.5190 C   0  0  0  0  0  0  0  0  0  0  0  0
  185.4680  178.7020  145.4460 C   0  0  0  0  0  0  0  0  0  0  0  0
  189.2360  177.0940  143.6660 C   0  0  0  0  0  0  0  0  0  0  0  0
  191.6320  176.5380  145.0300 C   0  0  0  0  0  3  0  0  0  0  0  0
  186.5830  178.0560  144.9070 C   0  0  0  0  0  3  0  0  0  0  0  0
  189.3780  177.0450  140.7970 C   0  0  0  0  0  0  0  0  0  0  0  0
  190.5250  176.9530  147.0970 F   0  0  0  0  0  0  0  0  0  0  0  0
  185.8930  178.4180  141.2820 O   0  0  0  0  0  0  0  0  0  0  0  0
  185.2970  178.7810  146.9200 C   0  0  0  0  0  1  0  0  0  0  0  0
  190.3690  176.6270  141.5260 N   0  0  0  0  0  0  0  0  0  0  0  0
  188.2030  177.7500  141.4550 C   0  0  1  0  0  3  0  0  0  0  0  0
  189.5280  176.9890  139.3720 N   0  0  0  0  0  2  0  0  0  0  0  0
  189.2910  177.1430  145.0680 C   0  0  0  0  0  3  0  0  0  0  0  0
  184.5110  179.2670  144.6010 C   0  0  0  0  0  3  0  0  0  0  0  0
  190.3940  176.7240  142.9550 C   0  0  0  0  0  0  0  0  0  0  0  0
  191.5850  176.4530  143.6370 C   0  0  0  0  0  3  0  0  0  0  0  0
  186.9010  177.6140  140.6730 C   0  0  0  0  0  2  0  0  0  0  0  0
  185.7750  178.5240  142.6730 C   0  0  0  0  0  0  0  0  0  0  0  0
  184.6640  179.1750  143.2160 C   0  0  0  0  0  3  0  0  0  0  0  0
  189.3530  179.2180  138.4470 C   0  0  0  0  0  1  0  0  0  0  0  0
  188.7830  177.8070  138.4250 C   0  0  1  0  0  3  0  0  0  0  0  0
  186.1400  176.9330  136.1310 C   0  0  1  0  0  3  0  0  0  0  0  0
  188.1960  178.1290  135.9680 C   0  0  0  0  0  2  0  0  0  0  0  0
  188.7220  175.0280  137.8180 F   0  0  0  0  0  0  0  0  0  0  0  0
  184.6540  177.0540  136.3960 C   0  0  0  0  0  1  0  0  0  0  0  0
  186.7600  178.2540  136.2240 N   0  0  0  0  0  2  0  0  0  0  0  0
  188.1970  175.8770  136.9060 N   0  0  0  0  0  0  0  0  0  0  0  0
  188.8450  177.1990  137.0060 C   0  0  2  0  0  3  0  0  0  0  0  0
  186.7610  175.9900  137.1600 C   0  0  0  0  0  2  0  0  0  0  0  0
  1  9  1  0  0  0  0
  2  3  1  1  0  0  0
  2  5  1  0  0  0  0
  3  7  1  0  0  0  0
  4 11  1  0  0  0  0
  5 15  2  0  0  0  0
  6  1  2  0  0  0  0
  7  4  2  0  0  0  0
  8 13  1  0  0  0  0
  8 12  2  0  0  0  0
 10 20  1  0  0  0  0
 12 17  1  0  0  0  0
 13 19  1  6  0  0  0
 13  2  1  0  0  0  0
 14  8  1  0  0  0  0
 15  1  1  0  0  0  0
 16  4  1  0  0  0  0
 17 18  2  0  0  0  0
 17  5  1  0  0  0  0
 18  6  1  0  0  0  0
 19 10  1  0  0  0  0
 20 21  1  0  0  0  0
 20  3  2  0  0  0  0
 21 16  2  0  0  0  0
 23 22  1  6  0  0  0
 23 14  1  0  0  0  0
 24 28  1  0  0  0  0
 24 27  1  1  0  0  0
 24 31  1  0  0  0  0
 25 28  1  0  0  0  0
 25 30  1  0  0  0  0
 29 30  1  0  0  0  0
 29 31  1  0  0  0  0
 29 26  1  0  0  0  0
 30 23  1  1  0  0  0
M  END
>  <MODEL>
2

>  <REMARK>
 VINA RESULT:      -9.4      2.259      4.559
  Name = 
  2 active torsions:
  status: ('A' for Active; 'I' for Inactive)
    1  A    between atoms: C_5  and  N_16
    2  A    between atoms: C_5  and  C_30
                            x       y       z     vdW  Elec       q    Type
                         _______ _______ _______ _____ _____    ______ ____

>  <TORSDO>
F 2

$$$$
=
 OpenBabel11122410543D

 31 35  0  0  1  0  0  0  0  0999 V2000
  189.4040  177.8770  141.5900 C   0  0  0  0  0  0  0  0  0  0  0  0
  185.5930  178.0610  142.0610 C   0  0  2  0  0  3  0  0  0  0  0  0
  185.4170  178.2880  143.5600 C   0  0  0  0  0  0  0  0  0  0  0  0
  186.2020  178.1570  145.8600 C   0  0  0  0  0  0  0  0  0  0  0  0
  186.9880  178.1470  141.4640 C   0  0  0  0  0  0  0  0  0  0  0  0
  189.5030  178.0430  140.2090 C   0  0  0  0  0  3  0  0  0  0  0  0
  186.4250  177.9990  144.4910 C   0  0  0  0  0  3  0  0  0  0  0  0
  184.7540  178.7560  139.7620 C   0  0  0  0  0  0  0  0  0  0  0  0
  190.5190  177.6630  142.3290 F   0  0  0  0  0  0  0  0  0  0  0  0
  183.0900  178.9070  143.1490 O   0  0  0  0  0  0  0  0  0  0  0  0
  187.2920  177.8660  146.8280 C   0  0  0  0  0  1  0  0  0  0  0  0
  185.9280  178.5030  139.2650 N   0  0  0  0  0  0  0  0  0  0  0  0
  184.5930  178.9270  141.2640 C   0  0  1  0  0  3  0  0  0  0  0  0
  183.6910  179.0520  138.8450 N   0  0  0  0  0  2  0  0  0  0  0  0
  188.1530  177.9100  142.2100 C   0  0  0  0  0  3  0  0  0  0  0  0
  184.9550  178.5830  146.3210 C   0  0  0  0  0  3  0  0  0  0  0  0
  187.0960  178.2950  140.0670 C   0  0  0  0  0  0  0  0  0  0  0  0
  188.3500  178.2480  139.4470 C   0  0  0  0  0  3  0  0  0  0  0  0
  183.1930  178.5840  141.7640 C   0  0  0  0  0  2  0  0  0  0  0  0
  184.1430  178.6740  144.0410 C   0  0  0  0  0  0  0  0  0  0  0  0
  183.9260  178.8380  145.4120 C   0  0  0  0  0  3  0  0  0  0  0  0
  182.6610  181.2380  138.7270 C   0  0  0  0  0  1  0  0  0  0  0  0
  182.4870  179.7970  139.1830 C   0  0  1  0  0  3  0  0  0  0  0  0
  179.3180  178.8490  140.6240 C   0  0  1  0  0  3  0  0  0  0  0  0
  180.0030  180.0490  138.6810 C   0  0  0  0  0  2  0  0  0  0  0  0
  181.9840  177.0020  139.0040 F   0  0  0  0  0  0  0  0  0  0  0  0
  178.9310  178.9700  142.0830 C   0  0  0  0  0  1  0  0  0  0  0  0
  179.6280  180.1740  140.0900 N   0  0  0  0  0  2  0  0  0  0  0  0
  180.9140  177.8240  139.0900 N   0  0  0  0  0  0  0  0  0  0  0  0
  181.2410  179.1510  138.5350 C   0  0  2  0  0  3  0  0  0  0  0  0
  180.5380  177.9370  140.4990 C   0  0  0  0  0  2  0  0  0  0  0  0
  1 15  1  0  0  0  0
  1  9  1  0  0  0  0
  2  5  1  6  0  0  0
  2  3  1  0  0  0  0
  3 20  2  0  0  0  0
  3  7  1  0  0  0  0
  4 16  1  0  0  0  0
  4 11  1  0  0  0  0
  5 15  2  0  0  0  0
  6  1  2  0  0  0  0
  7  4  2  0  0  0  0
  8 13  1  0  0  0  0
 10 20  1  0  0  0  0
 12  8  2  0  0  0  0
 12 17  1  0  0  0  0
 13 19  1  1  0  0  0
 13  2  1  0  0  0  0
 14 23  1  0  0  0  0
 14  8  1  0  0  0  0
 17  5  1  0  0  0  0
 18 17  2  0  0  0  0
 18  6  1  0  0  0  0
 19 10  1  0  0  0  0
 20 21  1  0  0  0  0
 21 16  2  0  0  0  0
 23 22  1  6  0  0  0
 24 27  1  1  0  0  0
 25 28  1  0  0  0  0
 26 29  1  0  0  0  0
 28 24  1  0  0  0  0
 29 31  1  0  0  0  0
 30 25  1  0  0  0  0
 30 29  1  0  0  0  0
 30 23  1  1  0  0  0
 31 24  1  0  0  0  0
M  END
>  <MODEL>
3

>  <REMARK>
 VINA RESULT:      -9.3      3.453      6.405
  Name = 
  2 active torsions:
  status: ('A' for Active; 'I' for Inactive)
    1  A    between atoms: C_5  and  N_16
    2  A    between atoms: C_5  and  C_30
                            x       y       z     vdW  Elec       q    Type
                         _______ _______ _______ _____ _____    ______ ____

>  <TORSDO>
F 2

$$$$
=
 OpenBabel11122410543D

 31 35  0  0  1  0  0  0  0  0999 V2000
  187.6260  178.0290  136.3310 C   0  0  0  0  0  0  0  0  0  0  0  0
  187.5630  178.4460  140.1520 C   0  0  2  0  0  3  0  0  0  0  0  0
  186.0760  178.4710  140.4960 C   0  0  0  0  0  0  0  0  0  0  0  0
  183.7400  178.8330  139.9120 C   0  0  0  0  0  0  0  0  0  0  0  0
  187.9830  178.0800  138.7380 C   0  0  0  0  0  0  0  0  0  0  0  0
  188.9530  177.6470  136.1340 C   0  0  0  0  0  3  0  0  0  0  0  0
  185.0850  178.7530  139.5440 C   0  0  0  0  0  3  0  0  0  0  0  0
  189.8270  177.5410  140.8760 C   0  0  0  0  0  0  0  0  0  0  0  0
  186.8030  178.1930  135.2680 F   0  0  0  0  0  0  0  0  0  0  0  0
  186.6570  178.1270  142.8440 O   0  0  0  0  0  0  0  0  0  0  0  0
  182.7040  179.1100  138.8820 C   0  0  0  0  0  1  0  0  0  0  0  0
  190.2190  177.5530  139.6360 N   0  0  0  0  0  0  0  0  0  0  0  0
  188.3440  177.6190  141.1970 C   0  0  1  0  0  3  0  0  0  0  0  0
  190.8090  177.2630  141.8830 N   0  0  0  0  0  2  0  0  0  0  0  0
  187.1500  178.2620  137.6230 C   0  0  0  0  0  3  0  0  0  0  0  0
  183.3690  178.6570  141.2460 C   0  0  0  0  0  3  0  0  0  0  0  0
  189.3270  177.7130  138.5280 C   0  0  0  0  0  0  0  0  0  0  0  0
  189.8040  177.4930  137.2310 C   0  0  0  0  0  3  0  0  0  0  0  0
  188.0520  178.2230  142.5670 C   0  0  0  0  0  2  0  0  0  0  0  0
  185.6930  178.3420  141.8520 C   0  0  0  0  0  0  0  0  0  0  0  0
  184.3450  178.4150  142.2150 C   0  0  0  0  0  3  0  0  0  0  0  0
  190.6400  175.2340  143.1910 C   0  0  0  0  0  1  0  0  0  0  0  0
  190.5110  176.7510  143.2130 C   0  0  1  0  0  3  0  0  0  0  0  0
  189.9690  177.4760  146.7050 C   0  0  1  0  0  3  0  0  0  0  0  0
  191.6950  176.4190  145.4440 C   0  0  0  0  0  2  0  0  0  0  0  0
  190.7040  179.5260  143.8070 F   0  0  0  0  0  0  0  0  0  0  0  0
  188.6820  177.2550  147.4720 C   0  0  0  0  0  1  0  0  0  0  0  0
  190.4520  176.1980  146.1850 N   0  0  0  0  0  2  0  0  0  0  0  0
  190.9540  178.6550  144.8110 N   0  0  0  0  0  0  0  0  0  0  0  0
  191.4520  177.3770  144.2670 C   0  0  2  0  0  3  0  0  0  0  0  0
  189.7110  178.4460  145.5530 C   0  0  0  0  0  2  0  0  0  0  0  0
  1 15  1  0  0  0  0
  2  5  1  6  0  0  0
  2  3  1  0  0  0  0
  2 13  1  0  0  0  0
  3 20  1  0  0  0  0
  4 16  2  0  0  0  0
  6  1  2  0  0  0  0
  6 18  1  0  0  0  0
  7  4  1  0  0  0  0
  7  3  2  0  0  0  0
  8 13  1  0  0  0  0
  8 14  1  0  0  0  0
  9  1  1  0  0  0  0
 11  4  1  0  0  0  0
 12  8  2  0  0  0  0
 13 19  1  1  0  0  0
 14 23  1  0  0  0  0
 15  5  2  0  0  0  0
 16 21  1  0  0  0  0
 17  5  1  0  0  0  0
 17 12  1  0  0  0  0
 18 17  2  0  0  0  0
 19 10  1  0  0  0  0
 20 21  2  0  0  0  0
 20 10  1  0  0  0  0
 23 22  1  6  0  0  0
 24 27  1  6  0  0  0
 25 28  1  0  0  0  0
 26 29  1  0  0  0  0
 28 24  1  0  0  0  0
 29 31  1  0  0  0  0
 30 23  1  6  0  0  0
 30 29  1  0  0  0  0
 30 25  1  0  0  0  0
 31 24  1  0  0  0  0
M  END
>  <MODEL>
4

>  <REMARK>
 VINA RESULT:      -9.1      2.922      7.716
  Name = 
  2 active torsions:
  status: ('A' for Active; 'I' for Inactive)
    1  A    between atoms: C_5  and  N_16
    2  A    between atoms: C_5  and  C_30
                            x       y       z     vdW  Elec       q    Type
                         _______ _______ _______ _____ _____    ______ ____

>  <TORSDO>
F 2

$$$$
=
 OpenBabel11122410543D

 31 35  0  0  1  0  0  0  0  0999 V2000
  184.2810  178.7040  145.0100 C   0  0  0  0  0  0  0  0  0  0  0  0
  187.6460  178.3510  143.1840 C   0  0  2  0  0  3  0  0  0  0  0  0
  188.5740  177.7480  144.2350 C   0  0  0  0  0  0  0  0  0  0  0  0
  189.2060  177.3030  146.5440 C   0  0  0  0  0  0  0  0  0  0  0  0
  186.1580  178.4390  143.4830 C   0  0  0  0  0  0  0  0  0  0  0  0
  183.4190  178.8950  143.9300 C   0  0  0  0  0  3  0  0  0  0  0  0
  188.2980  177.8060  145.6090 C   0  0  0  0  0  3  0  0  0  0  0  0
  186.9730  178.2500  140.7340 C   0  0  0  0  0  0  0  0  0  0  0  0
  183.8000  178.7390  146.2760 F   0  0  0  0  0  0  0  0  0  0  0  0
  190.1690  177.2200  142.4620 O   0  0  0  0  0  0  0  0  0  0  0  0
  188.8830  177.3540  147.9940 C   0  0  0  0  0  1  0  0  0  0  0  0
  185.7740  178.6390  141.0550 N   0  0  0  0  0  0  0  0  0  0  0  0
  187.8990  177.7010  141.8060 C   0  0  1  0  0  3  0  0  0  0  0  0
  187.3000  178.1810  139.3390 N   0  0  0  0  0  2  0  0  0  0  0  0
  185.6450  178.4970  144.7880 C   0  0  0  0  0  3  0  0  0  0  0  0
  190.4170  176.7550  146.1180 C   0  0  0  0  0  3  0  0  0  0  0  0
  185.2830  178.6530  142.4000 C   0  0  0  0  0  0  0  0  0  0  0  0
  183.9200  178.8740  142.6270 C   0  0  0  0  0  3  0  0  0  0  0  0
  189.3780  177.8850  141.4800 C   0  0  0  0  0  2  0  0  0  0  0  0
  189.8250  177.2350  143.8190 C   0  0  0  0  0  0  0  0  0  0  0  0
  190.7270  176.7250  144.7570 C   0  0  0  0  0  3  0  0  0  0  0  0
  187.7310  176.3090  137.8690 C   0  0  0  0  0  1  0  0  0  0  0  0
  188.3600  177.3580  138.7750 C   0  0  1  0  0  3  0  0  0  0  0  0
  189.8740  176.8760  135.5370 C   0  0  1  0  0  3  0  0  0  0  0  0
  188.8100  178.6940  136.6540 C   0  0  0  0  0  2  0  0  0  0  0  0
  191.1890  177.0890  138.9080 F   0  0  0  0  0  0  0  0  0  0  0  0
  189.6610  175.6890  134.6210 C   0  0  0  0  0  1  0  0  0  0  0  0
  188.5970  177.5480  135.7670 N   0  0  0  0  0  2  0  0  0  0  0  0
  190.6590  177.5400  137.7490 N   0  0  0  0  0  0  0  0  0  0  0  0
  189.3790  178.2260  138.0030 C   0  0  2  0  0  3  0  0  0  0  0  0
  190.4570  176.3930  136.8630 C   0  0  0  0  0  2  0  0  0  0  0  0
  1  9  1  0  0  0  0
  2  5  1  1  0  0  0
  2  3  1  0  0  0  0
  3  7  1  0  0  0  0
  4 11  1  0  0  0  0
  5 15  2  0  0  0  0
  6  1  2  0  0  0  0
  7  4  2  0  0  0  0
  8 12  2  0  0  0  0
  8 13  1  0  0  0  0
 10 20  1  0  0  0  0
 12 17  1  0  0  0  0
 13 19  1  6  0  0  0
 13  2  1  0  0  0  0
 14  8  1  0  0  0  0
 15  1  1  0  0  0  0
 16  4  1  0  0  0  0
 17 18  2  0  0  0  0
 17  5  1  0  0  0  0
 18  6  1  0  0  0  0
 19 10  1  0  0  0  0
 20  3  2  0  0  0  0
 20 21  1  0  0  0  0
 21 16  2  0  0  0  0
 23 22  1  6  0  0  0
 23 14  1  0  0  0  0
 24 27  1  6  0  0  0
 24 28  1  0  0  0  0
 24 31  1  0  0  0  0
 25 30  1  0  0  0  0
 28 25  1  0  0  0  0
 29 30  1  0  0  0  0
 29 26  1  0  0  0  0
 30 23  1  6  0  0  0
 31 29  1  0  0  0  0
M  END
>  <MODEL>
5

>  <REMARK>
 VINA RESULT:      -9.0      1.236      1.408
  Name = 
  2 active torsions:
  status: ('A' for Active; 'I' for Inactive)
    1  A    between atoms: C_5  and  N_16
    2  A    between atoms: C_5  and  C_30
                            x       y       z     vdW  Elec       q    Type
                         _______ _______ _______ _____ _____    ______ ____

>  <TORSDO>
F 2

$$$$
=
 OpenBabel11122410543D

 31 35  0  0  1  0  0  0  0  0999 V2000
  185.2810  178.8520  142.5270 C   0  0  0  0  0  0  0  0  0  0  0  0
  189.0120  178.0290  142.0980 C   0  0  2  0  0  3  0  0  0  0  0  0
  189.4510  177.5720  143.4860 C   0  0  0  0  0  0  0  0  0  0  0  0
  189.1940  177.4990  145.9060 C   0  0  0  0  0  0  0  0  0  0  0  0
  187.5310  178.2390  141.8280 C   0  0  0  0  0  0  0  0  0  0  0  0
  184.8700  178.8960  141.1940 C   0  0  0  0  0  3  0  0  0  0  0  0
  188.7250  177.8780  144.6460 C   0  0  0  0  0  3  0  0  0  0  0  0
  189.2200  177.5430  139.6100 C   0  0  0  0  0  0  0  0  0  0  0  0
  184.3990  179.1260  143.5170 F   0  0  0  0  0  0  0  0  0  0  0  0
  191.4940  176.6720  142.4960 O   0  0  0  0  0  0  0  0  0  0  0  0
  188.3980  177.8130  147.1210 C   0  0  0  0  0  1  0  0  0  0  0  0
  188.0320  178.0380  139.4210 N   0  0  0  0  0  0  0  0  0  0  0  0
  189.6550  177.1420  141.0100 C   0  0  1  0  0  3  0  0  0  0  0  0
  189.9990  177.2210  138.4500 N   0  0  0  0  0  2  0  0  0  0  0  0
  186.6070  178.5440  142.8400 C   0  0  0  0  0  3  0  0  0  0  0  0
  190.4130  176.8290  146.0250 C   0  0  0  0  0  3  0  0  0  0  0  0
  187.1110  178.3060  140.4840 C   0  0  0  0  0  0  0  0  0  0  0  0
  185.7850  178.6280  140.1740 C   0  0  0  0  0  3  0  0  0  0  0  0
  191.1660  177.1960  141.2120 C   0  0  0  0  0  2  0  0  0  0  0  0
  190.7060  176.9350  143.6230 C   0  0  0  0  0  0  0  0  0  0  0  0
  191.1700  176.5510  144.8840 C   0  0  0  0  0  3  0  0  0  0  0  0
  190.5550  174.9160  137.9680 C   0  0  0  0  0  1  0  0  0  0  0  0
  191.0960  176.2630  138.4270 C   0  0  1  0  0  3  0  0  0  0  0  0
  194.0450  174.5610  137.2360 C   0  0  1  0  0  3  0  0  0  0  0  0
  192.3380  175.8920  136.2350 C   0  0  0  0  0  2  0  0  0  0  0  0
  193.5080  177.4930  139.2980 F   0  0  0  0  0  0  0  0  0  0  0  0
  194.4660  173.1510  137.5930 C   0  0  0  0  0  1  0  0  0  0  0  0
  192.7400  174.5270  136.5770 N   0  0  0  0  0  2  0  0  0  0  0  0
  193.5560  176.7640  138.1610 N   0  0  0  0  0  0  0  0  0  0  0  0
  192.2350  176.7530  137.5040 C   0  0  2  0  0  3  0  0  0  0  0  0
  193.9660  175.4040  138.5070 C   0  0  0  0  0  2  0  0  0  0  0  0
  1 15  1  0  0  0  0
  1  9  1  0  0  0  0
  2  5  1  1  0  0  0
  2  3  1  0  0  0  0
  3 20  2  0  0  0  0
  3  7  1  0  0  0  0
  4 16  1  0  0  0  0
  4 11  1  0  0  0  0
  5 15  2  0  0  0  0
  6  1  2  0  0  0  0
  7  4  2  0  0  0  0
  8 13  1  0  0  0  0
 10 20  1  0  0  0  0
 12  8  2  0  0  0  0
 12 17  1  0  0  0  0
 13 19  1  6  0  0  0
 13  2  1  0  0  0  0
 14  8  1  0  0  0  0
 17  5  1  0  0  0  0
 18 17  2  0  0  0  0
 18  6  1  0  0  0  0
 19 10  1  0  0  0  0
 20 21  1  0  0  0  0
 21 16  2  0  0  0  0
 23 22  1  6  0  0  0
 23 14  1  0  0  0  0
 24 27  1  1  0  0  0
 24 31  1  0  0  0  0
 25 28  1  0  0  0  0
 25 30  1  0  0  0  0
 28 24  1  0  0  0  0
 29 31  1  0  0  0  0
 29 26  1  0  0  0  0
 30 29  1  0  0  0  0
 30 23  1  1  0  0  0
M  END
>  <MODEL>
6

>  <REMARK>
 VINA RESULT:      -9.0      2.767      3.699
  Name = 
  2 active torsions:
  status: ('A' for Active; 'I' for Inactive)
    1  A    between atoms: C_5  and  N_16
    2  A    between atoms: C_5  and  C_30
                            x       y       z     vdW  Elec       q    Type
                         _______ _______ _______ _____ _____    ______ ____

>  <TORSDO>
F 2

$$$$
=
 OpenBabel11122410543D

 31 35  0  0  1  0  0  0  0  0999 V2000
  183.9890  178.6060  138.3620 C   0  0  0  0  0  0  0  0  0  0  0  0
  185.7720  178.8320  141.7610 C   0  0  2  0  0  3  0  0  0  0  0  0
  184.6360  178.7710  142.7780 C   0  0  0  0  0  0  0  0  0  0  0  0
  182.3030  179.0510  143.4150 C   0  0  0  0  0  0  0  0  0  0  0  0
  185.4640  178.5560  140.2980 C   0  0  0  0  0  0  0  0  0  0  0  0
  185.0620  178.2960  137.5270 C   0  0  0  0  0  3  0  0  0  0  0  0
  183.3040  179.0520  142.4410 C   0  0  0  0  0  3  0  0  0  0  0  0
  188.1200  177.9990  141.2450 C   0  0  0  0  0  0  0  0  0  0  0  0
  182.7520  178.7830  137.8400 F   0  0  0  0  0  0  0  0  0  0  0  0
  186.2850  178.3400  144.5290 O   0  0  0  0  0  0  0  0  0  0  0  0
  180.8940  179.3300  143.0310 C   0  0  0  0  0  1  0  0  0  0  0  0
  187.8640  178.0900  139.9730 N   0  0  0  0  0  0  0  0  0  0  0  0
  186.9740  177.9920  142.2440 C   0  0  1  0  0  3  0  0  0  0  0  0
  189.4710  177.7180  141.6350 N   0  0  0  0  0  2  0  0  0  0  0  0
  184.1930  178.7530  139.7360 C   0  0  0  0  0  3  0  0  0  0  0  0
  182.6250  178.7930  144.7480 C   0  0  0  0  0  3  0  0  0  0  0  0
  186.5450  178.2620  139.4440 C   0  0  0  0  0  0  0  0  0  0  0  0
  186.3400  178.1290  138.0660 C   0  0  0  0  0  3  0  0  0  0  0  0
  187.3710  178.5140  143.6220 C   0  0  0  0  0  2  0  0  0  0  0  0
  184.9580  178.5570  144.1390 C   0  0  0  0  0  0  0  0  0  0  0  0
  183.9520  178.5500  145.1100 C   0  0  0  0  0  3  0  0  0  0  0  0
  189.5940  175.6300  142.8530 C   0  0  0  0  0  1  0  0  0  0  0  0
  189.8610  177.1280  142.9080 C   0  0  1  0  0  3  0  0  0  0  0  0
  191.7110  176.8610  145.9930 C   0  0  1  0  0  3  0  0  0  0  0  0
  192.0690  176.1690  143.7390 C   0  0  0  0  0  2  0  0  0  0  0  0
  190.8980  179.6250  143.7930 F   0  0  0  0  0  0  0  0  0  0  0  0
  191.1470  176.4550  147.3380 C   0  0  0  0  0  1  0  0  0  0  0  0
  191.5230  175.7710  145.0370 N   0  0  0  0  0  2  0  0  0  0  0  0
  191.5370  178.5050  144.2000 N   0  0  0  0  0  0  0  0  0  0  0  0
  191.3470  177.4210  143.2170 C   0  0  2  0  0  3  0  0  0  0  0  0
  190.9940  178.1170  145.5010 C   0  0  0  0  0  2  0  0  0  0  0  0
  1 15  1  0  0  0  0
  2  5  1  6  0  0  0
  2 13  1  0  0  0  0
  2  3  1  0  0  0  0
  3 20  1  0  0  0  0
  4 16  2  0  0  0  0
  6 18  1  0  0  0  0
  6  1  2  0  0  0  0
  7  3  2  0  0  0  0
  7  4  1  0  0  0  0
  8 14  1  0  0  0  0
  8 13  1  0  0  0  0
  9  1  1  0  0  0  0
 11  4  1  0  0  0  0
 12  8  2  0  0  0  0
 13 19  1  1  0  0  0
 14 23  1  0  0  0  0
 15  5  2  0  0  0  0
 16 21  1  0  0  0  0
 17 12  1  0  0  0  0
 17  5  1  0  0  0  0
 18 17  2  0  0  0  0
 19 10  1  0  0  0  0
 20 10  1  0  0  0  0
 20 21  2  0  0  0  0
 23 22  1  6  0  0  0
 24 27  1  1  0  0  0
 25 28  1  0  0  0  0
 26 29  1  0  0  0  0
 28 24  1  0  0  0  0
 29 31  1  0  0  0  0
 30 23  1  1  0  0  0
 30 25  1  0  0  0  0
 30 29  1  0  0  0  0
 31 24  1  0  0  0  0
M  END
>  <MODEL>
7

>  <REMARK>
 VINA RESULT:      -8.9      3.072      6.832
  Name = 
  2 active torsions:
  status: ('A' for Active; 'I' for Inactive)
    1  A    between atoms: C_5  and  N_16
    2  A    between atoms: C_5  and  C_30
                            x       y       z     vdW  Elec       q    Type
                         _______ _______ _______ _____ _____    ______ ____

>  <TORSDO>
F 2

$$$$
=
 OpenBabel11122410543D

 31 35  0  0  1  0  0  0  0  0999 V2000
  186.4650  178.1550  145.9980 C   0  0  0  0  0  0  0  0  0  0  0  0
  185.6950  178.8650  142.2980 C   0  0  2  0  0  3  0  0  0  0  0  0
  186.9460  178.3900  141.5640 C   0  0  0  0  0  0  0  0  0  0  0  0
  189.3170  177.8440  141.4880 C   0  0  0  0  0  0  0  0  0  0  0  0
  185.5470  178.5460  143.7770 C   0  0  0  0  0  0  0  0  0  0  0  0
  185.1890  178.2530  146.5520 C   0  0  0  0  0  3  0  0  0  0  0  0
  188.1790  178.2150  142.2080 C   0  0  0  0  0  3  0  0  0  0  0  0
  183.1530  178.8920  142.2260 C   0  0  0  0  0  0  0  0  0  0  0  0
  187.5340  177.9200  146.7960 F   0  0  0  0  0  0  0  0  0  0  0  0
  185.6990  178.4880  139.4660 O   0  0  0  0  0  0  0  0  0  0  0  0
  190.6090  177.6410  142.1950 C   0  0  0  0  0  1  0  0  0  0  0  0
  183.1240  178.9310  143.5260 N   0  0  0  0  0  0  0  0  0  0  0  0
  184.4260  178.4660  141.5140 C   0  0  1  0  0  3  0  0  0  0  0  0
  181.9140  179.0720  141.5260 N   0  0  0  0  0  2  0  0  0  0  0  0
  186.6450  178.3190  144.6220 C   0  0  0  0  0  3  0  0  0  0  0  0
  189.2430  177.6680  140.1050 C   0  0  0  0  0  3  0  0  0  0  0  0
  184.2650  178.6630  144.3490 C   0  0  0  0  0  0  0  0  0  0  0  0
  184.0900  178.5120  145.7280 C   0  0  0  0  0  3  0  0  0  0  0  0
  184.5570  179.0480  140.1100 C   0  0  0  0  0  2  0  0  0  0  0  0
  186.8940  178.2550  140.1560 C   0  0  0  0  0  0  0  0  0  0  0  0
  188.0330  177.8780  139.4410 C   0  0  0  0  0  3  0  0  0  0  0  0
  181.3070  177.1280  140.2200 C   0  0  0  0  0  1  0  0  0  0  0  0
  181.6520  178.6100  140.1710 C   0  0  1  0  0  3  0  0  0  0  0  0
  180.5870  178.8250  136.7310 C   0  0  1  0  0  3  0  0  0  0  0  0
  179.4910  178.5160  138.8260 C   0  0  0  0  0  2  0  0  0  0  0  0
  181.9150  181.2310  139.0960 F   0  0  0  0  0  0  0  0  0  0  0  0
  181.2300  178.1220  135.5530 C   0  0  0  0  0  1  0  0  0  0  0  0
  180.1100  177.8300  137.6900 N   0  0  0  0  0  2  0  0  0  0  0  0
  180.9930  180.4160  138.5340 N   0  0  0  0  0  0  0  0  0  0  0  0
  180.5140  179.4290  139.5210 C   0  0  2  0  0  3  0  0  0  0  0  0
  181.6140  179.7410  137.3950 C   0  0  0  0  0  2  0  0  0  0  0  0
  1  6  1  0  0  0  0
  1  9  1  0  0  0  0
  2  3  1  6  0  0  0
  2  5  1  0  0  0  0
  3  7  1  0  0  0  0
  4 11  1  0  0  0  0
  4  7  2  0  0  0  0
  5 17  2  0  0  0  0
  5 15  1  0  0  0  0
  8 12  2  0  0  0  0
 10 19  1  0  0  0  0
 10 20  1  0  0  0  0
 12 17  1  0  0  0  0
 13 19  1  6  0  0  0
 13  8  1  0  0  0  0
 13  2  1  0  0  0  0
 14  8  1  0  0  0  0
 15  1  2  0  0  0  0
 16  4  1  0  0  0  0
 17 18  1  0  0  0  0
 18  6  2  0  0  0  0
 20  3  2  0  0  0  0
 21 16  2  0  0  0  0
 21 20  1  0  0  0  0
 23 22  1  1  0  0  0
 23 14  1  0  0  0  0
 24 27  1  6  0  0  0
 24 31  1  0  0  0  0
 24 28  1  0  0  0  0
 25 30  1  0  0  0  0
 28 25  1  0  0  0  0
 29 26  1  0  0  0  0
 29 30  1  0  0  0  0
 30 23  1  6  0  0  0
 31 29  1  0  0  0  0
M  END
>  <MODEL>
8

>  <REMARK>
 VINA RESULT:      -8.9      3.502      5.215
  Name = 
  2 active torsions:
  status: ('A' for Active; 'I' for Inactive)
    1  A    between atoms: C_5  and  N_16
    2  A    between atoms: C_5  and  C_30
                            x       y       z     vdW  Elec       q    Type
                         _______ _______ _______ _____ _____    ______ ____

>  <TORSDO>
F 2

$$$$
=
 OpenBabel11122410543D

 31 35  0  0  1  0  0  0  0  0999 V2000
  190.4650  176.8390  145.7610 C   0  0  0  0  0  0  0  0  0  0  0  0
  187.8090  177.3620  143.0300 C   0  0  2  0  0  3  0  0  0  0  0  0
  186.6650  178.0620  143.7580 C   0  0  0  0  0  0  0  0  0  0  0  0
  185.4280  178.6280  145.7770 C   0  0  0  0  0  0  0  0  0  0  0  0
  189.1360  177.1810  143.7500 C   0  0  0  0  0  0  0  0  0  0  0  0
  191.5850  176.5530  144.9810 C   0  0  0  0  0  3  0  0  0  0  0  0
  186.5260  178.0320  145.1530 C   0  0  0  0  0  3  0  0  0  0  0  0
  189.1690  177.3330  140.8810 C   0  0  0  0  0  0  0  0  0  0  0  0
  190.5550  176.8130  147.1120 F   0  0  0  0  0  0  0  0  0  0  0  0
  185.6970  178.6390  141.5910 O   0  0  0  0  0  0  0  0  0  0  0  0
  185.3130  178.6030  147.2590 C   0  0  0  0  0  1  0  0  0  0  0  0
  190.1900  176.8740  141.5420 N   0  0  0  0  0  0  0  0  0  0  0  0
  188.0160  177.9800  141.6310 C   0  0  1  0  0  3  0  0  0  0  0  0
  189.2660  177.3770  139.4510 N   0  0  0  0  0  2  0  0  0  0  0  0
  189.2440  177.1330  145.1490 C   0  0  0  0  0  3  0  0  0  0  0  0
  184.4370  179.2420  145.0110 C   0  0  0  0  0  3  0  0  0  0  0  0
  190.2690  176.8710  142.9720 C   0  0  0  0  0  0  0  0  0  0  0  0
  191.4860  176.5650  143.5880 C   0  0  0  0  0  3  0  0  0  0  0  0
  186.6860  177.8880  140.8900 C   0  0  0  0  0  2  0  0  0  0  0  0
  185.6310  178.6460  142.9890 C   0  0  0  0  0  0  0  0  0  0  0  0
  184.5380  179.2480  143.6170 C   0  0  0  0  0  3  0  0  0  0  0  0
  189.4300  179.1450  137.8070 C   0  0  0  0  0  1  0  0  0  0  0  0
  188.4800  178.2530  138.5920 C   0  0  1  0  0  3  0  0  0  0  0  0
  189.2870  176.3740  135.6210 C   0  0  1  0  0  3  0  0  0  0  0  0
  188.0140  175.9570  137.5940 C   0  0  0  0  0  2  0  0  0  0  0  0
  187.1800  179.2530  136.2680 F   0  0  0  0  0  0  0  0  0  0  0  0
  190.6550  176.2610  134.9820 C   0  0  0  0  0  1  0  0  0  0  0  0
  189.3390  175.8430  136.9820 N   0  0  0  0  0  2  0  0  0  0  0  0
  187.5410  177.9490  136.2690 N   0  0  0  0  0  0  0  0  0  0  0  0
  187.5750  177.4290  137.6480 C   0  0  2  0  0  3  0  0  0  0  0  0
  188.8610  177.8410  135.6480 C   0  0  0  0  0  2  0  0  0  0  0  0
  1  9  1  0  0  0  0
  2  5  1  1  0  0  0
  2  3  1  0  0  0  0
  3  7  1  0  0  0  0
  4 11  1  0  0  0  0
  5 15  2  0  0  0  0
  6  1  2  0  0  0  0
  7  4  2  0  0  0  0
  8 12  2  0  0  0  0
  8 13  1  0  0  0  0
 10 20  1  0  0  0  0
 12 17  1  0  0  0  0
 13 19  1  6  0  0  0
 13  2  1  0  0  0  0
 14  8  1  0  0  0  0
 15  1  1  0  0  0  0
 16  4  1  0  0  0  0
 17 18  2  0  0  0  0
 17  5  1  0  0  0  0
 18  6  1  0  0  0  0
 19 10  1  0  0  0  0
 20 21  1  0  0  0  0
 20  3  2  0  0  0  0
 21 16  2  0  0  0  0
 23 22  1  6  0  0  0
 23 14  1  0  0  0  0
 24 27  1  1  0  0  0
 24 31  1  0  0  0  0
 24 28  1  0  0  0  0
 25 30  1  0  0  0  0
 26 29  1  0  0  0  0
 28 25  1  0  0  0  0
 29 30  1  0  0  0  0
 30 23  1  1  0  0  0
 31 29  1  0  0  0  0
M  END
>  <MODEL>
9

>  <REMARK>
 VINA RESULT:      -8.7      2.117      4.289
  Name = 
  2 active torsions:
  status: ('A' for Active; 'I' for Inactive)
    1  A    between atoms: C_5  and  N_16
    2  A    between atoms: C_5  and  C_30
                            x       y       z     vdW  Elec       q    Type
                         _______ _______ _______ _____ _____    ______ ____

>  <TORSDO>
F 2

$$$$
