=
 OpenBabel11122410463D

 32 37  0  0  1  0  0  0  0  0999 V2000
  189.5850  176.2840  146.8850 C   0  0  0  0  0  2  0  0  0  0  0  0
  188.4200  178.5120  142.2230 C   0  0  0  0  0  0  0  0  0  0  0  0
  192.2360  177.1790  139.5400 O   0  0  0  0  0  0  0  0  0  0  0  0
  191.5100  176.0860  139.0260 C   0  0  0  0  0  2  0  0  0  0  0  0
  186.1680  178.7020  141.0180 C   0  0  0  0  0  0  0  0  0  0  0  0
  185.4310  178.5020  139.8470 C   0  0  0  0  0  0  0  0  0  0  0  0
  188.7450  178.2620  144.6940 C   0  0  2  0  0  3  0  0  0  0  0  0
  190.7420  178.6900  143.2940 C   0  0  0  0  0  2  0  0  0  0  0  0
  185.0850  177.9360  137.6550 N   0  0  0  0  0  0  0  0  0  0  0  0
  191.0670  177.9450  145.6180 C   0  0  0  0  0  2  0  0  0  0  0  0
  191.8600  177.3480  140.8930 C   0  0  0  0  0  2  0  0  0  0  0  0
  189.9160  178.6170  142.0010 C   0  0  1  0  0  3  0  0  0  0  0  0
  190.3300  177.4690  141.0850 C   0  0  1  0  0  3  0  0  0  0  0  0
  188.1490  177.8660  139.8160 C   0  0  0  0  0  0  0  0  0  0  0  0
  183.7820  178.3930  138.1200 C   0  0  0  0  0  3  0  0  0  0  0  0
  188.7140  177.3770  146.9390 O   0  0  0  0  0  0  0  0  0  0  0  0
  190.1760  177.7950  144.3880 C   0  0  1  0  0  3  0  0  0  0  0  0
  183.9840  178.7850  139.6000 C   0  0  0  0  0  3  0  0  0  0  0  0
  188.0480  177.3550  145.7080 C   0  0  0  0  0  2  0  0  0  0  0  0
  191.0130  176.7310  146.5480 C   0  0  1  0  0  3  0  0  0  0  0  0
  190.0430  176.4760  138.7980 C   0  0  0  0  0  2  0  0  0  0  0  0
  189.6440  177.6320  139.7230 C   0  0  2  0  0  3  0  0  0  0  0  0
  187.3680  177.7140  138.6560 C   0  0  0  0  0  3  0  0  0  0  0  0
  187.9160  178.2800  143.4450 C   0  0  0  0  0  3  0  0  0  0  0  0
  185.4850  179.3100  142.2030 C   0  0  0  0  0  1  0  0  0  0  0  0
  185.3690  177.4800  136.3060 C   0  0  0  0  0  1  0  0  0  0  0  0
  187.5560  178.3710  141.0150 C   0  0  0  0  0  0  0  0  0  0  0  0
  186.0140  178.0210  138.7130 C   0  0  0  0  0  0  0  0  0  0  0  0
  191.7410  177.0360  147.7700 N   0  0  0  0  0  2  0  0  0  0  0  0
  192.8070  176.2190  148.2590 C   0  0  0  0  0  0  0  0  0  0  0  0
  193.1780  175.1990  147.6210 O   0  0  0  0  0  0  0  0  0  0  0  0
  193.4580  176.5650  149.4750 N   0  0  0  0  0  1  0  0  0  0  0  0
  1 16  1  0  0  0  0
  2 24  2  0  0  0  0
  3 11  1  0  0  0  0
  4  3  1  0  0  0  0
  5 25  1  0  0  0  0
  6  5  2  0  0  0  0
  7 24  1  6  0  0  0
  7 19  1  0  0  0  0
  9 15  1  0  0  0  0
  9 28  1  0  0  0  0
 10 20  1  0  0  0  0
 12  2  1  0  0  0  0
 12  8  1  1  0  0  0
 13 11  1  6  0  0  0
 13 12  1  0  0  0  0
 14 27  2  0  0  0  0
 15 18  2  0  0  0  0
 17  8  1  6  0  0  0
 17  7  1  0  0  0  0
 17 10  1  0  0  0  0
 18  6  1  0  0  0  0
 19 16  1  0  0  0  0
 20  1  1  0  0  0  0
 20 29  1  1  0  0  0
 21  4  1  0  0  0  0
 22 21  1  6  0  0  0
 22 14  1  0  0  0  0
 22 13  1  0  0  0  0
 23 28  2  0  0  0  0
 23 14  1  0  0  0  0
 26  9  1  0  0  0  0
 27  5  1  0  0  0  0
 27  2  1  0  0  0  0
 28  6  1  0  0  0  0
 29 30  1  0  0  0  0
 30 32  1  0  0  0  0
 31 30  2  0  0  0  0
M  END
>  <MODEL>
1

>  <REMARK>
 VINA RESULT:      -8.1      0.000      0.000
  Name = 
  1 active torsions:
  status: ('A' for Active; 'I' for Inactive)
    1  A    between atoms: C_20  and  N_29
                            x       y       z     vdW  Elec       q    Type
                         _______ _______ _______ _____ _____    ______ ____

>  <TORSDO>
F 1

$$$$
=
 OpenBabel11122410463D

 32 37  0  0  1  0  0  0  0  0999 V2000
  182.4380  177.4230  140.1450 C   0  0  0  0  0  2  0  0  0  0  0  0
  187.6200  178.2530  139.4240 C   0  0  0  0  0  0  0  0  0  0  0  0
  189.3370  177.5570  143.9080 O   0  0  0  0  0  0  0  0  0  0  0  0
  189.6620  176.2230  143.5920 C   0  0  0  0  0  2  0  0  0  0  0  0
  189.1350  177.5490  137.4820 C   0  0  0  0  0  0  0  0  0  0  0  0
  190.3120  176.9170  137.0670 C   0  0  0  0  0  0  0  0  0  0  0  0
  185.1430  178.6020  139.2990 C   0  0  2  0  0  3  0  0  0  0  0  0
  186.3140  179.2950  141.3680 C   0  0  0  0  0  2  0  0  0  0  0  0
  192.3230  175.8510  137.3170 N   0  0  0  0  0  0  0  0  0  0  0  0
  183.8570  179.1520  141.3940 C   0  0  0  0  0  2  0  0  0  0  0  0
  188.1330  177.8770  143.2390 C   0  0  0  0  0  2  0  0  0  0  0  0
  187.6510  178.7330  140.8620 C   0  0  1  0  0  3  0  0  0  0  0  0
  188.1900  177.5930  141.7200 C   0  0  1  0  0  3  0  0  0  0  0  0
  189.8080  177.0900  139.8080 C   0  0  0  0  0  0  0  0  0  0  0  0
  192.1700  176.0010  135.8760 C   0  0  0  0  0  3  0  0  0  0  0  0
  182.7760  178.2100  139.0380 O   0  0  0  0  0  0  0  0  0  0  0  0
  185.1240  178.5120  140.8330 C   0  0  1  0  0  3  0  0  0  0  0  0
  190.8190  176.7210  135.6750 C   0  0  0  0  0  3  0  0  0  0  0  0
  184.0440  177.7550  138.6580 C   0  0  0  0  0  2  0  0  0  0  0  0
  182.6740  178.1830  141.4560 C   0  0  1  0  0  3  0  0  0  0  0  0
  190.1800  176.1240  142.1500 C   0  0  0  0  0  2  0  0  0  0  0  0
  189.6320  177.2790  141.3020 C   0  0  2  0  0  3  0  0  0  0  0  0
  190.9910  176.4940  139.3360 C   0  0  0  0  0  3  0  0  0  0  0  0
  186.4600  178.1340  138.7590 C   0  0  0  0  0  3  0  0  0  0  0  0
  188.2430  178.1590  136.4490 C   0  0  0  0  0  1  0  0  0  0  0  0
  193.4660  175.2370  137.9680 C   0  0  0  0  0  1  0  0  0  0  0  0
  188.8640  177.6330  138.8810 C   0  0  0  0  0  0  0  0  0  0  0  0
  191.2000  176.4070  137.9660 C   0  0  0  0  0  0  0  0  0  0  0  0
  181.4750  178.9200  141.8270 N   0  0  0  0  0  2  0  0  0  0  0  0
  181.0640  179.0940  143.1850 C   0  0  0  0  0  0  0  0  0  0  0  0
  181.7540  178.6270  144.1290 O   0  0  0  0  0  0  0  0  0  0  0  0
  179.8670  179.8060  143.4710 N   0  0  0  0  0  1  0  0  0  0  0  0
  1 20  1  0  0  0  0
  2 12  1  0  0  0  0
  4  3  1  0  0  0  0
  5 27  1  0  0  0  0
  6  5  2  0  0  0  0
  6 28  1  0  0  0  0
  7 19  1  6  0  0  0
  7 17  1  0  0  0  0
  9 28  1  0  0  0  0
  9 26  1  0  0  0  0
 10 20  1  0  0  0  0
 11  3  1  0  0  0  0
 12  8  1  1  0  0  0
 12 13  1  0  0  0  0
 13 11  1  1  0  0  0
 14 22  1  0  0  0  0
 15  9  1  0  0  0  0
 16  1  1  0  0  0  0
 17  8  1  1  0  0  0
 17 10  1  0  0  0  0
 18 15  2  0  0  0  0
 18  6  1  0  0  0  0
 19 16  1  0  0  0  0
 20 29  1  6  0  0  0
 21  4  1  0  0  0  0
 22 13  1  0  0  0  0
 22 21  1  1  0  0  0
 23 14  1  0  0  0  0
 24  7  1  0  0  0  0
 24  2  2  0  0  0  0
 25  5  1  0  0  0  0
 27  2  1  0  0  0  0
 27 14  2  0  0  0  0
 28 23  2  0  0  0  0
 29 30  1  0  0  0  0
 30 32  1  0  0  0  0
 30 31  2  0  0  0  0
M  END
>  <MODEL>
2

>  <REMARK>
 VINA RESULT:      -7.8      3.830      7.498
  Name = 
  1 active torsions:
  status: ('A' for Active; 'I' for Inactive)
    1  A    between atoms: C_20  and  N_29
                            x       y       z     vdW  Elec       q    Type
                         _______ _______ _______ _____ _____    ______ ____

>  <TORSDO>
F 1

$$$$
=
 OpenBabel11122410463D

 32 37  0  0  1  0  0  0  0  0999 V2000
  188.1360  176.6470  145.5770 C   0  0  0  0  0  2  0  0  0  0  0  0
  187.1030  178.3880  140.6820 C   0  0  0  0  0  0  0  0  0  0  0  0
  190.9650  176.7500  138.2440 O   0  0  0  0  0  0  0  0  0  0  0  0
  190.2390  175.6150  137.8290 C   0  0  0  0  0  2  0  0  0  0  0  0
  184.8810  178.4700  139.4100 C   0  0  0  0  0  0  0  0  0  0  0  0
  184.1690  178.1540  138.2480 C   0  0  0  0  0  0  0  0  0  0  0  0
  187.3670  178.3930  143.1730 C   0  0  2  0  0  3  0  0  0  0  0  0
  189.4010  178.6560  141.7840 C   0  0  0  0  0  2  0  0  0  0  0  0
  183.8680  177.3660  136.1200 N   0  0  0  0  0  0  0  0  0  0  0  0
  189.6640  178.1550  144.1800 C   0  0  0  0  0  2  0  0  0  0  0  0
  190.5590  177.0630  139.5630 C   0  0  0  0  0  2  0  0  0  0  0  0
  188.6050  178.4560  140.4860 C   0  0  1  0  0  3  0  0  0  0  0  0
  189.0270  177.2150  139.7050 C   0  0  1  0  0  3  0  0  0  0  0  0
  186.8800  177.4960  138.3490 C   0  0  0  0  0  0  0  0  0  0  0  0
  182.5590  177.8800  136.5030 C   0  0  0  0  0  3  0  0  0  0  0  0
  187.2750  177.7470  145.4960 O   0  0  0  0  0  0  0  0  0  0  0  0
  188.8010  177.8850  142.9510 C   0  0  1  0  0  3  0  0  0  0  0  0
  182.7320  178.4230  137.9390 C   0  0  0  0  0  3  0  0  0  0  0  0
  186.6380  177.6030  144.2590 C   0  0  0  0  0  2  0  0  0  0  0  0
  189.5760  177.0450  145.2290 C   0  0  1  0  0  3  0  0  0  0  0  0
  188.7820  175.9910  137.5270 C   0  0  0  0  0  2  0  0  0  0  0  0
  188.3740  177.2410  138.3170 C   0  0  2  0  0  3  0  0  0  0  0  0
  186.1240  177.2300  137.1930 C   0  0  0  0  0  3  0  0  0  0  0  0
  186.5680  178.2880  141.9090 C   0  0  0  0  0  3  0  0  0  0  0  0
  184.1780  179.2030  140.5080 C   0  0  0  0  0  1  0  0  0  0  0  0
  184.1770  176.7700  134.8320 C   0  0  0  0  0  1  0  0  0  0  0  0
  186.2650  178.1290  139.4740 C   0  0  0  0  0  0  0  0  0  0  0  0
  184.7730  177.5530  137.1850 C   0  0  0  0  0  0  0  0  0  0  0  0
  190.2790  177.4690  146.4310 N   0  0  0  0  0  2  0  0  0  0  0  0
  191.4080  176.7670  146.9540 C   0  0  0  0  0  0  0  0  0  0  0  0
  191.8600  175.7490  146.3660 O   0  0  0  0  0  0  0  0  0  0  0  0
  192.0310  177.2260  148.1470 N   0  0  0  0  0  1  0  0  0  0  0  0
  2 24  2  0  0  0  0
  3 11  1  0  0  0  0
  4  3  1  0  0  0  0
  5 27  1  0  0  0  0
  5 25  1  0  0  0  0
  6  5  2  0  0  0  0
  7 24  1  6  0  0  0
  7 19  1  0  0  0  0
  9 15  1  0  0  0  0
  9 28  1  0  0  0  0
 10 20  1  0  0  0  0
 12  2  1  0  0  0  0
 12  8  1  1  0  0  0
 13 11  1  6  0  0  0
 13 12  1  0  0  0  0
 14 27  2  0  0  0  0
 15 18  2  0  0  0  0
 16  1  1  0  0  0  0
 17  8  1  6  0  0  0
 17  7  1  0  0  0  0
 17 10  1  0  0  0  0
 18  6  1  0  0  0  0
 19 16  1  0  0  0  0
 20  1  1  0  0  0  0
 20 29  1  1  0  0  0
 21  4  1  0  0  0  0
 22 21  1  1  0  0  0
 22 14  1  0  0  0  0
 22 13  1  0  0  0  0
 23 14  1  0  0  0  0
 26  9  1  0  0  0  0
 27  2  1  0  0  0  0
 28 23  2  0  0  0  0
 28  6  1  0  0  0  0
 29 30  1  0  0  0  0
 30 32  1  0  0  0  0
 31 30  2  0  0  0  0
M  END
>  <MODEL>
3

>  <REMARK>
 VINA RESULT:      -7.6      1.316      2.003
  Name = 
  1 active torsions:
  status: ('A' for Active; 'I' for Inactive)
    1  A    between atoms: C_20  and  N_29
                            x       y       z     vdW  Elec       q    Type
                         _______ _______ _______ _____ _____    ______ ____

>  <TORSDO>
F 1

$$$$
=
 OpenBabel11122410463D

 32 37  0  0  1  0  0  0  0  0999 V2000
  183.0680  176.1960  136.7290 C   0  0  0  0  0  2  0  0  0  0  0  0
  186.3840  178.5230  140.1420 C   0  0  0  0  0  0  0  0  0  0  0  0
  183.4190  179.4840  143.8600 O   0  0  0  0  0  0  0  0  0  0  0  0
  183.8260  178.3000  144.5080 C   0  0  0  0  0  2  0  0  0  0  0  0
  188.8120  177.9420  140.7180 C   0  0  0  0  0  0  0  0  0  0  0  0
  189.7600  177.6640  141.7070 C   0  0  0  0  0  0  0  0  0  0  0  0
  185.2190  177.9850  137.9910 C   0  0  2  0  0  3  0  0  0  0  0  0
  184.0710  179.4830  139.5950 C   0  0  0  0  0  2  0  0  0  0  0  0
  190.5610  177.4190  143.8390 N   0  0  0  0  0  0  0  0  0  0  0  0
  182.7750  178.5360  137.7290 C   0  0  0  0  0  2  0  0  0  0  0  0
  183.3770  179.2220  142.4700 C   0  0  0  0  0  2  0  0  0  0  0  0
  185.1830  179.3000  140.6410 C   0  0  1  0  0  3  0  0  0  0  0  0
  184.6990  178.6340  141.9250 C   0  0  1  0  0  3  0  0  0  0  0  0
  187.1590  178.2790  142.5140 C   0  0  0  0  0  0  0  0  0  0  0  0
  191.7180  177.1750  142.9880 C   0  0  0  0  0  3  0  0  0  0  0  0
  184.2090  176.7760  136.1630 O   0  0  0  0  0  0  0  0  0  0  0  0
  183.8950  178.2460  138.7250 C   0  0  1  0  0  3  0  0  0  0  0  0
  191.2090  177.3370  141.5390 C   0  0  0  0  0  3  0  0  0  0  0  0
  185.1780  176.6970  137.1690 C   0  0  0  0  0  2  0  0  0  0  0  0
  182.0860  177.2680  137.2170 C   0  0  1  0  0  3  0  0  0  0  0  0
  185.3250  178.0540  144.2860 C   0  0  0  0  0  2  0  0  0  0  0  0
  185.7950  178.7330  142.9940 C   0  0  2  0  0  3  0  0  0  0  0  0
  188.1600  178.0220  143.4680 C   0  0  0  0  0  3  0  0  0  0  0  0
  186.3510  177.8750  138.9670 C   0  0  0  0  0  3  0  0  0  0  0  0
  189.2500  177.9670  139.2880 C   0  0  0  0  0  1  0  0  0  0  0  0
  190.5800  177.3880  145.2900 C   0  0  0  0  0  1  0  0  0  0  0  0
  187.4780  178.2490  141.1200 C   0  0  0  0  0  0  0  0  0  0  0  0
  189.4390  177.7000  143.0310 C   0  0  0  0  0  0  0  0  0  0  0  0
  181.1670  177.6260  136.1470 N   0  0  0  0  0  2  0  0  0  0  0  0
  179.7900  177.9300  136.3810 C   0  0  0  0  0  0  0  0  0  0  0  0
  179.3210  177.9220  137.5500 O   0  0  0  0  0  0  0  0  0  0  0  0
  178.9440  178.2470  135.2830 N   0  0  0  0  0  1  0  0  0  0  0  0
  1 20  1  0  0  0  0
  2 12  1  0  0  0  0
  2 27  1  0  0  0  0
  3  4  1  0  0  0  0
  5 27  2  0  0  0  0
  5  6  1  0  0  0  0
  6 28  2  0  0  0  0
  7 19  1  1  0  0  0
  7 17  1  0  0  0  0
  7 24  1  0  0  0  0
  9 26  1  0  0  0  0
 11  3  1  0  0  0  0
 12  8  1  6  0  0  0
 12 13  1  0  0  0  0
 13 11  1  1  0  0  0
 13 22  1  0  0  0  0
 14 22  1  0  0  0  0
 14 23  2  0  0  0  0
 15  9  1  0  0  0  0
 16  1  1  0  0  0  0
 16 19  1  0  0  0  0
 17 10  1  6  0  0  0
 17  8  1  0  0  0  0
 18  6  1  0  0  0  0
 18 15  2  0  0  0  0
 20 29  1  6  0  0  0
 20 10  1  0  0  0  0
 21  4  1  0  0  0  0
 22 21  1  1  0  0  0
 24  2  2  0  0  0  0
 25  5  1  0  0  0  0
 27 14  1  0  0  0  0
 28 23  1  0  0  0  0
 28  9  1  0  0  0  0
 29 30  1  0  0  0  0
 30 31  2  0  0  0  0
 32 30  1  0  0  0  0
M  END
>  <MODEL>
4

>  <REMARK>
 VINA RESULT:      -7.5      3.702      9.702
  Name = 
  1 active torsions:
  status: ('A' for Active; 'I' for Inactive)
    1  A    between atoms: C_20  and  N_29
                            x       y       z     vdW  Elec       q    Type
                         _______ _______ _______ _____ _____    ______ ____

>  <TORSDO>
F 1

$$$$
=
 OpenBabel11122410463D

 32 37  0  0  1  0  0  0  0  0999 V2000
  190.5180  176.3530  140.6680 C   0  0  0  0  0  2  0  0  0  0  0  0
  185.7460  178.6280  140.3460 C   0  0  0  0  0  0  0  0  0  0  0  0
  184.1960  177.0050  136.0440 O   0  0  0  0  0  0  0  0  0  0  0  0
  183.4880  175.9640  136.6770 C   0  0  0  0  0  2  0  0  0  0  0  0
  183.9710  178.9710  142.1610 C   0  0  0  0  0  0  0  0  0  0  0  0
  182.6400  178.8160  142.5600 C   0  0  0  0  0  0  0  0  0  0  0  0
  188.2070  178.3710  140.7310 C   0  0  2  0  0  3  0  0  0  0  0  0
  187.4150  178.6450  138.4010 C   0  0  0  0  0  2  0  0  0  0  0  0
  180.4300  178.2610  142.3300 N   0  0  0  0  0  0  0  0  0  0  0  0
  189.7290  177.8950  138.7810 C   0  0  0  0  0  2  0  0  0  0  0  0
  185.3950  177.2100  136.7650 C   0  0  0  0  0  2  0  0  0  0  0  0
  185.9440  178.6230  138.8430 C   0  0  1  0  0  3  0  0  0  0  0  0
  185.1620  177.4420  138.2760 C   0  0  1  0  0  3  0  0  0  0  0  0
  183.3480  177.9860  139.9900 C   0  0  0  0  0  0  0  0  0  0  0  0
  180.5260  178.8140  143.6750 C   0  0  0  0  0  3  0  0  0  0  0  0
  190.3450  177.5060  141.4410 O   0  0  0  0  0  0  0  0  0  0  0  0
  188.2990  177.8010  139.3080 C   0  0  1  0  0  3  0  0  0  0  0  0
  182.0090  179.2010  143.8590 C   0  0  0  0  0  3  0  0  0  0  0  0
  188.9790  177.5240  141.7420 C   0  0  0  0  0  2  0  0  0  0  0  0
  190.5920  176.6940  139.1740 C   0  0  1  0  0  3  0  0  0  0  0  0
  182.8710  176.4560  137.9940 C   0  0  0  0  0  2  0  0  0  0  0  0
  183.6660  177.6450  138.5480 C   0  0  2  0  0  3  0  0  0  0  0  0
  182.0170  177.8820  140.4320 C   0  0  0  0  0  3  0  0  0  0  0  0
  186.7790  178.4400  141.1810 C   0  0  0  0  0  3  0  0  0  0  0  0
  184.9310  179.6340  143.0980 C   0  0  0  0  0  1  0  0  0  0  0  0
  179.2050  177.7770  141.7200 C   0  0  0  0  0  1  0  0  0  0  0  0
  184.3450  178.5410  140.8530 C   0  0  0  0  0  0  0  0  0  0  0  0
  181.7040  178.2870  141.7240 C   0  0  0  0  0  0  0  0  0  0  0  0
  191.9710  176.9540  138.7900 N   0  0  0  0  0  2  0  0  0  0  0  0
  192.5720  176.3780  137.6290 C   0  0  0  0  0  0  0  0  0  0  0  0
  191.9060  175.6280  136.8670 O   0  0  0  0  0  0  0  0  0  0  0  0
  193.9330  176.6580  137.3280 N   0  0  0  0  0  1  0  0  0  0  0  0
  1 16  1  0  0  0  0
  2 27  1  0  0  0  0
  2 24  2  0  0  0  0
  3  4  1  0  0  0  0
  3 11  1  0  0  0  0
  4 21  1  0  0  0  0
  5  6  1  0  0  0  0
  5 25  1  0  0  0  0
  6 18  1  0  0  0  0
  7 24  1  1  0  0  0
  7 19  1  0  0  0  0
  9 15  1  0  0  0  0
 10 20  1  0  0  0  0
 10 17  1  0  0  0  0
 12  8  1  1  0  0  0
 12  2  1  0  0  0  0
 13 11  1  6  0  0  0
 13 22  1  0  0  0  0
 13 12  1  0  0  0  0
 14 23  2  0  0  0  0
 14 27  1  0  0  0  0
 15 18  2  0  0  0  0
 16 19  1  0  0  0  0
 17  8  1  6  0  0  0
 17  7  1  0  0  0  0
 20 29  1  1  0  0  0
 20  1  1  0  0  0  0
 22 21  1  1  0  0  0
 22 14  1  0  0  0  0
 23 28  1  0  0  0  0
 26  9  1  0  0  0  0
 27  5  2  0  0  0  0
 28  9  1  0  0  0  0
 28  6  2  0  0  0  0
 30 29  1  0  0  0  0
 31 30  2  0  0  0  0
 32 30  1  0  0  0  0
M  END
>  <MODEL>
5

>  <REMARK>
 VINA RESULT:      -7.5      4.070      6.601
  Name = 
  1 active torsions:
  status: ('A' for Active; 'I' for Inactive)
    1  A    between atoms: C_20  and  N_29
                            x       y       z     vdW  Elec       q    Type
                         _______ _______ _______ _____ _____    ______ ____

>  <TORSDO>
F 1

$$$$
=
 OpenBabel11122410463D

 32 37  0  0  1  0  0  0  0  0999 V2000
  181.9150  176.9950  139.5020 C   0  0  0  0  0  2  0  0  0  0  0  0
  186.2400  178.6300  142.0850 C   0  0  0  0  0  0  0  0  0  0  0  0
  184.5660  179.0030  146.6240 O   0  0  0  0  0  0  0  0  0  0  0  0
  185.0580  177.7170  146.9260 C   0  0  0  0  0  2  0  0  0  0  0  0
  188.6820  177.9070  141.8080 C   0  0  0  0  0  0  0  0  0  0  0  0
  189.8550  177.4430  142.4110 C   0  0  0  0  0  0  0  0  0  0  0  0
  184.4630  178.4950  140.3260 C   0  0  2  0  0  3  0  0  0  0  0  0
  183.9440  179.7190  142.4150 C   0  0  0  0  0  2  0  0  0  0  0  0
  191.2230  176.8180  144.1380 N   0  0  0  0  0  0  0  0  0  0  0  0
  182.0950  179.1350  140.8990 C   0  0  0  0  0  2  0  0  0  0  0  0
  184.1020  178.9840  145.2880 C   0  0  0  0  0  2  0  0  0  0  0  0
  185.2960  179.3360  143.0370 C   0  0  1  0  0  3  0  0  0  0  0  0
  185.1610  178.4700  144.2860 C   0  0  1  0  0  3  0  0  0  0  0  0
  187.6540  177.9660  144.0470 C   0  0  0  0  0  0  0  0  0  0  0  0
  192.0610  176.7000  142.9520 C   0  0  0  0  0  3  0  0  0  0  0  0
  182.8790  177.6390  138.7190 O   0  0  0  0  0  0  0  0  0  0  0  0
  183.4330  178.6550  141.4550 C   0  0  1  0  0  3  0  0  0  0  0  0
  191.1650  177.1180  141.7670 C   0  0  0  0  0  3  0  0  0  0  0  0
  184.0910  177.3680  139.3630 C   0  0  0  0  0  2  0  0  0  0  0  0
  181.1980  177.9890  140.4240 C   0  0  1  0  0  3  0  0  0  0  0  0
  186.4060  177.4800  146.2290 C   0  0  0  0  0  2  0  0  0  0  0  0
  186.5260  178.3610  144.9780 C   0  0  2  0  0  3  0  0  0  0  0  0
  188.8690  177.5280  144.6040 C   0  0  0  0  0  3  0  0  0  0  0  0
  185.8200  178.1940  140.8880 C   0  0  0  0  0  3  0  0  0  0  0  0
  188.6850  178.1670  140.3350 C   0  0  0  0  0  1  0  0  0  0  0  0
  191.6630  176.5380  145.4940 C   0  0  0  0  0  1  0  0  0  0  0  0
  187.5490  178.1690  142.6350 C   0  0  0  0  0  0  0  0  0  0  0  0
  189.9380  177.2580  143.7590 C   0  0  0  0  0  0  0  0  0  0  0  0
  180.0350  178.5450  139.7490 N   0  0  0  0  0  2  0  0  0  0  0  0
  180.1140  179.6740  138.8760 C   0  0  0  0  0  0  0  0  0  0  0  0
  181.2220  180.2220  138.6360 O   0  0  0  0  0  0  0  0  0  0  0  0
  178.9320  180.1790  138.2700 N   0  0  0  0  0  1  0  0  0  0  0  0
  1 20  1  0  0  0  0
  2 27  1  0  0  0  0
  2 12  1  0  0  0  0
  3  4  1  0  0  0  0
  5  6  2  0  0  0  0
  5 27  1  0  0  0  0
  6 28  1  0  0  0  0
  7 19  1  6  0  0  0
  7 24  1  0  0  0  0
  7 17  1  0  0  0  0
  9 26  1  0  0  0  0
 11  3  1  0  0  0  0
 12  8  1  6  0  0  0
 12 13  1  0  0  0  0
 13 22  1  0  0  0  0
 13 11  1  1  0  0  0
 14 23  1  0  0  0  0
 14 22  1  0  0  0  0
 15  9  1  0  0  0  0
 16 19  1  0  0  0  0
 16  1  1  0  0  0  0
 17 10  1  6  0  0  0
 17  8  1  0  0  0  0
 18  6  1  0  0  0  0
 18 15  2  0  0  0  0
 20 29  1  6  0  0  0
 20 10  1  0  0  0  0
 21  4  1  0  0  0  0
 22 21  1  1  0  0  0
 24  2  2  0  0  0  0
 25  5  1  0  0  0  0
 27 14  2  0  0  0  0
 28  9  1  0  0  0  0
 28 23  2  0  0  0  0
 30 29  1  0  0  0  0
 31 30  2  0  0  0  0
 32 30  1  0  0  0  0
M  END
>  <MODEL>
6

>  <REMARK>
 VINA RESULT:      -7.3      3.635      9.201
  Name = 
  1 active torsions:
  status: ('A' for Active; 'I' for Inactive)
    1  A    between atoms: C_20  and  N_29
                            x       y       z     vdW  Elec       q    Type
                         _______ _______ _______ _____ _____    ______ ____

>  <TORSDO>
F 1

$$$$
=
 OpenBabel11122410463D

 32 37  0  0  1  0  0  0  0  0999 V2000
  190.6270  175.1970  147.5340 C   0  0  0  0  0  2  0  0  0  0  0  0
  188.3920  178.2390  143.8170 C   0  0  0  0  0  0  0  0  0  0  0  0
  191.4530  177.6220  140.1030 O   0  0  0  0  0  0  0  0  0  0  0  0
  190.6210  176.6200  139.5660 C   0  0  0  0  0  2  0  0  0  0  0  0
  185.9180  178.5610  143.2370 C   0  0  0  0  0  0  0  0  0  0  0  0
  184.9220  178.5600  142.2550 C   0  0  0  0  0  0  0  0  0  0  0  0
  189.2960  177.5260  146.0420 C   0  0  2  0  0  3  0  0  0  0  0  0
  190.9030  178.3060  144.3270 C   0  0  0  0  0  2  0  0  0  0  0  0
  184.0610  178.4170  140.1380 N   0  0  0  0  0  0  0  0  0  0  0  0
  191.7700  177.1380  146.3130 C   0  0  0  0  0  2  0  0  0  0  0  0
  191.4100  177.5080  141.5130 C   0  0  0  0  0  2  0  0  0  0  0  0
  189.7920  178.4500  143.2760 C   0  0  1  0  0  3  0  0  0  0  0  0
  189.9720  177.5220  142.0780 C   0  0  1  0  0  3  0  0  0  0  0  0
  187.5520  178.0620  141.4610 C   0  0  0  0  0  0  0  0  0  0  0  0
  182.9090  178.7170  140.9770 C   0  0  0  0  0  3  0  0  0  0  0  0
  189.7970  176.2200  148.0080 O   0  0  0  0  0  0  0  0  0  0  0  0
  190.6110  177.1910  145.3210 C   0  0  1  0  0  3  0  0  0  0  0  0
  183.4600  178.8230  142.4160 C   0  0  0  0  0  3  0  0  0  0  0  0
  188.8570  176.4090  146.9890 C   0  0  0  0  0  2  0  0  0  0  0  0
  191.9340  175.7640  146.9680 C   0  0  1  0  0  3  0  0  0  0  0  0
  189.1430  176.9810  139.7710 C   0  0  0  0  0  2  0  0  0  0  0  0
  188.9810  177.9170  140.9760 C   0  0  2  0  0  3  0  0  0  0  0  0
  186.5160  178.1050  140.5110 C   0  0  0  0  0  3  0  0  0  0  0  0
  188.1930  177.7510  145.0510 C   0  0  0  0  0  3  0  0  0  0  0  0
  185.5400  178.8950  144.6450 C   0  0  0  0  0  1  0  0  0  0  0  0
  184.0130  178.2460  138.6970 C   0  0  0  0  0  1  0  0  0  0  0  0
  187.2640  178.2980  142.8420 C   0  0  0  0  0  0  0  0  0  0  0  0
  185.2160  178.3360  140.9430 C   0  0  0  0  0  0  0  0  0  0  0  0
  192.9340  175.8570  148.0210 N   0  0  0  0  0  2  0  0  0  0  0  0
  192.9730  176.9360  148.9560 C   0  0  0  0  0  0  0  0  0  0  0  0
  192.1090  177.8520  148.9160 O   0  0  0  0  0  0  0  0  0  0  0  0
  193.9940  176.9750  149.9450 N   0  0  0  0  0  1  0  0  0  0  0  0
  1 16  1  0  0  0  0
  2 24  2  0  0  0  0
  3 11  1  0  0  0  0
  4 21  1  0  0  0  0
  4  3  1  0  0  0  0
  5 25  1  0  0  0  0
  6 18  1  0  0  0  0
  6  5  2  0  0  0  0
  7 24  1  6  0  0  0
  7 19  1  0  0  0  0
  9 28  1  0  0  0  0
  9 15  1  0  0  0  0
 10 20  1  0  0  0  0
 12  2  1  0  0  0  0
 12  8  1  1  0  0  0
 13 11  1  6  0  0  0
 13 12  1  0  0  0  0
 14 27  2  0  0  0  0
 15 18  2  0  0  0  0
 17  8  1  6  0  0  0
 17  7  1  0  0  0  0
 17 10  1  0  0  0  0
 19 16  1  0  0  0  0
 20  1  1  0  0  0  0
 20 29  1  1  0  0  0
 22 21  1  6  0  0  0
 22 14  1  0  0  0  0
 22 13  1  0  0  0  0
 23 28  2  0  0  0  0
 23 14  1  0  0  0  0
 26  9  1  0  0  0  0
 27  5  1  0  0  0  0
 27  2  1  0  0  0  0
 28  6  1  0  0  0  0
 29 30  1  0  0  0  0
 30 32  1  0  0  0  0
 31 30  2  0  0  0  0
M  END
>  <MODEL>
7

>  <REMARK>
 VINA RESULT:      -7.2      1.402      1.896
  Name = 
  1 active torsions:
  status: ('A' for Active; 'I' for Inactive)
    1  A    between atoms: C_20  and  N_29
                            x       y       z     vdW  Elec       q    Type
                         _______ _______ _______ _____ _____    ______ ____

>  <TORSDO>
F 1

$$$$
=
 OpenBabel11122410463D

 32 37  0  0  1  0  0  0  0  0999 V2000
  180.7860  181.6280  138.7060 C   0  0  0  0  0  2  0  0  0  0  0  0
  183.7820  178.3420  141.5830 C   0  0  0  0  0  0  0  0  0  0  0  0
  187.5430  177.6150  138.6050 O   0  0  0  0  0  0  0  0  0  0  0  0
  188.2790  178.6190  139.2660 C   0  0  0  0  0  2  0  0  0  0  0  0
  184.2820  178.3600  144.0950 C   0  0  0  0  0  0  0  0  0  0  0  0
  185.2420  178.3390  145.1120 C   0  0  0  0  0  0  0  0  0  0  0  0
  181.7560  179.3230  140.4840 C   0  0  2  0  0  3  0  0  0  0  0  0
  183.2700  177.9280  139.1060 C   0  0  0  0  0  2  0  0  0  0  0  0
  187.3420  178.1950  146.0130 N   0  0  0  0  0  0  0  0  0  0  0  0
  181.5730  179.3040  137.9720 C   0  0  0  0  0  2  0  0  0  0  0  0
  186.1890  178.0230  138.5730 C   0  0  0  0  0  2  0  0  0  0  0  0
  184.2680  177.7740  140.2640 C   0  0  1  0  0  3  0  0  0  0  0  0
  185.6330  178.3870  139.9690 C   0  0  1  0  0  3  0  0  0  0  0  0
  186.1230  178.1780  142.4670 C   0  0  0  0  0  0  0  0  0  0  0  0
  186.4590  178.2890  147.1680 C   0  0  0  0  0  3  0  0  0  0  0  0
  180.1080  180.8930  139.6840 O   0  0  0  0  0  0  0  0  0  0  0  0
  182.5310  179.2580  139.1580 C   0  0  1  0  0  3  0  0  0  0  0  0
  185.0300  178.3840  146.5900 C   0  0  0  0  0  3  0  0  0  0  0  0
  181.0650  180.6710  140.6810 C   0  0  0  0  0  2  0  0  0  0  0  0
  181.2210  180.7300  137.5410 C   0  0  1  0  0  3  0  0  0  0  0  0
  188.0020  178.5810  140.7760 C   0  0  0  0  0  2  0  0  0  0  0  0
  186.6280  177.9590  141.0550 C   0  0  2  0  0  3  0  0  0  0  0  0
  187.0430  178.1280  143.5300 C   0  0  0  0  0  3  0  0  0  0  0  0
  182.6780  179.1020  141.6450 C   0  0  0  0  0  3  0  0  0  0  0  0
  182.8350  178.3970  144.4730 C   0  0  0  0  0  1  0  0  0  0  0  0
  188.7870  178.0710  146.0850 C   0  0  0  0  0  1  0  0  0  0  0  0
  184.7230  178.2880  142.7400 C   0  0  0  0  0  0  0  0  0  0  0  0
  186.5720  178.2310  144.8330 C   0  0  0  0  0  0  0  0  0  0  0  0
  180.1710  180.6770  136.5350 N   0  0  0  0  0  2  0  0  0  0  0  0
  180.0120  181.6820  135.5310 C   0  0  0  0  0  0  0  0  0  0  0  0
  180.8080  182.6560  135.4660 O   0  0  0  0  0  0  0  0  0  0  0  0
  178.9480  181.5770  134.5940 N   0  0  0  0  0  1  0  0  0  0  0  0
  1 16  1  0  0  0  0
  2 24  2  0  0  0  0
  2 27  1  0  0  0  0
  3  4  1  0  0  0  0
  4 21  1  0  0  0  0
  5 25  1  0  0  0  0
  5  6  1  0  0  0  0
  6 18  1  0  0  0  0
  7 19  1  1  0  0  0
  7 24  1  0  0  0  0
  8 17  1  0  0  0  0
  9 26  1  0  0  0  0
  9 15  1  0  0  0  0
 11  3  1  0  0  0  0
 12  8  1  6  0  0  0
 12  2  1  0  0  0  0
 13 11  1  6  0  0  0
 13 12  1  0  0  0  0
 13 22  1  0  0  0  0
 14 27  1  0  0  0  0
 14 23  2  0  0  0  0
 16 19  1  0  0  0  0
 17 10  1  6  0  0  0
 17  7  1  0  0  0  0
 18 15  2  0  0  0  0
 20 29  1  6  0  0  0
 20 10  1  0  0  0  0
 20  1  1  0  0  0  0
 22 21  1  6  0  0  0
 22 14  1  0  0  0  0
 23 28  1  0  0  0  0
 27  5  2  0  0  0  0
 28  6  2  0  0  0  0
 28  9  1  0  0  0  0
 30 29  1  0  0  0  0
 31 30  2  0  0  0  0
 32 30  1  0  0  0  0
M  END
>  <MODEL>
8

>  <REMARK>
 VINA RESULT:      -7.0      4.389      9.822
  Name = 
  1 active torsions:
  status: ('A' for Active; 'I' for Inactive)
    1  A    between atoms: C_20  and  N_29
                            x       y       z     vdW  Elec       q    Type
                         _______ _______ _______ _____ _____    ______ ____

>  <TORSDO>
F 1

$$$$
=
 OpenBabel11122410463D

 32 37  0  0  1  0  0  0  0  0999 V2000
  182.1380  176.0170  136.9410 C   0  0  0  0  0  2  0  0  0  0  0  0
  186.0290  178.4830  139.5550 C   0  0  0  0  0  0  0  0  0  0  0  0
  183.8890  179.4160  143.8090 O   0  0  0  0  0  0  0  0  0  0  0  0
  184.4590  178.2530  144.3660 C   0  0  0  0  0  2  0  0  0  0  0  0
  188.5400  177.9780  139.6090 C   0  0  0  0  0  0  0  0  0  0  0  0
  189.6840  177.7400  140.3770 C   0  0  0  0  0  0  0  0  0  0  0  0
  184.4520  177.8830  137.7040 C   0  0  2  0  0  3  0  0  0  0  0  0
  183.6250  179.3710  139.5030 C   0  0  0  0  0  2  0  0  0  0  0  0
  190.9230  177.5470  142.2930 N   0  0  0  0  0  0  0  0  0  0  0  0
  181.9930  178.3620  137.9610 C   0  0  0  0  0  2  0  0  0  0  0  0
  183.5620  179.1320  142.4620 C   0  0  0  0  0  2  0  0  0  0  0  0
  184.9370  179.2340  140.2910 C   0  0  1  0  0  3  0  0  0  0  0  0
  184.7560  178.5730  141.6540 C   0  0  1  0  0  3  0  0  0  0  0  0
  187.2950  178.2940  141.7120 C   0  0  0  0  0  0  0  0  0  0  0  0
  191.8810  177.3240  141.2190 C   0  0  0  0  0  3  0  0  0  0  0  0
  183.1150  176.6200  136.1420 O   0  0  0  0  0  0  0  0  0  0  0  0
  183.3050  178.1180  138.7000 C   0  0  1  0  0  3  0  0  0  0  0  0
  191.0730  177.4500  139.9090 C   0  0  0  0  0  3  0  0  0  0  0  0
  184.2770  176.5830  136.9210 C   0  0  0  0  0  2  0  0  0  0  0  0
  181.2500  177.0690  137.6170 C   0  0  1  0  0  3  0  0  0  0  0  0
  185.8840  178.0450  143.8330 C   0  0  0  0  0  2  0  0  0  0  0  0
  186.0500  178.7180  142.4650 C   0  0  2  0  0  3  0  0  0  0  0  0
  188.4820  178.0790  142.4340 C   0  0  0  0  0  3  0  0  0  0  0  0
  185.7680  177.8170  138.4200 C   0  0  0  0  0  3  0  0  0  0  0  0
  188.6650  177.9930  138.1190 C   0  0  0  0  0  1  0  0  0  0  0  0
  191.2500  177.5370  143.7080 C   0  0  0  0  0  1  0  0  0  0  0  0
  187.3120  178.2530  140.2820 C   0  0  0  0  0  0  0  0  0  0  0  0
  189.6480  177.7850  141.7390 C   0  0  0  0  0  0  0  0  0  0  0  0
  180.1150  177.3860  136.7630 N   0  0  0  0  0  2  0  0  0  0  0  0
  180.1540  178.4220  135.7790 C   0  0  0  0  0  0  0  0  0  0  0  0
  181.2040  179.0940  135.5960 O   0  0  0  0  0  0  0  0  0  0  0  0
  178.9990  178.6930  134.9970 N   0  0  0  0  0  1  0  0  0  0  0  0
  1 20  1  0  0  0  0
  2 27  1  0  0  0  0
  2 12  1  0  0  0  0
  3  4  1  0  0  0  0
  5 27  2  0  0  0  0
  5  6  1  0  0  0  0
  6 28  2  0  0  0  0
  7 19  1  1  0  0  0
  7 24  1  0  0  0  0
  7 17  1  0  0  0  0
  9 26  1  0  0  0  0
 11  3  1  0  0  0  0
 12  8  1  6  0  0  0
 12 13  1  0  0  0  0
 13 11  1  1  0  0  0
 13 22  1  0  0  0  0
 14 23  2  0  0  0  0
 14 22  1  0  0  0  0
 15  9  1  0  0  0  0
 16 19  1  0  0  0  0
 16  1  1  0  0  0  0
 17 10  1  6  0  0  0
 17  8  1  0  0  0  0
 18  6  1  0  0  0  0
 18 15  2  0  0  0  0
 20 29  1  6  0  0  0
 20 10  1  0  0  0  0
 21  4  1  0  0  0  0
 22 21  1  1  0  0  0
 24  2  2  0  0  0  0
 25  5  1  0  0  0  0
 27 14  1  0  0  0  0
 28  9  1  0  0  0  0
 28 23  1  0  0  0  0
 30 29  1  0  0  0  0
 31 30  2  0  0  0  0
 32 30  1  0  0  0  0
M  END
>  <MODEL>
9

>  <REMARK>
 VINA RESULT:      -6.9      3.764      9.715
  Name = 
  1 active torsions:
  status: ('A' for Active; 'I' for Inactive)
    1  A    between atoms: C_20  and  N_29
                            x       y       z     vdW  Elec       q    Type
                         _______ _______ _______ _____ _____    ______ ____

>  <TORSDO>
F 1

$$$$
