=
 OpenBabel11122412163D

 34 41  0  0  1  0  0  0  0  0999 V2000
  182.8290  178.7420  143.4200 C   0  0  0  0  0  0  0  0  0  0  0  0
  183.8840  178.7830  145.7630 C   0  0  0  0  0  3  0  0  0  0  0  0
  182.7550  176.8650  137.2650 C   0  0  2  0  0  3  0  0  0  0  0  0
  181.9440  178.6830  141.1390 C   0  0  0  0  0  0  0  0  0  0  0  0
  183.4750  177.9020  139.3100 C   0  0  1  0  0  3  0  0  0  0  0  0
  184.8470  177.2020  137.1690 C   0  0  0  0  0  2  0  0  0  0  0  0
  183.8610  176.3470  136.3760 C   0  0  0  0  0  2  0  0  0  0  0  0
  181.0210  178.5750  137.4920 O   0  0  0  0  0  0  0  0  0  0  0  0
  185.2100  178.6200  143.8040 C   0  0  0  0  0  0  0  0  0  0  0  0
  187.5750  176.8450  143.6390 C   0  0  0  0  0  2  0  0  0  0  0  0
  184.6320  178.5740  140.0360 C   0  0  0  0  0  2  0  0  0  0  0  0
  180.9410  178.1470  138.8400 C   0  0  0  0  0  2  0  0  0  0  0  0
  185.4790  178.5590  142.4210 C   0  0  0  0  0  0  0  0  0  0  0  0
  185.3570  178.7870  146.1820 C   0  0  0  0  0  3  0  0  0  0  0  0
  182.1660  178.6600  139.6430 C   0  0  1  0  0  3  0  0  0  0  0  0
  181.5120  177.5240  136.6700 C   0  0  0  0  0  2  0  0  0  0  0  0
  186.9730  177.2780  144.9830 C   0  0  2  0  0  3  0  0  0  0  0  0
  183.0530  178.6750  142.0220 C   0  0  0  0  0  0  0  0  0  0  0  0
  183.6740  177.9230  137.8080 C   0  0  1  0  0  3  0  0  0  0  0  0
  184.3840  178.5840  141.5250 C   0  0  0  0  0  0  0  0  0  0  0  0
  180.4400  178.8850  143.0410 C   0  0  0  0  0  3  0  0  0  0  0  0
  188.0030  178.0440  142.8030 C   0  0  0  0  0  2  0  0  0  0  0  0
  180.6490  178.8120  141.6630 C   0  0  0  0  0  3  0  0  0  0  0  0
  186.8890  178.5010  141.8580 C   0  0  0  0  0  2  0  0  0  0  0  0
  186.2020  178.6070  144.9140 C   0  0  1  0  0  3  0  0  0  0  0  0
  181.5240  178.8460  143.9160 C   0  0  0  0  0  3  0  0  0  0  0  0
  183.9260  178.7140  144.2830 C   0  0  0  0  0  0  0  0  0  0  0  0
  187.9910  177.3770  145.9350 O   0  0  0  0  0  0  0  0  0  0  0  0
  189.1160  176.8280  145.3150 C   0  0  0  0  0  2  0  0  0  0  0  0
  191.7960  176.1600  147.3770 C   0  0  0  0  0  2  0  0  0  0  0  0
  191.6000  176.8150  145.2580 C   0  0  0  0  0  2  0  0  0  0  0  0
  190.3790  177.3980  145.9360 C   0  0  2  0  0  3  0  0  0  0  0  0
  192.1140  175.7870  146.0640 O   0  0  0  0  0  0  0  0  0  0  0  0
  190.4910  176.9200  147.3520 C   0  0  0  0  0  2  0  0  0  0  0  0
  1 26  1  0  0  0  0
  1 27  1  0  0  0  0
  2 14  2  0  0  0  0
  3  7  1  6  0  0  0
  3 19  1  0  0  0  0
  4 23  2  0  0  0  0
  4 18  1  0  0  0  0
  5 15  1  0  0  0  0
  5 11  1  1  0  0  0
  7  6  1  0  0  0  0
  8 12  1  0  0  0  0
  9 27  2  0  0  0  0
  9 25  1  0  0  0  0
 10 17  1  0  0  0  0
 11 20  1  0  0  0  0
 13  9  1  0  0  0  0
 15 12  1  6  0  0  0
 15  4  1  0  0  0  0
 16  3  1  0  0  0  0
 16  8  1  0  0  0  0
 17 28  1  1  0  0  0
 18  1  2  0  0  0  0
 19  6  1  1  0  0  0
 19  5  1  0  0  0  0
 20 18  1  0  0  0  0
 20 13  2  0  0  0  0
 21 26  2  0  0  0  0
 22 10  1  0  0  0  0
 23 21  1  0  0  0  0
 24 13  1  0  0  0  0
 24 22  1  0  0  0  0
 25 17  1  0  0  0  0
 25 14  1  1  0  0  0
 27  2  1  0  0  0  0
 29 28  1  0  0  0  0
 31 32  1  0  0  0  0
 31 33  1  0  0  0  0
 32 29  1  6  0  0  0
 32 34  1  0  0  0  0
 33 30  1  0  0  0  0
 34 30  1  0  0  0  0
M  END
>  <MODEL>
1

>  <REMARK>
 VINA RESULT:     -11.3      0.000      0.000
  Name = 
  3 active torsions:
  status: ('A' for Active; 'I' for Inactive)
    1  A    between atoms: C_17  and  O_28
    2  A    between atoms: O_28  and  C_29
    3  A    between atoms: C_29  and  C_32
                            x       y       z     vdW  Elec       q    Type
                         _______ _______ _______ _____ _____    ______ ____

>  <TORSDO>
F 3

$$$$
=
 OpenBabel11122412163D

 34 41  0  0  1  0  0  0  0  0999 V2000
  188.2100  177.6310  143.4200 C   0  0  0  0  0  0  0  0  0  0  0  0
  190.6550  176.9430  143.0220 C   0  0  0  0  0  3  0  0  0  0  0  0
  182.0990  178.2270  141.4930 C   0  0  2  0  0  3  0  0  0  0  0  0
  185.8700  178.3040  143.6700 C   0  0  0  0  0  0  0  0  0  0  0  0
  184.4840  178.5110  141.5890 C   0  0  1  0  0  3  0  0  0  0  0  0
  182.7930  178.8860  139.6000 C   0  0  0  0  0  2  0  0  0  0  0  0
  181.4970  178.2550  140.1070 C   0  0  0  0  0  2  0  0  0  0  0  0
  182.2830  179.4420  143.6070 O   0  0  0  0  0  0  0  0  0  0  0  0
  189.2800  177.7330  141.2580 C   0  0  0  0  0  0  0  0  0  0  0  0
  189.3340  176.5310  138.5530 C   0  0  0  0  0  2  0  0  0  0  0  0
  185.7150  179.0260  140.8590 C   0  0  0  0  0  2  0  0  0  0  0  0
  183.3270  178.5300  143.9040 C   0  0  0  0  0  2  0  0  0  0  0  0
  188.1120  178.2400  140.6500 C   0  0  0  0  0  0  0  0  0  0  0  0
  191.5030  177.0120  141.7490 C   0  0  0  0  0  3  0  0  0  0  0  0
  184.5990  178.8810  143.0880 C   0  0  1  0  0  3  0  0  0  0  0  0
  181.3760  178.8650  142.6760 C   0  0  0  0  0  2  0  0  0  0  0  0
  190.4770  176.3290  139.5570 C   0  0  2  0  0  3  0  0  0  0  0  0
  187.0130  178.1310  142.8490 C   0  0  0  0  0  0  0  0  0  0  0  0
  183.2130  179.1270  141.0380 C   0  0  1  0  0  3  0  0  0  0  0  0
  186.9690  178.4360  141.4590 C   0  0  0  0  0  0  0  0  0  0  0  0
  187.1480  177.5440  145.5960 C   0  0  0  0  0  3  0  0  0  0  0  0
  189.1040  178.0070  138.2530 C   0  0  0  0  0  2  0  0  0  0  0  0
  185.9620  178.0290  145.0430 C   0  0  0  0  0  3  0  0  0  0  0  0
  188.0460  178.6130  139.1780 C   0  0  0  0  0  2  0  0  0  0  0  0
  190.5870  177.4530  140.6010 C   0  0  1  0  0  3  0  0  0  0  0  0
  188.2660  177.3420  144.7890 C   0  0  0  0  0  3  0  0  0  0  0  0
  189.3250  177.4450  142.6000 C   0  0  0  0  0  0  0  0  0  0  0  0
  191.6850  176.2130  138.8660 O   0  0  0  0  0  0  0  0  0  0  0  0
  191.4570  175.2220  137.9080 C   0  0  0  0  0  2  0  0  0  0  0  0
  194.0990  175.5920  135.7260 C   0  0  0  0  0  2  0  0  0  0  0  0
  193.9270  175.4840  137.9440 C   0  0  0  0  0  2  0  0  0  0  0  0
  192.7780  174.6340  137.4460 C   0  0  2  0  0  3  0  0  0  0  0  0
  194.3570  176.3160  136.8980 O   0  0  0  0  0  0  0  0  0  0  0  0
  192.8700  174.7430  135.9540 C   0  0  0  0  0  2  0  0  0  0  0  0
  1 26  2  0  0  0  0
  3  7  1  6  0  0  0
  3 16  1  0  0  0  0
  4 23  1  0  0  0  0
  5 11  1  6  0  0  0
  5 15  1  0  0  0  0
  6  7  1  0  0  0  0
  8 12  1  0  0  0  0
  9 27  2  0  0  0  0
 10 17  1  0  0  0  0
 11 20  1  0  0  0  0
 13  9  1  0  0  0  0
 13 20  2  0  0  0  0
 14  2  2  0  0  0  0
 15  4  1  0  0  0  0
 15 12  1  1  0  0  0
 16  8  1  0  0  0  0
 17 28  1  6  0  0  0
 17 25  1  0  0  0  0
 18  1  1  0  0  0  0
 18  4  2  0  0  0  0
 19  6  1  6  0  0  0
 19  3  1  0  0  0  0
 19  5  1  0  0  0  0
 20 18  1  0  0  0  0
 22 10  1  0  0  0  0
 22 24  1  0  0  0  0
 23 21  2  0  0  0  0
 24 13  1  0  0  0  0
 25  9  1  0  0  0  0
 25 14  1  1  0  0  0
 26 21  1  0  0  0  0
 27  2  1  0  0  0  0
 27  1  1  0  0  0  0
 29 28  1  0  0  0  0
 30 34  1  0  0  0  0
 30 33  1  0  0  0  0
 32 29  1  1  0  0  0
 32 31  1  0  0  0  0
 33 31  1  0  0  0  0
 34 32  1  0  0  0  0
M  END
>  <MODEL>
2

>  <REMARK>
 VINA RESULT:     -10.4      4.303      6.400
  Name = 
  3 active torsions:
  status: ('A' for Active; 'I' for Inactive)
    1  A    between atoms: C_17  and  O_28
    2  A    between atoms: O_28  and  C_29
    3  A    between atoms: C_29  and  C_32
                            x       y       z     vdW  Elec       q    Type
                         _______ _______ _______ _____ _____    ______ ____

>  <TORSDO>
F 3

$$$$
=
 OpenBabel11122412163D

 34 41  0  0  1  0  0  0  0  0999 V2000
  186.0230  178.5030  142.3180 C   0  0  0  0  0  0  0  0  0  0  0  0
  185.9220  178.7400  139.7600 C   0  0  0  0  0  3  0  0  0  0  0  0
  189.2790  178.1170  147.8550 C   0  0  2  0  0  3  0  0  0  0  0  0
  186.2380  178.2240  144.7390 C   0  0  0  0  0  0  0  0  0  0  0  0
  188.4870  177.5850  145.6490 C   0  0  1  0  0  3  0  0  0  0  0  0
  190.6900  176.8510  146.9010 C   0  0  0  0  0  2  0  0  0  0  0  0
  190.7200  177.7560  148.1320 C   0  0  0  0  0  2  0  0  0  0  0  0
  186.9540  177.5630  148.3750 O   0  0  0  0  0  0  0  0  0  0  0  0
  187.7250  177.6410  140.8380 C   0  0  0  0  0  0  0  0  0  0  0  0
  190.5340  177.9800  139.9630 C   0  0  0  0  0  2  0  0  0  0  0  0
  188.7100  176.7320  144.4080 C   0  0  0  0  0  2  0  0  0  0  0  0
  186.6340  178.3880  147.2680 C   0  0  0  0  0  2  0  0  0  0  0  0
  188.4710  177.1240  141.9190 C   0  0  0  0  0  0  0  0  0  0  0  0
  186.8650  178.1980  138.6820 C   0  0  0  0  0  3  0  0  0  0  0  0
  186.9680  177.6600  145.9380 C   0  0  1  0  0  3  0  0  0  0  0  0
  188.2070  177.9470  148.9280 C   0  0  0  0  0  2  0  0  0  0  0  0
  189.3490  178.3270  139.0520 C   0  0  2  0  0  3  0  0  0  0  0  0
  186.7440  178.0080  143.4330 C   0  0  0  0  0  0  0  0  0  0  0  0
  189.1790  176.9940  146.8610 C   0  0  1  0  0  3  0  0  0  0  0  0
  187.9700  177.3160  143.2280 C   0  0  0  0  0  0  0  0  0  0  0  0
  184.3010  179.3540  143.7950 C   0  0  0  0  0  3  0  0  0  0  0  0
  190.4980  176.5210  140.4000 C   0  0  0  0  0  2  0  0  0  0  0  0
  185.0060  178.8760  144.9000 C   0  0  0  0  0  3  0  0  0  0  0  0
  189.7630  176.3470  141.7310 C   0  0  0  0  0  2  0  0  0  0  0  0
  188.0630  177.5550  139.3910 C   0  0  1  0  0  3  0  0  0  0  0  0
  184.8080  179.1720  142.5090 C   0  0  0  0  0  3  0  0  0  0  0  0
  186.5390  178.3030  141.0350 C   0  0  0  0  0  0  0  0  0  0  0  0
  189.7020  178.0860  137.7220 O   0  0  0  0  0  0  0  0  0  0  0  0
  189.1160  176.8570  137.4110 C   0  0  0  0  0  2  0  0  0  0  0  0
  192.0190  175.0000  137.3520 C   0  0  0  0  0  2  0  0  0  0  0  0
  189.8950  174.5680  136.8400 C   0  0  0  0  0  2  0  0  0  0  0  0
  190.0520  176.0430  136.5370 C   0  0  2  0  0  3  0  0  0  0  0  0
  190.9410  174.1700  137.6880 O   0  0  0  0  0  0  0  0  0  0  0  0
  191.4690  176.3400  136.9230 C   0  0  0  0  0  2  0  0  0  0  0  0
  1 26  2  0  0  0  0
  1 18  1  0  0  0  0
  2 27  1  0  0  0  0
  3  7  1  1  0  0  0
  3 16  1  0  0  0  0
  4 23  1  0  0  0  0
  4 15  1  0  0  0  0
  5 11  1  6  0  0  0
  5 15  1  0  0  0  0
  5 19  1  0  0  0  0
  6  7  1  0  0  0  0
  8 16  1  0  0  0  0
  9 27  2  0  0  0  0
  9 13  1  0  0  0  0
 10 22  1  0  0  0  0
 12  8  1  0  0  0  0
 13 20  2  0  0  0  0
 14  2  2  0  0  0  0
 15 12  1  1  0  0  0
 17 28  1  6  0  0  0
 17 25  1  0  0  0  0
 17 10  1  0  0  0  0
 18  4  2  0  0  0  0
 19  6  1  6  0  0  0
 19  3  1  0  0  0  0
 20 18  1  0  0  0  0
 20 11  1  0  0  0  0
 21 23  2  0  0  0  0
 22 24  1  0  0  0  0
 24 13  1  0  0  0  0
 25 14  1  6  0  0  0
 25  9  1  0  0  0  0
 26 21  1  0  0  0  0
 27  1  1  0  0  0  0
 29 28  1  0  0  0  0
 30 33  1  0  0  0  0
 31 33  1  0  0  0  0
 32 31  1  0  0  0  0
 32 34  1  0  0  0  0
 32 29  1  1  0  0  0
 34 30  1  0  0  0  0
M  END
>  <MODEL>
3

>  <REMARK>
 VINA RESULT:     -10.3      3.562      8.048
  Name = 
  3 active torsions:
  status: ('A' for Active; 'I' for Inactive)
    1  A    between atoms: C_17  and  O_28
    2  A    between atoms: O_28  and  C_29
    3  A    between atoms: C_29  and  C_32
                            x       y       z     vdW  Elec       q    Type
                         _______ _______ _______ _____ _____    ______ ____

>  <TORSDO>
F 3

$$$$
=
 OpenBabel11122412163D

 34 41  0  0  1  0  0  0  0  0999 V2000
  184.1300  178.5780  144.2970 C   0  0  0  0  0  0  0  0  0  0  0  0
  181.8100  179.1860  143.3730 C   0  0  0  0  0  3  0  0  0  0  0  0
  190.5370  178.2740  143.7860 C   0  0  2  0  0  3  0  0  0  0  0  0
  186.3810  177.9860  145.0540 C   0  0  0  0  0  0  0  0  0  0  0  0
  188.2070  177.8970  143.3360 C   0  0  1  0  0  3  0  0  0  0  0  0
  190.3170  177.6480  141.7710 C   0  0  0  0  0  2  0  0  0  0  0  0
  191.4360  178.3110  142.5720 C   0  0  0  0  0  2  0  0  0  0  0  0
  189.9360  176.9860  145.7770 O   0  0  0  0  0  0  0  0  0  0  0  0
  183.5780  178.5050  141.9480 C   0  0  0  0  0  0  0  0  0  0  0  0
  184.0810  179.7890  139.3280 C   0  0  0  0  0  2  0  0  0  0  0  0
  187.1940  177.3590  142.3340 C   0  0  0  0  0  2  0  0  0  0  0  0
  188.8140  177.8480  145.8510 C   0  0  0  0  0  2  0  0  0  0  0  0
  184.8740  178.0610  141.6080 C   0  0  0  0  0  0  0  0  0  0  0  0
  181.2730  179.1260  141.9410 C   0  0  0  0  0  3  0  0  0  0  0  0
  187.7740  177.4750  144.7610 C   0  0  1  0  0  3  0  0  0  0  0  0
  191.0030  177.6250  145.0880 C   0  0  0  0  0  2  0  0  0  0  0  0
  182.7340  179.9160  140.0520 C   0  0  2  0  0  3  0  0  0  0  0  0
  185.4450  178.1420  144.0000 C   0  0  0  0  0  0  0  0  0  0  0  0
  189.5950  177.3470  143.0710 C   0  0  1  0  0  3  0  0  0  0  0  0
  185.8140  177.8830  142.6500 C   0  0  0  0  0  0  0  0  0  0  0  0
  184.6710  178.6360  146.6580 C   0  0  0  0  0  3  0  0  0  0  0  0
  184.4370  178.3330  139.0550 C   0  0  0  0  0  2  0  0  0  0  0  0
  185.9710  178.2140  146.3760 C   0  0  0  0  0  3  0  0  0  0  0  0
  185.2850  177.7380  140.1810 C   0  0  0  0  0  2  0  0  0  0  0  0
  182.4420  178.7560  141.0190 C   0  0  1  0  0  3  0  0  0  0  0  0
  183.7550  178.8220  145.6240 C   0  0  0  0  0  3  0  0  0  0  0  0
  183.2210  178.7480  143.2510 C   0  0  0  0  0  0  0  0  0  0  0  0
  181.7080  180.0090  139.1090 O   0  0  0  0  0  0  0  0  0  0  0  0
  182.0200  181.1390  138.3490 C   0  0  0  0  0  2  0  0  0  0  0  0
  180.7120  183.3400  136.0420 C   0  0  0  0  0  2  0  0  0  0  0  0
  180.3820  181.1820  136.4810 C   0  0  0  0  0  2  0  0  0  0  0  0
  180.7470  181.7780  137.8240 C   0  0  2  0  0  3  0  0  0  0  0  0
  180.7990  182.0630  135.4710 O   0  0  0  0  0  0  0  0  0  0  0  0
  181.0100  183.2210  137.5180 C   0  0  0  0  0  2  0  0  0  0  0  0
  1 26  2  0  0  0  0
  3  7  1  6  0  0  0
  3 16  1  0  0  0  0
  4 23  1  0  0  0  0
  5 11  1  6  0  0  0
  5 15  1  0  0  0  0
  6  7  1  0  0  0  0
  8 12  1  0  0  0  0
  9 27  2  0  0  0  0
 10 17  1  0  0  0  0
 11 20  1  0  0  0  0
 13  9  1  0  0  0  0
 13 20  2  0  0  0  0
 14  2  2  0  0  0  0
 15  4  1  0  0  0  0
 15 12  1  1  0  0  0
 16  8  1  0  0  0  0
 17 28  1  6  0  0  0
 17 25  1  0  0  0  0
 18  1  1  0  0  0  0
 18  4  2  0  0  0  0
 19  6  1  6  0  0  0
 19  5  1  0  0  0  0
 19  3  1  0  0  0  0
 20 18  1  0  0  0  0
 22 10  1  0  0  0  0
 22 24  1  0  0  0  0
 23 21  2  0  0  0  0
 24 13  1  0  0  0  0
 25 14  1  1  0  0  0
 25  9  1  0  0  0  0
 26 21  1  0  0  0  0
 27  2  1  0  0  0  0
 27  1  1  0  0  0  0
 29 28  1  0  0  0  0
 30 34  1  0  0  0  0
 31 32  1  0  0  0  0
 32 29  1  6  0  0  0
 33 30  1  0  0  0  0
 33 31  1  0  0  0  0
 34 32  1  0  0  0  0
M  END
>  <MODEL>
4

>  <REMARK>
 VINA RESULT:      -9.9      2.203      8.775
  Name = 
  3 active torsions:
  status: ('A' for Active; 'I' for Inactive)
    1  A    between atoms: C_17  and  O_28
    2  A    between atoms: O_28  and  C_29
    3  A    between atoms: C_29  and  C_32
                            x       y       z     vdW  Elec       q    Type
                         _______ _______ _______ _____ _____    ______ ____

>  <TORSDO>
F 3

$$$$
=
 OpenBabel11122412163D

 34 41  0  0  1  0  0  0  0  0999 V2000
  188.7000  177.6980  140.2760 C   0  0  0  0  0  0  0  0  0  0  0  0
  187.1960  177.8740  138.1990 C   0  0  0  0  0  3  0  0  0  0  0  0
  189.5930  176.6150  146.5560 C   0  0  2  0  0  3  0  0  0  0  0  0
  190.0270  177.5620  142.3280 C   0  0  0  0  0  0  0  0  0  0  0  0
  188.8050  177.6160  144.5180 C   0  0  1  0  0  3  0  0  0  0  0  0
  187.8280  177.7180  146.9670 C   0  0  0  0  0  2  0  0  0  0  0  0
  188.6220  176.6480  147.7140 C   0  0  0  0  0  2  0  0  0  0  0  0
  191.6990  177.5160  145.7000 O   0  0  0  0  0  0  0  0  0  0  0  0
  186.4020  178.4330  140.3620 C   0  0  0  0  0  0  0  0  0  0  0  0
  183.6850  177.7020  141.2850 C   0  0  0  0  0  2  0  0  0  0  0  0
  187.8090  178.5870  143.9020 C   0  0  0  0  0  2  0  0  0  0  0  0
  191.3040  176.9450  144.4650 C   0  0  0  0  0  2  0  0  0  0  0  0
  186.4660  178.6290  141.7570 C   0  0  0  0  0  0  0  0  0  0  0  0
  185.7590  178.3830  138.0620 C   0  0  0  0  0  3  0  0  0  0  0  0
  190.1740  177.7880  143.8160 C   0  0  1  0  0  3  0  0  0  0  0  0
  191.0890  176.8220  146.7800 C   0  0  0  0  0  2  0  0  0  0  0  0
  184.0600  177.7290  139.7970 C   0  0  2  0  0  3  0  0  0  0  0  0
  188.8060  177.8730  141.6790 C   0  0  0  0  0  0  0  0  0  0  0  0
  188.9880  177.8730  146.0010 C   0  0  1  0  0  3  0  0  0  0  0  0
  187.6830  178.3410  142.4180 C   0  0  0  0  0  0  0  0  0  0  0  0
  191.0120  176.9780  140.1810 C   0  0  0  0  0  3  0  0  0  0  0  0
  183.9030  179.0570  141.9440 C   0  0  0  0  0  2  0  0  0  0  0  0
  191.1240  177.1400  141.5630 C   0  0  0  0  0  3  0  0  0  0  0  0
  185.2970  179.1650  142.5680 C   0  0  0  0  0  2  0  0  0  0  0  0
  185.2310  178.6720  139.4730 C   0  0  1  0  0  3  0  0  0  0  0  0
  189.8040  177.2520  139.5400 C   0  0  0  0  0  3  0  0  0  0  0  0
  187.4870  177.9880  139.6480 C   0  0  0  0  0  0  0  0  0  0  0  0
  182.9420  178.0950  139.0450 O   0  0  0  0  0  0  0  0  0  0  0  0
  181.9780  177.1270  139.3400 C   0  0  0  0  0  2  0  0  0  0  0  0
  179.8050  178.8390  141.3950 C   0  0  0  0  0  2  0  0  0  0  0  0
  180.7410  179.2810  139.4240 C   0  0  0  0  0  2  0  0  0  0  0  0
  180.6080  177.7730  139.4360 C   0  0  2  0  0  3  0  0  0  0  0  0
  180.6460  179.7510  140.7430 O   0  0  0  0  0  0  0  0  0  0  0  0
  180.0170  177.4760  140.7810 C   0  0  0  0  0  2  0  0  0  0  0  0
  1 18  1  0  0  0  0
  2 27  1  0  0  0  0
  3 16  1  1  0  0  0
  3  7  1  0  0  0  0
  4 15  1  0  0  0  0
  5 11  1  6  0  0  0
  5 19  1  0  0  0  0
  6  7  1  0  0  0  0
  8 16  1  0  0  0  0
  9 13  2  0  0  0  0
 10 22  1  0  0  0  0
 12  8  1  0  0  0  0
 13 20  1  0  0  0  0
 13 24  1  0  0  0  0
 14  2  2  0  0  0  0
 15 12  1  1  0  0  0
 15  5  1  0  0  0  0
 17 28  1  6  0  0  0
 17 10  1  0  0  0  0
 18  4  1  0  0  0  0
 18 20  2  0  0  0  0
 19  3  1  0  0  0  0
 19  6  1  1  0  0  0
 20 11  1  0  0  0  0
 21 23  1  0  0  0  0
 22 24  1  0  0  0  0
 23  4  2  0  0  0  0
 25 14  1  6  0  0  0
 25 17  1  0  0  0  0
 25  9  1  0  0  0  0
 26 21  2  0  0  0  0
 26  1  1  0  0  0  0
 27  1  2  0  0  0  0
 27  9  1  0  0  0  0
 28 29  1  0  0  0  0
 31 32  1  0  0  0  0
 31 33  1  0  0  0  0
 32 29  1  1  0  0  0
 32 34  1  0  0  0  0
 33 30  1  0  0  0  0
 34 30  1  0  0  0  0
M  END
>  <MODEL>
5

>  <REMARK>
 VINA RESULT:      -9.9      1.950      9.262
  Name = 
  3 active torsions:
  status: ('A' for Active; 'I' for Inactive)
    1  A    between atoms: C_17  and  O_28
    2  A    between atoms: O_28  and  C_29
    3  A    between atoms: C_29  and  C_32
                            x       y       z     vdW  Elec       q    Type
                         _______ _______ _______ _____ _____    ______ ____

>  <TORSDO>
F 3

$$$$
=
 OpenBabel11122412163D

 34 41  0  0  1  0  0  0  0  0999 V2000
  189.4060  176.9480  137.5250 C   0  0  0  0  0  0  0  0  0  0  0  0
  187.4930  177.9460  138.9220 C   0  0  0  0  0  3  0  0  0  0  0  0
  194.7640  173.4320  136.9370 C   0  0  2  0  0  3  0  0  0  0  0  0
  191.3020  175.9980  136.3030 C   0  0  0  0  0  0  0  0  0  0  0  0
  193.2570  175.1680  137.6390 C   0  0  1  0  0  3  0  0  0  0  0  0
  195.4820  174.2790  138.7440 C   0  0  0  0  0  2  0  0  0  0  0  0
  195.7800  172.9990  137.9670 C   0  0  0  0  0  2  0  0  0  0  0  0
  194.4610  174.5990  134.8090 O   0  0  0  0  0  0  0  0  0  0  0  0
  189.6500  177.5900  139.8400 C   0  0  0  0  0  0  0  0  0  0  0  0
  190.0480  176.5520  142.5840 C   0  0  0  0  0  2  0  0  0  0  0  0
  193.0280  176.3070  138.6220 C   0  0  0  0  0  2  0  0  0  0  0  0
  193.0800  174.5730  135.1270 C   0  0  0  0  0  2  0  0  0  0  0  0
  191.0080  177.2090  139.8530 C   0  0  0  0  0  0  0  0  0  0  0  0
  187.4920  178.4690  140.3610 C   0  0  0  0  0  3  0  0  0  0  0  0
  192.7620  175.6070  136.2390 C   0  0  1  0  0  3  0  0  0  0  0  0
  195.1360  173.5300  135.4590 C   0  0  0  0  0  2  0  0  0  0  0  0
  188.7200  177.1740  142.1330 C   0  0  2  0  0  3  0  0  0  0  0  0
  190.7650  176.5450  137.4960 C   0  0  0  0  0  0  0  0  0  0  0  0
  194.7270  174.8080  137.5390 C   0  0  1  0  0  3  0  0  0  0  0  0
  191.5650  176.6780  138.6650 C   0  0  0  0  0  0  0  0  0  0  0  0
  189.1600  176.3250  135.1960 C   0  0  0  0  0  3  0  0  0  0  0  0
  191.2070  177.5290  142.4300 C   0  0  0  0  0  2  0  0  0  0  0  0
  190.4950  175.9170  135.1590 C   0  0  0  0  0  3  0  0  0  0  0  0
  191.8990  177.3750  141.0730 C   0  0  0  0  0  2  0  0  0  0  0  0
  188.8680  178.1670  140.9670 C   0  0  1  0  0  3  0  0  0  0  0  0
  188.6170  176.8340  136.3750 C   0  0  0  0  0  3  0  0  0  0  0  0
  188.8800  177.4680  138.7090 C   0  0  0  0  0  0  0  0  0  0  0  0
  188.1160  177.8140  143.2190 O   0  0  0  0  0  0  0  0  0  0  0  0
  188.3800  176.9870  144.3140 C   0  0  0  0  0  2  0  0  0  0  0  0
  188.2720  177.0730  147.7580 C   0  0  0  0  0  2  0  0  0  0  0  0
  189.8950  177.3250  146.2540 C   0  0  0  0  0  2  0  0  0  0  0  0
  188.6570  177.8310  145.5440 C   0  0  2  0  0  3  0  0  0  0  0  0
  189.4970  176.5330  147.3430 O   0  0  0  0  0  0  0  0  0  0  0  0
  187.5600  177.6210  146.5430 C   0  0  0  0  0  2  0  0  0  0  0  0
  1 27  1  0  0  0  0
  2 14  2  0  0  0  0
  3 16  1  6  0  0  0
  3 19  1  0  0  0  0
  3  7  1  0  0  0  0
  4 18  1  0  0  0  0
  5 11  1  1  0  0  0
  7  6  1  0  0  0  0
  8 12  1  0  0  0  0
  8 16  1  0  0  0  0
  9 13  1  0  0  0  0
  9 25  1  0  0  0  0
 11 20  1  0  0  0  0
 13 24  1  0  0  0  0
 15 12  1  6  0  0  0
 15  4  1  0  0  0  0
 15  5  1  0  0  0  0
 17 10  1  0  0  0  0
 17 28  1  1  0  0  0
 18  1  2  0  0  0  0
 18 20  1  0  0  0  0
 19  5  1  0  0  0  0
 19  6  1  1  0  0  0
 20 13  2  0  0  0  0
 21 26  2  0  0  0  0
 22 10  1  0  0  0  0
 23 21  1  0  0  0  0
 23  4  2  0  0  0  0
 24 22  1  0  0  0  0
 25 14  1  6  0  0  0
 25 17  1  0  0  0  0
 26  1  1  0  0  0  0
 27  2  1  0  0  0  0
 27  9  2  0  0  0  0
 28 29  1  0  0  0  0
 31 33  1  0  0  0  0
 32 29  1  6  0  0  0
 32 31  1  0  0  0  0
 32 34  1  0  0  0  0
 33 30  1  0  0  0  0
 34 30  1  0  0  0  0
M  END
>  <MODEL>
6

>  <REMARK>
 VINA RESULT:      -9.8      5.807      8.703
  Name = 
  3 active torsions:
  status: ('A' for Active; 'I' for Inactive)
    1  A    between atoms: C_17  and  O_28
    2  A    between atoms: O_28  and  C_29
    3  A    between atoms: C_29  and  C_32
                            x       y       z     vdW  Elec       q    Type
                         _______ _______ _______ _____ _____    ______ ____

>  <TORSDO>
F 3

$$$$
=
 OpenBabel11122412163D

 34 41  0  0  1  0  0  0  0  0999 V2000
  185.5170  178.4440  144.3820 C   0  0  0  0  0  0  0  0  0  0  0  0
  187.3960  178.0230  146.0850 C   0  0  0  0  0  3  0  0  0  0  0  0
  182.8000  177.6000  138.6100 C   0  0  2  0  0  3  0  0  0  0  0  0
  183.8160  178.8240  142.6640 C   0  0  0  0  0  0  0  0  0  0  0  0
  184.3930  178.2330  140.2950 C   0  0  1  0  0  3  0  0  0  0  0  0
  184.7150  177.7830  137.7150 C   0  0  0  0  0  2  0  0  0  0  0  0
  183.3910  177.1480  137.2950 C   0  0  0  0  0  2  0  0  0  0  0  0
  181.5420  179.3810  139.7170 O   0  0  0  0  0  0  0  0  0  0  0  0
  187.8190  178.0750  143.7530 C   0  0  0  0  0  0  0  0  0  0  0  0
  189.6680  176.1720  142.4390 C   0  0  0  0  0  2  0  0  0  0  0  0
  185.8210  178.6860  140.5630 C   0  0  0  0  0  2  0  0  0  0  0  0
  181.9350  178.7480  140.9220 C   0  0  0  0  0  2  0  0  0  0  0  0
  187.5180  178.2180  142.3820 C   0  0  0  0  0  0  0  0  0  0  0  0
  188.9010  177.8440  145.8690 C   0  0  0  0  0  3  0  0  0  0  0  0
  183.4340  179.0270  141.2150 C   0  0  1  0  0  3  0  0  0  0  0  0
  181.5270  178.4410  138.6500 C   0  0  0  0  0  2  0  0  0  0  0  0
  189.7010  176.4270  143.9520 C   0  0  2  0  0  3  0  0  0  0  0  0
  185.1690  178.5870  143.0150 C   0  0  0  0  0  0  0  0  0  0  0  0
  183.9930  178.4810  138.8540 C   0  0  1  0  0  3  0  0  0  0  0  0
  186.1760  178.4740  142.0150 C   0  0  0  0  0  0  0  0  0  0  0  0
  183.2130  178.8330  145.0210 C   0  0  0  0  0  3  0  0  0  0  0  0
  189.8970  177.4530  141.6470 C   0  0  0  0  0  2  0  0  0  0  0  0
  182.8580  178.9680  143.6780 C   0  0  0  0  0  3  0  0  0  0  0  0
  188.5770  178.1430  141.2940 C   0  0  0  0  0  2  0  0  0  0  0  0
  189.1530  177.8060  144.3570 C   0  0  1  0  0  3  0  0  0  0  0  0
  184.5360  178.5690  145.3720 C   0  0  0  0  0  3  0  0  0  0  0  0
  186.8490  178.1910  144.7180 C   0  0  0  0  0  0  0  0  0  0  0  0
  191.0120  176.2900  144.4150 O   0  0  0  0  0  0  0  0  0  0  0  0
  191.0780  177.1010  145.5510 C   0  0  0  0  0  2  0  0  0  0  0  0
  192.9300  175.7830  148.1420 C   0  0  0  0  0  2  0  0  0  0  0  0
  191.1480  177.1140  148.0350 C   0  0  0  0  0  2  0  0  0  0  0  0
  191.0290  176.2430  146.8020 C   0  0  2  0  0  3  0  0  0  0  0  0
  192.4730  177.0590  148.4970 O   0  0  0  0  0  0  0  0  0  0  0  0
  192.2520  175.3780  146.8540 C   0  0  0  0  0  2  0  0  0  0  0  0
  1 27  1  0  0  0  0
  1 26  2  0  0  0  0
  3  7  1  6  0  0  0
  3 16  1  0  0  0  0
  3 19  1  0  0  0  0
  4 18  2  0  0  0  0
  4 23  1  0  0  0  0
  5 11  1  6  0  0  0
  5 15  1  0  0  0  0
  7  6  1  0  0  0  0
  8 12  1  0  0  0  0
  9 25  1  0  0  0  0
  9 27  2  0  0  0  0
 10 17  1  0  0  0  0
 11 20  1  0  0  0  0
 13  9  1  0  0  0  0
 14  2  2  0  0  0  0
 15 12  1  1  0  0  0
 15  4  1  0  0  0  0
 16  8  1  0  0  0  0
 17 25  1  0  0  0  0
 17 28  1  6  0  0  0
 18  1  1  0  0  0  0
 19  6  1  6  0  0  0
 19  5  1  0  0  0  0
 20 13  2  0  0  0  0
 20 18  1  0  0  0  0
 21 26  1  0  0  0  0
 22 10  1  0  0  0  0
 23 21  2  0  0  0  0
 24 22  1  0  0  0  0
 24 13  1  0  0  0  0
 25 14  1  1  0  0  0
 27  2  1  0  0  0  0
 28 29  1  0  0  0  0
 30 33  1  0  0  0  0
 31 33  1  0  0  0  0
 32 29  1  6  0  0  0
 32 34  1  0  0  0  0
 32 31  1  0  0  0  0
 34 30  1  0  0  0  0
M  END
>  <MODEL>
7

>  <REMARK>
 VINA RESULT:      -9.4      1.313      2.476
  Name = 
  3 active torsions:
  status: ('A' for Active; 'I' for Inactive)
    1  A    between atoms: C_17  and  O_28
    2  A    between atoms: O_28  and  C_29
    3  A    between atoms: C_29  and  C_32
                            x       y       z     vdW  Elec       q    Type
                         _______ _______ _______ _____ _____    ______ ____

>  <TORSDO>
F 3

$$$$
=
 OpenBabel11122412163D

 34 41  0  0  1  0  0  0  0  0999 V2000
  186.5280  178.2530  142.7630 C   0  0  0  0  0  0  0  0  0  0  0  0
  188.9680  177.8260  142.0770 C   0  0  0  0  0  3  0  0  0  0  0  0
  180.1930  177.9430  141.6760 C   0  0  2  0  0  3  0  0  0  0  0  0
  184.1740  178.6640  143.2890 C   0  0  0  0  0  0  0  0  0  0  0  0
  182.5130  178.5160  141.4150 C   0  0  1  0  0  3  0  0  0  0  0  0
  180.5420  178.5050  139.6600 C   0  0  0  0  0  2  0  0  0  0  0  0
  179.4170  177.7740  140.3900 C   0  0  0  0  0  2  0  0  0  0  0  0
  180.4920  179.3600  143.6470 O   0  0  0  0  0  0  0  0  0  0  0  0
  187.2850  178.2830  140.4710 C   0  0  0  0  0  0  0  0  0  0  0  0
  187.1410  176.8540  137.8810 C   0  0  0  0  0  2  0  0  0  0  0  0
  183.5610  179.1040  140.4820 C   0  0  0  0  0  2  0  0  0  0  0  0
  181.6740  178.6080  143.8610 C   0  0  0  0  0  2  0  0  0  0  0  0
  185.9920  178.5910  139.9970 C   0  0  0  0  0  0  0  0  0  0  0  0
  189.6270  177.8770  140.6960 C   0  0  0  0  0  3  0  0  0  0  0  0
  182.7730  179.0320  142.8510 C   0  0  1  0  0  3  0  0  0  0  0  0
  179.5540  178.5980  142.8980 C   0  0  0  0  0  2  0  0  0  0  0  0
  188.4220  176.8810  138.7270 C   0  0  2  0  0  3  0  0  0  0  0  0
  185.2120  178.5530  142.3310 C   0  0  0  0  0  0  0  0  0  0  0  0
  181.1120  178.9240  141.0030 C   0  0  1  0  0  3  0  0  0  0  0  0
  184.9480  178.7230  140.9420 C   0  0  0  0  0  0  0  0  0  0  0  0
  185.7790  178.2400  145.0680 C   0  0  0  0  0  3  0  0  0  0  0  0
  186.6850  178.2580  137.5080 C   0  0  0  0  0  2  0  0  0  0  0  0
  184.4780  178.5290  144.6520 C   0  0  0  0  0  3  0  0  0  0  0  0
  185.6870  178.8170  138.5260 C   0  0  0  0  0  2  0  0  0  0  0  0
  188.5200  178.1000  139.6590 C   0  0  1  0  0  3  0  0  0  0  0  0
  186.7990  178.0990  144.1280 C   0  0  0  0  0  3  0  0  0  0  0  0
  187.5410  178.1260  141.8110 C   0  0  0  0  0  0  0  0  0  0  0  0
  189.5340  176.8460  137.8830 O   0  0  0  0  0  0  0  0  0  0  0  0
  189.5980  175.5270  137.4280 C   0  0  0  0  0  2  0  0  0  0  0  0
  193.0430  175.4030  137.4120 C   0  0  0  0  0  2  0  0  0  0  0  0
  191.4410  173.9750  136.8180 C   0  0  0  0  0  2  0  0  0  0  0  0
  190.8300  175.3370  136.5620 C   0  0  2  0  0  3  0  0  0  0  0  0
  192.5310  174.1280  137.6880 O   0  0  0  0  0  0  0  0  0  0  0  0
  191.8950  176.2960  137.0030 C   0  0  0  0  0  2  0  0  0  0  0  0
  1 26  2  0  0  0  0
  3  7  1  6  0  0  0
  3 16  1  0  0  0  0
  4 23  1  0  0  0  0
  5 11  1  6  0  0  0
  5 15  1  0  0  0  0
  6  7  1  0  0  0  0
  8 12  1  0  0  0  0
  9 27  2  0  0  0  0
 10 17  1  0  0  0  0
 11 20  1  0  0  0  0
 13  9  1  0  0  0  0
 13 20  2  0  0  0  0
 14  2  2  0  0  0  0
 15  4  1  0  0  0  0
 15 12  1  1  0  0  0
 16  8  1  0  0  0  0
 17 28  1  6  0  0  0
 17 25  1  0  0  0  0
 18  1  1  0  0  0  0
 18  4  2  0  0  0  0
 19  6  1  6  0  0  0
 19  5  1  0  0  0  0
 19  3  1  0  0  0  0
 20 18  1  0  0  0  0
 22 10  1  0  0  0  0
 22 24  1  0  0  0  0
 23 21  2  0  0  0  0
 24 13  1  0  0  0  0
 25  9  1  0  0  0  0
 25 14  1  1  0  0  0
 26 21  1  0  0  0  0
 27  2  1  0  0  0  0
 27  1  1  0  0  0  0
 29 28  1  0  0  0  0
 30 33  1  0  0  0  0
 31 33  1  0  0  0  0
 32 31  1  0  0  0  0
 32 34  1  0  0  0  0
 32 29  1  1  0  0  0
 34 30  1  0  0  0  0
M  END
>  <MODEL>
8

>  <REMARK>
 VINA RESULT:      -9.1      3.738      5.987
  Name = 
  3 active torsions:
  status: ('A' for Active; 'I' for Inactive)
    1  A    between atoms: C_17  and  O_28
    2  A    between atoms: O_28  and  C_29
    3  A    between atoms: C_29  and  C_32
                            x       y       z     vdW  Elec       q    Type
                         _______ _______ _______ _____ _____    ______ ____

>  <TORSDO>
F 3

$$$$
=
 OpenBabel11122412163D

 34 41  0  0  1  0  0  0  0  0999 V2000
  188.2500  177.5460  142.6330 C   0  0  0  0  0  0  0  0  0  0  0  0
  190.5590  176.8220  141.7660 C   0  0  0  0  0  3  0  0  0  0  0  0
  181.9000  178.3010  141.9110 C   0  0  2  0  0  3  0  0  0  0  0  0
  186.0160  178.2560  143.3350 C   0  0  0  0  0  0  0  0  0  0  0  0
  184.2660  178.5380  141.5590 C   0  0  1  0  0  3  0  0  0  0  0  0
  182.2380  178.9910  139.9340 C   0  0  0  0  0  2  0  0  0  0  0  0
  181.0480  178.3730  140.6650 C   0  0  0  0  0  2  0  0  0  0  0  0
  182.5090  179.4630  143.9750 O   0  0  0  0  0  0  0  0  0  0  0  0
  188.8950  177.6780  140.3100 C   0  0  0  0  0  0  0  0  0  0  0  0
  188.4080  176.5380  137.6210 C   0  0  0  0  0  2  0  0  0  0  0  0
  185.3490  179.0470  140.6180 C   0  0  0  0  0  2  0  0  0  0  0  0
  183.5680  178.5250  144.0510 C   0  0  0  0  0  2  0  0  0  0  0  0
  187.6450  178.2210  139.9440 C   0  0  0  0  0  0  0  0  0  0  0  0
  191.1530  176.9040  140.3570 C   0  0  0  0  0  3  0  0  0  0  0  0
  184.6710  178.8710  143.0160 C   0  0  1  0  0  3  0  0  0  0  0  0
  181.4290  178.9250  143.2220 C   0  0  0  0  0  2  0  0  0  0  0  0
  189.7150  176.2920  138.3860 C   0  0  2  0  0  3  0  0  0  0  0  0
  186.9780  178.0810  142.3090 C   0  0  0  0  0  0  0  0  0  0  0  0
  182.9280  179.1900  141.2700 C   0  0  1  0  0  3  0  0  0  0  0  0
  186.6790  178.4190  140.9590 C   0  0  0  0  0  0  0  0  0  0  0  0
  187.6170  177.4280  144.9690 C   0  0  0  0  0  3  0  0  0  0  0  0
  188.1590  178.0250  137.3990 C   0  0  0  0  0  2  0  0  0  0  0  0
  186.3590  177.9480  144.6600 C   0  0  0  0  0  3  0  0  0  0  0  0
  187.3090  178.6290  138.5190 C   0  0  0  0  0  2  0  0  0  0  0  0
  190.0460  177.3890  139.4120 C   0  0  1  0  0  3  0  0  0  0  0  0
  188.5580  177.2240  143.9610 C   0  0  0  0  0  3  0  0  0  0  0  0
  189.1850  177.3580  141.6130 C   0  0  0  0  0  0  0  0  0  0  0  0
  190.7680  176.1690  137.4760 O   0  0  0  0  0  0  0  0  0  0  0  0
  190.2460  175.4150  136.4220 C   0  0  0  0  0  2  0  0  0  0  0  0
  189.5790  172.2110  135.3400 C   0  0  0  0  0  2  0  0  0  0  0  0
  191.4370  173.4240  135.5340 C   0  0  0  0  0  2  0  0  0  0  0  0
  190.5440  173.9430  136.6410 C   0  0  2  0  0  3  0  0  0  0  0  0
  190.6430  172.7430  134.5980 O   0  0  0  0  0  0  0  0  0  0  0  0
  189.2790  173.1560  136.4810 C   0  0  0  0  0  2  0  0  0  0  0  0
  1 26  2  0  0  0  0
  3  7  1  6  0  0  0
  3 16  1  0  0  0  0
  4 23  1  0  0  0  0
  5 11  1  6  0  0  0
  5 15  1  0  0  0  0
  6  7  1  0  0  0  0
  8 12  1  0  0  0  0
  9 27  2  0  0  0  0
 10 17  1  0  0  0  0
 11 20  1  0  0  0  0
 13  9  1  0  0  0  0
 13 20  2  0  0  0  0
 14  2  2  0  0  0  0
 15  4  1  0  0  0  0
 15 12  1  1  0  0  0
 16  8  1  0  0  0  0
 17 28  1  6  0  0  0
 17 25  1  0  0  0  0
 18  1  1  0  0  0  0
 18  4  2  0  0  0  0
 19  6  1  6  0  0  0
 19  5  1  0  0  0  0
 19  3  1  0  0  0  0
 20 18  1  0  0  0  0
 22 10  1  0  0  0  0
 22 24  1  0  0  0  0
 23 21  2  0  0  0  0
 24 13  1  0  0  0  0
 25  9  1  0  0  0  0
 25 14  1  1  0  0  0
 26 21  1  0  0  0  0
 27  2  1  0  0  0  0
 27  1  1  0  0  0  0
 29 28  1  0  0  0  0
 30 34  1  0  0  0  0
 31 32  1  0  0  0  0
 32 29  1  6  0  0  0
 33 30  1  0  0  0  0
 33 31  1  0  0  0  0
 34 32  1  0  0  0  0
M  END
>  <MODEL>
9

>  <REMARK>
 VINA RESULT:      -9.1      4.200      6.982
  Name = 
  3 active torsions:
  status: ('A' for Active; 'I' for Inactive)
    1  A    between atoms: C_17  and  O_28
    2  A    between atoms: O_28  and  C_29
    3  A    between atoms: C_29  and  C_32
                            x       y       z     vdW  Elec       q    Type
                         _______ _______ _______ _____ _____    ______ ____

>  <TORSDO>
F 3

$$$$
