=
 OpenBabel11122411523D

 28 31  0  0  1  0  0  0  0  0999 V2000
  180.9950  179.2370  142.4910 C   0  0  0  0  0  0  0  0  0  0  0  0
  179.5090  176.1570  139.6720 O   0  0  0  0  0  0  0  0  0  0  0  0
  179.4600  180.7440  140.7010 C   0  0  0  0  0  3  0  0  0  0  0  0
  181.8090  178.5390  143.3830 O   0  0  0  0  0  0  0  0  0  0  0  0
  180.1020  177.9840  138.1250 O   0  0  0  0  0  0  0  0  0  0  0  0
  180.5850  176.7290  138.7930 S   0  0  0  0  0  0  0  0  0  0  0  0
  182.3810  174.8450  137.8970 C   0  0  1  0  0  3  0  0  0  0  0  0
  182.0800  176.9890  139.7200 C   0  0  1  0  0  3  0  0  0  0  0  0
  185.3220  179.1590  144.5420 C   0  0  0  0  0  1  0  0  0  0  0  0
  183.5900  178.8240  140.2390 C   0  0  2  0  0  3  0  0  0  0  0  0
  183.5870  175.7890  138.1240 C   0  0  0  0  0  2  0  0  0  0  0  0
  181.0660  175.5540  137.5250 C   0  0  0  0  0  2  0  0  0  0  0  0
  184.1770  178.3930  143.9090 C   0  0  2  0  0  3  0  0  0  0  0  0
  181.1690  179.0710  141.1070 C   0  0  0  0  0  0  0  0  0  0  0  0
  182.7300  173.8170  136.8440 C   0  0  0  0  0  1  0  0  0  0  0  0
  184.5270  177.9960  142.4690 C   0  0  0  0  0  2  0  0  0  0  0  0
  180.4220  179.8530  140.2180 C   0  0  0  0  0  3  0  0  0  0  0  0
  180.0310  180.1320  142.9720 C   0  0  0  0  0  3  0  0  0  0  0  0
  179.2600  180.8770  142.0770 C   0  0  0  0  0  3  0  0  0  0  0  0
  182.8860  179.2030  144.0290 C   0  0  0  0  0  2  0  0  0  0  0  0
  184.2750  177.8760  139.3520 N   0  0  0  0  0  0  0  0  0  0  0  0
  184.4240  179.1680  141.4870 C   0  0  1  0  0  3  0  0  0  0  0  0
  183.1830  177.1460  138.7130 C   0  0  2  0  0  3  0  0  0  0  0  0
  182.2720  178.1750  140.6330 C   0  0  1  0  0  3  0  0  0  0  0  0
  186.5680  178.6280  141.5920 C   0  0  0  0  0  1  0  0  0  0  0  0
  185.6990  179.6190  141.1330 O   0  0  0  0  0  0  0  0  0  0  0  0
  184.9230  178.6640  138.3140 C   0  0  0  0  0  2  0  0  0  0  0  0
  186.2690  178.0530  137.9730 C   0  0  0  0  0  1  0  0  0  0  0  0
  1 18  1  0  0  0  0
  1  4  1  0  0  0  0
  3 19  1  0  0  0  0
  4 20  1  0  0  0  0
  5  6  2  0  0  0  0
  6  2  2  0  0  0  0
  7 15  1  6  0  0  0
  7 11  1  0  0  0  0
  8  6  1  6  0  0  0
  8 24  1  0  0  0  0
 10 21  1  6  0  0  0
 10 24  1  0  0  0  0
 10 22  1  0  0  0  0
 12  7  1  0  0  0  0
 12  6  1  0  0  0  0
 13 20  1  0  0  0  0
 13  9  1  6  0  0  0
 14  1  2  0  0  0  0
 16 13  1  0  0  0  0
 17  3  2  0  0  0  0
 17 14  1  0  0  0  0
 19 18  2  0  0  0  0
 22 26  1  6  0  0  0
 22 16  1  0  0  0  0
 23 11  1  1  0  0  0
 23 21  1  0  0  0  0
 23  8  1  0  0  0  0
 24 14  1  6  0  0  0
 26 25  1  0  0  0  0
 27 21  1  0  0  0  0
 28 27  1  0  0  0  0
M  END
>  <MODEL>
1

>  <REMARK>
 VINA RESULT:      -6.7      0.000      0.000
  Name = 
  2 active torsions:
  status: ('A' for Active; 'I' for Inactive)
    1  A    between atoms: C_5  and  N_24
    2  A    between atoms: O_17  and  C_25
                            x       y       z     vdW  Elec       q    Type
                         _______ _______ _______ _____ _____    ______ ____

>  <TORSDO>
F 2

$$$$
=
 OpenBabel11122411523D

 28 31  0  0  1  0  0  0  0  0999 V2000
  185.4490  175.3970  136.0680 C   0  0  0  0  0  0  0  0  0  0  0  0
  181.3070  176.9740  136.0390 O   0  0  0  0  0  0  0  0  0  0  0  0
  184.0720  173.5110  137.6100 C   0  0  0  0  0  3  0  0  0  0  0  0
  186.1900  176.3320  135.3470 O   0  0  0  0  0  0  0  0  0  0  0  0
  181.5450  176.2800  138.3940 O   0  0  0  0  0  0  0  0  0  0  0  0
  181.6810  177.4190  137.4250 S   0  0  0  0  0  0  0  0  0  0  0  0
  181.3400  180.1190  137.8340 C   0  0  1  0  0  3  0  0  0  0  0  0
  183.3110  178.1290  137.4390 C   0  0  1  0  0  3  0  0  0  0  0  0
  189.3800  178.1310  136.1590 C   0  0  0  0  0  1  0  0  0  0  0  0
  185.4280  177.7730  138.5830 C   0  0  2  0  0  3  0  0  0  0  0  0
  182.6670  180.2360  138.6220 C   0  0  0  0  0  2  0  0  0  0  0  0
  180.6240  178.7630  137.9700 C   0  0  0  0  0  2  0  0  0  0  0  0
  187.9160  177.9840  135.7960 C   0  0  2  0  0  3  0  0  0  0  0  0
  184.6010  175.8230  137.1030 C   0  0  0  0  0  0  0  0  0  0  0  0
  180.4060  181.2380  138.2410 C   0  0  0  0  0  1  0  0  0  0  0  0
  187.0330  178.7040  136.8240 C   0  0  0  0  0  2  0  0  0  0  0  0
  183.9430  174.8740  137.8930 C   0  0  0  0  0  3  0  0  0  0  0  0
  185.5780  174.0310  135.7880 C   0  0  0  0  0  3  0  0  0  0  0  0
  184.8840  173.0910  136.5530 C   0  0  0  0  0  3  0  0  0  0  0  0
  187.5740  176.5040  135.6190 C   0  0  0  0  0  2  0  0  0  0  0  0
  184.8450  179.0430  139.0350 N   0  0  0  0  0  0  0  0  0  0  0  0
  186.8940  177.9270  138.1380 C   0  0  1  0  0  3  0  0  0  0  0  0
  183.4260  178.9060  138.7170 C   0  0  2  0  0  3  0  0  0  0  0  0
  184.5620  177.2850  137.4320 C   0  0  1  0  0  3  0  0  0  0  0  0
  188.5240  177.5150  139.5770 C   0  0  0  0  0  1  0  0  0  0  0  0
  187.6660  178.5240  139.1380 O   0  0  0  0  0  0  0  0  0  0  0  0
  184.9540  179.0620  140.4870 C   0  0  0  0  0  2  0  0  0  0  0  0
  184.0040  178.0430  141.0850 C   0  0  0  0  0  1  0  0  0  0  0  0
  1 14  1  0  0  0  0
  2  6  2  0  0  0  0
  3 17  1  0  0  0  0
  4 20  1  0  0  0  0
  4  1  1  0  0  0  0
  6 12  1  0  0  0  0
  6  5  2  0  0  0  0
  7 12  1  0  0  0  0
  7 15  1  1  0  0  0
  7 11  1  0  0  0  0
  8  6  1  1  0  0  0
  8 23  1  0  0  0  0
 10 21  1  6  0  0  0
 13  9  1  1  0  0  0
 13 16  1  0  0  0  0
 14 17  2  0  0  0  0
 16 22  1  0  0  0  0
 18  1  2  0  0  0  0
 18 19  1  0  0  0  0
 19  3  2  0  0  0  0
 20 13  1  0  0  0  0
 21 27  1  0  0  0  0
 22 10  1  0  0  0  0
 22 26  1  1  0  0  0
 23 11  1  6  0  0  0
 23 21  1  0  0  0  0
 24 14  1  1  0  0  0
 24  8  1  0  0  0  0
 24 10  1  0  0  0  0
 26 25  1  0  0  0  0
 27 28  1  0  0  0  0
M  END
>  <MODEL>
2

>  <REMARK>
 VINA RESULT:      -6.1      2.684      6.322
  Name = 
  2 active torsions:
  status: ('A' for Active; 'I' for Inactive)
    1  A    between atoms: C_5  and  N_24
    2  A    between atoms: O_17  and  C_25
                            x       y       z     vdW  Elec       q    Type
                         _______ _______ _______ _____ _____    ______ ____

>  <TORSDO>
F 2

$$$$
=
 OpenBabel11122411523D

 28 31  0  0  1  0  0  0  0  0999 V2000
  186.0550  174.9370  136.1880 C   0  0  0  0  0  0  0  0  0  0  0  0
  181.7970  175.5030  135.0980 O   0  0  0  0  0  0  0  0  0  0  0  0
  184.7790  172.9350  137.6680 C   0  0  0  0  0  3  0  0  0  0  0  0
  186.7330  175.9480  135.5070 O   0  0  0  0  0  0  0  0  0  0  0  0
  181.6270  175.1040  137.5250 O   0  0  0  0  0  0  0  0  0  0  0  0
  181.7440  176.1490  136.4530 S   0  0  0  0  0  0  0  0  0  0  0  0
  180.7700  178.7230  136.4000 C   0  0  1  0  0  3  0  0  0  0  0  0
  183.1460  177.2150  136.6970 C   0  0  1  0  0  3  0  0  0  0  0  0
  189.2130  178.5040  136.6880 C   0  0  0  0  0  1  0  0  0  0  0  0
  184.9700  177.4660  138.2850 C   0  0  2  0  0  3  0  0  0  0  0  0
  181.8280  179.2160  137.4160 C   0  0  0  0  0  2  0  0  0  0  0  0
  180.3370  177.2570  136.5770 C   0  0  0  0  0  2  0  0  0  0  0  0
  187.9320  177.9890  136.0600 C   0  0  2  0  0  3  0  0  0  0  0  0
  184.9230  175.2500  136.9590 C   0  0  0  0  0  0  0  0  0  0  0  0
  179.5590  179.6280  136.4470 C   0  0  0  0  0  1  0  0  0  0  0  0
  186.7090  178.5770  136.7760 C   0  0  0  0  0  2  0  0  0  0  0  0
  184.3120  174.2510  137.7240 C   0  0  0  0  0  3  0  0  0  0  0  0
  186.5230  173.6190  136.1350 C   0  0  0  0  0  3  0  0  0  0  0  0
  185.8800  172.6180  136.8680 C   0  0  0  0  0  3  0  0  0  0  0  0
  187.9520  176.4600  136.0270 C   0  0  0  0  0  2  0  0  0  0  0  0
  184.0510  178.6030  138.4270 N   0  0  0  0  0  0  0  0  0  0  0  0
  186.4350  177.9130  138.1300 C   0  0  1  0  0  3  0  0  0  0  0  0
  182.8020  178.1130  137.8500 C   0  0  2  0  0  3  0  0  0  0  0  0
  184.5110  176.6860  137.0640 C   0  0  1  0  0  3  0  0  0  0  0  0
  187.7910  178.0500  139.8740 C   0  0  0  0  0  1  0  0  0  0  0  0
  186.8180  178.7620  139.1720 O   0  0  0  0  0  0  0  0  0  0  0  0
  183.8180  178.7810  139.8530 C   0  0  0  0  0  2  0  0  0  0  0  0
  183.1690  177.5350  140.4250 C   0  0  0  0  0  1  0  0  0  0  0  0
  1 14  1  0  0  0  0
  2  6  2  0  0  0  0
  3 17  1  0  0  0  0
  4 20  1  0  0  0  0
  4  1  1  0  0  0  0
  6 12  1  0  0  0  0
  6  5  2  0  0  0  0
  7 15  1  1  0  0  0
  7 12  1  0  0  0  0
  7 11  1  0  0  0  0
  8  6  1  1  0  0  0
  8 24  1  0  0  0  0
  8 23  1  0  0  0  0
 10 21  1  6  0  0  0
 13  9  1  1  0  0  0
 13 16  1  0  0  0  0
 14 17  2  0  0  0  0
 16 22  1  0  0  0  0
 18  1  2  0  0  0  0
 18 19  1  0  0  0  0
 19  3  2  0  0  0  0
 20 13  1  0  0  0  0
 21 27  1  0  0  0  0
 22 10  1  0  0  0  0
 22 26  1  1  0  0  0
 23 11  1  6  0  0  0
 23 21  1  0  0  0  0
 24 14  1  1  0  0  0
 24 10  1  0  0  0  0
 26 25  1  0  0  0  0
 27 28  1  0  0  0  0
M  END
>  <MODEL>
3

>  <REMARK>
 VINA RESULT:      -5.8      3.094      6.405
  Name = 
  2 active torsions:
  status: ('A' for Active; 'I' for Inactive)
    1  A    between atoms: C_5  and  N_24
    2  A    between atoms: O_17  and  C_25
                            x       y       z     vdW  Elec       q    Type
                         _______ _______ _______ _____ _____    ______ ____

>  <TORSDO>
F 2

$$$$
=
 OpenBabel11122411523D

 28 31  0  0  1  0  0  0  0  0999 V2000
  183.8410  176.3850  138.2490 C   0  0  0  0  0  0  0  0  0  0  0  0
  186.1460  177.4900  141.8700 O   0  0  0  0  0  0  0  0  0  0  0  0
  185.3130  178.5990  137.3780 C   0  0  0  0  0  3  0  0  0  0  0  0
  183.0510  175.3070  138.6470 O   0  0  0  0  0  0  0  0  0  0  0  0
  185.4530  179.7070  141.0410 O   0  0  0  0  0  0  0  0  0  0  0  0
  185.1050  178.5700  141.9580 S   0  0  0  0  0  0  0  0  0  0  0  0
  183.7670  178.6040  144.3630 C   0  0  1  0  0  3  0  0  0  0  0  0
  183.4860  177.9100  141.6340 C   0  0  1  0  0  3  0  0  0  0  0  0
  179.3690  174.6720  138.3130 C   0  0  0  0  0  1  0  0  0  0  0  0
  181.6440  178.3140  140.0990 C   0  0  2  0  0  3  0  0  0  0  0  0
  182.4040  178.8640  143.6780 C   0  0  0  0  0  2  0  0  0  0  0  0
  184.9830  179.2030  143.6330 C   0  0  0  0  0  2  0  0  0  0  0  0
  180.6930  174.8570  139.0280 C   0  0  2  0  0  3  0  0  0  0  0  0
  183.8670  177.5570  139.0230 C   0  0  0  0  0  0  0  0  0  0  0  0
  183.7240  179.1050  145.7900 C   0  0  0  0  0  1  0  0  0  0  0  0
  180.5910  175.9850  140.0640 C   0  0  0  0  0  2  0  0  0  0  0  0
  184.5760  178.6720  138.5630 C   0  0  0  0  0  3  0  0  0  0  0  0
  184.5790  176.3150  137.0610 C   0  0  0  0  0  3  0  0  0  0  0  0
  185.3190  177.4180  136.6310 C   0  0  0  0  0  3  0  0  0  0  0  0
  181.8090  175.0610  138.0020 C   0  0  0  0  0  2  0  0  0  0  0  0
  181.2370  178.7130  141.4520 N   0  0  0  0  0  0  0  0  0  0  0  0
  180.6180  177.3800  139.4300 C   0  0  1  0  0  3  0  0  0  0  0  0
  182.5040  178.9220  142.1480 C   0  0  2  0  0  3  0  0  0  0  0  0
  182.9920  177.6250  140.2370 C   0  0  1  0  0  3  0  0  0  0  0  0
  179.1870  178.5090  138.1750 C   0  0  0  0  0  1  0  0  0  0  0  0
  179.3390  177.9430  139.4420 O   0  0  0  0  0  0  0  0  0  0  0  0
  180.5990  180.0160  141.3330 C   0  0  0  0  0  2  0  0  0  0  0  0
  179.3470  180.0530  142.1870 C   0  0  0  0  0  1  0  0  0  0  0  0
  1  4  1  0  0  0  0
  1 14  1  0  0  0  0
  2  6  2  0  0  0  0
  3 17  1  0  0  0  0
  5  6  2  0  0  0  0
  6 12  1  0  0  0  0
  7 15  1  1  0  0  0
  8  6  1  6  0  0  0
  8 23  1  0  0  0  0
 10 24  1  0  0  0  0
 10 21  1  1  0  0  0
 11  7  1  0  0  0  0
 12  7  1  0  0  0  0
 13  9  1  6  0  0  0
 13 16  1  0  0  0  0
 17 14  2  0  0  0  0
 18  1  2  0  0  0  0
 19 18  1  0  0  0  0
 19  3  2  0  0  0  0
 20  4  1  0  0  0  0
 20 13  1  0  0  0  0
 21 23  1  0  0  0  0
 22 26  1  1  0  0  0
 22 16  1  0  0  0  0
 22 10  1  0  0  0  0
 23 11  1  1  0  0  0
 24 14  1  6  0  0  0
 24  8  1  0  0  0  0
 25 26  1  0  0  0  0
 27 21  1  0  0  0  0
 27 28  1  0  0  0  0
M  END
>  <MODEL>
4

>  <REMARK>
 VINA RESULT:      -5.7      2.003      6.544
  Name = 
  2 active torsions:
  status: ('A' for Active; 'I' for Inactive)
    1  A    between atoms: C_5  and  N_24
    2  A    between atoms: O_17  and  C_25
                            x       y       z     vdW  Elec       q    Type
                         _______ _______ _______ _____ _____    ______ ____

>  <TORSDO>
F 2

$$$$
=
 OpenBabel11122411523D

 28 31  0  0  1  0  0  0  0  0999 V2000
  180.9260  179.5640  140.4820 C   0  0  0  0  0  0  0  0  0  0  0  0
  180.2910  176.6130  137.2370 O   0  0  0  0  0  0  0  0  0  0  0  0
  180.2800  181.1920  138.3010 C   0  0  0  0  0  3  0  0  0  0  0  0
  181.2990  178.8000  141.5880 O   0  0  0  0  0  0  0  0  0  0  0  0
  181.5610  178.3670  136.0560 O   0  0  0  0  0  0  0  0  0  0  0  0
  181.6580  177.0780  136.8200 S   0  0  0  0  0  0  0  0  0  0  0  0
  183.4820  175.0300  136.5800 C   0  0  1  0  0  3  0  0  0  0  0  0
  182.7350  177.2060  138.2290 C   0  0  1  0  0  3  0  0  0  0  0  0
  184.1980  179.1030  143.9500 C   0  0  0  0  0  1  0  0  0  0  0  0
  184.1110  178.8980  139.3040 C   0  0  2  0  0  3  0  0  0  0  0  0
  184.6030  175.8610  137.2500 C   0  0  0  0  0  2  0  0  0  0  0  0
  182.4580  175.8540  135.7790 C   0  0  0  0  0  2  0  0  0  0  0  0
  183.2950  178.4410  142.9270 C   0  0  2  0  0  3  0  0  0  0  0  0
  181.5720  179.3720  139.2500 C   0  0  0  0  0  0  0  0  0  0  0  0
  184.0950  173.9670  135.6950 C   0  0  0  0  0  1  0  0  0  0  0  0
  184.1050  178.0030  141.6990 C   0  0  0  0  0  2  0  0  0  0  0  0
  181.2680  180.2130  138.1730 C   0  0  0  0  0  3  0  0  0  0  0  0
  179.9360  180.5460  140.6080 C   0  0  0  0  0  3  0  0  0  0  0  0
  179.6090  181.3530  139.5160 C   0  0  0  0  0  3  0  0  0  0  0  0
  182.1240  179.3670  142.5960 C   0  0  0  0  0  2  0  0  0  0  0  0
  184.9840  177.8850  138.6990 N   0  0  0  0  0  0  0  0  0  0  0  0
  184.4660  179.1730  140.7770 C   0  0  1  0  0  3  0  0  0  0  0  0
  184.1350  177.2540  137.6900 C   0  0  2  0  0  3  0  0  0  0  0  0
  182.6880  178.3750  139.1800 C   0  0  1  0  0  3  0  0  0  0  0  0
  186.3620  178.4590  141.6680 C   0  0  0  0  0  1  0  0  0  0  0  0
  185.8170  179.5020  140.9180 O   0  0  0  0  0  0  0  0  0  0  0  0
  186.0290  178.6020  137.9840 C   0  0  0  0  0  2  0  0  0  0  0  0
  187.3610  177.9070  138.1930 C   0  0  0  0  0  1  0  0  0  0  0  0
  1 18  1  0  0  0  0
  1  4  1  0  0  0  0
  3 19  1  0  0  0  0
  4 20  1  0  0  0  0
  5  6  2  0  0  0  0
  6  2  2  0  0  0  0
  7 15  1  6  0  0  0
  7 11  1  0  0  0  0
  8  6  1  6  0  0  0
  8 24  1  0  0  0  0
 10 21  1  1  0  0  0
 10 22  1  0  0  0  0
 12  7  1  0  0  0  0
 12  6  1  0  0  0  0
 13  9  1  1  0  0  0
 14  1  2  0  0  0  0
 16 13  1  0  0  0  0
 17  3  2  0  0  0  0
 17 14  1  0  0  0  0
 19 18  2  0  0  0  0
 20 13  1  0  0  0  0
 22 26  1  6  0  0  0
 22 16  1  0  0  0  0
 23 11  1  1  0  0  0
 23  8  1  0  0  0  0
 23 21  1  0  0  0  0
 24 14  1  6  0  0  0
 24 10  1  0  0  0  0
 26 25  1  0  0  0  0
 27 28  1  0  0  0  0
 27 21  1  0  0  0  0
M  END
>  <MODEL>
5

>  <REMARK>
 VINA RESULT:      -5.6      1.448      1.757
  Name = 
  2 active torsions:
  status: ('A' for Active; 'I' for Inactive)
    1  A    between atoms: C_5  and  N_24
    2  A    between atoms: O_17  and  C_25
                            x       y       z     vdW  Elec       q    Type
                         _______ _______ _______ _____ _____    ______ ____

>  <TORSDO>
F 2

$$$$
=
 OpenBabel11122411523D

 28 31  0  0  1  0  0  0  0  0999 V2000
  184.6800  176.3030  137.7270 C   0  0  0  0  0  0  0  0  0  0  0  0
  186.2290  177.5880  141.6750 O   0  0  0  0  0  0  0  0  0  0  0  0
  186.1850  178.5710  137.0780 C   0  0  0  0  0  3  0  0  0  0  0  0
  183.8800  175.1950  138.0030 O   0  0  0  0  0  0  0  0  0  0  0  0
  185.6000  179.7520  140.6740 O   0  0  0  0  0  0  0  0  0  0  0  0
  185.1420  178.6160  141.5430 S   0  0  0  0  0  0  0  0  0  0  0  0
  183.3860  178.6290  143.6620 C   0  0  1  0  0  3  0  0  0  0  0  0
  183.6420  177.8720  140.9470 C   0  0  1  0  0  3  0  0  0  0  0  0
  180.3540  174.3730  137.0200 C   0  0  0  0  0  1  0  0  0  0  0  0
  182.0950  178.1550  139.0920 C   0  0  2  0  0  3  0  0  0  0  0  0
  182.1610  178.8080  142.7320 C   0  0  0  0  0  2  0  0  0  0  0  0
  184.6860  179.2730  143.1500 C   0  0  0  0  0  2  0  0  0  0  0  0
  181.5150  174.6360  137.9590 C   0  0  2  0  0  3  0  0  0  0  0  0
  184.5100  177.4890  138.4600 C   0  0  0  0  0  0  0  0  0  0  0  0
  183.0580  179.1530  145.0430 C   0  0  0  0  0  1  0  0  0  0  0  0
  181.1730  175.7760  138.9290 C   0  0  0  0  0  2  0  0  0  0  0  0
  185.2410  178.6290  138.1070 C   0  0  0  0  0  3  0  0  0  0  0  0
  185.6250  176.2480  136.6950 C   0  0  0  0  0  3  0  0  0  0  0  0
  186.3810  177.3780  136.3780 C   0  0  0  0  0  3  0  0  0  0  0  0
  182.7900  174.8760  137.1500 C   0  0  0  0  0  2  0  0  0  0  0  0
  181.4290  178.5590  140.3360 N   0  0  0  0  0  0  0  0  0  0  0  0
  181.2530  177.1590  138.2730 C   0  0  1  0  0  3  0  0  0  0  0  0
  182.5370  178.8430  141.2460 C   0  0  2  0  0  3  0  0  0  0  0  0
  183.4260  177.5370  139.4920 C   0  0  1  0  0  3  0  0  0  0  0  0
  180.0190  178.1690  136.7380 C   0  0  0  0  0  1  0  0  0  0  0  0
  179.9700  177.6580  138.0350 O   0  0  0  0  0  0  0  0  0  0  0  0
  180.7660  179.8260  140.0670 C   0  0  0  0  0  2  0  0  0  0  0  0
  181.6050  180.6490  139.1090 C   0  0  0  0  0  1  0  0  0  0  0  0
  1  4  1  0  0  0  0
  1 14  1  0  0  0  0
  3 17  1  0  0  0  0
  5  6  2  0  0  0  0
  6  2  2  0  0  0  0
  6 12  1  0  0  0  0
  7 15  1  1  0  0  0
  8 23  1  0  0  0  0
  8  6  1  6  0  0  0
 10 24  1  0  0  0  0
 10 21  1  1  0  0  0
 11  7  1  0  0  0  0
 12  7  1  0  0  0  0
 13  9  1  6  0  0  0
 13 16  1  0  0  0  0
 17 14  2  0  0  0  0
 18  1  2  0  0  0  0
 19 18  1  0  0  0  0
 19  3  2  0  0  0  0
 20 13  1  0  0  0  0
 20  4  1  0  0  0  0
 21 23  1  0  0  0  0
 22 26  1  1  0  0  0
 22 16  1  0  0  0  0
 22 10  1  0  0  0  0
 23 11  1  1  0  0  0
 24 14  1  6  0  0  0
 24  8  1  0  0  0  0
 25 26  1  0  0  0  0
 27 21  1  0  0  0  0
 28 27  1  0  0  0  0
M  END
>  <MODEL>
6

>  <REMARK>
 VINA RESULT:      -5.5      2.037      6.593
  Name = 
  2 active torsions:
  status: ('A' for Active; 'I' for Inactive)
    1  A    between atoms: C_5  and  N_24
    2  A    between atoms: O_17  and  C_25
                            x       y       z     vdW  Elec       q    Type
                         _______ _______ _______ _____ _____    ______ ____

>  <TORSDO>
F 2

$$$$
=
 OpenBabel11122411523D

 28 31  0  0  1  0  0  0  0  0999 V2000
  186.8130  175.8070  136.9890 C   0  0  0  0  0  0  0  0  0  0  0  0
  186.0770  178.6410  140.3170 O   0  0  0  0  0  0  0  0  0  0  0  0
  187.1930  178.2930  135.7630 C   0  0  0  0  0  3  0  0  0  0  0  0
  186.5890  174.5460  137.5410 O   0  0  0  0  0  0  0  0  0  0  0  0
  184.9020  179.7590  138.4590 O   0  0  0  0  0  0  0  0  0  0  0  0
  184.7600  178.8100  139.6150 S   0  0  0  0  0  0  0  0  0  0  0  0
  182.5880  178.3380  141.2380 C   0  0  1  0  0  3  0  0  0  0  0  0
  184.1040  177.2340  139.1200 C   0  0  1  0  0  3  0  0  0  0  0  0
  184.4650  171.6760  136.3910 C   0  0  0  0  0  1  0  0  0  0  0  0
  183.3700  176.1430  137.0730 C   0  0  2  0  0  3  0  0  0  0  0  0
  181.8380  177.5680  140.1250 C   0  0  0  0  0  2  0  0  0  0  0  0
  183.5180  179.4580  140.7370 C   0  0  0  0  0  2  0  0  0  0  0  0
  184.9520  172.7620  137.3300 C   0  0  2  0  0  3  0  0  0  0  0  0
  185.8610  176.8250  137.1610 C   0  0  0  0  0  0  0  0  0  0  0  0
  181.5920  178.8990  142.2290 C   0  0  0  0  0  1  0  0  0  0  0  0
  183.7990  173.7040  137.7050 C   0  0  0  0  0  2  0  0  0  0  0  0
  186.0400  178.0540  136.5160 C   0  0  0  0  0  3  0  0  0  0  0  0
  187.9660  176.0490  136.2330 C   0  0  0  0  0  3  0  0  0  0  0  0
  188.1590  177.2930  135.6280 C   0  0  0  0  0  3  0  0  0  0  0  0
  186.1560  173.4760  136.7130 C   0  0  0  0  0  2  0  0  0  0  0  0
  182.2040  176.3860  137.9320 N   0  0  0  0  0  0  0  0  0  0  0  0
  183.4440  174.6860  136.5830 C   0  0  1  0  0  3  0  0  0  0  0  0
  182.6480  177.4520  138.8270 C   0  0  2  0  0  3  0  0  0  0  0  0
  184.5970  176.4990  137.8970 C   0  0  1  0  0  3  0  0  0  0  0  0
  182.5210  174.3840  134.5940 C   0  0  0  0  0  1  0  0  0  0  0  0
  182.2530  174.3010  135.9610 O   0  0  0  0  0  0  0  0  0  0  0  0
  181.1650  176.9510  137.0830 C   0  0  0  0  0  2  0  0  0  0  0  0
  181.7340  178.1030  136.2780 C   0  0  0  0  0  1  0  0  0  0  0  0
  1 14  1  0  0  0  0
  1  4  1  0  0  0  0
  3 17  1  0  0  0  0
  5  6  2  0  0  0  0
  6  2  2  0  0  0  0
  6 12  1  0  0  0  0
  7 15  1  1  0  0  0
  8  6  1  6  0  0  0
 10 24  1  0  0  0  0
 10 21  1  1  0  0  0
 11  7  1  0  0  0  0
 12  7  1  0  0  0  0
 13  9  1  6  0  0  0
 13 16  1  0  0  0  0
 17 14  2  0  0  0  0
 18  1  2  0  0  0  0
 19  3  2  0  0  0  0
 19 18  1  0  0  0  0
 20 13  1  0  0  0  0
 20  4  1  0  0  0  0
 21 23  1  0  0  0  0
 22 26  1  1  0  0  0
 22 10  1  0  0  0  0
 22 16  1  0  0  0  0
 23  8  1  0  0  0  0
 23 11  1  1  0  0  0
 24 14  1  6  0  0  0
 24  8  1  0  0  0  0
 25 26  1  0  0  0  0
 27 21  1  0  0  0  0
 28 27  1  0  0  0  0
M  END
>  <MODEL>
7

>  <REMARK>
 VINA RESULT:      -5.1      2.711      7.146
  Name = 
  2 active torsions:
  status: ('A' for Active; 'I' for Inactive)
    1  A    between atoms: C_5  and  N_24
    2  A    between atoms: O_17  and  C_25
                            x       y       z     vdW  Elec       q    Type
                         _______ _______ _______ _____ _____    ______ ____

>  <TORSDO>
F 2

$$$$
=
 OpenBabel11122411523D

 28 31  0  0  1  0  0  0  0  0999 V2000
  182.8820  178.3690  137.2980 C   0  0  0  0  0  0  0  0  0  0  0  0
  187.0890  179.6600  136.7760 O   0  0  0  0  0  0  0  0  0  0  0  0
  183.7040  178.8340  139.9310 C   0  0  0  0  0  3  0  0  0  0  0  0
  182.4370  178.0780  136.0080 O   0  0  0  0  0  0  0  0  0  0  0  0
  187.2790  178.1690  138.7310 O   0  0  0  0  0  0  0  0  0  0  0  0
  187.3670  178.2560  137.2350 S   0  0  0  0  0  0  0  0  0  0  0  0
  188.9350  176.8240  135.4840 C   0  0  1  0  0  3  0  0  0  0  0  0
  186.2810  177.1050  136.4250 C   0  0  1  0  0  3  0  0  0  0  0  0
  180.7190  175.0560  134.5980 C   0  0  0  0  0  1  0  0  0  0  0  0
  184.6550  175.4080  137.0500 C   0  0  2  0  0  3  0  0  0  0  0  0
  188.0810  175.5450  135.6600 C   0  0  0  0  0  2  0  0  0  0  0  0
  189.0050  177.7310  136.7260 C   0  0  0  0  0  2  0  0  0  0  0  0
  181.8020  176.1090  134.7330 C   0  0  2  0  0  3  0  0  0  0  0  0
  184.0930  177.8270  137.7590 C   0  0  0  0  0  0  0  0  0  0  0  0
  190.3310  176.4470  135.0400 C   0  0  0  0  0  1  0  0  0  0  0  0
  183.1660  175.4480  134.9720 C   0  0  0  0  0  2  0  0  0  0  0  0
  184.4800  178.0350  139.0880 C   0  0  0  0  0  3  0  0  0  0  0  0
  182.1050  179.1680  138.1450 C   0  0  0  0  0  3  0  0  0  0  0  0
  182.5200  179.4060  139.4570 C   0  0  0  0  0  3  0  0  0  0  0  0
  181.4080  177.1190  135.8120 C   0  0  0  0  0  2  0  0  0  0  0  0
  185.8290  174.7520  136.4600 N   0  0  0  0  0  0  0  0  0  0  0  0
  183.3370  174.9370  136.4070 C   0  0  1  0  0  3  0  0  0  0  0  0
  186.8910  175.7450  136.6070 C   0  0  2  0  0  3  0  0  0  0  0  0
  184.8480  176.9030  136.8540 C   0  0  1  0  0  3  0  0  0  0  0  0
  182.1430  173.2940  137.2870 C   0  0  0  0  0  1  0  0  0  0  0  0
  183.2260  173.5450  136.4430 O   0  0  0  0  0  0  0  0  0  0  0  0
  186.1700  173.6360  137.3300 C   0  0  0  0  0  2  0  0  0  0  0  0
  186.4460  172.4020  136.4940 C   0  0  0  0  0  1  0  0  0  0  0  0
  1 14  2  0  0  0  0
  1 18  1  0  0  0  0
  2  6  2  0  0  0  0
  4  1  1  0  0  0  0
  6  5  2  0  0  0  0
  7 15  1  1  0  0  0
  7 11  1  0  0  0  0
  7 12  1  0  0  0  0
  8 23  1  0  0  0  0
  8 24  1  0  0  0  0
  8  6  1  1  0  0  0
 10 21  1  6  0  0  0
 12  6  1  0  0  0  0
 13  9  1  1  0  0  0
 13 16  1  0  0  0  0
 13 20  1  0  0  0  0
 14 17  1  0  0  0  0
 16 22  1  0  0  0  0
 17  3  2  0  0  0  0
 18 19  2  0  0  0  0
 19  3  1  0  0  0  0
 20  4  1  0  0  0  0
 21 23  1  0  0  0  0
 21 27  1  0  0  0  0
 22 26  1  6  0  0  0
 22 10  1  0  0  0  0
 23 11  1  6  0  0  0
 24 10  1  0  0  0  0
 24 14  1  1  0  0  0
 26 25  1  0  0  0  0
 28 27  1  0  0  0  0
M  END
>  <MODEL>
8

>  <REMARK>
 VINA RESULT:      -5.0      3.530      6.863
  Name = 
  2 active torsions:
  status: ('A' for Active; 'I' for Inactive)
    1  A    between atoms: C_5  and  N_24
    2  A    between atoms: O_17  and  C_25
                            x       y       z     vdW  Elec       q    Type
                         _______ _______ _______ _____ _____    ______ ____

>  <TORSDO>
F 2

$$$$
=
 OpenBabel11122411523D

 28 31  0  0  1  0  0  0  0  0999 V2000
  180.3840  174.1150  137.6050 C   0  0  0  0  0  0  0  0  0  0  0  0
  183.6000  171.1720  136.8100 O   0  0  0  0  0  0  0  0  0  0  0  0
  180.0110  173.5280  134.8960 C   0  0  0  0  0  3  0  0  0  0  0  0
  180.5560  174.4770  138.9410 O   0  0  0  0  0  0  0  0  0  0  0  0
  183.7190  172.5790  134.7880 O   0  0  0  0  0  0  0  0  0  0  0  0
  184.2580  172.3630  136.1730 S   0  0  0  0  0  0  0  0  0  0  0  0
  186.7600  172.9010  137.1850 C   0  0  1  0  0  3  0  0  0  0  0  0
  184.0780  173.8040  137.2000 C   0  0  1  0  0  3  0  0  0  0  0  0
  180.8060  177.8370  140.5900 C   0  0  0  0  0  1  0  0  0  0  0  0
  183.1850  176.0580  137.0120 C   0  0  2  0  0  3  0  0  0  0  0  0
  186.5000  174.4270  137.1980 C   0  0  0  0  0  2  0  0  0  0  0  0
  186.0340  172.1310  136.0670 C   0  0  0  0  0  2  0  0  0  0  0  0
  181.2490  176.4430  140.1910 C   0  0  2  0  0  3  0  0  0  0  0  0
  181.4790  174.1380  136.7270 C   0  0  0  0  0  0  0  0  0  0  0  0
  188.2480  172.6390  137.1100 C   0  0  0  0  0  1  0  0  0  0  0  0
  182.5980  176.4970  139.4610 C   0  0  0  0  0  2  0  0  0  0  0  0
  181.2790  173.8780  135.3670 C   0  0  0  0  0  3  0  0  0  0  0  0
  179.1140  173.7660  137.1310 C   0  0  0  0  0  3  0  0  0  0  0  0
  178.9310  173.4650  135.7790 C   0  0  0  0  0  3  0  0  0  0  0  0
  180.1410  175.7600  139.3890 C   0  0  0  0  0  2  0  0  0  0  0  0
  184.6470  176.1300  137.1250 N   0  0  0  0  0  0  0  0  0  0  0  0
  182.4730  176.9860  138.0140 C   0  0  1  0  0  3  0  0  0  0  0  0
  185.0920  174.7990  136.7170 C   0  0  2  0  0  3  0  0  0  0  0  0
  182.8020  174.6060  137.2540 C   0  0  1  0  0  3  0  0  0  0  0  0
  181.9230  178.9820  137.2310 C   0  0  0  0  0  1  0  0  0  0  0  0
  182.9370  178.2990  137.9040 O   0  0  0  0  0  0  0  0  0  0  0  0
  185.1030  177.0610  136.1040 C   0  0  0  0  0  2  0  0  0  0  0  0
  184.4820  176.7000  134.7680 C   0  0  0  0  0  1  0  0  0  0  0  0
  1  4  1  0  0  0  0
  3 17  2  0  0  0  0
  3 19  1  0  0  0  0
  4 20  1  0  0  0  0
  5  6  2  0  0  0  0
  6  2  2  0  0  0  0
  7 15  1  6  0  0  0
  7 11  1  0  0  0  0
  8  6  1  6  0  0  0
  8 24  1  0  0  0  0
 10 21  1  1  0  0  0
 10 24  1  0  0  0  0
 10 22  1  0  0  0  0
 12  6  1  0  0  0  0
 12  7  1  0  0  0  0
 13  9  1  6  0  0  0
 14  1  2  0  0  0  0
 16 13  1  0  0  0  0
 17 14  1  0  0  0  0
 18  1  1  0  0  0  0
 19 18  2  0  0  0  0
 20 13  1  0  0  0  0
 22 26  1  1  0  0  0
 22 16  1  0  0  0  0
 23 21  1  0  0  0  0
 23 11  1  1  0  0  0
 23  8  1  0  0  0  0
 24 14  1  6  0  0  0
 25 26  1  0  0  0  0
 27 21  1  0  0  0  0
 28 27  1  0  0  0  0
M  END
>  <MODEL>
9

>  <REMARK>
 VINA RESULT:      -4.9      3.388      5.988
  Name = 
  2 active torsions:
  status: ('A' for Active; 'I' for Inactive)
    1  A    between atoms: C_5  and  N_24
    2  A    between atoms: O_17  and  C_25
                            x       y       z     vdW  Elec       q    Type
                         _______ _______ _______ _____ _____    ______ ____

>  <TORSDO>
F 2

$$$$
