=
 OpenBabel11122411103D

 31 35  0  0  1  0  0  0  0  0999 V2000
  184.7530  178.6220  144.1620 C   0  0  0  0  0  0  0  0  0  0  0  0
  188.3540  177.7590  143.4840 C   0  0  0  0  0  0  0  0  0  0  0  0
  188.9690  177.4910  144.7460 C   0  0  0  0  0  0  0  0  0  0  0  0
  188.9040  177.2940  147.1820 C   0  0  0  0  0  0  0  0  0  0  0  0
  186.9860  178.1250  143.3060 C   0  0  0  0  0  0  0  0  0  0  0  0
  184.2930  178.8520  142.8660 C   0  0  0  0  0  3  0  0  0  0  0  0
  188.2720  177.5630  145.9660 C   0  0  0  0  0  3  0  0  0  0  0  0
  188.6300  177.9020  141.0540 C   0  0  0  0  0  0  0  0  0  0  0  0
  183.6610  178.7830  145.5200 Cl  0  0  0  0  0  0  0  0  0  0  0  0
  191.0730  177.0510  143.6160 C   0  0  0  0  0  3  0  0  0  0  0  0
  188.0010  177.3960  148.6770 Cl  0  0  0  0  0  0  0  0  0  0  0  0
  187.3230  178.2450  140.9270 N   0  0  0  0  0  0  0  0  0  0  0  0
  189.1700  177.6510  142.3220 C   0  0  0  0  0  0  0  0  0  0  0  0
  189.4560  177.7880  139.8910 N   0  0  0  0  0  2  0  0  0  0  0  0
  186.0840  178.2630  144.3770 C   0  0  0  0  0  3  0  0  0  0  0  0
  190.2540  176.9460  147.2040 C   0  0  0  0  0  3  0  0  0  0  0  0
  186.5010  178.3630  141.9960 C   0  0  0  0  0  0  0  0  0  0  0  0
  185.1650  178.7230  141.7860 C   0  0  0  0  0  3  0  0  0  0  0  0
  190.4810  177.3060  142.4250 N   0  0  0  0  0  0  0  0  0  0  0  0
  190.3410  177.1360  144.7920 C   0  0  0  0  0  0  0  0  0  0  0  0
  190.9710  176.8670  146.0100 C   0  0  0  0  0  3  0  0  0  0  0  0
  189.0080  179.4280  138.2870 O   0  0  0  0  0  1  0  0  0  0  0  0
  188.9640  178.0560  138.5460 C   0  0  1  0  0  3  0  0  0  0  0  0
  191.3470  175.8970  135.6840 C   0  0  0  0  0  0  0  0  0  0  0  0
  191.0500  176.8150  137.9030 C   0  0  0  0  0  3  0  0  0  0  0  0
  187.9720  177.5920  135.7990 C   0  0  0  0  0  1  0  0  0  0  0  0
  192.1190  175.1980  134.7660 O   0  0  0  0  0  1  0  0  0  0  0  0
  191.8260  176.1120  136.9790 C   0  0  0  0  0  3  0  0  0  0  0  0
  189.3090  177.0900  136.2340 C   0  0  0  0  0  0  0  0  0  0  0  0
  189.7890  177.3120  137.5390 C   0  0  0  0  0  0  0  0  0  0  0  0
  190.0910  176.3850  135.3140 C   0  0  0  0  0  3  0  0  0  0  0  0
  1 15  1  0  0  0  0
  1  9  1  0  0  0  0
  2  3  1  0  0  0  0
  3 20  2  0  0  0  0
  3  7  1  0  0  0  0
  4 16  1  0  0  0  0
  4 11  1  0  0  0  0
  5  2  1  0  0  0  0
  5 15  2  0  0  0  0
  6  1  2  0  0  0  0
  7  4  2  0  0  0  0
  8 13  1  0  0  0  0
 10 20  1  0  0  0  0
 12  8  2  0  0  0  0
 12 17  1  0  0  0  0
 13 19  1  0  0  0  0
 13  2  2  0  0  0  0
 14  8  1  0  0  0  0
 17  5  1  0  0  0  0
 18 17  2  0  0  0  0
 18  6  1  0  0  0  0
 19 10  2  0  0  0  0
 20 21  1  0  0  0  0
 21 16  2  0  0  0  0
 23 22  1  6  0  0  0
 23 14  1  0  0  0  0
 24 28  1  0  0  0  0
 26 29  1  0  0  0  0
 27 24  1  0  0  0  0
 28 25  2  0  0  0  0
 29 30  2  0  0  0  0
 30 25  1  0  0  0  0
 30 23  1  0  0  0  0
 31 24  2  0  0  0  0
 31 29  1  0  0  0  0
M  END
>  <MODEL>
1

>  <REMARK>
 VINA RESULT:     -11.5      0.000      0.000
  Name = 
  2 active torsions:
  status: ('A' for Active; 'I' for Inactive)
    1  A    between atoms: C_5  and  N_16
    2  A    between atoms: C_5  and  C_30
                            x       y       z     vdW  Elec       q    Type
                         _______ _______ _______ _____ _____    ______ ____

>  <TORSDO>
F 2

$$$$
=
 OpenBabel11122411103D

 31 35  0  0  1  0  0  0  0  0999 V2000
  186.4200  178.1720  146.7080 C   0  0  0  0  0  0  0  0  0  0  0  0
  187.8050  177.9200  143.2160 C   0  0  0  0  0  0  0  0  0  0  0  0
  189.1520  177.4540  143.3280 C   0  0  0  0  0  0  0  0  0  0  0  0
  191.0800  176.7150  144.6370 C   0  0  0  0  0  0  0  0  0  0  0  0
  186.9290  178.1490  144.3190 C   0  0  0  0  0  0  0  0  0  0  0  0
  185.1290  178.6270  146.4430 C   0  0  0  0  0  3  0  0  0  0  0  0
  189.7610  177.1690  144.5640 C   0  0  0  0  0  3  0  0  0  0  0  0
  185.9950  178.6310  141.7260 C   0  0  0  0  0  0  0  0  0  0  0  0
  186.9300  177.8950  148.3590 Cl  0  0  0  0  0  0  0  0  0  0  0  0
  189.3700  177.5320  140.9110 C   0  0  0  0  0  3  0  0  0  0  0  0
  191.8000  176.3730  146.1940 Cl  0  0  0  0  0  0  0  0  0  0  0  0
  185.1920  178.8350  142.8000 N   0  0  0  0  0  0  0  0  0  0  0  0
  187.3060  178.1720  141.9060 C   0  0  0  0  0  0  0  0  0  0  0  0
  185.5010  178.8790  140.4060 N   0  0  0  0  0  2  0  0  0  0  0  0
  187.3070  177.9360  145.6570 C   0  0  0  0  0  3  0  0  0  0  0  0
  191.8210  176.5360  143.4700 C   0  0  0  0  0  3  0  0  0  0  0  0
  185.6120  178.6120  144.0680 C   0  0  0  0  0  0  0  0  0  0  0  0
  184.7270  178.8470  145.1260 C   0  0  0  0  0  3  0  0  0  0  0  0
  188.0930  177.9720  140.8150 N   0  0  0  0  0  0  0  0  0  0  0  0
  189.9240  177.2650  142.1540 C   0  0  0  0  0  0  0  0  0  0  0  0
  191.2440  176.8100  142.2300 C   0  0  0  0  0  3  0  0  0  0  0  0
  184.1800  180.2920  139.0940 O   0  0  0  0  0  1  0  0  0  0  0  0
  184.1570  179.3780  140.1490 C   0  0  1  0  0  3  0  0  0  0  0  0
  181.5490  176.0830  139.2150 C   0  0  0  0  0  0  0  0  0  0  0  0
  183.5890  177.3230  138.8220 C   0  0  0  0  0  3  0  0  0  0  0  0
  181.6130  179.0030  141.6110 C   0  0  0  0  0  1  0  0  0  0  0  0
  180.7130  175.0170  138.9100 O   0  0  0  0  0  1  0  0  0  0  0  0
  182.7470  176.2510  138.5170 C   0  0  0  0  0  3  0  0  0  0  0  0
  182.0300  178.0620  140.5300 C   0  0  0  0  0  0  0  0  0  0  0  0
  183.2370  178.2380  139.8270 C   0  0  0  0  0  0  0  0  0  0  0  0
  181.1930  176.9860  140.2190 C   0  0  0  0  0  3  0  0  0  0  0  0
  1  9  1  0  0  0  0
  2  3  1  0  0  0  0
  2  5  1  0  0  0  0
  3  7  1  0  0  0  0
  4 11  1  0  0  0  0
  5 15  1  0  0  0  0
  6  1  1  0  0  0  0
  7  4  2  0  0  0  0
  8 13  1  0  0  0  0
  8 12  2  0  0  0  0
 10 20  1  0  0  0  0
 12 17  1  0  0  0  0
 13  2  2  0  0  0  0
 14  8  1  0  0  0  0
 15  1  2  0  0  0  0
 16  4  1  0  0  0  0
 17  5  2  0  0  0  0
 17 18  1  0  0  0  0
 18  6  2  0  0  0  0
 19 10  2  0  0  0  0
 19 13  1  0  0  0  0
 20 21  1  0  0  0  0
 20  3  2  0  0  0  0
 21 16  2  0  0  0  0
 23 22  1  6  0  0  0
 23 14  1  0  0  0  0
 24 31  1  0  0  0  0
 25 30  2  0  0  0  0
 27 24  1  0  0  0  0
 28 25  1  0  0  0  0
 28 24  2  0  0  0  0
 29 26  1  0  0  0  0
 30 23  1  0  0  0  0
 30 29  1  0  0  0  0
 31 29  2  0  0  0  0
M  END
>  <MODEL>
2

>  <REMARK>
 VINA RESULT:     -10.9      3.418      5.532
  Name = 
  2 active torsions:
  status: ('A' for Active; 'I' for Inactive)
    1  A    between atoms: C_5  and  N_16
    2  A    between atoms: C_5  and  C_30
                            x       y       z     vdW  Elec       q    Type
                         _______ _______ _______ _____ _____    ______ ____

>  <TORSDO>
F 2

$$$$
=
 OpenBabel11122411103D

 31 35  0  0  1  0  0  0  0  0999 V2000
  185.0480  178.4720  144.7540 C   0  0  0  0  0  0  0  0  0  0  0  0
  188.1250  177.8430  142.6790 C   0  0  0  0  0  0  0  0  0  0  0  0
  189.1790  177.4960  143.5800 C   0  0  0  0  0  0  0  0  0  0  0  0
  190.0520  177.0860  145.8260 C   0  0  0  0  0  0  0  0  0  0  0  0
  186.7890  178.1580  143.0710 C   0  0  0  0  0  0  0  0  0  0  0  0
  184.1240  178.7910  143.7600 C   0  0  0  0  0  3  0  0  0  0  0  0
  189.0000  177.4290  144.9740 C   0  0  0  0  0  3  0  0  0  0  0  0
  187.4490  178.2090  140.3530 C   0  0  0  0  0  0  0  0  0  0  0  0
  184.5570  178.4630  146.4340 Cl  0  0  0  0  0  0  0  0  0  0  0  0
  190.6940  177.2550  141.6990 C   0  0  0  0  0  3  0  0  0  0  0  0
  189.7890  177.0140  147.5540 Cl  0  0  0  0  0  0  0  0  0  0  0  0
  186.1890  178.4990  140.7660 N   0  0  0  0  0  0  0  0  0  0  0  0
  188.4350  177.8750  141.2890 C   0  0  0  0  0  0  0  0  0  0  0  0
  187.7680  178.2350  138.9580 N   0  0  0  0  0  2  0  0  0  0  0  0
  186.3630  178.1590  144.4120 C   0  0  0  0  0  3  0  0  0  0  0  0
  191.3120  176.8010  145.3000 C   0  0  0  0  0  3  0  0  0  0  0  0
  185.8370  178.4850  142.0730 C   0  0  0  0  0  0  0  0  0  0  0  0
  184.5190  178.7990  142.4230 C   0  0  0  0  0  3  0  0  0  0  0  0
  189.6900  177.5840  140.8530 N   0  0  0  0  0  0  0  0  0  0  0  0
  190.4670  177.2030  143.0660 C   0  0  0  0  0  0  0  0  0  0  0  0
  191.5190  176.8600  143.9210 C   0  0  0  0  0  3  0  0  0  0  0  0
  187.4170  179.3410  136.9290 O   0  0  0  0  0  1  0  0  0  0  0  0
  186.7970  178.5960  137.9340 C   0  0  1  0  0  3  0  0  0  0  0  0
  185.0530  175.0250  136.2780 C   0  0  0  0  0  0  0  0  0  0  0  0
  186.9870  176.4140  136.7060 C   0  0  0  0  0  3  0  0  0  0  0  0
  183.8900  178.0940  138.1490 C   0  0  0  0  0  1  0  0  0  0  0  0
  184.4960  173.8720  135.7440 O   0  0  0  0  0  1  0  0  0  0  0  0
  186.4270  175.2530  136.1690 C   0  0  0  0  0  3  0  0  0  0  0  0
  184.7940  177.1240  137.4650 C   0  0  0  0  0  0  0  0  0  0  0  0
  186.1770  177.3590  137.3540 C   0  0  0  0  0  0  0  0  0  0  0  0
  184.2390  175.9590  136.9250 C   0  0  0  0  0  3  0  0  0  0  0  0
  1  9  1  0  0  0  0
  2  5  1  0  0  0  0
  2  3  1  0  0  0  0
  3  7  1  0  0  0  0
  4 11  1  0  0  0  0
  5 15  2  0  0  0  0
  6  1  2  0  0  0  0
  7  4  2  0  0  0  0
  8 12  2  0  0  0  0
  8 13  1  0  0  0  0
 10 20  1  0  0  0  0
 12 17  1  0  0  0  0
 13  2  2  0  0  0  0
 14  8  1  0  0  0  0
 15  1  1  0  0  0  0
 16  4  1  0  0  0  0
 17 18  2  0  0  0  0
 17  5  1  0  0  0  0
 18  6  1  0  0  0  0
 19 13  1  0  0  0  0
 19 10  2  0  0  0  0
 20  3  2  0  0  0  0
 20 21  1  0  0  0  0
 21 16  2  0  0  0  0
 23 22  1  6  0  0  0
 23 14  1  0  0  0  0
 24 31  1  0  0  0  0
 25 30  2  0  0  0  0
 27 24  1  0  0  0  0
 28 24  2  0  0  0  0
 28 25  1  0  0  0  0
 29 26  1  0  0  0  0
 30 29  1  0  0  0  0
 30 23  1  0  0  0  0
 31 29  2  0  0  0  0
M  END
>  <MODEL>
3

>  <REMARK>
 VINA RESULT:     -10.7      2.338      3.104
  Name = 
  2 active torsions:
  status: ('A' for Active; 'I' for Inactive)
    1  A    between atoms: C_5  and  N_16
    2  A    between atoms: C_5  and  C_30
                            x       y       z     vdW  Elec       q    Type
                         _______ _______ _______ _____ _____    ______ ____

>  <TORSDO>
F 2

$$$$
=
 OpenBabel11122411103D

 31 35  0  0  1  0  0  0  0  0999 V2000
  190.5100  177.5630  140.3000 C   0  0  0  0  0  0  0  0  0  0  0  0
  187.6780  177.9870  142.7440 C   0  0  0  0  0  0  0  0  0  0  0  0
  188.1950  177.6980  144.0450 C   0  0  0  0  0  0  0  0  0  0  0  0
  190.0060  177.0530  145.5540 C   0  0  0  0  0  0  0  0  0  0  0  0
  188.4380  177.9400  141.5370 C   0  0  0  0  0  0  0  0  0  0  0  0
  189.8680  177.8740  139.1020 C   0  0  0  0  0  3  0  0  0  0  0  0
  189.5340  177.3290  144.2690 C   0  0  0  0  0  3  0  0  0  0  0  0
  185.7330  178.6440  141.4060 C   0  0  0  0  0  0  0  0  0  0  0  0
  192.2060  177.1310  140.2990 Cl  0  0  0  0  0  0  0  0  0  0  0  0
  186.0080  178.1390  145.0010 C   0  0  0  0  0  3  0  0  0  0  0  0
  191.6790  176.5970  145.7910 Cl  0  0  0  0  0  0  0  0  0  0  0  0
  186.4910  178.5910  140.2810 N   0  0  0  0  0  0  0  0  0  0  0  0
  186.3040  178.3490  142.6510 C   0  0  0  0  0  0  0  0  0  0  0  0
  184.3530  179.0100  141.3220 N   0  0  0  0  0  2  0  0  0  0  0  0
  189.8020  177.5970  141.5020 C   0  0  0  0  0  3  0  0  0  0  0  0
  189.1450  177.1400  146.6470 C   0  0  0  0  0  3  0  0  0  0  0  0
  187.8010  178.2530  140.3090 C   0  0  0  0  0  0  0  0  0  0  0  0
  188.5170  178.2170  139.1070 C   0  0  0  0  0  3  0  0  0  0  0  0
  185.5270  178.4120  143.7650 N   0  0  0  0  0  0  0  0  0  0  0  0
  187.3370  177.7800  145.1700 C   0  0  0  0  0  0  0  0  0  0  0  0
  187.8120  177.5030  146.4550 C   0  0  0  0  0  3  0  0  0  0  0  0
  184.5560  180.0200  139.2240 O   0  0  0  0  0  1  0  0  0  0  0  0
  183.6920  179.3070  140.0580 C   0  0  1  0  0  3  0  0  0  0  0  0
  182.4910  175.6470  138.1380 C   0  0  0  0  0  0  0  0  0  0  0  0
  184.0290  177.5030  138.3450 C   0  0  0  0  0  3  0  0  0  0  0  0
  181.2510  177.8780  140.9230 C   0  0  0  0  0  1  0  0  0  0  0  0
  182.1100  174.4660  137.5160 O   0  0  0  0  0  1  0  0  0  0  0  0
  183.6450  176.3140  137.7200 C   0  0  0  0  0  3  0  0  0  0  0  0
  182.1000  177.3570  139.8110 C   0  0  0  0  0  0  0  0  0  0  0  0
  183.2600  178.0360  139.3920 C   0  0  0  0  0  0  0  0  0  0  0  0
  181.7210  176.1680  139.1810 C   0  0  0  0  0  3  0  0  0  0  0  0
  1 15  1  0  0  0  0
  2  3  1  0  0  0  0
  3  7  2  0  0  0  0
  3 20  1  0  0  0  0
  4 11  1  0  0  0  0
  4 16  2  0  0  0  0
  5  2  1  0  0  0  0
  6 18  1  0  0  0  0
  6  1  2  0  0  0  0
  7  4  1  0  0  0  0
  8 13  1  0  0  0  0
  9  1  1  0  0  0  0
 10 20  1  0  0  0  0
 12 17  1  0  0  0  0
 12  8  2  0  0  0  0
 13  2  2  0  0  0  0
 13 19  1  0  0  0  0
 14  8  1  0  0  0  0
 15  5  2  0  0  0  0
 17  5  1  0  0  0  0
 18 17  2  0  0  0  0
 19 10  2  0  0  0  0
 20 21  2  0  0  0  0
 21 16  1  0  0  0  0
 23 22  1  6  0  0  0
 23 14  1  0  0  0  0
 24 31  1  0  0  0  0
 25 30  2  0  0  0  0
 27 24  1  0  0  0  0
 28 24  2  0  0  0  0
 28 25  1  0  0  0  0
 29 26  1  0  0  0  0
 30 29  1  0  0  0  0
 30 23  1  0  0  0  0
 31 29  2  0  0  0  0
M  END
>  <MODEL>
4

>  <REMARK>
 VINA RESULT:     -10.1      3.498      5.793
  Name = 
  2 active torsions:
  status: ('A' for Active; 'I' for Inactive)
    1  A    between atoms: C_5  and  N_16
    2  A    between atoms: C_5  and  C_30
                            x       y       z     vdW  Elec       q    Type
                         _______ _______ _______ _____ _____    ______ ____

>  <TORSDO>
F 2

$$$$
=
 OpenBabel11122411103D

 31 35  0  0  1  0  0  0  0  0999 V2000
  191.0280  176.8170  144.0690 C   0  0  0  0  0  0  0  0  0  0  0  0
  187.6130  177.9930  143.0050 C   0  0  0  0  0  0  0  0  0  0  0  0
  186.8140  178.0960  144.1850 C   0  0  0  0  0  0  0  0  0  0  0  0
  186.4960  177.9010  146.6020 C   0  0  0  0  0  0  0  0  0  0  0  0
  188.9790  177.5780  142.9790 C   0  0  0  0  0  0  0  0  0  0  0  0
  191.6810  176.7680  142.8390 C   0  0  0  0  0  3  0  0  0  0  0  0
  187.3050  177.7900  145.4680 C   0  0  0  0  0  3  0  0  0  0  0  0
  187.7240  178.2530  140.5710 C   0  0  0  0  0  0  0  0  0  0  0  0
  191.8820  176.3780  145.5320 Cl  0  0  0  0  0  0  0  0  0  0  0  0
  184.9350  178.8350  142.8380 C   0  0  0  0  0  3  0  0  0  0  0  0
  187.1450  177.5100  148.1790 Cl  0  0  0  0  0  0  0  0  0  0  0  0
  189.0220  177.8550  140.5890 N   0  0  0  0  0  0  0  0  0  0  0  0
  186.9980  178.3320  141.7660 C   0  0  0  0  0  0  0  0  0  0  0  0
  187.0990  178.5980  139.3310 N   0  0  0  0  0  2  0  0  0  0  0  0
  189.6930  177.2180  144.1360 C   0  0  0  0  0  3  0  0  0  0  0  0
  185.1730  178.3220  146.4760 C   0  0  0  0  0  3  0  0  0  0  0  0
  189.6580  177.5210  141.7360 C   0  0  0  0  0  0  0  0  0  0  0  0
  190.9970  177.1180  141.6750 C   0  0  0  0  0  3  0  0  0  0  0  0
  185.7000  178.7360  141.7250 N   0  0  0  0  0  0  0  0  0  0  0  0
  185.4670  178.5220  144.0810 C   0  0  0  0  0  0  0  0  0  0  0  0
  184.6590  178.6320  145.2160 C   0  0  0  0  0  3  0  0  0  0  0  0
  189.0550  179.0970  138.1530 O   0  0  0  0  0  1  0  0  0  0  0  0
  187.7890  178.5170  138.0510 C   0  0  1  0  0  3  0  0  0  0  0  0
  188.1630  174.4020  136.8430 C   0  0  0  0  0  0  0  0  0  0  0  0
  189.1640  176.4570  137.6340 C   0  0  0  0  0  3  0  0  0  0  0  0
  185.4170  176.9730  137.1920 C   0  0  0  0  0  1  0  0  0  0  0  0
  188.2890  173.0750  136.4560 O   0  0  0  0  0  1  0  0  0  0  0  0
  189.2900  175.1220  137.2460 C   0  0  0  0  0  3  0  0  0  0  0  0
  186.7750  176.3540  137.2180 C   0  0  0  0  0  0  0  0  0  0  0  0
  187.9090  177.0850  137.6210 C   0  0  0  0  0  0  0  0  0  0  0  0
  186.9090  175.0170  136.8300 C   0  0  0  0  0  3  0  0  0  0  0  0
  1 15  1  0  0  0  0
  1  9  1  0  0  0  0
  2  3  1  0  0  0  0
  3  7  1  0  0  0  0
  4 11  1  0  0  0  0
  5  2  1  0  0  0  0
  5 15  2  0  0  0  0
  6  1  2  0  0  0  0
  7  4  2  0  0  0  0
  8 12  2  0  0  0  0
  8 13  1  0  0  0  0
 10 20  1  0  0  0  0
 12 17  1  0  0  0  0
 13  2  2  0  0  0  0
 14  8  1  0  0  0  0
 16  4  1  0  0  0  0
 17  5  1  0  0  0  0
 18 17  2  0  0  0  0
 18  6  1  0  0  0  0
 19 13  1  0  0  0  0
 19 10  2  0  0  0  0
 20  3  2  0  0  0  0
 20 21  1  0  0  0  0
 21 16  2  0  0  0  0
 23 22  1  1  0  0  0
 23 14  1  0  0  0  0
 24 28  1  0  0  0  0
 26 29  1  0  0  0  0
 27 24  1  0  0  0  0
 28 25  2  0  0  0  0
 29 30  2  0  0  0  0
 30 25  1  0  0  0  0
 30 23  1  0  0  0  0
 31 24  2  0  0  0  0
 31 29  1  0  0  0  0
M  END
>  <MODEL>
5

>  <REMARK>
 VINA RESULT:     -10.0      1.969      4.098
  Name = 
  2 active torsions:
  status: ('A' for Active; 'I' for Inactive)
    1  A    between atoms: C_5  and  N_16
    2  A    between atoms: C_5  and  C_30
                            x       y       z     vdW  Elec       q    Type
                         _______ _______ _______ _____ _____    ______ ____

>  <TORSDO>
F 2

$$$$
=
 OpenBabel11122411103D

 31 35  0  0  1  0  0  0  0  0999 V2000
  183.7140  178.9180  139.4600 C   0  0  0  0  0  0  0  0  0  0  0  0
  187.3780  178.1040  139.7640 C   0  0  0  0  0  0  0  0  0  0  0  0
  187.8960  177.9860  138.4370 C   0  0  0  0  0  0  0  0  0  0  0  0
  187.6400  178.0370  136.0060 C   0  0  0  0  0  0  0  0  0  0  0  0
  186.0200  178.4070  140.0840 C   0  0  0  0  0  0  0  0  0  0  0  0
  183.3550  179.0030  140.8050 C   0  0  0  0  0  3  0  0  0  0  0  0
  187.1010  178.1600  137.2890 C   0  0  0  0  0  3  0  0  0  0  0  0
  187.8440  178.0070  142.1670 C   0  0  0  0  0  0  0  0  0  0  0  0
  182.5130  179.1820  138.2140 Cl  0  0  0  0  0  0  0  0  0  0  0  0
  190.0930  177.5010  139.3480 C   0  0  0  0  0  3  0  0  0  0  0  0
  186.6170  178.2600  134.6040 Cl  0  0  0  0  0  0  0  0  0  0  0  0
  186.5450  178.2980  142.4300 N   0  0  0  0  0  0  0  0  0  0  0  0
  188.2870  177.9060  140.8410 C   0  0  0  0  0  0  0  0  0  0  0  0
  188.7650  177.8080  143.2440 N   0  0  0  0  0  2  0  0  0  0  0  0
  185.0310  178.6240  139.1060 C   0  0  0  0  0  3  0  0  0  0  0  0
  188.9910  177.7370  135.8430 C   0  0  0  0  0  3  0  0  0  0  0  0
  185.6370  178.4970  141.4460 C   0  0  0  0  0  0  0  0  0  0  0  0
  184.3140  178.7920  141.7940 C   0  0  0  0  0  3  0  0  0  0  0  0
  189.5930  177.6150  140.6010 N   0  0  0  0  0  0  0  0  0  0  0  0
  189.2670  177.6810  138.2480 C   0  0  0  0  0  0  0  0  0  0  0  0
  189.8040  177.5590  136.9630 C   0  0  0  0  0  3  0  0  0  0  0  0
  187.2180  177.1090  144.8500 O   0  0  0  0  0  1  0  0  0  0  0  0
  188.3660  177.8760  144.6430 C   0  0  1  0  0  3  0  0  0  0  0  0
  191.5920  176.4850  147.1310 C   0  0  0  0  0  0  0  0  0  0  0  0
  190.6300  176.8300  144.9380 C   0  0  0  0  0  3  0  0  0  0  0  0
  188.2010  178.0860  147.5890 C   0  0  0  0  0  1  0  0  0  0  0  0
  192.6360  176.0360  147.9280 O   0  0  0  0  0  1  0  0  0  0  0  0
  191.6800  176.3800  145.7410 C   0  0  0  0  0  3  0  0  0  0  0  0
  189.3980  177.4950  146.9210 C   0  0  0  0  0  0  0  0  0  0  0  0
  189.4800  177.3880  145.5200 C   0  0  0  0  0  0  0  0  0  0  0  0
  190.4540  177.0420  147.7190 C   0  0  0  0  0  3  0  0  0  0  0  0
  1  6  1  0  0  0  0
  2  5  1  0  0  0  0
  2 13  1  0  0  0  0
  3  2  2  0  0  0  0
  4  7  2  0  0  0  0
  5 17  2  0  0  0  0
  6 18  2  0  0  0  0
  7  3  1  0  0  0  0
  8 12  2  0  0  0  0
  8 14  1  0  0  0  0
  9  1  1  0  0  0  0
 10 19  1  0  0  0  0
 11  4  1  0  0  0  0
 13  8  1  0  0  0  0
 14 23  1  0  0  0  0
 15  1  2  0  0  0  0
 15  5  1  0  0  0  0
 16  4  1  0  0  0  0
 16 21  2  0  0  0  0
 17 18  1  0  0  0  0
 17 12  1  0  0  0  0
 19 13  2  0  0  0  0
 20  3  1  0  0  0  0
 20 10  2  0  0  0  0
 21 20  1  0  0  0  0
 23 22  1  6  0  0  0
 23 30  1  0  0  0  0
 24 31  1  0  0  0  0
 24 27  1  0  0  0  0
 25 30  2  0  0  0  0
 25 28  1  0  0  0  0
 28 24  2  0  0  0  0
 29 26  1  0  0  0  0
 29 31  2  0  0  0  0
 30 29  1  0  0  0  0
M  END
>  <MODEL>
6

>  <REMARK>
 VINA RESULT:      -9.8      3.734      7.792
  Name = 
  2 active torsions:
  status: ('A' for Active; 'I' for Inactive)
    1  A    between atoms: C_5  and  N_16
    2  A    between atoms: C_5  and  C_30
                            x       y       z     vdW  Elec       q    Type
                         _______ _______ _______ _____ _____    ______ ____

>  <TORSDO>
F 2

$$$$
=
 OpenBabel11122411103D

 31 35  0  0  1  0  0  0  0  0999 V2000
  186.5850  177.9940  145.7380 C   0  0  0  0  0  0  0  0  0  0  0  0
  187.0250  178.2420  142.0080 C   0  0  0  0  0  0  0  0  0  0  0  0
  188.3690  177.8550  141.7140 C   0  0  0  0  0  0  0  0  0  0  0  0
  190.5940  177.0950  142.3850 C   0  0  0  0  0  0  0  0  0  0  0  0
  186.4570  178.2830  143.3170 C   0  0  0  0  0  0  0  0  0  0  0  0
  185.2560  178.3910  145.8700 C   0  0  0  0  0  3  0  0  0  0  0  0
  189.2870  177.4680  142.7080 C   0  0  0  0  0  3  0  0  0  0  0  0
  184.8680  179.0020  141.1290 C   0  0  0  0  0  0  0  0  0  0  0  0
  187.5140  177.5600  147.1570 Cl  0  0  0  0  0  0  0  0  0  0  0  0
  187.9500  178.2280  139.3520 C   0  0  0  0  0  3  0  0  0  0  0  0
  191.7040  176.6210  143.6520 Cl  0  0  0  0  0  0  0  0  0  0  0  0
  184.3650  179.0260  142.3890 N   0  0  0  0  0  0  0  0  0  0  0  0
  186.1960  178.6120  140.9110 C   0  0  0  0  0  0  0  0  0  0  0  0
  184.0410  179.3690  140.0210 N   0  0  0  0  0  2  0  0  0  0  0  0
  187.1770  177.9410  144.4760 C   0  0  0  0  0  3  0  0  0  0  0  0
  191.0130  177.1020  141.0560 C   0  0  0  0  0  3  0  0  0  0  0  0
  185.1070  178.6860  143.4690 C   0  0  0  0  0  0  0  0  0  0  0  0
  184.5190  178.7370  144.7380 C   0  0  0  0  0  3  0  0  0  0  0  0
  186.6790  178.5930  139.6400 N   0  0  0  0  0  0  0  0  0  0  0  0
  188.8170  177.8540  140.3690 C   0  0  0  0  0  0  0  0  0  0  0  0
  190.1250  177.4810  140.0480 C   0  0  0  0  0  3  0  0  0  0  0  0
  182.2510  180.5150  139.0480 O   0  0  0  0  0  1  0  0  0  0  0  0
  182.6600  179.8060  140.1800 C   0  0  1  0  0  3  0  0  0  0  0  0
  180.1270  176.3820  140.8000 C   0  0  0  0  0  0  0  0  0  0  0  0
  181.8880  177.4960  139.5710 C   0  0  0  0  0  3  0  0  0  0  0  0
  180.6540  179.7850  142.3530 C   0  0  0  0  0  1  0  0  0  0  0  0
  179.3140  175.2740  140.9970 O   0  0  0  0  0  1  0  0  0  0  0  0
  181.0700  176.3820  139.7700 C   0  0  0  0  0  3  0  0  0  0  0  0
  180.8180  178.6160  141.4400 C   0  0  0  0  0  0  0  0  0  0  0  0
  181.7670  178.6220  140.4000 C   0  0  0  0  0  0  0  0  0  0  0  0
  180.0030  177.4970  141.6330 C   0  0  0  0  0  3  0  0  0  0  0  0
  1  6  1  0  0  0  0
  1  9  1  0  0  0  0
  2  5  1  0  0  0  0
  3  2  1  0  0  0  0
  3  7  1  0  0  0  0
  4  7  2  0  0  0  0
  4 11  1  0  0  0  0
  5 17  2  0  0  0  0
  5 15  1  0  0  0  0
  8 12  2  0  0  0  0
 10 19  2  0  0  0  0
 10 20  1  0  0  0  0
 12 17  1  0  0  0  0
 13  8  1  0  0  0  0
 13  2  2  0  0  0  0
 14 23  1  0  0  0  0
 14  8  1  0  0  0  0
 15  1  2  0  0  0  0
 16  4  1  0  0  0  0
 17 18  1  0  0  0  0
 18  6  2  0  0  0  0
 19 13  1  0  0  0  0
 20  3  2  0  0  0  0
 21 20  1  0  0  0  0
 21 16  2  0  0  0  0
 23 22  1  6  0  0  0
 23 30  1  0  0  0  0
 24 27  1  0  0  0  0
 24 31  1  0  0  0  0
 25 28  1  0  0  0  0
 25 30  2  0  0  0  0
 28 24  2  0  0  0  0
 29 31  2  0  0  0  0
 29 26  1  0  0  0  0
 30 29  1  0  0  0  0
M  END
>  <MODEL>
7

>  <REMARK>
 VINA RESULT:      -9.8      3.620      6.818
  Name = 
  2 active torsions:
  status: ('A' for Active; 'I' for Inactive)
    1  A    between atoms: C_5  and  N_16
    2  A    between atoms: C_5  and  C_30
                            x       y       z     vdW  Elec       q    Type
                         _______ _______ _______ _____ _____    ______ ____

>  <TORSDO>
F 2

$$$$
=
 OpenBabel11122411103D

 31 35  0  0  1  0  0  0  0  0999 V2000
  190.1640  177.2890  142.1040 C   0  0  0  0  0  0  0  0  0  0  0  0
  186.6940  178.3160  143.1430 C   0  0  0  0  0  0  0  0  0  0  0  0
  186.6250  178.1930  144.5650 C   0  0  0  0  0  0  0  0  0  0  0  0
  187.6080  177.6490  146.7370 C   0  0  0  0  0  0  0  0  0  0  0  0
  187.8470  178.0200  142.3550 C   0  0  0  0  0  0  0  0  0  0  0  0
  190.0820  177.4590  140.7230 C   0  0  0  0  0  3  0  0  0  0  0  0
  187.7100  177.7580  145.3480 C   0  0  0  0  0  3  0  0  0  0  0  0
  185.5250  178.9100  141.0740 C   0  0  0  0  0  0  0  0  0  0  0  0
  191.6540  176.7270  142.8310 Cl  0  0  0  0  0  0  0  0  0  0  0  0
  184.3200  178.9530  144.5090 C   0  0  0  0  0  3  0  0  0  0  0  0
  188.9820  177.1030  147.6730 Cl  0  0  0  0  0  0  0  0  0  0  0  0
  186.6430  178.6210  140.3600 N   0  0  0  0  0  0  0  0  0  0  0  0
  185.5250  178.7680  142.4670 C   0  0  0  0  0  0  0  0  0  0  0  0
  184.3470  179.3680  140.4030 N   0  0  0  0  0  2  0  0  0  0  0  0
  189.0590  177.5680  142.9090 C   0  0  0  0  0  3  0  0  0  0  0  0
  186.4130  177.9750  147.3760 C   0  0  0  0  0  3  0  0  0  0  0  0
  187.7820  178.1870  140.9490 C   0  0  0  0  0  0  0  0  0  0  0  0
  188.8940  177.9060  140.1470 C   0  0  0  0  0  3  0  0  0  0  0  0
  184.3950  179.0670  143.1620 N   0  0  0  0  0  0  0  0  0  0  0  0
  185.4190  178.5190  145.2360 C   0  0  0  0  0  0  0  0  0  0  0  0
  185.3190  178.4090  146.6260 C   0  0  0  0  0  3  0  0  0  0  0  0
  185.3820  178.9170  138.3560 O   0  0  0  0  0  1  0  0  0  0  0  0
  184.2710  179.5160  138.9560 C   0  0  1  0  0  3  0  0  0  0  0  0
  180.6510  177.7030  137.4960 C   0  0  0  0  0  0  0  0  0  0  0  0
  182.9550  177.5130  138.2070 C   0  0  0  0  0  3  0  0  0  0  0  0
  181.8640  181.1540  138.4380 C   0  0  0  0  0  1  0  0  0  0  0  0
  179.4850  177.1130  137.0260 O   0  0  0  0  0  1  0  0  0  0  0  0
  181.7820  176.9200  137.7350 C   0  0  0  0  0  3  0  0  0  0  0  0
  181.8630  179.6810  138.2000 C   0  0  0  0  0  0  0  0  0  0  0  0
  183.0070  178.8970  138.4400 C   0  0  0  0  0  0  0  0  0  0  0  0
  180.6920  179.0800  137.7280 C   0  0  0  0  0  3  0  0  0  0  0  0
  1  9  1  0  0  0  0
  1 15  1  0  0  0  0
  2  3  1  0  0  0  0
  3 20  2  0  0  0  0
  3  7  1  0  0  0  0
  4 16  1  0  0  0  0
  4 11  1  0  0  0  0
  5 15  2  0  0  0  0
  5  2  1  0  0  0  0
  6  1  2  0  0  0  0
  7  4  2  0  0  0  0
  8 13  1  0  0  0  0
 10 20  1  0  0  0  0
 12 17  1  0  0  0  0
 12  8  2  0  0  0  0
 13  2  2  0  0  0  0
 13 19  1  0  0  0  0
 14  8  1  0  0  0  0
 17  5  1  0  0  0  0
 18  6  1  0  0  0  0
 18 17  2  0  0  0  0
 19 10  2  0  0  0  0
 20 21  1  0  0  0  0
 21 16  2  0  0  0  0
 23 22  1  6  0  0  0
 23 14  1  0  0  0  0
 24 31  2  0  0  0  0
 24 28  1  0  0  0  0
 25 30  1  0  0  0  0
 27 24  1  0  0  0  0
 28 25  2  0  0  0  0
 29 26  1  0  0  0  0
 29 30  2  0  0  0  0
 30 23  1  0  0  0  0
 31 29  1  0  0  0  0
M  END
>  <MODEL>
8

>  <REMARK>
 VINA RESULT:      -9.8      3.659      6.194
  Name = 
  2 active torsions:
  status: ('A' for Active; 'I' for Inactive)
    1  A    between atoms: C_5  and  N_16
    2  A    between atoms: C_5  and  C_30
                            x       y       z     vdW  Elec       q    Type
                         _______ _______ _______ _____ _____    ______ ____

>  <TORSDO>
F 2

$$$$
=
 OpenBabel11122411103D

 31 35  0  0  1  0  0  0  0  0999 V2000
  191.1300  176.7640  144.4850 C   0  0  0  0  0  0  0  0  0  0  0  0
  187.7010  177.9390  143.4700 C   0  0  0  0  0  0  0  0  0  0  0  0
  186.9450  178.1230  144.6690 C   0  0  0  0  0  0  0  0  0  0  0  0
  186.7080  178.0720  147.1020 C   0  0  0  0  0  0  0  0  0  0  0  0
  189.0570  177.4980  143.4220 C   0  0  0  0  0  0  0  0  0  0  0  0
  191.7390  176.6320  143.2380 C   0  0  0  0  0  3  0  0  0  0  0  0
  187.4750  177.8820  145.9500 C   0  0  0  0  0  3  0  0  0  0  0  0
  187.7310  178.0580  141.0230 C   0  0  0  0  0  0  0  0  0  0  0  0
  192.0280  176.3930  145.9410 Cl  0  0  0  0  0  0  0  0  0  0  0  0
  185.0320  178.8190  143.3460 C   0  0  0  0  0  3  0  0  0  0  0  0
  187.4040  177.7600  148.6760 Cl  0  0  0  0  0  0  0  0  0  0  0  0
  189.0220  177.6380  141.0200 N   0  0  0  0  0  0  0  0  0  0  0  0
  187.0480  178.2180  142.2350 C   0  0  0  0  0  0  0  0  0  0  0  0
  187.0690  178.3440  139.7870 N   0  0  0  0  0  2  0  0  0  0  0  0
  189.8060  177.1920  144.5740 C   0  0  0  0  0  3  0  0  0  0  0  0
  185.3880  178.5090  146.9970 C   0  0  0  0  0  3  0  0  0  0  0  0
  189.6920  177.3580  142.1620 C   0  0  0  0  0  0  0  0  0  0  0  0
  191.0210  176.9280  142.0800 C   0  0  0  0  0  3  0  0  0  0  0  0
  185.7560  178.6420  142.2150 N   0  0  0  0  0  0  0  0  0  0  0  0
  185.6010  178.5670  144.5860 C   0  0  0  0  0  0  0  0  0  0  0  0
  184.8360  178.7570  145.7400 C   0  0  0  0  0  3  0  0  0  0  0  0
  188.7290  177.2230  138.5830 O   0  0  0  0  0  1  0  0  0  0  0  0
  187.7130  178.1760  138.4910 C   0  0  1  0  0  3  0  0  0  0  0  0
  184.7840  177.0030  135.5640 C   0  0  0  0  0  0  0  0  0  0  0  0
  185.3740  177.5280  137.8510 C   0  0  0  0  0  3  0  0  0  0  0  0
  188.4630  177.8570  135.6480 C   0  0  0  0  0  1  0  0  0  0  0  0
  183.8340  176.6260  134.6240 O   0  0  0  0  0  1  0  0  0  0  0  0
  184.4190  177.1500  136.9040 C   0  0  0  0  0  3  0  0  0  0  0  0
  187.0650  177.6160  136.1120 C   0  0  0  0  0  0  0  0  0  0  0  0
  186.7030  177.7610  137.4640 C   0  0  0  0  0  0  0  0  0  0  0  0
  186.1040  177.2360  135.1700 C   0  0  0  0  0  3  0  0  0  0  0  0
  1 15  1  0  0  0  0
  1  9  1  0  0  0  0
  2  3  1  0  0  0  0
  3  7  1  0  0  0  0
  4 11  1  0  0  0  0
  5  2  1  0  0  0  0
  5 15  2  0  0  0  0
  6  1  2  0  0  0  0
  7  4  2  0  0  0  0
  8 13  1  0  0  0  0
 10 20  1  0  0  0  0
 12  8  2  0  0  0  0
 12 17  1  0  0  0  0
 13  2  2  0  0  0  0
 14  8  1  0  0  0  0
 16  4  1  0  0  0  0
 17  5  1  0  0  0  0
 18 17  2  0  0  0  0
 18  6  1  0  0  0  0
 19 13  1  0  0  0  0
 19 10  2  0  0  0  0
 20  3  2  0  0  0  0
 20 21  1  0  0  0  0
 21 16  2  0  0  0  0
 23 22  1  1  0  0  0
 23 14  1  0  0  0  0
 24 28  1  0  0  0  0
 26 29  1  0  0  0  0
 27 24  1  0  0  0  0
 28 25  2  0  0  0  0
 29 30  2  0  0  0  0
 30 25  1  0  0  0  0
 30 23  1  0  0  0  0
 31 24  2  0  0  0  0
 31 29  1  0  0  0  0
M  END
>  <MODEL>
9

>  <REMARK>
 VINA RESULT:      -9.6      2.242      4.663
  Name = 
  2 active torsions:
  status: ('A' for Active; 'I' for Inactive)
    1  A    between atoms: C_5  and  N_16
    2  A    between atoms: C_5  and  C_30
                            x       y       z     vdW  Elec       q    Type
                         _______ _______ _______ _____ _____    ______ ____

>  <TORSDO>
F 2

$$$$
