=
 OpenBabel11122412163D

 34 40  0  0  1  0  0  0  0  0999 V2000
  188.4730  176.9460  137.6140 C   0  0  0  0  0  0  0  0  0  0  0  0
  190.5750  176.3110  138.7820 C   0  0  0  0  0  3  0  0  0  0  0  0
  182.8500  175.8190  138.6580 C   0  0  0  0  0  2  0  0  0  0  0  0
  186.1450  177.1700  136.9490 C   0  0  0  0  0  0  0  0  0  0  0  0
  184.5590  178.3080  138.4700 C   0  0  0  0  0  0  0  0  0  0  0  0
  182.5610  177.9800  139.9400 C   0  0  0  0  0  2  0  0  0  0  0  0
  181.8720  176.7080  139.4390 C   0  0  0  0  0  2  0  0  0  0  0  0
  182.4460  176.9790  136.7170 C   0  0  0  0  0  2  0  0  0  0  0  0
  189.3010  178.1330  139.6360 C   0  0  1  0  0  3  0  0  0  0  0  0
  188.8400  176.9830  142.5770 C   0  0  0  0  0  2  0  0  0  0  0  0
  185.5250  178.4490  139.3300 N   0  0  0  0  0  0  0  0  0  0  0  0
  183.7850  177.4790  136.1760 C   0  0  0  0  0  2  0  0  0  0  0  0
  187.8970  178.1850  140.0590 N   0  0  2  0  0  0  0  0  0  0  0  0
  190.9400  176.4910  140.0090 N   0  0  0  0  0  0  0  0  0  0  0  0
  184.8090  177.6360  137.2140 N   0  0  0  0  0  0  0  0  0  0  0  0
  182.5280  175.6940  137.2880 O   0  0  0  0  0  0  0  0  0  0  0  0
  190.0890  177.6930  142.0620 C   0  0  2  0  0  3  0  0  0  0  0  0
  187.1690  177.4240  137.8800 C   0  0  0  0  0  0  0  0  0  0  0  0
  183.2300  178.6780  138.8480 N   0  0  0  0  0  2  0  0  0  0  0  0
  186.8710  178.0230  139.0560 C   0  0  1  0  0  3  0  0  0  0  0  0
  187.6460  175.9150  135.5940 C   0  0  0  0  0  3  0  0  0  0  0  0
  187.5770  177.8460  142.4810 C   0  0  0  0  0  2  0  0  0  0  0  0
  186.4120  176.4290  135.8370 N   0  0  0  0  0  0  0  0  0  0  0  0
  187.5740  178.8420  141.3200 C   0  0  0  0  0  2  0  0  0  0  0  0
  190.1800  177.5040  140.6150 N   0  0  0  0  0  0  0  0  0  0  0  0
  188.6960  176.1560  136.4810 C   0  0  0  0  0  3  0  0  0  0  0  0
  189.4640  177.2080  138.4780 C   0  0  2  0  0  3  0  0  0  0  0  0
  191.3340  177.1620  142.7600 C   0  0  0  0  0  2  0  0  0  0  0  0
  190.9450  176.3550  143.9880 C   0  0  0  0  0  2  0  0  0  0  0  0
  190.0730  176.9050  147.2300 C   0  0  0  0  0  2  0  0  0  0  0  0
  191.9650  176.0660  146.0790 C   0  0  0  0  0  2  0  0  0  0  0  0
  191.3650  177.0540  145.1920 N   0  0  0  0  0  0  0  0  0  0  0  0
  191.4350  176.3190  147.4670 C   0  0  0  0  0  2  0  0  0  0  0  0
  190.1530  177.5290  145.8520 C   0  0  0  0  0  2  0  0  0  0  0  0
  1 18  1  0  0  0  0
  1 27  1  0  0  0  0
  2 14  2  0  0  0  0
  3  7  1  0  0  0  0
  4 15  1  0  0  0  0
  4 18  2  0  0  0  0
  5 19  1  0  0  0  0
  5 11  2  0  0  0  0
  7  6  1  0  0  0  0
  8 16  1  0  0  0  0
  9 13  1  0  0  0  0
  9 25  1  1  0  0  0
 12  8  1  0  0  0  0
 12 15  1  0  0  0  0
 13 24  1  6  0  0  0
 14 25  1  0  0  0  0
 15  5  1  0  0  0  0
 16  3  1  0  0  0  0
 17 10  1  0  0  0  0
 17 28  1  1  0  0  0
 19  6  1  0  0  0  0
 20 18  1  1  0  0  0
 20 11  1  0  0  0  0
 20 13  1  0  0  0  0
 21 23  2  0  0  0  0
 21 26  1  0  0  0  0
 22 10  1  0  0  0  0
 23  4  1  0  0  0  0
 24 22  1  0  0  0  0
 25 17  1  0  0  0  0
 26  1  2  0  0  0  0
 27  2  1  1  0  0  0
 27  9  1  0  0  0  0
 28 29  1  0  0  0  0
 29 32  1  0  0  0  0
 30 33  1  0  0  0  0
 31 33  1  0  0  0  0
 32 34  1  0  0  0  0
 32 31  1  0  0  0  0
 34 30  1  0  0  0  0
M  END
>  <MODEL>
1

>  <REMARK>
 VINA RESULT:      -8.7      0.000      0.000
  Name = 
  3 active torsions:
  status: ('A' for Active; 'I' for Inactive)
    1  A    between atoms: C_17  and  C_28
    2  A    between atoms: C_28  and  C_29
    3  A    between atoms: C_29  and  N_32
                            x       y       z     vdW  Elec       q    Type
                         _______ _______ _______ _____ _____    ______ ____

>  <TORSDO>
F 3

$$$$
=
 OpenBabel11122412163D

 34 40  0  0  1  0  0  0  0  0999 V2000
  187.0660  177.6530  137.9100 C   0  0  0  0  0  0  0  0  0  0  0  0
  189.2970  176.9480  138.7550 C   0  0  0  0  0  3  0  0  0  0  0  0
  181.6170  176.2020  139.3880 C   0  0  0  0  0  2  0  0  0  0  0  0
  184.6750  177.8780  137.5320 C   0  0  0  0  0  0  0  0  0  0  0  0
  183.2420  178.7540  139.3490 C   0  0  0  0  0  0  0  0  0  0  0  0
  181.4250  178.1690  140.9680 C   0  0  0  0  0  2  0  0  0  0  0  0
  180.7130  176.9480  140.3790 C   0  0  0  0  0  2  0  0  0  0  0  0
  180.9770  177.5870  137.6710 C   0  0  0  0  0  2  0  0  0  0  0  0
  188.0860  178.5980  139.9720 C   0  0  1  0  0  3  0  0  0  0  0  0
  187.9760  177.0630  142.7680 C   0  0  0  0  0  2  0  0  0  0  0  0
  184.2930  178.8160  140.1140 N   0  0  0  0  0  0  0  0  0  0  0  0
  182.2380  178.2010  137.0610 C   0  0  0  0  0  2  0  0  0  0  0  0
  186.7370  178.5450  140.5450 N   0  0  2  0  0  0  0  0  0  0  0  0
  189.7910  176.9810  139.9490 N   0  0  0  0  0  0  0  0  0  0  0  0
  183.3670  178.2580  137.9970 N   0  0  0  0  0  0  0  0  0  0  0  0
  181.1490  176.2440  138.0560 O   0  0  0  0  0  0  0  0  0  0  0  0
  189.1460  177.8770  142.2210 C   0  0  2  0  0  3  0  0  0  0  0  0
  185.7900  178.0460  138.3740 C   0  0  0  0  0  0  0  0  0  0  0  0
  181.9550  179.0250  139.9120 N   0  0  0  0  0  2  0  0  0  0  0  0
  185.6100  178.4770  139.6440 C   0  0  1  0  0  3  0  0  0  0  0  0
  186.0450  176.8620  135.8710 C   0  0  0  0  0  3  0  0  0  0  0  0
  186.6910  177.8860  142.9210 C   0  0  0  0  0  2  0  0  0  0  0  0
  184.8330  177.2960  136.3100 N   0  0  0  0  0  0  0  0  0  0  0  0
  186.5400  179.0230  141.9090 C   0  0  0  0  0  2  0  0  0  0  0  0
  189.0810  177.8800  140.7600 N   0  0  0  0  0  0  0  0  0  0  0  0
  187.1800  177.0230  136.6660 C   0  0  0  0  0  3  0  0  0  0  0  0
  188.1410  177.8370  138.6910 C   0  0  2  0  0  3  0  0  0  0  0  0
  190.4700  177.3050  142.7070 C   0  0  0  0  0  2  0  0  0  0  0  0
  190.2590  176.4880  143.9710 C   0  0  0  0  0  2  0  0  0  0  0  0
  189.8960  176.7540  147.3430 C   0  0  0  0  0  2  0  0  0  0  0  0
  191.6800  176.3780  145.8320 C   0  0  0  0  0  2  0  0  0  0  0  0
  190.7340  177.2320  145.1260 N   0  0  0  0  0  0  0  0  0  0  0  0
  191.3710  176.4750  147.3030 C   0  0  0  0  0  2  0  0  0  0  0  0
  189.5900  177.4140  146.0140 C   0  0  0  0  0  2  0  0  0  0  0  0
  1 18  1  0  0  0  0
  1 27  1  0  0  0  0
  2 14  2  0  0  0  0
  3  7  1  0  0  0  0
  4 15  1  0  0  0  0
  4 18  2  0  0  0  0
  5 19  1  0  0  0  0
  5 11  2  0  0  0  0
  7  6  1  0  0  0  0
  8 16  1  0  0  0  0
  9 13  1  0  0  0  0
  9 25  1  1  0  0  0
 10 22  1  0  0  0  0
 12  8  1  0  0  0  0
 12 15  1  0  0  0  0
 13 24  1  6  0  0  0
 14 25  1  0  0  0  0
 15  5  1  0  0  0  0
 16  3  1  0  0  0  0
 17 28  1  6  0  0  0
 17 10  1  0  0  0  0
 19  6  1  0  0  0  0
 20 18  1  1  0  0  0
 20 11  1  0  0  0  0
 20 13  1  0  0  0  0
 21 23  2  0  0  0  0
 21 26  1  0  0  0  0
 23  4  1  0  0  0  0
 24 22  1  0  0  0  0
 25 17  1  0  0  0  0
 26  1  2  0  0  0  0
 27  2  1  1  0  0  0
 27  9  1  0  0  0  0
 28 29  1  0  0  0  0
 29 32  1  0  0  0  0
 31 33  1  0  0  0  0
 32 31  1  0  0  0  0
 32 34  1  0  0  0  0
 33 30  1  0  0  0  0
 34 30  1  0  0  0  0
M  END
>  <MODEL>
2

>  <REMARK>
 VINA RESULT:      -8.7      1.145      1.386
  Name = 
  3 active torsions:
  status: ('A' for Active; 'I' for Inactive)
    1  A    between atoms: C_17  and  C_28
    2  A    between atoms: C_28  and  C_29
    3  A    between atoms: C_29  and  N_32
                            x       y       z     vdW  Elec       q    Type
                         _______ _______ _______ _____ _____    ______ ____

>  <TORSDO>
F 3

$$$$
=
 OpenBabel11122412163D

 34 40  0  0  1  0  0  0  0  0999 V2000
  188.7970  177.0920  138.2180 C   0  0  0  0  0  0  0  0  0  0  0  0
  190.5110  176.6300  139.9600 C   0  0  0  0  0  3  0  0  0  0  0  0
  183.2520  175.4180  137.5580 C   0  0  0  0  0  2  0  0  0  0  0  0
  186.7580  177.1120  136.8930 C   0  0  0  0  0  0  0  0  0  0  0  0
  184.6920  178.0610  137.8700 C   0  0  0  0  0  0  0  0  0  0  0  0
  182.3910  177.5130  138.6850 C   0  0  0  0  0  2  0  0  0  0  0  0
  182.0070  176.1940  138.0100 C   0  0  0  0  0  2  0  0  0  0  0  0
  183.3290  176.5800  135.5780 C   0  0  0  0  0  2  0  0  0  0  0  0
  188.8730  178.3050  140.3890 C   0  0  1  0  0  3  0  0  0  0  0  0
  187.6780  177.0480  143.0680 C   0  0  0  0  0  2  0  0  0  0  0  0
  185.3430  178.2710  138.9770 N   0  0  0  0  0  0  0  0  0  0  0  0
  184.7140  177.2160  135.4540 C   0  0  0  0  0  2  0  0  0  0  0  0
  187.4090  178.2140  140.3770 N   0  0  2  0  0  0  0  0  0  0  0  0
  190.4790  176.8150  141.2390 N   0  0  0  0  0  0  0  0  0  0  0  0
  185.3660  177.4440  136.7490 N   0  0  0  0  0  0  0  0  0  0  0  0
  183.3630  175.2960  136.1550 O   0  0  0  0  0  0  0  0  0  0  0  0
  188.9490  177.8840  142.9420 C   0  0  2  0  0  3  0  0  0  0  0  0
  187.4330  177.4400  138.0840 C   0  0  0  0  0  0  0  0  0  0  0  0
  183.2820  178.2960  137.8360 N   0  0  0  0  0  2  0  0  0  0  0  0
  186.7440  177.9800  139.1160 C   0  0  1  0  0  3  0  0  0  0  0  0
  188.7070  176.0350  136.0500 C   0  0  0  0  0  3  0  0  0  0  0  0
  186.4220  177.7910  142.5970 C   0  0  0  0  0  2  0  0  0  0  0  0
  187.4120  176.4250  135.9140 N   0  0  0  0  0  0  0  0  0  0  0  0
  186.6660  178.8090  141.4820 C   0  0  0  0  0  2  0  0  0  0  0  0
  189.4800  177.7380  141.5870 N   0  0  0  0  0  0  0  0  0  0  0  0
  189.4190  176.3520  137.2070 C   0  0  0  0  0  3  0  0  0  0  0  0
  189.4590  177.4260  139.3360 C   0  0  2  0  0  3  0  0  0  0  0  0
  189.9760  177.4560  143.9800 C   0  0  0  0  0  2  0  0  0  0  0  0
  189.7630  178.2170  145.2780 C   0  0  0  0  0  2  0  0  0  0  0  0
  188.8840  178.0290  148.5600 C   0  0  0  0  0  2  0  0  0  0  0  0
  187.7660  177.9400  146.4740 C   0  0  0  0  0  2  0  0  0  0  0  0
  189.0850  177.3660  146.2430 N   0  0  0  0  0  0  0  0  0  0  0  0
  187.5120  177.9170  147.9590 C   0  0  0  0  0  2  0  0  0  0  0  0
  189.8180  177.4810  147.5000 C   0  0  0  0  0  2  0  0  0  0  0  0
  1 27  1  0  0  0  0
  2 14  2  0  0  0  0
  3  7  1  0  0  0  0
  4 18  2  0  0  0  0
  5 11  2  0  0  0  0
  7  6  1  0  0  0  0
  8 16  1  0  0  0  0
  9 25  1  1  0  0  0
 11 20  1  0  0  0  0
 12  8  1  0  0  0  0
 12 15  1  0  0  0  0
 13  9  1  0  0  0  0
 13 24  1  6  0  0  0
 14 25  1  0  0  0  0
 15  4  1  0  0  0  0
 15  5  1  0  0  0  0
 16  3  1  0  0  0  0
 17 10  1  0  0  0  0
 17 28  1  1  0  0  0
 18  1  1  0  0  0  0
 19  5  1  0  0  0  0
 19  6  1  0  0  0  0
 20 18  1  1  0  0  0
 20 13  1  0  0  0  0
 21 26  1  0  0  0  0
 22 10  1  0  0  0  0
 23 21  2  0  0  0  0
 23  4  1  0  0  0  0
 24 22  1  0  0  0  0
 25 17  1  0  0  0  0
 26  1  2  0  0  0  0
 27  2  1  1  0  0  0
 27  9  1  0  0  0  0
 28 29  1  0  0  0  0
 29 32  1  0  0  0  0
 31 33  1  0  0  0  0
 32 31  1  0  0  0  0
 32 34  1  0  0  0  0
 33 30  1  0  0  0  0
 34 30  1  0  0  0  0
M  END
>  <MODEL>
3

>  <REMARK>
 VINA RESULT:      -8.6      1.255      1.663
  Name = 
  3 active torsions:
  status: ('A' for Active; 'I' for Inactive)
    1  A    between atoms: C_17  and  C_28
    2  A    between atoms: C_28  and  C_29
    3  A    between atoms: C_29  and  N_32
                            x       y       z     vdW  Elec       q    Type
                         _______ _______ _______ _____ _____    ______ ____

>  <TORSDO>
F 3

$$$$
=
 OpenBabel11122412163D

 34 40  0  0  1  0  0  0  0  0999 V2000
  187.8790  177.8810  142.1890 C   0  0  0  0  0  0  0  0  0  0  0  0
  185.7740  177.9000  143.5120 C   0  0  0  0  0  3  0  0  0  0  0  0
  189.6040  174.8640  137.5080 C   0  0  0  0  0  2  0  0  0  0  0  0
  189.6160  177.3630  140.5670 C   0  0  0  0  0  0  0  0  0  0  0  0
  189.1930  177.7880  138.1660 C   0  0  0  0  0  0  0  0  0  0  0  0
  188.8610  176.7020  135.9370 C   0  0  0  0  0  2  0  0  0  0  0  0
  189.4980  175.3140  136.0440 C   0  0  0  0  0  2  0  0  0  0  0  0
  191.6040  175.9630  137.7630 C   0  0  0  0  0  2  0  0  0  0  0  0
  185.8470  179.1220  141.4690 C   0  0  1  0  0  3  0  0  0  0  0  0
  183.4040  177.6670  140.0200 C   0  0  0  0  0  2  0  0  0  0  0  0
  187.9900  178.1780  138.4740 N   0  0  0  0  0  0  0  0  0  0  0  0
  191.4710  176.9220  138.9470 C   0  0  0  0  0  2  0  0  0  0  0  0
  186.1720  178.6700  140.1120 N   0  0  2  0  0  0  0  0  0  0  0  0
  184.5520  178.1000  143.1420 N   0  0  0  0  0  0  0  0  0  0  0  0
  190.0870  177.3340  139.2080 N   0  0  0  0  0  0  0  0  0  0  0  0
  190.9350  174.7410  137.9660 O   0  0  0  0  0  0  0  0  0  0  0  0
  183.3150  178.7900  141.0500 C   0  0  2  0  0  3  0  0  0  0  0  0
  188.3360  177.8750  140.8500 C   0  0  0  0  0  0  0  0  0  0  0  0
  189.5530  177.6630  136.7880 N   0  0  0  0  0  2  0  0  0  0  0  0
  187.5250  178.2490  139.8330 C   0  0  1  0  0  3  0  0  0  0  0  0
  189.9250  176.7880  142.8560 C   0  0  0  0  0  3  0  0  0  0  0  0
  184.1960  178.0620  138.7680 C   0  0  0  0  0  2  0  0  0  0  0  0
  190.3720  176.8390  141.5740 N   0  0  0  0  0  0  0  0  0  0  0  0
  185.3070  179.0840  139.0140 C   0  0  0  0  0  2  0  0  0  0  0  0
  184.5040  178.7520  141.8990 N   0  0  0  0  0  0  0  0  0  0  0  0
  188.6690  177.2980  143.1850 C   0  0  0  0  0  3  0  0  0  0  0  0
  186.6740  178.3950  142.4750 C   0  0  2  0  0  3  0  0  0  0  0  0
  182.0460  178.6550  141.8810 C   0  0  0  0  0  2  0  0  0  0  0  0
  180.8930  179.3750  141.2020 C   0  0  0  0  0  2  0  0  0  0  0  0
  179.6730  178.5130  144.2600 C   0  0  0  0  0  2  0  0  0  0  0  0
  179.3520  180.2830  142.7190 C   0  0  0  0  0  2  0  0  0  0  0  0
  179.6540  179.1050  141.9150 N   0  0  0  0  0  0  0  0  0  0  0  0
  178.9310  179.8060  144.0840 C   0  0  0  0  0  2  0  0  0  0  0  0
  179.9300  178.0190  142.8500 C   0  0  0  0  0  2  0  0  0  0  0  0
  1 27  1  0  0  0  0
  1 26  1  0  0  0  0
  3 16  1  0  0  0  0
  4 18  1  0  0  0  0
  4 23  2  0  0  0  0
  5 11  2  0  0  0  0
  5 15  1  0  0  0  0
  6  7  1  0  0  0  0
  6 19  1  0  0  0  0
  7  3  1  0  0  0  0
  8 16  1  0  0  0  0
  8 12  1  0  0  0  0
  9 25  1  1  0  0  0
  9 27  1  0  0  0  0
 10 17  1  0  0  0  0
 12 15  1  0  0  0  0
 13 24  1  6  0  0  0
 13  9  1  0  0  0  0
 14  2  2  0  0  0  0
 15  4  1  0  0  0  0
 17 28  1  1  0  0  0
 17 25  1  0  0  0  0
 18  1  2  0  0  0  0
 19  5  1  0  0  0  0
 20 11  1  6  0  0  0
 20 13  1  0  0  0  0
 20 18  1  0  0  0  0
 21 26  2  0  0  0  0
 22 24  1  0  0  0  0
 22 10  1  0  0  0  0
 23 21  1  0  0  0  0
 25 14  1  0  0  0  0
 27  2  1  6  0  0  0
 29 28  1  0  0  0  0
 29 32  1  0  0  0  0
 31 33  1  0  0  0  0
 32 31  1  0  0  0  0
 32 34  1  0  0  0  0
 33 30  1  0  0  0  0
 34 30  1  0  0  0  0
M  END
>  <MODEL>
4

>  <REMARK>
 VINA RESULT:      -8.6      2.855      7.636
  Name = 
  3 active torsions:
  status: ('A' for Active; 'I' for Inactive)
    1  A    between atoms: C_17  and  C_28
    2  A    between atoms: C_28  and  C_29
    3  A    between atoms: C_29  and  N_32
                            x       y       z     vdW  Elec       q    Type
                         _______ _______ _______ _____ _____    ______ ____

>  <TORSDO>
F 3

$$$$
=
 OpenBabel11122412163D

 34 40  0  0  1  0  0  0  0  0999 V2000
  187.5870  178.0170  142.2180 C   0  0  0  0  0  0  0  0  0  0  0  0
  185.4410  177.9790  143.4750 C   0  0  0  0  0  3  0  0  0  0  0  0
  189.5600  175.0030  137.6350 C   0  0  0  0  0  2  0  0  0  0  0  0
  189.3900  177.5390  140.6590 C   0  0  0  0  0  0  0  0  0  0  0  0
  189.0290  177.9190  138.2400 C   0  0  0  0  0  0  0  0  0  0  0  0
  188.8040  176.7940  136.0160 C   0  0  0  0  0  2  0  0  0  0  0  0
  189.4850  175.4310  136.1620 C   0  0  0  0  0  2  0  0  0  0  0  0
  191.5120  176.1740  137.9360 C   0  0  0  0  0  2  0  0  0  0  0  0
  185.5370  179.1770  141.4190 C   0  0  1  0  0  3  0  0  0  0  0  0
  183.1920  177.6200  139.9150 C   0  0  0  0  0  2  0  0  0  0  0  0
  187.8040  178.2710  138.5050 N   0  0  0  0  0  0  0  0  0  0  0  0
  191.3090  177.1430  139.1020 C   0  0  0  0  0  2  0  0  0  0  0  0
  185.9200  178.7190  140.0790 N   0  0  2  0  0  0  0  0  0  0  0  0
  184.2250  178.1310  143.0640 N   0  0  0  0  0  0  0  0  0  0  0  0
  189.9050  177.5090  139.3150 N   0  0  0  0  0  0  0  0  0  0  0  0
  190.8790  174.9330  138.1350 O   0  0  0  0  0  0  0  0  0  0  0  0
  183.0320  178.7530  140.9260 C   0  0  2  0  0  3  0  0  0  0  0  0
  188.0850  178.0100  140.8950 C   0  0  0  0  0  0  0  0  0  0  0  0
  189.4360  177.7890  136.8750 N   0  0  0  0  0  2  0  0  0  0  0  0
  187.2950  178.3430  139.8480 C   0  0  1  0  0  3  0  0  0  0  0  0
  189.6470  177.0040  142.9640 C   0  0  0  0  0  3  0  0  0  0  0  0
  184.0080  178.0270  138.6830 C   0  0  0  0  0  2  0  0  0  0  0  0
  190.1310  177.0540  141.6950 N   0  0  0  0  0  0  0  0  0  0  0  0
  185.0750  179.0900  138.9490 C   0  0  0  0  0  2  0  0  0  0  0  0
  184.1950  178.7660  141.8130 N   0  0  0  0  0  0  0  0  0  0  0  0
  188.3640  177.4740  143.2460 C   0  0  0  0  0  3  0  0  0  0  0  0
  186.3560  178.4910  142.4600 C   0  0  2  0  0  3  0  0  0  0  0  0
  181.7430  178.5840  141.7190 C   0  0  0  0  0  2  0  0  0  0  0  0
  180.6490  179.4650  141.1400 C   0  0  0  0  0  2  0  0  0  0  0  0
  179.6080  176.9350  139.1170 C   0  0  0  0  0  2  0  0  0  0  0  0
  179.6690  177.3580  141.4470 C   0  0  0  0  0  2  0  0  0  0  0  0
  179.4860  178.6560  140.8110 N   0  0  0  0  0  0  0  0  0  0  0  0
  179.2910  176.3010  140.4410 C   0  0  0  0  0  2  0  0  0  0  0  0
  179.5220  178.4260  139.3700 C   0  0  0  0  0  2  0  0  0  0  0  0
  1 27  1  0  0  0  0
  1 26  1  0  0  0  0
  3 16  1  0  0  0  0
  4 18  1  0  0  0  0
  4 23  2  0  0  0  0
  5 11  2  0  0  0  0
  5 15  1  0  0  0  0
  6  7  1  0  0  0  0
  6 19  1  0  0  0  0
  7  3  1  0  0  0  0
  8 16  1  0  0  0  0
  8 12  1  0  0  0  0
  9 25  1  1  0  0  0
  9 27  1  0  0  0  0
 10 17  1  0  0  0  0
 12 15  1  0  0  0  0
 13 24  1  6  0  0  0
 13  9  1  0  0  0  0
 14  2  2  0  0  0  0
 15  4  1  0  0  0  0
 17 28  1  1  0  0  0
 17 25  1  0  0  0  0
 18  1  2  0  0  0  0
 19  5  1  0  0  0  0
 20 11  1  6  0  0  0
 20 13  1  0  0  0  0
 20 18  1  0  0  0  0
 21 26  2  0  0  0  0
 22 24  1  0  0  0  0
 22 10  1  0  0  0  0
 23 21  1  0  0  0  0
 25 14  1  0  0  0  0
 27  2  1  6  0  0  0
 29 28  1  0  0  0  0
 30 34  1  0  0  0  0
 30 33  1  0  0  0  0
 32 29  1  0  0  0  0
 32 31  1  0  0  0  0
 33 31  1  0  0  0  0
 34 32  1  0  0  0  0
M  END
>  <MODEL>
5

>  <REMARK>
 VINA RESULT:      -8.5      2.678      7.895
  Name = 
  3 active torsions:
  status: ('A' for Active; 'I' for Inactive)
    1  A    between atoms: C_17  and  C_28
    2  A    between atoms: C_28  and  C_29
    3  A    between atoms: C_29  and  N_32
                            x       y       z     vdW  Elec       q    Type
                         _______ _______ _______ _____ _____    ______ ____

>  <TORSDO>
F 3

$$$$
=
 OpenBabel11122412163D

 34 40  0  0  1  0  0  0  0  0999 V2000
  189.7120  177.0730  139.3650 C   0  0  0  0  0  0  0  0  0  0  0  0
  190.5590  176.7860  141.6850 C   0  0  0  0  0  3  0  0  0  0  0  0
  184.9480  175.1510  136.6080 C   0  0  0  0  0  2  0  0  0  0  0  0
  188.4010  176.9320  137.3210 C   0  0  0  0  0  0  0  0  0  0  0  0
  186.1070  177.8600  137.2920 C   0  0  0  0  0  0  0  0  0  0  0  0
  183.6790  177.2770  137.1270 C   0  0  0  0  0  2  0  0  0  0  0  0
  183.6200  175.9050  136.4510 C   0  0  0  0  0  2  0  0  0  0  0  0
  185.8240  176.1890  134.7560 C   0  0  0  0  0  2  0  0  0  0  0  0
  188.8750  178.4200  141.2800 C   0  0  1  0  0  3  0  0  0  0  0  0
  186.6920  177.2870  143.3160 C   0  0  0  0  0  2  0  0  0  0  0  0
  186.2410  178.1640  138.5500 N   0  0  0  0  0  0  0  0  0  0  0  0
  187.1300  176.8690  135.1660 C   0  0  0  0  0  2  0  0  0  0  0  0
  187.5460  178.2730  140.6750 N   0  0  2  0  0  0  0  0  0  0  0  0
  190.0000  177.0480  142.8210 N   0  0  0  0  0  0  0  0  0  0  0  0
  187.1880  177.2010  136.5940 N   0  0  0  0  0  0  0  0  0  0  0  0
  185.6280  174.9460  135.3870 O   0  0  0  0  0  0  0  0  0  0  0  0
  187.8940  178.1620  143.6620 C   0  0  2  0  0  3  0  0  0  0  0  0
  188.5210  177.3590  138.6570 C   0  0  0  0  0  0  0  0  0  0  0  0
  184.8340  178.0390  136.6650 N   0  0  0  0  0  2  0  0  0  0  0  0
  187.4630  177.9360  139.2730 C   0  0  1  0  0  3  0  0  0  0  0  0
  190.5330  175.8810  137.4330 C   0  0  0  0  0  3  0  0  0  0  0  0
  185.7360  177.9510  142.3180 C   0  0  0  0  0  2  0  0  0  0  0  0
  189.4060  176.2110  136.7490 N   0  0  0  0  0  0  0  0  0  0  0  0
  186.4080  178.9060  141.3310 C   0  0  0  0  0  2  0  0  0  0  0  0
  188.9390  177.9520  142.6600 N   0  0  0  0  0  0  0  0  0  0  0  0
  190.7020  176.2960  138.7540 C   0  0  0  0  0  3  0  0  0  0  0  0
  189.8510  177.5000  140.6280 C   0  0  2  0  0  3  0  0  0  0  0  0
  188.4060  177.8390  145.0590 C   0  0  0  0  0  2  0  0  0  0  0  0
  187.2420  177.6470  146.0160 C   0  0  0  0  0  2  0  0  0  0  0  0
  189.9890  177.6890  148.0230 C   0  0  0  0  0  2  0  0  0  0  0  0
  187.7200  178.3430  148.2030 C   0  0  0  0  0  2  0  0  0  0  0  0
  187.7330  177.1940  147.3080 N   0  0  0  0  0  0  0  0  0  0  0  0
  189.0200  178.3410  148.9660 C   0  0  0  0  0  2  0  0  0  0  0  0
  189.1320  176.8210  147.1230 C   0  0  0  0  0  2  0  0  0  0  0  0
  1 27  1  0  0  0  0
  2 14  2  0  0  0  0
  4 18  1  0  0  0  0
  5 11  2  0  0  0  0
  7  3  1  0  0  0  0
  7  6  1  0  0  0  0
  8 12  1  0  0  0  0
  8 16  1  0  0  0  0
  9 25  1  1  0  0  0
 10 17  1  0  0  0  0
 12 15  1  0  0  0  0
 13  9  1  0  0  0  0
 13 24  1  6  0  0  0
 15  5  1  0  0  0  0
 15  4  1  0  0  0  0
 16  3  1  0  0  0  0
 17 28  1  1  0  0  0
 18 20  1  0  0  0  0
 18  1  2  0  0  0  0
 19  6  1  0  0  0  0
 19  5  1  0  0  0  0
 20 11  1  1  0  0  0
 20 13  1  0  0  0  0
 21 26  2  0  0  0  0
 22 10  1  0  0  0  0
 23  4  2  0  0  0  0
 23 21  1  0  0  0  0
 24 22  1  0  0  0  0
 25 14  1  0  0  0  0
 25 17  1  0  0  0  0
 26  1  1  0  0  0  0
 27  9  1  0  0  0  0
 27  2  1  1  0  0  0
 28 29  1  0  0  0  0
 29 32  1  0  0  0  0
 30 33  1  0  0  0  0
 31 33  1  0  0  0  0
 32 31  1  0  0  0  0
 34 32  1  0  0  0  0
 34 30  1  0  0  0  0
M  END
>  <MODEL>
6

>  <REMARK>
 VINA RESULT:      -8.1      1.865      2.879
  Name = 
  3 active torsions:
  status: ('A' for Active; 'I' for Inactive)
    1  A    between atoms: C_17  and  C_28
    2  A    between atoms: C_28  and  C_29
    3  A    between atoms: C_29  and  N_32
                            x       y       z     vdW  Elec       q    Type
                         _______ _______ _______ _____ _____    ______ ____

>  <TORSDO>
F 3

$$$$
=
 OpenBabel11122412163D

 34 40  0  0  1  0  0  0  0  0999 V2000
  189.1270  177.5700  140.5270 C   0  0  0  0  0  0  0  0  0  0  0  0
  188.5220  177.4020  142.9330 C   0  0  0  0  0  3  0  0  0  0  0  0
  186.8740  175.2190  135.6910 C   0  0  0  0  0  2  0  0  0  0  0  0
  189.2150  177.2810  138.1140 C   0  0  0  0  0  0  0  0  0  0  0  0
  187.2990  178.0260  136.7370 C   0  0  0  0  0  0  0  0  0  0  0  0
  185.4270  177.2510  135.2690 C   0  0  0  0  0  2  0  0  0  0  0  0
  185.8330  175.8630  134.7650 C   0  0  0  0  0  2  0  0  0  0  0  0
  188.5910  176.2820  134.5940 C   0  0  0  0  0  2  0  0  0  0  0  0
  187.2820  178.8890  141.5470 C   0  0  1  0  0  3  0  0  0  0  0  0
  184.3930  177.6350  142.0630 C   0  0  0  0  0  2  0  0  0  0  0  0
  186.6790  178.3670  137.8300 N   0  0  0  0  0  0  0  0  0  0  0  0
  189.3970  177.0710  135.6270 C   0  0  0  0  0  2  0  0  0  0  0  0
  186.5410  178.6260  140.3080 N   0  0  2  0  0  0  0  0  0  0  0  0
  187.4050  177.6450  143.5370 N   0  0  0  0  0  0  0  0  0  0  0  0
  188.6170  177.4380  136.8140 N   0  0  0  0  0  0  0  0  0  0  0  0
  188.1370  175.0410  135.0820 O   0  0  0  0  0  0  0  0  0  0  0  0
  185.1390  178.6080  142.9720 C   0  0  2  0  0  3  0  0  0  0  0  0
  188.5350  177.7460  139.2550 C   0  0  0  0  0  0  0  0  0  0  0  0
  186.5990  178.0900  135.4920 N   0  0  0  0  0  2  0  0  0  0  0  0
  187.2860  178.2510  139.1290 C   0  0  1  0  0  3  0  0  0  0  0  0
  190.9590  176.4030  139.4750 C   0  0  0  0  0  3  0  0  0  0  0  0
  184.1380  178.1990  140.6600 C   0  0  0  0  0  2  0  0  0  0  0  0
  190.4040  176.6290  138.2550 N   0  0  0  0  0  0  0  0  0  0  0  0
  185.2010  179.1820  140.1670 C   0  0  0  0  0  2  0  0  0  0  0  0
  186.5770  178.4590  142.7490 N   0  0  0  0  0  0  0  0  0  0  0  0
  190.3270  176.8590  140.6310 C   0  0  0  0  0  3  0  0  0  0  0  0
  188.5030  178.0350  141.6180 C   0  0  2  0  0  3  0  0  0  0  0  0
  184.7840  178.3570  144.4310 C   0  0  0  0  0  2  0  0  0  0  0  0
  185.7490  179.0970  145.3420 C   0  0  0  0  0  2  0  0  0  0  0  0
  188.0500  177.6610  147.3970 C   0  0  0  0  0  2  0  0  0  0  0  0
  186.3850  179.3350  147.5860 C   0  0  0  0  0  2  0  0  0  0  0  0
  185.8840  178.3840  146.6020 N   0  0  0  0  0  0  0  0  0  0  0  0
  187.4730  178.6480  148.3710 C   0  0  0  0  0  2  0  0  0  0  0  0
  186.9290  177.3830  146.4160 C   0  0  0  0  0  2  0  0  0  0  0  0
  1 26  1  0  0  0  0
  1 27  1  0  0  0  0
  2 14  2  0  0  0  0
  4 23  2  0  0  0  0
  4 18  1  0  0  0  0
  5 15  1  0  0  0  0
  5 11  2  0  0  0  0
  6 19  1  0  0  0  0
  7  6  1  0  0  0  0
  7  3  1  0  0  0  0
  8 16  1  0  0  0  0
  8 12  1  0  0  0  0
  9 27  1  0  0  0  0
  9 25  1  1  0  0  0
 10 17  1  0  0  0  0
 12 15  1  0  0  0  0
 13 24  1  6  0  0  0
 13  9  1  0  0  0  0
 15  4  1  0  0  0  0
 16  3  1  0  0  0  0
 17 28  1  1  0  0  0
 18  1  2  0  0  0  0
 19  5  1  0  0  0  0
 20 11  1  1  0  0  0
 20 18  1  0  0  0  0
 20 13  1  0  0  0  0
 21 26  2  0  0  0  0
 22 10  1  0  0  0  0
 23 21  1  0  0  0  0
 24 22  1  0  0  0  0
 25 17  1  0  0  0  0
 25 14  1  0  0  0  0
 27  2  1  1  0  0  0
 28 29  1  0  0  0  0
 29 32  1  0  0  0  0
 30 33  1  0  0  0  0
 31 33  1  0  0  0  0
 32 31  1  0  0  0  0
 34 32  1  0  0  0  0
 34 30  1  0  0  0  0
M  END
>  <MODEL>
7

>  <REMARK>
 VINA RESULT:      -7.2      2.579      4.560
  Name = 
  3 active torsions:
  status: ('A' for Active; 'I' for Inactive)
    1  A    between atoms: C_17  and  C_28
    2  A    between atoms: C_28  and  C_29
    3  A    between atoms: C_29  and  N_32
                            x       y       z     vdW  Elec       q    Type
                         _______ _______ _______ _____ _____    ______ ____

>  <TORSDO>
F 3

$$$$
=
 OpenBabel11122412163D

 34 40  0  0  1  0  0  0  0  0999 V2000
  186.9100  175.9830  135.9330 C   0  0  0  0  0  0  0  0  0  0  0  0
  189.0580  174.7480  135.7200 C   0  0  0  0  0  3  0  0  0  0  0  0
  183.3970  177.0930  140.4510 C   0  0  0  0  0  2  0  0  0  0  0  0
  184.8570  176.9710  136.7820 C   0  0  0  0  0  0  0  0  0  0  0  0
  184.9920  178.7560  138.4910 C   0  0  0  0  0  0  0  0  0  0  0  0
  184.5010  179.3290  140.8760 C   0  0  0  0  0  2  0  0  0  0  0  0
  183.4140  178.3520  141.3300 C   0  0  0  0  0  2  0  0  0  0  0  0
  182.0390  178.1180  138.9080 C   0  0  0  0  0  2  0  0  0  0  0  0
  189.1050  176.9850  136.5350 C   0  0  1  0  0  3  0  0  0  0  0  0
  190.5270  176.3850  139.3290 C   0  0  0  0  0  2  0  0  0  0  0  0
  186.2860  178.6210  138.4920 N   0  0  0  0  0  0  0  0  0  0  0  0
  182.7260  178.0390  137.5440 C   0  0  0  0  0  2  0  0  0  0  0  0
  188.4060  177.5870  137.6750 N   0  0  2  0  0  0  0  0  0  0  0  0
  190.1810  174.9050  136.3390 N   0  0  0  0  0  0  0  0  0  0  0  0
  184.1850  177.9150  137.6350 N   0  0  0  0  0  0  0  0  0  0  0  0
  182.2190  176.9570  139.6840 O   0  0  0  0  0  0  0  0  0  0  0  0
  191.2110  176.5350  137.9720 C   0  0  2  0  0  3  0  0  0  0  0  0
  186.2630  176.9270  136.7630 C   0  0  0  0  0  0  0  0  0  0  0  0
  184.3820  179.6210  139.4520 N   0  0  0  0  0  2  0  0  0  0  0  0
  186.9680  177.7090  137.6140 C   0  0  1  0  0  3  0  0  0  0  0  0
  184.7490  175.1250  135.2830 C   0  0  0  0  0  3  0  0  0  0  0  0
  189.7430  177.6340  139.7470 C   0  0  0  0  0  2  0  0  0  0  0  0
  184.1430  176.0750  136.0440 N   0  0  0  0  0  0  0  0  0  0  0  0
  189.1630  178.4400  138.5840 C   0  0  0  0  0  2  0  0  0  0  0  0
  190.2600  176.1810  136.9190 N   0  0  0  0  0  0  0  0  0  0  0  0
  186.1410  175.0550  135.2220 C   0  0  0  0  0  3  0  0  0  0  0  0
  188.2490  175.9520  135.8830 C   0  0  2  0  0  3  0  0  0  0  0  0
  192.4550  175.6610  137.9000 C   0  0  0  0  0  2  0  0  0  0  0  0
  193.4540  176.2470  136.9150 C   0  0  0  0  0  2  0  0  0  0  0  0
  195.0800  173.2600  137.0330 C   0  0  0  0  0  2  0  0  0  0  0  0
  195.2930  175.2860  135.8250 C   0  0  0  0  0  2  0  0  0  0  0  0
  194.7650  175.6550  137.1320 N   0  0  0  0  0  0  0  0  0  0  0  0
  195.8910  173.9090  135.9480 C   0  0  0  0  0  2  0  0  0  0  0  0
  194.5550  174.4120  137.8660 C   0  0  0  0  0  2  0  0  0  0  0  0
  1 18  1  0  0  0  0
  2 14  2  0  0  0  0
  3  7  1  0  0  0  0
  4 15  1  0  0  0  0
  5 11  2  0  0  0  0
  5 19  1  0  0  0  0
  6  7  1  0  0  0  0
  8 16  1  0  0  0  0
  9 25  1  1  0  0  0
  9 13  1  0  0  0  0
 10 22  1  0  0  0  0
 12 15  1  0  0  0  0
 12  8  1  0  0  0  0
 13 24  1  6  0  0  0
 14 25  1  0  0  0  0
 15  5  1  0  0  0  0
 16  3  1  0  0  0  0
 17 28  1  1  0  0  0
 17 10  1  0  0  0  0
 18  4  2  0  0  0  0
 19  6  1  0  0  0  0
 20 18  1  1  0  0  0
 20 13  1  0  0  0  0
 20 11  1  0  0  0  0
 21 23  2  0  0  0  0
 23  4  1  0  0  0  0
 24 22  1  0  0  0  0
 25 17  1  0  0  0  0
 26 21  1  0  0  0  0
 26  1  2  0  0  0  0
 27  2  1  1  0  0  0
 27  1  1  0  0  0  0
 27  9  1  0  0  0  0
 29 32  1  0  0  0  0
 29 28  1  0  0  0  0
 30 34  1  0  0  0  0
 31 33  1  0  0  0  0
 31 32  1  0  0  0  0
 32 34  1  0  0  0  0
 33 30  1  0  0  0  0
M  END
>  <MODEL>
8

>  <REMARK>
 VINA RESULT:      -7.0      3.449      5.085
  Name = 
  3 active torsions:
  status: ('A' for Active; 'I' for Inactive)
    1  A    between atoms: C_17  and  C_28
    2  A    between atoms: C_28  and  C_29
    3  A    between atoms: C_29  and  N_32
                            x       y       z     vdW  Elec       q    Type
                         _______ _______ _______ _____ _____    ______ ____

>  <TORSDO>
F 3

$$$$
=
 OpenBabel11122412163D

 34 40  0  0  1  0  0  0  0  0999 V2000
  184.3260  178.7440  144.5310 C   0  0  0  0  0  0  0  0  0  0  0  0
  181.9110  178.3970  144.0500 C   0  0  0  0  0  3  0  0  0  0  0  0
  189.1280  175.7500  143.1300 C   0  0  0  0  0  2  0  0  0  0  0  0
  186.7400  178.4900  144.6790 C   0  0  0  0  0  0  0  0  0  0  0  0
  188.0890  178.5420  142.6050 C   0  0  0  0  0  0  0  0  0  0  0  0
  189.5300  177.1770  141.0810 C   0  0  0  0  0  2  0  0  0  0  0  0
  190.0390  176.0030  141.9210 C   0  0  0  0  0  2  0  0  0  0  0  0
  190.2490  177.3190  144.3770 C   0  0  0  0  0  2  0  0  0  0  0  0
  183.2800  179.3760  142.3650 C   0  0  1  0  0  3  0  0  0  0  0  0
  182.7220  177.2300  140.0690 C   0  0  0  0  0  2  0  0  0  0  0  0
  186.9880  178.6620  141.9220 N   0  0  0  0  0  0  0  0  0  0  0  0
  189.2290  178.3380  144.8860 C   0  0  0  0  0  2  0  0  0  0  0  0
  184.5080  178.8730  141.7390 N   0  0  2  0  0  0  0  0  0  0  0  0
  181.2920  178.2560  142.9240 N   0  0  0  0  0  0  0  0  0  0  0  0
  188.0310  178.4300  144.0450 N   0  0  0  0  0  0  0  0  0  0  0  0
  189.7540  176.0010  144.3710 O   0  0  0  0  0  0  0  0  0  0  0  0
  181.8240  178.4020  140.4590 C   0  0  2  0  0  3  0  0  0  0  0  0
  185.5900  178.7050  143.8970 C   0  0  0  0  0  0  0  0  0  0  0  0
  189.3240  178.3620  141.9070 N   0  0  0  0  0  2  0  0  0  0  0  0
  185.6980  178.7630  142.5490 C   0  0  1  0  0  3  0  0  0  0  0  0
  185.4040  178.2530  146.6340 C   0  0  0  0  0  3  0  0  0  0  0  0
  184.1210  177.6690  139.6220 C   0  0  0  0  0  2  0  0  0  0  0  0
  186.6150  178.2730  146.0180 N   0  0  0  0  0  0  0  0  0  0  0  0
  184.6290  178.9480  140.2870 C   0  0  0  0  0  2  0  0  0  0  0  0
  182.0680  178.7410  141.8600 N   0  0  0  0  0  0  0  0  0  0  0  0
  184.2380  178.4770  145.9010 C   0  0  0  0  0  3  0  0  0  0  0  0
  183.2260  178.9800  143.8020 C   0  0  2  0  0  3  0  0  0  0  0  0
  180.3600  178.0550  140.2280 C   0  0  0  0  0  2  0  0  0  0  0  0
  180.2090  177.2150  138.9710 C   0  0  0  0  0  2  0  0  0  0  0  0
  179.6830  173.9100  139.5890 C   0  0  0  0  0  2  0  0  0  0  0  0
  179.0610  175.9650  140.5890 C   0  0  0  0  0  2  0  0  0  0  0  0
  179.1550  176.2310  139.1590 N   0  0  0  0  0  0  0  0  0  0  0  0
  178.9430  174.4740  140.7680 C   0  0  0  0  0  2  0  0  0  0  0  0
  179.6110  174.9940  138.5320 C   0  0  0  0  0  2  0  0  0  0  0  0
  1 26  1  0  0  0  0
  3 16  1  0  0  0  0
  4 23  2  0  0  0  0
  5 15  1  0  0  0  0
  6 19  1  0  0  0  0
  6  7  1  0  0  0  0
  7  3  1  0  0  0  0
  8 12  1  0  0  0  0
  9 25  1  6  0  0  0
  9 27  1  0  0  0  0
 10 17  1  0  0  0  0
 11  5  2  0  0  0  0
 13 24  1  6  0  0  0
 13  9  1  0  0  0  0
 13 20  1  0  0  0  0
 14  2  2  0  0  0  0
 15  4  1  0  0  0  0
 15 12  1  0  0  0  0
 16  8  1  0  0  0  0
 17 28  1  1  0  0  0
 17 25  1  0  0  0  0
 18  1  2  0  0  0  0
 18  4  1  0  0  0  0
 19  5  1  0  0  0  0
 20 11  1  6  0  0  0
 20 18  1  0  0  0  0
 22 10  1  0  0  0  0
 22 24  1  0  0  0  0
 23 21  1  0  0  0  0
 25 14  1  0  0  0  0
 26 21  2  0  0  0  0
 27  2  1  6  0  0  0
 27  1  1  0  0  0  0
 29 32  1  0  0  0  0
 29 28  1  0  0  0  0
 30 33  1  0  0  0  0
 31 33  1  0  0  0  0
 32 31  1  0  0  0  0
 34 32  1  0  0  0  0
 34 30  1  0  0  0  0
M  END
>  <MODEL>
9

>  <REMARK>
 VINA RESULT:      -6.8      3.443      9.317
  Name = 
  3 active torsions:
  status: ('A' for Active; 'I' for Inactive)
    1  A    between atoms: C_17  and  C_28
    2  A    between atoms: C_28  and  C_29
    3  A    between atoms: C_29  and  N_32
                            x       y       z     vdW  Elec       q    Type
                         _______ _______ _______ _____ _____    ______ ____

>  <TORSDO>
F 3

$$$$
