=
 OpenBabel11122410313D

 30 35  0  0  1  0  0  0  0  0999 V2000
  189.5540  177.5620  143.3570 C   0  0  2  0  0  3  0  0  0  0  0  0
  191.5030  176.9070  144.8850 C   0  0  2  0  0  3  0  0  0  0  0  0
  187.1050  177.9400  146.8400 N   0  0  0  0  0  2  0  0  0  0  0  0
  188.0170  177.6880  143.2550 C   0  0  2  0  0  3  0  0  0  0  0  0
  190.0710  176.7640  142.1570 C   0  0  0  0  0  2  0  0  0  0  0  0
  187.6740  177.7570  139.7400 O   0  0  0  0  0  0  0  0  0  0  0  0
  185.2310  177.8340  142.3420 C   0  0  1  0  0  3  0  0  0  0  0  0
  188.3150  177.8710  140.7770 C   0  0  0  0  0  0  0  0  0  0  0  0
  184.9040  178.0170  143.8160 C   0  0  2  0  0  3  0  0  0  0  0  0
  185.8820  178.1320  146.1480 C   0  0  0  0  0  0  0  0  0  0  0  0
  189.7710  177.4800  140.8390 C   0  0  2  0  0  3  0  0  0  0  0  0
  187.7100  178.5190  141.9990 C   0  0  1  0  0  3  0  0  0  0  0  0
  191.8530  176.0630  146.1150 C   0  0  0  0  0  2  0  0  0  0  0  0
  183.8370  179.0880  143.8670 C   0  0  0  0  0  2  0  0  0  0  0  0
  183.8920  178.0460  141.6510 C   0  0  0  0  0  2  0  0  0  0  0  0
  191.9480  178.2210  145.0590 O   0  0  0  0  0  1  0  0  0  0  0  0
  188.0600  177.9340  145.7850 C   0  0  2  0  0  3  0  0  0  0  0  0
  191.0080  176.4100  147.3180 C   0  0  0  0  0  3  0  0  0  0  0  0
  189.9870  176.8730  144.6550 C   0  0  1  0  0  3  0  0  0  0  0  0
  187.4660  178.4120  144.4920 C   0  0  2  0  0  3  0  0  0  0  0  0
  184.7670  178.1150  146.7320 O   0  0  0  0  0  0  0  0  0  0  0  0
  186.0210  178.2930  144.7370 N   0  0  0  0  0  0  0  0  0  0  0  0
  183.0510  178.9180  142.5780 C   0  0  0  0  0  2  0  0  0  0  0  0
  185.9160  179.9040  141.3810 O   0  0  0  0  0  0  0  0  0  0  0  0
  189.8010  176.9720  147.2090 C   0  0  0  0  0  3  0  0  0  0  0  0
  189.2530  177.3410  145.8910 C   0  0  2  0  0  3  0  0  0  0  0  0
  186.2530  178.8270  141.8520 C   0  0  0  0  0  0  0  0  0  0  0  0
  190.1790  176.5960  139.6650 C   0  0  0  0  0  2  0  0  0  0  0  0
  191.8540  176.3730  137.8590 C   0  0  0  0  0  1  0  0  0  0  0  0
  191.6160  176.8730  139.2680 C   0  0  0  0  0  2  0  0  0  0  0  0
  1  5  1  6  0  0  0
  1 19  1  0  0  0  0
  2 16  1  1  0  0  0
  2 13  1  0  0  0  0
  4  1  1  0  0  0  0
  4 20  1  0  0  0  0
  6  8  2  0  0  0  0
  7  9  1  0  0  0  0
  8 11  1  0  0  0  0
  8 12  1  0  0  0  0
  9 14  1  0  0  0  0
  9 22  1  0  0  0  0
 10 21  2  0  0  0  0
 10  3  1  0  0  0  0
 11  5  1  0  0  0  0
 12  4  1  0  0  0  0
 13 18  1  0  0  0  0
 15  7  1  0  0  0  0
 15 23  1  0  0  0  0
 17 26  1  0  0  0  0
 17  3  1  0  0  0  0
 19  2  1  0  0  0  0
 19 26  1  0  0  0  0
 20 22  1  0  0  0  0
 20 17  1  0  0  0  0
 22 10  1  0  0  0  0
 23 14  1  0  0  0  0
 24 27  2  0  0  0  0
 25 18  2  0  0  0  0
 26 25  1  0  0  0  0
 27 12  1  0  0  0  0
 27  7  1  0  0  0  0
 28 11  1  0  0  0  0
 29 30  1  0  0  0  0
 30 28  1  0  0  0  0
M  END
>  <MODEL>
1

>  <REMARK>
 VINA RESULT:     -10.8      0.000      0.000
  Name = 
  2 active torsions:
  status: ('A' for Active; 'I' for Inactive)
    1  A    between atoms: C_11  and  C_28
    2  A    between atoms: C_28  and  C_30
                            x       y       z     vdW  Elec       q    Type
                         _______ _______ _______ _____ _____    ______ ____

>  <TORSDO>
F 2

$$$$
=
 OpenBabel11122410313D

 30 35  0  0  1  0  0  0  0  0999 V2000
  186.6210  177.9380  142.0420 C   0  0  2  0  0  3  0  0  0  0  0  0
  184.1850  178.6120  141.6280 C   0  0  2  0  0  3  0  0  0  0  0  0
  185.7700  177.8820  146.2310 N   0  0  0  0  0  2  0  0  0  0  0  0
  187.7500  177.8660  143.0960 C   0  0  2  0  0  3  0  0  0  0  0  0
  187.1510  178.6360  140.7870 C   0  0  0  0  0  2  0  0  0  0  0  0
  190.5340  177.5840  140.9420 O   0  0  0  0  0  0  0  0  0  0  0  0
  190.3250  177.7710  144.5000 C   0  0  1  0  0  3  0  0  0  0  0  0
  189.3390  177.5110  141.1960 C   0  0  0  0  0  0  0  0  0  0  0  0
  189.4760  177.6960  145.7610 C   0  0  2  0  0  3  0  0  0  0  0  0
  187.1090  177.6940  146.6570 C   0  0  0  0  0  0  0  0  0  0  0  0
  188.3000  177.8480  140.1540 C   0  0  2  0  0  3  0  0  0  0  0  0
  188.8550  176.9680  142.5190 C   0  0  1  0  0  3  0  0  0  0  0  0
  183.0680  179.5200  142.1560 C   0  0  0  0  0  2  0  0  0  0  0  0
  190.1510  176.6740  146.6480 C   0  0  0  0  0  2  0  0  0  0  0  0
  191.7430  177.5670  145.0130 C   0  0  0  0  0  2  0  0  0  0  0  0
  183.7260  177.2960  141.5200 O   0  0  0  0  0  1  0  0  0  0  0  0
  185.8790  177.7830  144.8160 C   0  0  2  0  0  3  0  0  0  0  0  0
  182.7690  179.2860  143.6170 C   0  0  0  0  0  3  0  0  0  0  0  0
  185.3950  178.6920  142.5670 C   0  0  1  0  0  3  0  0  0  0  0  0
  187.2150  177.2460  144.3950 C   0  0  2  0  0  3  0  0  0  0  0  0
  187.4520  177.7930  147.8650 O   0  0  0  0  0  0  0  0  0  0  0  0
  188.0340  177.4370  145.6020 N   0  0  0  0  0  0  0  0  0  0  0  0
  191.6300  176.7920  146.3220 C   0  0  0  0  0  2  0  0  0  0  0  0
  190.5100  175.6180  143.4970 O   0  0  0  0  0  0  0  0  0  0  0  0
  183.6670  178.7650  144.4580 C   0  0  0  0  0  3  0  0  0  0  0  0
  184.9930  178.3330  143.9800 C   0  0  2  0  0  3  0  0  0  0  0  0
  189.9580  176.7090  143.4970 C   0  0  0  0  0  0  0  0  0  0  0  0
  188.8890  178.6380  138.9900 C   0  0  0  0  0  2  0  0  0  0  0  0
  187.7690  178.6600  136.7840 C   0  0  0  0  0  1  0  0  0  0  0  0
  188.7010  177.8820  137.6890 C   0  0  0  0  0  2  0  0  0  0  0  0
  1  5  1  6  0  0  0
  1 19  1  0  0  0  0
  1  4  1  0  0  0  0
  2 16  1  1  0  0  0
  2 13  1  0  0  0  0
  2 19  1  0  0  0  0
  3 10  1  0  0  0  0
  4 20  1  0  0  0  0
  6  8  2  0  0  0  0
  7 15  1  0  0  0  0
  7  9  1  0  0  0  0
  8 12  1  0  0  0  0
  9 14  1  0  0  0  0
 10 21  2  0  0  0  0
 11  5  1  0  0  0  0
 11  8  1  0  0  0  0
 12  4  1  0  0  0  0
 12 27  1  0  0  0  0
 13 18  1  0  0  0  0
 15 23  1  0  0  0  0
 17  3  1  0  0  0  0
 18 25  2  0  0  0  0
 19 26  1  0  0  0  0
 20 17  1  0  0  0  0
 20 22  1  0  0  0  0
 22  9  1  0  0  0  0
 22 10  1  0  0  0  0
 23 14  1  0  0  0  0
 26 25  1  0  0  0  0
 26 17  1  0  0  0  0
 27 24  2  0  0  0  0
 27  7  1  0  0  0  0
 28 11  1  0  0  0  0
 29 30  1  0  0  0  0
 30 28  1  0  0  0  0
M  END
>  <MODEL>
2

>  <REMARK>
 VINA RESULT:     -10.1      1.753      5.449
  Name = 
  2 active torsions:
  status: ('A' for Active; 'I' for Inactive)
    1  A    between atoms: C_11  and  C_28
    2  A    between atoms: C_28  and  C_30
                            x       y       z     vdW  Elec       q    Type
                         _______ _______ _______ _____ _____    ______ ____

>  <TORSDO>
F 2

$$$$
=
 OpenBabel11122410313D

 30 35  0  0  1  0  0  0  0  0999 V2000
  186.2200  178.3790  144.0560 C   0  0  2  0  0  3  0  0  0  0  0  0
  183.7280  178.8540  144.4200 C   0  0  2  0  0  3  0  0  0  0  0  0
  185.5510  178.7330  139.8480 N   0  0  0  0  0  2  0  0  0  0  0  0
  187.2820  177.9290  143.0280 C   0  0  2  0  0  3  0  0  0  0  0  0
  186.3670  177.5400  145.3280 C   0  0  0  0  0  2  0  0  0  0  0  0
  189.8680  176.9920  145.2430 O   0  0  0  0  0  0  0  0  0  0  0  0
  189.6590  176.8570  141.6820 C   0  0  1  0  0  3  0  0  0  0  0  0
  188.8320  177.5790  144.9610 C   0  0  0  0  0  0  0  0  0  0  0  0
  188.9520  177.2760  140.4020 C   0  0  2  0  0  3  0  0  0  0  0  0
  186.8440  178.3050  139.4520 C   0  0  0  0  0  0  0  0  0  0  0  0
  187.7340  177.7520  145.9820 C   0  0  2  0  0  3  0  0  0  0  0  0
  188.6600  178.2580  143.6240 C   0  0  1  0  0  3  0  0  0  0  0  0
  182.3350  178.5220  143.8730 C   0  0  0  0  0  2  0  0  0  0  0  0
  190.0240  177.8810  139.5230 C   0  0  0  0  0  2  0  0  0  0  0  0
  191.0300  176.4060  141.2000 C   0  0  0  0  0  2  0  0  0  0  0  0
  183.8950  180.2390  144.5070 O   0  0  0  0  0  1  0  0  0  0  0  0
  185.6690  178.7990  141.2650 C   0  0  2  0  0  3  0  0  0  0  0  0
  182.1950  178.8390  142.4040 C   0  0  0  0  0  3  0  0  0  0  0  0
  184.7960  178.2340  143.5090 C   0  0  1  0  0  3  0  0  0  0  0  0
  187.0980  178.6990  141.7120 C   0  0  2  0  0  3  0  0  0  0  0  0
  187.1290  178.0450  138.2530 O   0  0  0  0  0  0  0  0  0  0  0  0
  187.7690  178.1460  140.5260 N   0  0  0  0  0  0  0  0  0  0  0  0
  191.2940  177.1300  139.8830 C   0  0  0  0  0  2  0  0  0  0  0  0
  190.7570  178.7240  142.6730 O   0  0  0  0  0  0  0  0  0  0  0  0
  183.2450  178.8970  141.5800 C   0  0  0  0  0  3  0  0  0  0  0  0
  184.6180  178.7080  142.0850 C   0  0  2  0  0  3  0  0  0  0  0  0
  189.7810  177.9890  142.6680 C   0  0  0  0  0  0  0  0  0  0  0  0
  187.8940  176.8040  147.1640 C   0  0  0  0  0  2  0  0  0  0  0  0
  189.2140  178.3710  148.5510 C   0  0  0  0  0  1  0  0  0  0  0  0
  187.9250  177.5810  148.4660 C   0  0  0  0  0  2  0  0  0  0  0  0
  1  5  1  1  0  0  0
  2 16  1  6  0  0  0
  3 17  1  0  0  0  0
  4 12  1  0  0  0  0
  4  1  1  0  0  0  0
  5 11  1  0  0  0  0
  7 27  1  0  0  0  0
  8  6  2  0  0  0  0
  8 11  1  0  0  0  0
  9 22  1  0  0  0  0
  9  7  1  0  0  0  0
 10  3  1  0  0  0  0
 10 22  1  0  0  0  0
 11 28  1  0  0  0  0
 12  8  1  0  0  0  0
 13  2  1  0  0  0  0
 14 23  1  0  0  0  0
 14  9  1  0  0  0  0
 15  7  1  0  0  0  0
 17 20  1  0  0  0  0
 17 26  1  0  0  0  0
 18 13  1  0  0  0  0
 19  1  1  0  0  0  0
 19  2  1  0  0  0  0
 20  4  1  0  0  0  0
 21 10  2  0  0  0  0
 22 20  1  0  0  0  0
 23 15  1  0  0  0  0
 25 26  1  0  0  0  0
 25 18  2  0  0  0  0
 26 19  1  0  0  0  0
 27 24  2  0  0  0  0
 27 12  1  0  0  0  0
 28 30  1  0  0  0  0
 30 29  1  0  0  0  0
M  END
>  <MODEL>
3

>  <REMARK>
 VINA RESULT:     -10.0      2.222      6.860
  Name = 
  2 active torsions:
  status: ('A' for Active; 'I' for Inactive)
    1  A    between atoms: C_11  and  C_28
    2  A    between atoms: C_28  and  C_30
                            x       y       z     vdW  Elec       q    Type
                         _______ _______ _______ _____ _____    ______ ____

>  <TORSDO>
F 2

$$$$
=
 OpenBabel11122410313D

 30 35  0  0  1  0  0  0  0  0999 V2000
  187.5760  178.1110  144.7860 C   0  0  2  0  0  3  0  0  0  0  0  0
  185.4100  178.5930  146.0660 C   0  0  2  0  0  3  0  0  0  0  0  0
  185.4800  178.9590  141.1570 N   0  0  0  0  0  2  0  0  0  0  0  0
  188.1750  177.7600  143.4050 C   0  0  2  0  0  3  0  0  0  0  0  0
  188.1140  177.1290  145.8290 C   0  0  0  0  0  2  0  0  0  0  0  0
  191.3170  176.5200  144.4360 O   0  0  0  0  0  0  0  0  0  0  0  0
  189.8490  176.7990  141.1940 C   0  0  1  0  0  3  0  0  0  0  0  0
  190.2860  177.1580  144.6060 C   0  0  0  0  0  0  0  0  0  0  0  0
  188.7610  177.3770  140.3030 C   0  0  2  0  0  3  0  0  0  0  0  0
  186.5190  178.5520  140.2810 C   0  0  0  0  0  0  0  0  0  0  0  0
  189.6340  177.2350  145.9650 C   0  0  2  0  0  3  0  0  0  0  0  0
  189.6920  177.9890  143.4940 C   0  0  1  0  0  3  0  0  0  0  0  0
  183.8960  178.3550  146.0270 C   0  0  0  0  0  2  0  0  0  0  0  0
  189.4850  178.0560  139.1620 C   0  0  0  0  0  2  0  0  0  0  0  0
  190.9300  176.3780  140.2090 C   0  0  0  0  0  2  0  0  0  0  0  0
  185.6800  179.9550  146.2250 O   0  0  0  0  0  1  0  0  0  0  0  0
  186.0970  178.8590  142.4360 C   0  0  2  0  0  3  0  0  0  0  0  0
  183.2630  178.8420  144.7460 C   0  0  0  0  0  2  0  0  0  0  0  0
  186.0450  178.0590  144.7750 C   0  0  1  0  0  3  0  0  0  0  0  0
  187.5830  178.6790  142.3270 C   0  0  2  0  0  3  0  0  0  0  0  0
  186.3440  178.4250  139.0410 O   0  0  0  0  0  0  0  0  0  0  0  0
  187.7540  178.2520  140.9300 N   0  0  0  0  0  0  0  0  0  0  0  0
  190.7520  177.2420  138.9650 C   0  0  0  0  0  2  0  0  0  0  0  0
  191.3390  178.5170  141.9050 O   0  0  0  0  0  0  0  0  0  0  0  0
  183.9530  178.9720  143.6090 C   0  0  0  0  0  3  0  0  0  0  0  0
  185.4020  178.6980  143.5650 C   0  0  0  0  0  0  0  0  0  0  0  0
  190.3820  177.8070  142.1780 C   0  0  0  0  0  0  0  0  0  0  0  0
  190.1460  176.1540  146.9100 C   0  0  0  0  0  2  0  0  0  0  0  0
  192.4260  175.6290  147.7150 C   0  0  0  0  0  1  0  0  0  0  0  0
  191.3250  176.6680  147.7140 C   0  0  0  0  0  2  0  0  0  0  0  0
  1  5  1  1  0  0  0
  2 16  1  6  0  0  0
  3 17  1  0  0  0  0
  4 12  1  0  0  0  0
  4  1  1  0  0  0  0
  5 11  1  0  0  0  0
  6  8  2  0  0  0  0
  7 27  1  0  0  0  0
  8 11  1  0  0  0  0
  9 22  1  0  0  0  0
  9  7  1  0  0  0  0
 10 22  1  0  0  0  0
 10  3  1  0  0  0  0
 11 28  1  0  0  0  0
 12  8  1  0  0  0  0
 13  2  1  0  0  0  0
 14  9  1  0  0  0  0
 15  7  1  0  0  0  0
 17 26  1  0  0  0  0
 18 13  1  0  0  0  0
 19  1  1  0  0  0  0
 19  2  1  0  0  0  0
 20 17  1  0  0  0  0
 20  4  1  0  0  0  0
 21 10  2  0  0  0  0
 22 20  1  0  0  0  0
 23 14  1  0  0  0  0
 23 15  1  0  0  0  0
 24 27  2  0  0  0  0
 25 18  1  0  0  0  0
 26 25  2  0  0  0  0
 26 19  1  0  0  0  0
 27 12  1  0  0  0  0
 28 30  1  0  0  0  0
 30 29  1  0  0  0  0
M  END
>  <MODEL>
4

>  <REMARK>
 VINA RESULT:      -9.9      1.757      6.076
  Name = 
  2 active torsions:
  status: ('A' for Active; 'I' for Inactive)
    1  A    between atoms: C_11  and  C_28
    2  A    between atoms: C_28  and  C_30
                            x       y       z     vdW  Elec       q    Type
                         _______ _______ _______ _____ _____    ______ ____

>  <TORSDO>
F 2

$$$$
=
 OpenBabel11122410313D

 30 35  0  0  1  0  0  0  0  0999 V2000
  184.2840  178.9380  141.7370 C   0  0  2  0  0  3  0  0  0  0  0  0
  183.8370  179.0120  139.2150 C   0  0  2  0  0  3  0  0  0  0  0  0
  188.3410  177.9080  140.8660 N   0  0  0  0  0  2  0  0  0  0  0  0
  185.2400  178.4180  142.8340 C   0  0  2  0  0  3  0  0  0  0  0  0
  182.8480  178.5530  142.1000 C   0  0  0  0  0  2  0  0  0  0  0  0
  183.1040  178.6840  145.6340 O   0  0  0  0  0  0  0  0  0  0  0  0
  186.4490  177.4740  145.3360 C   0  0  1  0  0  3  0  0  0  0  0  0
  183.4400  178.9540  144.4880 C   0  0  0  0  0  0  0  0  0  0  0  0
  187.7230  177.3560  144.5140 C   0  0  2  0  0  3  0  0  0  0  0  0
  188.7220  177.6380  142.2050 C   0  0  0  0  0  0  0  0  0  0  0  0
  182.4110  179.2040  143.4140 C   0  0  2  0  0  3  0  0  0  0  0  0
  184.8920  179.1640  144.1320 C   0  0  1  0  0  3  0  0  0  0  0  0
  184.1350  178.2750  137.9050 C   0  0  0  0  0  2  0  0  0  0  0  0
  188.8320  177.8700  145.4040 C   0  0  0  0  0  2  0  0  0  0  0  0
  186.9110  177.1730  146.7540 C   0  0  0  0  0  2  0  0  0  0  0  0
  184.1560  180.3670  139.0890 O   0  0  0  0  0  1  0  0  0  0  0  0
  187.0170  178.4070  141.0150 C   0  0  2  0  0  3  0  0  0  0  0  0
  185.6150  178.1140  137.6510 C   0  0  0  0  0  2  0  0  0  0  0  0
  184.6330  178.3680  140.3570 C   0  0  1  0  0  3  0  0  0  0  0  0
  186.6960  178.7180  142.4480 C   0  0  2  0  0  3  0  0  0  0  0  0
  189.8210  177.0970  142.4980 O   0  0  0  0  0  0  0  0  0  0  0  0
  187.7370  177.9810  143.1790 N   0  0  0  0  0  0  0  0  0  0  0  0
  188.3970  177.5150  146.8150 C   0  0  0  0  0  2  0  0  0  0  0  0
  186.1270  179.7230  146.0500 O   0  0  0  0  0  0  0  0  0  0  0  0
  186.5170  178.1280  138.6370 C   0  0  0  0  0  3  0  0  0  0  0  0
  186.1100  178.3620  140.0350 C   0  0  0  0  0  0  0  0  0  0  0  0
  185.8340  178.8460  145.2510 C   0  0  0  0  0  0  0  0  0  0  0  0
  181.0300  178.6930  143.8100 C   0  0  0  0  0  2  0  0  0  0  0  0
  179.6170  180.3620  142.6530 C   0  0  0  0  0  1  0  0  0  0  0  0
  180.0420  178.9080  142.6810 C   0  0  0  0  0  2  0  0  0  0  0  0
  1  5  1  1  0  0  0
  1  4  1  0  0  0  0
  2 16  1  6  0  0  0
  2 19  1  0  0  0  0
  3 17  1  0  0  0  0
  3 10  1  0  0  0  0
  4 12  1  0  0  0  0
  5 11  1  0  0  0  0
  7 15  1  0  0  0  0
  8  6  2  0  0  0  0
  9  7  1  0  0  0  0
  9 14  1  0  0  0  0
 10 21  2  0  0  0  0
 10 22  1  0  0  0  0
 11 28  1  0  0  0  0
 11  8  1  0  0  0  0
 12  8  1  0  0  0  0
 12 27  1  0  0  0  0
 13  2  1  0  0  0  0
 14 23  1  0  0  0  0
 15 23  1  0  0  0  0
 17 20  1  0  0  0  0
 18 13  1  0  0  0  0
 18 25  1  0  0  0  0
 19  1  1  0  0  0  0
 20  4  1  0  0  0  0
 20 22  1  0  0  0  0
 22  9  1  0  0  0  0
 25 26  2  0  0  0  0
 26 19  1  0  0  0  0
 26 17  1  0  0  0  0
 27  7  1  0  0  0  0
 27 24  2  0  0  0  0
 29 30  1  0  0  0  0
 30 28  1  0  0  0  0
M  END
>  <MODEL>
5

>  <REMARK>
 VINA RESULT:      -9.6      2.382      7.420
  Name = 
  2 active torsions:
  status: ('A' for Active; 'I' for Inactive)
    1  A    between atoms: C_11  and  C_28
    2  A    between atoms: C_28  and  C_30
                            x       y       z     vdW  Elec       q    Type
                         _______ _______ _______ _____ _____    ______ ____

>  <TORSDO>
F 2

$$$$
=
 OpenBabel11122410313D

 30 35  0  0  1  0  0  0  0  0999 V2000
  187.8820  178.0580  142.5310 C   0  0  2  0  0  3  0  0  0  0  0  0
  189.4450  177.6320  144.5160 C   0  0  2  0  0  3  0  0  0  0  0  0
  184.6690  178.5180  145.3140 N   0  0  0  0  0  2  0  0  0  0  0  0
  186.4070  178.0810  142.0680 C   0  0  2  0  0  3  0  0  0  0  0  0
  188.7020  177.2140  141.5520 C   0  0  0  0  0  2  0  0  0  0  0  0
  186.8970  177.8880  138.5760 O   0  0  0  0  0  0  0  0  0  0  0  0
  183.9110  177.9890  140.5280 C   0  0  1  0  0  3  0  0  0  0  0  0
  187.2710  178.1130  139.7190 C   0  0  0  0  0  0  0  0  0  0  0  0
  183.2390  178.2520  141.8670 C   0  0  2  0  0  3  0  0  0  0  0  0
  183.6350  178.5860  144.3450 C   0  0  0  0  0  0  0  0  0  0  0  0
  188.6880  177.8190  140.1470 C   0  0  2  0  0  3  0  0  0  0  0  0
  186.3680  178.8030  140.7130 C   0  0  1  0  0  3  0  0  0  0  0  0
  189.5340  176.8970  145.8580 C   0  0  0  0  0  2  0  0  0  0  0  0
  182.1420  179.2540  141.5840 C   0  0  0  0  0  2  0  0  0  0  0  0
  182.7630  178.0700  139.5320 C   0  0  0  0  0  2  0  0  0  0  0  0
  189.7780  178.9800  144.6820 O   0  0  0  0  0  1  0  0  0  0  0  0
  185.8440  178.5000  144.5120 C   0  0  2  0  0  3  0  0  0  0  0  0
  188.4150  177.2710  146.8020 C   0  0  0  0  0  3  0  0  0  0  0  0
  188.0280  177.4870  143.9460 C   0  0  1  0  0  3  0  0  0  0  0  0
  185.5500  178.8510  143.0830 C   0  0  2  0  0  3  0  0  0  0  0  0
  182.4160  178.5380  144.6550 O   0  0  0  0  0  0  0  0  0  0  0  0
  184.0950  178.6580  142.9960 N   0  0  0  0  0  0  0  0  0  0  0  0
  181.6900  178.9480  140.1670 C   0  0  0  0  0  2  0  0  0  0  0  0
  184.7090  180.0270  139.5870 O   0  0  0  0  0  0  0  0  0  0  0  0
  187.2440  177.7480  146.3720 C   0  0  0  0  0  3  0  0  0  0  0  0
  187.0040  177.9920  144.9370 C   0  0  2  0  0  3  0  0  0  0  0  0
  184.9730  179.0090  140.2090 C   0  0  0  0  0  0  0  0  0  0  0  0
  189.3990  176.8840  139.1750 C   0  0  0  0  0  2  0  0  0  0  0  0
  191.6810  176.4710  138.3130 C   0  0  0  0  0  1  0  0  0  0  0  0
  190.8580  176.7330  139.5570 C   0  0  0  0  0  2  0  0  0  0  0  0
  1  5  1  6  0  0  0
  1 19  1  0  0  0  0
  2 16  1  1  0  0  0
  2 13  1  0  0  0  0
  4  1  1  0  0  0  0
  4 20  1  0  0  0  0
  6  8  2  0  0  0  0
  7  9  1  0  0  0  0
  8 11  1  0  0  0  0
  8 12  1  0  0  0  0
  9 22  1  0  0  0  0
 10 21  2  0  0  0  0
 10  3  1  0  0  0  0
 11  5  1  0  0  0  0
 12  4  1  0  0  0  0
 13 18  1  0  0  0  0
 14  9  1  0  0  0  0
 15 23  1  0  0  0  0
 15  7  1  0  0  0  0
 17 26  1  0  0  0  0
 17  3  1  0  0  0  0
 19  2  1  0  0  0  0
 19 26  1  0  0  0  0
 20 17  1  0  0  0  0
 22 20  1  0  0  0  0
 22 10  1  0  0  0  0
 23 14  1  0  0  0  0
 24 27  2  0  0  0  0
 25 18  2  0  0  0  0
 26 25  1  0  0  0  0
 27  7  1  0  0  0  0
 27 12  1  0  0  0  0
 28 30  1  0  0  0  0
 28 11  1  0  0  0  0
 29 30  1  0  0  0  0
M  END
>  <MODEL>
6

>  <REMARK>
 VINA RESULT:      -9.5      1.522      2.265
  Name = 
  2 active torsions:
  status: ('A' for Active; 'I' for Inactive)
    1  A    between atoms: C_11  and  C_28
    2  A    between atoms: C_28  and  C_30
                            x       y       z     vdW  Elec       q    Type
                         _______ _______ _______ _____ _____    ______ ____

>  <TORSDO>
F 2

$$$$
=
 OpenBabel11122410313D

 30 35  0  0  1  0  0  0  0  0999 V2000
  186.2580  178.5740  142.5390 C   0  0  2  0  0  3  0  0  0  0  0  0
  184.4690  178.9940  144.3240 C   0  0  2  0  0  3  0  0  0  0  0  0
  183.1970  178.8790  139.5700 N   0  0  0  0  0  2  0  0  0  0  0  0
  186.5040  178.1400  141.0760 C   0  0  2  0  0  3  0  0  0  0  0  0
  187.1560  177.7490  143.4640 C   0  0  0  0  0  2  0  0  0  0  0  0
  189.9220  177.2810  141.2960 O   0  0  0  0  0  0  0  0  0  0  0  0
  187.6270  177.1120  138.5670 C   0  0  1  0  0  3  0  0  0  0  0  0
  188.9100  177.8420  141.6950 C   0  0  0  0  0  0  0  0  0  0  0  0
  186.2850  177.5050  137.9680 C   0  0  2  0  0  3  0  0  0  0  0  0
  184.0040  178.4770  138.4760 C   0  0  0  0  0  0  0  0  0  0  0  0
  188.6370  177.9980  143.1710 C   0  0  2  0  0  3  0  0  0  0  0  0
  187.9560  178.5050  140.7310 C   0  0  1  0  0  3  0  0  0  0  0  0
  183.0340  178.6270  144.7180 C   0  0  0  0  0  2  0  0  0  0  0  0
  186.6030  178.1270  136.6270 C   0  0  0  0  0  2  0  0  0  0  0  0
  188.4470  176.6890  137.3580 C   0  0  0  0  0  2  0  0  0  0  0  0
  184.6230  180.3840  144.3050 O   0  0  0  0  0  1  0  0  0  0  0  0
  184.1370  178.9580  140.6350 C   0  0  2  0  0  3  0  0  0  0  0  0
  182.0350  178.9290  143.6270 C   0  0  0  0  0  3  0  0  0  0  0  0
  184.7930  178.3920  142.9510 C   0  0  1  0  0  3  0  0  0  0  0  0
  185.5510  178.8950  140.1370 C   0  0  2  0  0  3  0  0  0  0  0  0
  183.5210  178.2140  137.3430 O   0  0  0  0  0  0  0  0  0  0  0  0
  185.3920  178.3480  138.7820 N   0  0  0  0  0  0  0  0  0  0  0  0
  187.8540  177.4080  136.1500 C   0  0  0  0  0  2  0  0  0  0  0  0
  189.0560  179.0120  138.7180 O   0  0  0  0  0  0  0  0  0  0  0  0
  182.3820  179.0040  142.3390 C   0  0  0  0  0  3  0  0  0  0  0  0
  183.7880  178.8510  141.9210 C   0  0  2  0  0  3  0  0  0  0  0  0
  188.2880  178.2540  139.2930 C   0  0  0  0  0  0  0  0  0  0  0  0
  189.4950  177.0620  144.0150 C   0  0  0  0  0  2  0  0  0  0  0  0
  189.2350  177.1380  146.4740 C   0  0  0  0  0  1  0  0  0  0  0  0
  189.9410  177.7570  145.2870 C   0  0  0  0  0  2  0  0  0  0  0  0
  1 19  1  0  0  0  0
  1  5  1  1  0  0  0
  2 16  1  6  0  0  0
  2 13  1  0  0  0  0
  3 17  1  0  0  0  0
  4  1  1  0  0  0  0
  6  8  2  0  0  0  0
  7 27  1  0  0  0  0
  8 11  1  0  0  0  0
  9  7  1  0  0  0  0
  9 22  1  0  0  0  0
 10 22  1  0  0  0  0
 10  3  1  0  0  0  0
 11  5  1  0  0  0  0
 11 28  1  0  0  0  0
 12  4  1  0  0  0  0
 12  8  1  0  0  0  0
 14  9  1  0  0  0  0
 15  7  1  0  0  0  0
 17 26  1  0  0  0  0
 18 13  1  0  0  0  0
 19  2  1  0  0  0  0
 20 17  1  0  0  0  0
 20  4  1  0  0  0  0
 21 10  2  0  0  0  0
 22 20  1  0  0  0  0
 23 14  1  0  0  0  0
 23 15  1  0  0  0  0
 24 27  2  0  0  0  0
 25 18  2  0  0  0  0
 26 25  1  0  0  0  0
 26 19  1  0  0  0  0
 27 12  1  0  0  0  0
 28 30  1  0  0  0  0
 30 29  1  0  0  0  0
M  END
>  <MODEL>
7

>  <REMARK>
 VINA RESULT:      -9.1      2.699      6.402
  Name = 
  2 active torsions:
  status: ('A' for Active; 'I' for Inactive)
    1  A    between atoms: C_11  and  C_28
    2  A    between atoms: C_28  and  C_30
                            x       y       z     vdW  Elec       q    Type
                         _______ _______ _______ _____ _____    ______ ____

>  <TORSDO>
F 2

$$$$
=
 OpenBabel11122410313D

 30 35  0  0  1  0  0  0  0  0999 V2000
  189.4030  177.2170  142.2430 C   0  0  2  0  0  3  0  0  0  0  0  0
  190.7690  177.1110  140.0780 C   0  0  2  0  0  3  0  0  0  0  0  0
  186.0870  178.6280  139.9420 N   0  0  0  0  0  2  0  0  0  0  0  0
  188.1490  177.8210  142.9160 C   0  0  2  0  0  3  0  0  0  0  0  0
  190.6200  177.4640  143.1380 C   0  0  0  0  0  2  0  0  0  0  0  0
  189.0280  177.3440  146.3040 O   0  0  0  0  0  0  0  0  0  0  0  0
  186.1650  178.8660  144.8090 C   0  0  1  0  0  3  0  0  0  0  0  0
  189.1310  177.1120  145.1060 C   0  0  0  0  0  0  0  0  0  0  0  0
  185.3150  179.1060  143.5710 C   0  0  2  0  0  3  0  0  0  0  0  0
  185.2500  178.9280  141.0470 C   0  0  0  0  0  0  0  0  0  0  0  0
  190.4660  176.7690  144.4930 C   0  0  2  0  0  3  0  0  0  0  0  0
  187.9120  177.0410  144.2190 C   0  0  1  0  0  3  0  0  0  0  0  0
  191.0560  177.8780  138.7830 C   0  0  0  0  0  2  0  0  0  0  0  0
  183.9110  178.6950  143.9530 C   0  0  0  0  0  2  0  0  0  0  0  0
  185.2250  179.2040  145.9570 C   0  0  0  0  0  2  0  0  0  0  0  0
  190.4060  175.7920  139.7880 O   0  0  0  0  0  1  0  0  0  0  0  0
  187.2070  178.0060  140.5620 C   0  0  2  0  0  3  0  0  0  0  0  0
  189.8040  178.1780  137.9940 C   0  0  0  0  0  2  0  0  0  0  0  0
  189.6560  177.8220  140.8580 C   0  0  1  0  0  3  0  0  0  0  0  0
  186.9310  177.6610  141.9960 C   0  0  2  0  0  3  0  0  0  0  0  0
  184.1740  179.5690  140.9220 O   0  0  0  0  0  0  0  0  0  0  0  0
  185.7570  178.4900  142.3070 N   0  0  0  0  0  0  0  0  0  0  0  0
  183.8050  179.0030  145.4370 C   0  0  0  0  0  2  0  0  0  0  0  0
  185.9970  176.5930  145.5030 O   0  0  0  0  0  0  0  0  0  0  0  0
  188.5970  178.2460  138.5630 C   0  0  0  0  0  3  0  0  0  0  0  0
  188.4190  177.9690  140.0010 C   0  0  0  0  0  0  0  0  0  0  0  0
  186.6450  177.4420  144.9090 C   0  0  0  0  0  0  0  0  0  0  0  0
  191.6300  177.1470  145.4030 C   0  0  0  0  0  2  0  0  0  0  0  0
  191.9850  176.3210  147.7070 C   0  0  0  0  0  1  0  0  0  0  0  0
  192.0550  175.9560  146.2400 C   0  0  0  0  0  2  0  0  0  0  0  0
  1  4  1  0  0  0  0
  1  5  1  1  0  0  0
  2 16  1  6  0  0  0
  2 19  1  0  0  0  0
  3 17  1  0  0  0  0
  3 10  1  0  0  0  0
  4 12  1  0  0  0  0
  5 11  1  0  0  0  0
  7 27  1  0  0  0  0
  7 15  1  0  0  0  0
  8  6  2  0  0  0  0
  9 14  1  0  0  0  0
  9  7  1  0  0  0  0
 10 22  1  0  0  0  0
 11  8  1  0  0  0  0
 11 28  1  0  0  0  0
 12 27  1  0  0  0  0
 12  8  1  0  0  0  0
 13  2  1  0  0  0  0
 14 23  1  0  0  0  0
 17 20  1  0  0  0  0
 18 25  1  0  0  0  0
 18 13  1  0  0  0  0
 19  1  1  0  0  0  0
 20 22  1  0  0  0  0
 20  4  1  0  0  0  0
 21 10  2  0  0  0  0
 22  9  1  0  0  0  0
 23 15  1  0  0  0  0
 25 26  2  0  0  0  0
 26 17  1  0  0  0  0
 26 19  1  0  0  0  0
 27 24  2  0  0  0  0
 28 30  1  0  0  0  0
 30 29  1  0  0  0  0
M  END
>  <MODEL>
8

>  <REMARK>
 VINA RESULT:      -8.9      1.774      5.300
  Name = 
  2 active torsions:
  status: ('A' for Active; 'I' for Inactive)
    1  A    between atoms: C_11  and  C_28
    2  A    between atoms: C_28  and  C_30
                            x       y       z     vdW  Elec       q    Type
                         _______ _______ _______ _____ _____    ______ ____

>  <TORSDO>
F 2

$$$$
=
 OpenBabel11122410313D

 30 35  0  0  1  0  0  0  0  0999 V2000
  186.9350  178.5060  140.0050 C   0  0  2  0  0  3  0  0  0  0  0  0
  188.6310  178.0140  138.1490 C   0  0  2  0  0  3  0  0  0  0  0  0
  189.9380  177.4650  142.8640 N   0  0  0  0  0  2  0  0  0  0  0  0
  186.5890  178.2740  141.4930 C   0  0  2  0  0  3  0  0  0  0  0  0
  185.7170  178.1560  139.1460 C   0  0  0  0  0  2  0  0  0  0  0  0
  183.1470  179.0610  141.4150 O   0  0  0  0  0  0  0  0  0  0  0  0
  185.2420  177.9410  144.0790 C   0  0  1  0  0  3  0  0  0  0  0  0
  184.2830  179.0870  140.9600 C   0  0  0  0  0  0  0  0  0  0  0  0
  186.6430  177.6950  144.6190 C   0  0  2  0  0  3  0  0  0  0  0  0
  189.0890  177.5070  143.9990 C   0  0  0  0  0  0  0  0  0  0  0  0
  184.5260  179.0600  139.4710 C   0  0  2  0  0  3  0  0  0  0  0  0
  185.4790  179.2700  141.8630 C   0  0  1  0  0  3  0  0  0  0  0  0
  189.7220  177.0220  137.7310 C   0  0  0  0  0  2  0  0  0  0  0  0
  186.7060  178.4320  145.9380 C   0  0  0  0  0  2  0  0  0  0  0  0
  184.3780  177.9730  145.3310 C   0  0  0  0  0  2  0  0  0  0  0  0
  189.1270  179.3210  138.1080 O   0  0  0  0  0  1  0  0  0  0  0  0
  189.0870  177.9350  141.8240 C   0  0  2  0  0  3  0  0  0  0  0  0
  190.8000  176.8660  138.7760 C   0  0  0  0  0  2  0  0  0  0  0  0
  188.1350  177.6640  139.5580 C   0  0  1  0  0  3  0  0  0  0  0  0
  187.8240  178.5370  142.3660 C   0  0  2  0  0  3  0  0  0  0  0  0
  189.4530  177.0840  145.1280 O   0  0  0  0  0  0  0  0  0  0  0  0
  187.7820  178.0160  143.7410 N   0  0  0  0  0  0  0  0  0  0  0  0
  185.2900  178.3760  146.4850 C   0  0  0  0  0  2  0  0  0  0  0  0
  184.8270  180.2780  143.8820 O   0  0  0  0  0  0  0  0  0  0  0  0
  190.5880  177.1270  140.0690 C   0  0  0  0  0  3  0  0  0  0  0  0
  189.2870  177.6430  140.5360 C   0  0  0  0  0  0  0  0  0  0  0  0
  185.1380  179.2380  143.3210 C   0  0  0  0  0  0  0  0  0  0  0  0
  183.2970  178.5950  138.6970 C   0  0  0  0  0  2  0  0  0  0  0  0
  182.5000  176.3210  139.2560 C   0  0  0  0  0  1  0  0  0  0  0  0
  183.4140  177.1230  138.3540 C   0  0  0  0  0  2  0  0  0  0  0  0
  1  5  1  6  0  0  0
  1  4  1  0  0  0  0
  2 16  1  1  0  0  0
  2 19  1  0  0  0  0
  3 10  1  0  0  0  0
  4 12  1  0  0  0  0
  4 20  1  0  0  0  0
  5 11  1  0  0  0  0
  7  9  1  0  0  0  0
  7 15  1  0  0  0  0
  8  6  2  0  0  0  0
  8 12  1  0  0  0  0
  9 14  1  0  0  0  0
 10 21  2  0  0  0  0
 11  8  1  0  0  0  0
 12 27  1  0  0  0  0
 13  2  1  0  0  0  0
 13 18  1  0  0  0  0
 14 23  1  0  0  0  0
 15 23  1  0  0  0  0
 17 20  1  0  0  0  0
 17  3  1  0  0  0  0
 18 25  1  0  0  0  0
 19  1  1  0  0  0  0
 19 26  1  0  0  0  0
 20 22  1  0  0  0  0
 22 10  1  0  0  0  0
 22  9  1  0  0  0  0
 25 26  2  0  0  0  0
 26 17  1  0  0  0  0
 27 24  2  0  0  0  0
 27  7  1  0  0  0  0
 28 11  1  0  0  0  0
 30 28  1  0  0  0  0
 30 29  1  0  0  0  0
M  END
>  <MODEL>
9

>  <REMARK>
 VINA RESULT:      -8.7      2.085      5.392
  Name = 
  2 active torsions:
  status: ('A' for Active; 'I' for Inactive)
    1  A    between atoms: C_11  and  C_28
    2  A    between atoms: C_28  and  C_30
                            x       y       z     vdW  Elec       q    Type
                         _______ _______ _______ _____ _____    ______ ____

>  <TORSDO>
F 2

$$$$
